data_functionalizedCrystal
_audit_creation_method	'MofGen! by Chris Wilmer'
_symmetry_space_group_name_H-M	'P1'
_symmetry_Int_Tables_number	1
_symmetry_cell_setting	triclinic
loop_
_symmetry_equiv_pos_as_xyz
  x,y,z
_cell_length_a	17.699097
_cell_length_b	10.489746
_cell_length_c	16.776229
_cell_angle_alpha	89.993070
_cell_angle_beta	89.989262
_cell_angle_gamma	83.914866
loop_
_atom_site_label
_atom_site_type_symbol
_atom_site_fract_x
_atom_site_fract_y
_atom_site_fract_z
O1	O	1.005130	0.161376	-0.066355
O2	O	1.505130	0.661376	0.433645
O3	O	0.784890	0.182343	-0.066342
O4	O	1.284890	0.682343	0.433658
O5	O	0.900019	-0.013831	-0.066343
O6	O	1.400019	0.486169	0.433657
O7	O	0.890000	0.357550	-0.066354
O8	O	1.390000	0.857550	0.433646
O9	O	0.900004	-0.013843	0.066233
O10	O	1.400004	0.486157	0.566233
O11	O	0.784875	0.182331	0.066234
O12	O	1.284875	0.682331	0.566234
O13	O	1.005114	0.161364	0.066221
O14	O	1.505114	0.661364	0.566221
Zn15	Zn	0.894992	0.171846	0.087277
Zn16	Zn	1.394992	0.671846	0.587277
Zn17	Zn	0.895012	0.171861	-0.087398
Zn18	Zn	1.395012	0.671861	0.412602
O19	O	0.889985	0.357538	0.066222
O20	O	1.389985	0.857538	0.566222
C21	C	0.756681	0.181583	-0.000052
C22	C	1.256681	0.681583	0.499948
C23	C	0.672648	0.179320	-0.000047
C24	C	1.172648	0.679320	0.499953
C25	C	0.156847	0.165459	-0.072346
C26	C	0.656847	0.665459	0.427654
C27	C	0.235805	0.167576	-0.072343
C28	C	0.735805	0.667576	0.427657
C29	C	0.275270	0.168630	-0.000072
C30	C	0.775270	0.668630	0.499928
C31	C	0.235773	0.167554	0.072200
C32	C	0.735773	0.667554	0.572200
C33	C	0.156817	0.165428	0.072195
C34	C	0.656817	0.665428	0.572195
C35	C	0.554193	0.176127	0.072220
C36	C	1.054193	0.676127	0.572220
C37	C	0.633155	0.178257	0.072220
C38	C	1.133155	0.678257	0.572220
C39	C	0.633182	0.178275	-0.072317
C40	C	1.133182	0.678275	0.427683
C41	C	0.554226	0.176149	-0.072322
C42	C	1.054226	0.676149	0.427678
C43	C	0.514736	0.175066	-0.000051
C44	C	1.014736	0.675066	0.499949
C45	C	0.429121	0.172768	-0.000056
C46	C	0.929121	0.672768	0.499944
C47	C	0.360883	0.170937	-0.000066
C48	C	0.860883	0.670937	0.499934
C49	C	0.899254	-0.061354	-0.000055
C50	C	1.399254	0.438646	0.499945
C51	C	0.896988	-0.202941	-0.000055
C52	C	1.396988	0.297059	0.499945
C53	C	0.822393	-0.354419	-0.000061
C54	C	1.322393	0.145581	0.499939
C55	C	0.859695	-0.277711	-0.065429
C56	C	1.359695	0.222289	0.434571
C57	C	0.859697	-0.277764	0.065282
C58	C	1.359697	0.222236	0.565282
C59	C	0.930289	-0.378509	-0.065494
C60	C	1.430289	0.121491	0.434506
C61	C	0.930281	-0.378567	0.065275
C62	C	1.430281	0.121433	0.565275
C63	C	0.967635	-0.301909	-0.000109
C64	C	1.467635	0.198091	0.499891
C65	C	1.033324	0.162124	-0.000070
C66	C	1.533324	0.662124	0.499930
C67	C	1.117356	0.164387	-0.000081
C68	C	1.617356	0.664387	0.499919
C69	C	0.890750	0.405061	-0.000068
C70	C	1.390750	0.905061	0.499932
C71	C	0.893017	0.546648	-0.000073
C72	C	1.393017	1.046648	0.499927
N73	N	0.894983	0.171834	0.206488
N74	N	1.394983	0.671834	0.706488
N75	N	0.895027	0.171863	-0.206609
N76	N	1.395027	0.671863	0.293391
C77	C	0.945979	0.085004	0.248205
C78	C	1.445979	0.585004	0.748205
C79	C	0.945983	0.085003	0.331657
C80	C	1.445983	0.585003	0.831657
C81	C	0.894995	0.171839	0.373391
C82	C	1.394995	0.671839	0.873391
C83	C	0.843994	0.258673	0.331669
C84	C	1.343994	0.758673	0.831669
C85	C	0.843987	0.258667	0.248218
C86	C	1.343987	0.758667	0.748218
C87	C	0.844022	0.258698	0.668216
C88	C	1.344022	0.758698	1.168216
C89	C	0.844035	0.258700	0.751672
C90	C	1.344035	0.758700	1.251672
C91	C	0.946018	0.085034	0.751655
C92	C	1.446018	0.585034	1.251655
C93	C	0.946010	0.085028	0.668205
C94	C	1.446010	0.585028	1.168205
C95	C	0.895007	0.171857	0.626489
C96	C	1.395007	0.671857	1.126489
C97	C	0.895002	0.171855	0.536001
C98	C	1.395002	0.671855	1.036001
C99	C	0.895003	0.171847	0.463878
C100	C	1.395003	0.671847	0.963878
H101	H	0.522052	0.175227	0.131068
H102	H	1.022052	0.675227	0.631068
H103	H	0.960089	-0.422336	-0.120821
H104	H	1.460089	0.077664	0.379179
N105	N	1.000992	-0.008625	0.376662
N106	N	1.500992	0.491375	0.876662
H107	H	1.034754	0.040080	0.411268
H108	H	1.534754	0.540080	0.911268
H109	H	0.971719	-0.065019	0.411258
H110	H	1.471719	0.434981	0.911258
N111	N	1.001029	-0.008624	0.796648
N112	N	1.501029	0.491376	1.296648
H113	H	0.993298	0.004548	0.855846
H114	H	1.493298	0.504548	1.355846
H115	H	0.991798	-0.099092	0.782071
H116	H	1.491798	0.400908	1.282071
N117	N	0.114284	0.164330	-0.150296
N118	N	0.614284	0.664330	0.349704
H119	H	0.151286	0.165328	-0.196075
H120	H	0.651286	0.665328	0.303925
H121	H	0.087229	0.084411	-0.153445
H122	H	0.587229	0.584411	0.346555
H123	H	0.267912	0.168404	0.131044
H124	H	0.767912	0.668404	0.631044
H125	H	0.665284	0.179115	0.131075
H126	H	1.165284	0.679115	0.631075
H127	H	0.124663	0.164568	0.131041
H128	H	0.624663	0.664568	0.631041
H129	H	0.522097	0.175297	-0.131172
H130	H	1.022097	0.675297	0.368828
H131	H	0.829887	-0.233679	-0.120690
H132	H	1.329887	0.266321	0.379310
H133	H	0.665344	0.179152	-0.131164
H134	H	1.165344	0.679152	0.368836
H135	H	0.802495	0.329400	0.634258
H136	H	1.302495	0.829400	1.134258
N137	N	0.788994	0.352326	0.376677
N138	N	1.288994	0.852326	0.876677
H139	H	0.796736	0.339158	0.435873
H140	H	1.296736	0.839158	0.935873
H141	H	0.798224	0.442792	0.362077
H142	H	1.298224	0.942792	0.862077
N143	N	0.788982	0.352312	0.203219
N144	N	1.288982	0.852312	0.703219
H145	H	0.756682	0.407325	0.242319
H146	H	1.256682	0.907325	0.742319
H147	H	0.818254	0.408641	0.168577
H148	H	1.318254	0.908641	0.668577
N149	N	0.789034	0.352356	0.796689
N150	N	1.289034	0.852356	1.296689
H151	H	0.756719	0.407357	0.757600
H152	H	1.256719	0.907357	1.257600
H153	H	0.755323	0.303579	0.831328
H154	H	1.255323	0.803579	1.331328
N155	N	0.820191	-0.219492	0.138489
N156	N	1.320191	0.280508	0.638489
H157	H	0.776439	-0.155354	0.121819
H158	H	1.276439	0.344646	0.621819
H159	H	0.800344	-0.289351	0.171420
H160	H	1.300344	0.210649	0.671420
H161	H	0.987502	0.014297	0.214231
H162	H	1.487502	0.514297	0.714231
H163	H	0.960062	-0.422622	0.120538
H164	H	1.460062	0.077378	0.620538
H165	H	0.760982	-0.378002	-0.000122
H166	H	1.260982	0.121998	0.499878
N167	N	1.049040	-0.270994	-0.000150
N168	N	1.549040	0.229006	0.499850
H169	H	1.075624	-0.308014	-0.049547
H170	H	1.575624	0.191986	0.450453
H171	H	1.050066	-0.174916	0.000353
H172	H	1.550066	0.325084	0.500353
N173	N	1.001001	-0.008627	0.623186
N174	N	1.501001	0.491373	1.123186
H175	H	1.054797	0.005948	0.637688
H176	H	1.554797	0.505948	1.137688
H177	H	0.991727	-0.099093	0.637736
H178	H	1.491727	0.400907	1.137736
N179	N	0.278402	0.168716	-0.150286
N180	N	0.778402	0.668716	0.349714
H181	H	0.241420	0.167729	-0.196069
H182	H	0.741420	0.667729	0.303931
H183	H	0.305464	0.248629	-0.153438
H184	H	0.805464	0.748629	0.346562
