data_functionalizedCrystal
_audit_creation_method	'MofGen! by Chris Wilmer'
_symmetry_space_group_name_H-M	'P1'
_symmetry_Int_Tables_number	1
_symmetry_cell_setting	triclinic
loop_
_symmetry_equiv_pos_as_xyz
  x,y,z
_cell_length_a	6.817900
_cell_length_b	7.076028
_cell_length_c	23.337814
_cell_angle_alpha	89.014490
_cell_angle_beta	106.166730
_cell_angle_gamma	117.700652
loop_
_atom_site_label
_atom_site_type_symbol
_atom_site_fract_x
_atom_site_fract_y
_atom_site_fract_z
V1	V	-4.210702	-0.660784	-0.081428
O2	O	-4.183183	-0.652597	0.004889
O3	O	-4.172051	-0.652041	-0.162397
O4	O	-4.237464	-0.950902	-0.079747
O5	O	-4.117316	-0.351667	-0.078333
V6	V	-4.683327	-0.624324	-0.071154
O7	O	-4.495865	-0.740761	-0.103965
O8	O	-4.848361	-0.544347	-0.048618
O9	O	-4.498772	-0.633067	0.009815
O10	O	-4.828243	-0.632511	-0.157472
O11	O	-4.894109	-0.933441	-0.074250
O12	O	-4.433358	-0.334207	-0.072835
C13	C	-4.016991	-0.640527	-0.182149
C14	C	-4.067177	-0.635313	-0.248339
C15	C	-4.317187	-0.644577	0.029564
C16	C	-4.244927	-0.649935	0.096996
C17	C	-4.233716	-0.263346	-0.075863
C18	C	-4.107397	-0.021743	-0.076717
C19	C	-4.249743	-0.616467	-0.488851
C20	C	-4.007090	-0.606569	-0.460050
C21	C	-3.954335	-0.611149	-0.391164
C22	C	-4.159169	-0.625818	-0.369531
C23	C	-4.192812	-0.425986	-0.387719
C24	C	-4.243550	-0.420338	-0.456559
C25	C	-4.440416	-0.827181	-0.473856
C26	C	-4.385230	-0.835037	-0.405027
C27	C	-4.107989	-0.631096	-0.302095
C28	C	-4.300922	-0.611175	-0.556286
V29	V	-4.381845	-0.639135	0.206663
O30	O	-4.321567	-0.625753	0.294485
O31	O	-4.378199	-0.641996	0.122348
O32	O	-4.442993	-0.940941	0.204973
O33	O	-4.256325	-0.324738	0.211287
V34	V	-4.798629	-0.544262	0.233739
O35	O	-4.658036	-0.691803	0.191975
O36	O	-4.927863	-0.438655	0.263652
O37	O	-4.601267	-0.567647	0.310506
O38	O	-4.964629	-0.543839	0.149887
O39	O	-5.029871	-0.844854	0.233085
O40	O	-4.536473	-0.268702	0.227881
C41	C	-4.431346	-0.599272	0.324471
C42	C	-4.341734	-0.606973	0.389958
C43	C	-4.348681	-0.217936	0.219075
C44	C	-4.203856	0.021219	0.217525
H45	H	-3.923462	-0.753892	-0.379022
F46	F	-4.459597	-1.022368	-0.503571
H47	H	-3.863939	-0.454663	-0.469793
F48	F	-3.980880	-0.223436	-0.355158
H49	H	-4.341509	-0.429006	-0.373704
F50	F	-3.732652	-0.414710	-0.359679
F51	F	-4.356386	-1.028139	-0.390284
H52	H	-4.416093	-0.419054	-0.475505
F53	F	-4.589408	-0.865025	-0.386691
H54	H	-4.000982	-0.746709	-0.481360
H55	H	-4.618388	-0.836632	-0.492896
H56	H	-4.104561	-0.261984	-0.464900
