data_functionalizedCrystal
_audit_creation_method	'MofGen! by Chris Wilmer'
_symmetry_space_group_name_H-M	'P1'
_symmetry_Int_Tables_number	1
_symmetry_cell_setting	triclinic
loop_
_symmetry_equiv_pos_as_xyz
  x,y,z
_cell_length_a	16.992701
_cell_length_b	11.026623
_cell_length_c	15.455438
_cell_angle_alpha	86.740733
_cell_angle_beta	87.152792
_cell_angle_gamma	80.373063
loop_
_atom_site_label
_atom_site_type_symbol
_atom_site_fract_x
_atom_site_fract_y
_atom_site_fract_z
O1	O	1.074497	-0.265913	0.072134
O2	O	0.845808	-0.263054	0.072135
O3	O	0.941199	-0.085992	0.072130
O4	O	0.979107	-0.442974	0.072139
O5	O	0.946621	-0.075901	-0.072130
O6	O	0.851230	-0.252962	-0.072125
O7	O	1.079919	-0.255821	-0.072125
Cu8	Cu	0.966070	-0.253470	-0.085297
Cu9	Cu	0.959658	-0.265405	0.085306
O10	O	0.984529	-0.432883	-0.072121
C11	C	0.818787	-0.254327	0.000005
C12	C	0.730192	-0.243342	0.000005
C13	C	0.230815	-0.169536	0.000006
C14	C	0.314060	-0.179867	0.000001
C15	C	0.362023	-0.296195	0.000008
C16	C	0.326738	-0.402200	0.000011
C17	C	0.243494	-0.391868	0.000010
C18	C	0.611664	-0.339015	0.000007
C19	C	0.694912	-0.349339	0.000011
C20	C	0.682229	-0.127004	-0.000001
C21	C	0.598985	-0.116683	0.000003
C22	C	0.563707	-0.222687	0.000002
N23	N	0.447112	-0.306757	0.000006
N24	N	0.478619	-0.212124	-0.000002
C25	C	0.936916	-0.035057	0.000001
C26	C	0.916069	0.101678	0.000003
C27	C	0.973630	0.169902	0.000004
C28	C	0.952085	0.311225	0.000006
C29	C	1.106940	-0.264548	0.000006
C30	C	1.195535	-0.275533	0.000012
N31	N	0.970586	-0.245076	-0.205290
C32	C	0.988810	0.516182	0.000008
C33	C	1.009655	0.379447	0.000007
C34	C	0.930047	-0.320266	-0.250704
C35	C	0.933484	-0.313915	-0.341510
C36	C	0.977456	-0.232367	-0.386901
C37	C	1.018000	-0.157174	-0.341481
C38	C	1.014567	-0.163532	-0.250677
C39	C	0.992258	-0.204954	-0.658476
C40	C	0.995686	-0.198599	-0.749287
C41	C	0.911171	-0.355343	-0.749309
C42	C	0.907738	-0.361689	-0.658503
C43	C	0.948285	-0.286500	-0.613091
N44	N	0.980968	-0.225871	-0.479720
N45	N	0.944777	-0.293004	-0.520274
N46	N	0.955147	-0.273790	0.205300
H47	H	0.710961	-0.040702	-0.000001
F48	F	1.057717	-0.083507	-0.202346
F49	F	0.830805	0.162079	0.000011
H50	H	0.886849	0.357436	0.000011
F51	F	1.058894	0.109500	0.000009
F52	F	0.890339	-0.393943	-0.389843
F53	F	0.868022	-0.435362	-0.797645
H54	H	1.031495	-0.132188	-0.786240
H55	H	1.074888	0.333233	0.000072
H56	H	0.894236	-0.386666	-0.213753
H57	H	0.871932	-0.428092	-0.621547
H58	H	0.559938	-0.021956	-0.000002
F59	F	1.035408	-0.124930	-0.610152
F60	F	1.064803	-0.070389	-0.389791
H61	H	0.191768	-0.074809	0.000006
H62	H	0.733963	-0.444072	0.000004
F63	F	0.351603	-0.067049	-0.000009
F64	F	0.574129	-0.451837	0.000014
H65	H	0.365796	-0.496917	0.000011
H66	H	0.214771	-0.478183	0.000012
