data_functionalizedCrystal
_audit_creation_method	'MofGen! by Chris Wilmer'
_symmetry_space_group_name_H-M	'P1'
_symmetry_Int_Tables_number	1
_symmetry_cell_setting	triclinic
loop_
_symmetry_equiv_pos_as_xyz
  x,y,z
_cell_length_a	15.995343
_cell_length_b	16.992695
_cell_length_c	15.455417
_cell_angle_alpha	92.812891
_cell_angle_beta	87.004784
_cell_angle_gamma	92.921296
loop_
_atom_site_label
_atom_site_type_symbol
_atom_site_fract_x
_atom_site_fract_y
_atom_site_fract_z
O1	O	1.121223	-0.104083	-0.072043
O2	O	0.878283	-0.116571	-0.072064
O3	O	0.998779	0.003816	-0.072047
O4	O	1.000727	-0.224470	-0.072060
O5	O	0.991814	0.009914	0.072213
O6	O	0.871319	-0.110473	0.072196
O7	O	1.114258	-0.097985	0.072216
Cu8	Cu	0.992153	-0.103672	0.085378
Cu9	Cu	1.000389	-0.110883	-0.085226
O10	O	0.993763	-0.218372	0.072199
C11	C	0.843572	-0.113007	0.000063
C12	C	0.750518	-0.111463	0.000055
C13	C	0.580144	-0.108659	0.000067
C14	C	0.550983	-0.021758	0.000072
C15	C	0.454180	-0.020109	0.000405
C16	C	0.412399	-0.105897	0.000078
C17	C	0.440445	-0.146117	0.082291
C18	C	0.537303	-0.147145	0.082354
C19	C	0.545219	-0.155352	-0.081702
C20	C	0.448561	-0.152189	-0.082777
C21	C	0.317596	-0.104341	0.000087
C22	C	0.674946	-0.110217	0.000064
C23	C	0.992791	0.036078	0.000083
C24	C	0.985315	0.123121	0.000082
C25	C	1.148970	-0.101549	0.000087
C26	C	1.242024	-0.103093	0.000089
C27	C	0.999751	-0.250633	0.000068
C28	C	1.007227	-0.337677	0.000063
N29	N	0.986366	-0.098600	0.205371
C30	C	1.057450	0.173364	0.000089
C31	C	1.050421	0.255150	0.000080
C32	C	0.971255	0.286692	0.000070
C33	C	0.899115	0.236443	0.000061
C34	C	0.906145	0.154658	0.000063
C35	C	0.942117	0.530289	0.000056
C36	C	0.935092	0.612080	0.000056
C37	C	1.086399	0.630781	0.000074
C38	C	1.093422	0.548994	0.000082
C39	C	1.021282	0.498752	0.000067
N40	N	0.964068	0.370291	0.000064
N41	N	1.028470	0.415155	0.000067
C42	C	0.954402	-0.070316	0.749368
C43	C	0.958775	-0.074183	0.658562
C44	C	1.014918	-0.123703	0.613170
C45	C	1.066697	-0.169354	0.658590
C46	C	1.062328	-0.165483	0.749394
C47	C	1.033775	-0.140379	0.341596
C48	C	1.038139	-0.144249	0.250785
C49	C	0.930218	-0.049076	0.250763
C50	C	0.925850	-0.045213	0.341569
C51	C	0.977632	-0.090861	0.386981
N52	N	1.019387	-0.127658	0.520351
N53	N	0.973167	-0.086901	0.479798
N54	N	1.006176	-0.115965	0.794781
H55	H	0.559109	-0.114630	0.144047
C56	C	0.497523	-0.291595	-0.080302
C57	C	0.569977	-0.241742	-0.082781
H58	H	0.512815	-0.344924	-0.080957
H59	H	0.466068	-0.283960	-0.129405
H60	H	0.464557	-0.279716	-0.028851
H61	H	0.602941	-0.253617	-0.134235
H62	H	0.601446	-0.249382	-0.033673
H63	H	1.075940	-0.177550	0.378559
H64	H	1.121915	0.147690	0.000102
C65	C	0.865812	0.424344	-0.074117
C66	C	0.862818	0.475074	0.000044
H67	H	0.816850	0.390259	-0.074125
H68	H	0.913955	0.393851	-0.074106
H69	H	0.868650	0.454520	-0.124416
H70	H	0.859987	0.444898	0.050344
H71	H	0.814663	0.505570	0.000042
C72	C	1.180811	0.293120	-0.074054
C73	C	1.129718	0.310372	0.000093
H74	H	1.229770	0.327208	-0.074041
H75	H	1.151010	0.300557	-0.124357
H76	H	1.196314	0.239894	-0.074038
H77	H	1.114209	0.363596	0.000074
H78	H	1.159524	0.302941	0.050410
C79	C	0.917520	-0.037889	0.519355
C80	C	0.901838	-0.024031	0.608642
H81	H	0.882363	-0.006929	0.488539
H82	H	0.906286	-0.092164	0.504510
H83	H	0.974545	-0.023961	0.504461
H84	H	0.844814	-0.037965	0.623537
H85	H	0.913065	0.030256	0.623493
H86	H	0.420044	-0.214996	-0.088000
H87	H	0.435716	0.011604	-0.058517
C88	C	1.242277	0.575698	0.000098
C89	C	1.180443	0.514326	0.000093
H90	H	1.295999	0.554294	0.000105
H91	H	1.233956	0.609338	0.050398
H92	H	1.238816	0.605077	-0.050216
H93	H	1.183900	0.484951	0.050411
H94	H	1.188767	0.480673	-0.050211
H95	H	0.574908	0.013865	0.058944
C96	C	0.771571	0.242548	-0.074120
C97	C	0.812095	0.271114	0.000045
H98	H	0.717850	0.263957	-0.074129
H99	H	0.765433	0.186657	-0.074114
H100	H	0.803943	0.257670	-0.124416
H101	H	0.779726	0.255987	0.050342
H102	H	0.818229	0.327018	0.000047
C103	C	0.829857	0.048698	-0.074106
C104	C	0.826852	0.099428	0.000055
H105	H	0.780900	0.014605	-0.074115
H106	H	0.878005	0.018213	-0.074093
H107	H	0.832690	0.078873	-0.124405
H108	H	0.824026	0.069253	0.050355
H109	H	0.778691	0.129916	0.000050
C110	C	1.142809	0.764455	0.000069
C111	C	1.165692	0.686009	0.000077
H112	H	1.191766	0.798548	0.000063
H113	H	1.108154	0.776144	0.050370
H114	H	1.113000	0.771876	-0.050243
H115	H	1.195497	0.678586	0.050392
H116	H	1.200361	0.674316	-0.050230
C117	C	0.786232	0.585382	0.000012
C118	C	0.848068	0.646752	0.000031
H119	H	0.732511	0.606789	-0.000010
H120	H	0.789679	0.556002	0.050317
H121	H	0.794562	0.551741	-0.050296
H122	H	0.839741	0.680389	0.050343
H123	H	0.844618	0.676144	-0.050279
H124	H	0.579582	0.009433	-0.058874
C125	C	0.848174	0.023375	0.740217
C126	C	0.892690	-0.015879	0.799258
H127	H	0.810080	0.056987	0.771018
H128	H	0.817978	-0.014199	0.704819
H129	H	0.886276	0.053970	0.704784
H130	H	0.854588	-0.046479	0.834688
H131	H	0.922888	0.021699	0.834672
C132	C	0.819620	0.048485	0.332438
C133	C	0.864144	0.009225	0.391468
H134	H	0.781528	0.082093	0.363247
H135	H	0.789421	0.010914	0.297039
H136	H	0.857717	0.079083	0.297003
H137	H	0.826047	-0.021379	0.426898
H138	H	0.894344	0.046801	0.426882
C139	C	1.144390	-0.237931	0.259922
C140	C	1.099858	-0.198683	0.200888
H141	H	1.182492	-0.271532	0.229116
H142	H	1.106304	-0.268529	0.295355
H143	H	1.174585	-0.200346	0.295322
H144	H	1.069657	-0.236268	0.165492
H145	H	1.137950	-0.168083	0.165440
H146	H	0.574664	-0.130570	-0.144036
C147	C	1.121309	-0.217552	0.519404
C148	C	1.128410	-0.223789	0.608697
H149	H	1.159405	-0.251165	0.488606
H150	H	1.134002	-0.164553	0.504505
H151	H	1.065706	-0.232724	0.504543
H152	H	1.184012	-0.208612	0.623560
H153	H	1.115723	-0.276800	0.623602
C154	C	1.203298	-0.195163	0.777348
C155	C	1.119238	-0.215663	0.799315
H156	H	1.238434	-0.226146	0.808163
H157	H	1.214549	-0.140895	0.792212
H158	H	1.213923	-0.204560	0.716771
H159	H	1.108611	-0.206261	0.859891
H160	H	1.107983	-0.269945	0.784457
C161	C	0.490497	0.057401	0.128278
C162	C	0.422342	0.029222	0.080439
H163	H	0.470839	0.087851	0.177693
H164	H	0.527464	0.089345	0.093124
H165	H	0.519399	0.014114	0.146472
H166	H	0.393443	0.072509	0.062239
H167	H	0.385360	-0.002724	0.115599
H168	H	0.412686	-0.209125	0.085113
H169	H	0.555971	-0.210723	0.085866
H170	H	0.888061	-0.011911	0.213779
H171	H	0.415382	-0.113541	0.143709
H172	H	0.430811	-0.122940	-0.143599
