data_functionalizedCrystal
_audit_creation_method	'MofGen! by Chris Wilmer'
_symmetry_space_group_name_H-M	'P1'
_symmetry_Int_Tables_number	1
_symmetry_cell_setting	triclinic
loop_
_symmetry_equiv_pos_as_xyz
  x,y,z
_cell_length_a	34.571875
_cell_length_b	34.571051
_cell_length_c	34.567439
_cell_angle_alpha	60.004367
_cell_angle_beta	60.008842
_cell_angle_gamma	59.994195
loop_
_atom_site_label
_atom_site_type_symbol
_atom_site_fract_x
_atom_site_fract_y
_atom_site_fract_z
O1	O	0.053721	-0.565181	0.472559
O2	O	0.020283	-0.440038	0.380761
O3	O	0.099534	-0.519209	0.380676
O4	O	-0.025530	-0.486010	0.472643
O5	O	0.125831	-0.492917	0.406885
O6	O	0.046580	-0.413746	0.406969
O7	O	0.080018	-0.538889	0.498767
Zn8	Zn	0.067475	-0.472143	0.457030
Zn9	Zn	0.032827	-0.506784	0.422498
O10	O	0.000767	-0.459718	0.498852
N11	N	0.091122	-0.448505	0.480598
N12	N	0.009184	-0.530426	0.398930
C13	C	0.124402	-0.415465	0.717633
C14	C	0.328327	-0.415388	0.513477
C15	C	0.124221	-0.415437	0.513630
C16	C	0.124201	-0.211364	0.513624
C17	C	0.157075	-0.309853	0.546423
C18	C	0.157084	-0.382601	0.546423
C19	C	0.175289	-0.364414	0.564591
C20	C	0.254624	-0.350722	0.522790
C21	C	0.304220	-0.367243	0.506229
C22	C	0.304249	-0.447494	0.536832
C23	C	0.254655	-0.430972	0.553394
C24	C	0.169014	-0.285043	0.497667
C25	C	0.152454	-0.235444	0.481153
C26	C	0.112020	-0.235469	0.562154
C27	C	0.128580	-0.285068	0.578668
C28	C	0.108321	-0.370634	0.558439
C29	C	0.091776	-0.387168	0.541918
C30	C	0.172754	-0.427637	0.501375
C31	C	0.189301	-0.411103	0.517891
C32	C	0.108399	-0.370649	0.643978
C33	C	0.091911	-0.387197	0.693575
C34	C	0.172928	-0.427676	0.693511
C35	C	0.189415	-0.411128	0.643912
C36	C	0.157149	-0.382613	0.619147
C37	C	0.229844	-0.382585	0.546371
C38	C	0.105624	-0.433333	0.772186
C39	C	0.382878	-0.432925	0.495007
C40	C	0.105380	-0.433313	0.495792
C41	C	0.105683	-0.156808	0.496094
C42	C	-0.023527	-0.563458	0.161535
C43	C	-0.023851	-0.767445	0.365663
C44	C	-0.023821	-0.563448	0.365756
C45	C	-0.227785	-0.563229	0.365355
C46	C	-0.129302	-0.596153	0.332678
C47	C	-0.056593	-0.596234	0.332823
C48	C	-0.074746	-0.614396	0.314578
C49	C	-0.088477	-0.693710	0.356299
C50	C	-0.071982	-0.743310	0.372851
C51	C	0.008266	-0.743392	0.342376
C52	C	-0.008230	-0.693794	0.325823
C53	C	-0.154162	-0.608103	0.381422
C54	C	-0.203757	-0.591517	0.397874
C55	C	-0.203630	-0.551037	0.316836
C56	C	-0.154034	-0.567623	0.300384
C57	C	-0.068543	-0.547475	0.320829
C58	C	-0.052041	-0.530969	0.337421
C59	C	-0.011639	-0.611977	0.377990
C60	C	-0.028141	-0.628485	0.361404
C61	C	-0.068417	-0.547482	0.235199
C62	C	-0.051814	-0.530977	0.185602
C63	C	-0.011349	-0.611990	0.185649
C64	C	-0.027951	-0.628493	0.235248
C65	C	-0.056486	-0.596238	0.260022
C66	C	-0.056602	-0.668955	0.332787
C67	C	-0.005599	-0.544662	0.106983
C68	C	-0.006342	-0.821999	0.384121
C69	C	-0.005979	-0.544649	0.383673
C70	C	-0.282336	-0.544682	0.382817
N71	N	0.427518	-0.448428	0.480350
O72	O	0.589573	-0.456297	0.363634
O73	O	0.589761	-0.548399	0.488643
O74	O	0.589681	-0.548188	0.409364
O75	O	0.589654	-0.456508	0.442913
O76	O	0.510890	-0.521988	0.435708
O77	O	0.510970	-0.522199	0.514987
O78	O	0.510782	-0.430098	0.389978
Zn79	Zn	0.498366	-0.471989	0.456665
Zn80	Zn	0.602177	-0.506508	0.421956
O81	O	0.510862	-0.430308	0.469257
N82	N	0.673025	-0.530068	0.398267
N83	N	0.091092	-0.112167	0.480590
O84	O	-0.025539	0.049976	0.472612
O85	O	0.099472	0.050011	0.380491
O86	O	0.020155	0.049979	0.380751
O87	O	0.053778	0.050009	0.472352
O88	O	0.046458	-0.028818	0.407008
O89	O	0.125775	-0.028785	0.406748
O90	O	0.000764	-0.028821	0.498869
Zn91	Zn	0.067445	-0.041314	0.456977
Zn92	Zn	0.032791	0.062504	0.422382
O93	O	0.080081	-0.028788	0.498609
N94	N	0.009138	0.133358	0.398771
N95	N	0.091421	-0.448552	0.816827
O96	O	0.083469	-0.565164	0.978960
O97	O	-0.008614	-0.440110	0.979002
O98	O	-0.008399	-0.519410	0.978978
O99	O	0.083253	-0.485863	0.978984
O100	O	0.017837	-0.493128	0.900185
O101	O	0.017621	-0.413827	0.900208
O102	O	0.109704	-0.538881	0.900167
Zn103	Zn	0.067828	-0.472181	0.887677
Zn104	Zn	0.033262	-0.506810	0.991491
O105	O	0.109489	-0.459581	0.900191
N106	N	0.009668	-0.530444	1.062341
C107	C	0.030297	-0.411123	0.381218
C108	C	0.128439	-0.509167	0.381113
C109	C	0.070004	-0.567805	0.498310
C110	C	-0.028138	-0.469761	0.498415
C111	C	0.550388	-0.547982	0.517564
C112	C	0.550290	-0.547721	0.419387
C113	C	0.550153	-0.430514	0.361058
C114	C	0.550253	-0.430775	0.459234
C115	C	0.128339	0.010714	0.380902
C116	C	0.030148	0.010577	0.381256
C117	C	-0.028136	0.010574	0.498426
C118	C	0.070089	0.010613	0.498104
C119	C	-0.008178	-0.411214	0.939610
C120	C	-0.007906	-0.509413	0.939566
C121	C	0.109268	-0.567777	0.939558
C122	C	0.109002	-0.469572	0.939586
H123	H	0.082121	-0.347425	0.623816
C124	C	0.550075	-0.391447	0.312559
C125	C	0.550032	-0.342914	0.303095
C126	C	0.549955	-0.303847	0.254596
C127	C	0.549921	-0.313315	0.215561
C128	C	0.549964	-0.361850	0.225024
C129	C	0.550041	-0.400917	0.273523
H130	H	0.550058	-0.335903	0.331992
H131	H	0.549923	-0.267918	0.247591
H132	H	0.549863	-0.284395	0.179659
H133	H	0.549939	-0.368861	0.196127
H134	H	0.550073	-0.436846	0.280528
C135	C	0.550240	-0.391865	0.468927
C136	C	0.550170	-0.343254	0.430046
C137	C	0.550156	-0.304344	0.439740
C138	C	0.550213	-0.314045	0.488314
C139	C	0.550283	-0.362658	0.527198
C140	C	0.550297	-0.401568	0.517505
H141	H	0.550127	-0.336071	0.394086
H142	H	0.550104	-0.268357	0.410955
H143	H	0.550203	-0.285242	0.495489
H144	H	0.550325	-0.369842	0.563158
H145	H	0.550349	-0.437555	0.546289
C146	C	0.550458	-0.587046	0.566066
C147	C	0.509581	-0.607470	0.596599
C148	C	0.509650	-0.646534	0.645101
C149	C	0.550597	-0.665173	0.663068
C150	C	0.591477	-0.644749	0.632534
C151	C	0.591408	-0.605685	0.584033
H152	H	0.479267	-0.593672	0.583299
H153	H	0.479388	-0.661654	0.667704
H154	H	0.550649	-0.694091	0.698972
H155	H	0.621791	-0.658547	0.645834
H156	H	0.621670	-0.590565	0.561429
C157	C	-0.046789	-0.519089	0.939517
C158	C	-0.065305	-0.559453	0.980401
C159	C	-0.104189	-0.569130	0.980353
C160	C	-0.124557	-0.538442	0.939420
C161	C	-0.106042	-0.498076	0.898533
C162	C	-0.067158	-0.488399	0.898582
H163	H	-0.050227	-0.582172	1.010704
H164	H	-0.117895	-0.599012	1.010620
H165	H	-0.153341	-0.545605	0.939385
H166	H	-0.121120	-0.475357	0.868230
H167	H	-0.053452	-0.458517	0.868314
H168	H	0.022945	0.010574	0.352477
C169	C	-0.076635	0.010562	0.537496
C170	C	-0.115695	0.010545	0.528059
C171	C	-0.164194	0.010533	0.567129
C172	C	-0.173632	0.010538	0.615638
C173	C	-0.134571	0.010555	0.625077
C174	C	-0.086072	0.010567	0.586007
H175	H	-0.108709	0.010541	0.492148
H176	H	-0.193110	0.010521	0.560141
H177	H	-0.209534	0.010530	0.644560
H178	H	-0.141557	0.010559	0.660988
H179	H	-0.057156	0.010580	0.592995
C180	C	0.176737	0.011027	0.341731
C181	C	0.215747	0.011194	0.351119
C182	C	0.264145	0.011506	0.311949
C183	C	0.273533	0.011651	0.263391
C184	C	0.234522	0.011484	0.254001
C185	C	0.186124	0.011172	0.293171
H186	H	0.208798	0.011087	0.387067
H187	H	0.293023	0.011630	0.318900
H188	H	0.309359	0.011883	0.234395
H189	H	0.241470	0.011592	0.218053
H190	H	0.157245	0.011048	0.286220
C191	C	-0.076663	-0.460209	0.537430
C192	C	-0.079896	-0.463663	0.585070
C193	C	-0.128421	-0.454111	0.624086
C194	C	-0.173713	-0.441105	0.615462
C195	C	-0.170482	-0.437651	0.567820
C196	C	-0.121957	-0.447203	0.528804
H197	H	-0.046366	-0.473291	0.591456
H198	H	-0.130813	-0.456668	0.659353
H199	H	-0.209635	-0.434035	0.644343
H200	H	-0.204012	-0.428023	0.561434
H201	H	-0.119566	-0.444646	0.493537
C202	C	0.079813	0.010620	0.536985
C203	C	0.128405	0.010637	0.527261
C204	C	0.138130	0.010645	0.566142
C205	C	0.099262	0.010636	0.614748
C206	C	0.050666	0.010619	0.624474
C207	C	0.040942	0.010611	0.585593
H208	H	0.157181	0.010644	0.491278
H209	H	0.174104	0.010657	0.558942
H210	H	0.106460	0.010641	0.643530
H211	H	0.021891	0.010612	0.660457
H212	H	0.004968	0.010599	0.592793
H213	H	-0.037087	-0.375298	0.939623
C214	C	0.148325	-0.616295	0.939542
C215	C	0.139735	-0.661595	0.980447
C216	C	0.178793	-0.710113	0.980431
C217	C	0.226441	-0.713331	0.939509
C218	C	0.235033	-0.668029	0.898600
C219	C	0.195975	-0.619511	0.898617
H220	H	0.104462	-0.659215	1.010743
H221	H	0.172432	-0.743648	1.010714
H222	H	0.255354	-0.749246	0.939497
H223	H	0.270307	-0.670410	0.868305
H224	H	0.202336	-0.585976	0.868334
C225	C	0.038282	-0.374026	0.720884
C226	C	0.002794	-0.342658	0.693640
C227	C	-0.050834	-0.329487	0.720951
C228	C	-0.068975	-0.347684	0.775505
C229	C	-0.033486	-0.379054	0.802752
C230	C	0.020142	-0.392225	0.775442
H231	H	0.016223	-0.329186	0.653253
H232	H	-0.077104	-0.306264	0.700780
H233	H	-0.108673	-0.337934	0.795722
H234	H	-0.046915	-0.392526	0.843139
H235	H	0.046412	-0.415447	0.795612
C236	C	0.208421	-0.459035	0.720749
C237	C	0.262046	-0.472192	0.693433
C238	C	0.297541	-0.503552	0.720672
C239	C	0.279412	-0.521755	0.775226
C240	C	0.225785	-0.508599	0.802545
C241	C	0.190289	-0.477239	0.775307
H242	H	0.275468	-0.458716	0.653046
H243	H	0.337239	-0.513291	0.700448
H244	H	0.305687	-0.544970	0.795390
H245	H	0.212362	-0.522074	0.842932
H246	H	0.150591	-0.467499	0.795530
C247	C	0.243043	-0.424291	0.616599
C248	C	0.265516	-0.385072	0.582492
C249	C	0.319143	-0.398235	0.555180
C250	C	0.350299	-0.450616	0.561974
C251	C	0.327827	-0.489838	0.596082
C252	C	0.274199	-0.476676	0.623394
H253	H	0.242452	-0.346294	0.577461
H254	H	0.335779	-0.369200	0.529930
H255	H	0.389997	-0.460360	0.541755
H256	H	0.350890	-0.528617	0.601113
H257	H	0.257564	-0.505711	0.648643
H258	H	0.137795	-0.462392	0.939581
H259	H	0.550303	-0.576522	0.412207
H260	H	0.052069	-0.377412	0.551692
C261	C	0.208196	-0.458987	0.469991
C262	C	0.243911	-0.506822	0.488934
C263	C	0.279356	-0.538170	0.457546
C264	C	0.279085	-0.521685	0.407215
C265	C	0.243369	-0.473848	0.388269
C266	C	0.207925	-0.442499	0.419657
H267	H	0.244112	-0.519027	0.526195
H268	H	0.305795	-0.573582	0.471572
H269	H	0.305324	-0.544891	0.383980
H270	H	0.243168	-0.461642	0.351008
H271	H	0.181486	-0.407087	0.405631
C272	C	0.242935	-0.424234	0.504681
C273	C	0.274133	-0.476603	0.519078
C274	C	0.327764	-0.489721	0.505871
C275	C	0.350196	-0.450470	0.478267
C276	C	0.318998	-0.398098	0.463868
C277	C	0.265368	-0.384980	0.477075
H278	H	0.257527	-0.505662	0.539513
H279	H	0.350858	-0.528490	0.516530
H280	H	0.389897	-0.460180	0.468490
H281	H	0.335604	-0.369038	0.443432
H282	H	0.242273	-0.346210	0.466416
H283	H	0.234479	-0.456922	0.572596
C284	C	0.331546	-0.500721	0.544553
C285	C	0.304288	-0.535773	0.570493
C286	C	0.331584	-0.588998	0.578216
C287	C	0.386137	-0.607172	0.559999
C288	C	0.413397	-0.572119	0.534057
C289	C	0.386102	-0.518894	0.526334
H290	H	0.263902	-0.522320	0.583981
H291	H	0.311403	-0.614947	0.597420
H292	H	0.406343	-0.646573	0.565716
H293	H	0.453783	-0.585572	0.520569
H294	H	0.406282	-0.492945	0.507130
H295	H	0.164358	-0.516243	0.352233
C296	C	0.331479	-0.332191	0.480286
C297	C	0.324678	-0.302049	0.505641
C298	C	0.351937	-0.266996	0.479696
C299	C	0.385998	-0.262084	0.428397
C300	C	0.392801	-0.292227	0.403038
C301	C	0.365541	-0.327280	0.428983
H302	H	0.299462	-0.305684	0.543619
H303	H	0.346901	-0.244682	0.498469
H304	H	0.406177	-0.236135	0.409191
H305	H	0.418016	-0.288591	0.365060
H306	H	0.370577	-0.349593	0.410211
C307	C	0.227333	-0.297496	0.515066
C308	C	0.234110	-0.261428	0.464459
C309	C	0.206818	-0.208201	0.456735
C310	C	0.172749	-0.191044	0.499618
C311	C	0.165971	-0.227113	0.550229
C312	C	0.193263	-0.280339	0.557953
H313	H	0.259332	-0.274128	0.432712
H314	H	0.211836	-0.181501	0.419269
H315	H	0.152546	-0.151642	0.493900
H316	H	0.140749	-0.214412	0.581976
H317	H	0.188245	-0.307040	0.595418
H318	H	0.192214	-0.305222	0.471410
C319	C	0.165586	-0.208147	0.427518
C320	C	0.217955	-0.214946	0.396353
C321	C	0.231088	-0.187650	0.342719
C322	C	0.191852	-0.153556	0.320250
C323	C	0.139479	-0.146756	0.351415
C324	C	0.126346	-0.174052	0.405049
H325	H	0.247003	-0.240186	0.412986
H326	H	0.269858	-0.192684	0.319648
H327	H	0.201574	-0.133350	0.280546
H328	H	0.110431	-0.121516	0.334782
H329	H	0.087576	-0.169018	0.428119
C330	C	0.080683	-0.208199	0.597619
C331	C	0.099705	-0.215014	0.633267
C332	C	0.068368	-0.187744	0.668731
C333	C	0.018009	-0.153658	0.668546
C334	C	-0.001016	-0.146842	0.632896
C335	C	0.030321	-0.174112	0.597433
H336	H	0.136986	-0.240248	0.633405
H337	H	0.082452	-0.192790	0.695121
H338	H	-0.005188	-0.133471	0.694798
H339	H	-0.038297	-0.121608	0.632759
H340	H	0.016237	-0.169065	0.571043
C341	C	0.115448	-0.312365	0.632303
C342	C	0.154685	-0.346459	0.654772
C343	C	0.141553	-0.373754	0.708406
C344	C	0.089183	-0.366956	0.739571
C345	C	0.049943	-0.332860	0.717103
C346	C	0.063076	-0.305565	0.663469
H347	H	0.193455	-0.351492	0.631701
H348	H	0.170601	-0.398994	0.725038
H349	H	0.079462	-0.387162	0.779274
H350	H	0.011173	-0.327827	0.740174
H351	H	0.034027	-0.280325	0.646836
C352	C	-0.064947	-0.477341	0.158302
C353	C	-0.096338	-0.441865	0.185556
C354	C	-0.109471	-0.388230	0.158255
C355	C	-0.091214	-0.370071	0.103701
C356	C	-0.059822	-0.405548	0.076444
C357	C	-0.046689	-0.459183	0.103745
H358	H	-0.109854	-0.455306	0.225943
H359	H	-0.132710	-0.361967	0.178432
H360	H	-0.100936	-0.330367	0.083491
H361	H	-0.046306	-0.392106	0.036057
H362	H	-0.023450	-0.485445	0.083567
H363	H	-0.091654	-0.521212	0.255368
C364	C	0.020030	-0.647473	0.158402
C365	C	0.067827	-0.683201	0.165309
C366	C	0.099207	-0.718686	0.138063
C367	C	0.082789	-0.718444	0.103909
C368	C	0.034988	-0.682715	0.097001
C369	C	0.003609	-0.647230	0.124247
H370	H	0.079983	-0.683381	0.190593
H371	H	0.134592	-0.745135	0.143177
H372	H	0.106018	-0.744712	0.083740
H373	H	0.022832	-0.682535	0.071717
H374	H	-0.031776	-0.620782	0.119133
C375	C	-0.014826	-0.682129	0.262551
C376	C	-0.054065	-0.704581	0.296587
C377	C	-0.040939	-0.758216	0.323889
C378	C	0.011426	-0.789400	0.317153
C379	C	0.050669	-0.766949	0.283115
C380	C	0.037543	-0.713314	0.255813
H381	H	-0.092832	-0.681496	0.301575
H382	H	-0.069990	-0.774835	0.349086
H383	H	0.021143	-0.829103	0.337363
H384	H	0.089436	-0.790033	0.278127
H385	H	0.066593	-0.696694	0.230616
C386	C	-0.065181	-0.477334	0.324231
C387	C	-0.050668	-0.446226	0.271849
C388	C	-0.063807	-0.392592	0.258660
C389	C	-0.091458	-0.370066	0.297854
C390	C	-0.105972	-0.401174	0.350240
C391	C	-0.092833	-0.454808	0.363429
H392	H	-0.030198	-0.462901	0.242832
H393	H	-0.053063	-0.369564	0.219880
H394	H	-0.101184	-0.330363	0.288091
H395	H	-0.126442	-0.384500	0.379256
H396	H	-0.103578	-0.477837	0.402208
C397	C	0.019664	-0.647462	0.409420
C398	C	0.067498	-0.683183	0.390495
C399	C	0.098803	-0.718672	0.421925
C400	C	0.082274	-0.718440	0.472280
C401	C	0.034437	-0.682718	0.491207
C402	C	0.003133	-0.647229	0.459778
H403	H	0.079736	-0.683355	0.353217
H404	H	0.134215	-0.745116	0.407913
H405	H	0.105447	-0.744712	0.495546
H406	H	0.022199	-0.682545	0.528485
H407	H	-0.032279	-0.620785	0.473790
C408	C	-0.014987	-0.682122	0.374592
C409	C	-0.054207	-0.704586	0.402135
C410	C	-0.041047	-0.758224	0.415322
C411	C	0.011333	-0.789397	0.400965
C412	C	0.050557	-0.766933	0.373421
C413	C	0.037397	-0.713296	0.360234
H414	H	-0.092985	-0.681510	0.412764
H415	H	-0.070084	-0.774852	0.435712
H416	H	0.021075	-0.829102	0.410727
H417	H	0.089335	-0.790010	0.362792
H418	H	0.066433	-0.696667	0.339844
C419	C	0.026835	-0.666560	0.299960
C420	C	0.008692	-0.612004	0.281749
C421	C	0.043757	-0.584771	0.255884
C422	C	0.096964	-0.612095	0.248230
C423	C	0.115109	-0.666655	0.266441
C424	C	0.080044	-0.693888	0.292306
H425	H	-0.030697	-0.591774	0.287414
H426	H	0.030325	-0.544382	0.242403
H427	H	0.122921	-0.591936	0.229084
H428	H	0.154499	-0.686884	0.260776
H429	H	0.093477	-0.734276	0.305787
C430	C	-0.107051	-0.770536	0.398721
C431	C	-0.147698	-0.763668	0.444750
C432	C	-0.182772	-0.790892	0.470623
C433	C	-0.177198	-0.824985	0.450467
C434	C	-0.136550	-0.831854	0.404436
C435	C	-0.101476	-0.804630	0.378563
H436	H	-0.151825	-0.738430	0.459672
H437	H	-0.212862	-0.785807	0.504698
H438	H	-0.203162	-0.845138	0.469620
H439	H	-0.132423	-0.857093	0.389513
H440	H	-0.071386	-0.809715	0.344488
C441	C	-0.126955	-0.639484	0.416944
C442	C	-0.154301	-0.652620	0.470563
C443	C	-0.127095	-0.684001	0.506086
C444	C	-0.072542	-0.702245	0.487990
C445	C	-0.045192	-0.689109	0.434369
C446	C	-0.072399	-0.657728	0.398845
H447	H	-0.194687	-0.639114	0.483961
H448	H	-0.147341	-0.693725	0.545780
H449	H	-0.052402	-0.725475	0.514287
H450	H	-0.004806	-0.702615	0.420971
H451	H	-0.052152	-0.648004	0.359151
C452	C	-0.141686	-0.666388	0.363956
C453	C	-0.158780	-0.632285	0.321033
C454	C	-0.211990	-0.604961	0.328690
C455	C	-0.248106	-0.611740	0.379270
C456	C	-0.231013	-0.645844	0.422197
C457	C	-0.177803	-0.673168	0.414540
H458	H	-0.132044	-0.627266	0.283588
H459	H	-0.224643	-0.579714	0.296913
H460	H	-0.287495	-0.591513	0.384938
H461	H	-0.257749	-0.650864	0.459642
H462	H	-0.165150	-0.698415	0.446317
H463	H	0.082085	-0.347427	0.581670
C464	C	0.079652	-0.616369	0.537263
C465	C	0.120003	-0.634335	0.555797
C466	C	0.129651	-0.682899	0.594750
C467	C	0.098947	-0.713497	0.615168
C468	C	0.058593	-0.695531	0.596634
C469	C	0.048945	-0.646967	0.557681
H470	H	0.142735	-0.611684	0.540682
H471	H	0.159524	-0.696198	0.608470
H472	H	0.106089	-0.749446	0.644004
H473	H	0.035862	-0.718182	0.611749
H474	H	0.019072	-0.633668	0.543961
C475	C	-0.230839	-0.519664	0.281315
C476	C	-0.203495	-0.506534	0.227695
C477	C	-0.230703	-0.475164	0.192173
C478	C	-0.285256	-0.456924	0.210271
C479	C	-0.312604	-0.470054	0.263893
C480	C	-0.285395	-0.501424	0.299415
H481	H	-0.163109	-0.520037	0.214296
H482	H	-0.210458	-0.465445	0.152479
H483	H	-0.305397	-0.433702	0.183976
H484	H	-0.352990	-0.456551	0.277293
H485	H	-0.305640	-0.511143	0.339110
C486	C	-0.231109	-0.604657	0.451496
C487	C	-0.265217	-0.565424	0.473965
C488	C	-0.292569	-0.578565	0.527586
C489	C	-0.285813	-0.630938	0.558737
C490	C	-0.251703	-0.670174	0.536269
C491	C	-0.224351	-0.657034	0.482648
H492	H	-0.270220	-0.526652	0.450905
H493	H	-0.317820	-0.549519	0.544219
H494	H	-0.306060	-0.640665	0.598431
H495	H	-0.246700	-0.708947	0.559329
H496	H	-0.199101	-0.686079	0.466015
H497	H	-0.091707	-0.521211	0.297556
H498	H	0.047655	-0.763617	0.336709
H499	H	0.023152	-0.375173	0.352387
C500	C	-0.126681	-0.554484	0.246762
C501	C	-0.133436	-0.502112	0.215609
C502	C	-0.106082	-0.488973	0.161989
C503	C	-0.071974	-0.528208	0.139522
C504	C	-0.065218	-0.580584	0.170675
C505	C	-0.092572	-0.593722	0.224296
H506	H	-0.158686	-0.473065	0.232240
H507	H	-0.111083	-0.450201	0.138927
H508	H	-0.051725	-0.518482	0.099829
H509	H	-0.039967	-0.609630	0.154044
H510	H	-0.087570	-0.632494	0.247357
