data_functionalizedCrystal
_audit_creation_method	'MofGen! by Chris Wilmer'
_symmetry_space_group_name_H-M	'P1'
_symmetry_Int_Tables_number	1
_symmetry_cell_setting	triclinic
loop_
_symmetry_equiv_pos_as_xyz
  x,y,z
_cell_length_a	15.944551
_cell_length_b	15.944551
_cell_length_c	9.130313
_cell_angle_alpha	90.004338
_cell_angle_beta	89.991276
_cell_angle_gamma	83.498738
loop_
_atom_site_label
_atom_site_type_symbol
_atom_site_fract_x
_atom_site_fract_y
_atom_site_fract_z
O1	O	1.114514	0.108332	0.121650
O2	O	0.869964	0.121688	0.121687
O3	O	0.998917	-0.007265	0.121654
O4	O	0.985561	0.237285	0.121682
O5	O	0.998927	-0.007268	-0.121945
O6	O	0.869974	0.121685	-0.121912
O7	O	1.114524	0.108329	-0.121949
Cu8	Cu	0.992250	0.115006	-0.144173
Cu9	Cu	0.992238	0.115010	0.143911
O10	O	0.985571	0.237281	-0.121916
C11	C	0.838675	0.121132	-0.000108
C12	C	0.745429	0.119470	-0.000095
C13	C	0.530572	0.035565	-0.000133
C14	C	0.469547	0.074529	0.119979
C15	C	0.574703	0.116462	-0.000112
C16	C	0.469579	0.074545	-0.120190
C17	C	0.409790	0.113551	-0.000136
C18	C	0.514906	0.155448	0.120099
C19	C	0.514945	0.155453	-0.120179
C20	C	0.453937	0.194476	-0.000038
C21	C	0.669705	0.118137	-0.000097
C22	C	0.314789	0.111883	-0.000140
C23	C	0.998367	-0.038561	-0.000146
C24	C	0.996705	-0.131807	-0.000146
C25	C	0.912801	-0.346663	-0.000113
C26	C	0.951768	-0.407682	-0.120228
C27	C	0.993698	-0.302533	-0.000134
C28	C	0.951777	-0.407663	0.119941
C29	C	0.990787	-0.467445	-0.000117
C30	C	1.032687	-0.362323	-0.120348
C31	C	1.032685	-0.362297	0.119929
C32	C	1.071711	-0.423298	-0.000215
C33	C	0.995372	-0.207530	-0.000146
C34	C	0.989119	-0.562446	-0.000116
C35	C	1.145813	0.108885	-0.000151
C36	C	1.239059	0.110547	-0.000155
C37	C	0.986120	0.268577	-0.000114
C38	C	0.987782	0.361823	-0.000103
N39	N	0.992230	0.115006	0.346533
N40	N	0.992264	0.115003	-0.346796
C41	C	0.935033	0.171992	0.423237
C42	C	0.935048	0.171989	0.576574
C43	C	1.049464	0.058012	0.576490
C44	C	1.049445	0.058011	0.423155
C45	C	0.877818	0.228987	0.346615
C46	C	0.820617	0.285978	0.423319
C47	C	0.820632	0.285975	0.576656
C48	C	0.877848	0.228981	0.653289
H49	H	0.420779	0.261683	0.000037
H50	H	1.138919	-0.456457	-0.000293
F51	F	1.110440	-0.002553	0.658052
F52	F	0.907030	-0.433921	0.252661
F53	F	0.574108	-0.052202	0.000008
F54	F	0.541023	0.200140	0.252972
F55	F	0.541266	0.200138	-0.252903
F56	F	1.110319	-0.002642	0.341521
H57	H	0.449433	0.040314	0.221517
H58	H	0.774051	0.332373	0.639107
H59	H	0.774029	0.332376	0.360917
H60	H	0.877849	0.228977	0.778146
H61	H	0.449497	0.040313	-0.221732
H62	H	0.845652	-0.313356	-0.000223
F63	F	0.907052	-0.433967	-0.252946
H64	H	1.066879	-0.342334	-0.222008
F65	F	1.077366	-0.335982	0.252653
H66	H	0.877803	0.228996	0.221761
