data_functionalizedCrystal
_audit_creation_method	'MofGen! by Chris Wilmer'
_symmetry_space_group_name_H-M	'P1'
_symmetry_Int_Tables_number	1
_symmetry_cell_setting	triclinic
loop_
_symmetry_equiv_pos_as_xyz
  x,y,z
_cell_length_a	19.805407
_cell_length_b	16.120444
_cell_length_c	19.805399
_cell_angle_alpha	87.128215
_cell_angle_beta	90.019573
_cell_angle_gamma	92.926644
loop_
_atom_site_label
_atom_site_type_symbol
_atom_site_fract_x
_atom_site_fract_y
_atom_site_fract_z
Zn1	Zn	1.021070	-0.331929	0.396381
Zn2	Zn	1.354404	0.001405	0.729714
Zn3	Zn	1.687737	0.334738	1.063047
Zn4	Zn	1.015245	-0.471348	0.288930
Zn5	Zn	1.348579	-0.138015	0.622264
Zn6	Zn	1.681912	0.195319	0.955597
Zn7	Zn	0.907884	-0.331952	0.283206
Zn8	Zn	1.241217	0.001382	0.616539
Zn9	Zn	1.574551	0.334715	0.949873
Zn10	Zn	0.902111	-0.471304	0.402075
Zn11	Zn	1.235444	-0.137970	0.735409
Zn12	Zn	1.568777	0.195363	1.068742
O13	O	0.961578	-0.401633	0.342648
O14	O	1.294911	-0.068300	0.675981
O15	O	1.628244	0.265034	1.009315
O16	O	1.115014	-0.350432	0.382139
O17	O	1.448347	-0.017099	0.715473
O18	O	1.781681	0.316235	1.048806
O19	O	1.000982	-0.452885	0.193455
O20	O	1.334315	-0.119551	0.526789
O21	O	1.667649	0.213782	0.860122
O22	O	0.927752	-0.215282	0.293440
O23	O	1.261086	0.118051	0.626773
O24	O	1.594419	0.451384	0.960107
O25	O	1.110734	-0.452863	0.303196
O26	O	1.444068	-0.119529	0.636529
O27	O	1.777401	0.213804	0.969863
O28	O	1.010910	-0.215265	0.376589
O29	O	1.344243	0.118068	0.709922
O30	O	1.677577	0.451401	1.043256
O31	O	0.922104	-0.350471	0.189250
O32	O	1.255438	-0.017138	0.522583
O33	O	1.588771	0.316196	0.855917
O34	O	0.812402	-0.350428	0.298962
O35	O	1.145735	-0.017095	0.632295
O36	O	1.479069	0.316238	0.965629
O37	O	0.917912	-0.452787	0.496035
O38	O	1.251246	-0.119454	0.829369
O39	O	1.584579	0.213880	1.162702
O40	O	0.808160	-0.452809	0.386295
O41	O	1.141494	-0.119476	0.719628
O42	O	1.474827	0.213857	1.052961
O43	O	1.005312	-0.350389	0.491851
O44	O	1.338645	-0.017056	0.825185
O45	O	1.671978	0.316278	1.158518
O46	O	0.995384	-0.588008	0.308718
O47	O	1.328717	-0.254675	0.642051
O48	O	1.662050	0.078658	0.975385
O49	O	0.912264	-0.587976	0.391845
O50	O	1.245597	-0.254643	0.725178
O51	O	1.578931	0.078691	1.058512
C52	C	0.785722	-0.401617	0.342625
C53	C	1.119056	-0.068284	0.675959
C54	C	1.452389	0.265050	1.009292
C55	C	0.710490	-0.401630	0.342633
C56	C	1.043823	-0.068297	0.675966
C57	C	1.377156	0.265036	1.009299
C58	C	0.672951	-0.455020	0.388040
C59	C	1.006285	-0.121687	0.721373
C60	C	1.339618	0.211646	1.054707
C61	C	0.602263	-0.455022	0.388050
C62	C	0.935596	-0.121689	0.721383
C63	C	1.268929	0.211645	1.054716
C64	C	0.569114	-0.401637	0.342648
C65	C	0.902447	-0.068303	0.675981
C66	C	1.235781	0.265030	1.009315
C67	C	0.606657	-0.348241	0.297239
C68	C	0.939991	-0.014907	0.630572
C69	C	1.273324	0.318426	0.963905
C70	C	0.677345	-0.348236	0.297233
C71	C	1.010678	-0.014902	0.630566
C72	C	1.344012	0.318431	0.963900
C73	C	0.321583	-0.348259	0.297262
C74	C	0.654917	-0.014926	0.630595
C75	C	0.988250	0.318407	0.963928
C76	C	0.250891	-0.348270	0.297270
C77	C	0.584224	-0.014937	0.630603
C78	C	0.917558	0.318396	0.963936
C79	C	0.246501	-0.455045	0.388079
C80	C	0.579835	-0.121712	0.721412
C81	C	0.913168	0.211621	1.054745
C82	C	0.317189	-0.455040	0.388073
C83	C	0.650522	-0.121707	0.721406
C84	C	0.983855	0.211626	1.054739
C85	C	0.354726	-0.401642	0.342666
C86	C	0.688060	-0.068308	0.675999
C87	C	1.021393	0.265025	1.009333
C88	C	0.431375	-0.401640	0.342657
C89	C	0.764708	-0.068306	0.675990
C90	C	1.098041	0.265027	1.009324
C91	C	0.492466	-0.401642	0.342653
C92	C	0.825800	-0.068309	0.675987
C93	C	1.159133	0.265024	1.009320
C94	C	0.952584	-0.618243	0.351535
C95	C	1.285917	-0.284909	0.684869
C96	C	1.619250	0.048424	1.018202
C97	C	0.948798	-0.710909	0.355360
C98	C	1.282131	-0.377576	0.688693
C99	C	1.615465	-0.044242	1.022027
C100	C	0.981382	-0.921848	0.322953
C101	C	1.314715	-0.588515	0.656286
C102	C	1.648048	-0.255182	0.989620
C103	C	0.941899	-0.880566	0.362350
C104	C	1.275232	-0.547233	0.695683
C105	C	1.608566	-0.213900	1.029017
C106	C	0.945739	-0.786160	0.358460
C107	C	1.279072	-0.452827	0.691793
C108	C	1.612405	-0.119494	1.025126
C109	C	0.977543	-1.016263	0.326842
C110	C	1.310876	-0.682930	0.660176
C111	C	1.644209	-0.349596	0.993509
C112	C	1.138120	-0.401650	0.342671
C113	C	1.471453	-0.068316	0.676004
C114	C	1.804786	0.265017	1.009338
C115	C	1.213351	-0.401657	0.342681
C116	C	1.546685	-0.068323	0.676014
C117	C	1.880018	0.265010	1.009348
C118	C	0.961618	-0.401580	0.519189
C119	C	1.294951	-0.068247	0.852522
C120	C	1.628284	0.265086	1.185855
C121	C	0.961635	-0.401558	0.594420
C122	C	1.294968	-0.068225	0.927753
C123	C	1.628301	0.265109	1.261086
C124	C	0.970625	-0.184178	0.333741
C125	C	1.303958	0.149156	0.667074
C126	C	1.637292	0.482489	1.000407
C127	C	0.974480	-0.091511	0.329945
C128	C	1.307814	0.241822	0.663278
C129	C	1.641147	0.575156	0.996612
C130	C	0.961579	-0.401625	0.166792
C131	C	1.294912	-0.068292	0.500125
C132	C	1.628246	0.265042	0.833458
C133	C	0.961703	-0.401413	0.091551
C134	C	1.295036	-0.068079	0.424885
C135	C	1.628369	0.265254	0.758218
C136	C	1.007145	-0.348237	0.627586
C137	C	1.340478	-0.014903	0.960920
C138	C	1.673811	0.318430	1.294253
C139	C	1.007153	-0.348213	0.698274
C140	C	1.340486	-0.014879	1.031607
C141	C	1.673819	0.318454	1.364941
C142	C	0.961653	-0.401515	0.735794
C143	C	1.294987	-0.068181	1.069127
C144	C	1.628320	0.265152	1.402460
C145	C	0.916139	-0.454838	0.702622
C146	C	1.249472	-0.121505	1.035955
C147	C	1.582805	0.211828	1.369289
C148	C	0.916128	-0.454858	0.631936
C149	C	1.249461	-0.121524	0.965269
C150	C	1.582795	0.211809	1.298602
C151	C	0.916180	-0.454760	0.987692
C152	C	1.249513	-0.121427	1.321026
C153	C	1.582847	0.211906	1.654359
C154	C	0.916196	-0.454739	1.058384
C155	C	1.249529	-0.121405	1.391717
C156	C	1.582862	0.211928	1.725050
C157	C	1.007205	-0.348116	1.054031
C158	C	1.340538	-0.014782	1.387364
C159	C	1.673871	0.318551	1.720697
C160	C	1.007194	-0.348135	0.983344
C161	C	1.340527	-0.014802	1.316677
C162	C	1.673861	0.318532	1.650011
C163	C	0.961677	-0.401455	0.950179
C164	C	1.295011	-0.068122	1.283512
C165	C	1.628344	0.265212	1.616845
C166	C	0.961668	-0.401480	0.873531
C167	C	1.295002	-0.068146	1.206865
C168	C	1.628335	0.265187	1.540198
C169	C	0.961665	-0.401495	0.812440
C170	C	1.294998	-0.068162	1.145773
C171	C	1.628332	0.265172	1.479107
H172	H	0.579662	-0.304770	0.260275
H173	H	0.912996	0.028563	0.593608
H174	H	1.246329	0.361896	0.926941
H175	H	0.707908	-0.304756	0.260261
H176	H	1.041241	0.028578	0.593594
H177	H	1.374575	0.361911	0.926928
H178	H	0.905213	-0.916125	0.399001
H179	H	1.238546	-0.582792	0.732334
H180	H	1.571879	-0.249458	1.065667
H181	H	1.044213	-0.304795	0.725275
H182	H	1.377546	0.028538	1.058608
H183	H	1.710880	0.361872	1.391942
H184	H	0.879090	-0.498235	0.733176
H185	H	1.212423	-0.164901	1.066510
H186	H	1.545757	0.168432	1.399843
Cl187	Cl	1.038017	-0.866952	0.266368
Cl188	Cl	1.371351	-0.533618	0.599702
Cl189	Cl	1.704684	-0.200285	0.933035
Cl190	Cl	1.064350	-0.281229	0.580426
Cl191	Cl	1.397684	0.052105	0.913759
Cl192	Cl	1.731017	0.385438	1.247092
Cl193	Cl	0.858911	-0.521890	0.590240
Cl194	Cl	1.192244	-0.188557	0.923574
Cl195	Cl	1.525578	0.144776	1.256907
H196	H	0.699936	-0.498496	0.425009
H197	H	1.033269	-0.165162	0.758343
H198	H	1.366602	0.168171	1.091676
Cl199	Cl	1.064397	-0.281127	0.936180
Cl200	Cl	1.397731	0.052207	1.269514
Cl201	Cl	1.731064	0.385540	1.602847
Cl202	Cl	1.064424	-0.281080	1.095728
Cl203	Cl	1.397758	0.052253	1.429062
Cl204	Cl	1.731091	0.385587	1.762395
H205	H	0.879142	-0.498145	1.088931
H206	H	1.212475	-0.164812	1.422264
H207	H	1.545808	0.168521	1.755597
Cl208	Cl	0.555074	-0.522144	0.445136
Cl209	Cl	0.888408	-0.188811	0.778469
Cl210	Cl	1.221741	0.144523	1.111803
H211	H	0.215930	-0.498522	0.425053
H212	H	0.549263	-0.165189	0.758387
H213	H	0.882596	0.168145	1.091720
H214	H	0.879127	-0.498189	0.960698
H215	H	1.212460	-0.164856	1.294032
H216	H	1.545794	0.168477	1.627365
H217	H	0.344175	-0.498515	0.425041
H218	H	0.677508	-0.165181	0.758375
H219	H	1.010841	0.168152	1.091708
Cl220	Cl	0.368764	-0.281127	0.240181
Cl221	Cl	0.702098	0.052206	0.573514
Cl222	Cl	1.035431	0.385540	0.906847
Cl223	Cl	0.209219	-0.281151	0.240190
Cl224	Cl	0.542552	0.052183	0.573524
Cl225	Cl	0.875886	0.385516	0.906857
