data_functionalizedCrystal
_audit_creation_method	'MofGen! by Chris Wilmer'
_symmetry_space_group_name_H-M	'P1'
_symmetry_Int_Tables_number	1
_symmetry_cell_setting	triclinic
loop_
_symmetry_equiv_pos_as_xyz
  x,y,z
_cell_length_a	19.188933
_cell_length_b	19.288865
_cell_length_c	17.766277
_cell_angle_alpha	89.989546
_cell_angle_beta	90.007983
_cell_angle_gamma	96.859092
loop_
_atom_site_label
_atom_site_type_symbol
_atom_site_fract_x
_atom_site_fract_y
_atom_site_fract_z
O1	O	0.926142	-0.086723	0.062578
O2	O	0.722830	-0.098395	0.062586
O3	O	0.830361	0.008571	0.062567
O4	O	0.818612	-0.193689	0.062597
O5	O	0.830342	0.008574	-0.062622
O6	O	0.722811	-0.098392	-0.062603
O7	O	0.926123	-0.086720	-0.062611
Cu8	Cu	0.824465	-0.092556	-0.074037
Cu9	Cu	0.824488	-0.092559	0.074013
O10	O	0.818592	-0.193686	-0.062592
C11	C	0.696810	-0.098015	-0.000008
C12	C	0.619305	-0.096880	-0.000005
C13	C	0.066061	-0.088779	0.068226
C14	C	0.138885	-0.089841	0.068229
C15	C	0.175292	-0.090374	-0.000011
C16	C	0.138870	-0.089827	-0.068259
C17	C	0.066049	-0.088757	-0.068260
N18	N	0.284301	-0.131577	-0.050799
N19	N	0.353478	-0.132595	-0.050793
C20	C	0.394700	-0.093595	-0.000012
N21	N	0.364130	-0.053549	0.050775
N22	N	0.294946	-0.052534	0.050772
C23	C	0.254255	-0.091534	-0.000017
C24	C	0.510078	-0.095290	0.068235
C25	C	0.582904	-0.096348	0.068236
C26	C	0.582887	-0.096341	-0.068254
C27	C	0.510063	-0.095275	-0.068253
C28	C	0.473662	-0.094754	-0.000006
C29	C	0.829973	0.034449	-0.000030
C30	C	0.828839	0.111552	-0.000036
C31	C	0.952144	-0.087100	-0.000016
C32	C	1.029648	-0.088235	-0.000013
C33	C	0.818980	-0.219564	0.000007
C34	C	0.820115	-0.296668	0.000018
N35	N	0.824455	-0.092553	-0.178168
C36	C	0.891933	0.156244	-0.000043
C37	C	0.890867	0.228691	-0.000031
C38	C	0.826703	0.256443	-0.000028
C39	C	0.763600	0.211742	-0.000017
C40	C	0.764668	0.139297	-0.000022
C41	C	0.776255	0.364736	-0.043876
C42	C	0.775190	0.437181	-0.043877
C43	C	0.823406	0.479889	-0.000011
C44	C	0.872699	0.450146	0.043846
C45	C	0.873767	0.377701	0.043842
C46	C	0.825537	0.334998	-0.000022
C47	C	0.885348	0.603137	-0.000003
C48	C	0.884279	0.675585	0.000014
C49	C	0.757011	0.658635	0.000020
C50	C	0.758082	0.586188	0.000011
C51	C	0.822252	0.558444	-0.000004
C52	C	0.866660	-0.134580	-0.217543
C53	C	0.866671	-0.134578	-0.296345
C54	C	0.824464	-0.092557	-0.335768
C55	C	0.782255	-0.050521	-0.296383
C56	C	0.782251	-0.050519	-0.217583
C57	C	0.761526	-0.090795	-0.460626
C58	C	0.761529	-0.090802	-0.539425
C59	C	0.824478	-0.092559	-0.578815
C60	C	0.887425	-0.094324	-0.539396
C61	C	0.887421	-0.094322	-0.460596
C62	C	0.824464	-0.092554	-0.421214
C63	C	0.866699	-0.134586	-0.703636
C64	C	0.866712	-0.134579	-0.782440
C65	C	0.782289	-0.050526	-0.782476
C66	C	0.782283	-0.050529	-0.703674
C67	C	0.824487	-0.092563	-0.664259
N68	N	0.824505	-0.092557	0.178143
H69	H	0.612551	-0.096786	0.123806
F70	F	0.924017	0.495594	0.090536
H71	H	0.747912	-0.016309	-0.671614
F72	F	0.911639	-0.179310	-0.824346
F73	F	0.027326	-0.088219	0.140861
F74	F	0.953643	0.573606	-0.000022
F75	F	0.951437	0.723149	0.000012
H76	H	0.710260	-0.089369	-0.428561
H77	H	0.168517	-0.090259	-0.123821
F78	F	0.737337	-0.005797	-0.338341
F79	F	0.688723	0.688166	0.000027
H80	H	0.735050	0.461391	-0.079583
F81	F	0.690928	0.538623	0.000014
H82	H	0.901029	-0.168804	-0.185457
H83	H	0.036401	-0.088317	-0.123830
F84	F	0.471336	-0.094731	0.140869
H85	H	0.612528	-0.096772	-0.123817
F86	F	0.737375	-0.005797	-0.824427
H87	H	0.736991	0.329968	-0.079601
H88	H	0.480415	-0.094835	-0.123820
F89	F	0.958023	0.276263	-0.000036
F90	F	0.695312	0.241280	-0.000009
F91	F	0.697512	0.091731	-0.000015
F92	F	0.911595	-0.179310	-0.338260
F93	F	0.960229	0.126720	-0.000042
F94	F	0.926223	0.346048	0.090519
H95	H	0.938675	-0.095757	-0.428504
F96	F	0.177647	-0.090421	0.140861
H97	H	0.747880	-0.016295	-0.185523
F98	F	0.954426	-0.096194	-0.581311
F99	F	0.911628	-0.179309	-0.661685
H100	H	0.710273	-0.089369	-0.571513
