data_functionalizedCrystal
_audit_creation_method	'MofGen! by Chris Wilmer'
_symmetry_space_group_name_H-M	'P1'
_symmetry_Int_Tables_number	1
_symmetry_cell_setting	triclinic
loop_
_symmetry_equiv_pos_as_xyz
  x,y,z
_cell_length_a	18.215407
_cell_length_b	29.839131
_cell_length_c	18.215407
_cell_angle_alpha	90.015142
_cell_angle_beta	90.010236
_cell_angle_gamma	90.041868
loop_
_atom_site_label
_atom_site_type_symbol
_atom_site_fract_x
_atom_site_fract_y
_atom_site_fract_z
Zn1	Zn	1.124918	-0.178922	0.416101
Zn2	Zn	1.458251	0.154411	0.749434
Zn3	Zn	1.791584	0.487744	1.082767
Zn4	Zn	1.124811	-0.254031	0.293028
Zn5	Zn	1.458144	0.079302	0.626361
Zn6	Zn	1.791478	0.412636	0.959695
Zn7	Zn	1.001871	-0.178916	0.293048
Zn8	Zn	1.335204	0.154417	0.626381
Zn9	Zn	1.668537	0.487750	0.959715
Zn10	Zn	1.001781	-0.254027	0.416053
Zn11	Zn	1.335114	0.079307	0.749386
Zn12	Zn	1.668447	0.412640	1.082720
O13	O	1.063345	-0.216474	0.354557
O14	O	1.396678	0.116859	0.687891
O15	O	1.730012	0.450193	1.021224
O16	O	1.227888	-0.188890	0.399786
O17	O	1.561221	0.144443	0.733120
O18	O	1.894554	0.477777	1.066453
O19	O	1.108496	-0.244066	0.190047
O20	O	1.441829	0.089267	0.523380
O21	O	1.775163	0.422600	0.856713
O22	O	1.018276	-0.116050	0.309400
O23	O	1.351609	0.217283	0.642733
O24	O	1.684942	0.550617	0.976066
O25	O	1.227810	-0.244072	0.309366
O26	O	1.561143	0.089261	0.642699
O27	O	1.894476	0.422595	0.976032
O28	O	1.108678	-0.116054	0.399806
O29	O	1.442011	0.217279	0.733139
O30	O	1.775344	0.550612	1.066472
O31	O	1.018172	-0.188880	0.190061
O32	O	1.351506	0.144453	0.523395
O33	O	1.684839	0.477787	0.856728
O34	O	0.898875	-0.188876	0.309353
O35	O	1.232208	0.144458	0.642687
O36	O	1.565541	0.477791	0.976020
O37	O	1.018122	-0.244065	0.519044
O38	O	1.351455	0.089269	0.852377
O39	O	1.684788	0.422602	1.185710
O40	O	0.898808	-0.244059	0.399724
O41	O	1.232142	0.089275	0.733058
O42	O	1.565475	0.422608	1.066391
O43	O	1.108590	-0.188886	0.519079
O44	O	1.441923	0.144448	0.852412
O45	O	1.775257	0.477781	1.185745
O46	O	1.108409	-0.316898	0.309319
O47	O	1.441742	0.016436	0.642653
O48	O	1.775075	0.349769	0.975986
O49	O	1.018019	-0.316894	0.399705
O50	O	1.351352	0.016439	0.733038
O51	O	1.684685	0.349772	1.066372
C52	C	0.872139	-0.216466	0.354536
C53	C	1.205472	0.116867	0.687870
C54	C	1.538805	0.450200	1.021203
C55	C	0.790340	-0.216474	0.354545
C56	C	1.123673	0.116859	0.687878
C57	C	1.457007	0.450193	1.021211
C58	C	0.602131	-0.245253	0.401542
C59	C	0.935464	0.088080	0.734875
C60	C	1.268797	0.421414	1.068209
C61	C	0.525272	-0.245254	0.401551
C62	C	0.858605	0.088079	0.734884
C63	C	1.191939	0.421412	1.068218
C64	C	0.525311	-0.187703	0.307589
C65	C	0.858645	0.145630	0.640922
C66	C	1.191978	0.478963	0.974256
C67	C	0.602169	-0.187700	0.307584
C68	C	0.935502	0.145633	0.640917
C69	C	1.268835	0.478967	0.974251
C70	C	0.640576	-0.216477	0.354559
C71	C	0.973910	0.116856	0.687893
C72	C	1.307243	0.450189	1.021226
C73	C	0.486860	-0.216482	0.354574
C74	C	0.820194	0.116851	0.687907
C75	C	1.153527	0.450185	1.021240
C76	C	0.403527	-0.216483	0.354583
C77	C	0.736860	0.116850	0.687916
C78	C	1.070193	0.450183	1.021250
C79	C	0.723915	-0.216476	0.354551
C80	C	1.057249	0.116858	0.687884
C81	C	1.390582	0.450191	1.021218
C82	C	1.063212	-0.333197	0.354521
C83	C	1.396545	0.000137	0.687854
C84	C	1.729879	0.333470	1.021188
C85	C	1.063223	-0.383131	0.354530
C86	C	1.396556	-0.049798	0.687863
C87	C	1.729889	0.283536	1.021197
C88	C	1.110497	-0.692764	0.307562
C89	C	1.443830	-0.359430	0.640896
C90	C	1.777163	-0.026097	0.974229
C91	C	1.110588	-0.880437	0.307591
C92	C	1.443921	-0.547103	0.640924
C93	C	1.777254	-0.213770	0.974258
O94	O	1.150676	-0.904692	0.267629
O95	O	1.484010	-0.571359	0.600963
O96	O	1.817343	-0.238025	0.934296
N97	N	1.063498	-0.903916	0.354613
N98	N	1.396831	-0.570583	0.687946
N99	N	1.730164	-0.237249	1.021280
C100	C	1.016385	-0.880475	0.401635
C101	C	1.349718	-0.547141	0.734968
C102	C	1.683052	-0.213808	1.068301
O103	O	0.976340	-0.904752	0.441636
O104	O	1.309673	-0.571418	0.774969
O105	O	1.643006	-0.238085	1.108302
C106	C	1.016299	-0.692802	0.401609
C107	C	1.349632	-0.359469	0.734943
C108	C	1.682965	-0.026136	1.068276
C109	C	1.063386	-0.669325	0.354579
C110	C	1.396720	-0.335992	0.687912
C111	C	1.730053	-0.002659	1.021245
C112	C	1.157581	-0.669286	0.260536
C113	C	1.490914	-0.335953	0.593870
C114	C	1.824248	-0.002620	0.927203
C115	C	1.157555	-0.622371	0.260527
C116	C	1.490888	-0.289038	0.593860
C117	C	1.824222	0.044296	0.927194
C118	C	1.110445	-0.598933	0.307543
C119	C	1.443778	-0.265599	0.640877
C120	C	1.777111	0.067734	0.974210
C121	C	1.063360	-0.622410	0.354569
C122	C	1.396694	-0.289076	0.687903
C123	C	1.730027	0.044257	1.021236
C124	C	0.969190	-0.669362	0.448634
C125	C	1.302524	-0.336028	0.781967
C126	C	1.635857	-0.002695	1.115301
C127	C	0.969174	-0.622441	0.448625
C128	C	1.302507	-0.289107	0.781958
C129	C	1.635841	0.044226	1.115292
C130	C	1.016262	-0.598964	0.401594
C131	C	1.349595	-0.265630	0.734928
C132	C	1.682928	0.067703	1.068261
C133	C	1.016224	-0.552056	0.401576
C134	C	1.349557	-0.218723	0.734910
C135	C	1.682890	0.114611	1.068243
N136	N	1.063314	-0.528577	0.354554
N137	N	1.396647	-0.195243	0.687888
N138	N	1.729980	0.138090	1.021221
C139	C	1.110424	-0.552015	0.307538
C140	C	1.443757	-0.218681	0.640871
C141	C	1.777091	0.114652	0.974204
C142	C	1.016433	-0.979005	0.401644
C143	C	1.349766	-0.645672	0.734977
C144	C	1.683100	-0.312339	1.068310
C145	C	1.016453	-1.025923	0.401649
C146	C	1.349787	-0.692590	0.734982
C147	C	1.683120	-0.359256	1.068316
C148	C	1.110657	-1.025882	0.307606
C149	C	1.443990	-0.692548	0.640940
C150	C	1.777324	-0.359215	0.974273
C151	C	1.110632	-0.978963	0.307597
C152	C	1.443966	-0.645630	0.640931
C153	C	1.777299	-0.312296	0.974264
C154	C	1.063523	-0.955526	0.354622
C155	C	1.396856	-0.622192	0.687955
C156	C	1.730189	-0.288859	1.021288
C157	C	1.110365	-0.453489	0.307521
C158	C	1.443699	-0.120156	0.640854
C159	C	1.777032	0.213178	0.974188
C160	C	1.110333	-0.406569	0.307513
C161	C	1.443666	-0.073236	0.640847
C162	C	1.777000	0.260097	0.974180
C163	C	1.016133	-0.406615	0.401559
C164	C	1.349466	-0.073281	0.734892
C165	C	1.682799	0.260052	1.068225
C166	C	1.016162	-0.453530	0.401564
C167	C	1.349495	-0.120197	0.734897
C168	C	1.682828	0.213136	1.068231
C169	C	1.063284	-0.476966	0.354542
C170	C	1.396618	-0.143633	0.687876
C171	C	1.729951	0.189700	1.021209
O172	O	0.976162	-0.527772	0.441523
O173	O	1.309495	-0.194438	0.774856
O174	O	1.642829	0.138895	1.108190
O175	O	1.150475	-0.527730	0.267554
O176	O	1.483808	-0.194396	0.600887
O177	O	1.817142	0.138937	0.934221
C178	C	1.110523	-0.739679	0.307572
C179	C	1.443856	-0.406346	0.640905
C180	C	1.777189	-0.073012	0.974238
C181	C	1.063438	-0.763156	0.354598
C182	C	1.396772	-0.429823	0.687931
C183	C	1.730105	-0.096489	1.021264
C184	C	1.016328	-0.739718	0.401614
C185	C	1.349661	-0.406385	0.734948
C186	C	1.682994	-0.073051	1.068281
C187	C	1.063459	-0.810074	0.354603
C188	C	1.396792	-0.476741	0.687937
C189	C	1.730125	-0.143407	1.021270
C190	C	1.110569	-0.833512	0.307587
C191	C	1.443903	-0.500179	0.640920
C192	C	1.777236	-0.166846	0.974254
C193	C	1.157659	-0.810033	0.260565
C194	C	1.490993	-0.476699	0.593898
C195	C	1.824326	-0.143366	0.927232
C196	C	1.157633	-0.763117	0.260555
C197	C	1.490966	-0.429784	0.593889
C198	C	1.824300	-0.096451	0.927222
C199	C	0.969238	-0.763197	0.448636
C200	C	1.302571	-0.429864	0.781970
C201	C	1.635905	-0.096531	1.115303
C202	C	0.969267	-0.810113	0.448641
C203	C	1.302600	-0.476780	0.781975
C204	C	1.635934	-0.143446	1.115308
C205	C	1.016378	-0.833551	0.401625
C206	C	1.349711	-0.500218	0.734958
C207	C	1.683044	-0.166885	1.068292
C208	C	1.255298	-0.216482	0.354579
C209	C	1.588631	0.116851	0.687912
C210	C	1.921965	0.450185	1.021246
C211	C	1.337097	-0.216486	0.354588
C212	C	1.670430	0.116848	0.687922
C213	C	2.003763	0.450181	1.021255
C214	C	1.063358	-0.216475	0.546510
C215	C	1.396691	0.116858	0.879844
C216	C	1.730024	0.450191	1.213177
C217	C	1.063363	-0.216476	0.628309
C218	C	1.396696	0.116857	0.961643
C219	C	1.730030	0.450191	1.294976
C220	C	1.063498	-0.099296	0.354610
C221	C	1.396832	0.234038	0.687944
C222	C	1.730165	0.567371	1.021277
C223	C	1.063564	-0.049361	0.354633
C224	C	1.396897	0.283972	0.687966
C225	C	1.730231	0.617305	1.021299
C226	C	1.110455	-0.187749	0.816523
C227	C	1.443789	0.145584	1.149856
C228	C	1.777122	0.478918	1.483189
C229	C	1.110451	-0.187749	0.893381
C230	C	1.443785	0.145585	1.226715
C231	C	1.777118	0.478918	1.560048
C232	C	1.016247	-0.245209	0.893334
C233	C	1.349580	0.088124	1.226667
C234	C	1.682914	0.421457	1.560000
C235	C	1.016248	-0.245207	0.816476
C236	C	1.349581	0.088126	1.149810
C237	C	1.682915	0.421460	1.483143
C238	C	1.063356	-0.216477	0.778073
C239	C	1.396690	0.116856	1.111406
C240	C	1.730023	0.450189	1.444739
C241	C	1.063351	-0.216480	0.931789
C242	C	1.396685	0.116854	1.265122
C243	C	1.730018	0.450187	1.598455
C244	C	1.063346	-0.216480	1.015122
C245	C	1.396680	0.116854	1.348456
C246	C	1.730013	0.450187	1.681789
C247	C	1.063360	-0.216477	0.694734
C248	C	1.396694	0.116857	1.028067
C249	C	1.730027	0.450190	1.361400
C250	C	1.063333	-0.216483	1.163351
C251	C	1.396666	0.116851	1.496685
C252	C	1.729999	0.450184	1.830018
C253	C	1.063344	-0.216481	1.081552
C254	C	1.396678	0.116852	1.414886
C255	C	1.730011	0.450186	1.748219
H256	H	0.493973	-0.268686	0.439810
H257	H	0.827306	0.064648	0.773143
H258	H	1.160639	0.397981	1.106477
F259	F	0.643004	-0.275879	0.451539
F260	F	0.976338	0.057454	0.784873
F261	F	1.309671	0.390788	1.118206
H262	H	0.930876	-0.744118	0.486924
H263	H	1.264209	-0.410784	0.820257
H264	H	1.597542	-0.077451	1.153591
F265	F	0.966033	-0.478517	0.451605
F266	F	1.299366	-0.145184	0.784938
F267	F	1.632699	0.188149	1.118272
H268	H	0.494031	-0.164275	0.269342
H269	H	0.827364	0.169059	0.602676
H270	H	1.160697	0.502392	0.936009
F271	F	0.643088	-0.157069	0.257580
F272	F	0.976421	0.176264	0.590913
F273	F	1.309755	0.509598	0.924247
F274	F	0.965999	-0.381662	0.451597
F275	F	1.299332	-0.048328	0.784930
F276	F	1.632665	0.285005	1.118263
H277	H	0.930843	-0.688469	0.486928
H278	H	1.264176	-0.355135	0.820261
H279	H	1.597509	-0.021802	1.153595
F280	F	1.207796	-0.834986	0.210524
F281	F	1.541129	-0.501652	0.543858
F282	F	1.874462	-0.168319	0.877191
F283	F	0.966116	-0.275785	0.934212
F284	F	1.299450	0.057548	1.267545
F285	F	1.632783	0.390882	1.600878
F286	F	0.919144	-0.835094	0.498700
F287	F	1.252478	-0.501761	0.832033
F288	F	1.585811	-0.168427	1.165366
H289	H	0.977889	-0.268601	0.785170
H290	H	1.311222	0.064733	1.118503
H291	H	1.644556	0.398066	1.451836
H292	H	0.978103	-1.045034	0.439939
H293	H	1.311436	-0.711701	0.773273
H294	H	1.644770	-0.378368	1.106606
F295	F	1.160590	-0.157171	0.775653
F296	F	1.493924	0.176162	1.108987
F297	F	1.827257	0.509495	1.442320
H298	H	1.148677	-0.387456	0.269213
H299	H	1.482011	-0.054122	0.602546
H300	H	1.815344	0.279211	0.935880
H301	H	1.148739	-0.472565	0.269233
H302	H	1.482072	-0.139232	0.602567
H303	H	1.815405	0.194102	0.935900
H304	H	1.195900	-0.603258	0.222233
H305	H	1.529233	-0.269925	0.555566
H306	H	1.862567	0.063408	0.888900
H307	H	1.195948	-0.688365	0.222250
H308	H	1.529281	-0.355031	0.555583
H309	H	1.862615	-0.021698	0.888916
F310	F	1.160749	-0.953981	0.257542
F311	F	1.494082	-0.620648	0.590876
F312	F	1.827416	-0.287314	0.924209
H313	H	1.149016	-1.044973	0.269324
H314	H	1.482350	-0.711640	0.602657
H315	H	1.815683	-0.378306	0.935990
F316	F	0.966288	-0.954067	0.451696
F317	F	1.299622	-0.620734	0.785029
F318	F	1.632955	-0.287400	1.118362
H319	H	0.930813	-0.603360	0.486920
H320	H	1.264146	-0.270027	0.820253
H321	H	1.597479	0.063306	1.153587
H322	H	1.195977	-0.744005	0.222259
H323	H	1.529310	-0.410672	0.555592
H324	H	1.862643	-0.077339	0.888926
H325	H	1.148803	-0.164354	0.924684
H326	H	1.482136	0.168979	1.258017
H327	H	1.815469	0.502312	1.591350
