data_functionalizedCrystal
_audit_creation_method	'MofGen! by Chris Wilmer'
_symmetry_space_group_name_H-M	'P1'
_symmetry_Int_Tables_number	1
_symmetry_cell_setting	triclinic
loop_
_symmetry_equiv_pos_as_xyz
  x,y,z
_cell_length_a	10.489746
_cell_length_b	10.489741
_cell_length_c	14.586319
_cell_angle_alpha	89.996488
_cell_angle_beta	89.999417
_cell_angle_gamma	84.540238
loop_
_atom_site_label
_atom_site_type_symbol
_atom_site_fract_x
_atom_site_fract_y
_atom_site_fract_z
O1	O	1.694048	0.179998	-0.076178
O2	O	2.194048	0.679998	0.423822
O3	O	1.322853	0.196884	-0.076193
O4	O	1.822853	0.696884	0.423807
O5	O	1.516897	0.002843	-0.076180
O6	O	2.016897	0.502843	0.423820
O7	O	1.500004	0.374039	-0.076192
O8	O	2.000004	0.874039	0.423808
O9	O	1.516884	0.002840	0.076301
O10	O	2.016884	0.502840	0.576301
O11	O	1.322840	0.196881	0.076287
O12	O	1.822840	0.696881	0.576287
O13	O	1.694035	0.179995	0.076303
O14	O	2.194035	0.679995	0.576303
Cu15	Cu	1.508436	0.188438	0.090218
Cu16	Cu	2.008436	0.688438	0.590218
Cu17	Cu	1.508452	0.188441	-0.090109
Cu18	Cu	2.008452	0.688441	0.409891
O19	O	1.499991	0.374036	0.076289
O20	O	1.999991	0.874036	0.576289
C21	C	1.275315	0.195606	0.000045
C22	C	1.775315	0.695606	0.500045
C23	C	1.133686	0.191786	0.000039
C24	C	1.633686	0.691786	0.500039
C25	C	0.980828	0.066062	0.000056
C26	C	1.480828	0.566062	0.500056
C27	C	1.058215	0.128917	0.075233
C28	C	1.558215	0.628917	0.575233
C29	C	1.058184	0.128950	-0.075102
C30	C	1.558184	0.628950	0.424898
C31	C	0.958724	0.247899	0.075300
C32	C	1.458724	0.747899	0.575300
C33	C	0.958687	0.247914	-0.075101
C34	C	1.458687	0.747914	0.424899
C35	C	1.036025	0.310856	0.000094
C36	C	1.536025	0.810856	0.500094
C37	C	1.515614	-0.044690	0.000060
C38	C	2.015614	0.455310	0.500060
C39	C	1.511797	-0.186320	0.000058
C40	C	2.011797	0.313680	0.500058
C41	C	1.388333	-0.254462	0.000046
C42	C	1.888333	0.245538	0.500046
C43	C	1.446650	-0.346585	0.075230
C44	C	1.946650	0.153415	0.575230
C45	C	1.446692	-0.346557	-0.075105
C46	C	1.946692	0.153443	0.424895
C47	C	1.570165	-0.276577	0.075303
C48	C	2.070165	0.223423	0.575303
C49	C	1.570190	-0.276539	-0.075098
C50	C	2.070190	0.223461	0.424902
C51	C	1.628597	-0.368635	0.000103
C52	C	2.128597	0.131365	0.500103
C53	C	1.741573	0.181273	0.000062
C54	C	2.241573	0.681273	0.500062
C55	C	1.883202	0.185093	0.000062
C56	C	2.383202	0.685093	0.500062
C57	C	1.501273	0.421569	0.000047
C58	C	2.001273	0.921569	0.500047
C59	C	1.505091	0.563198	0.000043
C60	C	2.005091	1.063198	0.500043
N61	N	1.508434	0.188434	0.217049
N62	N	2.008434	0.688434	0.717049
N63	N	1.508464	0.188434	-0.216940
N64	N	2.008464	0.688434	0.283060
C65	C	1.594385	0.102542	0.452062
C66	C	2.094385	0.602542	0.952062
C67	C	1.594389	0.102539	0.548043
C68	C	2.094389	0.602539	1.048043
C69	C	1.422503	0.274330	0.548041
C70	C	1.922503	0.774330	1.048041
C71	C	1.422494	0.274326	0.452061
C72	C	1.922494	0.774326	0.952061
C73	C	1.508443	0.188434	0.404074
C74	C	2.008443	0.688434	0.904074
C75	C	1.508455	0.188435	0.596035
C76	C	2.008455	0.688435	1.096035
C77	C	1.508459	0.188432	0.700102
C78	C	2.008459	0.688432	1.200102
C79	C	1.508438	0.188435	0.300000
C80	C	2.008438	0.688435	0.800000
H81	H	1.101686	0.078668	0.138794
H82	H	1.601686	0.578668	0.638794
O83	O	1.253883	-0.188665	0.000142
O84	O	1.753883	0.311335	0.500142
H85	H	1.202186	-0.217882	-0.061647
H86	H	1.702186	0.282118	0.438353
H87	H	1.101633	0.078680	-0.138659
H88	H	1.601633	0.578680	0.361341
O89	O	1.377452	-0.387676	0.159420
O90	O	1.877452	0.112324	0.659420
H91	H	1.427805	-0.358275	0.221760
H92	H	1.927805	0.141725	0.721760
H93	H	1.664370	0.032598	0.587112
H94	H	2.164370	0.532598	1.087112
O95	O	1.763172	-0.434122	0.000158
O96	O	2.263172	0.065878	0.500158
H97	H	1.814091	-0.406091	0.062628
H98	H	2.314091	0.093909	0.562628
H99	H	1.622354	-0.245745	0.138936
H100	H	2.122354	0.254255	0.638936
H101	H	1.622392	-0.245492	-0.138660
H102	H	2.122392	0.254508	0.361340
H103	H	0.915438	0.298112	0.138930
H104	H	1.415438	0.798112	0.638930
O105	O	1.377489	-0.387595	-0.159303
O106	O	1.877489	0.112405	0.340697
H107	H	1.277786	-0.341429	-0.159142
H108	H	1.777786	0.158571	0.340858
H109	H	1.352528	0.344264	0.587121
H110	H	1.852528	0.844264	1.087121
O111	O	1.687067	0.009893	0.400300
O112	O	2.187067	0.509893	0.900300
H113	H	1.746818	-0.049843	0.449798
H114	H	2.246818	0.450157	0.949798
H115	H	1.352503	0.344270	0.412987
H116	H	1.852503	0.844270	0.912987
H117	H	0.956107	-0.037439	0.000135
H118	H	1.456107	0.462561	0.500135
H119	H	1.060501	0.414436	0.000132
H120	H	1.560501	0.914436	0.500132
O121	O	0.901040	0.314408	-0.159292
O122	O	1.401040	0.814408	0.340708
H123	H	0.941048	0.264774	-0.221612
H124	H	1.441048	0.764774	0.278388
