data_functionalizedCrystal
_audit_creation_method	'MofGen! by Chris Wilmer'
_symmetry_space_group_name_H-M	'P1'
_symmetry_Int_Tables_number	1
_symmetry_cell_setting	triclinic
loop_
_symmetry_equiv_pos_as_xyz
  x,y,z
_cell_length_a	13.897449
_cell_length_b	13.897447
_cell_length_c	13.897441
_cell_angle_alpha	90.029327
_cell_angle_beta	90.023394
_cell_angle_gamma	90.020357
loop_
_atom_site_label
_atom_site_type_symbol
_atom_site_fract_x
_atom_site_fract_y
_atom_site_fract_z
Zn1	Zn	1.474690	-0.383963	0.545458
Zn2	Zn	1.474579	-0.545285	0.384163
Zn3	Zn	1.313379	-0.384007	0.384169
Zn4	Zn	1.313356	-0.545220	0.545408
O5	O	1.394001	-0.464619	0.464800
O6	O	1.609657	-0.405371	0.524080
O7	O	1.453159	-0.523937	0.249182
O8	O	1.334834	-0.249020	0.405588
O9	O	1.609576	-0.523893	0.405578
O10	O	1.453348	-0.248987	0.524086
O11	O	1.334726	-0.405447	0.249187
O12	O	1.178395	-0.405384	0.405539
O13	O	1.334794	-0.523783	0.680397
O14	O	1.178378	-0.523826	0.524001
O15	O	1.453326	-0.405308	0.680433
O16	O	1.453136	-0.680258	0.405529
O17	O	1.334686	-0.680210	0.523995
C18	C	1.143387	-0.464604	0.464766
C19	C	1.036173	-0.464621	0.464775
C20	C	0.949103	-0.464624	0.464791
C21	C	0.839871	-0.464631	0.464820
C22	C	1.393923	-0.715233	0.464777
C23	C	1.393978	-0.822447	0.464800
C24	C	1.394024	-0.909517	0.464822
C25	C	1.394092	-1.018749	0.464847
C26	C	1.645594	-0.464634	0.464834
C27	C	1.752808	-0.464641	0.464849
C28	C	1.394070	-0.464533	0.716393
C29	C	1.394099	-0.464497	0.823607
C30	C	1.394106	-0.213026	0.464843
C31	C	1.394151	-0.105812	0.464862
C32	C	1.393989	-0.464634	0.214185
C33	C	1.394146	-0.464399	0.106972
C34	C	1.394125	-0.464432	1.019902
C35	C	1.394107	-0.464471	0.910669
