data_functionalizedCrystal
_audit_creation_method	'MofGen! by Chris Wilmer'
_symmetry_space_group_name_H-M	'P1'
_symmetry_Int_Tables_number	1
_symmetry_cell_setting	triclinic
loop_
_symmetry_equiv_pos_as_xyz
  x,y,z
_cell_length_a	10.654550
_cell_length_b	7.088929
_cell_length_c	8.597275
_cell_angle_alpha	91.323997
_cell_angle_beta	84.910280
_cell_angle_gamma	96.266072
loop_
_atom_site_label
_atom_site_type_symbol
_atom_site_fract_x
_atom_site_fract_y
_atom_site_fract_z
O1	O	1.659355	-0.120819	0.232609
O2	O	1.294262	-0.117385	0.253268
O3	O	1.481044	-0.156107	0.018272
O4	O	1.472572	-0.082097	0.467606
O5	O	1.506023	0.156685	-0.013182
O6	O	1.319240	0.195407	0.221814
O7	O	1.684333	0.191973	0.201155
Cu8	Cu	1.504067	0.222250	0.208613
Cu9	Cu	1.474528	-0.147663	0.245811
O10	O	1.497551	0.230695	0.436152
C11	C	1.259925	0.038765	0.236024
C12	C	1.120399	0.038029	0.231484
C13	C	1.491232	-0.009191	-0.054990
C14	C	1.484359	-0.037439	-0.226426
N15	N	1.524853	0.482427	0.182448
C16	C	1.043477	0.060791	0.369849
C17	C	0.912374	0.060055	0.365578
C18	C	0.935127	0.013784	0.084565
C19	C	1.066228	0.014534	0.088836
C20	C	1.097648	0.084286	0.512497
C21	C	1.020725	0.107048	0.650875
C22	C	0.889622	0.106312	0.646604
C23	C	0.835442	0.082813	0.503955
C24	C	1.718669	0.035819	0.218400
C25	C	1.858195	0.036542	0.222941
N26	N	1.453751	-0.407841	0.271963
C27	C	1.487362	0.083775	0.509414
C28	C	1.494234	0.112011	0.680851
H29	H	1.064848	0.126196	0.767012
O30	O	1.467773	-0.215817	-0.288223
C31	C	1.336412	-0.440674	-0.434184
C32	C	1.355030	-0.238623	-0.364229
H33	H	1.245278	-0.459165	-0.495679
H34	H	1.329990	-0.548749	-0.336865
H35	H	1.420252	-0.463649	-0.521894
H36	H	1.271220	-0.215464	-0.276538
H37	H	1.361508	-0.130652	-0.461632
H38	H	1.507956	0.261575	-0.267373
O39	O	1.612694	0.561344	0.071592
C40	C	1.684052	0.577952	-0.202154
C41	C	1.584506	0.488384	-0.076763
H42	H	1.661282	0.519030	-0.322132
H43	H	1.782148	0.542741	-0.177239
H44	H	1.682374	0.738517	-0.199921
H45	H	1.586069	0.327805	-0.078926
H46	H	1.486456	0.523746	-0.101722
H47	H	0.826996	0.124865	0.759275
H48	H	1.380057	0.525789	0.364732
O49	O	1.141034	-0.007246	-0.045563
C50	C	1.315215	0.128743	-0.220069
C51	C	1.230572	0.153663	-0.067844
H52	H	1.387644	0.258798	-0.238115
H53	H	1.254047	0.111917	-0.322824
H54	H	1.366673	-0.003021	-0.211906
H55	H	1.179098	0.285430	-0.075853
H56	H	1.291806	0.170379	0.034850
H57	H	1.204396	0.084880	0.515992
H58	H	0.728691	0.082245	0.500486
H59	H	0.891000	-0.005379	-0.031570
