data_functionalizedCrystal
_audit_creation_method	'MofGen! by Chris Wilmer'
_symmetry_space_group_name_H-M	'P1'
_symmetry_Int_Tables_number	1
_symmetry_cell_setting	triclinic
loop_
_symmetry_equiv_pos_as_xyz
  x,y,z
_cell_length_a	19.288864
_cell_length_b	8.559649
_cell_length_c	17.766277
_cell_angle_alpha	89.994756
_cell_angle_beta	89.976791
_cell_angle_gamma	76.457456
loop_
_atom_site_label
_atom_site_type_symbol
_atom_site_fract_x
_atom_site_fract_y
_atom_site_fract_z
O1	O	0.910987	0.199405	-0.062829
O2	O	0.707328	0.226304	-0.062777
O3	O	0.827100	-0.019877	-0.062807
O4	O	0.791215	0.445585	-0.062799
O5	O	0.827082	-0.019889	0.062381
O6	O	0.707310	0.226291	0.062411
O7	O	0.910969	0.199392	0.062359
Cu8	Cu	0.809138	0.212841	0.073816
Cu9	Cu	0.809160	0.212855	-0.074234
O10	O	0.791197	0.445573	0.062389
C11	C	0.681488	0.225432	-0.000176
C12	C	0.604519	0.222834	-0.000157
C13	C	0.552314	0.367282	-0.000166
C14	C	0.479994	0.364841	-0.000174
C15	C	0.459883	0.217944	-0.000188
C16	C	0.512099	0.073477	-0.000175
C17	C	0.584417	0.075922	-0.000159
C18	C	0.357630	0.102471	-0.044075
C19	C	0.285312	0.100032	-0.044095
C20	C	0.236829	0.210396	-0.000234
C21	C	0.260670	0.323227	0.043638
C22	C	0.332989	0.325672	0.043654
C23	C	0.381467	0.215276	-0.000205
C24	C	0.106205	0.352207	-0.000251
C25	C	0.033884	0.349760	-0.000255
C26	C	0.065991	0.058393	-0.000263
C27	C	0.138310	0.060844	-0.000252
C28	C	0.158412	0.207756	-0.000250
C29	C	0.829811	-0.079432	-0.000215
C30	C	0.837906	-0.256871	-0.000221
C31	C	0.936810	0.200264	-0.000243
C32	C	1.013778	0.202862	-0.000268
C33	C	0.788487	0.505129	-0.000205
C34	C	0.780392	0.682567	-0.000203
N35	N	0.809128	0.212829	0.177946
N36	N	0.809176	0.212854	-0.178364
C37	C	0.862176	0.103874	0.217320
C38	C	0.862180	0.103866	0.296122
C39	C	0.809142	0.212842	0.335547
C40	C	0.756085	0.321806	0.296164
C41	C	0.756078	0.321800	0.217364
C42	C	0.792272	0.358486	0.460389
C43	C	0.792284	0.358494	0.539188
C44	C	0.809160	0.212861	0.578593
C45	C	0.826039	0.067213	0.539190
C46	C	0.826032	0.067207	0.460390
C47	C	0.809144	0.212860	0.420993
C48	C	0.862215	0.103889	0.703413
C49	C	0.862215	0.103879	0.782216
C50	C	0.756123	0.321833	0.782257
C51	C	0.756120	0.321828	0.703455
C52	C	0.809170	0.212858	0.664038
H53	H	0.397100	0.012596	-0.079796
H54	H	0.724959	-0.233537	-0.000187
N55	N	0.358700	0.447345	0.090980
H56	H	0.395153	0.389639	0.128488
H57	H	0.381124	0.516986	0.057344
H58	H	0.495719	-0.046127	-0.000196
H59	H	0.221196	0.413096	0.079355
N60	N	0.698913	0.439361	0.824770
H61	H	0.665305	0.508386	0.787866
H62	H	0.671471	0.378327	0.857479
H63	H	0.905379	0.015138	0.328186
H64	H	0.893342	-0.340776	-0.000229
H65	H	0.122573	0.471832	-0.000239
N66	N	0.919389	-0.013658	0.174806
H67	H	0.952995	-0.082684	0.211711
H68	H	0.896560	-0.084177	0.142130
N69	N	0.844233	-0.089869	0.417890
H70	H	0.854926	-0.182133	0.454805
H71	H	0.802520	-0.098952	0.385219
H72	H	0.049617	-0.061214	-0.000321
N73	N	0.640730	-0.079881	-0.000145
H74	H	0.617019	-0.173314	-0.000151
H75	H	0.671460	-0.085212	-0.046548
N76	N	0.844246	-0.089878	0.581679
H77	H	0.841687	-0.067781	0.637577
H78	H	0.809172	-0.156223	0.567925
H79	H	-0.008622	0.467392	-0.000259
H80	H	0.905410	0.015153	0.671318
N81	N	0.919443	-0.013617	0.824688
H82	H	0.953052	-0.082630	0.787757
H83	H	0.946881	0.047448	0.857356
N84	N	0.698904	0.439344	0.660981
H85	H	0.665304	0.508380	0.697912
H86	H	0.721725	0.509857	0.628267
H87	H	0.778545	0.477089	0.571263
H88	H	0.778518	0.477086	0.428311
H89	H	0.712900	0.410533	0.328268
N90	N	0.698857	0.439324	0.174897
H91	H	0.700802	0.552730	0.188603
H92	H	0.706932	0.422651	0.119009
N93	N	0.573997	0.525729	-0.000169
H94	H	0.529946	0.616867	-0.000178
H95	H	0.603278	0.533102	0.046245
H96	H	0.437481	0.482471	-0.000180
H97	H	0.265907	0.008165	-0.079821
N98	N	0.194623	-0.094954	-0.000241
H99	H	0.170911	-0.188386	-0.000250
H100	H	0.225355	-0.100286	-0.046643
