data_functionalizedCrystal
_audit_creation_method	'MofGen! by Chris Wilmer'
_symmetry_space_group_name_H-M	'P1'
_symmetry_Int_Tables_number	1
_symmetry_cell_setting	triclinic
loop_
_symmetry_equiv_pos_as_xyz
  x,y,z
_cell_length_a	11.295663
_cell_length_b	12.837943
_cell_length_c	12.837942
_cell_angle_alpha	94.828940
_cell_angle_beta	85.464944
_cell_angle_gamma	94.531612
loop_
_atom_site_label
_atom_site_type_symbol
_atom_site_fract_x
_atom_site_fract_y
_atom_site_fract_z
O1	O	0.099001	-1.395983	-0.278487
O2	O	0.599001	-0.895983	0.221513
O3	O	0.099008	-1.092849	-0.265044
O4	O	0.599008	-0.592849	0.234956
O5	O	0.098997	-1.237695	-0.120198
O6	O	0.598997	-0.737695	0.379802
O7	O	0.099011	-1.251137	-0.423333
O8	O	0.599011	-0.751137	0.076667
O9	O	-0.099049	-1.250389	-0.107496
O10	O	0.400951	-0.750389	0.392504
O11	O	-0.099038	-1.105543	-0.252342
O12	O	0.400962	-0.605543	0.247658
O13	O	-0.099045	-1.408677	-0.265785
O14	O	0.400955	-0.908677	0.234215
Cu15	Cu	-0.117125	-1.258269	-0.257903
Cu16	Cu	0.382875	-0.758269	0.242097
Cu17	Cu	0.117087	-1.243257	-0.272925
Cu18	Cu	0.617087	-0.743257	0.227075
O19	O	-0.099035	-1.263831	-0.410631
O20	O	0.400965	-0.763831	0.089369
C21	C	-0.000014	-1.060127	-0.254152
C22	C	0.499986	-0.560127	0.245848
C23	C	-0.000012	-0.943712	-0.240607
C24	C	0.499988	-0.443712	0.259393
N25	N	-0.281857	-1.268836	-0.247338
N26	N	0.218143	-0.768836	0.252662
C27	C	-0.000025	-1.239500	-0.074778
C28	C	0.499975	-0.739500	0.425222
C29	C	-0.000023	-1.225956	0.041637
C30	C	0.499977	-0.725956	0.541637
C31	C	-0.468849	-1.345004	-0.171243
C32	C	0.031151	-0.845004	0.328757
C33	C	-0.344188	-1.336996	-0.179233
C34	C	0.155812	-0.836996	0.320767
C35	C	-0.344196	-1.208681	-0.307459
C36	C	0.155804	-0.708681	0.192541
C37	C	-0.468857	-1.216689	-0.299469
C38	C	0.031143	-0.716689	0.200531
C39	C	-0.531179	-1.284851	-0.231357
C40	C	-0.031179	-0.784851	0.268643
C41	C	-0.655842	-1.292852	-0.223362
C42	C	-0.155842	-0.792852	0.276638
C43	C	-0.655847	-1.164544	-0.351593
C44	C	-0.155847	-0.664544	0.148407
C45	C	-0.531187	-1.156536	-0.359583
C46	C	-0.031187	-0.656536	0.140417
N47	N	0.281820	-1.232697	-0.283483
N48	N	0.781820	-0.732697	0.216517
C49	C	-0.000021	-1.441399	-0.276677
C50	C	0.499979	-0.941399	0.223323
C51	C	-0.000015	-1.557814	-0.290222
C52	C	0.499985	-1.057814	0.209778
C53	C	-0.000021	-0.718838	-0.403436
C54	C	0.499979	-0.218838	0.096564
C55	C	-0.000020	-0.609456	-0.390715
C56	C	0.499980	-0.109456	0.109285
C57	C	-0.000016	-0.615563	-0.202444
C58	C	0.499984	-0.115563	0.297556
C59	C	-0.000017	-0.724945	-0.215165
C60	C	0.499983	-0.224945	0.284835
C61	C	-0.000018	-0.776579	-0.315665
C62	C	0.499982	-0.276579	0.184335
C63	C	-0.000011	-0.885963	-0.328385
C64	C	0.499989	-0.385963	0.171615
C65	C	-0.000016	-0.892068	-0.140115
C66	C	0.499984	-0.392068	0.359885
C67	C	-0.000015	-0.782686	-0.127394
C68	C	0.499985	-0.282686	0.372606
C69	C	-0.000010	-1.262025	-0.456051
C70	C	0.499990	-0.762025	0.043949
C71	C	-0.000004	-1.275570	-0.572466
C72	C	0.499996	-0.775570	-0.072466
C73	C	-0.000002	-1.388784	0.266510
C74	C	0.499998	-0.888784	0.766510
C75	C	0.000000	-1.376062	0.375892
C76	C	0.500000	-0.876062	0.875892
C77	C	-0.000008	-1.187792	0.369785
C78	C	0.499992	-0.687792	0.869785
C79	C	-0.000010	-1.200513	0.260403
C80	C	0.499990	-0.700513	0.760403
C81	C	-0.000009	-1.301013	0.208769
C82	C	0.499991	-0.801013	0.708769
C83	C	-0.000020	-1.313734	0.099385
C84	C	0.499980	-0.813734	0.599385
C85	C	-0.000019	-1.125463	0.093280
C86	C	0.499981	-0.625463	0.593280
C87	C	-0.000017	-1.112742	0.202662
C88	C	0.499983	-0.612742	0.702662
H89	H	-0.706583	-1.348350	-0.167900
H90	H	-0.206583	-0.848350	0.332100
Br91	Br	0.000013	-0.970435	-0.020990
Br92	Br	0.500013	-0.470435	0.479010
H93	H	-0.293437	-1.153193	-0.362922
H94	H	0.206563	-0.653193	0.137078
H95	H	-0.000014	-0.928001	-0.410217
H96	H	0.499986	-0.428001	0.089783
Br97	Br	-0.553432	-1.437491	-0.078793
Br98	Br	-0.053432	-0.937491	0.421207
Br99	Br	-0.740449	-1.082894	-0.433169
Br100	Br	-0.240449	-0.582894	0.066831
H101	H	-0.000034	-1.053994	0.046257
H102	H	0.499966	-0.553994	0.546257
H103	H	-0.293443	-1.385980	-0.130284
H104	H	0.206557	-0.885980	0.369716
H105	H	-0.480430	-1.101043	-0.415041
H106	H	0.019570	-0.601043	0.084959
Br107	Br	-0.000032	-0.531096	-0.509838
Br108	Br	0.499968	-0.031096	-0.009838
Br109	Br	-0.000000	-0.788916	-0.539824
Br110	Br	0.500000	-0.288916	-0.039824
Br111	Br	-0.000003	-0.976356	0.272745
Br112	Br	0.499997	-0.476356	0.772745
Br113	Br	-0.000031	-1.450124	0.029312
Br114	Br	0.499969	-0.950124	0.529312
Br115	Br	-0.000036	-0.545471	-0.066061
Br116	Br	0.499964	-0.045471	0.433939
H117	H	-0.000028	-0.740631	-0.045569
H118	H	0.499972	-0.240631	0.454431
H119	H	-0.000013	-1.470615	0.224469
H120	H	0.499987	-0.970615	0.724469
H121	H	0.000010	-1.447535	0.422900
H122	H	0.500010	-0.947535	0.922900
Br123	Br	0.000034	-1.051408	0.439875
Br124	Br	0.500034	-0.551408	0.939875
