data_functionalizedCrystal
_audit_creation_method	'MofGen! by Chris Wilmer'
_symmetry_space_group_name_H-M	'P1'
_symmetry_Int_Tables_number	1
_symmetry_cell_setting	triclinic
loop_
_symmetry_equiv_pos_as_xyz
  x,y,z
_cell_length_a	8.497374
_cell_length_b	17.077404
_cell_length_c	17.077396
_cell_angle_alpha	90.019501
_cell_angle_beta	89.987669
_cell_angle_gamma	89.998682
loop_
_atom_site_label
_atom_site_type_symbol
_atom_site_fract_x
_atom_site_fract_y
_atom_site_fract_z
Zn1	Zn	0.628046	1.200174	0.443931
Zn2	Zn	0.891873	1.200131	0.312702
Zn3	Zn	0.628102	1.068905	0.312679
Zn4	Zn	0.891779	1.068923	0.443925
O5	O	0.759950	1.134533	0.378309
O6	O	0.663060	1.310015	0.426535
O7	O	0.856946	1.182698	0.202852
O8	O	0.407332	1.086329	0.330082
O9	O	0.856892	1.309983	0.330122
O10	O	0.407291	1.182771	0.426513
O11	O	0.663154	1.086287	0.202835
O12	O	0.663063	0.959061	0.330077
O13	O	0.856732	1.086359	0.553773
O14	O	0.856786	0.959074	0.426503
O15	O	0.662969	1.182788	0.553777
O16	O	1.112623	1.182715	0.330116
O17	O	1.112554	1.086318	0.426526
C18	C	0.759922	0.930585	0.378288
C19	C	0.759947	0.843336	0.378297
C20	C	0.860971	0.802373	0.428426
C21	C	0.860974	0.720392	0.428438
C22	C	0.759961	0.679376	0.378317
C23	C	0.658926	0.720345	0.328187
C24	C	0.658916	0.802324	0.328179
C25	C	0.658957	0.549475	0.328205
C26	C	0.658969	0.467490	0.328212
C27	C	0.861016	0.467543	0.428465
C28	C	0.861005	0.549522	0.428457
C29	C	0.759972	0.590485	0.378325
C30	C	1.169830	1.134523	0.378321
C31	C	1.348474	1.134544	0.378308
C32	C	0.759834	1.134581	0.583054
C33	C	0.759784	1.134601	0.670303
C34	C	0.759980	1.339277	0.378331
C35	C	0.759993	1.426527	0.378341
C36	C	0.759952	1.134531	0.174361
C37	C	0.759557	1.134663	0.087112
C38	C	0.658883	1.184813	0.711297
C39	C	0.658831	1.184823	0.793277
C40	C	0.759689	1.134623	0.834263
C41	C	0.860594	1.084405	0.793264
C42	C	0.860637	1.084392	0.711285
C43	C	0.860499	1.084437	0.964134
C44	C	0.860458	1.084450	1.046118
C45	C	0.658693	1.184867	1.046127
C46	C	0.658736	1.184854	0.964148
C47	C	0.759644	1.134637	0.923154
H48	H	0.943240	0.687044	0.469257
H49	H	0.942708	1.043529	0.826641
H50	H	0.942645	1.043532	0.930759
O51	O	0.958571	1.035791	1.085973
C52	C	1.171407	1.025210	1.178591
C53	C	1.060430	1.080410	1.133487
H54	H	1.253766	1.061262	1.217028
H55	H	1.243643	0.989319	1.135253
H56	H	1.098879	0.984174	1.216924
H57	H	1.132836	1.121494	1.095152
H58	H	0.988188	1.116247	1.176867
O59	O	0.958822	1.035601	0.671582
C60	C	1.158912	0.935989	0.680221
C61	C	1.047818	0.991217	0.725280
H62	H	1.230871	0.900078	0.723615
H63	H	1.241525	0.971990	0.641876
H64	H	1.086491	0.894972	0.641805
H65	H	1.120113	1.032245	0.763738
H66	H	0.965201	0.955167	0.763576
O67	O	0.561037	0.427597	0.279471
C68	C	0.539446	0.334910	0.173594
C69	C	0.650552	0.380062	0.228716
H70	H	0.611773	0.296454	0.132555
H71	H	0.467215	0.378216	0.137708
H72	H	0.457073	0.296590	0.209755
H73	H	0.733020	0.418383	0.192615
H74	H	0.722672	0.336713	0.264604
O75	O	0.560826	1.233468	0.671402
C76	C	0.347807	1.244016	0.578886
C77	C	0.458793	1.188829	0.623999
H78	H	0.265264	1.207947	0.540562
H79	H	0.420164	1.285042	0.540460
H80	H	0.275752	1.279919	0.622287
H81	H	0.530872	1.152875	0.580654
H82	H	0.386346	1.147854	0.662436
O83	O	0.959264	0.842247	0.477002
C84	C	1.172210	0.934846	0.487405
C85	C	1.061019	0.889727	0.432299
H86	H	1.254485	0.973257	0.451285
H87	H	1.244526	0.891519	0.523223
H88	H	1.099846	0.973208	0.528515
H89	H	1.133262	0.851364	0.391141
H90	H	0.988698	0.933097	0.396536
O91	O	0.959182	0.589246	0.477216
C92	C	1.159653	0.580652	0.576620
C93	C	1.048526	0.535569	0.521453
H94	H	1.231940	0.537274	0.612389
H95	H	1.087398	0.619028	0.617766
H96	H	1.241971	0.619040	0.540500
H97	H	0.966185	0.497138	0.557510
H98	H	1.120879	0.497242	0.480305
H99	H	0.576644	0.835674	0.287363
O100	O	0.959005	0.427635	0.477143
C101	C	1.048631	0.301365	0.521559
C102	C	0.937552	0.346467	0.466412
H103	H	1.031349	0.235733	0.512890
H104	H	1.021092	0.317456	0.584891
H105	H	1.175783	0.317525	0.507684
H106	H	0.810363	0.330331	0.480216
H107	H	0.965227	0.330372	0.403096
H108	H	0.576671	0.582824	0.287389
O109	O	0.561022	0.680467	0.279419
C110	C	0.539525	0.587824	0.173499
C111	C	0.650582	0.632949	0.228667
H112	H	0.611888	0.549382	0.132463
H113	H	0.467338	0.631147	0.137612
H114	H	0.457109	0.549492	0.209624
H115	H	0.733093	0.671281	0.192603
H116	H	0.722658	0.589582	0.264557
O117	O	0.560772	1.233676	0.832977
C118	C	0.360600	1.333248	0.824334
C119	C	0.471603	1.277972	0.779277
H120	H	0.288455	1.369064	0.780937
H121	H	0.432943	1.374345	0.862703
H122	H	0.278143	1.297210	0.862725
H123	H	0.554082	1.313947	0.740843
H124	H	0.399162	1.236873	0.740957
H125	H	0.576618	1.225736	0.930779
O126	O	0.560437	1.233608	1.085853
C127	C	0.292071	1.271702	1.110953
C128	C	0.403158	1.216466	1.065900
H129	H	0.164887	1.257852	1.094851
H130	H	0.319670	1.335005	1.094831
H131	H	0.309425	1.263104	1.176583
H132	H	0.385866	1.224994	1.000260
H133	H	0.375532	1.153182	1.082087
