data_functionalizedCrystal
_audit_creation_method	'MofGen! by Chris Wilmer'
_symmetry_space_group_name_H-M	'P1'
_symmetry_Int_Tables_number	1
_symmetry_cell_setting	triclinic
loop_
_symmetry_equiv_pos_as_xyz
  x,y,z
_cell_length_a	18.215407
_cell_length_b	25.639240
_cell_length_c	18.215399
_cell_angle_alpha	89.967897
_cell_angle_beta	90.019833
_cell_angle_gamma	89.956389
loop_
_atom_site_label
_atom_site_type_symbol
_atom_site_fract_x
_atom_site_fract_y
_atom_site_fract_z
Zn1	Zn	1.124978	0.208150	0.416095
Zn2	Zn	1.624978	0.708150	0.916095
Zn3	Zn	1.124848	0.295586	0.293019
Zn4	Zn	1.624848	0.795586	0.793019
Zn5	Zn	1.001911	0.208167	0.293042
Zn6	Zn	1.501911	0.708167	0.793042
Zn7	Zn	1.001838	0.295557	0.416044
Zn8	Zn	1.501838	0.795557	0.916044
O9	O	1.063394	0.251865	0.354550
O10	O	1.563394	0.751865	0.854550
O11	O	1.227945	0.219754	0.399780
O12	O	1.727945	0.719754	0.899780
O13	O	1.108516	0.284009	0.190038
O14	O	1.608516	0.784009	0.690038
O15	O	1.018322	0.135000	0.309396
O16	O	1.518322	0.635000	0.809396
O17	O	1.227849	0.283992	0.309357
O18	O	1.727849	0.783992	0.809357
O19	O	1.108739	0.134987	0.399802
O20	O	1.608739	0.634987	0.899802
O21	O	1.018195	0.219783	0.190055
O22	O	1.518195	0.719783	0.690055
O23	O	0.898917	0.219754	0.309347
O24	O	1.398917	0.719754	0.809347
O25	O	1.018197	0.283943	0.519035
O26	O	1.518197	0.783943	1.019035
O27	O	0.898863	0.283959	0.399716
O28	O	1.398863	0.783959	0.899716
O29	O	1.108668	0.219725	0.519072
O30	O	1.608668	0.719725	1.019072
O31	O	1.108445	0.368747	0.309308
O32	O	1.608445	0.868747	0.809308
O33	O	1.018070	0.368726	0.399694
O34	O	1.518070	0.868726	0.899694
C35	C	0.872187	0.251856	0.354529
C36	C	1.372187	0.751856	0.854529
C37	C	0.790389	0.251865	0.354537
C38	C	1.290389	0.751865	0.854537
C39	C	0.602186	0.285349	0.401534
C40	C	1.102186	0.785349	0.901534
C41	C	0.525327	0.285350	0.401543
C42	C	1.025327	0.785350	0.901543
C43	C	0.525354	0.218391	0.307583
C44	C	1.025354	0.718391	0.807583
C45	C	0.602211	0.218387	0.307578
C46	C	1.102211	0.718387	0.807578
C47	C	0.640625	0.251869	0.354552
C48	C	1.140625	0.751869	0.854552
C49	C	0.486909	0.251874	0.354566
C50	C	0.986909	0.751874	0.854566
C51	C	0.403575	0.251876	0.354576
C52	C	0.903575	0.751876	0.854576
C53	C	0.723964	0.251867	0.354544
C54	C	1.223964	0.751867	0.854544
C55	C	1.063255	0.387708	0.354509
C56	C	1.563255	0.887708	0.854509
C57	C	1.063263	0.445822	0.354517
C58	C	1.563263	0.945822	0.854517
C59	C	1.110514	0.806183	0.307538
C60	C	1.610514	1.306183	0.807538
C61	C	1.110536	0.860787	0.307545
C62	C	1.610536	1.360787	0.807545
O63	O	1.150613	0.889023	0.267580
O64	O	1.650613	1.389023	0.767580
N65	N	1.063453	0.888104	0.354566
N66	N	1.563453	1.388104	0.854566
C67	C	1.016350	0.860813	0.401589
C68	C	1.516350	1.360813	0.901589
O69	O	0.976304	0.889062	0.441585
O70	O	1.476304	1.389062	0.941585
C71	C	1.016331	0.806210	0.401585
C72	C	1.516331	1.306210	0.901585
C73	C	1.063412	0.778896	0.354555
C74	C	1.563412	1.278896	0.854555
C75	C	1.157591	0.778869	0.260513
C76	C	1.657591	1.278869	0.760513
C77	C	1.157568	0.724269	0.260505
C78	C	1.657568	1.224269	0.760505
C79	C	1.110466	0.696982	0.307522
C80	C	1.610466	1.196982	0.807522
C81	C	1.063389	0.724296	0.354548
C82	C	1.563389	1.224296	0.854548
C83	C	0.969232	0.778920	0.448611
C84	C	1.469232	1.278920	0.948611
C85	C	0.969218	0.724313	0.448603
C86	C	1.469218	1.224313	0.948603
C87	C	1.016299	0.697000	0.401574
C88	C	1.516299	1.197000	0.901574
C89	C	1.016264	0.642409	0.401557
C90	C	1.516264	1.142409	0.901557
N91	N	1.063347	0.615092	0.354536
N92	N	1.563347	1.115092	0.854536
C93	C	1.110448	0.642379	0.307519
C94	C	1.610448	1.142379	0.807519
C95	C	1.016392	0.975484	0.401595
C96	C	1.516392	1.475484	0.901595
C97	C	1.016406	1.030086	0.401595
C98	C	1.516406	1.530086	0.901595
C99	C	1.110594	1.030057	0.307552
C100	C	1.610594	1.530057	0.807552
C101	C	1.110576	0.975453	0.307548
C102	C	1.610576	1.475453	0.807548
C103	C	1.063476	0.948167	0.354573
C104	C	1.563476	1.448167	0.854573
C105	C	1.110394	0.527714	0.307505
C106	C	1.610394	1.027714	0.807505
C107	C	1.110364	0.473108	0.307499
C108	C	1.610364	0.973108	0.807499
C109	C	1.016180	0.473143	0.401545
C110	C	1.516180	0.973143	0.901545
C111	C	1.016207	0.527743	0.401548
C112	C	1.516207	1.027743	0.901548
C113	C	1.063320	0.555028	0.354526
C114	C	1.563320	1.055028	0.854526
O115	O	0.976210	0.614138	0.441505
O116	O	1.476210	1.114138	0.941505
O117	O	1.150494	0.614123	0.267536
O118	O	1.650494	1.114123	0.767536
C119	C	1.255347	0.251874	0.354572
C120	C	1.755347	0.751874	0.854572
C121	C	1.337145	0.251878	0.354581
C122	C	1.837145	0.751878	0.854581
C123	C	1.063439	0.251829	0.546503
C124	C	1.563439	0.751829	1.046503
C125	C	1.063458	0.251814	0.628302
C126	C	1.563458	0.751814	1.128302
C127	C	1.063525	1.115492	0.354594
C128	C	1.563525	1.615492	0.854594
C129	C	1.063511	1.057378	0.354580
C130	C	1.563511	1.557378	0.854580
C131	C	1.063391	0.251863	0.163344
C132	C	1.563391	0.751863	0.663344
C133	C	1.063515	0.251731	0.081545
C134	C	1.563515	0.751731	0.581545
C135	C	1.110583	0.218344	0.816516
C136	C	1.610583	0.718344	1.316516
C137	C	1.110592	0.218329	0.893375
C138	C	1.610592	0.718329	1.393375
C139	C	1.016385	0.285202	0.893325
C140	C	1.516385	0.785202	1.393325
C141	C	1.016373	0.285214	0.816468
C142	C	1.516373	0.785214	1.316468
C143	C	1.063476	0.251786	0.778066
C144	C	1.563476	0.751786	1.278066
C145	C	1.063497	0.251759	0.931782
C146	C	1.563497	0.751759	1.431782
C147	C	1.063506	0.251742	1.015115
C148	C	1.563506	0.751742	1.515115
C149	C	1.063466	0.251802	0.694727
C150	C	1.563466	0.751802	1.194727
H151	H	0.633460	0.312611	0.439785
H152	H	1.133460	0.812611	0.939785
H153	H	0.494033	0.312613	0.439801
H154	H	0.994033	0.812613	0.939801
H155	H	1.148949	1.052283	0.269271
H156	H	1.648949	1.552283	0.769271
H157	H	1.195951	0.801081	0.222226
H158	H	1.695951	1.301081	0.722226
N159	N	1.161408	0.182264	0.934845
N160	N	1.661408	0.682264	1.434845
H161	H	1.154268	0.187326	0.989362
H162	H	1.654268	0.687326	1.489362
H163	H	1.149996	0.144925	0.921424
H164	H	1.649996	0.644925	1.421424
N165	N	1.161153	0.443652	0.256776
N166	N	1.661153	0.943652	0.756776
H167	H	1.195230	0.420958	0.286713
H168	H	1.695230	0.920958	0.786713
H169	H	1.131208	0.421066	0.222647
H170	H	1.631208	0.921066	0.722647
H171	H	0.494068	0.191131	0.269337
H172	H	0.994068	0.691131	0.769337
H173	H	0.978036	0.312419	0.924602
H174	H	1.478036	0.812419	1.424602
N175	N	0.965547	0.321275	0.774989
N176	N	1.465547	0.821275	1.274989
H177	H	0.935709	0.342449	0.810978
H178	H	1.435709	0.842449	1.310978
H179	H	0.995460	0.345479	0.743087
H180	H	1.495460	0.845479	1.243087
H181	H	0.633509	0.191120	0.269320
H182	H	1.133509	0.691120	0.769320
N183	N	1.161208	0.557137	0.256790
N184	N	1.661208	1.057137	0.756790
H185	H	1.191024	0.531542	0.227002
H186	H	1.691024	1.031542	0.727002
H187	H	1.131282	0.579830	0.222706
H188	H	1.631282	1.079830	0.722706
N189	N	1.208359	0.694813	0.209791
N190	N	1.708359	1.194813	0.709791
H191	H	1.238201	0.720391	0.180016
H192	H	1.738201	1.220391	0.680016
H193	H	1.242390	0.672124	0.239785
H194	H	1.742390	1.172124	0.739785
N195	N	1.161358	0.945995	0.256827
N196	N	1.661358	1.445995	0.756827
H197	H	1.191196	0.971572	0.227044
H198	H	1.691196	1.471572	0.727044
H199	H	1.195393	0.923305	0.286813
H200	H	1.695393	1.423305	0.786813
N201	N	0.965614	1.059543	0.452307
N202	N	1.465614	1.559543	0.952307
H203	H	0.935773	1.033967	0.482087
H204	H	1.435773	1.533967	0.982087
H205	H	0.995554	1.082161	0.486399
H206	H	1.495554	1.582161	0.986399
H207	H	0.978032	0.953271	0.439886
H208	H	1.478032	1.453271	0.939886
H209	H	0.930890	0.801150	0.486904
H210	H	1.430890	1.301150	0.986904
H211	H	0.930864	0.702100	0.486899
H212	H	1.430864	1.202100	0.986899
N213	N	0.965420	0.557207	0.452263
N214	N	1.465420	1.057207	0.952263
H215	H	0.935577	0.531633	0.482044
H216	H	1.435577	1.031633	0.982044
H217	H	0.995368	0.579821	0.486354
H218	H	1.495368	1.079821	0.986354
H219	H	0.977828	0.450917	0.439824
H220	H	1.477828	0.950917	0.939824
H221	H	1.148935	0.191123	0.785251
H222	H	1.648935	0.691123	1.285251
