data_functionalizedCrystal
_audit_creation_method	'MofGen! by Chris Wilmer'
_symmetry_space_group_name_H-M	'P1'
_symmetry_Int_Tables_number	1
_symmetry_cell_setting	triclinic
loop_
_symmetry_equiv_pos_as_xyz
  x,y,z
_cell_length_a	12.759401
_cell_length_b	19.120786
_cell_length_c	12.759393
_cell_angle_alpha	92.477371
_cell_angle_beta	90.017451
_cell_angle_gamma	92.464298
loop_
_atom_site_label
_atom_site_type_symbol
_atom_site_fract_x
_atom_site_fract_y
_atom_site_fract_z
Zn1	Zn	1.588323	-0.279607	0.576098
Zn2	Zn	2.088323	0.220393	1.076098
Zn3	Zn	1.580691	-0.397084	0.392904
Zn4	Zn	2.080691	0.102916	0.892904
Zn5	Zn	1.412626	-0.279642	0.400435
Zn6	Zn	1.912626	0.220358	0.900435
Zn7	Zn	1.405087	-0.397027	0.568549
Zn8	Zn	1.905087	0.102973	1.068549
O9	O	1.496682	-0.338340	0.484496
O10	O	1.996682	0.161660	0.984496
O11	O	1.734331	-0.295199	0.551805
O12	O	2.234331	0.204801	1.051805
O13	O	1.558358	-0.381543	0.246879
O14	O	2.058358	0.118457	0.746879
O15	O	1.442281	-0.181346	0.430049
O16	O	1.942281	0.318654	0.930049
O17	O	1.728724	-0.381509	0.417213
O18	O	2.228724	0.118491	0.917213
O19	O	1.571365	-0.181320	0.559107
O20	O	2.071365	0.318680	1.059107
O21	O	1.434881	-0.295259	0.252413
O22	O	1.934881	0.204741	0.752413
O23	O	1.264605	-0.295204	0.422728
O24	O	1.764605	0.204796	0.922728
O25	O	1.429433	-0.381413	0.716574
O26	O	1.929433	0.118587	1.216574
O27	O	1.259067	-0.381446	0.546240
O28	O	1.759067	0.118554	1.046240
O29	O	1.564055	-0.295144	0.722120
O30	O	2.064055	0.204856	1.222120
O31	O	1.551048	-0.495367	0.409892
O32	O	2.051048	0.004633	0.909892
O33	O	1.422033	-0.495325	0.538938
O34	O	1.922033	0.004675	1.038938
C35	C	1.223715	-0.338323	0.484483
C36	C	1.723715	0.161677	0.984483
C37	C	1.106938	-0.338333	0.484501
C38	C	1.606938	0.161667	0.984501
C39	C	1.054983	-0.293476	0.554682
C40	C	1.554983	0.206524	1.054682
C41	C	0.945258	-0.293490	0.554688
C42	C	1.445258	0.206510	1.054688
C43	C	0.939452	-0.383223	0.414328
C44	C	1.439452	0.116777	0.914328
C45	C	1.049175	-0.383205	0.414318
C46	C	1.549175	0.116795	0.914318
C47	C	1.112746	-0.248604	0.624864
C48	C	1.612746	0.251396	1.124864
C49	C	1.060791	-0.203744	0.695052
C50	C	1.560791	0.296256	1.195052
C51	C	0.951066	-0.203758	0.695057
C52	C	1.451066	0.296242	1.195057
C53	C	0.893296	-0.248631	0.624876
C54	C	1.393296	0.251369	1.124876
C55	C	1.484923	-0.520832	0.472801
C56	C	1.984923	-0.020832	0.972801
C57	C	1.479988	-0.598903	0.467833
C58	C	1.979988	-0.098903	0.967833
C59	C	1.544827	-0.635507	0.532748
C60	C	2.044827	-0.135507	1.032748
C61	C	1.540186	-0.708863	0.528082
C62	C	2.040186	-0.208863	1.028082
C63	C	1.470711	-0.745613	0.458495
C64	C	1.970711	-0.245613	0.958495
C65	C	1.405865	-0.709004	0.393578
C66	C	1.905865	-0.209004	0.893578
C67	C	1.410502	-0.635649	0.398250
C68	C	1.910502	-0.135649	0.898250
C69	C	1.453348	-0.967100	0.441028
C70	C	1.953348	-0.467100	0.941028
C71	C	1.448719	-1.040460	0.436359
C72	C	1.948719	-0.540460	0.936359
C73	C	1.583039	-1.040314	0.570865
C74	C	2.083039	-0.540314	1.070865
C75	C	1.587674	-0.966958	0.575526
C76	C	2.087674	-0.466958	1.075526
C77	C	1.522824	-0.930355	0.510613
C78	C	2.022824	-0.430355	1.010613
C79	C	1.465968	-0.820595	0.453721
C80	C	1.965968	-0.320595	0.953721
C81	C	1.527562	-0.855375	0.515393
C82	C	2.027562	-0.355375	1.015393
C83	C	1.770714	-0.338357	0.484511
C84	C	2.270714	0.161643	0.984511
C85	C	1.887490	-0.338364	0.484517
C86	C	2.387490	0.161636	0.984517
C87	C	1.496754	-0.338268	0.758535
C88	C	1.996754	0.161732	1.258535
C89	C	1.496785	-0.338238	0.875313
C90	C	1.996785	0.161762	1.375313
C91	C	1.508515	-0.155135	0.496260
C92	C	2.008515	0.344865	0.996260
C93	C	1.513558	-0.077064	0.501273
C94	C	2.013558	0.422936	1.001273
C95	C	1.496673	-0.338360	0.211528
C96	C	1.996673	0.161640	0.711528
C97	C	1.496858	-0.338193	0.094762
C98	C	1.996858	0.161807	0.594762
C99	C	1.432520	-0.293301	0.933063
C100	C	1.932520	0.206699	1.433063
C101	C	1.432553	-0.293280	1.042788
C102	C	1.932553	0.206720	1.542788
C103	C	1.561126	-0.383134	1.037005
C104	C	2.061126	0.116866	1.537005
C105	C	1.561086	-0.383158	0.927281
C106	C	2.061086	0.116842	1.427281
C107	C	1.368219	-0.248381	0.881095
C108	C	1.868219	0.251619	1.381095
C109	C	1.303949	-0.203440	0.938845
C110	C	1.803949	0.296560	1.438845
C111	C	1.303983	-0.203419	1.048571
C112	C	1.803983	0.296581	1.548571
C113	C	1.368285	-0.248339	1.100546
C114	C	1.868285	0.251661	1.600546
H115	H	1.202090	-0.248588	0.624867
H116	H	1.702090	0.251412	1.124867
H117	H	1.251591	-0.166872	0.896519
H118	H	1.751591	0.333128	1.396519
H119	H	1.368304	-0.248320	1.189892
H120	H	1.868304	0.251680	1.689892
Br121	Br	1.648389	-0.444092	1.107542
Br122	Br	2.148389	0.055908	1.607542
H123	H	0.908768	-0.167226	0.752200
H124	H	1.408768	0.332774	1.252200
H125	H	1.613432	-0.419740	0.880260
H126	H	2.113432	0.080260	1.380260
H127	H	1.107835	-0.167206	0.752185
H128	H	1.607835	0.332794	1.252185
H129	H	0.803952	-0.248623	0.624865
H130	H	1.303952	0.251377	1.124865
H131	H	1.251644	-0.166831	1.095588
H132	H	1.751644	0.333169	1.595588
Br133	Br	0.861051	-0.444119	0.319090
Br134	Br	1.361051	0.055881	0.819090
Br135	Br	1.119692	-0.444089	0.319079
Br136	Br	1.619692	0.055911	0.819079
H137	H	1.592993	-0.738663	0.580934
H138	H	2.092993	-0.238663	1.080934
Br139	Br	1.639127	-0.585638	0.627184
Br140	Br	2.139127	-0.085638	1.127184
Br141	Br	1.365324	-0.917434	0.352944
Br142	Br	1.865324	-0.417434	0.852944
Br143	Br	1.311563	-0.758879	0.299151
Br144	Br	1.811563	-0.258879	0.799151
H145	H	1.644245	-0.937037	0.632189
H146	H	2.144245	-0.437037	1.132189
H147	H	1.392140	-1.070380	0.379692
H148	H	1.892140	-0.570380	0.879692
Br149	Br	1.322498	-0.585971	0.310152
Br150	Br	1.822498	-0.085971	0.810152
Br151	Br	1.621838	-0.805498	0.609837
Br152	Br	2.121838	-0.305498	1.109837
Br153	Br	1.671042	-1.089992	0.658959
Br154	Br	2.171042	-0.589992	1.158959
Br155	Br	1.368178	-0.248401	0.732183
Br156	Br	1.868178	0.251599	1.232183
H157	H	1.409405	-0.850525	0.397060
H158	H	1.909405	-0.350525	0.897060
