data_functionalizedCrystal
_audit_creation_method	'MofGen! by Chris Wilmer'
_symmetry_space_group_name_H-M	'P1'
_symmetry_Int_Tables_number	1
_symmetry_cell_setting	triclinic
loop_
_symmetry_equiv_pos_as_xyz
  x,y,z
_cell_length_a	16.625548
_cell_length_b	16.120484
_cell_length_c	16.120704
_cell_angle_alpha	84.364775
_cell_angle_beta	87.110717
_cell_angle_gamma	92.926626
loop_
_atom_site_label
_atom_site_type_symbol
_atom_site_fract_x
_atom_site_fract_y
_atom_site_fract_z
Zn1	Zn	1.191057	-0.356910	0.489465
Zn2	Zn	1.190983	-0.489549	0.356773
Zn3	Zn	1.063450	-0.349795	0.349708
Zn4	Zn	1.048983	-0.496646	0.496498
O5	O	1.123618	-0.423225	0.423111
O6	O	1.303878	-0.374512	0.471876
O7	O	1.180089	-0.465063	0.238871
O8	O	1.086463	-0.233771	0.362347
O9	O	1.303824	-0.471962	0.374388
O10	O	1.180215	-0.238998	0.465026
O11	O	1.086391	-0.362387	0.233681
O12	O	0.948699	-0.369268	0.369167
O13	O	1.061806	-0.484057	0.612530
O14	O	0.938070	-0.477158	0.477013
O15	O	1.166187	-0.381393	0.607363
O16	O	1.166061	-0.607458	0.381208
O17	O	1.061734	-0.612672	0.483863
C18	C	0.914129	-0.423212	0.423087
C19	C	0.824506	-0.423227	0.423098
C20	C	0.496329	-0.423235	0.423134
C21	C	0.587638	-0.423230	0.423121
C22	C	0.660415	-0.423231	0.423115
C23	C	0.751730	-0.423226	0.423104
C24	C	1.112340	-0.640394	0.434083
C25	C	1.107588	-0.733302	0.438805
C26	C	1.098915	-0.903405	0.447444
C27	C	1.148464	-0.942205	0.398792
C28	C	1.143639	-1.036856	0.403599
C29	C	1.103740	-0.808745	0.442638
C30	C	1.333925	-0.423239	0.423136
C31	C	1.423545	-0.423245	0.423146
C32	C	1.112391	-0.434310	0.641122
C33	C	1.107606	-0.439034	0.734025
C34	C	1.134961	-0.205208	0.412114
C35	C	1.139794	-0.112303	0.407428
C36	C	1.148361	-0.398917	0.942954
C37	C	1.098846	-0.447624	0.904113
C38	C	1.103722	-0.442843	0.809467
C39	C	1.143486	-0.403697	1.037609
C40	C	1.134799	-0.412210	1.205950
C41	C	1.139598	-0.407509	1.113048
H42	H	1.194508	-0.904336	0.353530
O43	O	1.203200	-0.344850	0.897740
C44	C	1.224914	-0.227092	0.793364
C45	C	1.162723	-0.288275	0.844514
H46	H	1.192212	-0.181325	0.750332
H47	H	1.267126	-0.263410	0.754394
H48	H	1.261450	-0.191211	0.837552
H49	H	1.126131	-0.324172	0.800387
H50	H	1.120566	-0.251910	0.883494
O51	O	1.043802	-0.501571	0.949197
C52	C	0.903190	-0.543525	0.978107
C53	C	0.965431	-0.482364	0.927002
H54	H	0.839814	-0.528030	0.960169
H55	H	0.908932	-0.537800	1.047514
H56	H	0.914757	-0.610072	0.964431
H57	H	0.953904	-0.415792	0.940608
H58	H	0.959673	-0.488163	0.857611
O59	O	1.044065	-0.948543	0.501552
C60	C	0.996105	-0.982633	0.645019
C61	C	1.058283	-0.931470	0.583841
H62	H	1.007568	-0.968835	0.711561
H63	H	1.001954	-1.052039	0.639391
H64	H	0.932719	-0.964858	0.629383
H65	H	1.121697	-0.949173	0.599437
H66	H	1.052364	-0.862076	0.589480
