data_functionalizedCrystal
_audit_creation_method	'MofGen! by Chris Wilmer'
_symmetry_space_group_name_H-M	'P1'
_symmetry_Int_Tables_number	1
_symmetry_cell_setting	triclinic
loop_
_symmetry_equiv_pos_as_xyz
  x,y,z
_cell_length_a	14.853566
_cell_length_b	16.109301
_cell_length_c	15.186229
_cell_angle_alpha	90.000894
_cell_angle_beta	89.999490
_cell_angle_gamma	83.547947
loop_
_atom_site_label
_atom_site_type_symbol
_atom_site_fract_x
_atom_site_fract_y
_atom_site_fract_z
O1	O	1.196185	0.108541	-0.073161
O2	O	0.933704	0.121473	-0.073175
O3	O	1.072155	-0.006014	-0.073172
O4	O	1.057734	0.236028	-0.073164
O5	O	1.072146	-0.006015	0.073285
O6	O	0.933695	0.121471	0.073283
O7	O	1.196176	0.108540	0.073296
Zn8	Zn	1.064934	0.115005	0.096543
Zn9	Zn	1.064946	0.115008	-0.096421
O10	O	1.057724	0.236026	0.073294
C11	C	0.900111	0.120886	0.000052
C12	C	0.800031	0.119131	0.000047
C13	C	0.376863	0.111708	-0.079772
C14	C	0.376874	0.111706	0.079901
C15	C	0.470906	0.113355	0.079899
C16	C	0.517920	0.114181	0.000060
C17	C	0.470903	0.113359	-0.079777
C18	C	0.517929	0.114185	0.159734
C19	C	0.611966	0.115835	0.159734
C20	C	0.658982	0.116655	0.079894
C21	C	0.611960	0.115832	0.000054
C22	C	0.658974	0.116658	-0.079785
C23	C	0.611953	0.115829	-0.159626
C24	C	0.517919	0.114179	-0.159617
C25	C	0.753016	0.118305	0.079886
C26	C	0.753013	0.118309	-0.079790
C27	C	1.071566	-0.036990	0.000054
C28	C	1.069815	-0.129288	0.000044
C29	C	1.229768	0.109126	0.000067
C30	C	1.329849	0.110882	0.000067
C31	C	1.058313	0.267003	0.000066
C32	C	1.060065	0.359301	0.000070
N33	N	1.064932	0.115003	0.228235
C34	C	0.981983	0.581464	0.000053
C35	C	0.983635	0.668186	0.000046
C36	C	1.147903	0.648542	0.000059
C37	C	1.146249	0.561821	0.000059
C38	C	1.063287	0.528284	0.000060
C39	C	1.066593	0.701728	0.000054
C40	C	1.068385	0.795757	0.000046
C41	C	1.061494	0.434250	0.000066
N42	N	1.064955	0.115003	-0.228114
C43	C	1.126259	0.058571	0.453959
C44	C	1.126262	0.058569	0.546149
C45	C	1.003621	0.171438	0.546156
C46	C	1.003615	0.171435	0.453968
C47	C	1.064939	0.115003	0.407872
C48	C	1.064948	0.115003	0.592250
C49	C	1.064951	0.115002	0.692206
C50	C	1.064935	0.115003	0.307910
H51	H	0.479627	0.113503	-0.224619
H52	H	0.791295	0.118988	0.144891
H53	H	0.479642	0.113518	0.224735
H54	H	0.650244	0.116507	-0.224631
F55	F	1.236193	0.684242	0.000060
F56	F	1.191523	-0.001492	0.404904
H57	H	0.917429	0.711482	0.000039
H58	H	0.338575	0.111029	-0.144776
H59	H	0.338589	0.111039	0.144903
F60	F	0.662000	0.116716	0.244707
F61	F	0.938361	0.231497	0.595220
H62	H	0.953676	0.217389	0.416441
F63	F	1.232789	0.505220	0.000062
F64	F	0.893687	0.545775	0.000052
F65	F	0.803043	0.119182	-0.164768
F66	F	1.191525	-0.001495	0.595196
