data_functionalizedCrystal
_audit_creation_method	'MofGen! by Chris Wilmer'
_symmetry_space_group_name_H-M	'P1'
_symmetry_Int_Tables_number	1
_symmetry_cell_setting	triclinic
loop_
_symmetry_equiv_pos_as_xyz
  x,y,z
_cell_length_a	17.019383
_cell_length_b	17.038272
_cell_length_c	16.098538
_cell_angle_alpha	87.079695
_cell_angle_beta	83.394151
_cell_angle_gamma	92.753117
loop_
_atom_site_label
_atom_site_type_symbol
_atom_site_fract_x
_atom_site_fract_y
_atom_site_fract_z
O1	O	1.060268	-0.092325	-0.145222
O2	O	1.560268	0.407675	0.354778
O3	O	0.830675	-0.105844	-0.128774
O4	O	1.330675	0.394156	0.371226
O5	O	0.944107	0.014725	-0.136894
O6	O	1.444107	0.514725	0.363106
O7	O	0.946836	-0.212893	-0.137103
O8	O	1.446836	0.287107	0.362897
O9	O	0.937479	0.007709	0.002094
O10	O	1.437479	0.507709	0.502094
O11	O	0.824047	-0.112859	0.010213
O12	O	1.324047	0.387141	0.510213
O13	O	1.053640	-0.099340	-0.006235
O14	O	1.553640	0.400660	0.493765
Zn15	Zn	0.937791	-0.107214	0.024056
Zn16	Zn	1.437791	0.392786	0.524056
Zn17	Zn	0.946524	-0.097970	-0.159065
Zn18	Zn	1.446524	0.402030	0.340935
O19	O	0.940208	-0.219909	0.001885
O20	O	1.440208	0.280091	0.501885
C21	C	0.797839	-0.108975	-0.057166
C22	C	1.297839	0.391025	0.442834
C23	C	0.709872	-0.107844	-0.050864
C24	C	1.209872	0.392156	0.449136
C25	C	0.672151	-0.103491	-0.123659
C26	C	1.172151	0.396509	0.376341
C27	C	0.589496	-0.102441	-0.117725
C28	C	1.089496	0.397559	0.382275
C29	C	0.544564	-0.105740	-0.038995
C30	C	1.044564	0.394260	0.461005
C31	C	0.582290	-0.110096	0.033805
C32	C	1.082290	0.389904	0.533805
C33	C	0.664944	-0.111151	0.027871
C34	C	1.164944	0.388849	0.527871
C35	C	0.294823	-0.102751	-0.017287
C36	C	0.794823	0.397249	0.482713
C37	C	0.212164	-0.101693	-0.011358
C38	C	0.712164	0.398307	0.488642
C39	C	0.219375	-0.094040	-0.162889
C40	C	0.719375	0.405960	0.337111
C41	C	0.302030	-0.095091	-0.168816
C42	C	0.802030	0.404909	0.331184
C43	C	0.339749	-0.099451	-0.096016
C44	C	0.839749	0.400549	0.403984
C45	C	0.460077	-0.104665	-0.032928
C46	C	0.960077	0.395335	0.467072
C47	C	0.424235	-0.100532	-0.102083
C48	C	0.924235	0.399468	0.397917
C49	C	0.938310	0.040334	-0.067222
C50	C	1.438310	0.540334	0.432778
C51	C	0.930905	0.127094	-0.066692
C52	C	1.430905	0.627094	0.433308
C53	C	1.086476	-0.096209	-0.077845
C54	C	1.586476	0.403791	0.422155
C55	C	1.174443	-0.097340	-0.084153
C56	C	1.674443	0.402660	0.415847
C57	C	0.946005	-0.245518	-0.067788
C58	C	1.446005	0.254482	0.432212
C59	C	0.953410	-0.332278	-0.068324
C60	C	1.453410	0.167722	0.431676
N61	N	0.931837	-0.113521	0.149032
N62	N	1.431837	0.386479	0.649032
C63	C	0.998896	0.177509	-0.071562
C64	C	1.498896	0.677509	0.428438
C65	C	0.991934	0.259029	-0.071071
C66	C	1.491934	0.759029	0.428929
C67	C	0.916979	0.290133	-0.065704
C68	C	1.416979	0.790133	0.434296
C69	C	0.848982	0.239712	-0.060836
C70	C	1.348982	0.739712	0.439164
C71	C	0.855946	0.158194	-0.061333
C72	C	1.355946	0.658194	0.438667
C73	C	0.892378	0.535783	-0.063953
C74	C	1.392378	1.035783	0.436047
C75	C	0.885419	0.617307	-0.063454
C76	C	1.385419	1.117307	0.436546
C77	C	1.028371	0.636619	-0.073691
C78	C	1.528371	1.136619	0.426309
C79	C	1.035328	0.555098	-0.074182
C80	C	1.535328	1.055098	0.425818
C81	C	0.967332	0.504684	-0.069319
C82	C	1.467332	1.004684	0.430681
C83	C	0.909860	0.373459	-0.065200
C84	C	1.409860	0.873459	0.434800
C85	C	0.974452	0.421360	-0.069829
C86	C	1.474452	0.921360	0.430171
N87	N	0.952484	-0.091656	-0.284041
N88	N	1.452484	0.408344	0.215959
C89	C	0.980002	-0.062365	0.189169
C90	C	1.480002	0.437635	0.689169
C91	C	0.975845	-0.066785	0.276656
C92	C	1.475845	0.433215	0.776656
C93	C	0.923526	-0.122366	0.324003
C94	C	1.423526	0.377634	0.824003
C95	C	0.875355	-0.173524	0.283860
C96	C	1.375355	0.326476	0.783860
C97	C	0.879509	-0.169100	0.196375
C98	C	1.379509	0.330900	0.696375
C99	C	0.908467	-0.138391	0.588331
C100	C	1.408467	0.361609	1.088331
C101	C	0.904319	-0.142813	0.675821
C102	C	1.404319	0.357187	1.175821
C103	C	1.004807	-0.036072	0.668611
C104	C	1.504807	0.463928	1.168611
C105	C	1.008960	-0.031656	0.581125
C106	C	1.508960	0.468344	1.081125
C107	C	0.960787	-0.082812	0.540990
C108	C	1.460787	0.417188	1.040990
C109	C	0.919277	-0.126887	0.413428
C110	C	1.419277	0.373113	0.913428
C111	C	0.965032	-0.078287	0.451566
C112	C	1.465032	0.421713	0.951566
H113	H	0.338609	-0.092399	-0.232926
H114	H	0.838609	0.407601	0.267074
Cl115	Cl	1.074734	0.038216	0.521602
Cl116	Cl	1.574734	0.538216	1.021602
H117	H	0.188655	-0.090492	-0.222158
H118	H	0.688655	0.409508	0.277842
Cl119	Cl	0.403584	-0.108809	0.066043
Cl120	Cl	0.903584	0.391191	0.566043
Cl121	Cl	1.065362	0.028237	0.719071
Cl122	Cl	1.565362	0.528237	1.219071
H123	H	0.824378	0.642627	-0.059070
H124	H	1.324378	1.142627	0.440930
Cl125	Cl	0.754753	0.278814	-0.054100
Cl126	Cl	1.254753	0.778814	0.445900
H127	H	0.832752	-0.218776	0.322416
H128	H	1.332752	0.281224	0.822416
H129	H	1.059932	0.152191	-0.075927
H130	H	1.559932	0.652191	0.424073
Cl131	Cl	1.113846	0.700000	-0.079807
Cl132	Cl	1.613846	1.200000	0.420193
H133	H	0.460821	-0.097851	-0.166185
H134	H	0.960821	0.402149	0.333815
H135	H	1.047300	0.300074	-0.075035
H136	H	1.547300	0.800074	0.424965
H137	H	1.022609	-0.017109	0.150624
H138	H	1.522609	0.482891	0.650624
H139	H	0.876679	-0.172143	0.451986
H140	H	1.376679	0.327857	0.951986
Cl141	Cl	0.712365	-0.116627	0.119389
Cl142	Cl	1.212365	0.383373	0.619389
Cl143	Cl	1.129562	0.516004	-0.080956
Cl144	Cl	1.629562	1.016004	0.419044
H145	H	0.175581	-0.104401	0.052757
H146	H	0.675581	0.395599	0.552757
H147	H	0.837010	0.494745	-0.059993
H148	H	1.337010	0.994745	0.440007
H149	H	0.861712	-0.188076	0.714368
H150	H	1.361712	0.311924	1.214368
H151	H	0.325524	-0.106296	0.041993
H152	H	0.825524	0.393704	0.541993
Cl153	Cl	1.036396	-0.002473	0.327116
Cl154	Cl	1.536396	0.497527	0.827116
H155	H	0.800580	0.117146	-0.057368
H156	H	1.300580	0.617146	0.442632
H157	H	0.840287	-0.210756	0.163697
H158	H	1.340287	0.289244	0.663697
H159	H	1.007627	-0.033030	0.413014
H160	H	1.507627	0.466970	0.913014
H161	H	0.545700	-0.112786	0.097909
H162	H	1.045700	0.387214	0.597909
H163	H	1.035481	0.396033	-0.074217
H164	H	1.535481	0.896033	0.425783
H165	H	0.869244	-0.180045	0.555660
H166	H	1.369244	0.319955	1.055660
Cl167	Cl	0.542078	-0.096969	-0.209244
Cl168	Cl	1.042078	0.403031	0.290756
Cl169	Cl	0.728629	-0.099339	-0.222638
Cl170	Cl	1.228629	0.400661	0.277362
Cl171	Cl	0.815633	0.412568	-0.058457
Cl172	Cl	1.315633	0.912568	0.441543
