data_functionalizedCrystal
_audit_creation_method	'MofGen! by Chris Wilmer'
_symmetry_space_group_name_H-M	'P1'
_symmetry_Int_Tables_number	1
_symmetry_cell_setting	triclinic
loop_
_symmetry_equiv_pos_as_xyz
  x,y,z
_cell_length_a	14.908294
_cell_length_b	18.215407
_cell_length_c	18.215405
_cell_angle_alpha	89.974667
_cell_angle_beta	93.262653
_cell_angle_gamma	86.721796
loop_
_atom_site_label
_atom_site_type_symbol
_atom_site_fract_x
_atom_site_fract_y
_atom_site_fract_z
Zn1	Zn	-0.510070	-1.101045	-0.316975
Zn2	Zn	-0.010070	-0.601045	0.183025
Zn3	Zn	-0.359205	-1.108060	-0.432950
Zn4	Zn	0.140795	-0.608060	0.067050
Zn5	Zn	-0.359229	-0.985083	-0.309904
Zn6	Zn	0.140771	-0.485083	0.190096
Zn7	Zn	-0.510012	-0.977946	-0.440002
Zn8	Zn	-0.010012	-0.477946	0.059998
O9	O	-0.434629	-1.043033	-0.374958
O10	O	0.065371	-0.543033	0.125042
O11	O	-0.490072	-1.204959	-0.332367
O12	O	0.009928	-0.704959	0.167633
O13	O	-0.232967	-1.097669	-0.410717
O14	O	0.267033	-0.597669	0.089283
O15	O	-0.379272	-1.000517	-0.207859
O16	O	0.120728	-0.500517	0.292141
O17	O	-0.379232	-1.210113	-0.417573
O18	O	0.120768	-0.710113	0.082427
O19	O	-0.490094	-1.085713	-0.213054
O20	O	0.009906	-0.585713	0.286946
O21	O	-0.232985	-1.007319	-0.320315
O22	O	0.267015	-0.507319	0.179685
O23	O	-0.379216	-0.881153	-0.327154
O24	O	0.120784	-0.381153	0.172846
O25	O	-0.636261	-0.988353	-0.429593
O26	O	-0.136261	-0.488353	0.070407
O27	O	-0.489996	-0.875909	-0.422737
O28	O	0.010004	-0.375909	0.077263
O29	O	-0.636303	-1.078793	-0.339205
O30	O	-0.136303	-0.578793	0.160795
O31	O	-0.379176	-1.090749	-0.536868
O32	O	0.120824	-0.590749	-0.036868
O33	O	-0.489973	-0.995155	-0.542050
O34	O	0.010027	-0.495155	-0.042050
C35	C	-0.434603	-0.851828	-0.374944
C36	C	0.065397	-0.351828	0.125056
C37	C	-0.434613	-0.770029	-0.374957
C38	C	0.065387	-0.270029	0.125043
C39	C	-0.434586	-1.042958	-0.566162
C40	C	0.065414	-0.542958	-0.066162
C41	C	-0.434597	-1.042991	-0.647961
C42	C	0.065403	-0.542991	-0.147961
C43	C	-0.669930	-1.031994	-0.385975
C44	C	-0.169930	-0.531994	0.114025
C45	C	-0.770202	-1.027290	-0.390669
C46	C	-0.270202	-0.527290	0.109331
C47	C	-0.911509	-0.973574	-0.444338
C48	C	-0.411509	-0.473574	0.055662
C49	C	-0.817295	-0.977993	-0.439932
C50	C	-0.317295	-0.477993	0.060068
C51	C	-0.817329	-1.072171	-0.345808
C52	C	-0.317329	-0.572171	0.154192
C53	C	-0.911543	-1.067752	-0.350214
C54	C	-0.411543	-0.567752	0.149786
C55	C	-0.958629	-1.018453	-0.399481
C56	C	-0.458629	-0.518453	0.100519
C57	C	-1.052845	-1.014038	-0.403890
C58	C	-0.552845	-0.514038	0.096110
C59	C	-1.052877	-1.108212	-0.309763
C60	C	-0.552877	-0.608212	0.190237
C61	C	-0.958663	-1.112631	-0.305357
C62	C	-0.458663	-0.612631	0.194643
C63	C	-0.200243	-1.054072	-0.363931
C64	C	0.299757	-0.554072	0.136069
C65	C	-0.099972	-1.058919	-0.359028
C66	C	0.400028	-0.558919	0.140972
C67	C	-0.434656	-1.234985	-0.374972
C68	C	0.065344	-0.734985	0.125028
C69	C	-0.434667	-1.316783	-0.374978
C70	C	0.065333	-0.816783	0.125022
C71	C	-0.492224	-0.579128	-0.424797
C72	C	0.007776	-0.079128	0.075203
C73	C	-0.492236	-0.502268	-0.424800
C74	C	0.007764	-0.002268	0.075200
C75	C	-0.377053	-0.507690	-0.325132
C76	C	0.122947	-0.007690	0.174868
C77	C	-0.377047	-0.584548	-0.325127
C78	C	0.122953	-0.084548	0.174873
C79	C	-0.434631	-0.620265	-0.374963
C80	C	0.065369	-0.120265	0.125037
C81	C	-0.434649	-0.466548	-0.374972
C82	C	0.065351	0.033452	0.125028
C83	C	-0.434661	-0.383214	-0.374975
C84	C	0.065339	0.116786	0.125025
C85	C	-0.434621	-0.703604	-0.374960
C86	C	0.065379	-0.203604	0.125040
C87	C	-0.377011	-1.092873	-0.833438
C88	C	0.122989	-0.592873	-0.333438
C89	C	-0.377033	-1.092905	-0.910298
C90	C	0.122967	-0.592905	-0.410298
C91	C	-0.492312	-0.993285	-0.915729
C92	C	0.007688	-0.493285	-0.415729
C93	C	-0.492294	-0.993258	-0.838870
C94	C	0.007706	-0.493258	-0.338870
C95	C	-0.434638	-1.043050	-0.797727
C96	C	0.065362	-0.543050	-0.297727
C97	C	-0.434678	-1.043110	-0.951445
C98	C	0.065322	-0.543110	-0.451445
C99	C	-0.434702	-1.043144	-1.034779
C100	C	0.065298	-0.543144	-0.534779
C101	C	-0.434615	-1.043017	-0.714387
C102	C	0.065385	-0.543017	-0.214387
C103	C	-0.434692	-1.043129	-0.183008
C104	C	0.065308	-0.543129	0.316992
C105	C	-0.434719	-1.043169	-0.101210
C106	C	0.065281	-0.543169	0.398790
H107	H	-1.091182	-0.973898	-0.444008
H108	H	-0.591182	-0.473898	0.055992
H109	H	-0.330066	-1.133418	-0.799941
H110	H	0.169934	-0.633418	-0.299941
H111	H	-0.330108	-1.133476	-0.939370
H112	H	0.169892	-0.633476	-0.439370
F113	F	-0.961624	-0.921113	-0.496776
F114	F	-0.461624	-0.421113	0.003224
H115	H	-0.330148	-0.618043	-0.284541
H116	H	0.169852	-0.118043	0.215459
F117	F	-0.553513	-0.617137	-0.477836
F118	F	-0.053513	-0.117137	0.022164
F119	F	-0.553636	-0.940230	-0.800862
F120	F	-0.053636	-0.440230	-0.300862
F121	F	-0.767149	-0.930225	-0.487673
F122	F	-0.267149	-0.430225	0.012327
F123	F	-0.908541	-1.165082	-0.252914
F124	F	-0.408541	-0.665082	0.247086
F125	F	-0.767201	-1.124598	-0.293343
F126	F	-0.267201	-0.624598	0.206657
F127	F	-1.103033	-1.155982	-0.262024
F128	F	-0.603033	-0.655982	0.237976
H129	H	-0.539251	-0.952745	-0.949237
H130	H	-0.039251	-0.452745	-0.449237
F131	F	-0.315771	-0.469672	-0.272097
F132	F	0.184229	0.030328	0.227903
F133	F	-0.553535	-0.458490	-0.477839
F134	F	-0.053535	0.041510	0.022161
