data_functionalizedCrystal
_audit_creation_method	'MofGen! by Chris Wilmer'
_symmetry_space_group_name_H-M	'P1'
_symmetry_Int_Tables_number	1
_symmetry_cell_setting	triclinic
loop_
_symmetry_equiv_pos_as_xyz
  x,y,z
_cell_length_a	10.723024
_cell_length_b	12.503584
_cell_length_c	10.723024
_cell_angle_alpha	86.441449
_cell_angle_beta	84.467869
_cell_angle_gamma	93.552360
loop_
_atom_site_label
_atom_site_type_symbol
_atom_site_fract_x
_atom_site_fract_y
_atom_site_fract_z
O1	O	-1.664324	-0.089326	-0.167868
O2	O	-1.164324	0.410674	0.332132
O3	O	-1.301171	-0.089326	-0.184621
O4	O	-0.801171	0.410674	0.315379
O5	O	-1.491124	-0.089322	0.005331
O6	O	-0.991124	0.410678	0.505331
O7	O	-1.474371	-0.089330	-0.357820
O8	O	-0.974371	0.410670	0.142180
O9	O	-1.476838	0.089319	-0.008980
O10	O	-0.976838	0.589319	0.491020
O11	O	-1.286885	0.089315	-0.198933
O12	O	-0.786885	0.589315	0.301067
O13	O	-1.650038	0.089315	-0.182180
O14	O	-1.150038	0.589315	0.317820
Cu15	Cu	-1.467157	0.105627	-0.191863
Cu16	Cu	-0.967157	0.605627	0.308137
Cu17	Cu	-1.484052	-0.105638	-0.174938
Cu18	Cu	-0.984052	0.394362	0.325062
O19	O	-1.460085	0.089311	-0.372132
O20	O	-0.960085	0.589311	0.127868
C21	C	-1.247529	-0.000006	-0.190558
C22	C	-0.747529	0.499994	0.309442
C23	C	-1.108974	-0.000006	-0.186910
C24	C	-0.608974	0.499994	0.313090
N25	N	-1.455283	0.254219	-0.203767
N26	N	-0.955283	0.754219	0.296233
C27	C	-0.917217	-0.000003	-0.073603
C28	C	-0.417217	0.499997	0.426397
C29	C	-1.060420	-0.000003	-0.077371
C30	C	-0.560420	0.499997	0.422629
C31	C	-1.437816	0.473333	-0.221288
C32	C	-0.937816	0.973333	0.278712
C33	C	-1.513394	0.526662	-0.145520
C34	C	-1.013394	1.026662	0.354480
C35	C	-1.503675	0.648585	-0.155269
C36	C	-1.003675	1.148585	0.344731
C37	C	-1.447533	0.351399	-0.211540
C38	C	-0.947533	0.851399	0.288460
C39	C	-0.703680	-0.000006	-0.176243
C40	C	-0.203680	0.499994	0.323757
C41	C	-0.842235	-0.000006	-0.179891
C42	C	-0.342235	0.499994	0.320109
C43	C	-1.482762	-0.000003	0.044675
C44	C	-0.982762	0.499997	0.544675
C45	C	-1.479114	-0.000007	0.183230
C46	C	-0.979114	0.499993	0.683230
N47	N	-1.495931	0.745770	-0.163037
N48	N	-0.995931	1.245770	0.336963
C49	C	-1.468447	-0.000011	-0.411476
C50	C	-0.968447	0.499989	0.088524
C51	C	-1.472095	-0.000014	-0.550030
C52	C	-0.972095	0.499986	-0.050030
C53	C	-1.585402	-0.000008	0.258212
C54	C	-1.085402	0.499992	0.758212
C55	C	-1.581635	-0.000012	0.401416
C56	C	-1.081635	0.499988	0.901416
H57	H	-0.875393	0.000015	0.020181
H58	H	-0.375393	0.500015	0.520181
H59	H	-1.585399	0.480751	-0.073332
H60	H	-1.085399	0.980751	0.426668
H61	H	-1.365818	0.519239	-0.293473
H62	H	-0.865818	1.019239	0.206527
H63	H	-1.385329	-0.000014	0.225052
H64	H	-0.885329	0.499986	0.725052
H65	H	-1.044550	-0.000012	-0.277905
H66	H	-0.544550	0.499988	0.222095
H67	H	-0.884056	-0.000001	-0.273677
H68	H	-0.384056	0.499999	0.226323
H69	H	-1.679187	-0.000002	0.216390
H70	H	-1.179187	0.499998	0.716390
H71	H	-1.381099	-0.000005	0.385544
H72	H	-0.881099	0.499995	0.885544
N73	N	-1.141258	-0.000012	0.036772
N74	N	-0.641258	0.499988	0.536772
N75	N	-1.257473	-0.000016	0.033551
N76	N	-0.757473	0.499984	0.533551
H77	H	-1.314570	-0.000023	0.114168
H78	H	-0.814570	0.499977	0.614168
N79	N	-1.695776	0.000000	0.482253
N80	N	-1.195776	0.500000	0.982253
N81	N	-1.692554	0.000003	0.598467
N82	N	-1.192554	0.500003	1.098467
H83	H	-1.773170	0.000014	0.655563
H84	H	-1.273170	0.500014	1.155563
