data_functionalizedCrystal
_audit_creation_method	'MofGen! by Chris Wilmer'
_symmetry_space_group_name_H-M	'P1'
_symmetry_Int_Tables_number	1
_symmetry_cell_setting	triclinic
loop_
_symmetry_equiv_pos_as_xyz
  x,y,z
_cell_length_a	14.560438
_cell_length_b	14.560438
_cell_length_c	14.560438
_cell_angle_alpha	60.000095
_cell_angle_beta	90.002315
_cell_angle_gamma	59.997437
loop_
_atom_site_label
_atom_site_type_symbol
_atom_site_fract_x
_atom_site_fract_y
_atom_site_fract_z
Zr1	Zr	0.884704	1.005311	-0.120516
O2	O	0.738040	1.196926	-0.267173
O3	O	0.929673	0.813699	-0.075555
O4	O	0.929656	1.005312	-0.267163
O5	O	0.738060	1.005310	0.075576
O6	O	1.080797	1.005309	-0.267158
O7	O	0.738057	1.005313	-0.075565
O8	O	1.080827	0.662548	0.075594
O9	O	0.738031	1.348072	-0.267175
O10	O	1.061636	0.892508	-0.056379
O11	O	0.948844	0.892508	0.056412
O12	O	0.948825	1.118108	-0.169182
O13	O	0.836033	1.118109	-0.056391
Zr14	Zr	1.125763	1.005302	0.120544
Zr15	Zr	1.125757	1.005306	-0.120508
Zr16	Zr	0.884710	1.005306	0.120537
Zr17	Zr	0.884690	1.246370	-0.120520
Zr18	Zr	1.125777	0.764242	0.120549
O19	O	1.080794	1.196914	0.075584
O20	O	1.080785	1.196920	-0.267161
O21	O	0.738049	1.196920	0.075572
O22	O	1.272427	0.813686	0.267201
O23	O	1.272418	0.813692	-0.075544
O24	O	0.929681	0.813693	0.267190
O25	O	1.272406	1.005302	-0.075547
O26	O	1.080811	1.005300	0.267192
O27	O	0.929670	1.005303	0.267187
O28	O	1.272410	1.005300	0.075594
O29	O	0.929635	1.348068	-0.267169
O30	O	1.080832	0.662544	0.267198
O31	O	1.272436	0.662541	0.267204
O32	O	1.272431	0.662544	0.075600
O33	O	0.738036	1.348068	-0.075571
O34	O	0.929640	1.348065	-0.075565
O35	O	1.061642	0.892504	0.169210
O36	O	1.174434	0.892504	0.056419
O37	O	1.061623	1.118104	-0.056383
O38	O	0.948831	1.118105	0.056408
C39	C	1.005252	0.703777	0.000020
C40	C	1.005258	0.601441	0.000022
C41	C	1.088494	0.373946	0.083282
C42	C	1.088522	0.470082	0.083287
C43	C	0.921968	0.636666	-0.083261
C44	C	0.921946	0.540531	-0.083271
C45	C	0.703714	1.005312	0.000004
C46	C	0.601381	1.005314	0.000001
C47	C	0.553295	1.005317	-0.083262
C48	C	0.457149	1.005305	-0.083247
C49	C	0.457180	1.005291	0.083299
C50	C	0.553329	1.005294	0.083287
C51	C	0.553274	1.005331	-0.179418
C52	C	0.457128	1.005319	-0.179403
C53	C	1.306753	1.005301	0.000024
C54	C	1.409086	1.005299	0.000028
C55	C	1.005226	1.005311	-0.301505
C56	C	1.005223	1.005313	-0.403838
C57	C	1.005215	1.306835	0.000009
C58	C	1.005209	1.409171	0.000007
C59	C	0.946338	1.123072	-0.510796
C60	C	0.946351	1.123066	-0.606945
C61	C	1.064136	0.887531	-0.489164
C62	C	1.064129	0.887539	-0.393018
C63	C	1.005241	1.005301	0.301534
C64	C	1.005244	1.005299	0.403867
C65	C	1.306772	0.703772	0.000030
C66	C	1.409111	0.601434	0.000035
C67	C	1.005259	0.703772	0.301539
C68	C	1.005268	0.601434	0.403874
C69	C	1.306779	0.703767	0.301549
C70	C	1.409121	0.601427	0.403888
C71	C	0.703688	1.306846	-0.301521
C72	C	0.601346	1.409186	-0.403859
C73	C	0.703695	1.306841	-0.000001
C74	C	0.601356	1.409179	-0.000006
C75	C	1.005207	1.306840	-0.301511
C76	C	1.005199	1.409178	-0.403845
C77	C	1.398314	0.553354	-0.058839
C78	C	1.494476	0.457205	-0.058838
C79	C	1.612230	0.457218	0.058921
C80	C	1.516068	0.553372	0.058912
C81	C	1.064151	0.553352	0.510831
C82	C	1.064146	0.457204	0.606982
C83	C	0.946375	0.457225	0.489205
C84	C	0.946374	0.553378	0.393057
C85	C	1.516078	0.553345	0.393093
C86	C	1.612235	0.457194	0.489255
C87	C	1.494465	0.457212	0.607001
C88	C	1.398310	0.553367	0.510841
H89	H	1.156293	0.266990	0.151091
N90	N	1.127638	0.760524	-0.277643
H91	H	1.186884	0.755284	-0.235128
H92	H	1.164878	0.685986	-0.285467
H93	H	0.418047	1.005274	0.151109
N94	N	1.527713	0.605251	0.122400
H95	H	1.450564	0.673469	0.113448
H96	H	1.570222	0.645076	0.091464
N97	N	0.479396	0.881766	-0.157146
H98	H	0.560871	0.822077	-0.146406
H99	H	0.429532	0.903347	-0.223182
N100	N	0.530997	1.128885	-0.280715
H101	H	0.449515	1.188580	-0.329652
H102	H	0.580839	1.107310	-0.325183
N103	N	1.282935	0.605242	0.522468
H104	H	1.273918	0.645141	0.564937
H105	H	1.273993	0.531831	0.564908
N106	N	1.178356	0.432090	0.173100
H107	H	1.231096	0.334288	0.225849
H108	H	1.141956	0.468358	0.216772
H109	H	0.854177	0.743628	-0.151062
N110	N	1.127665	0.405327	0.722345
H111	H	1.073665	0.422066	0.764860
H112	H	1.164971	0.450384	0.714510
H113	H	1.112102	0.592481	0.519645
N114	N	0.362650	1.125069	-0.288163
H115	H	0.385712	1.125131	-0.353602
H116	H	0.345711	1.205142	-0.295459
N117	N	0.832121	0.578520	-0.173101
H118	H	0.779374	0.676322	-0.225852
H119	H	0.788443	0.542267	-0.136697
N120	N	0.882864	0.405385	0.477540
H121	H	0.891803	0.337171	0.554679
H122	H	0.913785	0.365567	0.435021
H123	H	0.898373	1.218971	-0.519613
H124	H	0.592488	1.005275	0.151095
N125	N	0.647713	0.885587	-0.168453
H126	H	0.664697	0.805444	-0.095713
H127	H	0.717039	0.885661	-0.168514
H128	H	0.898402	1.218957	-0.694032
H129	H	1.112094	0.791644	-0.480368
H130	H	1.524886	0.592475	0.306011
H131	H	0.898419	0.592531	0.305962
H132	H	1.311228	0.592495	-0.106793
N133	N	1.482832	0.405355	-0.122347
H134	H	1.400484	0.450398	-0.159646
H135	H	1.520175	0.308828	-0.068285
H136	H	1.699324	0.418073	0.106858
N137	N	1.727596	0.405337	0.477614
H138	H	1.719848	0.450377	0.395268
H139	H	1.770063	0.308810	0.514954
H140	H	1.485677	0.418068	0.694092
