data_functionalizedCrystal
_audit_creation_method	'MofGen! by Chris Wilmer'
_symmetry_space_group_name_H-M	'P1'
_symmetry_Int_Tables_number	1
_symmetry_cell_setting	triclinic
loop_
_symmetry_equiv_pos_as_xyz
  x,y,z
_cell_length_a	23.532407
_cell_length_b	23.532355
_cell_length_c	16.776229
_cell_angle_alpha	89.998671
_cell_angle_beta	89.999121
_cell_angle_gamma	97.161913
loop_
_atom_site_label
_atom_site_type_symbol
_atom_site_fract_x
_atom_site_fract_y
_atom_site_fract_z
O1	O	-0.068995	0.755281	-0.066167
O2	O	0.264338	1.088614	0.267166
O3	O	0.597671	1.421947	0.600499
O4	O	-0.079030	0.589413	-0.066191
O5	O	0.254304	0.922746	0.267143
O6	O	0.587637	1.256080	0.600476
O7	O	0.008920	0.677349	-0.066188
O8	O	0.342253	1.010682	0.267145
O9	O	0.675587	1.344015	0.600478
O10	O	-0.156945	0.667345	-0.066170
O11	O	0.176388	1.000679	0.267164
O12	O	0.509722	1.334012	0.600497
O13	O	0.008925	0.677337	0.066388
O14	O	0.342259	1.010670	0.399722
O15	O	0.675592	1.344004	0.733055
O16	O	-0.079024	0.589402	0.066386
O17	O	0.254309	0.922735	0.399719
O18	O	0.587642	1.256068	0.733052
O19	O	-0.068990	0.755269	0.066409
O20	O	0.264343	1.088602	0.399743
O21	O	0.597677	1.421936	0.733076
Zn22	Zn	-0.074006	0.672333	0.087447
Zn23	Zn	0.259327	1.005667	0.420780
Zn24	Zn	0.592660	1.339000	0.754114
Zn25	Zn	-0.074013	0.672349	-0.087228
Zn26	Zn	0.259320	1.005682	0.246105
Zn27	Zn	0.592653	1.339015	0.579438
O28	O	-0.156940	0.667334	0.066407
O29	O	0.176394	1.000667	0.399740
O30	O	0.509727	1.334000	0.733074
C31	C	-0.078776	0.568191	0.000094
C32	C	0.254557	0.901524	0.333428
C33	C	0.587891	1.234857	0.666761
C34	C	-0.078022	0.504972	0.000085
C35	C	0.255311	0.838305	0.333418
C36	C	0.588645	1.171639	0.666751
C37	C	-0.073281	0.112952	0.072385
C38	C	0.260052	0.446285	0.405718
C39	C	0.593386	0.779619	0.739052
C40	C	-0.072564	0.053553	0.072388
C41	C	0.260770	0.386886	0.405721
C42	C	0.594103	0.720219	0.739055
O43	O	-0.072171	0.022829	0.133848
O44	O	0.261163	0.356162	0.467181
O45	O	0.594496	0.689495	0.800514
N46	N	-0.072211	0.023850	0.000121
N47	N	0.261123	0.357184	0.333454
N48	N	0.594456	0.690517	0.666787
C49	C	-0.072570	0.053552	-0.072154
C50	C	0.260764	0.386885	0.261179
C51	C	0.594097	0.720218	0.594512
O52	O	-0.072203	0.022833	-0.133623
O53	O	0.261130	0.356167	0.199710
O54	O	0.594464	0.689500	0.533044
C55	C	-0.073283	0.112950	-0.072156
C56	C	0.260050	0.446284	0.261177
C57	C	0.593384	0.779617	0.594510
C58	C	-0.073641	0.142649	0.000115
C59	C	0.259692	0.475982	0.333449
C60	C	0.593025	0.809315	0.666782
C61	C	-0.073639	0.142650	0.144651
C62	C	0.259694	0.475984	0.477984
C63	C	0.593028	0.809317	0.811318
C64	C	-0.074357	0.202046	0.144648
C65	C	0.258976	0.535379	0.477981
C66	C	0.592309	0.868712	0.811314
C67	C	-0.074718	0.231742	0.072378
C68	C	0.258615	0.565076	0.405712
C69	C	0.591949	0.898409	0.739045
C70	C	-0.074360	0.202044	0.000112
C71	C	0.258973	0.535377	0.333446
C72	C	0.592307	0.868711	0.666779
C73	C	-0.073638	0.142651	-0.144431
C74	C	0.259696	0.475984	0.188903
C75	C	0.593029	0.809318	0.522236
C76	C	-0.074351	0.202054	-0.144427
C77	C	0.258983	0.535387	0.188907
C78	C	0.592316	0.868721	0.522240
C79	C	-0.074709	0.231752	-0.072155
C80	C	0.258624	0.565086	0.261179
C81	C	0.591958	0.898419	0.594512
C82	C	-0.075439	0.291136	-0.072161
C83	C	0.257894	0.624469	0.261173
C84	C	0.591228	0.957802	0.594506
N85	N	-0.075792	0.320838	0.000107
N86	N	0.257542	0.654171	0.333440
N87	N	0.590875	0.987505	0.666773
C88	C	-0.075431	0.291141	0.072376
C89	C	0.257902	0.624475	0.405709
C90	C	0.591235	0.957808	0.739043
C91	C	-0.071070	-0.071190	-0.072144
C92	C	0.262263	0.262143	0.261189
C93	C	0.595596	0.595477	0.594522
C94	C	-0.070361	-0.130588	-0.072143
C95	C	0.262972	0.202745	0.261190
C96	C	0.596305	0.536078	0.594524
C97	C	-0.070354	-0.130583	0.072400
C98	C	0.262979	0.202750	0.405733
C99	C	0.596312	0.536084	0.739066
C100	C	-0.071068	-0.071184	0.072397
C101	C	0.262266	0.262149	0.405731
C102	C	0.595599	0.595482	0.739064
C103	C	-0.071423	-0.041488	0.000123
C104	C	0.261910	0.291846	0.333456
C105	C	0.595243	0.625179	0.666790
C106	C	-0.076941	0.415875	0.072364
C107	C	0.256393	0.749209	0.405697
C108	C	0.589726	1.082542	0.739030
C109	C	-0.077662	0.475275	0.072354
C110	C	0.255672	0.808609	0.405687
C111	C	0.589005	1.141942	0.739021
C112	C	-0.077665	0.475265	-0.072188
C113	C	0.255668	0.808599	0.261145
C114	C	0.589001	1.141932	0.594479
C115	C	-0.076948	0.415870	-0.072179
C116	C	0.256386	0.749203	0.261155
C117	C	0.589719	1.082537	0.594488
C118	C	-0.076583	0.386177	0.000104
C119	C	0.256750	0.719510	0.333437
C120	C	0.590083	1.052843	0.666770
O121	O	-0.075830	0.321898	-0.133589
O122	O	0.257503	0.655231	0.199744
O123	O	0.590837	0.988564	0.533078
O124	O	-0.075790	0.321868	0.133834
O125	O	0.257543	0.655201	0.467168
O126	O	0.590876	0.988534	0.800501
C127	C	-0.178158	0.667594	0.000121
C128	C	0.155175	1.000927	0.333455
C129	C	0.488508	1.334261	0.666788
C130	C	-0.241375	0.668360	0.000129
C131	C	0.091958	1.001693	0.333462
C132	C	0.425291	1.335027	0.666796
C133	C	-0.640487	0.621125	0.000081
C134	C	-0.307154	0.954459	0.333415
C135	C	0.026179	1.287792	0.666748
C136	C	-0.699887	0.621837	0.000076
C137	C	-0.366554	0.955170	0.333409
C138	C	-0.033221	1.288504	0.666743
O139	O	-0.736640	0.578050	0.000040
O140	O	-0.403307	0.911383	0.333374
O141	O	-0.069973	1.244716	0.666707
N142	N	-0.722504	0.674114	0.000084
N143	N	-0.389170	1.007448	0.333418
N144	N	-0.055837	1.340781	0.666751
C145	C	-0.685717	0.725684	0.000090
C146	C	-0.352383	1.059017	0.333423
C147	C	-0.019050	1.392351	0.666757
O148	O	-0.710408	0.770216	0.000096
O149	O	-0.377075	1.103549	0.333429
O150	O	-0.043741	1.436882	0.666763
C151	C	-0.626318	0.724972	0.000090
C152	C	-0.292984	1.058305	0.333423
C153	C	0.040349	1.391639	0.666757
C154	C	-0.603705	0.672691	0.000090
C155	C	-0.270371	1.006024	0.333423
C156	C	0.062962	1.339358	0.666756
C157	C	-0.617874	0.568849	0.000080
C158	C	-0.284540	0.902182	0.333413
C159	C	0.048793	1.235515	0.666747
C160	C	-0.558478	0.568137	0.000087
C161	C	-0.225144	0.901471	0.333420
C162	C	0.108189	1.234804	0.666754
C163	C	-0.521695	0.619703	0.000095
C164	C	-0.188362	0.953036	0.333429
C165	C	0.144972	1.286370	0.666762
C166	C	-0.544309	0.671980	0.000097
C167	C	-0.210975	1.005313	0.333430
C168	C	0.122358	1.338646	0.666763
C169	C	-0.589532	0.776541	0.000090
C170	C	-0.256198	1.109874	0.333423
C171	C	0.077135	1.443208	0.666757
C172	C	-0.530129	0.775824	0.000089
C173	C	-0.196796	1.109158	0.333423
C174	C	0.136538	1.442491	0.666756
C175	C	-0.507516	0.723543	0.000089
C176	C	-0.174183	1.056877	0.333422
C177	C	0.159150	1.390210	0.666755
C178	C	-0.448130	0.722834	0.000112
C179	C	-0.114797	1.056167	0.333445
C180	C	0.218537	1.389501	0.666778
N181	N	-0.425514	0.670556	0.000103
N182	N	-0.092180	1.003890	0.333437
N183	N	0.241153	1.337223	0.666770
C184	C	-0.462296	0.618991	0.000095
C185	C	-0.128963	0.952324	0.333428
C186	C	0.204370	1.285657	0.666762
C187	C	-0.810459	0.727175	0.000089
C188	C	-0.477125	1.060509	0.333423
C189	C	-0.143792	1.393842	0.666756
C190	C	-0.869857	0.727888	0.000095
C191	C	-0.536523	1.061221	0.333428
C192	C	-0.203190	1.394555	0.666762
C193	C	-0.884023	0.624041	0.000079
C194	C	-0.550690	0.957374	0.333413
C195	C	-0.217357	1.290707	0.666746
C196	C	-0.824624	0.623329	0.000079
C197	C	-0.491291	0.956662	0.333412
C198	C	-0.157958	1.289995	0.666746
C199	C	-0.787842	0.674898	0.000081
C200	C	-0.454509	1.008231	0.333414
C201	C	-0.121176	1.341564	0.666747
C202	C	-0.337560	0.617501	0.000110
C203	C	-0.004226	0.950834	0.333444
C204	C	0.329107	1.284168	0.666777
C205	C	-0.278158	0.616794	0.000121
C206	C	0.055175	0.950128	0.333454
C207	C	0.388509	1.283461	0.666787
C208	C	-0.263996	0.720642	0.000132
C209	C	0.069337	1.053975	0.333466
C210	C	0.402670	1.387308	0.666799
C211	C	-0.323393	0.721349	0.000126
C212	C	0.009940	1.054682	0.333459
C213	C	0.343274	1.388015	0.666793
C214	C	-0.360174	0.669774	0.000112
C215	C	-0.026841	1.003107	0.333446
C216	C	0.306493	1.336440	0.666779
O217	O	-0.411343	0.766598	0.000144
O218	O	-0.078009	1.099931	0.333477
O219	O	0.255324	1.433265	0.666811
O220	O	-0.437597	0.574467	0.000079
O221	O	-0.104263	0.907800	0.333412
O222	O	0.229070	1.241133	0.666745
C223	C	0.030139	0.677088	0.000096
C224	C	0.363472	1.010421	0.333429
C225	C	0.696805	1.343755	0.666762
C226	C	0.093356	0.676322	0.000083
C227	C	0.426689	1.009656	0.333416
C228	C	0.760022	1.342989	0.666749
C229	C	-0.069244	0.776491	0.000123
C230	C	0.264090	1.109825	0.333456
C231	C	0.597423	1.443158	0.666789
C232	C	-0.069998	0.839710	0.000127
C233	C	0.263336	1.173043	0.333460
C234	C	0.596669	1.506377	0.666794
N235	N	-0.074001	0.672327	0.206658
N236	N	0.259332	1.005661	0.539991
N237	N	0.592666	1.338994	0.873325
N238	N	-0.074014	0.672360	-0.206440
N239	N	0.259319	1.005693	0.126894
N240	N	0.592653	1.339026	0.460227
C241	C	-0.035073	0.711277	0.248376
C242	C	0.298260	1.044610	0.581710
C243	C	0.631594	1.377943	0.915043
C244	C	-0.035072	0.711280	0.331828
C245	C	0.298261	1.044613	0.665162
C246	C	0.631594	1.377947	0.998495
C247	C	-0.074003	0.672336	0.373561
C248	C	0.259330	1.005669	0.706894
C249	C	0.592663	1.339003	1.040228
C250	C	-0.112933	0.633382	0.331837
C251	C	0.220400	0.966715	0.665170
C252	C	0.553733	1.300049	0.998504
C253	C	-0.112931	0.633377	0.248386
C254	C	0.220403	0.966710	0.581720
C255	C	0.553736	1.300043	0.915053
C256	C	-0.112945	0.633403	0.668384
C257	C	0.220389	0.966736	1.001718
C258	C	0.553722	1.300069	1.335051
C259	C	-0.112945	0.633412	0.751841
C260	C	0.220388	0.966746	1.085174
C261	C	0.553721	1.300079	1.418507
C262	C	-0.035086	0.711306	0.751826
C263	C	0.298247	1.044639	1.085160
C264	C	0.631581	1.377973	1.418493
C265	C	-0.035083	0.711301	0.668376
C266	C	0.298250	1.044634	1.001709
C267	C	0.631583	1.377967	1.335042
C268	C	-0.074011	0.672345	0.626659
C269	C	0.259322	1.005678	0.959992
C270	C	0.592655	1.339012	1.293326
C271	C	-0.074011	0.672341	0.536171
C272	C	0.259323	1.005675	0.869504
C273	C	0.592656	1.339008	1.202837
C274	C	-0.074007	0.672342	0.464048
C275	C	0.259326	1.005675	0.797381
C276	C	0.592660	1.339008	1.130715
H277	H	-0.071365	-0.047016	-0.131002
H278	H	0.261968	0.286318	0.202331
H279	H	0.595301	0.619651	0.535664
H280	H	-0.144642	0.601685	0.634425
H281	H	0.188691	0.935018	0.967758
H282	H	0.522025	1.268352	1.301092
H283	H	-0.076649	0.391705	0.131223
H284	H	0.256684	0.725039	0.464556
H285	H	0.590018	1.058372	0.797889
N286	N	-0.154920	0.591373	0.376844
N287	N	0.178413	0.924706	0.710177
N288	N	0.511746	1.258040	1.043511
H289	H	-0.149017	0.597287	0.436040
H290	H	0.184317	0.930620	0.769374
H291	H	0.517650	1.263953	1.102707
H292	H	-0.195289	0.597718	0.362253
H293	H	0.138045	0.931052	0.695586
H294	H	0.471378	1.264385	1.028920
H295	H	-0.647817	0.526855	0.000071
H296	H	-0.314484	0.860189	0.333404
H297	H	0.018850	1.193522	0.666737
N298	N	-0.377225	0.561876	0.000095
N299	N	-0.043892	0.895209	0.333428
N300	N	0.289441	1.228542	0.666761
H301	H	-0.353879	0.528655	0.000096
H302	H	-0.020545	0.861988	0.333429
H303	H	0.312788	1.195321	0.666763
H304	H	-0.402182	0.559902	0.049240
H305	H	-0.068849	0.893236	0.382574
H306	H	0.264485	1.226569	0.715907
N307	N	0.006914	0.753285	0.203368
N308	N	0.340247	1.086618	0.536701
N309	N	0.673581	1.419951	0.870034
H310	H	0.031575	0.777958	0.242462
H311	H	0.364909	1.111292	0.575796
H312	H	0.698242	1.444625	0.909129
H313	H	0.031979	0.731624	0.168747
H314	H	0.365312	1.064958	0.502081
H315	H	0.698646	1.398291	0.835414
H316	H	-0.341805	0.763920	0.000138
H317	H	-0.008472	1.097253	0.333471
H318	H	0.324862	1.430587	0.666804
N319	N	-0.534092	0.511748	0.000092
N320	N	-0.200759	0.845082	0.333426
N321	N	0.132574	1.178415	0.666759
H322	H	-0.566414	0.479195	0.000087
H323	H	-0.233080	0.812528	0.333420
H324	H	0.100253	1.145861	0.666754
H325	H	-0.509753	0.509189	-0.049053
H326	H	-0.176420	0.842522	0.284281
H327	H	0.156913	1.175855	0.617614
N328	N	-0.069983	-0.162618	-0.150093
N329	N	0.263350	0.170715	0.183241
N330	N	0.596683	0.504048	0.516574
H331	H	-0.070321	-0.134787	-0.195871
H332	H	0.263013	0.198547	0.137462
H333	H	0.596346	0.531880	0.470795
H334	H	-0.034375	-0.182440	-0.153247
H335	H	0.298959	0.150893	0.180087
H336	H	0.632292	0.484226	0.513420
N337	N	-0.800237	0.566941	0.000082
N338	N	-0.466903	0.900274	0.333415
N339	N	-0.133570	1.233608	0.666749
H340	H	-0.832557	0.534385	0.000080
H341	H	-0.499223	0.867719	0.333413
H342	H	-0.165890	1.201052	0.666747
H343	H	-0.775900	0.564382	-0.049066
H344	H	-0.442567	0.897716	0.284267
H345	H	-0.109234	1.231049	0.617601
N346	N	-0.078051	0.507299	-0.150135
N347	N	0.255282	0.840632	0.183198
N348	N	0.588615	1.173966	0.516532
H349	H	-0.113656	0.527126	-0.153356
H350	H	0.219677	0.860459	0.179977
H351	H	0.553011	1.193792	0.513310
H352	H	-0.043014	0.536733	-0.153303
H353	H	0.290320	0.870066	0.180030
H354	H	0.623653	1.203400	0.513364
H355	H	-0.073345	0.118481	-0.203282
H356	H	0.259988	0.451814	0.130051
H357	H	0.593322	0.785148	0.463384
H358	H	-0.144649	0.601697	0.785818
H359	H	0.188685	0.935030	1.119151
H360	H	0.522018	1.268364	1.452485
N361	N	-0.224313	0.776253	0.000145
N362	N	0.109020	1.109587	0.333479
N363	N	0.442353	1.442920	0.666812
H364	H	-0.199351	0.778270	-0.049000
H365	H	0.133982	1.111603	0.284333
H366	H	0.467315	1.444937	0.617667
H367	H	-0.247685	0.809453	0.000176
H368	H	0.085648	1.142786	0.333510
H369	H	0.418981	1.476120	0.666843
H370	H	-0.070060	-0.154773	0.131245
H371	H	0.263274	0.178561	0.464579
H372	H	0.596607	0.511894	0.797912
H373	H	-0.003374	0.742995	0.365795
H374	H	0.329960	1.076329	0.699128
H375	H	0.663293	1.409662	1.032462
N376	N	-0.078043	0.507310	0.150305
N377	N	0.255290	0.840644	0.483638
N378	N	0.588623	1.173977	0.816972
H379	H	-0.113651	0.527132	0.153532
H380	H	0.219683	0.860465	0.486865
H381	H	0.553016	1.193799	0.820198
H382	H	-0.077681	0.479450	0.196042
H383	H	0.255652	0.812783	0.529376
H384	H	0.588985	1.146117	0.862709
H385	H	-0.003384	0.743014	0.634400
H386	H	0.329949	1.076348	0.967733
H387	H	0.663282	1.409681	1.301066
N388	N	-0.074739	0.234085	-0.222380
N389	N	0.258595	0.567418	0.110954
N390	N	0.591928	0.900751	0.444287
H391	H	-0.039727	0.263550	-0.225606
H392	H	0.293606	0.596883	0.107727
H393	H	0.626940	0.930217	0.441061
H394	H	-0.074425	0.206217	-0.268114
H395	H	0.258909	0.539550	0.065220
H396	H	0.592242	0.872883	0.398553
H397	H	-0.076665	0.391687	-0.131028
H398	H	0.256668	0.725020	0.202305
H399	H	0.590002	1.058354	0.535638
N400	N	-0.154921	0.591366	0.203393
N401	N	0.178413	0.924699	0.536727
N402	N	0.511746	1.258033	0.870060
H403	H	-0.180023	0.612980	0.168762
H404	H	0.153311	0.946313	0.502095
H405	H	0.486644	1.279647	0.835429
H406	H	-0.133246	0.566282	0.168824
H407	H	0.200087	0.899615	0.502157
H408	H	0.533421	1.232949	0.835490
N409	N	-0.074744	0.234073	0.222598
N410	N	0.258589	0.567407	0.555932
N411	N	0.591923	0.900740	0.889265
H412	H	-0.074406	0.206240	0.268375
H413	H	0.258927	0.539573	0.601708
H414	H	0.592261	0.872907	0.935041
H415	H	-0.039730	0.263538	0.225748
H416	H	0.293603	0.596871	0.559081
H417	H	0.626936	0.930205	0.892414
H418	H	-0.003387	0.743024	0.785801
H419	H	0.329946	1.076357	1.119134
H420	H	0.663280	1.409691	1.452468
H421	H	-0.259750	0.574219	0.000124
H422	H	0.073583	0.907553	0.333457
H423	H	0.406916	1.240886	0.666791
H424	H	-0.071360	-0.047008	0.131248
H425	H	0.261973	0.286326	0.464581
H426	H	0.595307	0.619659	0.797914
N427	N	-0.073248	0.110627	0.222605
N428	N	0.260085	0.443960	0.555939
N429	N	0.593418	0.777293	0.889272
H430	H	-0.073195	0.138514	0.268376
H431	H	0.260139	0.471847	0.601709
H432	H	0.593472	0.805181	0.935043
H433	H	-0.108460	0.081427	0.225997
H434	H	0.224874	0.414761	0.559331
H435	H	0.558207	0.748094	0.892664
N436	N	-0.923706	0.568424	0.000070
N437	N	-0.590373	0.901757	0.333403
N438	N	-0.257040	1.235091	0.666736
H439	H	-0.948663	0.566414	-0.049079
H440	H	-0.615330	0.899747	0.284254
H441	H	-0.281997	1.233081	0.617588
H442	H	-0.900333	0.535225	0.000097
H443	H	-0.567000	0.868559	0.333430
H444	H	-0.233667	1.201892	0.666764
N445	N	-0.894243	0.784276	0.000113
N446	N	-0.560910	1.117610	0.333446
N447	N	-0.227576	1.450943	0.666779
H448	H	-0.861923	0.816832	0.000120
H449	H	-0.528590	1.150165	0.333453
H450	H	-0.195256	1.483499	0.666787
H451	H	-0.918576	0.786842	-0.049037
H452	H	-0.585242	1.120176	0.284297
H453	H	-0.251909	1.453509	0.617630
N454	N	-0.770788	0.782800	0.000100
N455	N	-0.437455	1.116133	0.333434
N456	N	-0.104121	1.449467	0.666767
H457	H	-0.794133	0.816022	0.000108
H458	H	-0.460800	1.149355	0.333441
H459	H	-0.127467	1.482688	0.666774
H460	H	-0.745837	0.784763	0.049250
H461	H	-0.412504	1.118096	0.382583
H462	H	-0.079170	1.451430	0.715917
H463	H	-0.500183	0.817819	0.000086
H464	H	-0.166850	1.151153	0.333420
H465	H	0.166483	1.484486	0.666753
N466	N	-0.613911	0.832930	0.000092
N467	N	-0.280578	1.166264	0.333425
N468	N	0.052755	1.499597	0.666758
H469	H	-0.581589	0.865483	0.000092
H470	H	-0.248256	1.198816	0.333426
H471	H	0.085078	1.532150	0.666759
H472	H	-0.638244	0.835493	-0.049058
H473	H	-0.304911	1.168826	0.284275
H474	H	0.028423	1.502160	0.617608
