data_functionalizedCrystal
_audit_creation_method	'MofGen! by Chris Wilmer'
_symmetry_space_group_name_H-M	'P1'
_symmetry_Int_Tables_number	1
_symmetry_cell_setting	triclinic
loop_
_symmetry_equiv_pos_as_xyz
  x,y,z
_cell_length_a	14.628931
_cell_length_b	14.628931
_cell_length_c	14.628931
_cell_angle_alpha	120.000000
_cell_angle_beta	90.000000
_cell_angle_gamma	60.000000
loop_
_atom_site_label
_atom_site_type_symbol
_atom_site_fract_x
_atom_site_fract_y
_atom_site_fract_z
Zr1	Zr	0.880621	1.000576	0.119961
O2	O	0.734660	1.191281	0.265922
O3	O	0.925365	0.809870	0.075216
O4	O	0.925366	1.000575	0.265921
O5	O	0.734659	1.000577	-0.075215
O6	O	1.075798	1.000575	0.265921
O7	O	0.734660	1.000576	0.075216
O8	O	1.075797	0.659438	-0.075216
O9	O	0.734660	1.341713	0.265922
O10	O	1.056714	0.888310	0.056132
O11	O	0.944448	0.888310	-0.056133
O12	O	0.944449	1.112841	0.168398
O13	O	0.832183	1.112842	0.056133
Zr14	Zr	1.120542	1.000576	-0.119961
Zr15	Zr	1.120542	1.000575	0.119960
Zr16	Zr	0.880620	1.000576	-0.119960
Zr17	Zr	0.880621	1.240497	0.119961
Zr18	Zr	1.120542	0.760654	-0.119961
O19	O	1.075798	1.191281	-0.075216
O20	O	1.075798	1.191280	0.265921
O21	O	0.734660	1.191282	-0.075215
O22	O	1.266503	0.809870	-0.265922
O23	O	1.266503	0.809869	0.075215
O24	O	0.925365	0.809871	-0.265921
O25	O	1.266503	1.000575	0.075215
O26	O	1.075797	1.000576	-0.265921
O27	O	0.925365	1.000577	-0.265921
O28	O	1.266503	1.000575	-0.075216
O29	O	0.925366	1.341713	0.265922
O30	O	1.075797	0.659439	-0.265922
O31	O	1.266502	0.659438	-0.265922
O32	O	1.266503	0.659438	-0.075217
O33	O	0.734660	1.341714	0.075217
O34	O	0.925366	1.341713	0.075216
O35	O	1.056714	0.888310	-0.168398
O36	O	1.168980	0.888310	-0.056133
O37	O	1.056715	1.112841	0.056133
O38	O	0.944449	1.112842	-0.056132
C39	C	1.000581	0.700470	-0.000000
C40	C	1.000581	0.598617	-0.000001
C41	C	0.944891	0.447943	-0.055691
C42	C	0.944889	0.553214	-0.055692
C43	C	0.700476	1.000576	0.000000
C44	C	0.598623	1.000577	0.000001
C45	C	0.608905	0.889194	-0.055691
C46	C	0.503635	0.889192	-0.055692
C47	C	1.300687	1.000575	-0.000000
C48	C	1.402540	1.000574	-0.000001
C49	C	1.000582	1.000575	0.300105
C50	C	1.000582	1.000574	0.401958
C51	C	1.000582	1.300681	0.000000
C52	C	1.000582	1.402534	0.000001
C53	C	0.944891	1.111957	0.503058
C54	C	0.944890	1.111959	0.608330
C55	C	1.000581	1.000576	0.699895
C56	C	1.000581	1.000577	0.598042
C57	C	1.300687	0.700469	-0.000001
C58	C	1.402540	0.598616	-0.000001
C59	C	1.000581	0.700471	-0.300105
C60	C	1.000580	0.598619	-0.401958
C61	C	1.300686	0.700470	-0.300106
C62	C	1.402539	0.598617	-0.401959
C63	C	0.700477	1.300681	0.300106
C64	C	0.598624	1.402534	0.401959
C65	C	0.700476	1.300682	0.000001
C66	C	0.598623	1.402535	0.000001
C67	C	1.000582	1.300680	0.300105
C68	C	1.000583	1.402533	0.401958
C69	C	1.392257	0.553207	0.055690
C70	C	1.497527	0.447936	0.055691
C71	C	1.056271	0.553209	-0.503059
C72	C	1.056272	0.447939	-0.608330
C73	C	1.503640	0.553208	-0.391677
C74	C	1.608911	0.447937	-0.496946
H75	H	0.897205	0.592270	-0.103366
H76	H	0.897218	1.207314	0.511679
F77	F	1.609914	0.453559	-0.062332
F78	F	0.391248	1.125225	0.062332
F79	F	1.515908	0.547576	-0.062316
H80	H	1.048266	0.441586	0.047674
H81	H	0.511886	1.095934	0.047677
F82	F	0.882584	0.396881	-0.118028
F83	F	1.118586	0.604264	-0.514333
F84	F	0.722273	0.764551	-0.118033
H85	H	0.897204	1.207318	0.695060
H86	H	1.512263	0.592268	-0.304942
H87	H	1.103953	0.408887	-0.695061
F88	F	1.062899	0.875926	0.484684
F89	F	0.938252	0.547578	-0.390684
H90	H	1.048258	0.559578	0.047686
F91	F	0.938263	0.453562	-0.484685
H92	H	1.511897	0.441572	-0.606678
H93	H	1.488898	0.408881	0.103366
F94	F	1.722273	0.396892	-0.485662
H95	H	1.393919	0.559564	-0.488695
H96	H	0.512264	0.793833	-0.103364
H97	H	1.048264	0.905218	0.393337
H98	H	1.305521	0.592270	0.103373
