data_functionalizedCrystal
_audit_creation_method	'MofGen! by Chris Wilmer'
_symmetry_space_group_name_H-M	'P1'
_symmetry_Int_Tables_number	1
_symmetry_cell_setting	triclinic
loop_
_symmetry_equiv_pos_as_xyz
  x,y,z
_cell_length_a	16.959455
_cell_length_b	16.959454
_cell_length_c	18.215399
_cell_angle_alpha	89.976304
_cell_angle_beta	89.981437
_cell_angle_gamma	90.017022
loop_
_atom_site_label
_atom_site_type_symbol
_atom_site_fract_x
_atom_site_fract_y
_atom_site_fract_z
Zn1	Zn	1.208417	-0.314754	-0.416113
Zn2	Zn	1.708417	0.185246	0.083887
Zn3	Zn	1.208330	-0.446939	-0.293056
Zn4	Zn	1.708330	0.053061	0.206944
Zn5	Zn	1.076236	-0.314772	-0.293063
Zn6	Zn	1.576236	0.185228	0.206937
Zn7	Zn	1.076210	-0.446887	-0.416083
Zn8	Zn	1.576210	0.053113	0.083917
O9	O	1.142298	-0.380838	-0.354579
O10	O	1.642298	0.119162	0.145421
O11	O	1.319016	-0.332303	-0.399798
O12	O	1.819016	0.167697	0.100202
O13	O	1.190781	-0.429436	-0.190072
O14	O	1.690781	0.070564	0.309928
O15	O	1.093817	-0.204159	-0.309401
O16	O	1.593817	0.295841	0.190599
O17	O	1.318952	-0.429419	-0.309389
O18	O	1.818952	0.070581	0.190611
O19	O	1.190930	-0.204146	-0.399805
O20	O	1.690930	0.295854	0.100195
O21	O	1.093732	-0.332333	-0.190077
O22	O	1.593732	0.167667	0.309923
O23	O	0.965621	-0.332283	-0.309372
O24	O	1.465621	0.167717	0.190628
O25	O	1.093773	-0.429330	-0.519071
O26	O	1.593773	0.070670	-0.019071
O27	O	0.965602	-0.429348	-0.399755
O28	O	1.465602	0.070652	0.100245
O29	O	1.190905	-0.332253	-0.519093
O30	O	1.690905	0.167747	-0.019093
O31	O	1.190756	-0.557543	-0.309360
O32	O	1.690756	-0.057543	0.190640
O33	O	1.093689	-0.557505	-0.399748
O34	O	1.593689	-0.057505	0.100252
C35	C	0.936932	-0.380812	-0.354562
C36	C	1.436932	0.119188	0.145438
C37	C	0.849075	-0.380820	-0.354572
C38	C	1.349075	0.119180	0.145428
C39	C	1.142232	-0.586204	-0.354566
C40	C	1.642232	-0.086204	0.145434
C41	C	1.142276	-0.674061	-0.354585
C42	C	1.642276	-0.174061	0.145415
C43	C	0.477585	-0.330255	-0.307615
C44	C	0.977585	0.169745	0.192385
C45	C	0.477614	-0.431486	-0.401585
C46	C	0.977614	0.068514	0.098415
C47	C	0.560160	-0.431475	-0.401580
C48	C	1.060160	0.068525	0.098420
C49	C	0.601422	-0.380854	-0.354591
C50	C	1.101422	0.119146	0.145409
C51	C	0.560138	-0.330244	-0.307607
C52	C	1.060138	0.169756	0.192393
C53	C	0.601450	-0.482089	-0.448558
C54	C	1.101450	0.017911	0.051442
C55	C	0.684001	-0.482081	-0.448555
C56	C	1.184001	0.017919	0.051445
C57	C	0.725265	-0.431455	-0.401569
C58	C	1.225265	0.068545	0.098431
C59	C	0.683976	-0.380843	-0.354584
C60	C	1.183976	0.119157	0.145416
C61	C	0.725238	-0.330221	-0.307595
C62	C	1.225238	0.169779	0.192405
C63	C	0.683950	-0.279604	-0.260613
C64	C	1.183950	0.220396	0.239387
C65	C	0.601402	-0.279618	-0.260622
C66	C	1.101402	0.220382	0.239378
C67	C	0.807813	-0.431441	-0.401561
C68	C	1.307813	0.068559	0.098439
C69	C	0.807791	-0.330210	-0.307588
C70	C	1.307791	0.169790	0.192412
C71	C	1.091828	-1.045547	-0.401638
C72	C	1.591828	-0.545547	0.098362
C73	C	1.192988	-1.045527	-0.307594
C74	C	1.692988	-0.545527	0.192406
C75	C	1.192960	-0.962981	-0.307587
C76	C	1.692960	-0.462981	0.192413
C77	C	1.142365	-0.921714	-0.354606
C78	C	1.642365	-0.421714	0.145394
C79	C	1.091797	-0.962993	-0.401632
C80	C	1.591797	-0.462993	0.098368
C81	C	1.243521	-0.921695	-0.260557
C82	C	1.743521	-0.421695	0.239443
C83	C	1.243495	-0.839144	-0.260547
C84	C	1.743495	-0.339144	0.239453
C85	C	1.192903	-0.797876	-0.307571
C86	C	1.692903	-0.297876	0.192429
C87	C	1.142334	-0.839160	-0.354599
C88	C	1.642334	-0.339160	0.145401
C89	C	1.091739	-0.797894	-0.401618
C90	C	1.591739	-0.297894	0.098382
C91	C	1.041173	-0.839176	-0.448650
C92	C	1.541173	-0.339176	0.051350
C93	C	1.041205	-0.921725	-0.448655
C94	C	1.541205	-0.421725	0.051345
C95	C	1.192871	-0.715328	-0.307566
C96	C	1.692871	-0.215328	0.192434
C97	C	1.091708	-0.715340	-0.401611
C98	C	1.591708	-0.215340	0.098389
C99	C	1.348466	-0.380865	-0.354596
C100	C	1.848466	0.119135	0.145404
C101	C	1.436323	-0.380876	-0.354603
C102	C	1.936323	0.119124	0.145397
C103	C	1.142346	-0.380784	-0.546532
C104	C	1.642346	0.119216	-0.046532
C105	C	1.142367	-0.380760	-0.628330
C106	C	1.642367	0.119240	-0.128330
C107	C	1.142386	-0.174670	-0.354607
C108	C	1.642386	0.325330	0.145393
C109	C	1.142423	-0.086813	-0.354619
C110	C	1.642423	0.413187	0.145381
C111	C	1.192961	-0.330165	-0.816537
C112	C	1.692961	0.169835	-0.316537
C113	C	1.192971	-0.330142	-0.893396
C114	C	1.692971	0.169858	-0.393396
C115	C	1.091828	-0.431234	-0.893362
C116	C	1.591828	0.068766	-0.393362
C117	C	1.091815	-0.431252	-0.816505
C118	C	1.591815	0.068748	-0.316505
C119	C	1.142386	-0.380719	-0.778094
C120	C	1.642386	0.119281	-0.278094
C121	C	1.142409	-0.380677	-0.931810
C122	C	1.642409	0.119323	-0.431810
C123	C	1.142418	-0.380653	-1.015144
C124	C	1.642418	0.119347	-0.515144
C125	C	1.142376	-0.380742	-0.694755
C126	C	1.642376	0.119258	-0.194755
C127	C	1.142295	-0.380835	-0.163372
C128	C	1.642295	0.119165	0.336628
C129	C	1.142428	-0.380636	-0.081574
C130	C	1.642428	0.119364	0.418426
H131	H	0.841381	-0.288983	-0.269328
H132	H	1.341381	0.211017	0.230672
H133	H	0.443965	-0.289042	-0.269365
H134	H	0.943965	0.210958	0.230635
Br135	Br	1.312186	-0.977703	-0.196752
Br136	Br	1.812186	-0.477703	0.303248
H137	H	0.999974	-0.805568	-0.486930
H138	H	1.499974	-0.305568	0.013070
Br139	Br	1.261617	-0.261535	-0.945566
Br140	Br	1.761617	0.238465	-0.445566
Br141	Br	1.023046	-0.659342	-0.465432
Br142	Br	1.523046	-0.159342	0.034568
Br143	Br	0.421616	-0.500203	-0.465333
Br144	Br	0.921616	-0.000203	0.034667
Br145	Br	1.023212	-1.101569	-0.465471
Br146	Br	1.523212	-0.601569	0.034529
H147	H	1.050625	-0.472419	-0.785203
H148	H	1.550625	0.027581	-0.285203
H149	H	1.234037	-0.681719	-0.269270
H150	H	1.734037	-0.181719	0.230730
Br151	Br	1.312124	-0.783125	-0.196725
Br152	Br	1.812124	-0.283125	0.303275
Br153	Br	0.545449	-0.550815	-0.512297
Br154	Br	1.045449	-0.050815	-0.012297
Br155	Br	0.739959	-0.210914	-0.196838
Br156	Br	1.239959	0.289086	0.303162
Br157	Br	0.740027	-0.550773	-0.512316
Br158	Br	1.240027	-0.050773	-0.012316
Br159	Br	1.261592	-0.261583	-0.764410
Br160	Br	1.761592	0.238417	-0.264410
Br161	Br	1.261649	-1.101531	-0.243784
Br162	Br	1.761649	-0.601531	0.256216
H163	H	1.050656	-0.472378	-0.924645
H164	H	1.550656	0.027622	-0.424645
H165	H	0.567779	-0.238409	-0.222370
H166	H	1.067779	0.261591	0.277630
H167	H	0.841425	-0.472655	-0.439811
H168	H	1.341425	0.027345	0.060189
H169	H	1.000037	-0.955345	-0.486945
H170	H	1.500037	-0.455345	0.013055
