data_functionalizedCrystal
_audit_creation_method	'MofGen! by Chris Wilmer'
_symmetry_space_group_name_H-M	'P1'
_symmetry_Int_Tables_number	1
_symmetry_cell_setting	triclinic
loop_
_symmetry_equiv_pos_as_xyz
  x,y,z
_cell_length_a	10.489741
_cell_length_b	10.489741
_cell_length_c	9.616153
_cell_angle_alpha	89.998052
_cell_angle_beta	89.995808
_cell_angle_gamma	84.539174
loop_
_atom_site_label
_atom_site_type_symbol
_atom_site_fract_x
_atom_site_fract_y
_atom_site_fract_z
O1	O	1.694059	0.179963	-0.115559
O2	O	1.322863	0.196856	-0.115580
O3	O	1.516907	0.002811	-0.115561
O4	O	1.500014	0.374007	-0.115578
O5	O	1.516880	0.002815	0.115731
O6	O	1.322836	0.196860	0.115711
O7	O	1.694032	0.179967	0.115733
Zn8	Zn	1.508430	0.188414	0.152444
Zn9	Zn	1.508465	0.188409	-0.152292
O10	O	1.499988	0.374011	0.115713
C11	C	1.275318	0.195582	0.000063
C12	C	1.133688	0.191765	0.000055
C13	C	1.065548	0.068300	0.000073
C14	C	0.973435	0.126621	-0.113965
C15	C	0.973442	0.126655	0.114070
C16	C	1.043440	0.250137	-0.114078
C17	C	1.043457	0.250153	0.114059
C18	C	0.951371	0.308564	-0.000007
C19	C	1.515618	-0.044718	0.000084
C20	C	1.511801	-0.186348	0.000081
C21	C	1.388336	-0.254488	0.000064
C22	C	1.446646	-0.346608	0.114106
C23	C	1.446702	-0.346587	-0.113929
C24	C	1.570162	-0.276603	0.114217
C25	C	1.570200	-0.276572	-0.113920
C26	C	1.628600	-0.368665	0.000150
C27	C	1.741577	0.181241	0.000087
C28	C	1.883206	0.185058	0.000085
C29	C	1.501277	0.421541	0.000065
C30	C	1.505094	0.563170	0.000059
N31	N	1.508415	0.188417	0.360419
N32	N	1.508490	0.188396	-0.360267
C33	C	1.404297	0.291869	0.580778
C34	C	1.404526	0.292257	0.419611
C35	C	1.641783	0.218712	0.418874
C36	C	1.641216	0.219444	0.580092
C37	C	1.480493	0.054330	0.580335
C38	C	1.477431	0.055199	0.419108
H39	H	0.942432	0.074379	-0.210373
H40	H	1.730204	-0.418089	0.000219
H41	H	1.622408	-0.245529	-0.210334
H42	H	1.622346	-0.245769	0.210739
H43	H	1.422524	0.391721	0.381028
H44	H	1.074279	0.302335	-0.210598
H45	H	1.074492	0.302353	0.210472
H46	H	0.901947	0.410168	-0.000074
H47	H	1.721235	0.147116	0.619088
O48	O	1.384206	-0.383375	-0.228913
C49	C	1.257562	-0.324710	-0.228463
H50	H	1.252264	-0.234560	-0.161698
H51	H	1.227244	-0.298096	-0.339369
H52	H	1.190772	-0.394033	-0.183960
O53	O	0.936641	0.064145	0.229050
C54	C	0.995302	-0.062500	0.228595
H55	H	1.085461	-0.067791	0.161834
H56	H	1.021901	-0.092835	0.339500
H57	H	0.925983	-0.129282	0.184084
H58	H	1.305431	0.274026	0.380091
O59	O	1.267153	-0.195452	0.000250
C60	C	1.178626	-0.288511	0.001531
H61	H	1.226436	-0.381894	0.045895
H62	H	1.092890	-0.253515	0.068838
H63	H	1.144968	-0.305372	-0.109102
O64	O	1.384112	-0.383528	0.229017
C65	C	1.257483	-0.324824	0.228628
H66	H	1.228145	-0.297386	0.117651
H67	H	1.190297	-0.394452	0.271701
H68	H	1.251612	-0.235168	0.296215
H69	H	1.304892	0.273918	0.619585
O70	O	1.671872	0.334032	0.370777
C71	C	1.791899	0.359797	0.424291
H72	H	1.849096	0.265981	0.454342
H73	H	1.846523	0.410607	0.341804
H74	H	1.777137	0.423635	0.519998
H75	H	1.422061	0.390770	0.621273
O76	O	1.670643	0.336034	0.625005
C77	C	1.782722	0.320853	0.706613
H78	H	1.840438	0.226838	0.678306
H79	H	1.842804	0.403919	0.686158
H80	H	1.755557	0.319528	0.821362
H81	H	1.721211	0.145405	0.380530
H82	H	1.385295	0.025501	0.621068
H83	H	1.379318	0.032236	0.380903
H84	H	1.556461	-0.022686	0.618458
O85	O	1.124946	-0.052733	-0.000234
C86	C	1.202875	-0.070470	-0.119446
H87	H	1.228378	0.026482	-0.158629
H88	H	1.294320	-0.132955	-0.092029
H89	H	1.148946	-0.119281	-0.204077
O90	O	1.562107	-0.040924	0.370980
C91	C	1.651603	0.010409	0.282704
H92	H	1.656612	0.115878	0.308540
H93	H	1.749942	-0.043920	0.298337
H94	H	1.620625	0.000779	0.169856
