data_functionalizedCrystal
_audit_creation_method	'MofGen! by Chris Wilmer'
_symmetry_space_group_name_H-M	'P1'
_symmetry_Int_Tables_number	1
_symmetry_cell_setting	triclinic
loop_
_symmetry_equiv_pos_as_xyz
  x,y,z
_cell_length_a	27.732048
_cell_length_b	10.723024
_cell_length_c	9.798715
_cell_angle_alpha	90.001978
_cell_angle_beta	90.001825
_cell_angle_gamma	96.444738
loop_
_atom_site_label
_atom_site_type_symbol
_atom_site_fract_x
_atom_site_fract_y
_atom_site_fract_z
O1	O	0.641849	-0.148462	-0.113312
O2	O	0.501195	-0.171036	-0.113353
O3	O	0.574766	0.021961	-0.113327
O4	O	0.568278	-0.341460	-0.113339
O5	O	0.574761	0.021962	0.113656
O6	O	0.501190	-0.171036	0.113629
O7	O	0.641843	-0.148462	0.113670
Zn8	Zn	0.571516	-0.159749	0.149688
Zn9	Zn	0.571523	-0.159749	-0.149371
O10	O	0.568272	-0.341459	0.113644
C11	C	0.483183	-0.170562	0.000133
C12	C	0.429519	-0.169135	0.000117
C13	C	0.091356	-0.274201	0.000173
C14	C	-0.110336	-0.268907	0.000185
O15	O	-0.140995	-0.364983	0.000241
N16	N	-0.130171	-0.154468	0.000187
C17	C	-0.099578	-0.041344	0.000194
O18	O	-0.121077	0.056116	0.000209
C19	C	0.102113	-0.046639	0.000191
C20	C	0.121945	-0.161086	0.000176
C21	C	0.111188	-0.388639	0.000159
C22	C	0.161608	-0.389961	0.000149
C23	C	0.192197	-0.276846	0.000152
C24	C	0.172365	-0.162408	0.000166
C25	C	0.132704	0.066484	0.000208
C26	C	0.183130	0.065150	0.000211
C27	C	0.202961	-0.049297	0.000196
C28	C	0.253373	-0.050615	0.000158
N29	N	0.273207	-0.165055	0.000157
C30	C	0.242619	-0.278170	0.000154
C31	C	-0.205470	-0.038571	0.000193
C32	C	-0.255892	-0.037247	0.000191
C33	C	-0.266647	-0.264811	0.000185
C34	C	-0.216223	-0.266134	0.000177
C35	C	-0.185635	-0.153011	0.000191
C36	C	0.348506	-0.280938	0.000130
C37	C	0.398931	-0.282251	0.000114
C38	C	0.409681	-0.054687	0.000127
C39	C	0.359260	-0.053374	0.000136
C40	C	0.328673	-0.166510	0.000143
O41	O	0.284061	0.045409	0.000118
O42	O	0.264127	-0.375615	0.000169
C43	C	0.040936	-0.272879	0.000184
C44	C	0.021104	-0.158441	0.000197
C45	C	0.051692	-0.045326	0.000200
C46	C	-0.029318	-0.157117	0.000195
C47	C	-0.059907	-0.270232	0.000192
C48	C	-0.040072	-0.384672	0.000191
C49	C	0.010348	-0.385994	0.000180
C50	C	0.031858	0.069114	0.000202
C51	C	-0.018563	0.070427	0.000211
C52	C	-0.049151	-0.042689	0.000208
C53	C	0.574291	0.068442	0.000163
C54	C	0.572879	0.206937	0.000158
C55	C	0.659856	-0.148936	0.000181
C56	C	0.713519	-0.150363	0.000188
C57	C	0.568747	-0.387939	0.000151
C58	C	0.570160	-0.526435	0.000147
N59	N	0.571514	-0.159748	0.353788
C60	C	0.614045	0.283624	0.000168
C61	C	0.612586	0.426767	0.000162
N62	N	0.571528	-0.159740	-0.353471
C63	C	0.602405	-0.078362	0.421576
C64	C	0.602412	-0.078357	0.578738
H65	H	0.086288	-0.480756	0.000162
Br66	Br	0.224639	0.218684	0.000238
H67	H	0.534916	0.407681	0.000148
Br68	Br	0.105804	0.221815	0.000199
H69	H	0.647828	0.492658	0.000177
H70	H	0.536554	0.247256	0.000138
Br71	Br	-0.045470	0.225763	0.000208
H72	H	0.628844	-0.008682	0.363262
H73	H	0.323607	-0.373065	0.000140
Br74	Br	0.037254	-0.541324	0.000157
H75	H	0.628861	-0.008684	0.637033
Br76	Br	-0.081595	-0.538184	0.000176
H77	H	0.056759	0.161228	0.000208
H78	H	0.434595	0.037408	0.000125
H79	H	0.545071	-0.229418	0.412103
H80	H	0.545082	-0.229426	0.588243
H81	H	0.177750	-0.483156	0.000136
Br82	Br	0.425841	-0.437582	0.000085
Br83	Br	-0.308169	-0.418324	0.000182
Br84	Br	-0.189315	-0.421460	0.000157
H85	H	-0.180569	0.053553	0.000204
Br86	Br	0.332345	0.101947	0.000161
Br87	Br	-0.282800	0.118080	0.000170
H88	H	0.650369	0.243305	0.000186
