data_functionalizedCrystal
_audit_creation_method	'MofGen! by Chris Wilmer'
_symmetry_space_group_name_H-M	'P1'
_symmetry_Int_Tables_number	1
_symmetry_cell_setting	triclinic
loop_
_symmetry_equiv_pos_as_xyz
  x,y,z
_cell_length_a	12.759399
_cell_length_b	16.120566
_cell_length_c	12.759393
_cell_angle_alpha	92.923099
_cell_angle_beta	89.969094
_cell_angle_gamma	92.888633
loop_
_atom_site_label
_atom_site_type_symbol
_atom_site_fract_x
_atom_site_fract_y
_atom_site_fract_z
Zn1	Zn	-0.499751	-1.274633	-0.675510
Zn2	Zn	-0.675461	-1.274546	-0.499823
Zn3	Zn	-0.490884	-1.135207	-0.490931
Zn4	Zn	-0.666470	-1.135200	-0.666551
O5	O	-0.583141	-1.204896	-0.583204
O6	O	-0.530534	-1.391288	-0.659675
O7	O	-0.651029	-1.256029	-0.351620
O8	O	-0.345042	-1.153742	-0.515443
O9	O	-0.659627	-1.391224	-0.530599
O10	O	-0.351557	-1.256178	-0.651053
O11	O	-0.515420	-1.153657	-0.345087
O12	O	-0.506701	-1.018539	-0.506757
O13	O	-0.644302	-1.153729	-0.814763
O14	O	-0.635703	-1.018534	-0.635784
O15	O	-0.521815	-1.256170	-0.821345
O16	O	-0.821287	-1.256021	-0.521912
O17	O	-0.814681	-1.153644	-0.644407
C18	C	-0.569265	-0.988286	-0.569334
C19	C	-0.563354	-0.895619	-0.563425
C20	C	-0.856106	-1.204845	-0.583177
C21	C	-0.972886	-1.204900	-0.583205
C22	C	-1.031156	-1.258268	-0.519502
C23	C	-1.140884	-1.258322	-0.519541
C24	C	-1.134060	-1.151631	-0.646987
C25	C	-1.024335	-1.151582	-0.646953
C26	C	-0.552538	-0.725956	-0.552647
C27	C	-0.613836	-0.684677	-0.613769
C28	C	-0.607817	-0.590271	-0.607772
C29	C	-0.558555	-0.820371	-0.558643
C30	C	-0.309113	-1.204970	-0.583255
C31	C	-0.192338	-1.205002	-0.583277
C32	C	-0.583045	-1.204959	-0.857241
C33	C	-0.583003	-1.204985	-0.974020
C34	C	-0.597076	-0.422352	-0.597111
C35	C	-0.603022	-0.515019	-0.602994
C36	C	-0.519214	-1.258330	-1.032311
C37	C	-0.519169	-1.258344	-1.142036
C38	C	-0.646713	-1.151666	-1.135169
C39	C	-0.646751	-1.151648	-1.025446
C40	C	-0.583165	-1.204882	-0.310235
C41	C	-0.582921	-1.205017	-0.193468
H42	H	-0.989270	-1.301683	-0.467596
C43	C	-0.476441	-0.678695	-0.476832
C44	C	-0.421050	-0.735330	-0.421628
C45	C	-0.350937	-0.691814	-0.351787
H46	H	-0.514345	-0.644696	-0.428783
H47	H	-0.428534	-0.644766	-0.514961
H48	H	-0.468951	-0.769245	-0.383502
H49	H	-0.383125	-0.769331	-0.469650
H50	H	-0.303030	-0.657885	-0.389915
H51	H	-0.388849	-0.657816	-0.303744
H52	H	-0.313339	-0.730234	-0.314329
C53	C	-1.203962	-1.316295	-0.450261
C54	C	-1.135414	-1.362959	-0.394411
C55	C	-1.193483	-1.416368	-0.330568
H56	H	-1.249024	-1.352700	-0.492711
H57	H	-1.244778	-1.284458	-0.402371
H58	H	-1.094616	-1.394794	-0.442295
H59	H	-1.090351	-1.326576	-0.351941
H60	H	-1.234299	-1.384531	-0.282678
H61	H	-1.238543	-1.452768	-0.373026
H62	H	-1.146982	-1.448031	-0.292659
C63	C	-1.190112	-1.093771	-0.716075
C64	C	-1.298677	-1.105217	-0.702449
C65	C	-1.350342	-1.051920	-0.766064
H66	H	-1.172964	-1.105881	-0.787493
H67	H	-1.168674	-1.037735	-0.697038
H68	H	-1.320106	-1.161240	-0.721494
H69	H	-1.315856	-1.093101	-0.631046
H70	H	-1.328904	-0.995884	-0.747026
H71	H	-1.333186	-1.064034	-0.837477
H72	H	-1.424007	-1.059673	-0.756820
H73	H	-0.670833	-0.720239	-0.670602
C74	C	-0.961244	-1.093544	-0.716155
C75	C	-1.029782	-1.046842	-0.771964
C76	C	-0.971701	-0.993367	-0.835712
H77	H	-0.920400	-1.125309	-0.764076
H78	H	-0.916206	-1.057172	-0.673611
H79	H	-1.074801	-1.083209	-0.814505
H80	H	-1.070627	-1.015060	-0.724069
H81	H	-0.926663	-0.956994	-0.793167
H82	H	-0.930859	-1.025138	-0.883626
H83	H	-1.018194	-0.961667	-0.873578
H84	H	-0.467303	-1.301758	-0.990443
C85	C	-0.449942	-1.316169	-1.205507
C86	C	-0.463522	-1.304753	-1.312604
C87	C	-0.399749	-1.357998	-1.371104
H88	H	-0.468847	-1.372214	-1.191249
H89	H	-0.378555	-1.303974	-1.186809
H90	H	-0.534893	-1.316954	-1.331295
H91	H	-0.444610	-1.248720	-1.326894
H92	H	-0.328363	-1.345803	-1.352406
H93	H	-0.418660	-1.414039	-1.356837
H94	H	-0.408948	-1.350254	-1.443775
H95	H	-0.698617	-1.108243	-1.177053
C96	C	-0.716197	-1.093832	-0.962211
C97	C	-0.821303	-1.111974	-0.990019
C98	C	-0.885300	-1.058739	-0.931779
H99	H	-0.697363	-1.037792	-0.976554
H100	H	-0.707156	-1.101467	-0.889489
H101	H	-0.830338	-1.104331	-1.062724
H102	H	-0.840168	-1.168004	-0.975673
H103	H	-0.876260	-1.066374	-0.859057
H104	H	-0.866457	-1.002702	-0.946126
H105	H	-0.956622	-1.071046	-0.950631
