data_functionalizedCrystal
_audit_creation_method	'MofGen! by Chris Wilmer'
_symmetry_space_group_name_H-M	'P1'
_symmetry_Int_Tables_number	1
_symmetry_cell_setting	triclinic
loop_
_symmetry_equiv_pos_as_xyz
  x,y,z
_cell_length_a	23.532407
_cell_length_b	8.559649
_cell_length_c	7.088929
_cell_angle_alpha	95.344185
_cell_angle_beta	96.161953
_cell_angle_gamma	103.686329
loop_
_atom_site_label
_atom_site_type_symbol
_atom_site_fract_x
_atom_site_fract_y
_atom_site_fract_z
O1	O	0.740588	-0.210640	-0.159084
O2	O	0.573554	-0.238722	-0.159063
O3	O	0.671787	0.008155	-0.159074
O4	O	0.642355	-0.457516	-0.159074
O5	O	0.684918	0.041221	0.158900
O6	O	0.586685	-0.205655	0.158910
O7	O	0.753719	-0.177573	0.158889
Cu8	Cu	0.671401	-0.188595	0.187933
Cu9	Cu	0.655872	-0.227700	-0.188107
O10	O	0.655486	-0.424450	0.158900
C11	C	0.680583	0.084253	-0.000091
C12	C	0.687221	0.261737	-0.000102
C13	C	0.558933	-0.221473	-0.000074
C14	C	0.495806	-0.219322	-0.000066
C15	C	0.768340	-0.194822	-0.000104
C16	C	0.831466	-0.196974	-0.000125
C17	C	1.236105	-0.064357	-0.000058
C18	C	1.295422	-0.066354	-0.000050
O19	O	1.337298	0.056585	0.000019
N20	N	1.311924	-0.213123	-0.000055
C21	C	1.269106	-0.357903	-0.000050
O22	O	1.288590	-0.482925	-0.000052
C23	C	1.209791	-0.355903	-0.000045
C24	C	1.193292	-0.209127	-0.000059
C25	C	1.219604	0.082408	-0.000070
C26	C	1.160291	0.084404	-0.000082
C27	C	1.117478	-0.060366	-0.000082
C28	C	1.133978	-0.207131	-0.000071
C29	C	1.166975	-0.500681	-0.000026
C30	C	1.107657	-0.498668	-0.000019
C31	C	1.091157	-0.351891	-0.000033
C32	C	1.031852	-0.349905	-0.000083
N33	N	1.015350	-0.203136	-0.000078
C34	C	1.058163	-0.058366	-0.000077
C35	C	1.393674	-0.362091	-0.000058
C36	C	1.452988	-0.364094	-0.000077
C37	C	1.479299	-0.072543	-0.000073
C38	C	1.419984	-0.070544	-0.000067
C39	C	1.377172	-0.215322	-0.000052
C40	C	0.933599	-0.054187	-0.000104
C41	C	0.874279	-0.052205	-0.000124
C42	C	0.847973	-0.343754	-0.000118
C43	C	0.907288	-0.345737	-0.000108
C44	C	0.950101	-0.200940	-0.000095
O45	O	0.989944	-0.472778	-0.000144
O46	O	1.038671	0.066638	-0.000050
C47	C	0.646690	-0.500548	-0.000087
C48	C	0.640051	-0.678034	-0.000089
N49	N	0.682328	-0.161089	0.452420
N50	N	0.644951	-0.255193	-0.452594
H51	H	0.860850	0.067323	-0.000140
H52	H	1.072801	-0.616566	0.000002
H53	H	0.920721	-0.465255	-0.000099
C54	C	0.787610	-0.059011	0.514346
C55	C	0.734627	-0.029435	0.562630
H56	H	0.819896	0.022263	0.582394
H57	H	0.788349	-0.057123	0.380866
H58	H	0.790523	-0.162223	0.547064
H59	H	0.731713	0.073772	0.529899
H60	H	0.733888	-0.031307	0.696140
C61	C	0.953631	0.234197	-0.000142
C62	C	0.980652	0.104973	-0.000116
H63	H	0.982679	0.332449	-0.000173
H64	H	0.934529	0.240445	0.110738
H65	H	0.925366	0.217343	-0.111032
H66	H	1.008915	0.121820	0.110782
H67	H	0.999764	0.098726	-0.111007
C68	C	1.513258	0.158358	-0.163515
C69	C	1.526368	0.086596	-0.000058
H70	H	1.542320	0.256592	-0.163508
H71	H	1.475578	0.180566	-0.163504
H72	H	1.512996	0.086590	-0.274388
H73	H	1.526626	0.158360	0.110816
H74	H	1.564059	0.064395	-0.000052
C75	C	1.157729	0.316547	-0.163514
C76	C	1.142165	0.245755	-0.000068
H77	H	1.146546	0.416170	-0.163488
H78	H	1.138016	0.245468	-0.274383
H79	H	1.199182	0.336038	-0.163496
H80	H	1.100711	0.226253	-0.000093
H81	H	1.161876	0.316849	0.110830
H82	H	0.606214	-0.352712	0.465764
H83	H	1.254459	0.200305	-0.000063
H84	H	1.406555	0.048975	-0.000077
H85	H	1.466414	-0.483617	-0.000092
H86	H	1.358817	-0.479996	-0.000059
H87	H	0.594587	0.237749	-0.000077
C88	C	0.759245	-0.527624	-0.163558
C89	C	0.800904	-0.502875	-0.000108
H90	H	0.730184	-0.625853	-0.163530
H91	H	0.778351	-0.533906	-0.274424
H92	H	0.740938	-0.439906	-0.163549
H93	H	0.819214	-0.590588	-0.000124
H94	H	0.781795	-0.496606	0.110787
H95	H	1.180397	-0.620203	-0.000023
H96	H	0.732689	0.345966	-0.000093
