data_functionalizedCrystal
_audit_creation_method	'MofGen! by Chris Wilmer'
_symmetry_space_group_name_H-M	'P1'
_symmetry_Int_Tables_number	1
_symmetry_cell_setting	triclinic
loop_
_symmetry_equiv_pos_as_xyz
  x,y,z
_cell_length_a	12.811457
_cell_length_b	17.038272
_cell_length_c	11.892095
_cell_angle_alpha	94.170821
_cell_angle_beta	91.498327
_cell_angle_gamma	87.561665
loop_
_atom_site_label
_atom_site_type_symbol
_atom_site_fract_x
_atom_site_fract_y
_atom_site_fract_z
O1	O	1.398771	0.107947	0.049392
O2	O	1.096281	0.117761	0.018379
O3	O	1.245727	-0.000977	0.033710
O4	O	1.249324	0.226685	0.034061
O5	O	1.233265	0.008908	0.220439
O6	O	1.083819	0.127646	0.205109
O7	O	1.386309	0.117832	0.236121
Zn8	Zn	1.233085	0.124308	0.250262
Zn9	Zn	1.249504	0.111284	0.004239
O10	O	1.236862	0.236570	0.220790
C11	C	1.051155	0.121850	0.107756
C12	C	0.935259	0.119300	0.095875
C13	C	0.703890	0.125270	0.277142
C14	C	0.594995	0.122873	0.265984
C15	C	0.608572	0.112105	0.062400
C16	C	0.717467	0.114501	0.073559
C17	C	0.765122	0.121085	0.180933
C18	C	0.874018	0.123487	0.192090
C19	C	0.887594	0.112713	-0.011492
C20	C	0.778699	0.110317	-0.022650
C21	C	1.236226	-0.025192	0.126739
C22	C	1.226469	-0.112072	0.125739
C23	C	1.316048	-0.161389	0.134924
C24	C	1.306875	-0.243022	0.133973
C25	C	1.208122	-0.275335	0.123844
C26	C	1.118537	-0.226012	0.114655
C27	C	1.127711	-0.144381	0.115598
C28	C	1.175710	-0.521382	0.120506
C29	C	1.166542	-0.603019	0.119567
C30	C	1.354882	-0.620024	0.138882
C31	C	1.364047	-0.538390	0.139832
C32	C	1.274462	-0.489074	0.130636
C33	C	1.198743	-0.358776	0.122875
C34	C	1.283843	-0.405635	0.131597
C35	C	1.431435	0.113742	0.146742
C36	C	1.547332	0.116292	0.158616
C37	C	1.246364	0.260784	0.127759
C38	C	1.256121	0.347664	0.128752
N39	N	1.221887	0.133196	0.418167
N40	N	1.260710	0.102391	-0.163666
C41	C	1.338628	0.040500	0.666791
C42	C	1.330808	0.046719	0.784331
C43	C	1.198425	0.151846	0.770788
C44	C	1.206244	0.145628	0.653249
C45	C	1.276349	0.089954	0.601254
C46	C	1.284173	0.083740	0.483713
C47	C	1.151784	0.188864	0.470172
C48	C	1.143965	0.195082	0.587712
H49	H	0.912816	0.128853	0.279520
O50	O	1.391199	-0.001281	0.848158
C51	C	1.369288	0.016157	0.963054
H52	H	1.287908	0.045498	0.970895
H53	H	1.429571	0.057703	1.002800
C54	C	1.473803	-0.096588	1.014650
C55	C	1.373847	-0.060556	1.024280
H56	H	1.476620	-0.143907	1.052419
H57	H	1.488569	-0.108335	0.937243
H58	H	1.524028	-0.061959	1.047770
H59	H	1.323626	-0.095181	0.991148
H60	H	1.359073	-0.048817	1.101683
H61	H	1.427816	-0.660185	0.146366
H62	H	0.742690	0.130641	0.364570
O63	O	1.379722	-0.374165	0.141280
C64	C	1.397128	-0.332586	0.045682
H65	H	1.318894	-0.314687	0.005190
H66	H	1.444594	-0.371821	-0.017630
C67	C	1.553792	-0.280330	0.131208
C68	C	1.457703	-0.258341	0.081481
H69	H	1.591161	-0.234534	0.153288
H70	H	1.542068	-0.308345	0.195613
H71	H	1.593334	-0.313027	0.078439
H72	H	1.418158	-0.225653	0.134253
H73	H	1.469422	-0.230319	0.017085
H74	H	1.086884	0.240409	0.630059
H75	H	1.379820	-0.283173	0.141455
H76	H	1.141340	0.197169	0.813137
O77	O	1.070684	-0.634536	0.109782
C78	C	1.081803	-0.717161	0.110901
H79	H	1.159120	-0.733743	0.154427
H80	H	1.080721	-0.744666	0.020595
C81	C	0.896006	-0.727498	0.121858
C82	C	0.990965	-0.747863	0.175325
H83	H	0.839971	-0.746437	0.161593
H84	H	0.888514	-0.671832	0.121099
H85	H	0.895119	-0.750420	0.046605
H86	H	0.991856	-0.724933	0.250571
H87	H	0.998455	-0.803526	0.176098
H88	H	1.101076	0.229134	0.416799
O89	O	0.535665	0.126984	0.359557
C90	C	0.601084	0.133287	0.456715
H91	H	0.678576	0.158136	0.434610
H92	H	0.615956	0.072559	0.489750
C93	C	0.452599	0.158122	0.575230
C94	C	0.547773	0.188647	0.548083
H95	H	0.419714	0.192267	0.631592
H96	H	0.408524	0.153873	0.509774
H97	H	0.465006	0.107515	0.602752
H98	H	0.535364	0.239248	0.520548
H99	H	0.591845	0.192907	0.613537
H100	H	0.569753	0.106731	-0.025019
H101	H	1.118337	-0.385095	0.114631
H102	H	0.937461	0.109310	-0.089832
H103	H	1.396463	-0.135086	0.143179
H104	H	1.341258	0.038410	0.441381
O105	O	1.460059	-0.507135	0.149632
C106	C	1.537157	-0.568168	0.157569
H107	H	1.505378	-0.625734	0.118706
H108	H	1.559147	-0.574730	0.250023
C109	C	1.673633	-0.477509	0.141579
C110	C	1.634603	-0.548211	0.093837
H111	H	1.733744	-0.465198	0.102271
H112	H	1.621691	-0.436389	0.136236
H113	H	1.691949	-0.482986	0.218622
H114	H	1.616276	-0.542729	0.016800
H115	H	1.686544	-0.589329	0.099166
O116	O	1.088759	-0.473393	0.111739
C117	C	1.081960	-0.420561	0.208424
H118	H	1.162941	-0.414009	0.249191
H119	H	1.027433	-0.444240	0.271016
C120	C	0.939334	-0.347759	0.124346
C121	C	1.038798	-0.339707	0.174411
H122	H	0.912705	-0.297886	0.103368
H123	H	0.943911	-0.383355	0.059209
H124	H	0.893907	-0.367495	0.176514
H125	H	1.084226	-0.319982	0.122238
H126	H	1.034228	-0.304107	0.239539
O127	O	0.732340	0.104064	-0.126923
C128	C	0.663929	0.169966	-0.140044
H129	H	0.688836	0.221004	-0.079330
H130	H	0.580889	0.154306	-0.121017
C131	C	0.637137	0.131479	-0.336662
C132	C	0.667733	0.194167	-0.262099
H133	H	0.639479	0.146406	-0.411952
H134	H	0.683223	0.087078	-0.327822
H135	H	0.567939	0.118435	-0.320793
H136	H	0.736933	0.207204	-0.277959
H137	H	0.621658	0.238572	-0.270944
O138	O	1.022540	-0.257297	0.104957
C139	C	0.961046	-0.227074	0.196034
H140	H	0.992332	-0.168519	0.231706
H141	H	0.964412	-0.270614	0.264561
C142	C	0.808636	-0.286263	0.110951
C143	C	0.847057	-0.214340	0.154758
H144	H	0.738322	-0.278411	0.085493
H145	H	0.850066	-0.306627	0.049592
H146	H	0.811450	-0.322539	0.168064
H147	H	0.844255	-0.178069	0.097641
H148	H	0.805624	-0.193969	0.216107
O149	O	1.040739	-0.096449	0.106483
C150	C	1.046881	-0.053824	0.009756
H151	H	1.102067	-0.086827	-0.052640
H152	H	1.077676	0.006914	0.034928
C153	C	0.869667	-0.004192	0.031017
C154	C	0.937440	-0.044731	-0.045624
H155	H	0.802159	0.001421	-0.003143
H156	H	0.865529	-0.032907	0.096186
H157	H	0.895342	0.046418	0.051987
H158	H	0.911772	-0.095343	-0.066581
H159	H	0.941571	-0.016024	-0.110798
O160	O	1.406748	-0.013641	0.616455
C161	C	1.460067	-0.055940	0.699508
H162	H	1.411664	-0.052784	0.778915
H163	H	1.538948	-0.029163	0.720160
C164	C	1.536589	-0.146457	0.557538
C165	C	1.477135	-0.142586	0.655064
H166	H	1.547122	-0.199903	0.530123
H167	H	1.500670	-0.117957	0.501583
H168	H	1.602316	-0.124138	0.574762
H169	H	1.411404	-0.164896	0.637837
H170	H	1.513043	-0.171092	0.711016
