data_functionalizedCrystal
_audit_creation_method	'MofGen! by Chris Wilmer'
_symmetry_space_group_name_H-M	'P1'
_symmetry_Int_Tables_number	1
_symmetry_cell_setting	triclinic
loop_
_symmetry_equiv_pos_as_xyz
  x,y,z
_cell_length_a	6.394989
_cell_length_b	17.699083
_cell_length_c	16.776229
_cell_angle_alpha	89.999727
_cell_angle_beta	89.999615
_cell_angle_gamma	95.109637
loop_
_atom_site_label
_atom_site_type_symbol
_atom_site_fract_x
_atom_site_fract_y
_atom_site_fract_z
O1	O	-0.264122	1.006773	0.066171
O2	O	-0.298486	0.786745	0.066197
O3	O	0.022776	0.899882	0.066184
O4	O	-0.585384	0.893636	0.066184
O5	O	0.022777	0.899869	-0.066392
O6	O	-0.298485	0.786732	-0.066380
O7	O	-0.264121	1.006760	-0.066405
Zn8	Zn	-0.281303	0.896744	-0.087442
Zn9	Zn	-0.281304	0.896761	0.087233
O10	O	-0.585383	0.893623	-0.066393
C11	C	-0.297254	0.758529	-0.000088
C12	C	-0.293560	0.674473	-0.000078
N13	N	-0.281301	0.896737	-0.206653
C14	C	-0.482134	0.627777	-0.000079
C15	C	-0.478651	0.548798	-0.000089
C16	C	-0.286591	0.516517	-0.000093
C17	C	-0.098003	0.563220	-0.000095
C18	C	-0.101488	0.642197	-0.000091
C19	C	-0.083942	0.244713	-0.000115
C20	C	-0.080471	0.165730	-0.000117
C21	C	-0.461104	0.151314	-0.000113
C22	C	-0.464590	0.230291	-0.000109
C23	C	-0.276002	0.276987	-0.000115
C24	C	-0.279782	0.362625	-0.000105
C25	C	-0.282810	0.430881	-0.000097
C26	C	0.100592	0.898640	-0.000101
C27	C	0.336808	0.894866	-0.000100
C28	C	-0.265353	1.034976	-0.000119
C29	C	-0.269047	1.119031	-0.000123
C30	C	-0.407826	0.943843	-0.248373
C31	C	-0.407818	0.943852	-0.331825
C32	C	-0.281295	0.896749	-0.373556
C33	C	-0.154755	0.849641	-0.331831
C34	C	-0.154754	0.849637	-0.248380
C35	C	-0.154758	0.849657	-0.668378
C36	C	-0.154774	0.849662	-0.751835
C37	C	-0.407822	0.943871	-0.751823
C38	C	-0.407820	0.943867	-0.668372
C39	C	-0.281274	0.896762	-0.626654
C40	C	-0.281281	0.896755	-0.536166
C41	C	-0.281297	0.896752	-0.464043
N42	N	-0.281289	0.896773	0.206444
H43	H	-0.638531	0.654053	-0.000075
F44	F	-0.542501	0.994007	-0.796228
H45	H	0.075937	0.139450	-0.000122
H46	H	-0.510856	0.982220	-0.634398
F47	F	-0.020103	0.799528	-0.796247
H48	H	-0.051715	0.811301	-0.634422
H49	H	0.069618	0.282724	-0.000121
F50	F	-0.679358	0.499103	-0.000086
F51	F	-0.669005	0.264642	-0.000100
F52	F	-0.661818	0.101610	-0.000110
H53	H	-0.510868	0.982195	-0.214401
F54	F	-0.020094	0.799513	-0.376247
F55	F	-0.020071	0.799507	-0.203980
F56	F	0.106403	0.528862	-0.000105
F57	F	0.099218	0.691895	-0.000093
F58	F	-0.542486	0.993988	-0.376222
