data_functionalizedCrystal
_audit_creation_method	'MofGen! by Chris Wilmer'
_symmetry_space_group_name_H-M	'P1'
_symmetry_Int_Tables_number	1
_symmetry_cell_setting	triclinic
loop_
_symmetry_equiv_pos_as_xyz
  x,y,z
_cell_length_a	18.050589
_cell_length_b	18.050591
_cell_length_c	18.050582
_cell_angle_alpha	90.022741
_cell_angle_beta	90.018005
_cell_angle_gamma	90.028131
loop_
_atom_site_label
_atom_site_type_symbol
_atom_site_fract_x
_atom_site_fract_y
_atom_site_fract_z
Zn1	Zn	0.295837	-1.135259	-0.420091
Zn2	Zn	0.545837	-0.885259	-0.170091
Zn3	Zn	0.795837	-0.635259	0.079909
Zn4	Zn	1.045837	-0.385259	0.329909
Zn5	Zn	0.420020	-1.135156	-0.295911
Zn6	Zn	0.670020	-0.885156	-0.045911
Zn7	Zn	0.920020	-0.635156	0.204089
Zn8	Zn	1.170020	-0.385156	0.454089
Zn9	Zn	0.295834	-1.011078	-0.295898
Zn10	Zn	0.545834	-0.761078	-0.045898
Zn11	Zn	0.795834	-0.511078	0.204102
Zn12	Zn	1.045834	-0.261078	0.454102
Zn13	Zn	0.419975	-1.011012	-0.420042
Zn14	Zn	0.669975	-0.761012	-0.170042
Zn15	Zn	0.919975	-0.511012	0.079958
Zn16	Zn	1.169975	-0.261012	0.329958
O17	O	0.357917	-1.073126	-0.357986
O18	O	0.607917	-0.823126	-0.107986
O19	O	0.857917	-0.573126	0.142014
O20	O	1.107917	-0.323126	0.392014
O21	O	0.312330	-1.239170	-0.403644
O22	O	0.562330	-0.989170	-0.153644
O23	O	0.812330	-0.739170	0.096356
O24	O	1.062330	-0.489170	0.346356
O25	O	0.403564	-1.118681	-0.191985
O26	O	0.653564	-0.868681	0.058015
O27	O	0.903564	-0.618681	0.308015
O28	O	1.153564	-0.368681	0.558015
O29	O	0.191910	-1.027622	-0.312388
O30	O	0.441910	-0.777622	-0.062388
O31	O	0.691910	-0.527622	0.187612
O32	O	0.941910	-0.277622	0.437612
O33	O	0.403567	-1.239094	-0.312409
O34	O	0.653567	-0.989094	-0.062409
O35	O	0.903567	-0.739094	0.187591
O36	O	1.153567	-0.489094	0.437591
O37	O	0.191912	-1.118857	-0.403632
O38	O	0.441912	-0.868857	-0.153632
O39	O	0.691912	-0.618857	0.096368
O40	O	0.941912	-0.368857	0.346368
O41	O	0.312325	-1.027522	-0.191975
O42	O	0.562325	-0.777522	0.058025
O43	O	0.812325	-0.527522	0.308025
O44	O	1.062325	-0.277522	0.558025
O45	O	0.312282	-0.907145	-0.312341
O46	O	0.562282	-0.657145	-0.062341
O47	O	0.812282	-0.407145	0.187659
O48	O	1.062282	-0.157145	0.437659
O49	O	0.403490	-1.027509	-0.523974
O50	O	0.653490	-0.777509	-0.273974
O51	O	0.903490	-0.527509	-0.023974
O52	O	1.153490	-0.277509	0.226026
O53	O	0.403488	-0.907096	-0.403549
O54	O	0.653488	-0.657096	-0.153549
O55	O	0.903488	-0.407096	0.096451
O56	O	1.153488	-0.157096	0.346451
O57	O	0.312286	-1.118793	-0.524009
O58	O	0.562286	-0.868793	-0.274009
O59	O	0.812286	-0.618793	-0.024009
O60	O	1.062286	-0.368793	0.225991
O61	O	0.523939	-1.118617	-0.312362
O62	O	0.773939	-0.868617	-0.062362
O63	O	1.023939	-0.618617	0.187638
O64	O	1.273939	-0.368617	0.437638
O65	O	0.523906	-1.027409	-0.403561
O66	O	0.773906	-0.777409	-0.153561
O67	O	1.023906	-0.527409	0.096439
O68	O	1.273906	-0.277409	0.346439
C69	C	0.357880	-0.880174	-0.357938
C70	C	0.607880	-0.630174	-0.107938
C71	C	0.857880	-0.380174	0.142062
C72	C	1.107880	-0.130174	0.392062
C73	C	0.357883	-0.797628	-0.357936
C74	C	0.607883	-0.547628	-0.107936
C75	C	0.857883	-0.297628	0.142064
C76	C	1.107883	-0.047628	0.392064
C77	C	0.308220	-0.548808	-0.308441
C78	C	0.558220	-0.298808	-0.058441
C79	C	0.808220	-0.048808	0.191559
C80	C	1.058220	0.201192	0.441559
C81	C	0.290142	-0.598242	-0.376218
C82	C	0.540142	-0.348242	-0.126218
C83	C	0.790142	-0.098242	0.123782
C84	C	1.040142	0.151758	0.373782
C85	C	0.357905	-0.500508	-0.357981
C86	C	0.607905	-0.250508	-0.107981
C87	C	0.857905	-0.000508	0.142019
C88	C	1.107905	0.249492	0.392019
C89	C	0.375937	-0.598156	-0.290186
C90	C	0.625937	-0.348156	-0.040186
C91	C	0.875937	-0.098156	0.209814
C92	C	1.125937	0.151844	0.459814
C93	C	0.357892	-0.646493	-0.357955
C94	C	0.607892	-0.396493	-0.107955
C95	C	0.857892	-0.146493	0.142045
C96	C	1.107892	0.103507	0.392045
C97	C	0.339791	-0.548855	-0.425794
C98	C	0.589791	-0.298855	-0.175794
C99	C	0.839791	-0.048855	0.074206
C100	C	1.089791	0.201145	0.324206
C101	C	0.425618	-0.548764	-0.339716
C102	C	0.675618	-0.298764	-0.089716
C103	C	0.925618	-0.048764	0.160284
C104	C	1.175618	0.201236	0.410284
C105	C	0.407566	-0.598176	-0.407540
C106	C	0.657566	-0.348176	-0.157540
C107	C	0.907566	-0.098176	0.092460
C108	C	1.157566	0.151824	0.342460
C109	C	0.357910	-0.416410	-0.357995
C110	C	0.607910	-0.166410	-0.107995
C111	C	0.857910	0.083590	0.142005
C112	C	1.107910	0.333590	0.392005
C113	C	0.357887	-0.730590	-0.357949
C114	C	0.607887	-0.480590	-0.107949
C115	C	0.857887	-0.230590	0.142051
C116	C	1.107887	0.019410	0.392051
C117	C	0.550869	-1.073015	-0.357974
C118	C	0.800869	-0.823015	-0.107974
C119	C	1.050869	-0.573015	0.142026
C120	C	1.300869	-0.323015	0.392026
C121	C	0.633414	-1.073035	-0.357994
C122	C	0.883414	-0.823035	-0.107994
C123	C	1.133414	-0.573035	0.142006
C124	C	1.383414	-0.323035	0.392006
C125	C	0.832874	-1.023463	-0.407571
C126	C	1.082874	-0.773463	-0.157571
C127	C	1.332874	-0.523463	0.092429
C128	C	1.582874	-0.273463	0.342429
C129	C	0.882306	-1.005359	-0.339802
C130	C	1.132306	-0.755359	-0.089802
C131	C	1.382306	-0.505359	0.160198
C132	C	1.632306	-0.255359	0.410198
C133	C	0.784545	-1.073091	-0.358004
C134	C	1.034545	-0.823091	-0.108004
C135	C	1.284545	-0.573091	0.141996
C136	C	1.534545	-0.323091	0.391996
C137	C	0.882195	-1.091214	-0.425782
C138	C	1.132195	-0.841214	-0.175782
C139	C	1.382195	-0.591214	0.074218
C140	C	1.632195	-0.341214	0.324218
C141	C	0.930530	-1.073144	-0.358020
C142	C	1.180530	-0.823144	-0.108020
C143	C	1.430530	-0.573144	0.141980
C144	C	1.680530	-0.323144	0.391980
C145	C	0.832889	-1.054952	-0.290198
C146	C	1.082889	-0.804952	-0.040198
C147	C	1.332889	-0.554952	0.209802
C148	C	1.582889	-0.304952	0.459802
C149	C	0.832774	-1.140839	-0.376225
C150	C	1.082774	-0.890839	-0.126225
C151	C	1.332774	-0.640839	0.123775
C152	C	1.582774	-0.390839	0.373775
C153	C	0.882183	-1.122761	-0.308408
C154	C	1.132183	-0.872761	-0.058408
C155	C	1.382183	-0.622761	0.191592
C156	C	1.632183	-0.372761	0.441592
C157	C	0.700447	-1.073059	-0.357996
C158	C	0.950447	-0.823059	-0.107996
C159	C	1.200447	-0.573059	0.142004
C160	C	1.450447	-0.323059	0.392004
C161	C	1.014626	-1.073176	-0.358020
C162	C	1.264626	-0.823176	-0.108020
C163	C	1.514626	-0.573176	0.141980
C164	C	1.764626	-0.323176	0.391980
C165	C	1.164211	-1.073230	-0.358014
C166	C	1.414211	-0.823230	-0.108014
C167	C	1.664211	-0.573230	0.141986
C168	C	1.914211	-0.323230	0.391986
C169	C	1.081665	-1.073202	-0.358029
C170	C	1.331665	-0.823202	-0.108029
C171	C	1.581665	-0.573202	0.141971
C172	C	1.831665	-0.323202	0.391971
C173	C	0.357884	-1.073155	-0.551691
C174	C	0.607884	-0.823155	-0.301691
C175	C	0.857884	-0.573155	-0.051691
C176	C	1.107884	-0.323155	0.198309
C177	C	0.357870	-1.073168	-0.634237
C178	C	0.607870	-0.823168	-0.384237
C179	C	0.857870	-0.573168	-0.134237
C180	C	1.107870	-0.323168	0.115763
C181	C	0.357940	-0.266832	-0.358020
C182	C	0.607940	-0.016832	-0.108020
C183	C	0.857940	0.233168	0.141980
C184	C	1.107940	0.483168	0.391980
C185	C	0.357917	-0.349378	-0.358002
C186	C	0.607917	-0.099378	-0.108002
C187	C	0.857917	0.150622	0.141998
C188	C	1.107917	0.400622	0.391998
C189	C	0.407399	-1.023566	-0.833668
C190	C	0.657399	-0.773566	-0.583668
C191	C	0.907399	-0.523566	-0.333668
C192	C	1.157399	-0.273566	-0.083668
C193	C	0.425560	-1.091319	-0.883071
C194	C	0.675560	-0.841319	-0.633071
C195	C	0.925560	-0.591319	-0.383071
C196	C	1.175560	-0.341319	-0.133071
C197	C	0.357813	-1.073204	-0.785368
C198	C	0.607813	-0.823204	-0.535368
C199	C	0.857813	-0.573204	-0.285368
C200	C	1.107813	-0.323204	-0.035368
C201	C	0.339631	-1.005488	-0.883047
C202	C	0.589631	-0.755488	-0.633047
C203	C	0.839631	-0.505488	-0.383047
C204	C	1.089631	-0.255488	-0.133047
C205	C	0.357760	-1.073234	-0.931353
C206	C	0.607760	-0.823234	-0.681353
C207	C	0.857760	-0.573234	-0.431353
C208	C	1.107760	-0.323234	-0.181353
C209	C	0.376010	-1.140993	-0.833682
C210	C	0.626010	-0.890993	-0.583682
C211	C	0.876010	-0.640993	-0.333682
C212	C	1.126010	-0.390993	-0.083682
C213	C	0.290049	-1.055117	-0.833655
C214	C	0.540049	-0.805117	-0.583655
C215	C	0.790049	-0.555117	-0.333655
C216	C	1.040049	-0.305117	-0.083655
C217	C	0.308185	-1.122917	-0.883035
C218	C	0.558185	-0.872917	-0.633035
C219	C	0.808185	-0.622917	-0.383035
C220	C	1.058185	-0.372917	-0.133035
C221	C	0.357845	-1.073187	-0.701269
C222	C	0.607845	-0.823187	-0.451269
C223	C	0.857845	-0.573187	-0.201269
C224	C	1.107845	-0.323187	0.048731
C225	C	0.357727	-1.073259	-1.015449
C226	C	0.607727	-0.823259	-0.765449
C227	C	0.857727	-0.573259	-0.515449
C228	C	1.107727	-0.323259	-0.265449
C229	C	0.357896	-1.073140	-0.165034
C230	C	0.607896	-0.823140	0.084966
C231	C	0.857896	-0.573140	0.334966
C232	C	1.107896	-0.323140	0.584966
C233	C	0.357701	-1.073272	-0.082488
C234	C	0.607701	-0.823272	0.167512
C235	C	0.857701	-0.573272	0.417512
C236	C	1.107701	-0.323272	0.667512
H237	H	0.449577	-0.619715	-0.449471
H238	H	0.699577	-0.369715	-0.199471
H239	H	0.949577	-0.119715	0.050529
H240	H	1.199577	0.130285	0.300529
H241	H	0.482871	-0.527016	-0.324253
H242	H	0.732871	-0.277016	-0.074253
H243	H	0.982871	-0.027016	0.175747
H244	H	1.232871	0.222984	0.425747
F245	F	0.500432	-1.111340	-0.911443
F246	F	0.750432	-0.861340	-0.661443
F247	F	1.000432	-0.611340	-0.411443
F248	F	1.250432	-0.361340	-0.161443
H249	H	0.266229	-1.164956	-0.904573
H250	H	0.516229	-0.914956	-0.654573
H251	H	0.766229	-0.664956	-0.404573
H252	H	1.016229	-0.414956	-0.154573
F253	F	0.804315	-1.215674	-0.396392
F254	F	1.054315	-0.965674	-0.146392
F255	F	1.304315	-0.715674	0.103608
F256	F	1.554315	-0.465674	0.353608
H257	H	0.904080	-0.948092	-0.324405
H258	H	1.154080	-0.698092	-0.074405
H259	H	1.404080	-0.448092	0.175595
H260	H	1.654080	-0.198092	0.425595
H261	H	0.232782	-1.039781	-0.811933
H262	H	0.482782	-0.789781	-0.561933
H263	H	0.732782	-0.539781	-0.311933
H264	H	0.982782	-0.289781	-0.061933
F265	F	0.804701	-1.034859	-0.215265
F266	F	1.054701	-0.784859	0.034735
F267	F	1.304701	-0.534859	0.284735
F268	F	1.554701	-0.284859	0.534735
F269	F	0.910305	-1.177649	-0.253567
F270	F	1.160305	-0.927649	-0.003567
F271	F	1.410305	-0.677649	0.246433
F272	F	1.660305	-0.427649	0.496433
F273	F	0.215286	-0.626642	-0.396409
F274	F	0.465286	-0.376642	-0.146409
F275	F	0.715286	-0.126642	0.103591
F276	F	0.965286	0.123358	0.353591
F277	F	0.319558	-0.930622	-0.911392
F278	F	0.569558	-0.680622	-0.661392
F279	F	0.819558	-0.430622	-0.411392
F280	F	1.069558	-0.180622	-0.161392
H281	H	0.811222	-0.981439	-0.449429
H282	H	1.061222	-0.731439	-0.199429
H283	H	1.311222	-0.481439	0.050571
H284	H	1.561222	-0.231439	0.300571
F285	F	0.910506	-1.111223	-0.500692
F286	F	1.160506	-0.861223	-0.250692
F287	F	1.410506	-0.611223	-0.000692
F288	F	1.660506	-0.361223	0.249308
F289	F	0.253269	-0.520473	-0.253765
F290	F	0.503269	-0.270473	-0.003765
F291	F	0.753269	-0.020473	0.246235
F292	F	1.003269	0.229527	0.496235
F293	F	0.319761	-0.520669	-0.500742
F294	F	0.569761	-0.270669	-0.250742
F295	F	0.819761	-0.020669	-0.000742
F296	F	1.069761	0.229331	0.249258
F297	F	0.395881	-0.626465	-0.215261
F298	F	0.645881	-0.376465	0.034739
F299	F	0.895881	-0.126465	0.284739
F300	F	1.145881	0.123535	0.534739
F301	F	0.462277	-0.968749	-0.805335
F302	F	0.712277	-0.718749	-0.555335
F303	F	0.962277	-0.468749	-0.305335
F304	F	1.212277	-0.218749	-0.055335
F305	F	0.396172	-1.215882	-0.805461
F306	F	0.646172	-0.965882	-0.555461
F307	F	0.896172	-0.715882	-0.305461
F308	F	1.146172	-0.465882	-0.055461
