data_functionalizedCrystal
_audit_creation_method	'MofGen! by Chris Wilmer'
_symmetry_space_group_name_H-M	'P1'
_symmetry_Int_Tables_number	1
_symmetry_cell_setting	triclinic
loop_
_symmetry_equiv_pos_as_xyz
  x,y,z
_cell_length_a	11.169416
_cell_length_b	17.077404
_cell_length_c	17.077396
_cell_angle_alpha	89.979055
_cell_angle_beta	90.022666
_cell_angle_gamma	89.996180
loop_
_atom_site_label
_atom_site_type_symbol
_atom_site_fract_x
_atom_site_fract_y
_atom_site_fract_z
Zn1	Zn	-0.478016	-1.200123	0.443905
Zn2	Zn	-0.678728	-1.200059	0.312652
Zn3	Zn	-0.478034	-1.068855	0.312649
Zn4	Zn	-0.678633	-1.068852	0.443872
O5	O	-0.578353	-1.134472	0.378270
O6	O	-0.504673	-1.309961	0.426508
O7	O	-0.652153	-1.182629	0.202805
O8	O	-0.310082	-1.086296	0.330073
O9	O	-0.652135	-1.309914	0.330078
O10	O	-0.310069	-1.182738	0.426506
O11	O	-0.504704	-1.086234	0.202803
O12	O	-0.504612	-0.959008	0.330042
O13	O	-0.651973	-1.086291	0.553724
O14	O	-0.651991	-0.959005	0.426451
O15	O	-0.504581	-1.182735	0.553747
O16	O	-0.846665	-1.182626	0.330046
O17	O	-0.846595	-1.086228	0.426453
C18	C	-0.578294	-0.930524	0.378243
C19	C	-0.578298	-0.843274	0.378250
C20	C	-0.890177	-1.134441	0.378264
C21	C	-1.023577	-1.134500	0.378287
C22	C	-0.655231	-0.467479	0.428400
C23	C	-0.655219	-0.549460	0.428389
C24	C	-0.578357	-0.590426	0.378271
C25	C	-0.501510	-0.549407	0.328154
C26	C	-0.501528	-0.467428	0.328161
C27	C	-0.501475	-0.720277	0.328144
C28	C	-0.501454	-0.802261	0.328138
C29	C	-0.655166	-0.802309	0.428373
C30	C	-0.655184	-0.720330	0.428380
C31	C	-0.578335	-0.679317	0.378264
C32	C	-0.265310	-1.134525	0.378293
C33	C	-0.131910	-1.134547	0.378303
C34	C	-0.578264	-1.134520	0.583014
C35	C	-0.578227	-1.134540	0.670264
C36	C	-0.578399	-0.339216	0.378292
C37	C	-0.578387	-0.426466	0.378288
C38	C	-0.578354	-1.134470	0.174322
C39	C	-0.578054	-1.134602	0.087072
C40	C	-0.501473	-1.184760	0.711268
C41	C	-0.501433	-1.184770	0.793248
C42	C	-0.578154	-1.134562	0.834223
C43	C	-0.654911	-1.084336	0.793214
C44	C	-0.654944	-1.084323	0.711235
C45	C	-0.654838	-1.084368	0.964084
C46	C	-0.654807	-1.084381	1.046069
C47	C	-0.501328	-1.184814	1.046097
C48	C	-0.501361	-1.184801	0.964118
C49	C	-0.578120	-1.134576	0.923114
H50	H	-0.717796	-0.582849	0.469193
C51	C	-0.738768	-0.675992	0.482822
C52	C	-0.806091	-0.729454	0.526693
C53	C	-0.883116	-0.688639	0.576843
H54	H	-0.693068	-0.644020	0.517146
H55	H	-0.791068	-0.644020	0.452750
H56	H	-0.753797	-0.761413	0.556762
H57	H	-0.851814	-0.761428	0.492390
H58	H	-0.935416	-0.656667	0.546772
H59	H	-0.837407	-0.656668	0.611162
H60	H	-0.928811	-0.724906	0.606611
C61	C	-0.738753	-0.422908	0.482691
C62	C	-0.815581	-0.375812	0.438166
C63	C	-0.892531	-0.334737	0.488153
H64	H	-0.784630	-0.458990	0.512549
H65	H	-0.692952	-0.390897	0.516937
H66	H	-0.861377	-0.407820	0.403934
H67	H	-0.769737	-0.339715	0.408309
H68	H	-0.846730	-0.302726	0.522399
H69	H	-0.938400	-0.370825	0.518009
H70	H	-0.944661	-0.302772	0.457951
C71	C	-0.738557	-0.846975	0.482701
C72	C	-0.722119	-0.927536	0.471955
C73	C	-0.798918	-0.968710	0.521984
H74	H	-0.721167	-0.833657	0.535494
H75	H	-0.819204	-0.833583	0.471123
H76	H	-0.641490	-0.940923	0.483539
H77	H	-0.739517	-0.940878	0.419173
H78	H	-0.879565	-0.955318	0.510405
H79	H	-0.781522	-0.955386	0.574773
H80	H	-0.787783	-1.023375	0.514694
H81	H	-0.438855	-0.835613	0.287335
H82	H	-0.439002	-1.225648	0.677911
C83	C	-0.738356	-1.029954	0.837741
C84	C	-0.815298	-1.074395	0.884791
C85	C	-0.892197	-1.024326	0.925811
H86	H	-0.692561	-0.995750	0.869783
H87	H	-0.784142	-1.000054	0.801603
H88	H	-0.769516	-1.104282	0.920925
H89	H	-0.861119	-1.108597	0.852768
H90	H	-0.937984	-0.994427	0.889672
H91	H	-0.846393	-0.990125	0.957848
H92	H	-0.944419	-1.054473	0.957733
H93	H	-0.717432	-1.043421	0.677850
C94	C	-0.418163	-0.422997	0.273626
C95	C	-0.444120	-0.442924	0.195932
C96	C	-0.367340	-0.402020	0.145669
H97	H	-0.429106	-0.368295	0.280698
H98	H	-0.337523	-0.436450	0.285155
H99	H	-0.524740	-0.429466	0.184406
H100	H	-0.433170	-0.497619	0.188835
H101	H	-0.286700	-0.415472	0.157198
H102	H	-0.378289	-0.347319	0.152748
H103	H	-0.384934	-0.415539	0.092948
C104	C	-0.417906	-0.675888	0.273704
C105	C	-0.350562	-0.729308	0.229827
C106	C	-0.273553	-0.688445	0.179681
H107	H	-0.463617	-0.643891	0.239383
H108	H	-0.365617	-0.643936	0.303778
H109	H	-0.402844	-0.761246	0.199755
H110	H	-0.304826	-0.761306	0.264128
H111	H	-0.221265	-0.656494	0.209756
H112	H	-0.319275	-0.656450	0.145365
H113	H	-0.227844	-0.724684	0.149910
C114	C	-0.418059	-1.239385	0.837625
C115	C	-0.350908	-1.283371	0.784194
C116	C	-0.274100	-1.333700	0.825045
H117	H	-0.365632	-1.209463	0.869605
H118	H	-0.463945	-1.273624	0.869592
H119	H	-0.305026	-1.249136	0.752241
H120	H	-0.403304	-1.313309	0.752213
H121	H	-0.319985	-1.367939	0.857012
H122	H	-0.221680	-1.303771	0.857024
H123	H	-0.228536	-1.363555	0.788799
C124	C	-0.417821	-1.239207	1.090648
C125	C	-0.340835	-1.194777	1.137685
C126	C	-0.263885	-1.244855	1.178729
H127	H	-0.463577	-1.273425	1.122701
H128	H	-0.372069	-1.269092	1.054524
H129	H	-0.386582	-1.164906	1.173805
H130	H	-0.295053	-1.160562	1.105652
H131	H	-0.218133	-1.274740	1.142606
H132	H	-0.309650	-1.279070	1.210778
H133	H	-0.211634	-1.214717	1.210643
H134	H	-0.438895	-1.225689	0.930758
C135	C	-0.738283	-1.029911	1.090464
C136	C	-0.857051	-1.046951	1.070509
C137	C	-0.933977	-0.996782	1.111385
H138	H	-0.727426	-1.037070	1.145170
H139	H	-0.720768	-0.977157	1.077008
H140	H	-0.874560	-1.099692	1.083970
H141	H	-0.867946	-1.039787	1.015810
H142	H	-0.916462	-0.944028	1.097930
H143	H	-0.923109	-1.003944	1.166090
H144	H	-1.014569	-1.008331	1.097847
H145	H	-0.438932	-0.582767	0.287343
H146	H	-0.717325	-1.043457	0.930701
