data_functionalizedCrystal
_audit_creation_method	'MofGen! by Chris Wilmer'
_symmetry_space_group_name_H-M	'P1'
_symmetry_Int_Tables_number	1
_symmetry_cell_setting	triclinic
loop_
_symmetry_equiv_pos_as_xyz
  x,y,z
_cell_length_a	18.050582
_cell_length_b	12.759395
_cell_length_c	12.759394
_cell_angle_alpha	90.016374
_cell_angle_beta	90.019878
_cell_angle_gamma	90.012524
loop_
_atom_site_label
_atom_site_type_symbol
_atom_site_fract_x
_atom_site_fract_y
_atom_site_fract_z
Zn1	Zn	-0.419879	-1.606185	0.418290
Zn2	Zn	-0.295695	-1.606100	0.593971
Zn3	Zn	-0.295708	-1.430508	0.418311
Zn4	Zn	-0.419848	-1.430475	0.593932
O5	O	-0.357783	-1.518317	0.506126
O6	O	-0.403413	-1.753195	0.441602
O7	O	-0.191772	-1.582785	0.570694
O8	O	-0.312198	-1.453861	0.271287
O9	O	-0.312175	-1.753132	0.570674
O10	O	-0.403426	-1.582930	0.271272
O11	O	-0.191782	-1.453778	0.441638
O12	O	-0.312169	-1.283482	0.441601
O13	O	-0.523777	-1.453805	0.570608
O14	O	-0.403374	-1.283458	0.570629
O15	O	-0.523800	-1.582899	0.441565
O16	O	-0.312146	-1.582753	0.740987
O17	O	-0.403361	-1.453723	0.740959
C18	C	-0.357770	-1.245349	0.506113
C19	C	-0.357782	-1.128573	0.506133
C20	C	-0.357765	-1.518254	0.779094
C21	C	-0.357782	-1.518323	0.895870
C22	C	-0.551488	-1.518358	0.506080
C23	C	-0.634034	-1.518375	0.506060
C24	C	-0.833473	-1.448228	0.576138
C25	C	-0.882862	-1.544087	0.601817
C26	C	-0.785165	-1.518427	0.505980
C27	C	-0.882857	-1.422621	0.480272
C28	C	-0.931150	-1.518469	0.505904
C29	C	-0.833467	-1.614336	0.531709
C30	C	-0.833457	-1.492806	0.410119
C31	C	-0.882824	-1.588731	0.435761
C32	C	-0.701066	-1.518402	0.506026
C33	C	-1.015246	-1.518505	0.505858
C34	C	-0.164831	-1.518336	0.506097
C35	C	-0.082285	-1.518522	0.505821
C36	C	-0.357796	-1.792350	0.506140
C37	C	-0.357802	-1.909127	0.506146
C38	C	-0.452600	-1.128586	0.640708
C39	C	-0.500012	-1.073732	0.708003
C40	C	-0.500021	-0.964011	0.708016
C41	C	-0.452615	-0.909141	0.640724
C42	C	-0.405204	-0.963994	0.573428
C43	C	-0.405198	-1.073719	0.573425
C44	C	-0.310390	-0.963981	0.438850
C45	C	-0.310376	-1.073702	0.438841
C46	C	-0.262984	-0.909111	0.371558
C47	C	-0.215568	-0.963965	0.304267
C48	C	-0.215560	-1.073693	0.304257
C49	C	-0.262965	-1.128556	0.371546
C50	C	-0.357817	-1.518409	0.232093
C51	C	-0.357832	-1.518448	0.115316
C52	C	-0.262871	-1.652783	0.895847
C53	C	-0.215424	-1.720041	0.950696
C54	C	-0.215444	-1.720102	1.060417
C55	C	-0.262918	-1.652901	1.115292
C56	C	-0.310364	-1.585644	1.060443
C57	C	-0.310338	-1.585587	0.950719
C58	C	-0.405278	-1.451190	1.060467
C59	C	-0.405256	-1.451122	0.950746
C60	C	-0.452752	-1.383989	1.115342
C61	C	-0.500196	-1.316725	1.060494
C62	C	-0.500174	-1.316665	0.950765
C63	C	-0.452702	-1.383864	0.895897
H64	H	-0.811804	-1.388919	0.635546
H65	H	-0.176957	-1.118348	0.249450
H66	H	-0.904357	-1.648182	0.376399
C67	C	-0.262956	-1.249253	0.371549
N68	N	-0.262952	-1.340163	0.371554
C69	C	-0.262941	-1.652978	1.235989
N70	N	-0.262958	-1.653034	1.326899
H71	H	-0.811740	-1.471082	0.329107
C72	C	-0.912184	-1.573395	0.711290
N73	N	-0.934267	-1.595462	0.793747
H74	H	-0.538610	-1.118420	0.762789
H75	H	-0.811863	-1.695399	0.553513
C76	C	-0.912163	-1.313140	0.450934
N77	N	-0.934232	-1.230677	0.428843
H78	H	-0.538814	-1.261900	0.906113
H79	H	-0.452592	-1.217927	0.640712
H80	H	-0.538631	-0.919349	0.762808
H81	H	-0.452633	-0.819799	0.640731
C82	C	-0.163430	-0.903601	0.230251
N83	N	-0.124157	-0.858131	0.174502
H84	H	-0.262998	-0.819769	0.371569
H85	H	-0.262840	-1.652726	0.806506
H86	H	-0.176772	-1.774758	0.906007
H87	H	-0.176812	-1.774874	1.105075
C88	C	-0.452771	-1.384057	1.236039
N89	N	-0.452784	-1.384102	1.326950
C90	C	-0.552410	-1.242810	1.120863
N91	N	-0.591737	-1.187133	1.166337
H92	H	-0.452675	-1.383815	0.806556
