data_functionalizedCrystal
_audit_creation_method	'MofGen! by Chris Wilmer'
_symmetry_space_group_name_H-M	'P1'
_symmetry_Int_Tables_number	1
_symmetry_cell_setting	triclinic
loop_
_symmetry_equiv_pos_as_xyz
  x,y,z
_cell_length_a	19.188928
_cell_length_b	17.666332
_cell_length_c	16.109301
_cell_angle_alpha	90.007897
_cell_angle_beta	96.697354
_cell_angle_gamma	89.973946
loop_
_atom_site_label
_atom_site_type_symbol
_atom_site_fract_x
_atom_site_fract_y
_atom_site_fract_z
O1	O	-0.926393	0.063244	0.103789
O2	O	-0.723114	0.063181	0.117764
O3	O	-0.830338	0.063206	-0.010273
O4	O	-0.819170	0.063218	0.231826
O5	O	-0.830319	-0.062690	-0.010279
O6	O	-0.723096	-0.062716	0.117758
O7	O	-0.926374	-0.062653	0.103783
Cu8	Cu	-0.824733	-0.074180	0.110770
Cu9	Cu	-0.824756	0.074708	0.110778
O10	O	-0.819151	-0.062678	0.231820
C11	C	-0.697093	0.000225	0.117309
C12	C	-0.619585	0.000201	0.115951
C13	C	-0.574837	0.000214	0.191079
C14	C	-0.502010	0.000218	0.189804
C15	C	-0.473935	0.000225	0.113396
C16	C	-0.518693	0.000207	0.038259
C17	C	-0.591518	0.000195	0.039536
N18	N	-0.365824	0.043094	0.054996
N19	N	-0.296643	0.043107	0.053787
C20	C	-0.254517	0.000259	0.109543
N21	N	-0.284184	-0.042593	0.166565
N22	N	-0.353372	-0.042603	0.167776
C23	C	-0.394969	0.000237	0.112003
C24	C	-0.130801	0.000276	0.183293
C25	C	-0.057973	0.000276	0.182014
C26	C	-0.074657	0.000272	0.030467
C27	C	-0.147484	0.000264	0.031748
C28	C	-0.175551	0.000270	0.108163
N29	N	-0.824723	-0.178899	0.110763
C30	C	-0.872217	-0.218498	0.054096
C31	C	-0.872221	-0.297745	0.054092
C32	C	-0.824738	-0.337391	0.110770
C33	C	-0.777235	-0.297783	0.167441
C34	C	-0.777227	-0.218537	0.167438
N35	N	-0.815833	-0.461808	0.184369
N36	N	-0.815844	-0.537088	0.184369
C37	C	-0.824756	-0.576155	0.110781
N38	N	-0.833669	-0.537098	0.037191
N39	N	-0.833662	-0.461810	0.037191
C40	C	-0.824740	-0.423320	0.110779
C41	C	-0.872257	-0.701683	0.054105
C42	C	-0.872256	-0.780932	0.054100
C43	C	-0.777273	-0.780969	0.167456
C44	C	-0.777271	-0.701721	0.167454
C45	C	-0.824766	-0.662083	0.110779
C46	C	0.047604	0.000292	0.104241
C47	C	-0.029903	0.000281	0.105606
C48	C	-0.829876	0.000258	-0.041249
C49	C	-0.828520	0.000256	-0.133540
N50	N	-0.824772	0.179427	0.110777
C51	C	-0.888991	0.000287	-0.356014
C52	C	-0.887711	0.000292	-0.442730
C53	C	-0.760493	0.000250	-0.422432
C54	C	-0.761774	0.000250	-0.335718
C55	C	-0.826025	0.000264	-0.302511
C56	C	-0.823464	0.000270	-0.475942
C57	C	-0.822076	0.000277	-0.569963
C58	C	-0.827413	0.000259	-0.208484
C59	C	-0.819613	0.000272	0.262797
C60	C	-0.820969	0.000279	0.355087
H61	H	-0.495829	0.000222	-0.023953
Cl62	Cl	-0.931934	-0.347535	-0.017152
Cl63	Cl	-0.647777	0.000179	-0.054918
H64	H	-0.738551	-0.186295	0.213584
H65	H	-0.708183	0.000237	-0.449480
H66	H	-0.738572	-0.330067	0.213588
Cl67	Cl	-0.001716	0.000289	0.276470
Cl68	Cl	-0.931964	-0.830716	-0.017150
H69	H	-0.710496	0.000234	-0.292154
H70	H	-0.183919	0.000258	-0.029430
H71	H	-0.153654	0.000270	0.245514
H72	H	-0.738609	-0.813248	0.213601
Cl73	Cl	-0.610117	0.000218	0.287144
Cl74	Cl	-0.931920	-0.168668	-0.017154
H75	H	-0.738599	-0.669478	0.213601
H76	H	-0.465569	0.000227	0.250984
H77	H	-0.051800	0.000324	-0.031746
Cl78	Cl	-0.969762	0.000306	-0.314271
H79	H	-0.938984	0.000312	-0.486289
Cl80	Cl	-0.931961	-0.651851	-0.017147
