data_functionalizedCrystal
_audit_creation_method	'MofGen! by Chris Wilmer'
_symmetry_space_group_name_H-M	'P1'
_symmetry_Int_Tables_number	1
_symmetry_cell_setting	triclinic
loop_
_symmetry_equiv_pos_as_xyz
  x,y,z
_cell_length_a	11.169417
_cell_length_b	14.908178
_cell_length_c	11.169409
_cell_angle_alpha	93.334554
_cell_angle_beta	90.019513
_cell_angle_gamma	93.315343
loop_
_atom_site_label
_atom_site_type_symbol
_atom_site_fract_x
_atom_site_fract_y
_atom_site_fract_z
Zn1	Zn	1.807332	-0.359087	0.650915
Zn2	Zn	1.795609	-0.509994	0.438625
Zn3	Zn	1.606613	-0.359143	0.450246
Zn4	Zn	1.595019	-0.509921	0.639277
O5	O	1.701143	-0.434536	0.544766
O6	O	1.973726	-0.379112	0.622761
O7	O	1.770485	-0.490037	0.272213
O8	O	1.642997	-0.232880	0.486599
O9	O	1.965114	-0.489982	0.466793
O10	O	1.790464	-0.232839	0.634029
O11	O	1.631631	-0.379208	0.280750
O12	O	1.437126	-0.379137	0.475314
O13	O	1.623236	-0.489859	0.808775
O14	O	1.428608	-0.489913	0.614194
O15	O	1.779222	-0.379042	0.817325
O16	O	1.759243	-0.636240	0.455508
O17	O	1.611870	-0.636187	0.602926
C18	C	1.389320	-0.434524	0.544753
C19	C	1.255918	-0.434541	0.544774
C20	C	1.683059	-0.668950	0.526719
C21	C	1.675432	-0.769233	0.519039
C22	C	1.814541	-0.957483	0.658292
C23	C	1.807379	-1.051708	0.651080
C24	C	1.653940	-1.051909	0.497410
C25	C	1.661102	-0.957684	0.504622
C26	C	1.741406	-0.910474	0.585064
C27	C	1.748574	-0.816248	0.592270
C28	C	1.595130	-0.816451	0.438607
C29	C	1.587968	-0.910676	0.431395
C30	C	2.014185	-0.434549	0.544779
C31	C	2.147584	-0.434555	0.544785
C32	C	1.701243	-0.434436	0.857816
C33	C	1.701286	-0.434393	0.991219
C34	C	1.719332	-0.199207	0.562909
C35	C	1.727082	-0.098924	0.570640
C36	C	1.701118	-0.434571	0.232938
C37	C	1.701327	-0.434360	0.099555
H38	H	1.813965	-0.777810	0.657766
O39	O	1.892570	-0.911757	0.736531
C40	C	1.955612	-0.973454	0.799594
H41	H	1.901348	-1.040654	0.798560
H42	H	2.046031	-0.983437	0.754963
C43	C	2.042284	-0.854052	0.931437
C44	C	1.975631	-0.936586	0.930176
H45	H	2.054639	-0.831309	1.011985
H46	H	1.999815	-0.812485	0.888948
H47	H	2.117626	-0.862382	0.894238
H48	H	1.900286	-0.928253	0.967360
H49	H	2.018088	-0.978151	0.972674
O50	O	1.524034	-0.770926	0.367342
C51	C	1.451605	-0.832805	0.294820
H52	H	1.495658	-0.899943	0.285580
H53	H	1.359660	-0.842854	0.337912
C54	C	1.383073	-0.713669	0.181220
C55	C	1.437185	-0.796127	0.169863
H56	H	1.374173	-0.691044	0.104142
H57	H	1.431866	-0.671980	0.230082
H58	H	1.306458	-0.722055	0.217134
H59	H	1.513804	-0.787739	0.133964
H60	H	1.388404	-0.837815	0.120992
O61	O	1.878247	-1.097414	0.722334
C62	C	1.805726	-1.151933	0.795592
H63	H	1.713350	-1.123596	0.805087
H64	H	1.796182	-1.223370	0.753010
C65	C	1.977642	-1.188069	0.908650
C66	C	1.864187	-1.153260	0.920320
H67	H	2.013705	-1.188892	0.985587
H68	H	2.026502	-1.151342	0.859292
H69	H	1.969673	-1.247596	0.873161
H70	H	1.872159	-1.093730	0.955795
H71	H	1.815330	-1.189977	0.969687
H72	H	1.588555	-1.090364	0.431923
O73	O	1.509902	-0.956640	0.353414
C74	C	1.428177	-1.011135	0.417498
H75	H	1.469380	-1.025163	0.507420
H76	H	1.341983	-0.974874	0.433369
C77	C	1.349078	-1.083467	0.234144
C78	C	1.399687	-1.100703	0.344584
H79	H	1.331498	-1.138715	0.189167
H80	H	1.404134	-1.046750	0.190968
H81	H	1.277255	-1.053247	0.247386
H82	H	1.471516	-1.130912	0.331341
H83	H	1.344643	-1.137427	0.387756
