data_functionalizedCrystal
_audit_creation_method	'MofGen! by Chris Wilmer'
_symmetry_space_group_name_H-M	'P1'
_symmetry_Int_Tables_number	1
_symmetry_cell_setting	triclinic
loop_
_symmetry_equiv_pos_as_xyz
  x,y,z
_cell_length_a	14.519709
_cell_length_b	14.519709
_cell_length_c	16.776229
_cell_angle_alpha	90.010794
_cell_angle_beta	90.006806
_cell_angle_gamma	96.319854
loop_
_atom_site_label
_atom_site_type_symbol
_atom_site_fract_x
_atom_site_fract_y
_atom_site_fract_z
O1	O	1.223860	-0.120889	-0.066200
O2	O	1.557193	0.212445	0.267134
O3	O	1.890527	0.545778	0.600467
O4	O	0.955383	-0.135125	-0.066226
O5	O	1.288717	0.198208	0.267107
O6	O	1.622050	0.531541	0.600441
O7	O	1.096740	0.006231	-0.066190
O8	O	1.430073	0.339565	0.267143
O9	O	1.763407	0.672898	0.600477
O10	O	1.082503	-0.262246	-0.066236
O11	O	1.415837	0.071088	0.267097
O12	O	1.749170	0.404421	0.600431
O13	O	1.096742	0.006231	0.066387
O14	O	1.430076	0.339564	0.399720
O15	O	1.763409	0.672898	0.733053
O16	O	0.955386	-0.135126	0.066351
O17	O	1.288719	0.198208	0.399684
O18	O	1.622052	0.531541	0.733017
O19	O	1.223863	-0.120889	0.066377
O20	O	1.557196	0.212444	0.399710
O21	O	1.890529	0.545777	0.733043
Zn22	Zn	1.089625	-0.128008	0.087413
Zn23	Zn	1.422958	0.205326	0.420746
Zn24	Zn	1.756291	0.538659	0.754080
Zn25	Zn	1.089621	-0.128007	-0.087262
Zn26	Zn	1.422955	0.205326	0.246071
Zn27	Zn	1.756288	0.538660	0.579404
O28	O	1.082506	-0.262246	0.066341
O29	O	1.415839	0.071087	0.399674
O30	O	1.749173	0.404421	0.733007
C31	C	1.096078	0.040591	0.000102
C32	C	1.429411	0.373924	0.333436
C33	C	1.762744	0.707258	0.666769
C34	C	1.094090	0.142972	0.000114
C35	C	1.427423	0.476306	0.333447
C36	C	1.760756	0.809639	0.666781
C37	C	0.921025	-0.134462	0.000059
C38	C	1.254358	0.198871	0.333393
C39	C	1.587691	0.532205	0.666726
C40	C	0.818643	-0.132474	0.000050
C41	C	1.151977	0.200859	0.333384
C42	C	1.485310	0.534193	0.666717
C43	C	1.086770	0.517868	0.000135
C44	C	1.420103	0.851201	0.333468
C45	C	1.753437	1.184535	0.666802
C46	C	1.088803	0.413560	0.000129
C47	C	1.422136	0.746893	0.333463
C48	C	1.755469	1.080227	0.666796
C49	C	1.090430	0.330423	0.000125
C50	C	1.423763	0.663757	0.333459
C51	C	1.757096	0.997090	0.666792
C52	C	1.092463	0.226109	0.000118
C53	C	1.425796	0.559442	0.333452
C54	C	1.759129	0.892776	0.666785
C55	C	0.443748	-0.125154	0.000088
C56	C	0.777081	0.208179	0.333421
C57	C	1.110414	0.541512	0.666755
C58	C	0.548056	-0.127187	0.000077
C59	C	0.881389	0.206146	0.333411
C60	C	1.214722	0.539480	0.666744
C61	C	0.631192	-0.128814	0.000068
C62	C	0.964526	0.204519	0.333402
C63	C	1.297859	0.537853	0.666735
C64	C	0.735507	-0.130847	0.000059
C65	C	1.068840	0.202486	0.333392
C66	C	1.402173	0.535820	0.666726
C67	C	1.258221	-0.121553	0.000090
C68	C	1.591554	0.211781	0.333423
C69	C	1.924888	0.545114	0.666756
C70	C	1.360602	-0.123541	0.000093
C71	C	1.693936	0.209793	0.333427
C72	C	2.027269	0.543126	0.666760
C73	C	1.083168	0.703394	0.000075
C74	C	1.416502	1.036728	0.333408
C75	C	1.749835	1.370061	0.666742
C76	C	1.085156	0.601013	0.000143
C77	C	1.418490	0.934347	0.333476
C78	C	1.751823	1.267680	0.666809
N79	N	1.089620	-0.128000	-0.206473
N80	N	1.422953	0.205333	0.126860
N81	N	1.756286	0.538667	0.460193
C82	C	1.145532	-0.184186	-0.751655
C83	C	1.478865	0.149148	-0.418322
C84	C	1.812199	0.482481	-0.084988
C85	C	1.145534	-0.184182	-0.668203
C86	C	1.478867	0.149152	-0.334869
C87	C	1.812201	0.482485	-0.001536
C88	C	1.089632	-0.128004	-0.626473
C89	C	1.422965	0.205329	-0.293140
C90	C	1.756299	0.538663	0.040194
C91	C	1.033731	-0.071819	-0.668199
C92	C	1.367065	0.261514	-0.334866
C93	C	1.700398	0.594847	-0.001533
C94	C	1.033735	-0.071819	-0.751650
C95	C	1.367068	0.261515	-0.418317
C96	C	1.700402	0.594848	-0.084983
C97	C	1.033717	-0.071819	-0.331652
C98	C	1.367050	0.261514	0.001681
C99	C	1.700384	0.594848	0.335014
C100	C	1.033716	-0.071826	-0.248196
C101	C	1.367049	0.261507	0.085138
C102	C	1.700382	0.594841	0.418471
C103	C	1.145516	-0.184182	-0.248205
C104	C	1.478849	0.149151	0.085128
C105	C	1.812183	0.482484	0.418462
C106	C	1.145519	-0.184182	-0.331656
C107	C	1.478853	0.149152	0.001678
C108	C	1.812186	0.482485	0.335011
C109	C	1.089623	-0.127994	-0.373375
C110	C	1.422956	0.205340	-0.040042
C111	C	1.756290	0.538673	0.293292
C112	C	1.089623	-0.127997	-0.463863
C113	C	1.422956	0.205336	-0.130530
C114	C	1.756289	0.538670	0.202803
C115	C	1.089627	-0.128005	-0.535986
C116	C	1.422960	0.205329	-0.202653
C117	C	1.756293	0.538662	0.130681
N118	N	1.089633	-0.128007	0.206624
N119	N	1.422967	0.205326	0.539958
N120	N	1.756300	0.538659	0.873291
H121	H	1.191048	-0.229938	-0.785626
H122	H	1.524382	0.103395	-0.452292
H123	H	1.857715	0.436729	-0.118959
H124	H	0.988220	-0.026074	-0.634216
H125	H	1.321553	0.307260	-0.300883
H126	H	1.654886	0.640593	0.032450
C127	C	1.207015	-0.245974	-0.377554
C128	C	1.540348	0.087360	-0.044221
C129	C	1.873681	0.420693	0.289112
H130	H	1.240314	-0.279425	-0.340754
H131	H	1.573647	0.053908	-0.007421
H132	H	1.906981	0.387242	0.325912
H133	H	1.169226	-0.288270	-0.410123
H134	H	1.502559	0.045063	-0.076790
H135	H	1.835892	0.378397	0.256543
H136	H	1.249461	-0.208337	-0.410093
H137	H	1.582795	0.124996	-0.076760
H138	H	1.916128	0.458329	0.256573
H139	H	1.191054	-0.229926	-0.634237
H140	H	1.524387	0.103407	-0.300904
H141	H	1.857720	0.436741	0.032429
C142	C	1.207011	-0.245980	-0.202312
C143	C	1.540344	0.087353	0.131022
C144	C	1.873678	0.420686	0.464355
H145	H	1.199013	-0.237930	-0.146635
H146	H	1.532347	0.095403	0.186699
H147	H	1.865680	0.428736	0.520032
H148	H	1.189860	-0.309023	-0.216000
H149	H	1.523194	0.024310	0.117333
H150	H	1.856527	0.357643	0.450666
H151	H	1.270103	-0.229097	-0.215980
H152	H	1.603436	0.104236	0.117353
H153	H	1.936770	0.437570	0.450686
C154	C	0.972243	-0.010026	-0.797543
C155	C	1.305576	0.323307	-0.464210
C156	C	1.638910	0.656640	-0.130876
H157	H	0.938942	0.023425	-0.760740
H158	H	1.272276	0.356758	-0.427406
H159	H	1.605609	0.690092	-0.094073
H160	H	1.010038	0.032270	-0.830086
H161	H	1.343372	0.365603	-0.496752
H162	H	1.676705	0.698937	-0.163419
H163	H	0.929797	-0.047658	-0.830108
H164	H	1.263131	0.285676	-0.496774
H165	H	1.596464	0.619009	-0.163441
H166	H	0.988203	-0.026067	-0.365610
H167	H	1.321536	0.307266	-0.032277
H168	H	1.654870	0.640600	0.301057
H169	H	0.988191	-0.026076	-0.214222
H170	H	1.321525	0.307257	0.119112
H171	H	1.654858	0.640591	0.452445
