data_functionalizedCrystal
_audit_creation_method	'MofGen! by Chris Wilmer'
_symmetry_space_group_name_H-M	'P1'
_symmetry_Int_Tables_number	1
_symmetry_cell_setting	triclinic
loop_
_symmetry_equiv_pos_as_xyz
  x,y,z
_cell_length_a	16.625548
_cell_length_b	16.625545
_cell_length_c	16.625539
_cell_angle_alpha	90.026243
_cell_angle_beta	90.017055
_cell_angle_gamma	90.026626
loop_
_atom_site_label
_atom_site_type_symbol
_atom_site_fract_x
_atom_site_fract_y
_atom_site_fract_z
Zn1	Zn	1.232635	-0.320992	0.455910
Zn2	Zn	1.732635	0.179008	0.955910
Zn3	Zn	1.232539	-0.455831	0.321078
Zn4	Zn	1.732539	0.044169	0.821078
Zn5	Zn	1.097805	-0.321018	0.321091
Zn6	Zn	1.597805	0.178982	0.821091
Zn7	Zn	1.097760	-0.455789	0.455868
Zn8	Zn	1.597760	0.044211	0.955868
O9	O	1.165185	-0.388408	0.388487
O10	O	1.665185	0.111592	0.888487
O11	O	1.345455	-0.338885	0.438037
O12	O	1.845455	0.161115	0.938037
O13	O	1.214645	-0.437976	0.208247
O14	O	1.714645	0.062024	0.708247
O15	O	1.115750	-0.208182	0.338998
O16	O	1.615750	0.291818	0.838998
O17	O	1.345384	-0.437951	0.338976
O18	O	1.845384	0.062049	0.838976
O19	O	1.214809	-0.208163	0.438049
O20	O	1.714809	0.291837	0.938049
O21	O	1.115657	-0.338930	0.208257
O22	O	1.615657	0.161070	0.708257
O23	O	0.984967	-0.338889	0.338957
O24	O	1.484967	0.161111	0.838957
O25	O	1.115673	-0.437879	0.568706
O26	O	1.615673	0.062121	1.068706
O27	O	0.984934	-0.437905	0.437977
O28	O	1.484934	0.062095	0.937977
O29	O	1.214765	-0.338845	0.568737
O30	O	1.714765	0.161155	1.068737
O31	O	1.214602	-0.568658	0.338935
O32	O	1.714602	-0.068658	0.838935
O33	O	1.115580	-0.568627	0.437965
O34	O	1.615580	-0.068627	0.937965
C35	C	0.955694	-0.388396	0.388464
C36	C	1.455694	0.111604	0.888464
C37	C	0.866073	-0.388410	0.388474
C38	C	1.366073	0.111590	0.888474
C39	C	0.537897	-0.388416	0.388508
C40	C	1.037897	0.111584	0.888508
C41	C	0.629206	-0.388412	0.388496
C42	C	1.129206	0.111588	0.888496
C43	C	0.701982	-0.388414	0.388490
C44	C	1.201982	0.111586	0.888490
C45	C	0.793297	-0.388409	0.388480
C46	C	1.293297	0.111591	0.888480
C47	C	1.165097	-0.597898	0.388461
C48	C	1.665097	-0.097898	0.888461
C49	C	1.165134	-0.687520	0.388478
C50	C	1.665134	-0.187520	0.888478
C51	C	1.165165	-0.760302	0.388494
C52	C	1.665165	-0.260302	0.888494
C53	C	1.165212	-0.851610	0.388511
C54	C	1.665212	-0.351610	0.888511
C55	C	1.165254	-0.924387	0.388522
C56	C	1.665254	-0.424387	0.888522
C57	C	1.165300	-1.015701	0.388538
C58	C	1.665300	-0.515701	0.888538
C59	C	1.375494	-0.388420	0.388510
C60	C	1.875494	0.111580	0.888510
C61	C	1.465115	-0.388425	0.388520
C62	C	1.965115	0.111575	0.888520
C63	C	1.165225	-0.388354	0.598796
C64	C	1.665225	0.111646	1.098796
C65	C	1.165241	-0.388332	0.688417
C66	C	1.665241	0.111668	1.188417
C67	C	1.165295	-0.178099	0.388530
C68	C	1.665295	0.321901	0.888530
C69	C	1.165342	-0.088477	0.388548
C70	C	1.665342	0.411523	0.888548
C71	C	1.165192	-0.388402	0.178996
C72	C	1.665192	0.111598	0.678996
C73	C	1.165331	-0.388198	0.089375
C74	C	1.665331	0.111802	0.589375
C75	C	1.165255	-0.388314	0.761200
C76	C	1.665255	0.111686	1.261200
C77	C	1.165273	-0.388284	0.852508
C78	C	1.665273	0.111716	1.352508
C79	C	1.165292	-0.388255	0.925285
C80	C	1.665292	0.111745	1.425285
C81	C	1.165312	-0.388226	1.016599
C82	C	1.665312	0.111774	1.516599
