data_functionalizedCrystal
_audit_creation_method	'MofGen! by Chris Wilmer'
_symmetry_space_group_name_H-M	'P1'
_symmetry_Int_Tables_number	1
_symmetry_cell_setting	triclinic
loop_
_symmetry_equiv_pos_as_xyz
  x,y,z
_cell_length_a	19.188905
_cell_length_b	11.792241
_cell_length_c	10.268362
_cell_angle_alpha	90.001488
_cell_angle_beta	89.988275
_cell_angle_gamma	96.336014
loop_
_atom_site_label
_atom_site_type_symbol
_atom_site_fract_x
_atom_site_fract_y
_atom_site_fract_z
O1	O	0.926958	-0.141552	-0.108516
O2	O	1.426958	0.358448	0.391484
O3	O	0.723753	-0.160657	-0.108471
O4	O	1.223753	0.339343	0.391529
O5	O	0.830287	0.014141	-0.108485
O6	O	1.330287	0.514141	0.391515
O7	O	0.820424	-0.316350	-0.108501
O8	O	1.320424	0.183650	0.391499
O9	O	0.830276	0.014134	0.108115
O10	O	1.330276	0.514134	0.608115
O11	O	0.723742	-0.160663	0.108130
O12	O	1.223742	0.339337	0.608130
O13	O	0.926948	-0.141559	0.108085
O14	O	1.426948	0.358441	0.608085
Cu15	Cu	0.825344	-0.151111	0.127885
Cu16	Cu	1.325344	0.348889	0.627885
Cu17	Cu	0.825356	-0.151104	-0.128271
Cu18	Cu	1.325356	0.348896	0.371729
O19	O	0.820414	-0.316356	0.108099
O20	O	1.320414	0.183644	0.608099
C21	C	0.697733	-0.160046	-0.000165
C22	C	1.197733	0.339954	0.499835
C23	C	0.620217	-0.158203	-0.000148
C24	C	1.120217	0.341797	0.499852
C25	C	0.829662	0.056419	-0.000185
C26	C	1.329662	0.556419	0.499815
C27	C	0.827808	0.182405	-0.000186
C28	C	1.327808	0.682405	0.499814
C29	C	0.583826	-0.157314	-0.118220
C30	C	1.083826	0.342686	0.381780
C31	C	0.510992	-0.155570	-0.118236
C32	C	1.010992	0.344430	0.381764
C33	C	0.474554	-0.154691	-0.000173
C34	C	0.974554	0.345309	0.499827
C35	C	0.510954	-0.155587	0.117915
C36	C	1.010954	0.344413	0.617915
C37	C	0.583785	-0.157342	0.117927
C38	C	1.083785	0.342658	0.617927
N39	N	0.365149	-0.087351	0.087693
N40	N	0.865149	0.412649	0.587693
N41	N	0.295962	-0.085680	0.087673
N42	N	0.795962	0.414320	0.587673
C43	C	0.255118	-0.149404	-0.000205
C44	C	0.755118	0.350596	0.499795
N45	N	0.286075	-0.214847	-0.088081
N46	N	0.786075	0.285153	0.411919
N47	N	0.355268	-0.216513	-0.088064
N48	N	0.855268	0.283487	0.411936
C49	C	0.395581	-0.152788	-0.000174
C50	C	0.895581	0.347212	0.499826
C51	C	0.139752	-0.146626	-0.118303
C52	C	0.639752	0.353374	0.381697
C53	C	0.066917	-0.144889	-0.118314
C54	C	0.566917	0.355111	0.381686
C55	C	0.066881	-0.144894	0.117841
C56	C	0.566881	0.355106	0.617841
C57	C	0.139714	-0.146643	0.117848
C58	C	0.639714	0.353357	0.617848
C59	C	0.176146	-0.147503	-0.000227
C60	C	0.676146	0.352497	0.499773
C61	C	0.952968	-0.142169	-0.000224
C62	C	1.452968	0.357831	0.499776
C63	C	1.030484	-0.144012	-0.000250
C64	C	1.530484	0.355988	0.499750
N65	N	0.825365	-0.151091	-0.308437
N66	N	1.325365	0.348909	0.191563
C67	C	0.821039	-0.358634	-0.000204
C68	C	1.321039	0.141366	0.499796
C69	C	0.822893	-0.484620	-0.000211
C70	C	1.322893	0.015380	0.499789
C71	C	0.824398	0.413065	-0.000207
C72	C	1.324398	0.913065	0.499793
C73	C	0.826293	0.284709	-0.000196
C74	C	1.326293	0.784709	0.499804
N75	N	0.825341	-0.151115	0.308051
N76	N	1.325341	0.348885	0.808051
C77	C	0.825346	-0.151116	0.425893
C78	C	1.325346	0.348884	0.925893
C79	C	0.825355	-0.151106	0.573731
C80	C	1.325355	0.348894	1.073731
H81	H	0.613484	-0.158015	-0.214366
H82	H	1.113484	0.341985	0.285634
H83	H	0.169415	-0.147339	-0.214446
H84	H	0.669415	0.352661	0.285554
H85	H	0.169344	-0.147359	0.213996
H86	H	0.669344	0.352641	0.713996
C87	C	0.026887	-0.143907	-0.248210
C88	C	0.526887	0.356093	0.251790
N89	N	-0.003264	-0.143162	-0.346050
N90	N	0.496736	0.356838	0.153950
H91	H	0.481357	-0.154848	-0.214388
H92	H	0.981357	0.345152	0.285612
C93	C	0.623817	-0.158310	0.247822
C94	C	1.123817	0.341690	0.747822
N95	N	0.653971	-0.159035	0.345661
N96	N	1.153971	0.340965	0.845661
C97	C	0.470871	-0.154618	0.247784
C98	C	0.970871	0.345382	0.747784
N99	N	0.440681	-0.153892	0.345606
N100	N	0.940681	0.346108	0.845606
H101	H	0.037213	-0.144186	0.213970
H102	H	0.537213	0.355814	0.713970
