data_functionalizedCrystal
_audit_creation_method	'MofGen! by Chris Wilmer'
_symmetry_space_group_name_H-M	'P1'
_symmetry_Int_Tables_number	1
_symmetry_cell_setting	triclinic
loop_
_symmetry_equiv_pos_as_xyz
  x,y,z
_cell_length_a	14.908783
_cell_length_b	16.120444
_cell_length_c	14.908308
_cell_angle_alpha	84.013251
_cell_angle_beta	90.211273
_cell_angle_gamma	96.376156
loop_
_atom_site_label
_atom_site_type_symbol
_atom_site_fract_x
_atom_site_fract_y
_atom_site_fract_z
Zn1	Zn	1.328315	-0.293307	0.602926
Zn2	Zn	1.828315	0.206693	1.102926
Zn3	Zn	1.329261	-0.425029	0.459346
Zn4	Zn	1.829261	0.074971	0.959346
Zn5	Zn	1.186681	-0.292400	0.443851
Zn6	Zn	1.686681	0.207600	0.943851
Zn7	Zn	1.169356	-0.441087	0.601794
Zn8	Zn	1.669356	0.058913	1.101794
O9	O	1.253403	-0.362956	0.526979
O10	O	1.753403	0.137044	1.026979
O11	O	1.454636	-0.304440	0.590838
O12	O	1.954636	0.195560	1.090838
O13	O	1.317994	-0.400335	0.331102
O14	O	1.817994	0.099665	0.831102
O15	O	1.212323	-0.175169	0.458941
O16	O	1.712323	0.324831	0.958941
O17	O	1.455331	-0.401215	0.485350
O18	O	1.955331	0.098785	0.985350
O19	O	1.316381	-0.175835	0.575813
O20	O	1.816381	0.324165	1.075813
O21	O	1.213241	-0.302893	0.319717
O22	O	1.713241	0.197107	0.819717
O23	O	1.058187	-0.318464	0.457844
O24	O	1.558187	0.181536	0.957844
O25	O	1.182796	-0.428584	0.728133
O26	O	1.682796	0.071416	1.228133
O27	O	1.045459	-0.427704	0.573884
O28	O	1.545459	0.072296	1.073884
O29	O	1.299582	-0.320011	0.728964
O30	O	1.799582	0.179989	1.228964
O31	O	1.301195	-0.544511	0.484253
O32	O	1.801195	-0.044511	0.984253
O33	O	1.183713	-0.556308	0.588909
O34	O	1.683713	-0.056308	1.088909
C35	C	1.019102	-0.374729	0.514060
C36	C	1.519102	0.125271	1.014060
C37	C	0.918864	-0.379786	0.508555
C38	C	1.418864	0.120214	1.008555
C39	C	1.240700	-0.580837	0.538160
C40	C	1.740700	-0.080837	1.038160
C41	C	1.235346	-0.674045	0.542978
C42	C	1.735346	-0.174045	1.042978
C43	C	0.729762	-0.288675	0.608240
C44	C	1.229762	0.211325	1.108240
C45	C	0.635580	-0.293425	0.603071
C46	C	1.135580	0.206575	1.103071
C47	C	0.636317	-0.394030	0.493044
C48	C	1.136317	0.105970	0.993044
C49	C	0.730499	-0.389280	0.498213
C50	C	1.230499	0.110720	0.998213
C51	C	0.777218	-0.336602	0.555814
C52	C	1.277218	0.163398	1.055814
C53	C	0.871402	-0.331858	0.560988
C54	C	1.371402	0.168142	1.060988
C55	C	0.872137	-0.432458	0.450956
C56	C	1.372137	0.067542	0.950956
C57	C	0.777955	-0.437207	0.445787
C58	C	1.277955	0.062793	0.945787
C59	C	1.281385	-0.880361	0.502191
C60	C	1.781385	-0.380361	1.002191
C61	C	1.225587	-0.844692	0.551785
C62	C	1.725587	-0.344692	1.051785
C63	C	1.231019	-0.749735	0.546884
C64	C	1.731019	-0.249735	1.046884
C65	C	1.275955	-0.975326	0.507092
C66	C	1.775955	-0.475326	1.007092
C67	C	1.488619	-0.351138	0.539949
C68	C	1.988619	0.148862	1.039949
C69	C	1.588854	-0.346101	0.545476
C70	C	2.088854	0.153899	1.045476
C71	C	1.239151	-0.376190	0.762183
C72	C	1.739151	0.123810	1.262183
C73	C	1.233077	-0.381829	0.862413
C74	C	1.733077	0.118171	1.362413
C75	C	1.266179	-0.144223	0.515775
C76	C	1.766179	0.355777	1.015775
C77	C	1.271624	-0.051013	0.511001
C78	C	1.771624	0.448987	1.011001
C79	C	1.267655	-0.349710	0.292690
C80	C	1.767655	0.150290	0.792690
C81	C	1.273917	-0.343826	0.192458
C82	C	1.773917	0.156174	0.692458
C83	C	1.343273	-0.279350	1.051622
C84	C	1.843273	0.220650	1.551622
C85	C	1.337569	-0.284646	1.145797
C86	C	1.837569	0.215354	1.645797
C87	C	1.215963	-0.397712	1.144938
C88	C	1.715963	0.102288	1.644938
C89	C	1.221666	-0.392416	1.050763
C90	C	1.721666	0.107584	1.550763
C91	C	1.285324	-0.333234	1.004109
C92	C	1.785324	0.166766	1.504109
C93	C	1.291032	-0.327943	0.909932
C94	C	1.791032	0.172057	1.409932
C95	C	1.169422	-0.441004	0.909075
C96	C	1.669422	0.058996	1.409075
C97	C	1.163718	-0.446300	1.003250
C98	C	1.663718	0.053700	1.503250
H99	H	0.909439	-0.288965	0.607890
H100	H	1.409439	0.211035	1.107890
Cl101	Cl	1.361430	-0.817407	0.430956
Cl102	Cl	1.861430	-0.317407	0.930956
Cl103	Cl	1.371060	-0.253546	0.851282
Cl104	Cl	1.871060	0.246454	1.351282
H105	H	1.384755	-0.240766	1.184478
H106	H	1.884755	0.259234	1.684478
Cl107	Cl	1.083695	-0.520695	1.061911
Cl108	Cl	1.583695	-0.020695	1.561911
Cl109	Cl	1.423307	-0.204961	0.992968
Cl110	Cl	1.923307	0.295039	1.492968
Cl111	Cl	0.719214	-0.503425	0.373376
Cl112	Cl	1.219214	-0.003425	0.873376
H113	H	1.164135	-0.445895	1.182941
H114	H	1.664135	0.054105	1.682941
Cl115	Cl	0.577570	-0.460237	0.420627
Cl116	Cl	1.077570	0.039763	0.920627
Cl117	Cl	1.096577	-0.508757	0.849340
Cl118	Cl	1.596577	-0.008757	1.349340
H119	H	0.767802	-0.245787	0.655146
H120	H	1.267802	0.254213	1.155146
Cl121	Cl	0.575924	-0.233170	0.668980
Cl122	Cl	1.075924	0.266830	1.168980
H123	H	0.910785	-0.471490	0.408274
H124	H	1.410785	0.028510	0.908274
H125	H	1.173738	-0.885469	0.597925
H126	H	1.673738	-0.385469	1.097925
