data_functionalizedCrystal
_audit_creation_method	'MofGen! by Chris Wilmer'
_symmetry_space_group_name_H-M	'P1'
_symmetry_Int_Tables_number	1
_symmetry_cell_setting	triclinic
loop_
_symmetry_equiv_pos_as_xyz
  x,y,z
_cell_length_a	12.759395
_cell_length_b	19.805404
_cell_length_c	19.805399
_cell_angle_alpha	90.032624
_cell_angle_beta	89.987524
_cell_angle_gamma	89.964247
loop_
_atom_site_label
_atom_site_type_symbol
_atom_site_fract_x
_atom_site_fract_y
_atom_site_fract_z
Zn1	Zn	1.606042	0.269472	-0.382623
Zn2	Zn	2.106042	0.769472	0.117377
Zn3	Zn	1.605889	0.382664	-0.269427
Zn4	Zn	2.105889	0.882664	0.230573
Zn5	Zn	1.430361	0.269493	-0.269456
Zn6	Zn	1.930361	0.769493	0.230544
Zn7	Zn	1.430267	0.382624	-0.382583
Zn8	Zn	1.930267	0.882624	0.117417
O9	O	1.518140	0.326063	-0.326022
O10	O	2.018140	0.826063	0.173978
O11	O	1.753042	0.284495	-0.367612
O12	O	2.253042	0.784495	0.132388
O13	O	1.582580	0.367676	-0.174715
O14	O	2.082580	0.867676	0.325285
O15	O	1.453769	0.174774	-0.284497
O16	O	1.953769	0.674774	0.215503
O17	O	1.752930	0.367656	-0.284448
O18	O	2.252930	0.867656	0.215552
O19	O	1.582841	0.174759	-0.367640
O20	O	2.082841	0.674759	0.132360
O21	O	1.453621	0.284531	-0.174736
O22	O	1.953621	0.784531	0.325264
O23	O	1.283328	0.284493	-0.284458
O24	O	1.783328	0.784493	0.215542
O25	O	1.453609	0.367589	-0.477305
O26	O	1.953609	0.867589	0.022695
O27	O	1.283259	0.367610	-0.367572
O28	O	1.783259	0.867610	0.132428
O29	O	1.582750	0.284457	-0.477334
O30	O	2.082750	0.784457	0.022666
O31	O	1.582489	0.477375	-0.284409
O32	O	2.082489	0.977375	0.215591
O33	O	1.453460	0.477346	-0.367544
O34	O	1.953460	0.977346	0.132456
C35	C	1.245172	0.326050	-0.326014
C36	C	1.745172	0.826050	0.173986
C37	C	1.128396	0.326061	-0.326026
C38	C	1.628396	0.826061	0.173974
C39	C	1.128493	0.239605	-0.412765
C40	C	1.628493	0.739605	0.087235
C41	C	1.073681	0.196385	-0.456140
C42	C	1.573681	0.696385	0.043860
C43	C	0.963960	0.196397	-0.456149
C44	C	1.463960	0.696397	0.043851
C45	C	0.909047	0.239632	-0.412776
C46	C	1.409047	0.739632	0.087224
C47	C	0.963859	0.282852	-0.369401
C48	C	1.463859	0.782852	0.130599
C49	C	1.073584	0.282837	-0.369399
C50	C	1.573584	0.782837	0.130601
C51	C	0.963762	0.369303	-0.282660
C52	C	1.463762	0.869303	0.217340
C53	C	1.073483	0.369295	-0.282654
C54	C	1.573483	0.869295	0.217346
C55	C	0.908849	0.412538	-0.239288
C56	C	1.408849	0.912538	0.260712
C57	C	0.963661	0.455762	-0.195915
C58	C	1.463661	0.955762	0.304085
C59	C	1.073390	0.455749	-0.195909
C60	C	1.573390	0.955749	0.304091
C61	C	1.128295	0.412515	-0.239279
C62	C	1.628295	0.912515	0.260721
C63	C	1.517976	0.501920	-0.325984
C64	C	2.017976	1.001920	0.174016
C65	C	1.518002	0.577151	-0.325990
C66	C	2.018002	1.077151	0.174010
C67	C	1.518186	0.326016	-0.502565
C68	C	2.018186	0.826016	-0.002565
C69	C	1.518205	0.325996	-0.577797
C70	C	2.018205	0.825996	-0.077797
C71	C	1.792173	0.326077	-0.326031
C72	C	2.292173	0.826077	0.173969
C73	C	1.908950	0.326083	-0.326035
C74	C	2.408950	0.826083	0.173965
C75	C	1.585363	1.038875	-0.369392
C76	C	2.085363	1.538875	0.130608
C77	C	1.585334	0.968187	-0.369379
C78	C	2.085334	1.468187	0.130621
C79	C	1.518173	0.932913	-0.326049
C80	C	2.018173	1.432913	0.173951
C81	C	1.451044	0.968331	-0.282726
C82	C	1.951044	1.468331	0.217274
C83	C	1.451079	1.039019	-0.282737
C84	C	1.951079	1.539019	0.217263
C85	C	1.450902	0.683258	-0.282680
C86	C	1.950902	1.183258	0.217320
C87	C	1.450870	0.612566	-0.282674
C88	C	1.950870	1.112566	0.217326
C89	C	1.585158	0.612427	-0.369322
C90	C	2.085158	1.112427	0.130678
C91	C	1.585193	0.683114	-0.369333
C92	C	2.085193	1.183114	0.130667
C93	C	1.518068	0.718526	-0.326008
C94	C	2.018068	1.218526	0.173992
C95	C	1.518101	0.795174	-0.326022
C96	C	2.018101	1.295174	0.173978
C97	C	1.518133	0.856266	-0.326038
C98	C	2.018133	1.356266	0.173962
C99	C	1.518288	1.149521	-0.326070
C100	C	2.018288	1.649521	0.173930
C101	C	1.518237	1.074289	-0.326074
C102	C	2.018237	1.574289	0.173926
C103	C	1.451075	0.282699	-0.613152
C104	C	1.951075	0.782699	-0.113152
C105	C	1.451090	0.282685	-0.683840
C106	C	1.951090	0.782685	-0.183840
C107	C	1.518240	0.325967	-0.719173
C108	C	2.018240	0.825967	-0.219173
C109	C	1.585373	0.369270	-0.683813
C110	C	2.085373	0.869270	-0.183813
C111	C	1.585353	0.369286	-0.613126
C112	C	2.085353	0.869286	-0.113126
C113	C	1.585457	0.369207	-0.968887
C114	C	2.085457	0.869207	-0.468887
C115	C	1.585474	0.369186	-1.039579
C116	C	2.085474	0.869186	-0.539579
C117	C	1.451194	0.282606	-1.039601
C118	C	1.951194	0.782606	-0.539601
C119	C	1.451173	0.282622	-0.968914
C120	C	1.951173	0.782622	-0.468914
C121	C	1.518302	0.325927	-0.933560
C122	C	2.018302	0.825927	-0.433560
C123	C	1.518284	0.325942	-0.856912
C124	C	2.018284	0.825942	-0.356912
C125	C	1.518264	0.325950	-0.795820
C126	C	2.018264	0.825950	-0.295820
C127	C	1.518154	0.326061	-0.150166
C128	C	2.018154	0.826061	0.349834
C129	C	1.518338	0.325891	-0.074935
C130	C	2.018338	0.825891	0.425065
H131	H	0.819508	0.412543	-0.239296
H132	H	1.319508	0.912543	0.260704
H133	H	0.819706	0.239633	-0.412781
H134	H	1.319706	0.739633	0.087219
H135	H	1.639994	0.939354	-0.404651
H136	H	2.139994	1.439354	0.095349
H137	H	0.919332	0.161200	-0.491464
H138	H	1.419332	0.661200	0.008536
H139	H	1.217834	0.239588	-0.412760
H140	H	1.717834	0.739588	0.087240
H141	H	1.118011	0.490941	-0.160586
H142	H	1.618011	0.990941	0.339414
H143	H	1.640105	0.404476	-0.940110
H144	H	2.140105	0.904476	-0.440110
H145	H	1.640025	0.404539	-0.584341
H146	H	2.140025	0.904539	-0.084341
H147	H	1.640043	0.404514	-0.712587
H148	H	2.140043	0.904514	-0.212587
H149	H	0.918943	0.490957	-0.160602
H150	H	1.418943	0.990957	0.339398
H151	H	1.640044	1.067590	-0.404683
H152	H	2.140044	1.567590	0.095317
H153	H	1.118403	0.161183	-0.491452
H154	H	1.618403	0.661183	0.008548
H155	H	1.396400	0.247449	-0.584389
H156	H	1.896400	0.747449	-0.084389
H157	H	1.639879	0.711830	-0.404619
H158	H	2.139879	1.211830	0.095381
H159	H	1.639818	0.583587	-0.404598
H160	H	2.139818	1.083587	0.095402
H161	H	1.217636	0.412497	-0.239275
H162	H	1.717636	0.912497	0.260725
H163	H	1.396177	0.583847	-0.247388
H164	H	1.896177	1.083847	0.252612
H165	H	1.396422	0.247430	-0.712623
H166	H	1.896422	0.747430	-0.212623
H167	H	1.396244	0.712082	-0.247402
H168	H	1.896244	1.212082	0.252598
H169	H	1.396417	1.067851	-0.247462
H170	H	1.896417	1.567851	0.252538
H171	H	1.396363	0.939607	-0.247443
H172	H	1.896363	1.439607	0.252557
H173	H	1.396496	0.247375	-0.940149
H174	H	1.896496	0.747375	-0.440149
H175	H	1.640159	0.404434	-1.068345
H176	H	2.140159	0.904434	-0.568345
H177	H	1.396531	0.247347	-1.068394
H178	H	1.896531	0.747347	-0.568394
