data_functionalizedCrystal
_audit_creation_method	'MofGen! by Chris Wilmer'
_symmetry_space_group_name_H-M	'P1'
_symmetry_Int_Tables_number	1
_symmetry_cell_setting	triclinic
loop_
_symmetry_equiv_pos_as_xyz
  x,y,z
_cell_length_a	31.640172
_cell_length_b	23.196402
_cell_length_c	23.196401
_cell_angle_alpha	60.007472
_cell_angle_beta	90.008017
_cell_angle_gamma	59.994656
loop_
_atom_site_label
_atom_site_type_symbol
_atom_site_fract_x
_atom_site_fract_y
_atom_site_fract_z
Zr1	Zr	0.407176	0.630951	-0.075667
O2	O	0.339674	0.751228	-0.167713
O3	O	0.427868	0.510680	-0.047451
O4	O	0.427849	0.630949	-0.167720
O5	O	0.339709	0.630958	0.047427
O6	O	0.497406	0.630939	-0.167724
O7	O	0.339693	0.630960	-0.047444
O8	O	0.497439	0.415801	0.047415
O9	O	0.339676	0.846097	-0.167712
O10	O	0.488604	0.560139	-0.035419
O11	O	0.436707	0.560145	0.035386
O12	O	0.436685	0.701746	-0.106215
O13	O	0.384788	0.701753	-0.035411
Zr14	Zr	0.518137	0.630933	0.075636
Zr15	Zr	0.518111	0.630935	-0.075673
Zr16	Zr	0.407203	0.630948	0.075642
Zr17	Zr	0.407179	0.782255	-0.075665
Zr18	Zr	0.518134	0.479628	0.075634
O19	O	0.497446	0.751203	0.047420
O20	O	0.497408	0.751206	-0.167722
O21	O	0.339712	0.751225	0.047429
O22	O	0.585640	0.510655	0.167682
O23	O	0.585602	0.510658	-0.047460
O24	O	0.427906	0.510677	0.167691
O25	O	0.585604	0.630925	-0.047458
O26	O	0.497464	0.630934	0.167689
O27	O	0.427908	0.630944	0.167692
O28	O	0.585621	0.630924	0.047413
O29	O	0.427854	0.846085	-0.167716
O30	O	0.497460	0.415799	0.167685
O31	O	0.585638	0.415786	0.167680
O32	O	0.585617	0.415788	0.047410
O33	O	0.339697	0.846095	-0.047441
O34	O	0.427875	0.846083	-0.047446
O35	O	0.488629	0.560137	0.106184
O36	O	0.540525	0.560131	0.035380
O37	O	0.488607	0.701738	-0.035417
O38	O	0.436710	0.701744	0.035388
C39	C	0.462653	0.441683	-0.000018
C40	C	0.462652	0.377450	-0.000019
C41	C	0.424338	-0.033126	-0.052279
C42	C	0.424334	0.027232	-0.052278
C43	C	0.462661	0.005143	-0.000016
C44	C	0.500988	-0.077312	0.052260
C45	C	0.500989	-0.137667	0.052263
C46	C	0.509435	0.060715	0.016269
C47	C	0.509435	0.121071	0.016263
C48	C	0.462661	0.191296	-0.000019
C49	C	0.415883	0.201166	-0.016308
C50	C	0.415883	0.140811	-0.016306
C51	C	0.462665	0.070582	-0.000012
C52	C	0.424329	0.339187	-0.052288
C53	C	0.424324	0.399543	-0.052283
C54	C	0.500983	0.294997	0.052253
C55	C	0.500984	0.234643	0.052251
C56	C	0.462657	0.256743	-0.000024
C57	C	0.323895	0.630961	-0.000008
C58	C	0.276801	0.630968	-0.000005
C59	C	-0.015214	0.630928	-0.052280
C60	C	-0.192200	0.630918	-0.052285
O61	O	-0.215081	0.630882	-0.096717
N62	N	-0.214322	0.630918	-0.000020
C63	C	-0.192192	0.630916	0.052252
O64	O	-0.215066	0.630909	0.096711
C65	C	-0.015204	0.630921	0.052260
C66	C	0.006912	0.630928	-0.000012
C67	C	0.006903	0.630934	-0.104547
C68	C	0.051145	0.630941	-0.104547
C69	C	0.073271	0.630942	-0.052280
C70	C	0.051154	0.630935	-0.000013
C71	C	0.006927	0.630913	0.104535
C72	C	0.051177	0.630912	0.104533
C73	C	0.073293	0.630920	0.052261
C74	C	0.117522	0.630943	0.052254
N75	N	0.139644	0.630942	-0.000011
C76	C	0.117518	0.630941	-0.052278
C77	C	-0.285114	0.630916	0.052244
C78	C	-0.329361	0.630916	0.052241
C79	C	-0.329366	0.630916	-0.052295
C80	C	-0.285120	0.630921	-0.052295
C81	C	-0.262992	0.630915	-0.000021
C82	C	0.210430	0.630957	-0.052275
C83	C	0.254675	0.630967	-0.052273
C84	C	0.254677	0.630963	0.052266
C85	C	0.210435	0.630957	0.052262
C86	C	0.188313	0.630951	-0.000012
O87	O	0.140433	0.630969	0.096668
O88	O	0.140406	0.630931	-0.096721
C89	C	-0.059456	0.630921	-0.052279
C90	C	-0.081573	0.630914	-0.000012
C91	C	-0.059447	0.630915	0.052256
C92	C	-0.125820	0.630915	-0.000014
C93	C	-0.147946	0.630914	-0.052281
C94	C	-0.125824	0.630913	-0.104546
C95	C	-0.081582	0.630920	-0.104546
C96	C	-0.081569	0.630916	0.104520
C97	C	-0.125811	0.630910	0.104516
C98	C	-0.147937	0.630909	0.052249
C99	C	0.601419	0.630922	-0.000023
C100	C	0.648513	0.630916	-0.000026
C101	C	0.462624	0.630945	-0.189280
C102	C	0.462612	0.630946	-0.253515
C103	C	0.462661	0.820201	-0.000013
C104	C	0.462662	0.884433	-0.000012
C105	C	0.435514	0.704861	-0.320642
C106	C	0.435527	0.704862	-0.380998
C107	C	0.462632	0.630944	-0.374221
C108	C	0.489736	0.557019	-0.307081
C109	C	0.489726	0.557020	-0.246728
C110	C	0.458781	0.574315	-0.441539
C111	C	0.458787	0.574317	-0.501892
C112	C	0.462664	0.630937	-0.560368
C113	C	0.466525	0.687569	-0.558491
C114	C	0.466515	0.687570	-0.498138
C115	C	0.462645	0.630934	-0.439660
C116	C	0.435579	0.704859	-0.692943
C117	C	0.435596	0.704857	-0.753298
C118	C	0.489801	0.557011	-0.679379
C119	C	0.489788	0.557016	-0.619026
C120	C	0.462674	0.630942	-0.625813
C121	C	0.462690	0.630939	0.189249
C122	C	0.462701	0.630938	0.253483
C123	C	0.601415	0.441663	-0.000026
C124	C	0.648508	0.377424	-0.000030
C125	C	0.462686	0.441680	0.189246
C126	C	0.462696	0.377446	0.253480
C127	C	0.601448	0.441660	0.189238
C128	C	0.648552	0.377420	0.253469
C129	C	0.323866	0.820223	-0.189269
C130	C	0.276761	0.884463	-0.253500
C131	C	0.323899	0.820220	-0.000005
C132	C	0.276806	0.884459	-0.000001
C133	C	0.462627	0.820204	-0.189277
C134	C	0.462617	0.884437	-0.253511
C135	C	0.643521	0.347261	-0.036994
C136	C	0.687766	0.286910	-0.037011
C137	C	0.736997	0.256718	-0.000060
C138	C	0.741983	0.286887	0.036905
C139	C	0.697739	0.347242	0.036918
C140	C	0.489803	0.347277	0.320607
C141	C	0.489811	0.286931	0.380967
C142	C	0.462714	0.256751	0.374198
C143	C	0.435603	0.286926	0.307064
C144	C	0.435593	0.347275	0.246705
C145	C	0.697767	0.347249	0.246674
C146	C	0.742031	0.286897	0.307020
C147	C	0.737079	0.256713	0.374161
C148	C	0.687859	0.286890	0.380955
C149	C	0.643596	0.347245	0.320610
C150	C	0.227546	0.914642	-0.246705
C151	C	0.183282	0.975013	-0.307051
C152	C	0.188235	1.005200	-0.374192
C153	C	0.237455	0.975019	-0.380986
C154	C	0.281717	0.914653	-0.320641
C155	C	0.281793	0.914629	0.036956
C156	C	0.237548	0.974997	0.036957
C157	C	0.188317	1.005190	0.000004
C158	C	0.183331	0.975018	-0.036958
C159	C	0.227575	0.914655	-0.036963
C160	C	0.489720	0.914598	-0.246719
C161	C	0.489720	0.974944	-0.307068
C162	C	0.462616	1.005133	-0.374207
C163	C	0.435512	0.974966	-0.380997
C164	C	0.435515	0.914617	-0.320649
H165	H	0.393120	0.357182	-0.094852
H166	H	0.532193	0.167514	0.094810
Br167	Br	0.116512	1.016002	-0.087104
Br168	Br	0.526585	0.388218	0.329813
Br169	Br	0.398803	0.388209	0.155606
Br170	Br	0.808823	0.245953	0.297783
Br171	Br	0.462617	1.087038	-0.456101
Br172	Br	0.704516	0.388166	0.087093
Br173	Br	-0.051574	0.630931	-0.175491
Br174	Br	0.553003	-0.249559	0.123203
H175	H	0.413459	0.765054	-0.435664
Br176	Br	0.552996	0.265012	0.123187
Br177	Br	0.180415	0.630948	-0.123219
H178	H	0.413444	0.999555	-0.435670
H179	H	0.223504	0.890067	-0.192041
H180	H	0.773125	0.207567	0.423292
Br181	Br	0.572917	0.107676	0.038358
H182	H	0.773019	0.207573	-0.000076
H183	H	0.413501	0.765054	-0.698470
Br184	Br	0.128275	1.087112	0.000018
H185	H	0.223507	0.890093	-0.067057
H186	H	0.547528	0.003535	0.029532
Br187	Br	0.526509	0.873641	-0.155609
Br188	Br	0.681147	0.245917	0.472081
Br189	Br	0.526556	0.456696	-0.527918
Br190	Br	0.576806	0.388181	0.329845
Br191	Br	0.526503	1.015875	-0.297836
Br192	Br	0.553001	-0.107291	0.123194
Br193	Br	0.116491	1.015958	-0.297814
H194	H	0.683696	0.262353	-0.067113
Br195	Br	0.704502	0.388204	0.155561
Br196	Br	0.808801	0.245903	0.087052
Br197	Br	0.526607	0.245991	0.472068
Br198	Br	-0.359403	0.630915	-0.123229
H199	H	0.413443	0.890067	-0.326189
Br200	Br	0.526596	0.456691	-0.670174
H201	H	0.393128	-0.015124	-0.094843
H202	H	0.462726	0.207611	0.423352
Br203	Br	0.180415	0.630963	0.123196
H204	H	0.393119	0.094367	-0.094833
H205	H	0.413542	0.262345	0.301563
H206	H	0.152189	1.054353	-0.423323
H207	H	0.377795	0.148851	-0.029567
H208	H	0.241481	0.999605	-0.435659
H209	H	0.377794	0.258346	-0.029567
Br210	Br	0.348508	0.873700	-0.329876
H211	H	0.272680	0.630975	-0.094841
H212	H	0.455641	0.528208	-0.503416
Br213	Br	0.348601	0.873668	0.087111
H214	H	0.069151	0.630944	-0.147110
Br215	Br	-0.255110	0.630931	-0.123238
Br216	Br	0.372304	0.511435	-0.123217
Br217	Br	-0.359378	0.630926	0.123175
H218	H	-0.011107	0.630931	-0.147110
Br219	Br	-0.255089	0.630909	0.123193
H220	H	-0.011074	0.630906	0.147100
Br221	Br	0.081206	0.630899	0.175484
H222	H	0.272698	0.630967	0.094820
H223	H	-0.143848	0.630917	-0.147106
Br224	Br	0.244327	1.015929	0.087126
H225	H	-0.143818	0.630910	0.147082
H226	H	-0.063557	0.630915	0.147083
Br227	Br	0.398703	0.805188	-0.329856
Br228	Br	0.471785	0.764418	-0.637847
H229	H	0.469660	0.733680	-0.496611
H230	H	0.413531	0.765050	-0.807958
H231	H	0.455621	0.528209	-0.393929
Br232	Br	0.526525	0.456700	-0.297881
H233	H	0.511794	0.496827	-0.192067
H234	H	0.603438	0.371842	-0.067093
