data_functionalizedCrystal
_audit_creation_method	'MofGen! by Chris Wilmer'
_symmetry_space_group_name_H-M	'P1'
_symmetry_Int_Tables_number	1
_symmetry_cell_setting	triclinic
loop_
_symmetry_equiv_pos_as_xyz
  x,y,z
_cell_length_a	25.639239
_cell_length_b	12.594517
_cell_length_c	12.594509
_cell_angle_alpha	90.011478
_cell_angle_beta	90.034128
_cell_angle_gamma	90.034573
loop_
_atom_site_label
_atom_site_type_symbol
_atom_site_fract_x
_atom_site_fract_y
_atom_site_fract_z
Zn1	Zn	-0.208192	1.627099	0.601537
Zn2	Zn	-0.295635	1.626920	0.423540
Zn3	Zn	-0.208209	1.449103	0.423596
Zn4	Zn	-0.295592	1.449015	0.601500
O5	O	-0.251907	1.538034	0.512543
O6	O	-0.219803	1.776021	0.577917
O7	O	-0.284062	1.603294	0.274601
O8	O	-0.135041	1.472827	0.447239
O9	O	-0.284046	1.775890	0.447143
O10	O	-0.135029	1.603600	0.577971
O11	O	-0.219831	1.472653	0.274643
O12	O	-0.219790	1.300146	0.447204
O13	O	-0.283974	1.472677	0.750451
O14	O	-0.283990	1.300081	0.577909
O15	O	-0.219762	1.603514	0.750478
O16	O	-0.368794	1.603209	0.447108
O17	O	-0.368763	1.472503	0.577855
C18	C	-0.251887	1.261494	0.512559
C19	C	-0.251891	1.143188	0.512592
C20	C	-0.286878	1.073931	0.583545
C21	C	-0.239208	1.003160	0.609733
C22	C	-0.299602	1.003159	0.486380
C23	C	-0.204195	1.073976	0.538831
C24	C	-0.264622	1.073981	0.415432
C25	C	-0.216918	1.003243	0.441583
C26	C	-0.387750	1.537855	0.512495
C27	C	-0.445864	1.537876	0.512509
C28	C	-0.806230	1.606271	0.444579
C29	C	-0.860835	1.606312	0.444594
O30	O	-0.889074	1.664278	0.386784
N31	N	-0.888146	1.538222	0.512614
C32	C	-0.860851	1.470093	0.580632
O33	O	-0.889095	1.412182	0.638490
C34	C	-0.806247	1.470058	0.580622
C35	C	-0.778939	1.538145	0.512590
C36	C	-0.778922	1.674353	0.376553
C37	C	-0.724321	1.674310	0.376538
C38	C	-0.697029	1.606185	0.444549
C39	C	-0.724338	1.538102	0.512574
C40	C	-0.778953	1.401936	0.648645
C41	C	-0.724346	1.401907	0.648630
C42	C	-0.697037	1.469994	0.580598
C43	C	-0.642446	1.469934	0.580570
N44	N	-0.615134	1.538024	0.512549
C45	C	-0.642426	1.606150	0.444539
C46	C	-0.975521	1.470173	0.580648
C47	C	-1.030123	1.470202	0.580653
C48	C	-1.030104	1.606423	0.444616
C49	C	-0.975501	1.606388	0.444606
C50	C	-0.948210	1.538264	0.512628
C51	C	-0.527761	1.606054	0.444511
C52	C	-0.473156	1.606002	0.444499
C53	C	-0.473180	1.469786	0.580539
C54	C	-0.527781	1.469833	0.580548
C55	C	-0.555070	1.537976	0.512531
O56	O	-0.614171	1.412001	0.638353
O57	O	-0.614175	1.664061	0.386700
C58	C	-0.115534	1.538243	0.512615
C59	C	-0.057420	1.538332	0.512646
C60	C	-0.251861	1.538106	0.790164
C61	C	-0.251842	1.538136	0.908470
C62	C	-0.251927	1.815655	0.512528
C63	C	-0.251936	1.933961	0.512521
C64	C	-0.251915	1.538025	0.236002
C65	C	-0.251787	1.538201	0.117697
C66	C	-0.286747	1.466996	0.977709
C67	C	-0.299525	1.564106	1.048480
C68	C	-0.239032	1.441102	1.048498
C69	C	-0.264645	1.635297	0.977683
C70	C	-0.204130	1.512227	0.977695
C71	C	-0.216890	1.609405	1.048434
H72	H	-0.275388	1.105113	0.333320
H73	H	-0.702090	1.729756	0.321144
H74	H	-0.187315	0.972401	0.381551
H75	H	-0.228220	1.359014	1.079604
Br76	Br	-0.687311	1.309452	0.740954
H77	H	-0.549973	1.661544	0.389127
H78	H	-0.339931	0.972048	0.464242
H79	H	-0.450923	1.661446	0.389095
Br80	Br	-0.221285	0.951311	0.746629
Br81	Br	-0.282747	1.772155	0.926064
H82	H	-1.052354	1.414749	0.636042
H83	H	-0.163854	1.104952	0.561064
Br84	Br	-0.336101	1.125667	0.683674
H85	H	-0.801137	1.729835	0.321171
H86	H	-0.953269	1.661830	0.389209
Br87	Br	-1.067153	1.698875	0.352310
H88	H	-0.316311	1.406882	0.946655
Br89	Br	-0.938489	1.377704	0.672965
Br90	Br	-0.816000	1.309537	0.740992
H91	H	-0.550016	1.414395	0.635949
Br92	Br	-0.136935	1.475599	0.925829
H93	H	-0.450950	1.414315	0.635910
Br94	Br	-0.366737	1.600694	1.100303
H95	H	-0.187348	1.669663	1.079292
