data_functionalizedCrystal
_audit_creation_method	'MofGen! by Chris Wilmer'
_symmetry_space_group_name_H-M	'P1'
_symmetry_Int_Tables_number	1
_symmetry_cell_setting	triclinic
loop_
_symmetry_equiv_pos_as_xyz
  x,y,z
_cell_length_a	17.019372
_cell_length_b	16.098538
_cell_length_c	12.837942
_cell_angle_alpha	86.987046
_cell_angle_beta	89.097252
_cell_angle_gamma	88.864305
loop_
_atom_site_label
_atom_site_type_symbol
_atom_site_fract_x
_atom_site_fract_y
_atom_site_fract_z
O1	O	1.056294	-0.006433	0.132445
O2	O	1.556294	0.493567	0.632445
O3	O	0.828648	0.009880	0.148200
O4	O	1.328648	0.509880	0.648200
O5	O	0.937423	0.002080	-0.010597
O6	O	1.437423	0.502080	0.489403
O7	O	0.947519	0.001367	0.291241
O8	O	1.447519	0.501367	0.791241
O9	O	0.931066	-0.135977	-0.001357
O10	O	1.431066	0.364023	0.498643
O11	O	0.822291	-0.128177	0.157439
O12	O	1.322291	0.371823	0.657439
O13	O	1.049937	-0.144491	0.141685
O14	O	1.549937	0.355509	0.641685
Zn15	Zn	0.935105	-0.158253	0.151029
Zn16	Zn	1.435105	0.341747	0.651029
Zn17	Zn	0.943480	0.023643	0.138855
Zn18	Zn	1.443480	0.523643	0.638855
O19	O	0.941162	-0.136690	0.300481
O20	O	1.441162	0.363310	0.800481
C21	C	0.796129	-0.057046	0.152041
C22	C	1.296129	0.442954	0.652041
C23	C	0.708704	-0.050781	0.149710
C24	C	1.208704	0.449219	0.649710
C25	C	0.214424	-0.011516	0.136233
C26	C	0.714424	0.488484	0.636233
C27	C	0.296569	-0.017414	0.138425
C28	C	0.796569	0.482586	0.638425
C29	C	0.334168	-0.095619	0.144564
C30	C	0.834168	0.404381	0.644564
C31	C	0.289618	-0.167930	0.148503
C32	C	0.789618	0.332070	0.648503
C33	C	0.207475	-0.162031	0.146304
C34	C	0.707475	0.337969	0.646304
C35	C	0.582012	-0.117194	0.151449
C36	C	1.082012	0.382806	0.651449
C37	C	0.664161	-0.123087	0.153651
C38	C	1.164161	0.376913	0.653651
C39	C	0.671106	0.027430	0.143571
C40	C	1.171106	0.527430	0.643571
C41	C	0.588961	0.033322	0.141378
C42	C	1.088961	0.533322	0.641378
C43	C	0.544419	-0.038990	0.145311
C44	C	1.044419	0.461010	0.645311
C45	C	0.418132	-0.101649	0.146808
C46	C	0.918132	0.398351	0.646808
C47	C	0.460456	-0.032959	0.143060
C48	C	0.960456	0.467041	0.643060
N49	N	0.929394	-0.282393	0.159337
N50	N	1.429394	0.217607	0.659337
C51	C	0.975583	-0.329290	0.091961
C52	C	1.475583	0.170710	0.591961
C53	C	0.971597	-0.416193	0.097783
C54	C	1.471597	0.083807	0.597783
C55	C	0.921425	-0.456198	0.170985
C56	C	1.421425	0.043802	0.670985
C57	C	0.875231	-0.409294	0.238363
C58	C	1.375231	0.090706	0.738363
C59	C	0.879213	-0.322392	0.232536
C60	C	1.379213	0.177608	0.732536
C61	C	0.906985	-0.718412	0.192091
C62	C	1.406985	-0.218412	0.692091
C63	C	0.903007	-0.805320	0.197915
C64	C	1.403007	-0.305320	0.697915
C65	C	0.999372	-0.812214	0.057332
C66	C	1.499372	-0.312214	0.557332
C67	C	1.003354	-0.725310	0.051516
C68	C	1.503354	-0.225310	0.551516
C69	C	0.957157	-0.678414	0.118890
C70	C	1.457157	-0.178414	0.618890
C71	C	0.917350	-0.545027	0.176939
C72	C	1.417350	-0.045027	0.676939
C73	C	0.961228	-0.589586	0.112930
C74	C	1.461228	-0.089586	0.612930
C75	C	1.082455	-0.077563	0.137843
C76	C	1.582455	0.422437	0.637843
C77	C	1.169880	-0.083822	0.140174
C78	C	1.669880	0.416178	0.640174
C79	C	0.930834	-0.066704	-0.044609
C80	C	1.430834	0.433296	0.455391
C81	C	0.920662	-0.065973	-0.159719
C82	C	1.420662	0.434027	0.340281
N83	N	0.949196	0.147782	0.130540
N84	N	1.449196	0.647782	0.630540
C85	C	1.042944	-0.074719	-0.400278
C86	C	1.542944	0.425281	0.099722
C87	C	1.033391	-0.074033	-0.508435
C88	C	1.533391	0.425967	-0.008435
C89	C	0.892003	-0.063909	-0.484193
C90	C	1.392003	0.436091	0.015807
C91	C	0.901557	-0.064595	-0.376036
C92	C	1.401557	0.435405	0.123964
C93	C	0.977029	-0.070002	-0.334083
C94	C	1.477029	0.429998	0.165917
C95	C	0.986582	-0.070694	-0.225923
C96	C	1.486582	0.429306	0.274077
C97	C	0.845195	-0.060564	-0.201683
C98	C	1.345195	0.439436	0.298317
C99	C	0.835642	-0.059878	-0.309841
C100	C	1.335642	0.440122	0.190159
C101	C	0.947751	-0.067905	0.334493
C102	C	1.447751	0.432095	0.834493
C103	C	0.957923	-0.068630	0.449603
C104	C	1.457923	0.431370	0.949603
H105	H	0.707381	0.086302	0.140367
H106	H	1.207381	0.586302	0.640367
H107	H	0.869370	-0.680236	0.246952
H108	H	1.369370	-0.180236	0.746952
H109	H	1.048035	-0.075099	-0.191766
H110	H	1.548035	0.424901	0.308234
Br111	Br	0.807132	-0.463582	0.337705
Br112	Br	1.307132	0.036418	0.837705
Br113	Br	0.755733	-0.054176	-0.111839
Br114	Br	1.255733	0.445824	0.388161
H115	H	0.183817	0.052166	0.131241
H116	H	0.683817	0.552166	0.631241
H117	H	0.841600	-0.284209	0.287399
H118	H	1.341600	0.215791	0.787399
H119	H	1.036983	-0.850404	0.002478
H120	H	1.536983	-0.350404	0.502478
H121	H	0.332833	0.041465	0.135209
H122	H	0.832833	0.541465	0.635209
Br123	Br	0.340644	-0.274066	0.156830
Br124	Br	0.840644	0.225934	0.656830
H125	H	0.429839	0.030715	0.138057
H126	H	0.929839	0.530715	0.638057
H127	H	1.087066	-0.077872	-0.562329
H128	H	1.587066	0.422128	-0.062329
H129	H	0.774194	-0.055473	-0.344015
H130	H	1.274194	0.444527	0.155985
H131	H	0.558354	0.097004	0.136377
H132	H	1.058354	0.597004	0.636377
H133	H	0.694771	-0.186773	0.158658
H134	H	1.194771	0.313227	0.658658
H135	H	0.171208	-0.220911	0.149524
H136	H	0.671208	0.279089	0.649524
H137	H	0.545756	-0.176075	0.154636
H138	H	1.045756	0.323925	0.654636
Br139	Br	0.469166	-0.207781	0.155150
Br140	Br	0.969166	0.292219	0.655150
Br141	Br	1.043684	-0.275008	-0.007383
Br142	Br	1.543684	0.224992	0.492617
Br143	Br	1.034279	-0.479842	0.006340
Br144	Br	1.534279	0.020158	0.506340
H145	H	1.044208	-0.692741	-0.008091
H146	H	1.544208	-0.192741	0.491909
H147	H	0.862149	-0.837888	0.257530
H148	H	1.362149	-0.337888	0.757530
H149	H	1.002075	-0.557012	0.053325
H150	H	1.502075	-0.057012	0.553325
Br151	Br	0.849260	-0.599322	0.276285
Br152	Br	1.349260	-0.099322	0.776285
Br153	Br	1.145366	-0.082081	-0.343334
Br154	Br	1.645366	0.417919	0.156666
H155	H	0.830557	-0.059499	-0.518372
H156	H	1.330557	0.440501	-0.018372
