data_functionalizedCrystal
_audit_creation_method	'MofGen! by Chris Wilmer'
_symmetry_space_group_name_H-M	'P1'
_symmetry_Int_Tables_number	1
_symmetry_cell_setting	triclinic
loop_
_symmetry_equiv_pos_as_xyz
  x,y,z
_cell_length_a	19.077105
_cell_length_b	12.594516
_cell_length_c	19.077271
_cell_angle_alpha	87.678591
_cell_angle_beta	89.892926
_cell_angle_gamma	87.712633
loop_
_atom_site_label
_atom_site_type_symbol
_atom_site_fract_x
_atom_site_fract_y
_atom_site_fract_z
Zn1	Zn	1.058317	-0.461397	-0.440456
Zn2	Zn	1.558317	0.038603	0.059544
Zn3	Zn	1.062974	-0.646817	-0.322958
Zn4	Zn	1.562974	-0.146817	0.177042
Zn5	Zn	0.945534	-0.461992	-0.318247
Zn6	Zn	1.445534	0.038008	0.181753
Zn7	Zn	0.940795	-0.632471	-0.435712
Zn8	Zn	1.440795	-0.132471	0.064288
O9	O	1.001905	-0.550669	-0.379343
O10	O	1.501905	-0.050669	0.120657
O11	O	1.157268	-0.491749	-0.428826
O12	O	1.657268	0.008251	0.071174
O13	O	1.051327	-0.628552	-0.224000
O14	O	1.551327	-0.128552	0.276000
O15	O	0.960530	-0.312969	-0.334471
O16	O	1.460530	0.187031	0.165529
O17	O	1.160689	-0.627975	-0.342502
O18	O	1.660689	-0.127975	0.157498
O19	O	1.043391	-0.312532	-0.424258
O20	O	1.543391	0.187468	0.075742
O21	O	0.965045	-0.492762	-0.220539
O22	O	1.465045	0.007238	0.279461
O23	O	0.846573	-0.478851	-0.329872
O24	O	1.346573	0.021149	0.170128
O25	O	0.952453	-0.603525	-0.534674
O26	O	1.452453	-0.103525	-0.034674
O27	O	0.843092	-0.604101	-0.416173
O28	O	1.343092	-0.104101	0.083827
O29	O	1.038796	-0.477838	-0.538159
O30	O	1.538796	0.022162	-0.038159
O31	O	1.046732	-0.793858	-0.337902
O32	O	1.546732	-0.293858	0.162098
O33	O	0.956968	-0.783318	-0.420742
O34	O	1.456968	-0.283318	0.079258
C35	C	0.819336	-0.539985	-0.371997
C36	C	1.319336	-0.039985	0.128003
C37	C	0.741231	-0.535439	-0.368871
C38	C	1.241231	-0.035439	0.131129
C39	C	0.702746	-0.598621	-0.412264
C40	C	1.202746	-0.098621	0.087736
C41	C	0.629358	-0.594335	-0.409330
C42	C	1.129358	-0.094335	0.090670
C43	C	0.594457	-0.526872	-0.362999
C44	C	1.094457	-0.026872	0.137001
C45	C	0.632948	-0.463683	-0.319604
C46	C	1.132948	0.036317	0.180396
C47	C	0.706334	-0.467964	-0.322542
C48	C	1.206334	0.032036	0.177458
C49	C	0.375168	-0.507059	-0.349405
C50	C	0.875168	-0.007059	0.150595
C51	C	0.301777	-0.502785	-0.346468
C52	C	0.801777	-0.002785	0.153532
C53	C	0.298192	-0.633436	-0.436196
C54	C	0.798192	-0.133436	0.063804
C55	C	0.371580	-0.637716	-0.439127
C56	C	0.871580	-0.137716	0.060873
C57	C	0.410064	-0.574523	-0.395735
C58	C	0.910064	-0.074523	0.104265
N59	N	0.519443	-0.522492	-0.359997
N60	N	1.019443	-0.022492	0.140003
N61	N	0.485077	-0.578898	-0.398740
N62	N	0.985077	-0.078898	0.101260
C63	C	1.001859	-0.827208	-0.379334
C64	C	1.501859	-0.327208	0.120666
C65	C	1.001903	-0.945515	-0.379357
C66	C	1.501903	-0.445515	0.120643
C67	C	0.953077	-1.009076	-0.424380
C68	C	1.453077	-0.509076	0.075620
C69	C	0.938537	-1.082986	-0.359574
C70	C	1.438537	-0.582986	0.140426
C71	C	1.016507	-1.082406	-0.444177
C72	C	1.516507	-0.582406	0.055823
C73	C	0.987330	-1.017867	-0.314515
C74	C	1.487330	-0.517867	0.185485
C75	C	1.065329	-1.017280	-0.399162
C76	C	1.565329	-0.517280	0.100838
C77	C	1.050814	-1.091163	-0.334313
C78	C	1.550814	-0.591163	0.165687
C79	C	1.185187	-0.561396	-0.386719
C80	C	1.685187	-0.061396	0.113281
C81	C	1.263291	-0.565967	-0.389862
C82	C	1.763291	-0.065967	0.110138
C83	C	0.994576	-0.539015	-0.562626
C84	C	1.494576	-0.039015	-0.062626
C85	C	0.991453	-0.534048	-0.640731
C86	C	1.491453	-0.034048	-0.140731
C87	C	1.001970	-0.273051	-0.379368
C88	C	1.501970	0.226949	0.120632
C89	C	1.001997	-0.154746	-0.379379
C90	C	1.501997	0.345254	0.120621
C91	C	0.969053	-0.498512	-1.080183
C92	C	1.469053	0.001488	-0.580183
C93	C	0.971991	-0.503175	-1.006795
C94	C	1.471991	-0.003175	-0.506795
C95	C	1.018378	-0.576210	-0.971903
C96	C	1.518378	-0.076210	-0.471903
C97	C	1.061836	-0.644579	-1.010402
C98	C	1.561836	-0.144579	-0.510402
C99	C	1.058901	-0.639911	-1.083788
C100	C	1.558901	-0.139911	-0.583788
C101	C	1.031976	-0.597749	-0.752616
C102	C	1.531976	-0.097749	-0.252616
C103	C	1.034906	-0.602415	-0.679224
C104	C	1.534906	-0.102415	-0.179224
C105	C	0.945061	-0.461008	-0.675623
C106	C	1.445061	0.038992	-0.175623
C107	C	0.942127	-0.456350	-0.749010
C108	C	1.442127	0.043650	-0.249010
C109	C	0.985588	-0.524716	-0.787503
C110	C	1.485588	-0.024716	-0.287503
N111	N	1.021381	-0.580980	-0.896890
N112	N	1.521381	-0.080980	-0.396890
N113	N	0.982588	-0.519940	-0.862515
N114	N	1.482588	-0.019940	-0.362515
C115	C	1.009246	-0.562204	-0.196775
C116	C	1.509246	-0.062204	0.303225
C117	C	1.012506	-0.566879	-0.118676
C118	C	1.512506	-0.066879	0.381324
H119	H	0.604526	-0.408748	-0.281883
H120	H	1.104526	0.091252	0.218117
C121	C	0.302021	-0.762996	-0.525188
C122	C	0.802021	-0.262996	-0.025188
C123	C	0.255890	-0.702882	-0.483900
C124	C	0.755890	-0.202882	0.016100
H125	H	0.275904	-0.805870	-0.554639
H126	H	0.775904	-0.305870	-0.054639
H127	H	0.329581	-0.716639	-0.553257
H128	H	0.829581	-0.216639	-0.053257
H129	H	0.331857	-0.807261	-0.495667
H130	H	0.831857	-0.307261	0.004333
H131	H	0.226057	-0.658610	-0.513422
H132	H	0.726057	-0.158610	-0.013422
H133	H	0.228318	-0.749244	-0.455829
H134	H	0.728318	-0.249244	0.044171
C135	C	1.074263	-1.203167	-0.231515
C136	C	1.574263	-0.703167	0.268485
C137	C	1.106610	-1.139323	-0.282868
C138	C	1.606610	-0.639323	0.217132
H139	H	1.108708	-1.232905	-0.199757
H140	H	1.608708	-0.732905	0.300243
H141	H	1.040856	-1.161182	-0.206697
H142	H	1.540856	-0.661182	0.293303
H143	H	1.051295	-1.258723	-0.253264
H144	H	1.551295	-0.758723	0.246736
H145	H	1.129573	-1.083762	-0.261119
H146	H	1.629573	-0.583762	0.238881
H147	H	1.140029	-1.181310	-0.307688
H148	H	1.640029	-0.681310	0.192312
H149	H	0.974954	-0.989544	-0.259689
H150	H	1.474954	-0.489544	0.240311
H151	H	0.936606	-0.447505	-0.975457
H152	H	1.436606	0.052495	-0.475457
H153	H	0.931277	-0.439041	-1.108586
H154	H	1.431277	0.060959	-0.608586
H155	H	1.099609	-0.704042	-0.981987
H156	H	1.599609	-0.204042	-0.481987
C157	C	0.312687	-0.374050	-0.258076
C158	C	0.812687	0.125950	0.241924
C159	C	0.263412	-0.428618	-0.295541
C160	C	0.763412	0.071382	0.204459
H161	H	0.289000	-0.328263	-0.226640
H162	H	0.789000	0.171737	0.273360
H163	H	0.342375	-0.423735	-0.232290
H164	H	0.842375	0.076265	0.267710
H165	H	0.340096	-0.333131	-0.289893
H166	H	0.840096	0.166869	0.210107
H167	H	0.236006	-0.469544	-0.263724
H168	H	0.736006	0.030456	0.236276
H169	H	0.233711	-0.378927	-0.321329
H170	H	0.733711	0.121073	0.178671
H171	H	0.737668	-0.416508	-0.287210
H172	H	1.237668	0.083492	0.212790
H173	H	0.406493	-0.455611	-0.314066
H174	H	0.906493	0.044389	0.185934
H175	H	0.399991	-0.692654	-0.476853
H176	H	0.899991	-0.192654	0.023147
C177	C	1.147997	-0.780160	-1.079981
C178	C	1.647997	-0.280160	-0.579981
C179	C	1.106663	-0.715065	-1.126103
C180	C	1.606663	-0.215065	-0.626103
H181	H	1.177483	-0.826560	-1.106106
H182	H	1.677483	-0.326560	-0.606106
H183	H	1.176031	-0.737183	-1.052445
H184	H	1.676031	-0.237183	-0.552445
H185	H	1.118508	-0.820899	-1.050122
H186	H	1.618508	-0.320899	-0.550122
H187	H	1.136153	-0.674320	-1.155959
H188	H	1.636153	-0.174320	-0.655959
H189	H	1.078627	-0.758047	-1.153652
H190	H	1.578627	-0.258047	-0.653652
C191	C	1.152798	-1.010540	-0.489712
C192	C	1.652798	-0.510540	0.010288
C193	C	1.137659	-0.978153	-0.421794
C194	C	1.637659	-0.478153	0.078206
H195	H	1.197449	-0.986376	-0.503690
H196	H	1.697449	-0.486376	-0.003690
H197	H	1.153239	-1.085938	-0.490300
H198	H	1.653239	-0.585938	0.009700
H199	H	1.117977	-0.981254	-0.521211
H200	H	1.617977	-0.481254	-0.021211
H201	H	1.172477	-1.007447	-0.390294
H202	H	1.672477	-0.507447	0.109706
H203	H	1.137224	-0.902741	-0.421201
H204	H	1.637224	-0.402741	0.078799
H205	H	0.911718	-0.973219	-0.462395
H206	H	1.411718	-0.473219	0.037605
C207	C	0.815083	-1.080434	-0.384172
C208	C	1.315083	-0.580434	0.115828
C209	C	0.866186	-1.122075	-0.336966
C210	C	1.366186	-0.622075	0.163034
H211	H	0.770418	-1.104569	-0.370219
H212	H	1.270418	-0.604569	0.129781
H213	H	0.814404	-1.004971	-0.384411
H214	H	1.314404	-0.504971	0.115589
H215	H	0.825767	-1.103540	-0.429899
H216	H	1.325767	-0.603540	0.070101
H217	H	0.855505	-1.098963	-0.291239
H218	H	1.355505	-0.598963	0.208761
H219	H	0.866863	-1.197554	-0.336719
H220	H	1.366863	-0.697554	0.163281
C221	C	0.633187	-0.723937	-0.498295
C222	C	1.133187	-0.223937	0.001705
C223	C	0.587056	-0.663805	-0.457018
C224	C	1.087056	-0.163805	0.042982
H225	H	0.607070	-0.766834	-0.527731
H226	H	1.107070	-0.266834	-0.027731
H227	H	0.660741	-0.677592	-0.526379
H228	H	1.160741	-0.177592	-0.026379
H229	H	0.663029	-0.768181	-0.468766
H230	H	1.163029	-0.268181	0.031234
H231	H	0.557217	-0.619556	-0.486547
H232	H	1.057217	-0.119556	0.013453
H233	H	0.559490	-0.710156	-0.428931
H234	H	1.059490	-0.210156	0.071069
H235	H	1.028822	-1.110855	-0.498985
H236	H	1.528822	-0.610855	0.001015
H237	H	0.904351	-0.396882	-0.777414
H238	H	1.404351	0.103118	-0.277414
C239	C	0.909669	-0.405367	-0.561528
C240	C	1.409669	0.094633	-0.061528
C241	C	0.897298	-0.385854	-0.633310
C242	C	1.397298	0.114146	-0.133310
H243	H	0.880185	-0.358960	-0.535409
H244	H	1.380185	0.141040	-0.035409
H245	H	0.899842	-0.477033	-0.549084
H246	H	1.399842	0.022967	-0.049084
H247	H	0.957370	-0.393324	-0.551410
H248	H	1.457370	0.106676	-0.051410
H249	H	0.849599	-0.397905	-0.643429
H250	H	1.349599	0.102095	-0.143429
H251	H	0.907120	-0.314172	-0.645759
H252	H	1.407120	0.185828	-0.145759
C253	C	1.069991	-0.786092	-0.657988
C254	C	1.569991	-0.286092	-0.157988
C255	C	1.085895	-0.682703	-0.640865
C256	C	1.585895	-0.182703	-0.140865
H257	H	1.101468	-0.835656	-0.634308
H258	H	1.601468	-0.335656	-0.134308
H259	H	1.023257	-0.799655	-0.644066
H260	H	1.523257	-0.299655	-0.144066
H261	H	1.074474	-0.793086	-0.707203
H262	H	1.574474	-0.293086	-0.207203
H263	H	1.081407	-0.675708	-0.591650
H264	H	1.581407	-0.175708	-0.091650
H265	H	1.132640	-0.669137	-0.654783
H266	H	1.632640	-0.169137	-0.154783
C267	C	0.781516	-0.612437	-0.510070
C268	C	1.281516	-0.112437	-0.010070
C269	C	0.741108	-0.672778	-0.463193
C270	C	1.241108	-0.172778	0.036807
H271	H	0.805201	-0.658220	-0.541510
H272	H	1.305201	-0.158220	-0.041510
H273	H	0.751823	-0.562754	-0.535852
H274	H	1.251823	-0.062754	-0.035852
H275	H	0.814939	-0.575428	-0.484638
H276	H	1.314939	-0.075428	0.015362
H277	H	0.707682	-0.709781	-0.488625
H278	H	1.207682	-0.209781	0.011375
H279	H	0.770804	-0.722480	-0.437409
H280	H	1.270804	-0.222480	0.062591
C281	C	1.150050	-0.655135	-0.779958
C282	C	1.650050	-0.155135	-0.279958
C283	C	1.079749	-0.672907	-0.794910
C284	C	1.579749	-0.172907	-0.294910
H285	H	1.179545	-0.701543	-0.806065
H286	H	1.679545	-0.201543	-0.306065
H287	H	1.159868	-0.583469	-0.792413
H288	H	1.659868	-0.083469	-0.292413
H289	H	1.158415	-0.668357	-0.731254
H290	H	1.658415	-0.168357	-0.231254
H291	H	1.071383	-0.659676	-0.843614
H292	H	1.571383	-0.159676	-0.343614
H293	H	1.069927	-0.744588	-0.782460
H294	H	1.569927	-0.244588	-0.282460
