data_functionalizedCrystal
_audit_creation_method	'MofGen! by Chris Wilmer'
_symmetry_space_group_name_H-M	'P1'
_symmetry_Int_Tables_number	1
_symmetry_cell_setting	triclinic
loop_
_symmetry_equiv_pos_as_xyz
  x,y,z
_cell_length_a	8.559649
_cell_length_b	7.681481
_cell_length_c	16.109301
_cell_angle_alpha	95.736840
_cell_angle_beta	76.620073
_cell_angle_gamma	85.081220
loop_
_atom_site_label
_atom_site_type_symbol
_atom_site_fract_x
_atom_site_fract_y
_atom_site_fract_z
O1	O	2.105023	0.146399	-0.019376
O2	O	1.639795	0.146411	0.023563
O3	O	1.885191	0.146387	-0.119753
O4	O	1.859627	0.146423	0.123940
O5	O	1.915416	-0.146474	-0.137419
O6	O	1.670020	-0.146449	0.005897
O7	O	2.135248	-0.146462	-0.037042
Zn8	Zn	1.907433	-0.192954	-0.018377
Zn9	Zn	1.867610	0.192903	0.004898
O10	O	1.889852	-0.146437	0.106274
C11	C	1.595376	-0.000018	0.017984
C12	C	1.417991	-0.000014	0.027671
N13	N	1.934623	-0.456290	-0.034263
C14	C	1.899268	-0.000044	-0.159495
C15	C	1.896164	-0.000047	-0.251592
C16	C	2.179667	-0.000029	-0.031463
C17	C	2.357051	-0.000021	-0.041149
N18	N	1.840433	0.456240	0.020777
C19	C	2.034556	-0.000023	-0.482680
C20	C	2.031625	-0.000008	-0.569213
C21	C	1.740474	-0.000007	-0.530790
C22	C	1.743405	-0.000009	-0.444258
C23	C	1.890452	-0.000026	-0.420207
C24	C	1.884590	-0.000009	-0.593271
C25	C	1.881411	0.000007	-0.687094
C26	C	1.893631	-0.000038	-0.326378
C27	C	1.875774	-0.000002	0.146016
C28	C	1.878877	0.000012	0.238114
H29	H	1.440583	-0.000023	-0.107477
H30	H	2.030784	-0.531497	-0.090438
Br31	Br	1.680168	-0.418409	0.114423
H32	H	2.154290	-0.000032	-0.463101
Br33	Br	2.227203	0.000007	-0.653997
Br34	Br	1.547818	0.000010	-0.359463
Br35	Br	1.278760	0.000028	0.138235
Br36	Br	1.540920	0.000021	-0.563437
