data_functionalizedCrystal
_audit_creation_method	'MofGen! by Chris Wilmer'
_symmetry_space_group_name_H-M	'P1'
_symmetry_Int_Tables_number	1
_symmetry_cell_setting	triclinic
loop_
_symmetry_equiv_pos_as_xyz
  x,y,z
_cell_length_a	13.897441
_cell_length_b	12.759401
_cell_length_c	12.759399
_cell_angle_alpha	90.016641
_cell_angle_beta	90.029233
_cell_angle_gamma	90.020083
loop_
_atom_site_label
_atom_site_type_symbol
_atom_site_fract_x
_atom_site_fract_y
_atom_site_fract_z
Zn1	Zn	-0.545374	-1.606254	0.418190
Zn2	Zn	-0.384079	-1.606147	0.593901
Zn3	Zn	-0.384094	-1.430556	0.418241
Zn4	Zn	-0.545333	-1.430544	0.593832
O5	O	-0.464720	-1.518375	0.506041
O6	O	-0.523988	-1.753261	0.441506
O7	O	-0.249099	-1.582814	0.570649
O8	O	-0.405511	-1.453913	0.271213
O9	O	-0.405486	-1.753182	0.570599
O10	O	-0.524003	-1.582998	0.271176
O11	O	-0.249110	-1.453808	0.441592
O12	O	-0.405472	-1.283533	0.441526
O13	O	-0.680320	-1.453892	0.570483
O14	O	-0.523934	-1.283524	0.570532
O15	O	-0.680350	-1.582986	0.441440
O16	O	-0.405446	-1.582803	0.740912
O17	O	-0.523919	-1.453788	0.740862
C18	C	-0.464701	-1.245408	0.506028
C19	C	-0.464715	-1.128631	0.506048
C20	C	-0.716313	-1.518450	0.505948
C21	C	-0.823527	-1.518482	0.505908
C22	C	-0.464698	-1.518311	0.779008
C23	C	-0.464721	-1.518379	0.895785
C24	C	-1.019822	-1.518510	0.505837
C25	C	-0.910590	-1.518491	0.505880
C26	C	-0.214106	-1.518361	0.506058
C27	C	-0.106892	-1.518533	0.505801
C28	C	-0.464740	-1.792408	0.506055
C29	C	-0.464748	-1.909185	0.506060
C30	C	-0.526301	-1.073792	0.573324
C31	C	-0.526321	-0.964068	0.573328
C32	C	-0.403159	-0.964032	0.438777
C33	C	-0.403146	-1.073754	0.438769
C34	C	-0.464763	-1.518469	0.232008
C35	C	-0.464781	-1.518508	0.115231
C36	C	-0.403102	-1.585634	0.950638
C37	C	-0.403134	-1.585702	1.060362
C38	C	-0.526407	-1.451251	1.060370
C39	C	-0.526379	-1.451189	0.950648
H40	H	-0.576438	-1.118470	0.628104
N41	N	-0.336712	-1.132897	0.366199
H42	H	-0.291937	-1.178391	0.408828
H43	H	-0.376054	-1.178389	0.317573
H44	H	-0.576472	-0.919423	0.628109
H45	H	-0.576561	-1.396422	0.905984
H46	H	-0.353030	-0.919337	0.384003
H47	H	-0.352898	-1.640346	0.905971
H48	H	-0.352960	-1.640469	1.105019
H49	H	-0.576605	-1.396545	1.105053
