data_functionalizedCrystal
_audit_creation_method	'MofGen! by Chris Wilmer'
_symmetry_space_group_name_H-M	'P1'
_symmetry_Int_Tables_number	1
_symmetry_cell_setting	triclinic
loop_
_symmetry_equiv_pos_as_xyz
  x,y,z
_cell_length_a	14.519731
_cell_length_b	15.944499
_cell_length_c	13.596369
_cell_angle_alpha	89.997258
_cell_angle_beta	89.994584
_cell_angle_gamma	83.583231
loop_
_atom_site_label
_atom_site_type_symbol
_atom_site_fract_x
_atom_site_fract_y
_atom_site_fract_z
O1	O	1.223641	0.110197	-0.081786
O2	O	1.473641	0.360197	0.168214
O3	O	1.723641	0.610197	0.418214
O4	O	1.973641	0.860197	0.668214
O5	O	0.955142	0.123145	-0.081787
O6	O	1.205142	0.373145	0.168213
O7	O	1.455142	0.623145	0.418213
O8	O	1.705142	0.873145	0.668213
O9	O	1.096748	-0.005596	-0.081788
O10	O	1.346748	0.244404	0.168212
O11	O	1.596748	0.494404	0.418212
O12	O	1.846748	0.744404	0.668212
O13	O	1.082034	0.238938	-0.081785
O14	O	1.332034	0.488938	0.168215
O15	O	1.582034	0.738938	0.418215
O16	O	1.832034	0.988938	0.668215
O17	O	1.096734	-0.005603	0.081795
O18	O	1.346734	0.244397	0.331795
O19	O	1.596734	0.494397	0.581795
O20	O	1.846734	0.744397	0.831795
O21	O	0.955128	0.123138	0.081796
O22	O	1.205128	0.373138	0.331796
O23	O	1.455128	0.623138	0.581796
O24	O	1.705128	0.873138	0.831796
O25	O	1.223627	0.110190	0.081797
O26	O	1.473627	0.360190	0.331797
O27	O	1.723627	0.610190	0.581797
O28	O	1.973627	0.860190	0.831797
Zn29	Zn	1.089375	0.116663	0.107769
Zn30	Zn	1.339375	0.366663	0.357769
Zn31	Zn	1.589375	0.616663	0.607769
Zn32	Zn	1.839375	0.866663	0.857769
Zn33	Zn	1.089394	0.116672	-0.107759
Zn34	Zn	1.339394	0.366672	0.142241
Zn35	Zn	1.589394	0.616672	0.392241
Zn36	Zn	1.839394	0.866672	0.642241
O37	O	1.082020	0.238931	0.081798
O38	O	1.332020	0.488931	0.331798
O39	O	1.582020	0.738931	0.581798
O40	O	1.832020	0.988931	0.831798
C41	C	0.920776	0.122535	0.000004
C42	C	1.170776	0.372535	0.250004
C43	C	1.420776	0.622535	0.500004
C44	C	1.670776	0.872535	0.750004
C45	C	0.818400	0.120717	0.000004
C46	C	1.068400	0.370717	0.250004
C47	C	1.318400	0.620717	0.500004
C48	C	1.568400	0.870717	0.750004
C49	C	0.735258	0.119240	-0.000000
C50	C	0.985258	0.369240	0.250000
C51	C	1.235258	0.619240	0.500000
C52	C	1.485258	0.869240	0.750000
C53	C	0.630953	0.117394	-0.000001
C54	C	0.880953	0.367394	0.249999
C55	C	1.130953	0.617394	0.499999
C56	C	1.380953	0.867394	0.749999
C57	C	0.547817	0.115929	-0.000000
C58	C	0.797817	0.365929	0.250000
C59	C	1.047817	0.615929	0.500000
C60	C	1.297817	0.865929	0.750000
C61	C	0.443505	0.114083	-0.000003
C62	C	0.693505	0.364083	0.249997
C63	C	0.943505	0.614083	0.499997
C64	C	1.193505	0.864083	0.749997
C65	C	1.096139	-0.036895	0.000001
C66	C	1.346139	0.213105	0.250001
C67	C	1.596139	0.463105	0.500001
C68	C	1.846139	0.713105	0.750001
C69	C	1.094333	-0.130146	-0.000007
C70	C	1.344333	0.119854	0.249993
C71	C	1.594333	0.369854	0.499993
C72	C	1.844333	0.619854	0.749993
C73	C	1.176603	-0.421557	-0.000001
C74	C	1.426603	-0.171557	0.249999
C75	C	1.676603	0.078443	0.499999
C76	C	1.926603	0.328443	0.749999
C77	C	1.133830	-0.360600	0.080657
C78	C	1.383830	-0.110600	0.330657
C79	C	1.633830	0.139400	0.580657
C80	C	1.883830	0.389400	0.830657
C81	C	1.087771	-0.465792	0.000005
C82	C	1.337771	-0.215792	0.250005
C83	C	1.587771	0.034208	0.500005
C84	C	1.837771	0.284208	0.750005
C85	C	1.133820	-0.360599	-0.080623
C86	C	1.383820	-0.110599	0.169377
C87	C	1.633820	0.139401	0.419377
C88	C	1.883820	0.389401	0.669377
C89	C	1.091000	-0.300879	-0.000002
C90	C	1.341000	-0.050879	0.249998
C91	C	1.591000	0.199121	0.499998
C92	C	1.841000	0.449121	0.749998
C93	C	1.044974	-0.406064	0.080730
C94	C	1.294974	-0.156064	0.330730
C95	C	1.544974	0.093936	0.580730
C96	C	1.794974	0.343936	0.830730
C97	C	1.044976	-0.406069	-0.080623
C98	C	1.294976	-0.156069	0.169377
C99	C	1.544976	0.093931	0.419377
C100	C	1.794976	0.343931	0.669377
C101	C	1.002139	-0.345130	0.000055
C102	C	1.252139	-0.095130	0.250055
C103	C	1.502139	0.154870	0.500055
C104	C	1.752139	0.404870	0.750055
C105	C	1.085914	-0.560795	0.000010
C106	C	1.335914	-0.310795	0.250010
C107	C	1.585914	-0.060795	0.500010
C108	C	1.835914	0.189205	0.750010
C109	C	1.092851	-0.205877	-0.000000
C110	C	1.342851	0.044123	0.250000
C111	C	1.592851	0.294123	0.500000
C112	C	1.842851	0.544123	0.750000
C113	C	1.257992	0.110800	0.000003
C114	C	1.507992	0.360800	0.250003
C115	C	1.757992	0.610800	0.500003
C116	C	2.007992	0.860800	0.750003
C117	C	1.360369	0.112618	-0.000003
C118	C	1.610369	0.362618	0.249997
C119	C	1.860369	0.612618	0.499997
C120	C	2.110369	0.862618	0.749997
C121	C	1.082630	0.270230	0.000007
C122	C	1.332630	0.520230	0.250007
C123	C	1.582630	0.770230	0.500007
C124	C	1.832630	1.020230	0.750007
C125	C	1.084436	0.363481	0.000008
C126	C	1.334436	0.613481	0.250008
C127	C	1.584436	0.863481	0.500008
C128	C	1.834436	1.113481	0.750008
N129	N	1.089369	0.116656	0.254861
N130	N	1.339369	0.366656	0.504861
N131	N	1.589369	0.616656	0.754861
N132	N	1.839369	0.866656	1.004861
N133	N	1.089407	0.116672	-0.254851
N134	N	1.339407	0.366672	-0.004851
N135	N	1.589407	0.616672	0.245149
N136	N	1.839407	0.866672	0.495149
C137	C	1.089392	0.116673	0.656151
C138	C	1.339392	0.366673	0.906151
C139	C	1.589392	0.616673	1.156151
C140	C	1.839392	0.866673	1.406151
C141	C	1.089383	0.116671	0.544500
C142	C	1.339383	0.366671	0.794500
C143	C	1.589383	0.616671	1.044500
C144	C	1.839383	0.866671	1.294500
C145	C	1.089381	0.116665	0.455510
C146	C	1.339381	0.366665	0.705510
C147	C	1.589381	0.616665	0.955510
C148	C	1.839381	0.866665	1.205510
C149	C	1.089371	0.116662	0.343851
C150	C	1.339371	0.366662	0.593851
C151	C	1.589371	0.616662	0.843851
C152	C	1.839371	0.866662	1.093851
H153	H	1.171397	-0.340455	0.148846
H154	H	1.421397	-0.090455	0.398846
H155	H	1.671397	0.159545	0.648846
H156	H	1.921397	0.409545	0.898846
H157	H	0.928354	-0.312060	0.000102
H158	H	1.178354	-0.062060	0.250102
H159	H	1.428354	0.187940	0.500102
H160	H	1.678354	0.437940	0.750102
H161	H	1.007426	-0.426105	0.148991
H162	H	1.257426	-0.176105	0.398991
H163	H	1.507426	0.073895	0.648991
H164	H	1.757426	0.323895	0.898991
H165	H	1.007441	-0.426236	-0.148815
H166	H	1.257441	-0.176236	0.101185
H167	H	1.507441	0.073764	0.351185
H168	H	1.757441	0.323764	0.601185
H169	H	1.171413	-0.340459	-0.148807
H170	H	1.421413	-0.090459	0.101193
H171	H	1.671413	0.159541	0.351193
H172	H	1.921413	0.409541	0.601193
H173	H	1.250324	-0.454774	0.000076
H174	H	1.500324	-0.204774	0.250076
H175	H	1.750324	0.045226	0.500076
H176	H	2.000324	0.295226	0.750076
