data_functionalizedCrystal
_audit_creation_method	'MofGen! by Chris Wilmer'
_symmetry_space_group_name_H-M	'P1'
_symmetry_Int_Tables_number	1
_symmetry_cell_setting	triclinic
loop_
_symmetry_equiv_pos_as_xyz
  x,y,z
_cell_length_a	19.077212
_cell_length_b	10.685194
_cell_length_c	19.076929
_cell_angle_alpha	87.721472
_cell_angle_beta	89.887364
_cell_angle_gamma	96.482056
loop_
_atom_site_label
_atom_site_type_symbol
_atom_site_fract_x
_atom_site_fract_y
_atom_site_fract_z
Zn1	Zn	1.039588	-0.457966	-0.420251
Zn2	Zn	1.539588	0.042034	0.079749
Zn3	Zn	1.035982	-0.660163	-0.293768
Zn4	Zn	1.535982	-0.160163	0.206232
Zn5	Zn	0.926835	-0.457312	-0.298056
Zn6	Zn	1.426835	0.042688	0.201944
Zn7	Zn	0.913110	-0.676982	-0.405754
Zn8	Zn	1.413110	-0.176982	0.094246
O9	O	0.978878	-0.563105	-0.354457
O10	O	1.478878	-0.063105	0.145543
O11	O	1.137719	-0.478022	-0.407745
O12	O	1.637719	0.021978	0.092255
O13	O	1.025737	-0.625942	-0.196331
O14	O	1.525737	-0.125942	0.303669
O15	O	0.949045	-0.280846	-0.322127
O16	O	1.449045	0.219154	0.177873
O17	O	1.135070	-0.626576	-0.314818
O18	O	1.635070	-0.126576	0.185182
O19	O	1.031884	-0.281326	-0.411903
O20	O	1.531884	0.218674	0.088097
O21	O	0.945548	-0.476908	-0.199481
O22	O	1.445548	0.023092	0.300519
O23	O	0.826404	-0.493217	-0.308070
O24	O	1.326404	0.006783	0.191930
O25	O	0.925653	-0.655241	-0.505683
O26	O	1.425653	-0.155241	-0.005683
O27	O	0.816321	-0.654607	-0.387195
O28	O	1.316321	-0.154607	0.112805
O29	O	1.018576	-0.494331	-0.516333
O30	O	1.518576	0.005669	-0.016333
O31	O	1.012429	-0.838946	-0.300761
O32	O	1.512429	-0.338946	0.199239
O33	O	0.922156	-0.851303	-0.383037
O34	O	1.422156	-0.351303	0.116963
C35	C	0.795794	-0.575667	-0.346525
C36	C	1.295794	-0.075667	0.153475
C37	C	0.717468	-0.581073	-0.343147
C38	C	1.217468	-0.081073	0.156853
C39	C	0.276425	-0.619791	-0.318953
C40	C	0.776425	-0.119791	0.181047
C41	C	0.350022	-0.614705	-0.322122
C42	C	0.850022	-0.114705	0.177878
C43	C	0.388193	-0.534955	-0.372156
C44	C	0.888193	-0.034955	0.127844
C45	C	0.352765	-0.460278	-0.419019
C46	C	0.852765	0.039722	0.080981
C47	C	0.279170	-0.465359	-0.415846
C48	C	0.779170	0.034641	0.084154
C49	C	0.608445	-0.511476	-0.386837
C50	C	1.108445	-0.011476	0.113163
C51	C	0.682044	-0.506404	-0.390008
C52	C	1.182044	-0.006404	0.109992
C53	C	0.679297	-0.660830	-0.293110
C54	C	1.179297	-0.160830	0.206890
C55	C	0.605700	-0.665908	-0.289944
C56	C	1.105700	-0.165908	0.210056
C57	C	0.570279	-0.591226	-0.336805
C58	C	1.070279	-0.091226	0.163195
N59	N	0.463420	-0.529758	-0.375398
N60	N	0.963420	-0.029758	0.124602
N61	N	0.495053	-0.596418	-0.333559
N62	N	0.995053	-0.096418	0.166441
C63	C	0.965431	-0.890903	-0.339877
C64	C	1.465431	-0.390903	0.160123
C65	C	0.959741	-1.031133	-0.333666
C66	C	1.459741	-0.531133	0.166334
C67	C	1.162678	-0.550496	-0.362420
C68	C	1.662678	-0.050496	0.137580
C69	C	1.241002	-0.545122	-0.365814
C70	C	1.741002	-0.045122	0.134186
C71	C	0.970986	-0.576735	-0.537130
C72	C	1.470986	-0.076735	-0.037130
C73	C	0.967622	-0.582543	-0.614975
C74	C	1.467622	-0.082543	-0.114975
C75	C	0.992397	-0.234028	-0.369110
C76	C	1.492397	0.265972	0.130890
C77	C	0.998158	-0.093795	-0.375354
C78	C	1.498158	0.406205	0.124646
C79	C	0.943499	-0.624300	-1.052559
C80	C	1.443499	-0.124300	-0.552559
C81	C	0.946658	-0.618824	-0.979416
C82	C	1.446658	-0.118824	-0.479416
C83	C	0.996620	-0.532316	-0.948394
C84	C	1.496620	-0.032316	-0.448394
C85	C	1.043422	-0.451270	-0.990518
C86	C	1.543422	0.048730	-0.490518
C87	C	1.040260	-0.456740	-1.063659
C88	C	1.540260	0.043260	-0.563659
C89	C	1.011262	-0.506967	-0.730240
C90	C	1.511262	-0.006967	-0.230240
C91	C	1.014422	-0.501505	-0.657093
C92	C	1.514422	-0.001505	-0.157093
C93	C	0.917657	-0.669059	-0.645997
C94	C	1.417657	-0.169059	-0.145997
C95	C	0.914502	-0.674527	-0.719140
C96	C	1.414502	-0.174527	-0.219140
C97	C	0.961301	-0.593476	-0.761258
C98	C	1.461301	-0.093476	-0.261258
N99	N	0.999851	-0.526720	-0.873631
N100	N	1.499851	-0.026720	-0.373631
N101	N	0.958066	-0.599067	-0.836020
N102	N	1.458066	-0.099067	-0.336020
C103	C	0.986785	-0.549435	-0.172500
C104	C	1.486785	-0.049435	0.327500
C105	C	0.990299	-0.543262	-0.094678
C106	C	1.490299	-0.043262	0.405322
H107	H	0.250329	-0.404551	-0.454003
H108	H	0.750329	0.095449	0.045997
Cl109	Cl	0.394553	-0.708547	-0.263193
Cl110	Cl	0.894553	-0.208547	0.236807
Cl111	Cl	1.055663	-1.010994	-0.437803
Cl112	Cl	1.555663	-0.510994	0.062197
H113	H	0.922488	-1.084773	-0.293222
H114	H	1.422488	-0.584773	0.206778
Cl115	Cl	0.228445	-0.720063	-0.256055
Cl116	Cl	0.728445	-0.220063	0.243945
Cl117	Cl	0.557722	-0.766132	-0.227024
Cl118	Cl	1.057722	-0.266132	0.272976
H119	H	0.902817	-0.694749	-1.077812
H120	H	1.402817	-0.194749	-0.577812
Cl121	Cl	0.723831	-0.754704	-0.234201
Cl122	Cl	1.223831	-0.254704	0.265799
Cl123	Cl	0.563924	-0.417600	-0.445753
Cl124	Cl	1.063924	0.082400	0.054247
Cl125	Cl	0.851697	-0.783298	-0.758134
Cl126	Cl	1.351697	-0.283298	-0.258134
Cl127	Cl	0.400751	-0.360018	-0.481917
Cl128	Cl	0.900751	0.139982	0.018083
Cl129	Cl	0.730031	-0.406137	-0.452910
Cl130	Cl	1.230031	0.093863	0.047090
H131	H	1.055108	-0.431053	-0.631838
H132	H	1.555108	0.068947	-0.131838
H133	H	0.908555	-0.684827	-0.945126
H134	H	1.408555	-0.184827	-0.445126
H135	H	1.078367	-0.390746	-1.097952
H136	H	1.578367	0.109254	-0.597952
H137	H	0.879554	-0.735044	-0.611697
H138	H	1.379554	-0.235044	-0.111697
Cl139	Cl	1.070131	-0.405138	-0.783178
Cl140	Cl	1.570131	0.094862	-0.283178
H141	H	1.084100	-0.380828	-0.965254
H142	H	1.584100	0.119172	-0.465254
