data_functionalizedCrystal
_audit_creation_method	'MofGen! by Chris Wilmer'
_symmetry_space_group_name_H-M	'P1'
_symmetry_Int_Tables_number	1
_symmetry_cell_setting	triclinic
loop_
_symmetry_equiv_pos_as_xyz
  x,y,z
_cell_length_a	19.077236
_cell_length_b	18.101397
_cell_length_c	19.077314
_cell_angle_alpha	87.672098
_cell_angle_beta	90.071888
_cell_angle_gamma	92.313125
loop_
_atom_site_label
_atom_site_type_symbol
_atom_site_fract_x
_atom_site_fract_y
_atom_site_fract_z
Zn1	Zn	1.058317	-0.231590	-0.440537
Zn2	Zn	1.062963	-0.360203	-0.323022
Zn3	Zn	0.945530	-0.241532	-0.318315
Zn4	Zn	0.940785	-0.360553	-0.435762
O5	O	1.001899	-0.298470	-0.379409
O6	O	1.157266	-0.244343	-0.428917
O7	O	1.051316	-0.348475	-0.224065
O8	O	0.960533	-0.136577	-0.334556
O9	O	1.160680	-0.338834	-0.342579
O10	O	1.043397	-0.129273	-0.424353
O11	O	0.965038	-0.261288	-0.220607
O12	O	0.846567	-0.261628	-0.329926
O13	O	0.952445	-0.339432	-0.534728
O14	O	0.843081	-0.349073	-0.416214
O15	O	1.038795	-0.244683	-0.538237
O16	O	1.046714	-0.463885	-0.337949
O17	O	0.956950	-0.464143	-0.420779
C18	C	0.819327	-0.306468	-0.372042
C19	C	0.741222	-0.309907	-0.368906
C20	C	0.702748	-0.262398	-0.412454
C21	C	0.629360	-0.265626	-0.409502
C22	C	0.594446	-0.316367	-0.363006
C23	C	0.632925	-0.363878	-0.319454
C24	C	0.706312	-0.360646	-0.322403
C25	C	0.375154	-0.331298	-0.349355
C26	C	0.301761	-0.334528	-0.346411
C27	C	0.298201	-0.236275	-0.436458
C28	C	0.371590	-0.233050	-0.439406
C29	C	0.410062	-0.280558	-0.395852
N30	N	0.519432	-0.319669	-0.359989
N31	N	0.485075	-0.277252	-0.398866
C32	C	1.001840	-0.490884	-0.379373
C33	C	1.001878	-0.573196	-0.379383
C34	C	1.001965	-0.872281	-0.379451
C35	C	1.058297	-0.840775	-0.327185
C36	C	1.058478	-0.755142	-0.327334
C37	C	1.001922	-0.723901	-0.379417
C38	C	1.019019	-0.751025	-0.454292
C39	C	1.019450	-0.836664	-0.454013
C40	C	0.928366	-0.844822	-0.357476
C41	C	0.928800	-0.759224	-0.355838
C42	C	1.001896	-0.640044	-0.379402
C43	C	1.001993	-0.956138	-0.379471
C44	C	1.185183	-0.290440	-0.386806
C45	C	1.263288	-0.287019	-0.389958
C46	C	0.994572	-0.290987	-0.562692
C47	C	0.991450	-0.287799	-0.640796
C48	C	1.001976	-0.105302	-0.379462
C49	C	1.002009	-0.022986	-0.379485
C50	C	1.034900	-0.331692	-0.679293
C51	C	1.031967	-0.328687	-0.752680
C52	C	0.985580	-0.281793	-0.787569
C53	C	0.942128	-0.237894	-0.749067
C54	C	0.945065	-0.240896	-0.675681
C55	C	0.971981	-0.267945	-1.006855
C56	C	0.969045	-0.264948	-1.080246
C57	C	1.058885	-0.355740	-1.083854
C58	C	1.061816	-0.358741	-1.010467
C59	C	1.018367	-0.314840	-0.971971
N60	N	0.982578	-0.278722	-0.862582
N61	N	1.021372	-0.317907	-0.896960
C62	C	1.009237	-0.305867	-0.196841
C63	C	1.012495	-0.308841	-0.118743
H64	H	0.266869	-0.197595	-0.471917
H65	H	1.067348	-0.364430	-0.784021
C66	C	1.085934	-0.383276	-0.640922
N67	N	1.124378	-0.422127	-0.612024
H68	H	1.112580	-0.859336	-0.341805
H69	H	0.912237	-0.869435	-0.303668
H70	H	1.113057	-0.731673	-0.342110
H71	H	1.073159	-0.853546	-0.472279
H72	H	0.931273	-0.226755	-1.108650
H73	H	0.598038	-0.226941	-0.444964
C74	C	0.891103	-0.186308	-0.787447
N75	N	0.852668	-0.147454	-0.816355
C76	C	0.871714	-0.872424	-0.408851
N77	N	0.829049	-0.893217	-0.447549
H78	H	0.406469	-0.369983	-0.313891
H79	H	0.980055	-0.857344	-0.494459
H80	H	1.099578	-0.396940	-0.982065
H81	H	1.094260	-0.391480	-1.115205
H82	H	0.979115	-0.730655	-0.494410
H83	H	0.909686	-0.205151	-0.644338
H84	H	0.731169	-0.221081	-0.450318
C85	C	0.409989	-0.177225	-0.490549
N86	N	0.438912	-0.135176	-0.529070
C87	C	0.924181	-0.219657	-0.964519
N88	N	0.888174	-0.183285	-0.932630
H89	H	0.273337	-0.375850	-0.308548
H90	H	0.604493	-0.405188	-0.281592
H91	H	0.737637	-0.399332	-0.286941
H92	H	1.048127	-0.736958	-0.271908
C93	C	1.090744	-0.717896	-0.479302
N94	N	1.144770	-0.692944	-0.498136
C95	C	1.044533	-0.872422	-0.252093
N96	N	1.034165	-0.896263	-0.195532
H97	H	0.915855	-0.741839	-0.300721
C98	C	0.869372	-0.730840	-0.403174
N99	N	0.824613	-0.709462	-0.438834
