data_functionalizedCrystal
_audit_creation_method	'MofGen! by Chris Wilmer'
_symmetry_space_group_name_H-M	'P1'
_symmetry_Int_Tables_number	1
_symmetry_cell_setting	triclinic
loop_
_symmetry_equiv_pos_as_xyz
  x,y,z
_cell_length_a	12.594517
_cell_length_b	10.686285
_cell_length_c	10.686551
_cell_angle_alpha	80.915481
_cell_angle_beta	94.389873
_cell_angle_gamma	94.365748
loop_
_atom_site_label
_atom_site_type_symbol
_atom_site_fract_x
_atom_site_fract_y
_atom_site_fract_z
Zn1	Zn	1.700414	0.450107	0.678809
Zn2	Zn	1.700328	0.678687	0.450307
Zn3	Zn	1.509735	0.466467	0.466593
Zn4	Zn	1.535105	0.662309	0.662530
O5	O	1.611395	0.564392	0.564560
O6	O	1.849348	0.480435	0.648495
O7	O	1.664392	0.664236	0.274838
O8	O	1.524447	0.286674	0.508373
O9	O	1.849285	0.648372	0.480615
O10	O	1.664538	0.274655	0.664287
O11	O	1.524364	0.508319	0.286804
O12	O	1.364154	0.492439	0.492587
O13	O	1.567687	0.620459	0.842318
O14	O	1.382794	0.636323	0.636541
O15	O	1.689139	0.464555	0.854279
O16	O	1.688992	0.854136	0.464830
O17	O	1.567604	0.842104	0.620749
C18	C	1.631072	0.894174	0.539283
C19	C	1.639590	1.035252	0.528512
C20	C	1.334854	0.564380	0.564566
C21	C	1.216552	0.564403	0.564596
C22	C	1.889017	0.564406	0.564554
C23	C	2.007322	0.564411	0.564552
C24	C	2.076542	0.655748	0.473261
C25	C	2.138564	0.542335	0.451112
C26	C	2.156097	0.677806	0.586690
C27	C	2.067779	0.450943	0.542347
C28	C	2.085314	0.586487	0.677973
C29	C	2.147302	0.472992	0.655874
C30	C	1.631253	0.538856	0.895643
C31	C	1.639714	0.527973	1.036732
C32	C	1.591672	0.233321	0.589963
C33	C	1.583268	0.092238	0.600788
C34	C	1.591671	0.589738	0.234771
C35	C	1.583394	0.600263	0.093711
H36	H	2.045462	0.732906	0.395993
H37	H	2.162243	0.523650	0.355213
F38	F	2.017617	0.325568	0.517748
F39	F	1.711127	1.112558	0.436840
F40	F	1.511723	1.014940	0.692443
H41	H	1.694415	0.457758	1.095892
H42	H	1.528705	0.670482	1.034556
F43	F	2.206426	0.803153	0.611143
F44	F	2.054330	0.610958	0.803280
F45	F	2.187650	0.371925	0.756820
