data_functionalizedCrystal
_audit_creation_method	'MofGen! by Chris Wilmer'
_symmetry_space_group_name_H-M	'P1'
_symmetry_Int_Tables_number	1
_symmetry_cell_setting	triclinic
loop_
_symmetry_equiv_pos_as_xyz
  x,y,z
_cell_length_a	12.827893
_cell_length_b	12.827891
_cell_length_c	12.827885
_cell_angle_alpha	89.971966
_cell_angle_beta	90.016318
_cell_angle_gamma	89.968216
loop_
_atom_site_label
_atom_site_type_symbol
_atom_site_fract_x
_atom_site_fract_y
_atom_site_fract_z
Zn1	Zn	1.597571	0.415905	0.590779
Zn2	Zn	1.597423	0.590682	0.416045
Zn3	Zn	1.422812	0.415964	0.416062
Zn4	Zn	1.422756	0.590613	0.590754
O5	O	1.510141	0.503291	0.503410
O6	O	1.743787	0.439094	0.567604
O7	O	1.574223	0.567559	0.269811
O8	O	1.446079	0.269720	0.439256
O9	O	1.743679	0.567502	0.439227
O10	O	1.574474	0.269677	0.567620
O11	O	1.445937	0.439195	0.269823
O12	O	1.276569	0.439128	0.439231
O13	O	1.445984	0.567384	0.736993
O14	O	1.276527	0.567442	0.567577
O15	O	1.574419	0.439027	0.737012
O16	O	1.574168	0.736909	0.439202
O17	O	1.445841	0.736858	0.567560
C18	C	1.238631	0.503284	0.503404
C19	C	1.122478	0.503307	0.503426
C20	C	1.510011	0.774801	0.503400
C21	C	1.510051	0.890954	0.503430
C22	C	1.510212	0.503191	0.775980
C23	C	1.510242	0.503148	0.892133
C24	C	1.782711	0.503299	0.503416
C25	C	1.898864	0.503302	0.503419
C26	C	1.950702	0.439770	0.566939
C27	C	2.070752	0.439772	0.566943
C28	C	1.446637	1.062888	0.439913
C29	C	1.446594	0.942838	0.439880
C30	C	1.510240	1.230721	0.503451
C31	C	1.510130	1.114568	0.503491
C32	C	1.510130	0.503316	0.231900
C33	C	1.510302	0.503064	0.115747
C34	C	1.573803	0.439620	0.943927
C35	C	1.573836	0.439575	1.063978
H36	H	1.906206	0.385380	0.621321
H37	H	1.564453	1.069937	0.557902
H38	H	1.392238	0.898395	0.385445
Cl39	Cl	1.426254	0.587066	0.960882
Cl40	Cl	2.053663	0.587286	0.419452
Cl41	Cl	2.139574	0.355783	0.650902
H42	H	1.943360	0.557702	0.449047
H43	H	1.628192	0.385262	0.899393
Cl44	Cl	1.362744	1.131787	0.355920
H45	H	1.564416	0.935391	0.557860
Cl46	Cl	1.657862	0.355604	1.132740
H47	H	1.455886	0.557459	1.071212
