data_functionalizedCrystal
_audit_creation_method	'MofGen! by Chris Wilmer'
_symmetry_space_group_name_H-M	'P1'
_symmetry_Int_Tables_number	1
_symmetry_cell_setting	triclinic
loop_
_symmetry_equiv_pos_as_xyz
  x,y,z
_cell_length_a	19.188879
_cell_length_b	12.837943
_cell_length_c	11.295483
_cell_angle_alpha	85.461227
_cell_angle_beta	85.929450
_cell_angle_gamma	91.023491
loop_
_atom_site_label
_atom_site_type_symbol
_atom_site_fract_x
_atom_site_fract_y
_atom_site_fract_z
O1	O	-0.177215	1.381587	-0.099056
O2	O	-0.168252	1.079825	-0.099060
O3	O	-0.071676	1.239439	-0.099020
O4	O	-0.273791	1.221973	-0.099095
O5	O	-0.080144	1.225420	0.099027
O6	O	-0.176720	1.065806	0.098987
O7	O	-0.185683	1.367568	0.098992
Cu8	Cu	-0.181975	1.215407	0.117073
Cu9	Cu	-0.171960	1.231986	-0.117141
O10	O	-0.282259	1.207954	0.098952
C11	C	-0.169458	1.034209	-0.000036
C12	C	-0.160427	0.919176	-0.000036
C13	C	-0.268994	0.677697	-0.000059
C14	C	-0.260512	0.569612	-0.000058
C15	C	-0.134982	0.594917	-0.000024
C16	C	-0.143464	0.703003	-0.000026
C17	C	-0.210472	0.744388	-0.000045
C18	C	-0.218953	0.852476	-0.000054
C19	C	-0.093423	0.877779	-0.000012
C20	C	-0.084941	0.769694	-0.000011
C21	C	-0.304074	1.215521	-0.000081
C22	C	-0.381694	1.217195	-0.000110
C23	C	-0.422748	1.210365	0.107851
C24	C	-0.495682	1.211963	0.107872
C25	C	-0.527558	1.220413	-0.000075
C26	C	-0.486494	1.227238	-0.108051
C27	C	-0.413563	1.225630	-0.108069
N28	N	-0.637362	1.287600	-0.080401
N29	N	-0.706644	1.289130	-0.080377
C30	C	-0.747297	1.225258	-0.000028
N31	N	-0.716051	1.159810	0.080314
N32	N	-0.646762	1.158285	0.080293
C33	C	-0.606640	1.222157	-0.000068
C34	C	-0.867435	1.220158	0.107963
C35	C	-0.940370	1.221750	0.107980
C36	C	-0.931180	1.237036	-0.107947
C37	C	-0.858247	1.235434	-0.107960
C38	C	-0.826379	1.226999	-0.000001
C39	C	-0.049861	1.231872	0.000010
C40	C	0.027760	1.230198	0.000031
C41	C	-0.184477	1.413184	-0.000035
C42	C	-0.193508	1.528218	-0.000043
N43	N	-0.189018	1.203753	0.281806
N44	N	-0.164912	1.243648	-0.281875
C45	C	-0.114169	1.327536	0.531126
C46	C	-0.119497	1.318737	0.655788
C47	C	-0.204999	1.177351	0.655793
C48	C	-0.199671	1.186151	0.531131
C49	C	-0.154255	1.261246	0.468802
C50	C	-0.148931	1.270050	0.344139
C51	C	-0.234429	1.128660	0.344146
C52	C	-0.239757	1.119861	0.468807
H53	H	-0.323555	0.711394	-0.000077
N54	N	-0.078538	1.386437	0.719445
N55	N	-0.013333	1.386299	0.705536
H56	H	0.015600	1.434114	0.750492
H57	H	-0.380136	1.231191	-0.195987
H58	H	-0.824820	1.241003	-0.195874
H59	H	-0.512452	1.234115	-0.195942
H60	H	-0.077195	1.388689	0.480377
H61	H	-0.030385	0.735981	0.000018
H62	H	-0.241971	1.116203	0.706557
N63	N	-0.537618	1.204975	0.218168
N64	N	-0.509156	1.197437	0.314547
H65	H	-0.538771	1.192501	0.392445
N66	N	-0.102538	1.346739	0.280450
N67	N	-0.097783	1.354586	0.169146
H68	H	-0.065015	1.408747	0.124166
H69	H	-0.080430	0.561195	0.000089
H70	H	-0.045770	0.932092	-0.000008
N71	N	-0.390208	1.201754	0.218135
N72	N	-0.426878	1.195659	0.314524
H73	H	-0.403896	1.189579	0.392414
N74	N	-0.320299	0.501502	-0.000064
N75	N	-0.380120	0.538472	-0.000075
H76	H	-0.422348	0.490370	-0.000076
N77	N	-0.834888	1.211532	0.218244
N78	N	-0.871557	1.205419	0.314635
H79	H	-0.848573	1.199324	0.392523
N80	N	-0.286138	1.043157	0.532498
N81	N	-0.290888	1.035305	0.643802
H82	H	-0.323646	0.981133	0.688783
N83	N	-0.982298	1.214759	0.218277
N84	N	-0.953832	1.207227	0.314652
H85	H	-0.983444	1.202290	0.392553
H86	H	-0.957133	1.243904	-0.195839
N87	N	-0.275382	1.060961	0.280465
N88	N	-0.270626	1.068833	0.169161
H89	H	-0.299552	1.021027	0.124183
H90	H	-0.273515	0.886170	-0.000068
