data_functionalizedCrystal
_audit_creation_method	'MofGen! by Chris Wilmer'
_symmetry_space_group_name_H-M	'P1'
_symmetry_Int_Tables_number	1
_symmetry_cell_setting	triclinic
loop_
_symmetry_equiv_pos_as_xyz
  x,y,z
_cell_length_a	9.065215
_cell_length_b	10.967829
_cell_length_c	7.540329
_cell_angle_alpha	77.868914
_cell_angle_beta	89.998924
_cell_angle_gamma	84.859043
loop_
_atom_site_label
_atom_site_type_symbol
_atom_site_fract_x
_atom_site_fract_y
_atom_site_fract_z
O1	O	1.959360	0.182968	-0.203376
O2	O	1.529989	0.197981	-0.207972
O3	O	1.754578	0.008937	-0.150185
O4	O	1.734772	0.372013	-0.261163
O5	O	1.754570	0.008935	0.144780
O6	O	1.529982	0.197980	0.086993
O7	O	1.959352	0.182967	0.091589
Cu8	Cu	1.744666	0.190473	0.116224
Cu9	Cu	1.744675	0.190475	-0.232607
O10	O	1.734764	0.372011	0.033802
C11	C	1.475007	0.196539	-0.060050
C12	C	1.311188	0.192227	-0.058735
C13	C	1.753132	-0.037570	0.011509
C14	C	1.748819	-0.176143	0.053853
C15	C	1.746900	-0.237916	-0.080071
C16	C	1.742442	-0.381139	-0.036309
C17	C	2.014335	0.184409	-0.056337
C18	C	2.178153	0.188721	-0.057664
C19	C	1.736209	0.418518	-0.127895
C20	C	1.740523	0.557091	-0.170252
N21	N	1.744670	0.190471	0.361573
N22	N	1.744683	0.190467	-0.477953
H23	H	1.740775	-0.434278	0.110756
O24	O	1.748707	-0.174362	-0.255441
C25	C	1.623483	-0.086359	-0.291858
H26	H	1.581530	-0.062764	-0.159436
H27	H	1.655050	0.002411	-0.386840
H28	H	1.532611	-0.127561	-0.358744
O29	O	1.742199	-0.379404	-0.345666
C30	C	1.616901	-0.291472	-0.381968
H31	H	1.575072	-0.267833	-0.249523
H32	H	1.648326	-0.202710	-0.477095
H33	H	1.525989	-0.332767	-0.448642
H34	H	1.747152	-0.229287	0.200909
