data_functionalizedCrystal
_audit_creation_method	'MofGen! by Chris Wilmer'
_symmetry_space_group_name_H-M	'P1'
_symmetry_Int_Tables_number	1
_symmetry_cell_setting	triclinic
loop_
_symmetry_equiv_pos_as_xyz
  x,y,z
_cell_length_a	19.288859
_cell_length_b	10.540510
_cell_length_c	17.766277
_cell_angle_alpha	89.996163
_cell_angle_beta	89.989768
_cell_angle_gamma	83.823518
loop_
_atom_site_label
_atom_site_type_symbol
_atom_site_fract_x
_atom_site_fract_y
_atom_site_fract_z
O1	O	0.922403	0.158310	-0.062605
O2	O	0.720283	0.179679	-0.062603
O3	O	0.825965	-0.015818	-0.062604
O4	O	0.816721	0.353807	-0.062604
O5	O	0.825946	-0.015828	0.062585
O6	O	0.720264	0.179669	0.062586
O7	O	0.922384	0.158300	0.062583
Cu8	Cu	0.821322	0.168984	0.074015
Cu9	Cu	0.821345	0.168995	-0.074035
O10	O	0.816702	0.353797	0.062584
C11	C	0.694392	0.178988	-0.000008
C12	C	0.617275	0.176928	-0.000008
C13	C	0.053901	0.277700	-0.000009
C14	C	0.126360	0.279647	-0.000013
C15	C	0.170308	0.164938	-0.000011
C16	C	0.141792	0.048274	-0.000025
C17	C	0.069333	0.046331	-0.000029
C18	C	0.291006	0.079386	0.043851
C19	C	0.363463	0.081334	0.043859
C20	C	0.393794	0.170928	-0.000003
C21	C	0.351658	0.258595	-0.043865
C22	C	0.279200	0.256651	-0.043868
C23	C	0.248878	0.167033	-0.000008
C24	C	0.500871	0.289695	0.000001
C25	C	0.573332	0.291637	-0.000008
C26	C	0.588762	0.060262	-0.000013
C27	C	0.516302	0.058323	-0.000011
C28	C	0.472361	0.173043	-0.000001
C29	C	0.825267	-0.063111	-0.000011
C30	C	0.823206	-0.204015	-0.000015
C31	C	0.896622	-0.423109	0.000270
C32	C	0.898821	-0.276563	-0.000016
C33	C	0.784509	-0.247903	-0.071502
C34	C	0.782846	-0.394627	-0.071558
C35	C	0.781250	-0.394412	0.070805
C36	C	0.784836	-0.248151	0.071745
C37	C	0.948274	0.158991	-0.000013
C38	C	1.025392	0.161051	-0.000018
C39	C	0.817400	0.401090	-0.000010
C40	C	0.819461	0.541994	-0.000010
N41	N	0.821312	0.168975	0.178146
N42	N	0.821361	0.168994	-0.178165
C43	C	0.868123	0.082451	0.217532
C44	C	0.868127	0.082445	0.296334
C45	C	0.821326	0.168985	0.335746
C46	C	0.774506	0.255515	0.296350
C47	C	0.774499	0.255510	0.217550
C48	C	0.812793	0.284641	0.460584
C49	C	0.812805	0.284648	0.539383
C50	C	0.821345	0.169000	0.578793
C51	C	0.829888	0.053341	0.539394
C52	C	0.829881	0.053336	0.460593
C53	C	0.821329	0.168999	0.421192
C54	C	0.868164	0.082463	0.703625
C55	C	0.868163	0.082455	0.782428
C56	C	0.774545	0.255536	0.782443
C57	C	0.774542	0.255533	0.703641
C58	C	0.821355	0.168997	0.664237
H59	H	0.018128	0.371115	-0.000004
H60	H	0.465092	0.383108	0.000008
H61	H	0.906239	0.011986	0.185452
H62	H	0.376351	0.331553	-0.079580
H63	H	0.728842	-0.199271	-0.074160
H64	H	0.266318	0.006421	0.079570
H65	H	0.836842	-0.040831	0.571479
H66	H	0.811398	-0.217643	-0.124703
H67	H	0.906279	0.011997	0.671541
H68	H	0.177579	-0.045122	-0.000026
H69	H	0.046123	-0.048661	-0.000037
H70	H	0.925919	-0.467265	-0.050707
H71	H	0.805271	-0.437135	0.124992
H72	H	0.929099	-0.247899	0.051228
H73	H	0.726290	-0.416359	-0.074796
H74	H	0.493091	-0.036665	-0.000015
H75	H	0.812993	-0.220172	0.124631
H76	H	0.149577	0.374639	0.000002
H77	H	0.596541	0.386630	-0.000006
H78	H	0.805853	0.378824	0.571455
H79	H	0.805826	0.378821	0.428503
H80	H	0.906280	0.011991	0.814497
H81	H	0.624544	-0.033136	-0.000017
H82	H	0.736427	0.325993	0.671571
H83	H	0.729631	-0.197852	0.076063
H84	H	0.244896	0.328030	-0.079583
H85	H	0.736399	0.325975	0.328444
H86	H	0.929291	-0.248833	-0.051349
H87	H	0.926074	-0.465726	0.051537
H88	H	0.736378	0.325969	0.185481
H89	H	0.809307	-0.435429	-0.124996
H90	H	0.724477	-0.415294	0.071287
H91	H	0.906248	0.011985	0.328408
H92	H	0.397764	0.009957	0.079577
H93	H	0.836835	-0.040838	0.428518
H94	H	0.736436	0.325993	0.814532
