data_functionalizedCrystal
_audit_creation_method	'MofGen! by Chris Wilmer'
_symmetry_space_group_name_H-M	'P1'
_symmetry_Int_Tables_number	1
_symmetry_cell_setting	triclinic
loop_
_symmetry_equiv_pos_as_xyz
  x,y,z
_cell_length_a	12.759401
_cell_length_b	12.827892
_cell_length_c	12.759393
_cell_angle_alpha	89.970028
_cell_angle_beta	89.979062
_cell_angle_gamma	90.016917
loop_
_atom_site_label
_atom_site_type_symbol
_atom_site_fract_x
_atom_site_fract_y
_atom_site_fract_z
Zn1	Zn	1.606261	-0.415940	-0.594024
Zn2	Zn	2.106261	0.084060	-0.094024
Zn3	Zn	1.606150	-0.590717	-0.418346
Zn4	Zn	2.106150	-0.090717	0.081654
Zn5	Zn	1.430560	-0.415996	-0.418359
Zn6	Zn	1.930560	0.084004	0.081641
Zn7	Zn	1.430550	-0.590644	-0.593983
Zn8	Zn	1.930550	-0.090644	-0.093983
O9	O	1.518380	-0.503324	-0.506178
O10	O	2.018380	-0.003324	-0.006178
O11	O	1.753268	-0.439132	-0.570731
O12	O	2.253268	0.060868	-0.070731
O13	O	1.582816	-0.567594	-0.271326
O14	O	2.082816	-0.067594	0.228674
O15	O	1.453918	-0.269752	-0.441684
O16	O	1.953918	0.230248	0.058316
O17	O	1.753186	-0.567540	-0.441661
O18	O	2.253186	-0.067540	0.058339
O19	O	1.583005	-0.269711	-0.570744
O20	O	2.083005	0.230289	-0.070744
O21	O	1.453810	-0.439227	-0.271336
O22	O	1.953810	0.060773	0.228664
O23	O	1.283538	-0.439156	-0.441644
O24	O	1.783538	0.060844	0.058356
O25	O	1.453900	-0.567416	-0.741009
O26	O	1.953900	-0.067416	-0.241009
O27	O	1.283530	-0.567469	-0.570674
O28	O	1.783530	-0.067469	-0.070674
O29	O	1.582995	-0.439061	-0.741040
O30	O	2.082995	0.060939	-0.241040
O31	O	1.582806	-0.736944	-0.441622
O32	O	2.082806	-0.236944	0.058378
O33	O	1.453793	-0.736890	-0.570661
O34	O	1.953793	-0.236890	-0.070661
C35	C	1.245413	-0.503312	-0.506157
C36	C	1.745413	-0.003312	-0.006157
C37	C	1.128636	-0.503331	-0.506173
C38	C	1.628636	-0.003331	-0.006173
C39	C	1.518315	-0.774834	-0.506158
C40	C	2.018315	-0.274834	-0.006158
C41	C	1.518383	-0.890987	-0.506185
C42	C	2.018383	-0.390987	-0.006185
C43	C	1.073798	-0.570246	-0.573253
C44	C	1.573798	-0.070246	-0.073253
C45	C	0.964074	-0.570250	-0.573274
C46	C	1.464074	-0.070250	-0.073274
C47	C	0.964036	-0.436422	-0.439125
C48	C	1.464036	0.063578	0.060875
C49	C	1.073758	-0.436413	-0.439111
C50	C	1.573758	0.063587	0.060889
C51	C	1.582231	-0.942668	-0.570106
C52	C	2.082231	-0.442668	-0.070106
C53	C	1.582302	-1.062719	-0.570135
C54	C	2.082302	-0.562719	-0.070135
C55	C	1.792414	-0.503338	-0.506199
C56	C	2.292414	-0.003338	-0.006199
C57	C	1.909190	-0.503344	-0.506209
C58	C	2.409190	-0.003344	-0.006209
C59	C	1.518459	-0.503224	-0.780211
C60	C	2.018459	-0.003224	-0.280211
C61	C	1.518492	-0.503181	-0.896988
C62	C	2.018492	-0.003181	-0.396988
C63	C	1.518475	-0.230754	-0.506220
C64	C	2.018475	0.269246	-0.006220
C65	C	1.518515	-0.114601	-0.506239
C66	C	2.018515	0.385399	-0.006239
C67	C	1.585717	-0.436336	-0.951867
C68	C	2.085717	0.063664	-0.451867
C69	C	1.585735	-0.436291	-1.061592
C70	C	2.085735	0.063709	-0.561592
C71	C	1.451301	-0.569945	-1.061547
C72	C	1.951301	-0.069945	-0.561547
C73	C	1.451278	-0.569984	-0.951825
C74	C	1.951278	-0.069984	-0.451825
C75	C	1.518363	-0.503349	-0.233211
C76	C	2.018363	-0.003349	0.266789
C77	C	1.518533	-0.503097	-0.116434
C78	C	2.018533	-0.003097	0.383566
H79	H	1.118476	-0.624732	-0.627862
H80	H	1.618476	-0.124732	-0.127862
C81	C	0.903757	-0.643871	-0.647058
C82	C	1.403757	-0.143871	-0.147058
N83	N	0.858326	-0.699329	-0.702633
N84	N	1.358326	-0.199329	-0.202633
H85	H	1.640474	-0.381858	-1.106270
H86	H	2.140474	0.118142	-0.606270
C87	C	1.656152	-1.122759	-0.644068
C88	C	2.156152	-0.622759	-0.144068
N89	N	1.711777	-1.167984	-0.699758
N90	N	2.211777	-0.667984	-0.199758
C91	C	1.134084	-0.362798	-0.365313
C92	C	1.634084	0.137202	0.134687
N93	N	1.179521	-0.307353	-0.309733
N94	N	1.679521	0.192647	0.190267
C95	C	1.444662	-1.054568	-0.432303
C96	C	1.944662	-0.554568	0.067697
N97	N	1.389034	-1.009343	-0.376615
N98	N	1.889034	-0.509343	0.123385
H99	H	1.640444	-0.381938	-0.907222
H100	H	2.140444	0.118062	-0.407222
H101	H	1.463768	-0.935618	-0.451487
H102	H	1.963768	-0.435618	0.048513
C103	C	1.656009	-0.882380	-0.644009
C104	C	2.156009	-0.382380	-0.144009
N105	N	1.711584	-0.836971	-0.699673
N106	N	2.211584	-0.336971	-0.199673
H107	H	1.396580	-0.624336	-1.106209
H108	H	1.896580	-0.124336	-0.606209
H109	H	1.396529	-0.624416	-0.907141
H110	H	1.896529	-0.124416	-0.407141
H111	H	0.919341	-0.381941	-0.384524
H112	H	1.419341	0.118059	0.115476
