data_functionalizedCrystal
_audit_creation_method	'MofGen! by Chris Wilmer'
_symmetry_space_group_name_H-M	'P1'
_symmetry_Int_Tables_number	1
_symmetry_cell_setting	triclinic
loop_
_symmetry_equiv_pos_as_xyz
  x,y,z
_cell_length_a	14.519731
_cell_length_b	10.540539
_cell_length_c	12.996460
_cell_angle_alpha	89.996006
_cell_angle_beta	89.994327
_cell_angle_gamma	84.107172
loop_
_atom_site_label
_atom_site_type_symbol
_atom_site_fract_x
_atom_site_fract_y
_atom_site_fract_z
O1	O	1.224754	0.166529	-0.085564
O2	O	0.956385	0.186096	-0.085565
O3	O	1.096692	-0.008456	-0.085563
O4	O	1.084447	0.361081	-0.085566
O5	O	1.096677	-0.008467	0.085571
O6	O	0.956370	0.186085	0.085569
O7	O	1.224739	0.166518	0.085570
Cu8	Cu	1.090553	0.176301	0.101195
Cu9	Cu	1.090571	0.176313	-0.101190
O10	O	1.084432	0.361070	0.085568
C11	C	0.922013	0.185174	0.000002
C12	C	0.819618	0.182426	0.000001
C13	C	0.736462	0.180194	-0.000003
C14	C	0.632138	0.177405	-0.000003
C15	C	0.548987	0.175191	-0.000003
C16	C	0.444657	0.172402	-0.000006
C17	C	1.095766	-0.055755	0.000002
C18	C	1.093019	-0.196675	-0.000004
C19	C	0.987741	-0.379038	-0.000388
C20	C	0.990526	-0.232449	-0.000003
C21	C	1.142335	-0.258837	0.097722
C22	C	1.138837	-0.405347	0.097805
C23	C	1.140938	-0.405874	-0.096807
C24	C	1.141882	-0.258901	-0.098099
C25	C	1.259111	0.167440	0.000001
C26	C	1.361506	0.170188	-0.000005
C27	C	1.085358	0.408369	0.000001
C28	C	1.088105	0.549289	-0.000001
N29	N	1.090548	0.176291	0.243542
N30	N	1.090584	0.176313	-0.243538
C31	C	1.090570	0.176315	0.663356
C32	C	1.090561	0.176312	0.546551
C33	C	1.090559	0.176304	0.453453
C34	C	1.090549	0.176299	0.336640
H35	H	0.951721	-0.189449	-0.070057
H36	H	1.107773	-0.437087	-0.170877
C37	C	0.933044	-0.417107	-0.095057
H38	H	0.872674	-0.372810	-0.093854
H39	H	0.928595	-0.506379	-0.093764
H40	H	0.964116	-0.395595	-0.155967
H41	H	1.102378	-0.433182	0.170856
H42	H	0.947412	-0.408843	0.069300
H43	H	1.105798	-0.217674	-0.170394
H44	H	1.214969	-0.453848	-0.097464
C45	C	1.096043	-0.200845	0.195972
H46	H	1.126379	-0.239076	0.254701
H47	H	1.032698	-0.216112	0.196849
H48	H	1.100508	-0.111565	0.196984
H49	H	1.212548	-0.454060	0.102238
H50	H	1.216608	-0.235434	-0.104000
H51	H	0.951437	-0.190302	0.070167
C52	C	1.244012	-0.229663	0.102643
H53	H	1.257321	-0.179186	0.045006
H54	H	1.283489	-0.307320	0.101739
H55	H	1.253950	-0.184455	0.164219
