data_functionalizedCrystal
_audit_creation_method	'MofGen! by Chris Wilmer'
_symmetry_space_group_name_H-M	'P1'
_symmetry_Int_Tables_number	1
_symmetry_cell_setting	triclinic
loop_
_symmetry_equiv_pos_as_xyz
  x,y,z
_cell_length_a	14.971491
_cell_length_b	14.519709
_cell_length_c	12.996460
_cell_angle_alpha	90.007090
_cell_angle_beta	90.007431
_cell_angle_gamma	83.648190
loop_
_atom_site_label
_atom_site_type_symbol
_atom_site_fract_x
_atom_site_fract_y
_atom_site_fract_z
O1	O	1.187011	0.120206	0.085613
O2	O	1.687011	0.620206	0.585613
O3	O	0.926619	0.134593	0.085606
O4	O	1.426619	0.634593	0.585606
O5	O	1.063719	-0.006843	0.085600
O6	O	1.563719	0.493157	0.585600
O7	O	1.049911	0.261642	0.085619
O8	O	1.549911	0.761642	0.585619
O9	O	1.063705	-0.006851	-0.085533
O10	O	1.563705	0.493149	0.414467
O11	O	0.926605	0.134586	-0.085528
O12	O	1.426605	0.634586	0.414472
O13	O	1.186996	0.120198	-0.085521
O14	O	1.686996	0.620198	0.414479
Cu15	Cu	1.056799	0.127391	-0.101150
Cu16	Cu	1.556799	0.627391	0.398850
Cu17	Cu	1.056816	0.127400	0.101235
Cu18	Cu	1.556816	0.627400	0.601235
O19	O	1.049897	0.261634	-0.085515
O20	O	1.549897	0.761634	0.414485
C21	C	0.893287	0.133945	0.000038
C22	C	1.393287	0.633945	0.500038
C23	C	0.793989	0.132014	0.000035
C24	C	1.293989	0.632014	0.500035
C25	C	0.366287	0.123688	0.093343
C26	C	0.866287	0.623688	0.593343
C27	C	0.459588	0.125499	0.093339
C28	C	0.959588	0.625499	0.593339
C29	C	0.506226	0.126406	0.000051
C30	C	1.006226	0.626406	0.500051
C31	C	0.459560	0.125493	-0.093240
C32	C	0.959560	0.625493	0.406760
C33	C	0.366261	0.123675	-0.093235
C34	C	0.866261	0.623675	0.406765
C35	C	0.654024	0.129284	-0.093244
C36	C	1.154024	0.629284	0.406756
C37	C	0.747329	0.131104	-0.093249
C38	C	1.247329	0.631104	0.406751
C39	C	0.747351	0.131108	0.093331
C40	C	1.247351	0.631108	0.593331
C41	C	0.654052	0.129290	0.093336
C42	C	1.154052	0.629290	0.593336
C43	C	0.607392	0.128379	0.000045
C44	C	1.107392	0.628379	0.500045
C45	C	1.063068	-0.041206	0.000033
C46	C	1.563068	0.458794	0.500033
C47	C	1.061140	-0.143586	0.000033
C48	C	1.561140	0.356414	0.500033
C49	C	1.054041	-0.518478	0.000059
C50	C	1.554041	-0.018478	0.500059
C51	C	1.056012	-0.414171	0.000052
C52	C	1.556012	0.085829	0.500052
C53	C	1.057590	-0.331035	0.000045
C54	C	1.557590	0.168965	0.500045
C55	C	1.059562	-0.226722	0.000039
C56	C	1.559562	0.273278	0.500039
C57	C	1.220328	0.120846	0.000050
C58	C	1.720328	0.620846	0.500050
C59	C	1.319626	0.122777	0.000059
C60	C	1.819626	0.622777	0.500059
C61	C	1.050547	0.295998	0.000054
C62	C	1.550547	0.795998	0.500054
C63	C	1.052476	0.398378	0.000062
C64	C	1.552476	0.898378	0.500062
N65	N	1.056794	0.127384	-0.243497
N66	N	1.556794	0.627384	0.256503
C67	C	1.056815	0.127401	-0.663312
C68	C	1.556815	0.627401	-0.163312
C69	C	1.056806	0.127400	-0.546506
C70	C	1.556806	0.627400	-0.046506
C71	C	1.056805	0.127393	-0.453408
C72	C	1.556805	0.627393	0.046592
C73	C	1.056796	0.127390	-0.336596
C74	C	1.556796	0.627390	0.163404
N75	N	1.056829	0.127400	0.243582
N76	N	1.556829	0.627400	0.743582
H77	H	0.328270	0.122943	-0.169197
H78	H	0.828270	0.622943	0.330803
O79	O	0.792529	0.132022	0.184048
O80	O	1.292529	0.632022	0.684048
C81	C	0.782712	0.131776	0.369109
C82	C	1.282712	0.631776	0.869109
C83	C	0.731430	0.130756	0.266453
C84	C	1.231430	0.630756	0.766453
H85	H	0.733338	0.130733	0.435760
H86	H	1.233338	0.630733	0.935760
H87	H	0.818288	0.197129	0.373852
H88	H	1.318288	0.697129	0.873852
H89	H	0.834495	0.068149	0.373709
H90	H	1.334495	0.568149	0.873709
H91	H	0.679604	0.194339	0.261785
H92	H	1.179604	0.694339	0.761785
H93	H	0.695916	0.065362	0.261754
H94	H	1.195916	0.565362	0.761754
H95	H	0.328320	0.122955	0.169310
H96	H	0.828320	0.622955	0.669310
H97	H	0.497575	0.126235	0.169300
H98	H	0.997575	0.626235	0.669300
H99	H	0.616080	0.128558	0.169300
H100	H	1.116080	0.628558	0.669300
O101	O	0.792504	0.131928	-0.183959
O102	O	1.292504	0.631928	0.316041
C103	C	0.782639	0.131756	-0.369021
C104	C	1.282639	0.631756	0.130979
C105	C	0.731370	0.130804	-0.266366
C106	C	1.231370	0.630804	0.233634
H107	H	0.733233	0.130867	-0.435674
H108	H	1.233233	0.630867	0.064326
H109	H	0.834380	0.068099	-0.373747
H110	H	1.334380	0.568099	0.126253
H111	H	0.818263	0.197081	-0.373635
H112	H	1.318263	0.697081	0.126365
H113	H	0.695693	0.065522	-0.261684
H114	H	1.195693	0.565522	0.238316
H115	H	0.679681	0.194504	-0.261684
H116	H	1.179681	0.694504	0.238316
H117	H	0.616035	0.128553	-0.169211
H118	H	1.116035	0.628553	0.330789
O119	O	0.504729	0.126328	-0.183954
O120	O	1.004729	0.626328	0.316046
C121	C	0.494846	0.126186	-0.369014
C122	C	0.994846	0.626186	0.130986
C123	C	0.443587	0.125214	-0.266354
C124	C	0.943587	0.625214	0.233646
H125	H	0.445433	0.125305	-0.435662
H126	H	0.945433	0.625305	0.064338
H127	H	0.546588	0.062531	-0.373758
H128	H	1.046588	0.562531	0.126242
H129	H	0.530466	0.191513	-0.373619
H130	H	1.030466	0.691513	0.126381
H131	H	0.407913	0.059930	-0.261680
H132	H	0.907913	0.559930	0.238320
H133	H	0.391896	0.188912	-0.261654
H134	H	0.891896	0.688912	0.238346
