data_functionalizedCrystal
_audit_creation_method	'MofGen! by Chris Wilmer'
_symmetry_space_group_name_H-M	'P1'
_symmetry_Int_Tables_number	1
_symmetry_cell_setting	triclinic
loop_
_symmetry_equiv_pos_as_xyz
  x,y,z
_cell_length_a	18.101398
_cell_length_b	18.101389
_cell_length_c	19.805405
_cell_angle_alpha	89.981663
_cell_angle_beta	90.022283
_cell_angle_gamma	89.990255
loop_
_atom_site_label
_atom_site_type_symbol
_atom_site_fract_x
_atom_site_fract_y
_atom_site_fract_z
Zn1	Zn	1.132143	-0.418551	-0.269614
Zn2	Zn	1.632143	0.081449	0.230386
Zn3	Zn	1.132049	-0.294710	-0.382786
Zn4	Zn	1.632049	0.205290	0.117214
Zn5	Zn	1.008302	-0.294744	-0.269608
Zn6	Zn	1.508302	0.205256	0.230392
Zn7	Zn	1.008263	-0.418530	-0.382758
Zn8	Zn	1.508263	0.081470	0.117242
O9	O	1.070189	-0.356634	-0.326192
O10	O	1.570189	0.143366	0.173808
O11	O	1.235764	-0.402118	-0.284642
O12	O	1.735764	0.097882	0.215358
O13	O	1.115611	-0.191081	-0.367782
O14	O	1.615611	0.308919	0.132218
O15	O	1.024786	-0.311190	-0.174892
O16	O	1.524786	0.188810	0.325108
O17	O	1.235694	-0.311132	-0.367789
O18	O	1.735694	0.188868	0.132211
O19	O	1.115772	-0.402151	-0.174897
O20	O	1.615772	0.097849	0.325103
O21	O	1.024695	-0.191106	-0.284631
O22	O	1.524695	0.308894	0.215369
O23	O	0.904664	-0.311169	-0.284603
O24	O	1.404664	0.188831	0.215397
O25	O	1.024719	-0.522166	-0.367740
O26	O	1.524719	-0.022166	0.132260
O27	O	0.904635	-0.402115	-0.367734
O28	O	1.404635	0.097885	0.132266
O29	O	1.115733	-0.522181	-0.284614
O30	O	1.615733	-0.022181	0.215386
O31	O	1.115572	-0.311112	-0.477499
O32	O	1.615572	0.188888	0.022501
O33	O	1.024627	-0.402082	-0.477478
O34	O	1.524627	0.097918	0.022522
C35	C	0.877779	-0.356644	-0.326165
C36	C	1.377779	0.143356	0.173835
C37	C	0.795465	-0.356666	-0.326170
C38	C	1.295465	0.143334	0.173830
C39	C	0.496374	-0.356635	-0.326210
C40	C	0.996374	0.143365	0.173790
C41	C	0.527705	-0.413573	-0.378766
C42	C	1.027705	0.086427	0.121234
C43	C	0.613324	-0.413807	-0.378602
C44	C	1.113324	0.086193	0.121398
C45	C	0.644756	-0.356650	-0.326191
C46	C	1.144756	0.143350	0.173809
C47	C	0.613696	-0.377978	-0.254903
C48	C	1.113696	0.122022	0.245097
C49	C	0.528051	-0.378383	-0.255219
C50	C	1.028051	0.121617	0.244781
C51	C	0.527923	-0.278232	-0.344313
C52	C	1.027923	0.221768	0.155687
C53	C	0.613573	-0.278651	-0.345877
C54	C	1.113573	0.221349	0.154123
C55	C	0.728616	-0.356658	-0.326175
C56	C	1.228616	0.143342	0.173825
C57	C	0.412514	-0.356629	-0.326220
C58	C	0.912514	0.143371	0.173780
C59	C	1.070232	-0.549796	-0.326175
C60	C	1.570232	-0.049796	0.173825
C61	C	1.070250	-0.632110	-0.326167
C62	C	1.570250	-0.132110	0.173833
C63	C	1.070293	-0.931201	-0.326040
C64	C	1.570293	-0.431201	0.173960
C65	C	1.012832	-0.899866	-0.378175
C66	C	1.512832	-0.399866	0.121825
C67	C	1.012988	-0.814247	-0.378417
C68	C	1.512988	-0.314247	0.121583
C69	C	1.070271	-0.782818	-0.326103
C70	C	1.570271	-0.282818	0.173897
C71	C	1.148298	-0.813904	-0.345470
C72	C	1.648298	-0.313904	0.154530
C73	C	1.147978	-0.899549	-0.345813
C74	C	1.647978	-0.399549	0.154187
C75	C	1.050406	-0.899630	-0.254423
C76	C	1.550406	-0.399630	0.245577
C77	C	1.048670	-0.813979	-0.254837
C78	C	1.548670	-0.313979	0.245163
C79	C	1.070264	-0.698959	-0.326138
C80	C	1.570264	-0.198959	0.173862
C81	C	1.070306	-1.015060	-0.326008
C82	C	1.570306	-0.515060	0.173992
C83	C	1.263351	-0.356624	-0.326219
C84	C	1.763351	0.143376	0.173781
C85	C	1.345665	-0.356619	-0.326231
C86	C	1.845665	0.143381	0.173769
C87	C	1.070105	-0.356607	-0.502048
C88	C	1.570105	0.143393	-0.002048
C89	C	1.070137	-0.356620	-0.577280
C90	C	1.570137	0.143380	-0.077280
C91	C	1.070189	-0.164223	-0.326160
C92	C	1.570189	0.335777	0.173840
C93	C	1.070315	-0.081909	-0.325977
C94	C	1.570315	0.418091	0.174023
C95	C	1.117485	-0.404020	-0.612568
C96	C	1.617485	0.095980	-0.112568
C97	C	1.117511	-0.404034	-0.683257
C98	C	1.617511	0.095966	-0.183257
C99	C	1.070193	-0.356643	-0.718655
C100	C	1.570193	0.143357	-0.218655
C101	C	1.022840	-0.309241	-0.683362
C102	C	1.522840	0.190759	-0.183362
C103	C	1.022810	-0.309231	-0.612675
C104	C	1.522810	0.190769	-0.112675
C105	C	1.022959	-0.309279	-0.968435
C106	C	1.522959	0.190721	-0.468435
C107	C	1.022994	-0.309290	-1.039127
C108	C	1.522994	0.190710	-0.539127
C109	C	1.117660	-0.404082	-1.039017
C110	C	1.617660	0.095918	-0.539017
C111	C	1.117630	-0.404072	-0.968330
C112	C	1.617630	0.095928	-0.468330
C113	C	1.070275	-0.356673	-0.933043
C114	C	1.570275	0.143327	-0.433043
C115	C	1.070245	-0.356659	-0.856394
C116	C	1.570245	0.143341	-0.356394
C117	C	1.070226	-0.356652	-0.795302
C118	C	1.570226	0.143348	-0.295302
C119	C	1.070294	-0.356677	-0.149649
C120	C	1.570294	0.143323	0.350351
C121	C	1.070339	-0.356695	-0.074417
C122	C	1.570339	0.143305	0.425583
H123	H	0.633825	-0.471898	-0.366625
H124	H	1.133825	0.028102	0.133375
H125	H	1.192243	-0.920278	-0.309489
H126	H	1.692243	-0.420278	0.190511
H127	H	0.507094	-0.400355	-0.431803
H128	H	1.007094	0.099645	0.068197
H129	H	0.634323	-0.400440	-0.431466
H130	H	1.134323	0.099560	0.068534
C131	C	0.501080	-0.455810	-0.234460
C132	C	1.001080	0.044190	0.265540
N133	N	0.480770	-0.514128	-0.218820
N134	N	0.980770	-0.014128	0.281180
C135	C	0.500544	-0.220918	-0.292600
C136	C	1.000544	0.279082	0.207400
N137	N	0.479917	-0.177754	-0.253649
N138	N	0.979917	0.322246	0.246351
H139	H	0.984402	-0.270683	-0.939710
H140	H	1.484402	0.229317	-0.439710
C141	C	0.641025	-0.256910	-0.416737
C142	C	1.141025	0.243090	0.083263
N143	N	0.661716	-0.240530	-0.470105
N144	N	1.161716	0.259470	0.029895
H145	H	0.635159	-0.434671	-0.239270
H146	H	1.135159	0.065329	0.260730
H147	H	0.506194	-0.471328	-0.366942
H148	H	1.006194	0.028672	0.133058
C149	C	0.498723	-0.252044	-0.413334
C150	C	0.998723	0.247956	0.086666
N151	N	0.476730	-0.232328	-0.465324
N152	N	0.976730	0.267672	0.034676
C153	C	0.970834	-0.257065	-0.722303
C154	C	1.470834	0.242935	-0.222303
N155	N	0.931681	-0.217747	-0.751633
N156	N	1.431681	0.282253	-0.251633
C157	C	1.169541	-0.456154	-0.573636
C158	C	1.669541	0.043846	-0.073636
N159	N	1.208749	-0.495424	-0.544314
N160	N	1.708749	0.004576	-0.044314
C161	C	0.641174	-0.323682	-0.200571
C162	C	1.141174	0.176318	0.299429
N163	N	0.661861	-0.282777	-0.159651
N164	N	1.161861	0.217223	0.340349
C165	C	0.500050	-0.324808	-0.200521
C166	C	1.000050	0.175192	0.299479
N167	N	0.478962	-0.284460	-0.159320
N168	N	0.978962	0.215540	0.340680
C169	C	0.642468	-0.218261	-0.297909
C170	C	1.142468	0.281739	0.202091
N171	N	0.664228	-0.172778	-0.261772
N172	N	1.164228	0.327222	0.238228
C173	C	0.934427	-0.927689	-0.361966
C174	C	1.434427	-0.427689	0.138034
N175	N	0.875370	-0.948651	-0.349757
N176	N	1.375370	-0.448651	0.150243
H177	H	1.156073	-0.442627	-0.711985
H178	H	1.656073	0.057373	-0.211985
H179	H	1.156164	-0.442660	-0.939510
H180	H	1.656164	0.057340	-0.439510
H181	H	1.156217	-0.442679	-1.067756
H182	H	1.656217	0.057321	-0.567756
C183	C	0.934821	-0.785851	-0.362041
C184	C	1.434821	-0.285851	0.137959
N185	N	0.875943	-0.764467	-0.349709
N186	N	1.375943	-0.264467	0.150291
C187	C	1.171467	-0.784937	-0.415448
C188	C	1.671467	-0.284937	0.084552
N189	N	1.188913	-0.763120	-0.468158
N190	N	1.688913	-0.263120	0.031842
H191	H	1.026118	-0.793762	-0.431502
H192	H	1.526118	-0.293762	0.068498
H193	H	1.025832	-0.921388	-0.430936
H194	H	1.525832	-0.421388	0.069064
C195	C	1.170747	-0.926542	-0.416541
C196	C	1.670747	-0.426542	0.083459
N197	N	1.187895	-0.946869	-0.469816
N198	N	1.687895	-0.446869	0.030184
C199	C	1.207694	-0.786399	-0.295788
C200	C	1.707694	-0.286399	0.204212
N201	N	1.252429	-0.765680	-0.258367
N202	N	1.752429	-0.265680	0.241633
H203	H	0.994497	-0.921230	-0.236779
H204	H	1.494497	-0.421230	0.263221
C205	C	1.106948	-0.927005	-0.201949
C206	C	1.606948	-0.427005	0.298051
N207	N	1.149538	-0.947626	-0.162431
N208	N	1.649538	-0.447626	0.337569
C209	C	0.970933	-0.257159	-1.078065
C210	C	1.470933	0.242841	-0.578065
N211	N	0.931722	-0.217896	-1.107392
N212	N	1.431722	0.282104	-0.607392
H213	H	0.991249	-0.793662	-0.240232
H214	H	1.491249	-0.293662	0.259768
C215	C	1.101073	-0.785064	-0.199571
C216	C	1.601073	-0.285064	0.300429
N217	N	1.140546	-0.763280	-0.157945
N218	N	1.640546	-0.263280	0.342055
C219	C	0.970724	-0.257087	-0.573858
C220	C	1.470724	0.242913	-0.073858
N221	N	0.931489	-0.217811	-0.544622
N222	N	1.431489	0.282189	-0.044622
