data_functionalizedCrystal
_audit_creation_method	'MofGen! by Chris Wilmer'
_symmetry_space_group_name_H-M	'P1'
_symmetry_Int_Tables_number	1
_symmetry_cell_setting	triclinic
loop_
_symmetry_equiv_pos_as_xyz
  x,y,z
_cell_length_a	12.827893
_cell_length_b	12.759394
_cell_length_c	12.827885
_cell_angle_alpha	89.968776
_cell_angle_beta	89.980538
_cell_angle_gamma	90.014808
loop_
_atom_site_label
_atom_site_type_symbol
_atom_site_fract_x
_atom_site_fract_y
_atom_site_fract_z
Zn1	Zn	1.597676	-0.418216	-0.590838
Zn2	Zn	1.597571	-0.593932	-0.416094
Zn3	Zn	1.422916	-0.418268	-0.416112
Zn4	Zn	1.422904	-0.593854	-0.590794
O5	O	1.510267	-0.506068	-0.503460
O6	O	1.743898	-0.441537	-0.567669
O7	O	1.574364	-0.570684	-0.269860
O8	O	1.446148	-0.271240	-0.439316
O9	O	1.743821	-0.570634	-0.439285
O10	O	1.574542	-0.271202	-0.567686
O11	O	1.446046	-0.441624	-0.269873
O12	O	1.276679	-0.441548	-0.439273
O13	O	1.446126	-0.570501	-0.737036
O14	O	1.276670	-0.570551	-0.567611
O15	O	1.574530	-0.441461	-0.737069
O16	O	1.574352	-0.740943	-0.439243
O17	O	1.446025	-0.740885	-0.567594
C18	C	1.238757	-0.506047	-0.503440
C19	C	1.122604	-0.506064	-0.503456
C20	C	1.510204	-0.779035	-0.503434
C21	C	1.510273	-0.895812	-0.503458
C22	C	1.070842	-0.569998	-0.566864
C23	C	0.950792	-0.570017	-0.566882
C24	C	1.644000	-0.895818	-0.369906
C25	C	1.710891	-0.950682	-0.303143
C26	C	1.710952	-1.060404	-0.303171
C27	C	1.644117	-1.115264	-0.369973
C28	C	1.577227	-1.060400	-0.436736
C29	C	1.577170	-0.950676	-0.436698
C30	C	1.443506	-1.060393	-0.570292
C31	C	1.443438	-0.950672	-0.570260
C32	C	1.376672	-1.115253	-0.637094
C33	C	1.309774	-1.060389	-0.703854
C34	C	1.309715	-0.950661	-0.703822
C35	C	1.376547	-0.895808	-0.637024
C36	C	1.782837	-0.506089	-0.503480
C37	C	1.898990	-0.506098	-0.503489
C38	C	1.510339	-0.505967	-0.776030
C39	C	1.510369	-0.505924	-0.892183
C40	C	1.510358	-0.232034	-0.503508
C41	C	1.510397	-0.115257	-0.503528
C42	C	1.446894	-0.442048	-0.943974
C43	C	1.446924	-0.442002	-1.064025
C44	C	1.510255	-0.506092	-0.231950
C45	C	1.510427	-0.505839	-0.115797
H46	H	1.115404	-0.624717	-0.621140
H47	H	1.564734	-0.560577	-0.936720
H48	H	1.376499	-0.806467	-0.636984
H49	H	1.392524	-0.387400	-0.899438
H50	H	1.564777	-0.560524	-1.071265
C51	C	0.917071	-0.621374	-0.743722
C52	C	0.890710	-0.643912	-0.640174
H53	H	0.879981	-0.667000	-0.788970
H54	H	0.899245	-0.550796	-0.759112
H55	H	0.989866	-0.631059	-0.753312
H56	H	0.817915	-0.634219	-0.630583
H57	H	0.908529	-0.714506	-0.624779
H58	H	1.255248	-0.905997	-0.758193
H59	H	0.943497	-0.451362	-0.449197
H60	H	1.078042	-0.451337	-0.449188
C61	C	1.670498	-0.738530	-0.469287
C62	C	1.643926	-0.775211	-0.369868
H63	H	1.670446	-0.664072	-0.469261
H64	H	1.737936	-0.763274	-0.487405
H65	H	1.621119	-0.763357	-0.518617
H66	H	1.693309	-0.750390	-0.320539
H67	H	1.576478	-0.750456	-0.351738
H68	H	1.765425	-1.105074	-0.248811
C69	C	1.270027	-0.390829	-1.097814
C70	C	1.373554	-0.368172	-1.124137
H71	H	1.224732	-0.345242	-1.134921
H72	H	1.254740	-0.461418	-1.115645
H73	H	1.260397	-0.381174	-1.025022
H74	H	1.383186	-0.377833	-1.196927
H75	H	1.388847	-0.297565	-1.106312
C76	C	1.770171	-0.782486	-0.243777
C77	C	1.784350	-0.890378	-0.229713
H78	H	1.815519	-0.745262	-0.198441
H79	H	1.785429	-0.764437	-0.313988
H80	H	1.699951	-0.764585	-0.228423
H81	H	1.854569	-0.908280	-0.245075
H82	H	1.769100	-0.908434	-0.159486
C83	C	1.717018	-1.272442	-0.297307
C84	C	1.644189	-1.235871	-0.370009
H85	H	1.717055	-1.346901	-0.297328
H86	H	1.784421	-1.247550	-0.315430
H87	H	1.698957	-1.247689	-0.229851
H88	H	1.662255	-1.260619	-0.437466
H89	H	1.576772	-1.260774	-0.351891
H90	H	1.376731	-1.204595	-0.637117
C91	C	1.250501	-1.228583	-0.763205
C92	C	1.236315	-1.120692	-0.777274
H93	H	1.205143	-1.265812	-0.808528
H94	H	1.320710	-1.246481	-0.778566
H95	H	1.235251	-1.246628	-0.692981
H96	H	1.251572	-1.102646	-0.847497
H97	H	1.166090	-1.102786	-0.761921
