data_functionalizedCrystal
_audit_creation_method	'MofGen! by Chris Wilmer'
_symmetry_space_group_name_H-M	'P1'
_symmetry_Int_Tables_number	1
_symmetry_cell_setting	triclinic
loop_
_symmetry_equiv_pos_as_xyz
  x,y,z
_cell_length_a	14.044220
_cell_length_b	14.044191
_cell_length_c	12.503552
_cell_angle_alpha	86.157523
_cell_angle_beta	86.157908
_cell_angle_gamma	86.809673
loop_
_atom_site_label
_atom_site_type_symbol
_atom_site_fract_x
_atom_site_fract_y
_atom_site_fract_z
O1	O	-0.225150	1.282214	-0.089264
O2	O	0.274850	1.782214	0.410736
O3	O	-0.216837	1.005543	-0.089278
O4	O	0.283163	1.505543	0.410722
O5	O	-0.082658	1.139725	-0.089266
O6	O	0.417342	1.639725	0.410734
O7	O	-0.359329	1.148032	-0.089275
O8	O	0.140671	1.648032	0.410725
O9	O	-0.092758	1.129622	0.089375
O10	O	0.407242	1.629622	0.589375
O11	O	-0.226937	0.995439	0.089364
O12	O	0.273063	1.495439	0.589364
O13	O	-0.235250	1.272111	0.089378
O14	O	0.264750	1.772111	0.589378
Cu15	Cu	-0.232016	1.132853	0.105682
Cu16	Cu	0.267984	1.632853	0.605682
Cu17	Cu	-0.220072	1.144801	-0.105582
Cu18	Cu	0.279928	1.644801	0.394418
O19	O	-0.369429	1.137928	0.089366
O20	O	0.130571	1.637928	0.589366
C21	C	-0.218250	0.964869	0.000041
C22	C	0.281750	1.464869	0.500041
C23	C	-0.207403	0.858726	0.000036
C24	C	0.292597	1.358726	0.500036
C25	C	-0.264504	0.613267	0.000045
C26	C	0.235496	1.113267	0.500045
C27	C	-0.187587	0.664393	0.000046
C28	C	0.312413	1.164393	0.500046
C29	C	-0.198615	0.772530	0.000040
C30	C	0.301385	1.272530	0.500040
C31	C	-0.253477	0.505120	0.000050
C32	C	0.246523	1.005120	0.500050
C33	C	-0.400001	1.146616	0.000044
C34	C	0.099999	1.646616	0.500044
C35	C	-0.506144	1.157461	0.000041
C36	C	-0.006144	1.657461	0.500041
C37	C	-0.700482	1.177287	0.000047
C38	C	-0.200482	1.677287	0.500047
C39	C	-0.751610	1.100372	0.000044
C40	C	-0.251610	1.600372	0.500044
C41	C	-0.859747	1.111404	0.000047
C42	C	-0.359747	1.611404	0.500047
C43	C	-0.592336	1.166257	0.000044
C44	C	-0.092336	1.666257	0.500044
C45	C	-0.052086	1.131038	0.000053
C46	C	0.447914	1.631038	0.500053
C47	C	0.054057	1.120194	0.000050
C48	C	0.554057	1.620194	0.500050
C49	C	-0.233837	1.312785	0.000056
C50	C	0.266163	1.812785	0.500056
C51	C	-0.244684	1.418928	0.000055
C52	C	0.255316	1.918928	0.500055
N53	N	-0.240416	1.124456	0.254274
N54	N	0.259584	1.624456	0.754274
N55	N	-0.211664	1.153205	-0.254174
N56	N	0.288336	1.653205	0.245826
C57	C	-0.199303	1.165552	0.526711
C58	C	0.300697	1.665552	1.026711
C59	C	-0.252775	1.112112	0.473382
C60	C	0.247225	1.612112	0.973382
C61	C	-0.245897	1.118982	0.351459
C62	C	0.254103	1.618982	0.851459
C63	C	-0.206179	1.158683	0.648645
C64	C	0.293821	1.658683	1.148645
H65	H	-0.113451	0.626954	-0.000027
H66	H	0.386549	1.126954	0.499973
H67	H	-0.737922	1.251414	0.000055
H68	H	-0.237922	1.751414	0.500055
N69	N	-0.702023	1.002171	0.000068
N70	N	-0.202023	1.502171	0.500068
H71	H	-0.751214	0.952375	0.000075
H72	H	-0.251214	1.452375	0.500075
H73	H	-0.657063	0.997989	-0.066151
H74	H	-0.157063	1.497989	0.433849
H75	H	-0.303720	1.061202	0.519294
H76	H	0.196280	1.561202	1.019294
N77	N	-0.131818	1.232970	0.465890
N78	N	0.368182	1.732970	0.965890
H79	H	-0.169282	1.280932	0.419219
H80	H	0.330718	1.780932	0.919219
H81	H	-0.097092	1.267618	0.518520
H82	H	0.402908	1.767618	1.018520
N83	N	-0.362696	0.662856	0.000035
N84	N	0.137304	1.162856	0.500035
H85	H	-0.356753	0.734196	0.000029
H86	H	0.143247	1.234196	0.500029
H87	H	-0.394758	0.647466	-0.066194
H88	H	0.105242	1.147466	0.433806
