data_functionalizedCrystal
_audit_creation_method	'MofGen! by Chris Wilmer'
_symmetry_space_group_name_H-M	'P1'
_symmetry_Int_Tables_number	1
_symmetry_cell_setting	triclinic
loop_
_symmetry_equiv_pos_as_xyz
  x,y,z
_cell_length_a	15.297475
_cell_length_b	16.625546
_cell_length_c	16.625539
_cell_angle_alpha	90.028532
_cell_angle_beta	99.681806
_cell_angle_gamma	80.324704
loop_
_atom_site_label
_atom_site_type_symbol
_atom_site_fract_x
_atom_site_fract_y
_atom_site_fract_z
Zn1	Zn	1.379196	-0.534670	0.668844
Zn2	Zn	1.879196	-0.034670	1.168844
Zn3	Zn	1.379097	-0.669493	0.533991
Zn4	Zn	1.879097	-0.169493	1.033991
Zn5	Zn	1.228337	-0.511324	0.510732
Zn6	Zn	1.728337	-0.011324	1.010732
Zn7	Zn	1.228295	-0.646088	0.645497
Zn8	Zn	1.728295	-0.146088	1.145497
O9	O	1.303731	-0.590394	0.589766
O10	O	1.803731	-0.090394	1.089766
O11	O	1.505429	-0.572121	0.670460
O12	O	2.005429	-0.072121	1.170460
O13	O	1.359075	-0.648537	0.418070
O14	O	1.859075	-0.148537	0.918070
O15	O	1.248408	-0.401598	0.531743
O16	O	1.748408	0.098402	1.031743
O17	O	1.505357	-0.671175	0.571385
O18	O	2.005357	-0.171175	1.071385
O19	O	1.359244	-0.418750	0.647907
O20	O	1.859244	0.081250	1.147907
O21	O	1.248312	-0.532330	0.400981
O22	O	1.748312	-0.032330	0.900981
O23	O	1.102085	-0.509635	0.509104
O24	O	1.602085	-0.009635	1.009104
O25	O	1.248336	-0.631283	0.761430
O26	O	1.748336	-0.131283	1.261430
O27	O	1.102054	-0.608645	0.608116
O28	O	1.602054	-0.108645	1.108116
O29	O	1.359202	-0.549425	0.778583
O30	O	1.859202	-0.049425	1.278583
O31	O	1.359034	-0.779212	0.548746
O32	O	1.859034	-0.279212	1.048746
O33	O	1.248240	-0.762016	0.630669
O34	O	1.748240	-0.262016	1.130669
C35	C	1.069335	-0.554067	0.553553
C36	C	1.569335	-0.054067	1.053553
C37	C	0.969059	-0.538546	0.538080
C38	C	1.469059	-0.038546	1.038080
C39	C	0.686434	-0.701332	0.700356
C40	C	1.186434	-0.201332	1.200356
C41	C	0.780648	-0.715921	0.714891
C42	C	1.280648	-0.215921	1.214891
C43	C	0.827756	-0.671578	0.670690
C44	C	1.327756	-0.171578	1.170690
C45	C	0.780640	-0.612645	0.611950
C46	C	1.280640	-0.112645	1.111950
C47	C	0.686417	-0.598059	0.597409
C48	C	1.186417	-0.098059	1.097409
C49	C	0.827738	-0.568305	0.567743
C50	C	1.327738	-0.068305	1.067743
C51	C	0.780622	-0.509372	0.509004
C52	C	1.280622	-0.009372	1.009004
C53	C	0.686408	-0.494788	0.494465
C54	C	1.186408	0.005212	0.994465
C55	C	0.639301	-0.539130	0.538667
C56	C	1.139301	-0.039130	1.038667
C57	C	0.921961	-0.582891	0.582285
C58	C	1.421961	-0.082891	1.082285
C59	C	0.921944	-0.479618	0.479338
C60	C	1.421944	0.020382	0.979338
C61	C	0.827730	-0.465029	0.464802
C62	C	1.327730	0.034971	0.964802
C63	C	1.303646	-0.799871	0.589719
C64	C	1.803646	-0.299871	1.089719
C65	C	1.303692	-0.889500	0.589739
C66	C	1.803692	-0.389500	1.089739
C67	C	1.303849	-1.217700	0.589847
C68	C	1.803849	-0.717700	1.089847
C69	C	1.303803	-1.126384	0.589819
C70	C	1.803803	-0.626384	1.089819
C71	C	1.303770	-1.053602	0.589793
C72	C	1.803770	-0.553602	1.089793
C73	C	1.303725	-0.962281	0.589765
C74	C	1.803725	-0.462281	1.089765
C75	C	1.539043	-0.626863	0.626121
C76	C	2.039043	-0.126863	1.126121
C77	C	1.639318	-0.642403	0.641614
C78	C	2.139318	-0.142403	1.141614
C79	C	1.303775	-0.590347	0.800082
C80	C	1.803775	-0.090347	1.300082
C81	C	1.303794	-0.590328	0.889706
C82	C	1.803794	-0.090328	1.389706
C83	C	1.303842	-0.380102	0.589835
C84	C	1.803842	0.119898	1.089835
C85	C	1.303889	-0.290488	0.589864
C86	C	1.803889	0.209512	1.089864
C87	C	1.303739	-0.590390	0.380277
C88	C	1.803739	-0.090390	0.880277
C89	C	1.303895	-0.590210	0.290680
C90	C	1.803895	-0.090210	0.790680
C91	C	1.303809	-0.590312	0.962491
C92	C	1.803809	-0.090312	1.462491
C93	C	1.303830	-0.590285	1.053803
C94	C	1.803830	-0.090285	1.553803
C95	C	1.303851	-0.590260	1.126582
C96	C	1.803851	-0.090260	1.626582
C97	C	1.303874	-0.590235	1.217900
C98	C	1.803874	-0.090235	1.717900
H99	H	0.960314	-0.630875	0.630112
H100	H	1.460314	-0.130875	1.130112
H101	H	0.789355	-0.417045	0.416976
H102	H	1.289355	0.082955	0.916976
H103	H	0.960298	-0.443512	0.443344
H104	H	1.460298	0.056488	0.943344
H105	H	0.648049	-0.446809	0.446627
H106	H	1.148049	0.053191	0.946627
H107	H	0.904469	-0.683460	0.682529
H108	H	1.404469	-0.183460	1.182529
H109	H	0.648071	-0.737434	0.736334
H110	H	1.148071	-0.237434	1.236334
H111	H	0.562584	-0.527254	0.526837
H112	H	1.062584	-0.027254	1.026837
H113	H	0.819003	-0.763906	0.762716
H114	H	1.319003	-0.263906	1.262716
