data_functionalizedCrystal
_audit_creation_method	'MofGen! by Chris Wilmer'
_symmetry_space_group_name_H-M	'P1'
_symmetry_Int_Tables_number	1
_symmetry_cell_setting	triclinic
loop_
_symmetry_equiv_pos_as_xyz
  x,y,z
_cell_length_a	16.109301
_cell_length_b	16.109301
_cell_length_c	9.130313
_cell_angle_alpha	89.997330
_cell_angle_beta	90.002129
_cell_angle_gamma	83.461532
loop_
_atom_site_label
_atom_site_type_symbol
_atom_site_fract_x
_atom_site_fract_y
_atom_site_fract_z
O1	O	1.103127	0.106864	-0.121724
O2	O	1.603127	0.606864	0.378276
O3	O	0.861065	0.120164	-0.121745
O4	O	1.361065	0.620164	0.378255
O5	O	0.988746	-0.007517	-0.121719
O6	O	1.488746	0.492483	0.378281
O7	O	0.975446	0.234545	-0.121750
O8	O	1.475446	0.734545	0.378250
O9	O	0.988744	-0.007514	0.121880
O10	O	1.488744	0.492486	0.621880
O11	O	0.861063	0.120167	0.121854
O12	O	1.361063	0.620167	0.621854
O13	O	1.103125	0.106868	0.121875
O14	O	1.603125	0.606868	0.621875
Cu15	Cu	0.982094	0.113518	0.144107
Cu16	Cu	1.482094	0.613518	0.644107
Cu17	Cu	0.982096	0.113514	-0.143977
Cu18	Cu	1.482096	0.613514	0.356023
O19	O	0.975445	0.234548	0.121849
O20	O	1.475445	0.734548	0.621849
C21	C	0.830089	0.119627	0.000052
C22	C	1.330089	0.619627	0.500052
C23	C	0.737794	0.118011	0.000045
C24	C	1.237794	0.618011	0.500045
C25	C	0.428796	0.188494	0.000061
C26	C	0.928796	0.688494	0.500061
C27	C	0.515516	0.190020	0.000052
C28	C	1.015516	0.690020	0.500052
C29	C	0.535389	0.038531	0.000052
C30	C	1.035389	0.538531	0.500052
C31	C	0.448671	0.037007	0.000050
C32	C	0.948671	0.537007	0.500050
C33	C	0.395376	0.111991	0.000062
C34	C	0.895376	0.611991	0.500062
C35	C	0.568815	0.115041	0.000055
C36	C	1.068815	0.615041	0.500055
C37	C	0.662841	0.116694	0.000046
C38	C	1.162841	0.616694	0.500046
C39	C	0.301344	0.110338	0.000069
C40	C	0.801344	0.610338	0.500069
C41	C	0.988206	-0.038490	0.000081
C42	C	1.488206	0.461510	0.500081
C43	C	0.986591	-0.130785	0.000083
C44	C	1.486591	0.369215	0.500083
C45	C	1.058599	-0.353058	0.000067
C46	C	1.558599	0.146942	0.500067
C47	C	1.057075	-0.439778	0.000054
C48	C	1.557075	0.060222	0.500054
C49	C	0.905586	-0.419904	0.000047
C50	C	1.405586	0.080096	0.500047
C51	C	0.907111	-0.333185	0.000049
C52	C	1.407111	0.166815	0.500049
C53	C	0.983620	-0.299765	0.000066
C54	C	1.483620	0.200235	0.500066
C55	C	0.980571	-0.473204	0.000052
C56	C	1.480571	0.026796	0.500052
C57	C	0.978918	-0.567230	0.000039
C58	C	1.478918	-0.067230	0.500039
C59	C	0.985273	-0.205733	0.000076
C60	C	1.485273	0.294267	0.500076
C61	C	1.134101	0.107405	0.000075
C62	C	1.634101	0.607405	0.500075
C63	C	1.226396	0.109020	0.000073
C64	C	1.726396	0.609020	0.500073
C65	C	0.975984	0.265522	0.000046
C66	C	1.475984	0.765522	0.500046
C67	C	0.977599	0.357817	0.000034
C68	C	1.477599	0.857817	0.500034
N69	N	0.982099	0.113520	0.346730
N70	N	1.482099	0.613520	0.846730
N71	N	0.982098	0.113505	-0.346599
N72	N	1.482098	0.613505	0.153401
C73	C	1.038650	0.057002	0.423393
C74	C	1.538650	0.557002	0.923393
C75	C	1.038648	0.056992	0.576730
C76	C	1.538648	0.556992	1.076730
C77	C	0.925541	0.170025	0.576726
C78	C	1.425541	0.670025	1.076726
C79	C	0.925540	0.170031	0.423392
C80	C	1.425540	0.670031	0.923392
C81	C	1.103955	-0.008254	0.423397
C82	C	1.603955	0.491746	0.923397
C83	C	1.103952	-0.008264	0.576734
C84	C	1.603952	0.491736	1.076734
H85	H	0.421461	-0.025296	0.000047
H86	H	0.921461	0.474704	0.500047
Br87	Br	0.848776	0.246721	0.319345
Br88	Br	1.348776	0.746721	0.819345
Br89	Br	0.805346	-0.260852	0.000028
Br90	Br	1.305346	0.239148	0.500028
Br91	Br	0.607722	-0.063228	0.000048
Br92	Br	1.107722	0.436772	0.500048
Br93	Br	0.801758	-0.465266	0.000019
Br94	Br	1.301758	0.034734	0.500019
H95	H	1.118130	-0.483167	0.000052
H96	H	1.618130	0.016833	0.500052
H97	H	1.120897	-0.325850	0.000078
H98	H	1.620897	0.174150	0.500078
Br99	Br	1.210233	0.014513	0.646118
Br100	Br	1.710233	0.514513	1.146118
Br101	Br	0.848783	0.246713	0.680776
Br102	Br	1.348783	0.746713	1.180776
H103	H	1.090333	-0.072035	0.381783
H104	H	1.590333	0.427965	0.881783
H105	H	1.164140	0.011454	0.375841
H106	H	1.664140	0.511454	0.875841
Br107	Br	1.071177	-0.108612	0.656008
Br108	Br	1.571177	0.391388	1.156008
H109	H	0.385405	0.249551	0.000070
H110	H	0.885405	0.749551	0.500070
H111	H	0.542722	0.252317	0.000050
H112	H	1.042722	0.752317	0.500050
