data_functionalizedCrystal
_audit_creation_method	'MofGen! by Chris Wilmer'
_symmetry_space_group_name_H-M	'P1'
_symmetry_Int_Tables_number	1
_symmetry_cell_setting	triclinic
loop_
_symmetry_equiv_pos_as_xyz
  x,y,z
_cell_length_a	23.532361
_cell_length_b	23.532357
_cell_length_c	9.482900
_cell_angle_alpha	99.268091
_cell_angle_beta	80.775783
_cell_angle_gamma	82.828980
loop_
_atom_site_label
_atom_site_type_symbol
_atom_site_fract_x
_atom_site_fract_y
_atom_site_fract_z
O1	O	0.764183	0.060051	-0.120763
O2	O	0.598317	0.070079	-0.120800
O3	O	0.686265	-0.017867	-0.120750
O4	O	0.676236	0.147997	-0.120812
O5	O	0.668400	0.000068	0.121032
O6	O	0.580453	0.088014	0.120982
O7	O	0.746319	0.077986	0.121020
Cu8	Cu	0.661755	0.084638	0.143078
Cu9	Cu	0.682881	0.063427	-0.142858
O10	O	0.658371	0.165932	0.120970
C11	C	0.568169	0.078795	0.000087
C12	C	0.504951	0.078039	0.000074
C13	C	0.241445	0.064960	-0.131712
C14	C	0.300845	0.065674	-0.131716
O15	O	0.339853	0.057710	-0.243800
N16	N	0.320813	0.075812	0.000080
C17	C	0.281378	0.085230	0.131889
O18	O	0.303816	0.093918	0.243991
C19	C	0.221980	0.084511	0.131891
C20	C	0.202015	0.074379	0.000087
C21	C	0.221480	0.054828	-0.263506
C22	C	0.162084	0.054114	-0.263501
C23	C	0.122653	0.063533	-0.131703
C24	C	0.142619	0.073665	0.000091
C25	C	0.182546	0.093925	0.263698
C26	C	0.123145	0.093204	0.263689
C27	C	0.103180	0.083072	0.131884
C28	C	0.043792	0.082370	0.131894
N29	N	0.023825	0.072233	0.000098
C30	C	0.063255	0.062814	-0.131701
C31	C	0.406119	0.086738	0.131874
C32	C	0.465515	0.087461	0.131873
C33	C	0.484979	0.067904	-0.131732
C34	C	0.425581	0.067185	-0.131729
C35	C	0.386151	0.076600	0.000078
C36	C	-0.061481	0.061317	-0.131681
C37	C	-0.120884	0.060606	-0.131665
C38	C	-0.140342	0.080160	0.131939
C39	C	-0.080945	0.080873	0.131924
C40	C	-0.041515	0.071449	0.000102
O41	O	0.004752	0.090328	0.243921
O42	O	0.040809	0.054120	-0.243784
C43	C	0.677081	-0.030116	0.000145
C44	C	0.676325	-0.093333	0.000159
C45	C	0.681332	-0.495126	-0.131716
C46	C	0.680616	-0.554526	-0.131725
O47	O	0.688507	-0.593557	-0.243812
N48	N	0.670522	-0.574461	0.000069
C49	C	0.661139	-0.534991	0.131880
O50	O	0.652487	-0.557402	0.243980
C51	C	0.661852	-0.475592	0.131887
C52	C	0.671952	-0.455662	0.000084
C53	C	0.691431	-0.475195	-0.263508
C54	C	0.692149	-0.415799	-0.263499
C55	C	0.682768	-0.376335	-0.131698
C56	C	0.672669	-0.396266	0.000093
C57	C	0.652464	-0.436123	0.263696
C58	C	0.653178	-0.376720	0.263691
C59	C	0.663277	-0.356790	0.131889
C60	C	0.664006	-0.297406	0.131903
N61	N	0.674099	-0.277471	0.000109
C62	C	0.683480	-0.316935	-0.131691
C63	C	0.659642	-0.659734	0.131855
C64	C	0.658934	-0.719133	0.131850
C65	C	0.678409	-0.738664	-0.131755
C66	C	0.679122	-0.679264	-0.131748
C67	C	0.669736	-0.639800	0.000061
C68	C	0.684987	-0.192199	-0.131663
C69	C	0.685706	-0.132798	-0.131642
C70	C	0.666228	-0.113272	0.131962
C71	C	0.665511	-0.172669	0.131943
C72	C	0.674890	-0.212132	0.000118
O73	O	0.656117	-0.258341	0.243933
O74	O	0.692123	-0.294515	-0.243773
C75	C	0.776467	0.069270	0.000130
C76	C	0.839686	0.070025	0.000133
C77	C	0.667555	0.178181	0.000071
C78	C	0.668311	0.241398	0.000048
N79	N	0.646899	0.099556	0.344189
N80	N	0.697741	0.048505	-0.343970
C81	C	0.678496	0.067825	0.416407
C82	C	0.666140	0.080241	0.583817
H83	H	0.409330	0.058935	-0.239057
Br84	Br	0.209625	0.107678	0.442588
Br85	Br	0.069637	0.105977	0.442581
Br86	Br	0.135000	0.040358	-0.442389
H87	H	0.629937	0.116600	0.645921
H88	H	0.699068	-0.507322	-0.370842
H89	H	0.687345	-0.663042	-0.239074
Br90	Br	0.738688	0.007081	0.312900
H91	H	0.686046	-0.770807	-0.239075
H92	H	0.733940	0.012142	0.593926
H93	H	0.610699	0.135912	0.406299
H94	H	-0.137135	0.052357	-0.239001
Br95	Br	0.638754	-0.463155	0.442582
Br96	Br	-0.007979	0.048526	-0.310584
H97	H	0.693933	-0.116575	-0.238976
Br98	Br	0.274984	0.042041	-0.442400
Br99	Br	0.352611	0.099523	0.310773
Br100	Br	0.492600	0.101227	0.310758
Br101	Br	0.538503	0.055125	-0.310603
H102	H	-0.064691	0.089135	0.239250
H103	H	-0.172457	0.087831	0.239246
Br104	Br	0.697715	-0.245747	-0.310568
H105	H	0.700371	-0.399578	-0.370826
Br106	Br	0.645240	-0.746175	0.310731
Br107	Br	0.646906	-0.606180	0.310757
Br108	Br	0.640437	-0.323163	0.442587
H109	H	0.658593	-0.081130	0.239271
Br110	Br	0.651818	-0.199720	0.310818
