data_functionalizedCrystal
_audit_creation_method	'MofGen! by Chris Wilmer'
_symmetry_space_group_name_H-M	'P1'
_symmetry_Int_Tables_number	1
_symmetry_cell_setting	triclinic
loop_
_symmetry_equiv_pos_as_xyz
  x,y,z
_cell_length_a	16.625547
_cell_length_b	19.120786
_cell_length_c	16.625539
_cell_angle_alpha	87.528626
_cell_angle_beta	89.975178
_cell_angle_gamma	92.464876
loop_
_atom_site_label
_atom_site_type_symbol
_atom_site_fract_x
_atom_site_fract_y
_atom_site_fract_z
Zn1	Zn	1.218969	-0.279630	-0.442286
Zn2	Zn	1.213113	-0.397095	-0.301692
Zn3	Zn	1.084130	-0.279655	-0.307455
Zn4	Zn	1.078344	-0.397052	-0.436474
O5	O	1.148639	-0.338358	-0.371977
O6	O	1.331024	-0.295220	-0.423656
O7	O	1.195973	-0.381544	-0.189623
O8	O	1.106889	-0.181361	-0.330185
O9	O	1.326721	-0.381520	-0.320363
O10	O	1.205955	-0.181343	-0.429245
O11	O	1.101210	-0.295262	-0.193857
O12	O	0.970530	-0.295220	-0.324550
O13	O	1.097027	-0.381448	-0.550079
O14	O	0.966279	-0.381471	-0.419339
O15	O	1.200344	-0.295179	-0.554349
O16	O	1.190363	-0.495379	-0.314727
O17	O	1.091349	-0.495348	-0.413751
C18	C	0.939149	-0.338344	-0.371940
C19	C	0.849527	-0.338355	-0.371942
C20	C	0.776744	-0.338357	-0.371952
C21	C	0.685436	-0.338361	-0.371972
C22	C	0.612659	-0.338367	-0.371992
C23	C	0.521345	-0.338372	-0.372011
C24	C	1.139614	-0.520849	-0.363000
C25	C	1.135827	-0.598920	-0.359187
C26	C	1.185588	-0.635528	-0.409012
C27	C	1.182026	-0.708884	-0.405431
C28	C	1.128708	-0.745630	-0.352019
C29	C	1.078941	-0.709017	-0.302192
C30	C	1.082499	-0.635663	-0.305778
C31	C	1.115383	-0.967116	-0.338613
C32	C	1.111830	-1.040475	-0.335029
C33	C	1.214914	-1.040337	-0.438269
C34	C	1.218471	-0.966981	-0.441847
C35	C	1.168702	-0.930375	-0.392023
C36	C	1.125068	-0.820611	-0.348355
C37	C	1.172338	-0.855395	-0.395691
C38	C	1.358947	-0.338372	-0.372015
C39	C	1.448568	-0.338378	-0.372031
C40	C	1.148694	-0.338306	-0.582288
C41	C	1.148717	-0.338283	-0.671911
C42	C	1.157721	-0.155154	-0.381006
C43	C	1.161591	-0.077083	-0.384854
C44	C	1.148758	-0.338205	-1.000090
C45	C	1.148744	-0.338229	-0.908781
C46	C	1.148738	-0.338245	-0.836003
C47	C	1.148724	-0.338268	-0.744688
C48	C	1.148633	-0.338359	-0.162486
C49	C	1.148775	-0.338184	-0.072874
H50	H	1.222553	-0.738687	-0.445998
O51	O	1.270289	-0.931397	-0.493799
C52	C	1.313464	-0.979439	-0.536992
H53	H	1.277897	-1.031750	-0.537204
H54	H	1.374337	-0.987215	-0.507138
C55	C	1.370127	-0.886499	-0.623958
C56	C	1.326440	-0.950747	-0.624223
H57	H	1.378135	-0.868800	-0.677765
H58	H	1.341042	-0.854131	-0.594856
H59	H	1.420849	-0.892988	-0.599075
H60	H	1.275715	-0.944255	-0.649096
H61	H	1.355517	-0.983113	-0.653331
O62	O	1.034195	-0.599991	-0.257457
C63	C	1.048780	-0.527367	-0.272062
H64	H	1.075643	-0.517295	-0.334805
H65	H	1.092754	-0.506544	-0.225296
C66	C	0.936032	-0.502142	-0.189370
C67	C	0.969019	-0.489771	-0.266436
H68	H	0.886833	-0.478950	-0.185896
H69	H	0.926207	-0.551070	-0.179528
H70	H	0.972685	-0.484789	-0.150407
H71	H	0.932371	-0.507132	-0.305396
H72	H	0.978836	-0.440846	-0.276284
O73	O	1.059958	-1.076064	-0.283125
C74	C	1.016806	-1.028025	-0.239904
H75	H	1.016530	-0.975718	-0.275482
H76	H	1.046739	-1.020235	-0.179073
C77	C	0.929945	-1.120974	-0.183104
C78	C	0.929601	-1.056732	-0.226806
H79	H	0.876154	-1.138683	-0.175021
H80	H	0.959020	-1.153340	-0.212221
H81	H	0.954893	-1.114474	-0.132417
H82	H	0.904663	-1.063235	-0.277496
H83	H	0.900521	-1.024369	-0.197698
O84	O	1.073167	-0.856278	-0.296555
C85	C	0.993660	-0.838395	-0.314949
H86	H	0.990525	-0.818191	-0.380343
H87	H	0.974669	-0.795863	-0.273770
C88	C	0.940548	-0.928424	-0.222011
C89	C	0.936697	-0.903615	-0.302332
H90	H	0.905409	-0.968653	-0.214225
H91	H	0.994113	-0.940471	-0.209616
H92	H	0.924724	-0.892974	-0.187704
H93	H	0.952530	-0.939061	-0.336636
H94	H	0.883133	-0.891575	-0.314732
H95	H	1.229009	-0.605614	-0.452502
O96	O	1.263131	-1.075932	-0.486755
C97	C	1.215131	-1.118380	-0.536694
H98	H	1.152695	-1.096315	-0.542685
H99	H	1.209669	-1.173989	-0.509042
C100	C	1.331103	-1.146534	-0.613147
C101	C	1.254420	-1.119431	-0.620511
H102	H	1.355339	-1.147186	-0.664849
H103	H	1.363443	-1.117939	-0.579501
H104	H	1.326540	-1.192873	-0.590101
H105	H	1.258984	-1.073090	-0.643548
H106	H	1.222082	-1.148019	-0.654164
H107	H	1.215748	-0.825474	-0.439182
O108	O	1.067161	-0.931482	-0.290176
C109	C	1.115156	-0.889057	-0.240206
H110	H	1.176779	-0.878006	-0.269247
H111	H	1.122679	-0.917353	-0.179079
C112	C	0.998490	-0.832993	-0.193299
C113	C	1.074175	-0.819415	-0.228970
H114	H	0.973211	-0.790035	-0.186364
H115	H	0.966155	-0.861577	-0.226961
H116	H	1.004770	-0.856574	-0.142363
H117	H	1.067894	-0.795842	-0.279909
H118	H	1.106509	-0.790825	-0.195316
O119	O	1.027190	-0.744632	-0.250200
C120	C	1.045736	-0.726749	-0.170729
H121	H	1.079317	-0.673467	-0.171695
H122	H	1.085204	-0.768017	-0.141593
C123	C	0.926074	-0.788886	-0.120785
C124	C	0.967312	-0.723441	-0.121972
H125	H	0.877699	-0.786848	-0.090708
H126	H	0.913579	-0.800936	-0.174325
H127	H	0.958972	-0.823269	-0.096507
H128	H	0.934418	-0.689061	-0.146259
H129	H	0.979799	-0.711384	-0.068434
