data_functionalizedCrystal
_audit_creation_method	'MofGen! by Chris Wilmer'
_symmetry_space_group_name_H-M	'P1'
_symmetry_Int_Tables_number	1
_symmetry_cell_setting	triclinic
loop_
_symmetry_equiv_pos_as_xyz
  x,y,z
_cell_length_a	14.971482
_cell_length_b	23.532407
_cell_length_c	14.048226
_cell_angle_alpha	89.988910
_cell_angle_beta	89.994098
_cell_angle_gamma	83.230643
loop_
_atom_site_label
_atom_site_type_symbol
_atom_site_fract_x
_atom_site_fract_y
_atom_site_fract_z
O1	O	1.186165	0.074206	-0.079158
O2	O	0.925671	0.083096	-0.079164
O3	O	1.063773	-0.004247	-0.079144
O4	O	1.048063	0.161549	-0.079179
O5	O	1.063757	-0.004252	0.079178
O6	O	0.925654	0.083091	0.079157
O7	O	1.186149	0.074201	0.079163
Zn8	Zn	1.055899	0.078645	0.104297
Zn9	Zn	1.055920	0.078652	-0.104298
O10	O	1.048046	0.161544	0.079142
C11	C	0.892342	0.082696	-0.000004
C12	C	0.793057	0.081506	-0.000005
C13	C	0.746409	0.080943	0.086297
C14	C	0.653123	0.079815	0.086298
C15	C	0.606485	0.079255	-0.000004
C16	C	0.653139	0.079817	-0.086313
C17	C	0.746425	0.080940	-0.086313
C18	C	0.458702	0.077477	-0.086306
C19	C	0.365410	0.076355	-0.086306
C20	C	0.365400	0.076352	0.086305
C21	C	0.458686	0.077475	0.086305
C22	C	0.505334	0.078038	-0.000005
C23	C	1.063365	-0.025467	0.000019
C24	C	1.062162	-0.088689	0.000027
C25	C	1.136344	-0.487475	-0.000024
C26	C	1.135226	-0.546880	-0.000031
O27	O	1.203994	-0.583331	-0.000065
N28	N	1.053125	-0.569858	-0.000032
C29	C	0.972135	-0.533426	-0.000036
O30	O	0.902198	-0.558425	-0.000038
C31	C	0.973253	-0.474022	-0.000035
C32	C	1.055360	-0.451049	-0.000024
C33	C	1.218444	-0.464501	-0.000014
C34	C	1.219561	-0.405100	-0.000005
C35	C	1.138578	-0.368674	-0.000006
C36	C	1.056477	-0.391648	-0.000015
C37	C	0.892264	-0.437592	-0.000046
C38	C	0.893390	-0.378185	-0.000046
C39	C	0.975497	-0.355211	-0.000035
C40	C	0.976611	-0.295820	-0.000007
N41	N	1.058713	-0.272843	-0.000006
C42	C	1.139696	-0.309270	-0.000005
C43	C	0.969792	-0.658179	-0.000038
C44	C	0.968673	-0.717581	-0.000032
C45	C	1.131765	-0.731032	-0.000029
C46	C	1.132884	-0.671628	-0.000029
C47	C	1.051894	-0.635202	-0.000037
C48	C	1.142036	-0.184523	0.000014
C49	C	1.143145	-0.125116	0.000027
C50	C	0.980054	-0.111671	0.000020
C51	C	0.978944	-0.171073	0.000012
C52	C	1.059942	-0.207498	0.000006
O53	O	0.907879	-0.259335	0.000023
O54	O	1.209621	-0.284263	-0.000015
C55	C	1.219477	0.074601	0.000001
C56	C	1.318762	0.075791	-0.000004
C57	C	1.048454	0.182764	-0.000023
C58	C	1.049657	0.245987	-0.000036
N59	N	1.055890	0.078640	0.246658
N60	N	1.055936	0.078652	-0.246659
C61	C	1.117061	0.039981	0.296485
C62	C	1.117067	0.039980	0.396142
C63	C	1.055906	0.078643	0.445971
C64	C	0.994729	0.117304	0.396137
C65	C	0.994719	0.117301	0.296481
C66	C	0.994755	0.117308	0.603851
C67	C	0.994765	0.117312	0.703514
C68	C	1.117103	0.039987	0.703513
C69	C	1.117093	0.039985	0.603857
C70	C	1.055917	0.078647	0.554029
H71	H	0.496680	0.077935	-0.156588
O72	O	0.935266	0.154912	0.248223
C73	C	0.813890	0.231584	0.258736
C74	C	0.881191	0.189032	0.313504
H75	H	0.770140	0.259173	0.311492
H76	H	0.852197	0.260114	0.212084
H77	H	0.769467	0.206936	0.212075
H78	H	0.925632	0.213634	0.360217
H79	H	0.842828	0.160503	0.360097
O80	O	0.607774	0.079374	-0.170121
C81	C	0.491846	0.127394	-0.270277
C82	C	0.543164	0.127971	-0.175339
H83	H	0.439584	0.166674	-0.274517
H84	H	0.541163	0.128026	-0.332000
H85	H	0.456757	0.087028	-0.274569
H86	H	0.578256	0.168330	-0.170954
H87	H	0.493805	0.127309	-0.113661
O88	O	1.220798	-0.219819	0.000055
C89	C	1.382679	-0.226875	0.000014
C90	C	1.293549	-0.186837	-0.000017
H91	H	1.441522	-0.200225	-0.000065
H92	H	1.386293	-0.255021	0.066284
H93	H	1.386202	-0.255025	-0.066230
H94	H	1.289967	-0.158651	0.066182
H95	H	1.289973	-0.158729	-0.066331
H96	H	0.944960	0.148794	0.744080
H97	H	0.912085	-0.189779	0.000029
H98	H	1.286421	-0.386401	-0.000000
H99	H	0.496655	0.077935	0.156579
O100	O	0.814656	-0.342859	-0.000180
C101	C	0.675641	-0.313154	-0.082242
C102	C	0.764761	-0.353200	-0.082201
H103	H	0.635284	-0.321492	-0.148559
H104	H	0.635136	-0.321533	-0.016036
H105	H	0.690558	-0.266753	-0.082190
H106	H	0.749925	-0.399615	-0.082287
H107	H	0.805239	-0.344771	-0.148401
O108	O	0.791597	0.081515	-0.170232
C109	C	0.781774	0.081370	-0.341438
C110	C	0.730504	0.080733	-0.246466
H111	H	0.732406	0.080726	-0.403098
H112	H	0.816878	0.121730	-0.345826
H113	H	0.834016	0.042082	-0.345694
H114	H	0.678221	0.119994	-0.242147
H115	H	0.695463	0.040348	-0.242119
O116	O	1.222852	-0.102733	-0.000093
C117	C	1.318803	-0.043493	-0.082136
C118	C	1.228499	-0.068790	-0.082103
H119	H	1.323406	-0.016054	-0.148444
H120	H	1.323416	-0.015992	-0.015920
H121	H	1.376474	-0.079746	-0.082095
H122	H	1.170777	-0.032574	-0.082178
H123	H	1.223965	-0.096306	-0.148313
H124	H	0.903837	-0.628523	-0.000037
H125	H	0.914119	-0.082002	0.000022
O126	O	1.297201	-0.499800	0.000032
C127	C	1.459082	-0.506851	-0.000003
C128	C	1.369950	-0.466816	-0.000044
H129	H	1.517922	-0.480199	-0.000085
H130	H	1.462694	-0.534993	0.066272
H131	H	1.462609	-0.535006	-0.066243
H132	H	1.366363	-0.438625	0.066150
H133	H	1.366374	-0.438712	-0.066363
O134	O	1.210518	-0.766342	0.000005
C135	C	1.372401	-0.773430	-0.000059
C136	C	1.283289	-0.733375	-0.000076
H137	H	1.431260	-0.746793	-0.000145
H138	H	1.376009	-0.801578	0.066209
H139	H	1.375901	-0.801578	-0.066305
H140	H	1.279729	-0.705191	0.066125
H141	H	1.279718	-0.705267	-0.066389
H142	H	1.166914	0.008507	0.744088
O143	O	0.888937	-0.739922	0.000135
C144	C	0.793025	-0.799217	0.082110
C145	C	0.883350	-0.773946	0.082060
H146	H	0.788486	-0.826740	0.148329
H147	H	0.735304	-0.762995	0.082172
H148	H	0.788441	-0.826656	0.015818
H149	H	0.888022	-0.746513	0.148341
H150	H	0.941027	-0.810195	0.081948
O151	O	0.812559	-0.459965	-0.000193
C152	C	0.716618	-0.519166	-0.082280
C153	C	0.806932	-0.493881	-0.082215
H154	H	0.712031	-0.546582	-0.148598
H155	H	0.711972	-0.546687	-0.016075
H156	H	0.658957	-0.482907	-0.082243
H157	H	0.864645	-0.530103	-0.082287
H158	H	0.811499	-0.466344	-0.148415
H159	H	1.166869	0.008500	0.255921
H160	H	1.199742	-0.652927	-0.000021
O161	O	1.176585	0.002412	0.444397
C162	C	1.297913	-0.074292	0.433878
C163	C	1.230565	-0.031768	0.379113
H164	H	1.341560	-0.101946	0.381121
H165	H	1.342432	-0.049677	0.480484
H166	H	1.259554	-0.102762	0.480585
H167	H	1.268849	-0.003287	0.332355
H168	H	1.186047	-0.056419	0.332568
O169	O	0.935296	0.154921	0.555595
C170	C	0.813929	0.231599	0.566108
C171	C	0.881223	0.189042	0.620876
H172	H	0.770180	0.259189	0.618863
H173	H	0.852241	0.260127	0.519459
H174	H	0.769503	0.206954	0.519444
H175	H	0.925666	0.213640	0.667592
H176	H	0.842854	0.160515	0.667465
H177	H	0.784374	0.081403	0.156574
H178	H	0.615148	0.079347	0.156574
H179	H	0.327415	0.075894	0.156581
O180	O	0.320181	0.075888	-0.170196
C181	C	0.281011	0.124865	-0.317706
C182	C	0.332293	0.125456	-0.222748
H183	H	0.290770	0.164942	-0.360213
H184	H	0.307899	0.085288	-0.360325
H185	H	0.206335	0.123942	-0.302845
H186	H	0.406975	0.126399	-0.237523
H187	H	0.305331	0.165028	-0.180159
H188	H	1.166899	0.008506	0.563286
H189	H	0.944926	0.148782	0.436713
