data_functionalizedCrystal
_audit_creation_method	'MofGen! by Chris Wilmer'
_symmetry_space_group_name_H-M	'P1'
_symmetry_Int_Tables_number	1
_symmetry_cell_setting	triclinic
loop_
_symmetry_equiv_pos_as_xyz
  x,y,z
_cell_length_a	11.792254
_cell_length_b	19.188930
_cell_length_c	10.268362
_cell_angle_alpha	89.989600
_cell_angle_beta	89.995475
_cell_angle_gamma	83.671689
loop_
_atom_site_label
_atom_site_type_symbol
_atom_site_fract_x
_atom_site_fract_y
_atom_site_fract_z
O1	O	1.505467	0.095737	-0.108315
O2	O	2.005467	0.595737	0.391685
O3	O	1.174981	0.105590	-0.108320
O4	O	1.674981	0.605590	0.391680
O5	O	1.349761	-0.000937	-0.108292
O6	O	1.849761	0.499063	0.391708
O7	O	1.330687	0.202265	-0.108343
O8	O	1.830687	0.702265	0.391657
O9	O	1.349746	-0.000942	0.108309
O10	O	1.849746	0.499058	0.608309
O11	O	1.174966	0.105586	0.108281
O12	O	1.674966	0.605586	0.608281
O13	O	1.505452	0.095733	0.108286
O14	O	2.005452	0.595733	0.608286
Cu15	Cu	1.340207	0.100659	0.128061
Cu16	Cu	1.840207	0.600659	0.628061
Cu17	Cu	1.340225	0.100664	-0.128095
Cu18	Cu	1.840225	0.600664	0.371905
O19	O	1.330672	0.202261	0.108258
O20	O	1.830672	0.702261	0.608258
C21	C	1.132692	0.104968	-0.000019
C22	C	1.632692	0.604968	0.499981
C23	C	1.006706	0.103110	-0.000020
C24	C	1.506706	0.603110	0.499980
C25	C	0.904392	0.101600	-0.000025
C26	C	1.404392	0.601600	0.499975
C27	C	0.776034	0.099713	-0.000026
C28	C	1.276034	0.599713	0.499974
C29	C	1.349136	-0.026954	0.000012
C30	C	1.849136	0.473046	0.500012
C31	C	1.347282	-0.104469	0.000023
C32	C	1.847282	0.395531	0.500023
C33	C	1.449837	-0.148809	0.000031
C34	C	1.949837	0.351191	0.500031
C35	C	1.448095	-0.221643	0.000010
C36	C	1.948095	0.278357	0.500010
C37	C	1.343792	-0.250134	0.000008
C38	C	1.843792	0.249866	0.500008
C39	C	1.241223	-0.205784	-0.000007
C40	C	1.741223	0.294216	0.499993
C41	C	1.242968	-0.132951	0.000001
C42	C	1.742968	0.367049	0.500001
N43	N	1.264059	-0.358594	0.073720
N44	N	1.764059	0.141406	0.573720
N45	N	1.262409	-0.427782	0.073715
N46	N	1.762409	0.072218	0.573715
C47	C	1.338528	-0.469572	-0.000019
C48	C	1.838528	0.030428	0.499981
N49	N	1.416378	-0.439562	-0.073731
N50	N	1.916378	0.060438	0.426269
N51	N	1.418032	-0.370368	-0.073721
N52	N	1.918032	0.129632	0.426279
C53	C	1.341888	-0.329107	-0.000002
C54	C	1.841888	0.170893	0.499998
C55	C	1.439202	-0.592887	-0.000035
C56	C	1.939202	-0.092887	0.499965
C57	C	1.437455	-0.665722	-0.000064
C58	C	1.937455	-0.165722	0.499936
C59	C	1.230580	-0.649861	-0.000069
C60	C	1.730580	-0.149861	0.499931
C61	C	1.232330	-0.577028	-0.000053
C62	C	1.732330	-0.077028	0.499947
C63	C	1.336643	-0.548546	-0.000030
C64	C	1.836643	-0.048546	0.499970
C65	C	1.547741	0.096356	-0.000017
C66	C	2.047741	0.596356	0.499983
C67	C	1.673726	0.098214	-0.000025
C68	C	2.173726	0.598214	0.499975
N69	N	1.340203	0.100655	0.308227
N70	N	1.840203	0.600655	0.808227
C71	C	1.331297	0.228278	-0.000049
C72	C	1.831297	0.728278	0.499951
C73	C	1.333151	0.305793	-0.000069
C74	C	1.833151	0.805793	0.499931
N75	N	1.340239	0.100663	-0.308261
N76	N	1.840239	0.600663	0.191739
C77	C	1.340220	0.100663	0.573897
C78	C	1.840220	0.600663	1.073897
C79	C	1.340207	0.100660	0.426059
C80	C	1.840207	0.600660	0.926059
H81	H	1.534777	-0.125624	0.000045
H82	H	2.034777	0.374376	0.500045
H83	H	1.531611	-0.257752	0.000011
H84	H	2.031611	0.242248	0.500011
H85	H	1.524140	-0.569696	-0.000023
H86	H	2.024140	-0.069696	0.499977
O87	O	1.129159	-0.677412	-0.000129
O88	O	1.629159	-0.177412	0.499871
C89	C	1.039012	-0.622653	-0.000091
C90	C	1.539012	-0.122653	0.499909
H91	H	1.070582	-0.573054	-0.041089
H92	H	1.570582	-0.073054	0.458911
H93	H	1.007386	-0.612483	0.103824
H94	H	1.507386	-0.112483	0.603824
C95	C	0.901839	-0.704491	-0.034686
C96	C	1.401839	-0.204491	0.465314
C97	C	0.940611	-0.643575	-0.085051
C98	C	1.440611	-0.143575	0.414949
H99	H	0.841138	-0.717397	-0.087088
H100	H	1.341138	-0.217397	0.412912
H101	H	0.962572	-0.741384	-0.034707
H102	H	1.462572	-0.241384	0.465293
H103	H	0.875492	-0.696008	0.051909
H104	H	1.375492	-0.196008	0.551909
H105	H	0.966970	-0.652061	-0.171637
H106	H	1.466970	-0.152061	0.328363
H107	H	0.879880	-0.606684	-0.085047
H108	H	1.379880	-0.106684	0.414953
O109	O	1.139974	-0.233538	-0.000181
O110	O	1.639974	0.266462	0.499819
C111	C	1.132774	-0.275167	-0.112379
C112	C	1.632774	0.224833	0.387621
H113	H	1.222321	-0.292958	-0.149774
H114	H	1.722321	0.207042	0.350226
H115	H	1.082410	-0.243178	-0.190933
H116	H	1.582410	0.256822	0.309067
C117	C	0.961996	-0.317970	-0.032380
C118	C	1.461996	0.182030	0.467620
C119	C	1.071980	-0.339826	-0.078302
C120	C	1.571980	0.160174	0.421698
H121	H	0.924491	-0.357853	-0.011363
H122	H	1.424491	0.142147	0.488637
H123	H	0.966843	-0.289922	0.043208
H124	H	1.466843	0.210078	0.543208
H125	H	0.920040	-0.291312	-0.097849
H126	H	1.420040	0.208688	0.402151
H127	H	1.113938	-0.366477	-0.012828
H128	H	1.613938	0.133523	0.487172
H129	H	1.067138	-0.367880	-0.153879
H130	H	1.567138	0.132120	0.346121
H131	H	1.148818	-0.540925	-0.000052
H132	H	1.648818	-0.040925	0.499948
O133	O	1.143236	-0.089976	0.000058
O134	O	1.643236	0.410024	0.500058
C135	C	1.050797	-0.130735	0.000011
C136	C	1.550797	0.369265	0.500011
H137	H	1.079869	-0.184984	0.041008
H138	H	1.579869	0.315016	0.541008
H139	H	1.018817	-0.136026	-0.103907
H140	H	1.518817	0.363974	0.396093
C141	C	0.918042	-0.028201	0.034601
C142	C	1.418042	0.471799	0.534601
C143	C	0.953747	-0.094828	0.084965
C144	C	1.453747	0.405172	0.584965
H145	H	0.858174	-0.006051	0.087000
H146	H	1.358174	0.493949	0.587000
H147	H	0.980319	-0.000740	0.034628
H148	H	1.480319	0.499260	0.534628
H149	H	0.891399	-0.032620	-0.051996
H150	H	1.391399	0.467380	0.448004
H151	H	0.980401	-0.090408	0.171554
H152	H	1.480401	0.409592	0.671554
H153	H	0.891472	-0.122288	0.084955
H154	H	1.391472	0.377712	0.584955
O155	O	1.537188	-0.708697	-0.000000
O156	O	2.037188	-0.208697	0.500000
C157	C	1.629625	-0.667936	-0.000009
C158	C	2.129625	-0.167936	0.499991
H159	H	1.600540	-0.613700	0.041004
H160	H	2.100540	-0.113700	0.541004
H161	H	1.661632	-0.662613	-0.103917
H162	H	2.161632	-0.162613	0.396083
C163	C	1.762376	-0.770478	0.034568
C164	C	2.262376	-0.270478	0.534568
C165	C	1.726655	-0.703866	0.084952
C166	C	2.226655	-0.203866	0.584952
H167	H	1.822231	-0.792642	0.086971
H168	H	2.322231	-0.292642	0.586971
H169	H	1.700101	-0.797940	0.034569
H170	H	2.200101	-0.297940	0.534569
H171	H	1.789040	-0.766033	-0.052021
H172	H	2.289040	-0.266033	0.447979
H173	H	1.699978	-0.708312	0.171533
H174	H	2.199978	-0.208312	0.671533
H175	H	1.788928	-0.676405	0.084968
H176	H	2.288928	-0.176405	0.584968
