data_functionalizedCrystal
_audit_creation_method	'MofGen! by Chris Wilmer'
_symmetry_space_group_name_H-M	'P1'
_symmetry_Int_Tables_number	1
_symmetry_cell_setting	triclinic
loop_
_symmetry_equiv_pos_as_xyz
  x,y,z
_cell_length_a	12.811445
_cell_length_b	11.792254
_cell_length_c	11.295483
_cell_angle_alpha	94.123239
_cell_angle_beta	80.460739
_cell_angle_gamma	84.121730
loop_
_atom_site_label
_atom_site_type_symbol
_atom_site_fract_x
_atom_site_fract_y
_atom_site_fract_z
O1	O	1.411391	0.133589	-0.251431
O2	O	1.911391	0.633589	0.248569
O3	O	1.103543	0.152758	-0.218191
O4	O	1.603543	0.652758	0.281809
O5	O	1.264930	-0.022072	-0.235608
O6	O	1.764930	0.477928	0.264392
O7	O	1.250004	0.308418	-0.234014
O8	O	1.750004	0.808418	0.265986
O9	O	1.250755	-0.006740	-0.036028
O10	O	1.750755	0.493260	0.463972
O11	O	1.089368	0.168090	-0.018611
O12	O	1.589368	0.668090	0.481389
O13	O	1.397216	0.148921	-0.051850
O14	O	1.897216	0.648921	0.448150
Cu15	Cu	1.241998	0.159905	-0.017007
Cu16	Cu	1.741998	0.659905	0.482993
Cu17	Cu	1.258761	0.141773	-0.253034
Cu18	Cu	1.758761	0.641773	0.246966
O19	O	1.235829	0.323750	-0.034433
O20	O	1.735829	0.823750	0.465567
C21	C	1.057045	0.159819	-0.114145
C22	C	1.557045	0.659819	0.385855
C23	C	0.939611	0.158001	-0.101465
C24	C	1.439611	0.658001	0.398535
C25	C	0.734391	0.137890	-0.295243
C26	C	1.234391	0.637890	0.204757
C27	C	0.624052	0.136182	-0.283334
C28	C	1.124052	0.636182	0.216666
C29	C	0.608591	0.152885	-0.065740
C30	C	1.108591	0.652885	0.434260
C31	C	0.718930	0.154593	-0.077649
C32	C	1.218930	0.654593	0.422351
C33	C	0.781827	0.147093	-0.192404
C34	C	1.281827	0.647093	0.307596
C35	C	0.892169	0.148793	-0.204312
C36	C	1.392169	0.648793	0.295688
C37	C	0.876705	0.165504	0.013282
C38	C	1.376705	0.665504	0.513282
C39	C	0.766366	0.163796	0.025190
C40	C	1.266366	0.663796	0.525190
C41	C	1.256902	-0.056687	-0.135717
C42	C	1.756902	0.443313	0.364283
C43	C	1.254088	-0.182671	-0.135414
C44	C	1.754088	0.317329	0.364586
C45	C	1.251801	-0.284985	-0.135171
C46	C	1.751801	0.215015	0.364829
C47	C	1.248943	-0.413343	-0.134874
C48	C	1.748943	0.086657	0.365126
C49	C	1.443715	0.141860	-0.155899
C50	C	1.943715	0.641860	0.344101
C51	C	1.561149	0.143677	-0.168586
C52	C	2.061149	0.643677	0.331414
C53	C	1.243857	0.358365	-0.134327
C54	C	1.743857	0.858365	0.365673
C55	C	1.246672	0.484349	-0.134638
C56	C	1.746672	0.984349	0.365362
N57	N	1.230215	0.172658	0.149001
N58	N	1.730215	0.672658	0.649001
N59	N	1.270553	0.129012	-0.419043
N60	N	1.770553	0.629012	0.080957
C61	C	1.355373	0.037150	0.384783
C62	C	1.855373	0.537150	0.884783
C63	C	1.346476	0.046795	0.510407
C64	C	1.846476	0.546795	1.010407
C65	C	1.203520	0.201587	0.525875
C66	C	1.703520	0.701587	1.025875
C67	C	1.212417	0.191942	0.400251
C68	C	1.712417	0.691942	0.900251
C69	C	1.288347	0.109722	0.329709
C70	C	1.788347	0.609722	0.829709
C71	C	1.297248	0.100083	0.204083
C72	C	1.797248	0.600083	0.704083
C73	C	1.154287	0.254868	0.219554
C74	C	1.654287	0.754868	0.719554
C75	C	1.145391	0.264513	0.345177
C76	C	1.645391	0.764513	0.845177
H77	H	0.585435	0.128690	-0.367077
H78	H	1.085435	0.628690	0.132923
H79	H	1.401054	-0.012301	0.555244
H80	H	1.901054	0.487699	1.055244
H81	H	1.083567	0.331453	0.402627
H82	H	1.583567	0.831453	0.902627
H83	H	0.785604	0.131777	-0.388682
H84	H	1.285604	0.631777	0.111318
C85	C	1.380769	0.009637	0.126489
C86	C	1.880769	0.509637	0.626489
N87	N	1.443676	-0.058493	0.068048
N88	N	1.943676	0.441507	0.568048
C89	C	0.961353	0.140545	-0.330544
C90	C	1.461353	0.640545	0.169456
N91	N	1.013460	0.134337	-0.425626
N92	N	1.513460	0.634337	0.074374
H93	H	1.417205	-0.029789	0.327346
H94	H	1.917205	0.470211	0.827346
C95	C	0.928895	0.175607	0.126412
C96	C	1.428895	0.675607	0.626412
N97	N	0.968207	0.183206	0.211619
N98	N	1.468207	0.683206	0.711619
H99	H	0.557361	0.159001	0.027689
H100	H	1.057361	0.659001	0.527689
H101	H	1.141692	0.268521	0.583327
H102	H	1.641692	0.768521	1.083327
H103	H	0.715140	0.169906	0.118621
H104	H	1.215140	0.669906	0.618621
H105	H	1.099713	0.313964	0.174699
H106	H	1.599713	0.813964	0.674699
