data_functionalizedCrystal
_audit_creation_method	'MofGen! by Chris Wilmer'
_symmetry_space_group_name_H-M	'P1'
_symmetry_Int_Tables_number	1
_symmetry_cell_setting	triclinic
loop_
_symmetry_equiv_pos_as_xyz
  x,y,z
_cell_length_a	12.759401
_cell_length_b	19.805405
_cell_length_c	12.759393
_cell_angle_alpha	89.965008
_cell_angle_beta	89.981425
_cell_angle_gamma	90.027152
loop_
_atom_site_label
_atom_site_type_symbol
_atom_site_fract_x
_atom_site_fract_y
_atom_site_fract_z
Zn1	Zn	1.606167	-0.269415	-0.593960
Zn2	Zn	1.606025	-0.382620	-0.418270
Zn3	Zn	1.430469	-0.269451	-0.418299
Zn4	Zn	1.430421	-0.382568	-0.593911
O5	O	1.518271	-0.326014	-0.506110
O6	O	1.753169	-0.284439	-0.570663
O7	O	1.582698	-0.367645	-0.271253
O8	O	1.453856	-0.174730	-0.441634
O9	O	1.753065	-0.367610	-0.441584
O10	O	1.582940	-0.174703	-0.570691
O11	O	1.453718	-0.284500	-0.271274
O12	O	1.283442	-0.284450	-0.441586
O13	O	1.453773	-0.367522	-0.740939
O14	O	1.283406	-0.367557	-0.570607
O15	O	1.582893	-0.284389	-0.740975
O16	O	1.582651	-0.477330	-0.441536
O17	O	1.453635	-0.477292	-0.570579
C18	C	1.245303	-0.326002	-0.506095
C19	C	1.128527	-0.326013	-0.506114
C20	C	1.073720	-0.282784	-0.573429
C21	C	0.963996	-0.282791	-0.573436
C22	C	0.963895	-0.369262	-0.438810
C23	C	1.073617	-0.369251	-0.438798
C24	C	1.518151	-0.501870	-0.506072
C25	C	1.518196	-0.577102	-0.506091
C26	C	1.585370	-0.612374	-0.573344
C27	C	1.585408	-0.683062	-0.573363
C28	C	1.518276	-0.718477	-0.506124
C29	C	1.451094	-0.683200	-0.438868
C30	C	1.451052	-0.612513	-0.438855
C31	C	1.451263	-0.968274	-0.438922
C32	C	1.451313	-1.038966	-0.438938
C33	C	1.585619	-1.038823	-0.573431
C34	C	1.585577	-0.968136	-0.573417
C35	C	1.518392	-0.932865	-0.506166
C36	C	1.518350	-0.856216	-0.506147
C37	C	1.518322	-0.795124	-0.506137
C38	C	1.792304	-0.326026	-0.506126
C39	C	1.909080	-0.326031	-0.506132
C40	C	1.518344	-0.325945	-0.780143
C41	C	1.518375	-0.325916	-0.896920
C42	C	1.518419	-0.149471	-0.506171
C43	C	1.518483	-0.074239	-0.506197
C44	C	1.451239	-0.282615	-0.951793
C45	C	1.451264	-0.282594	-1.061517
C46	C	1.585569	-0.369178	-1.061486
C47	C	1.585538	-0.369201	-0.951764
C48	C	1.518258	-0.326033	-0.233143
C49	C	1.518430	-0.325872	-0.116367
H50	H	1.118424	-0.247575	-0.628238
Cl51	Cl	1.366599	-0.568171	-0.354306
H52	H	1.118242	-0.404454	-0.383977
H53	H	1.396551	-0.247369	-0.907142
H54	H	1.640041	-0.583544	-0.628093
H55	H	1.396594	-0.247334	-1.106190
H56	H	1.640251	-0.404419	-1.106153
H57	H	1.640211	-0.404465	-0.907085
Cl58	Cl	1.669977	-0.923618	-0.657947
Cl59	Cl	0.894858	-0.423617	-0.354193
Cl60	Cl	0.895100	-0.228443	-0.658063
H61	H	1.640322	-1.067549	-0.628193
Cl62	Cl	1.366910	-1.083487	-0.354404
Cl63	Cl	1.669846	-0.727402	-0.657928
H64	H	1.396560	-0.939562	-0.384162
H65	H	1.396430	-0.712041	-0.384125
