data_functionalizedCrystal
_audit_creation_method	'MofGen! by Chris Wilmer'
_symmetry_space_group_name_H-M	'P1'
_symmetry_Int_Tables_number	1
_symmetry_cell_setting	triclinic
loop_
_symmetry_equiv_pos_as_xyz
  x,y,z
_cell_length_a	10.654553
_cell_length_b	10.489741
_cell_length_c	9.130313
_cell_angle_alpha	89.999004
_cell_angle_beta	89.999282
_cell_angle_gamma	84.512676
loop_
_atom_site_label
_atom_site_type_symbol
_atom_site_fract_x
_atom_site_fract_y
_atom_site_fract_z
O1	O	1.667916	0.179175	-0.121815
O2	O	1.302446	0.196240	-0.121814
O3	O	1.493497	0.002106	-0.121806
O4	O	1.476865	0.373310	-0.121823
O5	O	1.493494	0.002111	0.121793
O6	O	1.302443	0.196246	0.121785
O7	O	1.667913	0.179180	0.121784
Cu8	Cu	1.485178	0.187714	0.144027
Cu9	Cu	1.485181	0.187707	-0.144057
O10	O	1.476862	0.373315	0.121776
C11	C	1.255646	0.194989	-0.000015
C12	C	1.116201	0.191238	-0.000014
C13	C	0.919657	0.185945	0.132762
C14	C	1.050680	0.189477	0.132770
C15	C	1.050692	0.189479	-0.132815
C16	C	0.919671	0.185956	-0.132822
C17	C	0.919652	0.185939	0.286095
C18	C	1.050674	0.189471	0.286103
C19	C	1.492239	-0.045422	-0.000007
C20	C	1.488481	-0.187050	-0.000010
C21	C	1.366921	-0.255133	-0.000020
C22	C	1.424344	-0.347280	0.120086
C23	C	1.424375	-0.347260	-0.120083
C24	C	1.545954	-0.277332	0.120196
C25	C	1.545968	-0.277302	-0.120081
C26	C	1.603479	-0.369422	0.000055
C27	C	1.714713	0.180432	-0.000019
C28	C	1.854158	0.184183	-0.000029
C29	C	1.478120	0.420843	-0.000026
C30	C	1.481878	0.562471	-0.000033
N31	N	1.485185	0.187717	0.346649
N32	N	1.485184	0.187694	-0.346680
C33	C	1.569805	0.101784	0.423305
C34	C	1.569801	0.101769	0.576642
C35	C	1.400555	0.273631	0.576654
C36	C	1.400553	0.273639	0.423320
C37	C	1.667521	0.002564	0.423299
C38	C	1.667518	0.002549	0.576636
H39	H	0.873409	0.274090	0.344966
Cl40	Cl	1.620332	-0.140488	0.650065
Cl41	Cl	0.837330	0.183766	-0.299765
H42	H	1.764040	0.024405	0.618251
Cl43	Cl	1.096399	0.333107	0.359560
Cl44	Cl	1.294156	0.381654	0.326951
H45	H	1.266975	-0.205435	0.000101
H46	H	1.104049	0.190925	-0.240930
Cl47	Cl	1.122078	0.053373	0.376994
Cl48	Cl	1.344935	-0.395120	0.276860
H49	H	1.646033	-0.095481	0.381684
Cl50	Cl	1.625299	-0.229772	0.277143
H51	H	1.597360	-0.246284	-0.221628
Cl52	Cl	0.873904	0.042398	0.359773
Cl53	Cl	1.757924	-0.445808	0.000151
H54	H	1.372926	-0.378201	-0.221634
H55	H	1.331649	0.343586	0.639095
H56	H	1.758720	0.033633	0.375739
