data_functionalizedCrystal
_audit_creation_method	'MofGen! by Chris Wilmer'
_symmetry_space_group_name_H-M	'P1'
_symmetry_Int_Tables_number	1
_symmetry_cell_setting	triclinic
loop_
_symmetry_equiv_pos_as_xyz
  x,y,z
_cell_length_a	22.610064
_cell_length_b	23.532407
_cell_length_c	27.732066
_cell_angle_alpha	82.749389
_cell_angle_beta	89.992187
_cell_angle_gamma	90.002839
loop_
_atom_site_label
_atom_site_type_symbol
_atom_site_fract_x
_atom_site_fract_y
_atom_site_fract_z
O1	O	-0.049106	-0.755143	-0.058671
O2	O	0.450894	-0.255143	0.441329
O3	O	-0.049123	-0.589262	-0.067162
O4	O	0.450877	-0.089262	0.432838
O5	O	-0.049116	-0.677349	0.007472
O6	O	0.450884	-0.177349	0.507472
O7	O	-0.049113	-0.667056	-0.133305
O8	O	0.450887	-0.167056	0.366695
O9	O	0.049253	-0.677333	0.007461
O10	O	0.549253	-0.177333	0.507461
O11	O	0.049246	-0.589246	-0.067173
O12	O	0.549246	-0.089246	0.432827
O13	O	0.049263	-0.755127	-0.058682
O14	O	0.549263	-0.255127	0.441318
Zn15	Zn	0.064873	-0.672184	-0.062929
Zn16	Zn	0.564873	-0.172184	0.437071
Zn17	Zn	-0.064733	-0.672205	-0.062915
Zn18	Zn	0.435267	-0.172205	0.437085
O19	O	0.049256	-0.667040	-0.133316
O20	O	0.549256	-0.167040	0.366684
C21	C	0.000060	-0.568039	-0.066951
C22	C	0.500060	-0.068039	0.433049
C23	C	0.000053	-0.504823	-0.066301
C24	C	0.500053	-0.004823	0.433699
N25	N	0.153325	-0.672174	-0.062939
N26	N	0.653325	-0.172174	0.437061
N27	N	-0.153185	-0.672219	-0.062902
N28	N	0.346815	-0.172219	0.437098
C29	C	0.000067	-0.677123	0.025473
C30	C	0.500067	-0.177123	0.525473
C31	C	0.000062	-0.676468	0.079129
C32	C	0.500062	-0.176468	0.579129
C33	C	0.561970	-0.711211	-0.029872
C34	C	1.061970	-0.211211	0.470128
C35	C	0.623890	-0.711214	-0.029869
C36	C	1.123890	-0.211214	0.470131
O37	O	0.655911	-0.744381	-0.001762
O38	O	1.155911	-0.244381	0.498238
N39	N	0.654863	-0.672204	-0.062905
N40	N	1.154863	-0.172204	0.437095
C41	C	0.623912	-0.633185	-0.095943
C42	C	1.123912	-0.133185	0.404057
O43	O	0.655943	-0.600004	-0.124042
O44	O	1.155943	-0.100004	0.375958
C45	C	0.561993	-0.633180	-0.095944
C46	C	1.061993	-0.133180	0.404056
C47	C	0.531024	-0.672196	-0.062909
C48	C	1.031024	-0.172196	0.437091
C49	C	0.531000	-0.750224	0.003160
C50	C	1.031000	-0.250224	0.503160
C51	C	0.469085	-0.750222	0.003156
C52	C	0.969085	-0.250222	0.503156
C53	C	0.438139	-0.711207	-0.029881
C54	C	0.938139	-0.211207	0.470119
C55	C	0.469108	-0.672194	-0.062913
C56	C	0.969108	-0.172194	0.437087
C57	C	0.531044	-0.594159	-0.128980
C58	C	1.031044	-0.094159	0.371020
C59	C	0.469121	-0.594156	-0.128978
C60	C	0.969121	-0.094156	0.371022
C61	C	0.438152	-0.633173	-0.095943
C62	C	0.938152	-0.133173	0.404057
C63	C	0.376247	-0.633176	-0.095955
C64	C	0.876247	-0.133176	0.404045
N65	N	0.345274	-0.672186	-0.062919
N66	N	0.845274	-0.172186	0.437081
C67	C	0.376220	-0.711201	-0.029882
C68	C	0.876220	-0.211201	0.470118
C69	C	0.753946	-0.633198	-0.095939
C70	C	1.253946	-0.133198	0.404061
C71	C	0.815863	-0.633206	-0.095940
C72	C	1.315863	-0.133206	0.404060
C73	C	0.815837	-0.711234	-0.029865
C74	C	1.315837	-0.211234	0.470135
C75	C	0.753918	-0.711229	-0.029866
C76	C	1.253918	-0.211229	0.470134
C77	C	0.722973	-0.672208	-0.062902
C78	C	1.222973	-0.172208	0.437098
C79	C	0.246193	-0.711194	-0.029893
C80	C	0.746193	-0.211194	0.470107
C81	C	0.184271	-0.711190	-0.029902
C82	C	0.684271	-0.211190	0.470098
C83	C	0.184303	-0.633159	-0.095975
C84	C	0.684303	-0.133159	0.404025
C85	C	0.246219	-0.633165	-0.095969
C86	C	0.746219	-0.133165	0.404031
C87	C	0.277162	-0.672185	-0.062924
C88	C	0.777162	-0.172185	0.437076
O89	O	0.344186	-0.600026	-0.124046
O90	O	0.844186	-0.100026	0.375954
O91	O	0.344182	-0.744372	-0.001783
O92	O	0.844182	-0.244372	0.498217
C93	C	0.000079	-0.776351	-0.058893
C94	C	0.500079	-0.276351	0.441107
C95	C	0.000082	-0.839566	-0.059543
C96	C	0.500082	-0.339566	0.440457
C97	C	0.000081	-0.105637	-0.106390
C98	C	0.500081	0.394363	0.393610
C99	C	0.000084	-0.046238	-0.105786
C100	C	0.500084	0.453762	0.394214
O101	O	0.000106	-0.009417	-0.142950
O102	O	0.500106	0.490583	0.357050
N103	N	0.000082	-0.023703	-0.061417
N104	N	0.500082	0.476297	0.438583
C105	C	0.000083	-0.060571	-0.017648
C106	C	0.500083	0.439429	0.482352
O107	O	0.000082	-0.035949	0.020147
O108	O	0.500082	0.464051	0.520147
C109	C	0.000084	-0.119969	-0.018253
C110	C	0.500084	0.380031	0.481747
C111	C	0.000079	-0.142500	-0.062625
C112	C	0.500079	0.357500	0.437375
C113	C	0.000077	-0.128169	-0.150759
C114	C	0.500077	0.371831	0.349241
C115	C	0.000072	-0.187564	-0.151363
C116	C	0.500072	0.312436	0.348637
C117	C	0.000071	-0.224427	-0.107598
C118	C	0.500071	0.275573	0.392402
C119	C	0.000075	-0.201895	-0.063229
C120	C	0.500075	0.298105	0.436771
C121	C	0.000088	-0.156835	0.025515
C122	C	0.500088	0.343165	0.525515
C123	C	0.000089	-0.216237	0.024907
C124	C	0.500089	0.283763	0.524907
C125	C	0.000085	-0.238768	-0.019465
C126	C	0.500085	0.261232	0.480535
C127	C	0.000069	-0.298153	-0.020067
C128	C	0.500069	0.201847	0.479933
N129	N	0.000071	-0.320688	-0.064437
N130	N	0.500071	0.179312	0.435563
C131	C	0.000072	-0.283825	-0.108202
C132	C	0.500072	0.216175	0.391798
C133	C	0.000083	0.064169	-0.016383
C134	C	0.500083	0.564169	0.483617
C135	C	0.000078	0.123566	-0.015778
C136	C	0.500078	0.623566	0.484222
C137	C	0.000080	0.137894	-0.103916
C138	C	0.500080	0.637894	0.396084
C139	C	0.000081	0.078496	-0.104520
C140	C	0.500081	0.578496	0.395480
C141	C	0.000084	0.041634	-0.060752
C142	C	0.500084	0.541634	0.439248
C143	C	0.000061	-0.408559	-0.109466
C144	C	0.500061	0.091441	0.390534
C145	C	0.000054	-0.467960	-0.110066
C146	C	0.500054	0.032040	0.389934
C147	C	0.000055	-0.482283	-0.021928
C148	C	0.500055	0.017717	0.478072
C149	C	0.000059	-0.422888	-0.021328
C150	C	0.500059	0.077112	0.478672
C151	C	0.000064	-0.386026	-0.065101
C152	C	0.500064	0.113974	0.434899
O153	O	0.000049	-0.335009	0.017076
O154	O	0.500049	0.164991	0.517076
O155	O	0.000080	-0.308455	-0.145991
O156	O	0.500080	0.191545	0.354009
C157	C	0.000056	-0.619951	0.456288
C158	C	0.500056	-0.119951	0.956288
C159	C	0.000055	-0.622363	0.254624
C160	C	0.500055	-0.122363	0.754624
O161	O	0.000026	-0.578510	0.223439
O162	O	0.500026	-0.078510	0.723439
N163	N	0.000060	-0.674597	0.235416
N164	N	0.500060	-0.174597	0.735416
C165	C	0.000061	-0.726232	0.266628
C166	C	0.500061	-0.226232	0.766628
O167	O	0.000059	-0.770716	0.245663
O168	O	0.500059	-0.270716	0.745663
C169	C	0.000059	-0.723820	0.468291
C170	C	0.500059	-0.223820	0.968291
C171	C	0.000060	-0.671582	0.487496
C172	C	0.500060	-0.171582	0.987496
C173	C	0.000057	-0.567717	0.475493
C174	C	0.500057	-0.067717	0.975493
C175	C	0.000060	-0.567115	0.525906
C176	C	0.500060	-0.067115	1.025906
C177	C	0.000064	-0.618746	0.557114
C178	C	0.500064	-0.118746	1.057114
C179	C	0.000064	-0.670979	0.537909
C180	C	0.500064	-0.170979	1.037909
C181	C	0.000056	-0.775454	0.499502
C182	C	0.500056	-0.275454	0.999502
C183	C	0.000054	-0.774846	0.549920
C184	C	0.500054	-0.274846	1.049920
C185	C	0.000055	-0.722608	0.569125
C186	C	0.500055	-0.222608	1.069125
C187	C	0.000071	-0.722008	0.619529
C188	C	0.500071	-0.222008	1.119529
N189	N	0.000066	-0.669773	0.638737
N190	N	0.500066	-0.169773	1.138737
C191	C	0.000062	-0.618142	0.607529
C192	C	0.500062	-0.118142	1.107529
C193	C	0.000064	-0.727496	0.160752
C194	C	0.500064	-0.227496	0.660752
C195	C	0.000065	-0.728099	0.110336
C196	C	0.500065	-0.228099	0.610336
C197	C	0.000057	-0.624229	0.098336
C198	C	0.500057	-0.124229	0.598336
C199	C	0.000060	-0.623627	0.148752
C200	C	0.500060	-0.123627	0.648752
C201	C	0.000059	-0.675261	0.179960
C202	C	0.500059	-0.175261	0.679960
C203	C	0.000070	-0.616881	0.713401
C204	C	0.500070	-0.116881	1.213401
C205	C	0.000077	-0.616283	0.763819
C206	C	0.500077	-0.116283	1.263819
C207	C	0.000081	-0.720152	0.775815
C208	C	0.500081	-0.220152	1.275815
C209	C	0.000078	-0.720751	0.725401
C210	C	0.500078	-0.220751	1.225401
C211	C	0.000071	-0.669110	0.694195
C212	C	0.500071	-0.169110	1.194195
O213	O	0.000092	-0.765838	0.650743
O214	O	0.500092	-0.265838	1.150743
O215	O	0.000051	-0.573665	0.628504
O216	O	0.500051	-0.073665	1.128504
C217	C	0.000053	-0.620553	0.405875
C218	C	0.500053	-0.120553	0.905875
C219	C	0.000052	-0.672787	0.386670
C220	C	0.500052	-0.172787	0.886670
C221	C	0.000056	-0.724418	0.417877
C222	C	0.500056	-0.224418	0.917877
C223	C	0.000054	-0.673390	0.336254
C224	C	0.500054	-0.173390	0.836254
C225	C	0.000051	-0.621759	0.305047
C226	C	0.500051	-0.121759	0.805047
C227	C	0.000046	-0.569525	0.324254
C228	C	0.500046	-0.069525	0.824254
C229	C	0.000049	-0.568922	0.374667
C230	C	0.500049	-0.068922	0.874667
C231	C	0.000061	-0.776652	0.398670
C232	C	0.500061	-0.276652	0.898670
C233	C	0.000058	-0.777250	0.348256
C234	C	0.500058	-0.277250	0.848256
C235	C	0.000054	-0.725619	0.317048
C236	C	0.500054	-0.225619	0.817048
C237	C	0.000074	-0.667264	0.848682
C238	C	0.500074	-0.167264	1.348682
C239	C	0.000080	-0.667914	0.795026
C240	C	0.500080	-0.167914	1.295026
H241	H	0.159058	-0.742963	-0.003001
H242	H	0.659058	-0.242963	0.496999
N243	N	0.000099	-0.253882	0.069621
N244	N	0.500099	0.246118	0.569621
N245	N	0.000106	-0.233752	0.109232
N246	N	0.500106	0.266248	0.609232
H247	H	0.000113	-0.260337	0.140812
H248	H	0.500113	0.239663	0.640812
H249	H	0.000050	-0.486301	-0.146201
H250	H	0.500050	0.013699	0.353799
H251	H	0.000052	-0.512308	0.013704
H252	H	0.500052	-0.012308	0.513704
H253	H	0.000080	-0.098160	-0.186400
H254	H	0.500080	0.401840	0.313600
N255	N	0.000104	-0.133843	0.070847
N256	N	0.500104	0.366157	0.570847
N257	N	0.041575	-0.145286	0.100273
N258	N	0.541575	0.354714	0.600273
H259	H	0.041588	-0.129050	0.132292
H260	H	0.541588	0.370950	0.632292
H261	H	0.000069	-0.205903	-0.187495
H262	H	0.500069	0.294097	0.312505
H263	H	0.000081	0.060156	-0.140652
H264	H	0.500081	0.560156	0.359348
N265	N	0.000090	0.026516	0.028329
N266	N	0.500090	0.526516	0.528329
N267	N	0.041555	0.028359	0.057898
N268	N	0.541555	0.528359	0.557898
H269	H	0.041562	0.001769	0.089475
H270	H	0.541562	0.501769	0.589475
N271	N	0.000054	-0.399879	0.024000
N272	N	0.500054	0.100121	0.524000
N273	N	0.000049	-0.432801	0.063073
N274	N	0.500049	0.067199	0.563073
H275	H	0.000050	-0.416555	0.095087
H276	H	0.500050	0.083445	0.595087
H277	H	0.000084	0.167919	-0.139552
H278	H	0.500084	0.667919	0.360448
H279	H	0.000055	-0.817991	0.483874
H280	H	0.500055	-0.317991	0.983874
N281	N	0.000044	-0.514973	0.443620
N282	N	0.500044	-0.014973	0.943620
N283	N	-0.041423	-0.480136	0.445241
N284	N	0.458577	0.019864	0.945241
H285	H	-0.041429	-0.442882	0.422733
H286	H	0.458571	0.057118	0.922733
H287	H	0.000072	0.141905	0.020355
H288	H	0.500072	0.641905	0.520355
H289	H	0.000080	-0.573743	0.779452
H290	H	0.500080	-0.073743	1.279452
H291	H	0.000087	-0.762189	0.801233
H292	H	0.500087	-0.262189	1.301233
N293	N	0.000058	-0.564127	0.681536
N294	N	0.500058	-0.064127	1.181536
N295	N	0.000056	-0.517498	0.698699
N296	N	0.500056	-0.017498	1.198699
H297	H	0.000049	-0.480240	0.676195
H298	H	0.500049	0.019760	1.176195
H299	H	0.000056	-0.524577	0.541538
H300	H	0.500056	-0.024577	1.041538
N301	N	0.722348	-0.593335	-0.129692
N302	N	1.222348	-0.093335	0.370308
N303	N	0.750015	-0.558510	-0.159184
N304	N	1.250015	-0.058510	0.340816
H305	H	0.727702	-0.530355	-0.183022
H306	H	1.227702	-0.030355	0.316978
N307	N	0.000065	-0.570263	0.168359
N308	N	0.500065	-0.070263	0.668359
N309	N	0.000067	-0.524170	0.140484
N310	N	0.500067	-0.024170	0.640484
H311	H	0.000071	-0.486479	0.154328
H312	H	0.500071	0.013521	0.654328
H313	H	0.000050	-0.816894	0.575327
H314	H	0.500050	-0.316894	1.075327
N315	N	0.000061	-0.829400	0.430536
N316	N	0.500061	-0.329400	0.930536
N317	N	0.000063	-0.876030	0.413375
N318	N	0.500063	-0.376030	0.913375
H319	H	0.000065	-0.913288	0.435879
H320	H	0.500065	-0.413288	0.935879
N321	N	0.000051	-0.370912	-0.154179
N322	N	0.500051	0.129088	0.345821
N323	N	-0.041415	-0.336173	-0.163672
N324	N	0.458585	0.163827	0.336328
H325	H	-0.041426	-0.309585	-0.195250
H326	H	0.458574	0.190415	0.304750
H327	H	0.000057	-0.582189	0.072918
H328	H	0.500057	-0.082189	0.572918
N329	N	0.847456	-0.751071	0.003896
N330	N	1.347456	-0.251071	0.503896
N331	N	0.881995	-0.733250	0.033821
N332	N	1.381995	-0.233250	0.533821
H333	H	0.904326	-0.761380	0.057667
H334	H	1.404326	-0.261380	0.557667
N335	N	0.000078	-0.781464	0.090730
N336	N	0.500078	-0.281464	0.590730
N337	N	0.000081	-0.827556	0.118606
N338	N	0.500081	-0.327556	0.618606
H339	H	0.000088	-0.865247	0.104761
H340	H	0.500088	-0.365247	0.604761
H341	H	0.271379	-0.742966	-0.002985
H342	H	0.771379	-0.242966	0.497015
H343	H	0.000063	-0.769545	0.186157
H344	H	0.500063	-0.269545	0.686157
H345	H	0.000086	-0.763287	0.709764
H346	H	0.500086	-0.263287	1.209764
N347	N	0.000053	-0.515557	0.394273
N348	N	0.500053	-0.015557	0.894273
N349	N	0.000050	-0.469466	0.366395
N350	N	0.500050	0.030534	0.866395
H351	H	0.000052	-0.431774	0.380238
H352	H	0.500052	0.068226	0.880238
N353	N	0.277864	-0.593321	-0.129715
N354	N	0.777864	-0.093321	0.370285
N355	N	0.312425	-0.611121	-0.159641
N356	N	0.812425	-0.111121	0.340359
H357	H	0.334770	-0.582977	-0.183472
H358	H	0.834770	-0.082977	0.316528
N359	N	0.847485	-0.593356	-0.129695
N360	N	1.347485	-0.093356	0.370305
N361	N	0.819840	-0.558528	-0.159190
N362	N	1.319840	-0.058528	0.340810
H363	H	0.842170	-0.530381	-0.183029
H364	H	1.342170	-0.030381	0.316971
H365	H	0.159098	-0.601395	-0.122875
H366	H	0.659098	-0.101395	0.377125
H367	H	0.000047	-0.527485	0.298836
H368	H	0.500047	-0.027485	0.798836
H369	H	0.000062	-0.819792	0.332625
H370	H	0.500062	-0.319792	0.832625
H371	H	0.443873	-0.781990	0.030057
H372	H	0.943873	-0.281990	0.530057
H373	H	0.556191	-0.781995	0.030065
H374	H	1.056191	-0.281995	0.530065
H375	H	0.556251	-0.562388	-0.155880
H376	H	1.056251	-0.062388	0.344120
N377	N	0.722295	-0.751058	0.003906
N378	N	1.222295	-0.251058	0.503906
N379	N	0.749941	-0.785870	0.033414
N380	N	1.249941	-0.285870	0.533414
H381	H	0.727611	-0.813990	0.057277
H382	H	1.227611	-0.313990	0.557277
N383	N	0.437522	-0.554290	-0.162726
N384	N	0.937522	-0.054290	0.337274
N385	N	0.465186	-0.519460	-0.192216
N386	N	0.965186	-0.019460	0.307784
H387	H	0.442870	-0.491305	-0.216052
H388	H	0.942870	0.008695	0.283948
