data_functionalizedCrystal
_audit_creation_method	'MofGen! by Chris Wilmer'
_symmetry_space_group_name_H-M	'P1'
_symmetry_Int_Tables_number	1
_symmetry_cell_setting	triclinic
loop_
_symmetry_equiv_pos_as_xyz
  x,y,z
_cell_length_a	21.295417
_cell_length_b	16.625547
_cell_length_c	21.295411
_cell_angle_alpha	90.031012
_cell_angle_beta	89.978356
_cell_angle_gamma	89.970308
loop_
_atom_site_label
_atom_site_type_symbol
_atom_site_fract_x
_atom_site_fract_y
_atom_site_fract_z
Zn1	Zn	-0.250695	-1.232667	-0.356020
Zn2	Zn	0.082639	-0.899334	-0.022686
Zn3	Zn	0.415972	-0.566000	0.310647
Zn4	Zn	-0.355946	-1.232542	-0.250745
Zn5	Zn	-0.022613	-0.899209	0.082588
Zn6	Zn	0.310720	-0.565875	0.415922
Zn7	Zn	-0.250694	-1.097819	-0.250753
Zn8	Zn	0.082640	-0.764486	0.082580
Zn9	Zn	0.415973	-0.431153	0.415914
Zn10	Zn	-0.355928	-1.097780	-0.355965
Zn11	Zn	-0.022595	-0.764447	-0.022632
Zn12	Zn	0.310738	-0.431114	0.310702
O13	O	-0.303316	-1.165202	-0.303371
O14	O	0.030018	-0.831869	0.029963
O15	O	0.363351	-0.498535	0.363296
O16	O	-0.264664	-1.345483	-0.342075
O17	O	0.068669	-1.012149	-0.008741
O18	O	0.402002	-0.678816	0.324592
O19	O	-0.341992	-1.214635	-0.162657
O20	O	-0.008658	-0.881301	0.170677
O21	O	0.324675	-0.547968	0.504010
O22	O	-0.162604	-1.115776	-0.264743
O23	O	0.170729	-0.782443	0.068590
O24	O	0.504062	-0.449109	0.401924
O25	O	-0.341993	-1.345391	-0.264730
O26	O	-0.008659	-1.012058	0.068604
O27	O	0.324674	-0.678724	0.401937
O28	O	-0.162605	-1.214848	-0.342082
O29	O	0.170728	-0.881514	-0.008749
O30	O	0.504062	-0.548181	0.324585
O31	O	-0.264663	-1.115655	-0.162662
O32	O	0.068671	-0.782321	0.170671
O33	O	0.402004	-0.448988	0.504004
O34	O	-0.264645	-0.984982	-0.264690
O35	O	0.068688	-0.651648	0.068643
O36	O	0.402021	-0.318315	0.401977
O37	O	-0.341962	-1.115709	-0.444062
O38	O	-0.008628	-0.782376	-0.110728
O39	O	0.324705	-0.449042	0.222605
O40	O	-0.341961	-0.984953	-0.341989
O41	O	-0.008627	-0.651620	-0.008655
O42	O	0.324706	-0.318286	0.324678
O43	O	-0.264647	-1.214810	-0.444102
O44	O	0.068686	-0.881476	-0.110769
O45	O	0.402020	-0.548143	0.222565
O46	O	-0.444033	-1.214597	-0.264677
O47	O	-0.110700	-0.881263	0.068657
O48	O	0.222633	-0.547930	0.401990
O49	O	-0.444020	-1.115588	-0.341981
O50	O	-0.110687	-0.782255	-0.008648
O51	O	0.222647	-0.448921	0.324685
C52	C	-0.303301	-0.955711	-0.303335
C53	C	0.030032	-0.622378	0.029999
C54	C	0.363365	-0.289045	0.363332
C55	C	-0.303310	-0.866090	-0.303334
C56	C	0.030023	-0.532757	0.029999
C57	C	0.363356	-0.199423	0.363333
C58	C	-0.303311	-0.793308	-0.303340
C59	C	0.030022	-0.459974	0.029994
C60	C	0.363356	-0.126641	0.363327
C61	C	-0.303313	-0.701999	-0.303353
C62	C	0.030020	-0.368666	0.029981
C63	C	0.363353	-0.035333	0.363314
C64	C	-0.303318	-0.629223	-0.303366
C65	C	0.030015	-0.295889	0.029967
C66	C	0.363348	0.037444	0.363300
C67	C	-0.303322	-0.537909	-0.303379
C68	C	0.030012	-0.204575	0.029955
C69	C	0.363345	0.128758	0.363288
C70	C	-0.466867	-1.165096	-0.303336
C71	C	-0.133534	-0.831763	0.029997
C72	C	0.199799	-0.498430	0.363331
C73	C	-0.536835	-1.165125	-0.303342
C74	C	-0.203502	-0.831792	0.029991
C75	C	0.129831	-0.498458	0.363325
C76	C	-0.569688	-1.216725	-0.263131
C77	C	-0.236355	-0.883391	0.070203
C78	C	0.096979	-0.550058	0.403536
C79	C	-0.635431	-1.216762	-0.263145
C80	C	-0.302097	-0.883429	0.070188
C81	C	0.031236	-0.550096	0.403522
C82	C	-0.668318	-1.165186	-0.303364
C83	C	-0.334985	-0.831853	0.029970
C84	C	-0.001651	-0.498519	0.363303
C85	C	-0.635457	-1.113583	-0.343583
C86	C	-0.302124	-0.780249	-0.010249
C87	C	0.031209	-0.446916	0.323084
C88	C	-0.569716	-1.113552	-0.343572
C89	C	-0.236383	-0.780219	-0.010239
C90	C	0.096951	-0.446886	0.323095
N91	N	-0.771584	-1.094652	-0.308150
N92	N	-0.438250	-0.761318	0.025183
N93	N	-0.104917	-0.427985	0.358516
N94	N	-0.834035	-1.094683	-0.308157
N95	N	-0.500702	-0.761350	0.025176
N96	N	-0.167369	-0.428016	0.358510
C97	C	-0.866393	-1.165276	-0.303400
C98	C	-0.533059	-0.831943	0.029934
C99	C	-0.199726	-0.498610	0.363267
N100	N	-0.833939	-1.235839	-0.298623
N101	N	-0.500606	-0.902506	0.034710
N102	N	-0.167273	-0.569172	0.368043
N103	N	-0.771482	-1.235807	-0.298613
N104	N	-0.438149	-0.902473	0.034720
N105	N	-0.104816	-0.569140	0.368053
C106	C	-0.739603	-1.165214	-0.303380
C107	C	-0.406270	-0.831881	0.029953
C108	C	-0.072937	-0.498547	0.363286
C109	C	-0.970531	-1.216921	-0.263202
C110	C	-0.637197	-0.883588	0.070132
C111	C	-0.303864	-0.550255	0.403465
C112	C	-1.036275	-1.216961	-0.263220
C113	C	-0.702941	-0.883627	0.070113
C114	C	-0.369608	-0.550294	0.403446
C115	C	-1.036300	-1.113774	-0.343655
C116	C	-0.702967	-0.780440	-0.010322
C117	C	-0.369633	-0.447107	0.323012
C118	C	-0.970558	-1.113742	-0.343640
C119	C	-0.637224	-0.780409	-0.010306
C120	C	-0.303891	-0.447075	0.323027
C121	C	-0.937677	-1.165315	-0.303410
C122	C	-0.604344	-0.831981	0.029924
C123	C	-0.271010	-0.498648	0.363257
C124	C	-0.139125	-1.165330	-0.303419
C125	C	0.194208	-0.831997	0.029914
C126	C	0.527541	-0.498664	0.363247
C127	C	-0.069157	-1.165385	-0.303440
C128	C	0.264176	-0.832051	0.029893
C129	C	0.597509	-0.498718	0.363226
C130	C	-0.303302	-1.165269	-0.467561
C131	C	0.030031	-0.831936	-0.134228
C132	C	0.363364	-0.498602	0.199106
C133	C	-0.303297	-1.165298	-0.537529
C134	C	0.030037	-0.831964	-0.204196
C135	C	0.363370	-0.498631	0.129137
C136	C	-0.303328	-0.375511	-0.303400
C137	C	0.030005	-0.042178	0.029934
C138	C	0.363339	0.291156	0.363267
C139	C	-0.303327	-0.465132	-0.303392
C140	C	0.030007	-0.131799	0.029941
C141	C	0.363340	0.201535	0.363274
C142	C	-0.263037	-1.216897	-0.570418
C143	C	0.070296	-0.883564	-0.237084
C144	C	0.403630	-0.550230	0.096249
C145	C	-0.263010	-1.216896	-0.636160
C146	C	0.070323	-0.883563	-0.302827
C147	C	0.403657	-0.550229	0.030506
C148	C	-0.303253	-1.165304	-0.669012
C149	C	0.030080	-0.831970	-0.335678
C150	C	0.363413	-0.498637	-0.002345
C151	C	-0.343516	-1.113694	-0.636115
C152	C	-0.010183	-0.780361	-0.302782
C153	C	0.323151	-0.447028	0.030551
C154	C	-0.343538	-1.113691	-0.570374
C155	C	-0.010204	-0.780358	-0.237041
C156	C	0.323129	-0.447024	0.096293
N157	N	-0.358321	-1.159083	-0.772227
N158	N	-0.024988	-0.825750	-0.438893
N159	N	0.308346	-0.492416	-0.105560
N160	N	-0.358299	-1.159091	-0.834678
N161	N	-0.024965	-0.825757	-0.501345
N162	N	0.308368	-0.492424	-0.168011
C163	C	-0.303190	-1.165309	-0.867087
C164	C	0.030144	-0.831976	-0.533753
C165	C	0.363477	-0.498642	-0.200420
N166	N	-0.248102	-1.171535	-0.834684
N167	N	0.085231	-0.838202	-0.501351
N168	N	0.418564	-0.504868	-0.168018
N169	N	-0.248126	-1.171531	-0.772227
N170	N	0.085208	-0.838198	-0.438894
N171	N	0.418541	-0.504865	-0.105560
C172	C	-0.303234	-1.165301	-0.740297
C173	C	0.030099	-0.831968	-0.406964
C174	C	0.363433	-0.498634	-0.073631
C175	C	-0.262897	-1.216910	-0.971261
C176	C	0.070436	-0.883577	-0.637927
C177	C	0.403770	-0.550243	-0.304594
C178	C	-0.262869	-1.216903	-1.037005
C179	C	0.070465	-0.883570	-0.703671
C180	C	0.403798	-0.550237	-0.370338
C181	C	-0.343380	-1.113706	-1.036958
C182	C	-0.010047	-0.780372	-0.703625
C183	C	0.323286	-0.447039	-0.370291
C184	C	-0.343403	-1.113708	-0.971216
C185	C	-0.010070	-0.780375	-0.637882
C186	C	0.323264	-0.447042	-0.304549
C187	C	-0.303162	-1.165315	-0.938371
C188	C	0.030171	-0.831981	-0.605038
C189	C	0.363504	-0.498648	-0.271704
C190	C	-0.303284	-1.165182	-0.139819
C191	C	0.030050	-0.831849	0.193514
C192	C	0.363383	-0.498515	0.526848
C193	C	-0.303112	-1.165310	-0.069851
C194	C	0.030221	-0.831976	0.263482
C195	C	0.363555	-0.498643	0.596815
H196	H	-0.542919	-1.258720	-0.230375
H197	H	-0.209585	-0.925387	0.102959
H198	H	0.123748	-0.592053	0.436292
H199	H	-0.542967	-1.071533	-0.376317
H200	H	-0.209634	-0.738199	-0.042984
H201	H	0.123700	-0.404866	0.290349
H202	H	-0.230127	-1.258926	-0.944517
H203	H	0.103206	-0.925593	-0.611184
H204	H	0.436540	-0.592260	-0.277850
F205	F	-0.670402	-1.271683	-0.220344
F206	F	-0.337069	-0.938350	0.112989
F207	F	-0.003735	-0.605017	0.446322
F208	F	-0.386206	-1.058791	-1.071917
F209	F	-0.052873	-0.725458	-0.738583
F210	F	0.280460	-0.392124	-0.405250
F211	F	-0.220024	-1.271835	-1.072007
F212	F	0.113310	-0.938501	-0.738674
F213	F	0.446643	-0.605168	-0.405340
F214	F	-0.935535	-1.271808	-0.220386
F215	F	-0.602201	-0.938475	0.112947
F216	F	-0.268868	-0.605142	0.446281
H217	H	-1.063022	-1.258984	-0.230477
H218	H	-0.729689	-0.925651	0.102857
H219	H	-0.396355	-0.592318	0.436190
F220	F	-1.071297	-1.058887	-0.386463
F221	F	-0.737963	-0.725553	-0.053129
F222	F	-0.404630	-0.392220	0.280204
F223	F	-0.386256	-1.058791	-0.936212
F224	F	-0.052922	-0.725458	-0.602878
F225	F	0.280411	-0.392124	-0.269545
H226	H	-0.230269	-1.258918	-0.543680
H227	H	0.103064	-0.925585	-0.210346
H228	H	0.436398	-0.592251	0.122987
F229	F	-0.935592	-1.058818	-0.386436
F230	F	-0.602259	-0.725485	-0.053103
F231	F	-0.268925	-0.392152	0.280231
H232	H	-0.230222	-1.258913	-0.662943
H233	H	0.103111	-0.925579	-0.329610
H234	H	0.436444	-0.592246	0.003723
H235	H	-0.376280	-1.071685	-0.662867
H236	H	-0.042947	-0.738352	-0.329534
H237	H	0.290386	-0.405018	0.003800
H238	H	-0.376321	-1.071669	-0.543596
H239	H	-0.042988	-0.738336	-0.210263
H240	H	0.290346	-0.405002	0.123070
H241	H	-0.662238	-1.071590	-0.376330
H242	H	-0.328905	-0.738257	-0.042997
H243	H	0.004428	-0.404924	0.290336
