data_functionalizedCrystal
_audit_creation_method	'MofGen! by Chris Wilmer'
_symmetry_space_group_name_H-M	'P1'
_symmetry_Int_Tables_number	1
_symmetry_cell_setting	triclinic
loop_
_symmetry_equiv_pos_as_xyz
  x,y,z
_cell_length_a	12.837943
_cell_length_b	14.971486
_cell_length_c	11.295462
_cell_angle_alpha	85.391192
_cell_angle_beta	94.155723
_cell_angle_gamma	90.778466
loop_
_atom_site_label
_atom_site_type_symbol
_atom_site_fract_x
_atom_site_fract_y
_atom_site_fract_z
O1	O	1.381956	-0.238475	0.099006
O2	O	1.881956	0.261525	0.599006
O3	O	1.080137	-0.226988	0.099013
O4	O	1.580137	0.273012	0.599013
O5	O	1.239135	-0.103213	0.099001
O6	O	1.739135	0.396787	0.599001
O7	O	1.222957	-0.362250	0.099019
O8	O	1.722957	0.137750	0.599019
O9	O	1.226691	-0.091358	-0.099051
O10	O	1.726691	0.408642	0.400949
O11	O	1.067693	-0.215133	-0.099039
O12	O	1.567693	0.284867	0.400961
O13	O	1.369512	-0.226621	-0.099046
O14	O	1.869512	0.273379	0.400954
Cu15	Cu	1.217466	-0.219795	-0.117126
Cu16	Cu	1.717466	0.280205	0.382874
Cu17	Cu	1.232182	-0.233814	0.117094
Cu18	Cu	1.732182	0.266186	0.617094
O19	O	1.210513	-0.350396	-0.099034
O20	O	1.710513	0.149604	0.400966
C21	C	1.035289	-0.217180	-0.000012
C22	C	1.535289	0.282820	0.499988
C23	C	0.920198	-0.205606	-0.000010
C24	C	1.420198	0.294394	0.499990
C25	C	1.232190	-0.063900	-0.000025
C26	C	1.732190	0.436100	0.499975
C27	C	1.230022	0.035580	-0.000023
C28	C	1.730022	0.535580	0.499977
N29	N	1.207123	-0.209934	-0.281864
N30	N	1.707123	0.290066	0.218136
C31	C	0.679412	-0.344748	-0.000017
C32	C	1.179412	0.155252	0.499983
C33	C	0.571272	-0.333877	-0.000016
C34	C	1.071272	0.166123	0.499984
C35	C	0.595778	-0.172994	-0.000014
C36	C	1.095778	0.327006	0.499986
C37	C	0.703917	-0.183865	-0.000015
C38	C	1.203917	0.316135	0.499985
C39	C	0.745730	-0.269744	-0.000015
C40	C	1.245730	0.230256	0.499985
C41	C	0.853872	-0.280615	-0.000008
C42	C	1.353872	0.219385	0.499992
C43	C	0.878374	-0.119732	-0.000015
C44	C	1.378374	0.380268	0.499985
C45	C	0.770235	-0.108861	-0.000013
C46	C	1.270235	0.391139	0.499987
C47	C	1.414359	-0.236429	-0.000018
C48	C	1.914359	0.263571	0.499982
C49	C	1.529451	-0.248003	-0.000012
C50	C	2.029451	0.251997	0.499988
C51	C	1.217459	-0.389708	-0.000005
C52	C	1.717459	0.110292	0.499995
C53	C	1.219628	-0.489189	0.000001
C54	C	1.719628	0.010811	0.500001
C55	C	1.323429	0.084930	-0.000026
C56	C	1.823429	0.584930	0.499974
C57	C	1.321386	0.178401	-0.000014
C58	C	1.821386	0.678401	0.499986
C59	C	1.225934	0.222521	-0.000008
C60	C	1.725934	0.722521	0.499992
C61	C	1.132520	0.173164	-0.000001
C62	C	1.632520	0.673164	0.499999
C63	C	1.134564	0.079694	-0.000005
C64	C	1.634564	0.579694	0.499995
C65	C	1.128265	0.367985	0.000003
C66	C	1.628265	0.867985	0.500003
C67	C	1.126220	0.461461	0.000004
C68	C	1.626220	0.961461	0.500004
C69	C	1.315087	0.466692	-0.000006
C70	C	1.815087	0.966692	0.499994
C71	C	1.317132	0.373222	-0.000010
C72	C	1.817132	0.873222	0.499990
C73	C	1.223716	0.323872	-0.000006
C74	C	1.723716	0.823872	0.499994
N75	N	1.242534	-0.243667	0.281831
N76	N	1.742534	0.256333	0.781831
C77	C	1.317087	-0.314569	0.468860
C78	C	1.817087	0.185431	0.968860
C79	C	1.309257	-0.307134	0.344196
C80	C	1.809257	0.192866	0.844196
C81	C	1.183639	-0.187628	0.344140
C82	C	1.683639	0.312372	0.844140
C83	C	1.191469	-0.195062	0.468805
C84	C	1.691469	0.304938	0.968805
C85	C	1.258194	-0.258536	0.531161
C86	C	1.758194	0.241464	1.031161
C87	C	1.266018	-0.265973	0.655827
C88	C	1.766018	0.234027	1.155827
C89	C	1.140406	-0.146464	0.655769
C90	C	1.640406	0.353536	1.155769
C91	C	1.132575	-0.139029	0.531105
C92	C	1.632575	0.360971	1.031105
H93	H	0.887913	-0.350542	-0.000010
H94	H	1.387913	0.149458	0.499990
H95	H	0.736175	-0.038940	-0.000027
H96	H	1.236175	0.461060	0.499973
H97	H	1.394857	0.337303	-0.000024
H98	H	1.894857	0.837303	0.499976
C99	C	1.075550	-0.084876	0.724310
C100	C	1.575550	0.415124	1.224310
N101	N	1.026676	-0.038511	0.775935
N102	N	1.526676	0.461489	1.275935
H103	H	1.391150	0.506878	-0.000006
H104	H	1.891150	1.006878	0.499994
H105	H	0.932383	-0.058659	-0.000005
H106	H	1.432383	0.441341	0.499995
C107	C	1.428436	0.036408	-0.000034
C108	C	1.928436	0.536408	0.499966
N109	N	1.507530	-0.000137	-0.000034
N110	N	2.007530	0.499863	0.499966
H111	H	1.320345	-0.317660	0.706596
H112	H	1.820345	0.182340	1.206596
H113	H	1.052196	0.327806	0.000010
H114	H	1.552196	0.827806	0.500010
H115	H	1.371408	-0.366258	0.519632
H116	H	1.871408	0.133742	1.019632
H117	H	1.129325	-0.135943	0.293348
H118	H	1.629325	0.364057	0.793348
C119	C	1.424141	0.232684	-0.000037
C120	C	1.924141	0.732684	0.499963
N121	N	1.501541	0.273569	-0.000060
N122	N	2.001541	0.773569	0.499940
H123	H	1.357215	-0.352762	0.293476
H124	H	1.857215	0.147238	0.793476
H125	H	1.048493	0.497382	-0.000009
H126	H	1.548493	0.997382	0.499991
C127	C	1.059176	-0.069216	0.462499
C128	C	1.559176	0.430784	0.962499
N129	N	1.003886	-0.016635	0.410827
N130	N	1.503886	0.483365	0.910827
H131	H	1.054801	0.209093	0.000011
H132	H	1.554801	0.709093	0.500011
C133	C	0.725409	-0.439215	-0.000009
C134	C	1.225409	0.060785	0.499991
N135	N	0.760052	-0.510370	-0.000004
N136	N	1.260052	-0.010370	0.499996
H137	H	0.517279	-0.394952	-0.000021
H138	H	1.017279	0.105048	0.499979
H139	H	0.561708	-0.103069	-0.000112
H140	H	1.061708	0.396931	0.499888
H141	H	1.058502	0.039514	-0.000002
H142	H	1.558502	0.539514	0.499998
