data_functionalizedCrystal
_audit_creation_method	'MofGen! by Chris Wilmer'
_symmetry_space_group_name_H-M	'P1'
_symmetry_Int_Tables_number	1
_symmetry_cell_setting	triclinic
loop_
_symmetry_equiv_pos_as_xyz
  x,y,z
_cell_length_a	16.109301
_cell_length_b	7.681481
_cell_length_c	16.109301
_cell_angle_alpha	95.741881
_cell_angle_beta	83.461481
_cell_angle_gamma	84.275465
loop_
_atom_site_label
_atom_site_type_symbol
_atom_site_fract_x
_atom_site_fract_y
_atom_site_fract_z
O1	O	1.095274	0.146325	0.114735
O2	O	0.853211	0.146354	0.128036
O3	O	0.980893	0.146321	0.000353
O4	O	0.967592	0.146358	0.242417
O5	O	0.996609	-0.146541	-0.015398
O6	O	0.868926	-0.146508	0.112285
O7	O	1.110990	-0.146537	0.098984
Zn8	Zn	0.992453	-0.193021	0.103133
Zn9	Zn	0.971747	0.192838	0.123886
O10	O	0.983307	-0.146504	0.226666
C11	C	0.830093	-0.000074	0.119622
C12	C	0.737798	-0.000063	0.118007
N13	N	1.006591	-0.456358	0.088970
C14	C	0.515526	-0.000073	0.190014
C15	C	0.428806	-0.000084	0.188490
C16	C	0.448681	-0.000100	0.037000
C17	C	0.535400	-0.000101	0.038525
C18	C	0.568819	-0.000079	0.115035
C19	C	0.395381	-0.000089	0.111986
C20	C	0.301355	-0.000101	0.110332
C21	C	0.662851	-0.000069	0.116689
C22	C	1.134107	-0.000105	0.107398
C23	C	1.226402	-0.000104	0.109013
C24	C	0.988212	-0.000111	-0.038497
C25	C	0.986597	-0.000113	-0.130792
N26	N	0.957617	0.456175	0.138043
C27	C	1.058604	-0.000094	-0.353064
C28	C	1.057079	-0.000079	-0.439783
C29	C	0.905590	-0.000068	-0.419908
C30	C	0.907115	-0.000070	-0.333190
C31	C	0.983625	-0.000092	-0.299771
C32	C	0.980575	-0.000075	-0.473209
C33	C	0.978921	-0.000060	-0.567234
C34	C	0.985279	-0.000105	-0.205739
C35	C	0.975988	-0.000068	0.265517
C36	C	0.977602	-0.000054	0.357813
H37	H	0.542733	-0.000067	0.252313
H38	H	1.118135	-0.000077	-0.483172
H39	H	0.578794	-0.000111	-0.022536
H40	H	0.907624	-0.468615	0.188133
H41	H	0.385417	-0.000083	0.249545
H42	H	1.056593	-0.531577	0.038883
H43	H	1.120903	-0.000108	-0.325857
H44	H	0.846054	-0.000064	-0.289796
H45	H	0.843298	-0.000054	-0.447130
H46	H	0.421461	-0.000129	-0.025292
