data_functionalizedCrystal
_audit_creation_method	'MofGen! by Chris Wilmer'
_symmetry_space_group_name_H-M	'P1'
_symmetry_Int_Tables_number	1
_symmetry_cell_setting	triclinic
loop_
_symmetry_equiv_pos_as_xyz
  x,y,z
_cell_length_a	10.723024
_cell_length_b	13.101039
_cell_length_c	14.044202
_cell_angle_alpha	93.660779
_cell_angle_beta	91.169714
_cell_angle_gamma	93.389393
loop_
_atom_site_label
_atom_site_type_symbol
_atom_site_fract_x
_atom_site_fract_y
_atom_site_fract_z
O1	O	1.676792	0.085227	-0.127851
O2	O	1.314915	0.085233	-0.140585
O3	O	1.490414	0.085202	0.003801
O4	O	1.501293	0.085258	-0.272236
O5	O	1.477824	-0.085225	-0.006576
O6	O	1.302325	-0.085195	-0.150962
O7	O	1.664202	-0.085200	-0.138227
Zn8	Zn	1.481265	-0.112257	-0.146242
Zn9	Zn	1.497852	0.112289	-0.132570
O10	O	1.488703	-0.085170	-0.282613
C11	C	1.262027	0.000019	-0.144846
C12	C	1.123196	0.000020	-0.142074
N13	N	1.469953	-0.265503	-0.155572
C14	C	1.056301	0.000037	-0.222864
C15	C	0.912811	0.000038	-0.220000
C16	C	1.454564	-0.474543	-0.168275
C17	C	1.524558	-0.525431	-0.110533
C18	C	1.515996	-0.641748	-0.117601
C19	C	1.463125	-0.358216	-0.161208
C20	C	1.717090	0.000016	-0.133965
C21	C	1.855922	0.000021	-0.136738
C22	C	1.479361	-0.000016	0.033957
C23	C	1.465171	-0.000031	0.139275
N24	N	1.509173	0.265536	-0.123232
C25	C	1.539856	-0.000006	0.389077
C26	C	1.439252	-0.000008	0.332102
C27	C	1.453677	-0.000021	0.224803
C28	C	1.525433	0.000007	0.496386
C29	C	1.499752	0.000037	0.687230
C30	C	1.513932	0.000017	0.581910
H31	H	0.855302	0.000056	-0.289163
H32	H	1.074239	0.000032	-0.070784
O33	O	1.655622	0.000027	0.351300
C34	C	1.877442	-0.000051	0.382413
C35	C	1.746418	-0.000062	0.425338
H36	H	1.950885	-0.000145	0.442250
H37	H	1.894566	0.071283	0.340954
H38	H	1.883864	-0.071365	0.332241
H39	H	1.739902	0.071203	0.475550
H40	H	1.729351	-0.071443	0.466739
O41	O	0.924655	0.000142	-0.054273
C42	C	1.084660	0.088449	0.048234
C43	C	1.006915	0.088428	-0.045194
H44	H	1.151167	0.159831	0.055615
H45	H	1.140820	0.017174	0.046944
H46	H	1.019475	0.088387	0.111351
H47	H	1.072010	0.088526	-0.108360
H48	H	0.950741	0.159696	-0.043821
H49	H	1.105259	0.000045	-0.294152
H50	H	1.342290	-0.000003	0.363908
H51	H	1.590914	-0.481640	-0.055791
O52	O	1.375519	-0.526933	-0.233559
C53	C	1.294733	-0.692329	-0.300151
C54	C	1.384317	-0.633109	-0.226187
H55	H	1.301796	-0.778183	-0.294203
H56	H	1.321162	-0.671370	-0.374972
H57	H	1.194843	-0.671265	-0.285990
H58	H	1.484235	-0.654142	-0.240260
H59	H	1.357781	-0.654074	-0.151391
