data_functionalizedCrystal
_audit_creation_method	'MofGen! by Chris Wilmer'
_symmetry_space_group_name_H-M	'P1'
_symmetry_Int_Tables_number	1
_symmetry_cell_setting	triclinic
loop_
_symmetry_equiv_pos_as_xyz
  x,y,z
_cell_length_a	12.837943
_cell_length_b	12.996460
_cell_length_c	12.837942
_cell_angle_alpha	90.000533
_cell_angle_beta	85.171060
_cell_angle_gamma	90.005470
loop_
_atom_site_label
_atom_site_type_symbol
_atom_site_fract_x
_atom_site_fract_y
_atom_site_fract_z
O1	O	1.402338	0.085548	-0.272134
O2	O	1.735672	0.418881	0.061200
O3	O	2.069005	0.752214	0.394533
O4	O	1.099205	0.085554	-0.258690
O5	O	1.432538	0.418887	0.074643
O6	O	1.765872	0.752220	0.407976
O7	O	1.244050	0.085544	-0.113845
O8	O	1.577383	0.418878	0.219488
O9	O	1.910717	0.752211	0.552822
O10	O	1.257493	0.085557	-0.416979
O11	O	1.590827	0.418890	-0.083645
O12	O	1.924160	0.752223	0.249688
O13	O	1.244030	-0.085589	-0.113852
O14	O	1.577364	0.247744	0.219481
O15	O	1.910697	0.581077	0.552814
O16	O	1.099185	-0.085580	-0.258698
O17	O	1.432519	0.247753	0.074636
O18	O	1.765852	0.581087	0.407969
O19	O	1.402319	-0.085586	-0.272141
O20	O	1.735652	0.247747	0.061192
O21	O	2.068985	0.581080	0.394526
Cu22	Cu	1.250750	-0.101209	-0.265420
Cu23	Cu	1.584083	0.232124	0.067913
Cu24	Cu	1.917417	0.565458	0.401247
Cu25	Cu	1.250774	0.101176	-0.265411
Cu26	Cu	1.584107	0.434510	0.067922
Cu27	Cu	1.917440	0.767843	0.401255
O28	O	1.257474	-0.085577	-0.416986
O29	O	1.590807	0.247756	-0.083653
O30	O	1.924140	0.581090	0.249681
C31	C	1.060126	-0.000013	-0.254153
C32	C	1.393459	0.333321	0.079181
C33	C	1.726793	0.666654	0.412514
C34	C	0.943711	-0.000010	-0.240608
C35	C	1.277044	0.333323	0.092725
C36	C	1.610378	0.666656	0.426059
C37	C	0.718837	-0.000018	-0.403437
C38	C	1.052170	0.333315	-0.070104
C39	C	1.385503	0.666648	0.263229
C40	C	0.609454	-0.000017	-0.390716
C41	C	0.942788	0.333316	-0.057383
C42	C	1.276121	0.666650	0.275951
C43	C	0.615562	-0.000014	-0.202445
C44	C	0.948895	0.333320	0.130888
C45	C	1.282228	0.666653	0.464222
C46	C	0.724944	-0.000015	-0.215166
C47	C	1.058277	0.333318	0.118167
C48	C	1.391611	0.666652	0.451500
C49	C	0.776578	-0.000016	-0.315666
C50	C	1.109911	0.333317	0.017668
C51	C	1.443244	0.666651	0.351001
C52	C	0.885962	-0.000010	-0.328386
C53	C	1.219295	0.333324	0.004947
C54	C	1.552629	0.666657	0.338280
C55	C	0.892067	-0.000014	-0.140116
C56	C	1.225401	0.333319	0.193217
C57	C	1.558734	0.666653	0.526551
C58	C	0.782685	-0.000013	-0.127395
C59	C	1.116018	0.333321	0.205939
C60	C	1.449352	0.666654	0.539272
N61	N	1.250741	-0.243556	-0.265426
N62	N	1.584075	0.089777	0.067907
N63	N	1.917408	0.423110	0.401241
C64	C	1.250746	-0.336662	-0.265429
C65	C	1.584080	-0.003329	0.067904
C66	C	1.917413	0.330005	0.401238
C67	C	1.250755	-0.453467	-0.265423
C68	C	1.584089	-0.120134	0.067910
C69	C	1.917422	0.213199	0.401244
C70	C	1.250767	-0.546566	-0.265413
C71	C	1.584101	-0.213232	0.067921
C72	C	1.917434	0.120101	0.401254
C73	C	1.250778	-0.663378	-0.265408
C74	C	1.584111	-0.330045	0.067925
C75	C	1.917445	0.003289	0.401259
C76	C	1.441398	-0.000018	-0.276679
C77	C	1.774731	0.333316	0.056655
C78	C	2.108064	0.666649	0.389988
C79	C	1.557813	-0.000013	-0.290223
C80	C	1.891146	0.333320	0.043110
C81	C	2.224479	0.666653	0.376444
C82	C	1.239499	-0.000022	-0.074780
C83	C	1.572832	0.333311	0.258554
C84	C	1.906165	0.666645	0.591887
C85	C	1.225954	-0.000020	0.041635
C86	C	1.559288	0.333313	0.374969
C87	C	1.892621	0.666647	0.708302
N88	N	1.250790	0.243524	-0.265398
N89	N	1.584123	0.576857	0.067936
N90	N	1.917457	0.910190	0.401269
C91	C	1.262025	-0.000008	-0.456052
C92	C	1.595358	0.333325	-0.122718
C93	C	1.928692	0.666658	0.210615
C94	C	1.275569	-0.000004	-0.572467
C95	C	1.608903	0.333330	-0.239133
C96	C	1.942236	0.666663	0.094200
C97	C	1.388784	-0.000002	0.266510
C98	C	1.722117	0.333332	0.599843
C99	C	2.055450	0.666665	0.933176
C100	C	1.376062	0.000000	0.375892
C101	C	1.709396	0.333334	0.709225
C102	C	2.042729	0.666667	1.042559
C103	C	1.187791	-0.000007	0.369785
C104	C	1.521125	0.333327	0.703118
C105	C	1.854458	0.666660	1.036451
C106	C	1.200513	-0.000009	0.260402
C107	C	1.533846	0.333325	0.593736
C108	C	1.867179	0.666658	0.927069
C109	C	1.301012	-0.000008	0.208769
C110	C	1.634345	0.333326	0.542102
C111	C	1.967679	0.666659	0.875435
C112	C	1.313732	-0.000017	0.099384
C113	C	1.647066	0.333316	0.432717
C114	C	1.980399	0.666650	0.766051
C115	C	1.125462	-0.000017	0.093279
C116	C	1.458796	0.333317	0.426612
C117	C	1.792129	0.666650	0.759946
C118	C	1.112741	-0.000015	0.202661
C119	C	1.446074	0.333319	0.535995
C120	C	1.779408	0.666652	0.869328
H121	H	0.760878	-0.000017	-0.485268
H122	H	1.094211	0.333316	-0.151935
H123	H	1.427544	0.666649	0.181399
H124	H	0.928000	-0.000012	-0.410218
H125	H	1.261334	0.333321	-0.076884
H126	H	1.594667	0.666655	0.256449
H127	H	1.470614	-0.000011	0.224469
H128	H	1.803948	0.333322	0.557802
H129	H	2.137281	0.666656	0.891135
H130	H	0.740630	-0.000024	-0.045571
H131	H	1.073963	0.333310	0.287763
H132	H	1.407296	0.666643	0.621096
C133	C	0.450592	-0.000029	-0.099360
C134	C	0.783925	0.333304	0.233974
C135	C	1.117258	0.666638	0.567307
C136	C	0.558793	-0.000023	-0.091983
C137	C	0.892126	0.333310	0.241350
C138	C	1.225460	0.666644	0.574684
H139	H	0.415547	-0.000031	-0.031163
H140	H	0.748881	0.333303	0.302170
H141	H	1.082214	0.666636	0.635503
H142	H	0.431421	-0.059703	-0.135953
H143	H	0.764755	0.273631	0.197381
H144	H	1.098088	0.606964	0.530714
H145	H	0.431425	0.059654	-0.135952
H146	H	0.764758	0.392987	0.197381
H147	H	1.098092	0.726321	0.530715
H148	H	0.577961	-0.059710	-0.055397
H149	H	0.911294	0.273623	0.277936
H150	H	1.244627	0.606956	0.611270
H151	H	0.577971	0.059657	-0.055374
H152	H	0.911304	0.392990	0.277959
H153	H	1.244638	0.726324	0.611292
H154	H	1.105969	0.000004	0.411844
H155	H	1.439302	0.333337	0.745177
H156	H	1.772636	0.666670	1.078511
H157	H	1.030917	-0.000011	0.244717
H158	H	1.364250	0.333322	0.578050
H159	H	1.697583	0.666655	0.911383
C160	C	1.030537	0.087953	-0.033269
C161	C	1.363870	0.421286	0.300065
C162	C	1.697204	0.754620	0.633398
C163	C	1.028971	-0.000018	0.029812
C164	C	1.362304	0.333315	0.363146
C165	C	1.695638	0.666649	0.696479
H166	H	0.970964	0.087951	-0.072444
H167	H	1.304298	0.421284	0.260890
H168	H	1.637631	0.754617	0.594223
H169	H	1.092197	0.087944	-0.079676
H170	H	1.425531	0.421278	0.253657
H171	H	1.758864	0.754611	0.586991
H172	H	1.029494	0.147626	0.009537
H173	H	1.362827	0.480960	0.342871
H174	H	1.696160	0.814293	0.676204
H175	H	1.030022	-0.059692	-0.012995
H176	H	1.363355	0.273642	0.320339
H177	H	1.696689	0.606975	0.653672
H178	H	0.967295	-0.000018	0.076225
H179	H	1.300628	0.333315	0.409558
H180	H	1.633961	0.666648	0.742891
C181	C	0.614409	-0.000009	-0.578090
C182	C	0.947743	0.333324	-0.244756
C183	C	1.281076	0.666657	0.088577
C184	C	0.545984	-0.000011	-0.487197
C185	C	0.879318	0.333322	-0.153864
C186	C	1.212651	0.666655	0.179469
H187	H	0.575223	0.000000	-0.637654
H188	H	0.908557	0.333333	-0.304321
H189	H	1.241890	0.666667	0.029013
H190	H	0.657188	-0.059686	-0.579136
H191	H	0.990522	0.273648	-0.245803
H192	H	1.323855	0.606981	0.087530
H193	H	0.657210	0.059671	-0.579127
H194	H	0.990544	0.393004	-0.245793
H195	H	1.323877	0.726338	0.087540
H196	H	0.503188	-0.059696	-0.486156
H197	H	0.836522	0.273637	-0.152823
H198	H	1.169855	0.606971	0.180510
H199	H	0.503188	0.059671	-0.486150
H200	H	0.836521	0.393004	-0.152817
H201	H	1.169854	0.726338	0.180516
H202	H	0.939092	-0.000005	-0.068646
H203	H	1.272425	0.333328	0.264688
H204	H	1.605758	0.666662	0.598021
C205	C	1.440158	0.000013	0.546277
C206	C	1.773492	0.333346	0.879610
C207	C	2.106825	0.666680	1.212944
C208	C	1.472542	0.000008	0.439363
C209	C	1.805876	0.333341	0.772697
C210	C	2.139209	0.666674	1.106030
H211	H	1.499725	0.000026	0.585459
H212	H	1.833059	0.333359	0.918793
H213	H	2.166392	0.666693	1.252126
H214	H	1.399403	-0.059664	0.562945
H215	H	1.732736	0.273669	0.896278
H216	H	2.066069	0.607003	1.229611
H217	H	1.399397	0.059693	0.562936
H218	H	1.732730	0.393026	0.896269
H219	H	2.066064	0.726360	1.229602
H220	H	1.513297	-0.059676	0.422703
H221	H	1.846631	0.273657	0.756036
H222	H	2.179964	0.606990	1.089370
H223	H	1.513315	0.059691	0.422689
H224	H	1.846649	0.393024	0.756022
H225	H	2.179982	0.726358	1.089355
H226	H	1.395564	-0.000020	0.057346
H227	H	1.728897	0.333313	0.390679
H228	H	2.062231	0.666647	0.724012
