data_functionalizedCrystal
_audit_creation_method	'MofGen! by Chris Wilmer'
_symmetry_space_group_name_H-M	'P1'
_symmetry_Int_Tables_number	1
_symmetry_cell_setting	triclinic
loop_
_symmetry_equiv_pos_as_xyz
  x,y,z
_cell_length_a	12.837943
_cell_length_b	15.995292
_cell_length_c	11.892095
_cell_angle_alpha	93.891493
_cell_angle_beta	85.689438
_cell_angle_gamma	89.148778
loop_
_atom_site_label
_atom_site_type_symbol
_atom_site_fract_x
_atom_site_fract_y
_atom_site_fract_z
O1	O	1.382024	0.212848	-0.093967
O2	O	1.882024	0.712848	0.406033
O3	O	1.080222	0.202095	-0.093975
O4	O	1.580222	0.702095	0.406025
O5	O	1.239405	0.086242	-0.093973
O6	O	1.739405	0.586242	0.406027
O7	O	1.222842	0.328702	-0.093970
O8	O	1.722842	0.828702	0.406030
O9	O	1.226132	0.095885	0.094035
O10	O	1.726132	0.595885	0.594035
O11	O	1.066950	0.211739	0.094032
O12	O	1.566950	0.711739	0.594032
O13	O	1.368752	0.222492	0.094040
O14	O	1.868752	0.722492	0.594040
Zn15	Zn	1.215744	0.218646	0.123886
Zn16	Zn	1.715744	0.718646	0.623886
Zn17	Zn	1.233231	0.205941	-0.123821
Zn18	Zn	1.733231	0.705941	0.376179
O19	O	1.209569	0.338345	0.094038
O20	O	1.709569	0.838345	0.594038
C21	C	1.034966	0.203285	0.000028
C22	C	1.534966	0.703285	0.500028
C23	C	0.919892	0.192451	0.000025
C24	C	1.419892	0.692451	0.500025
C25	C	0.678899	0.322690	0.000042
C26	C	1.178899	0.822690	0.500042
C27	C	0.570776	0.312515	0.000040
C28	C	1.070776	0.812515	0.500040
C29	C	0.595520	0.161926	0.000026
C30	C	1.095520	0.661926	0.500026
C31	C	0.703644	0.172102	0.000028
C32	C	1.203644	0.672102	0.500028
C33	C	0.745329	0.252486	0.000035
C34	C	1.245329	0.752486	0.500035
C35	C	0.853454	0.262660	0.000029
C36	C	1.353454	0.762660	0.500029
C37	C	0.878196	0.112072	0.000023
C38	C	1.378196	0.612072	0.500023
C39	C	0.770073	0.101897	0.000021
C40	C	1.270073	0.601897	0.500021
C41	C	1.232095	0.059814	0.000028
C42	C	1.732095	0.559814	0.500028
C43	C	1.230074	-0.033301	0.000020
C44	C	1.730074	0.466699	0.500020
C45	C	1.222644	-0.371632	0.000030
C46	C	1.722644	0.128368	0.500030
C47	C	1.337508	-0.339130	0.000453
C48	C	1.837508	0.160870	0.500453
C49	C	1.339722	-0.242303	0.000025
C50	C	1.839722	0.257697	0.500025
C51	C	1.226331	-0.203782	0.000025
C52	C	1.726331	0.296218	0.500025
C53	C	1.176468	-0.242973	-0.107334
C54	C	1.676468	0.257027	0.392666
C55	C	1.175091	-0.339878	-0.107420
C56	C	1.675091	0.160122	0.392580
C57	C	1.157652	-0.328956	0.106380
C58	C	1.657652	0.171044	0.606380
C59	C	1.161810	-0.232051	0.107795
C60	C	1.661810	0.267949	0.607795
C61	C	1.228409	-0.108920	0.000019
C62	C	1.728409	0.391080	0.500019
C63	C	1.220563	-0.466494	0.000028
C64	C	1.720563	0.033506	0.500028
C65	C	1.414008	0.221302	0.000035
C66	C	1.914008	0.721302	0.500035
C67	C	1.529083	0.232136	0.000031
C68	C	2.029083	0.732136	0.500031
C69	C	1.216880	0.364773	0.000034
C70	C	1.716880	0.864773	0.500034
C71	C	1.218901	0.457887	0.000035
C72	C	1.718901	0.957887	0.500035
N73	N	1.203817	0.227317	0.292940
N74	N	1.703817	0.727317	0.792940
N75	N	1.245165	0.197264	-0.292875
N76	N	1.745165	0.697264	0.207125
C77	C	1.328157	0.136878	0.529590
C78	C	1.828157	0.636878	1.029590
C79	C	1.319828	0.142946	0.647932
C80	C	1.819828	0.642946	1.147932
C81	C	1.178825	0.245516	0.647968
C82	C	1.678825	0.745516	1.147968
C83	C	1.187154	0.239448	0.529626
C84	C	1.687154	0.739448	1.029626
C85	C	1.261824	0.185128	0.470441
C86	C	1.761824	0.685128	0.970441
C87	C	1.270157	0.179065	0.352097
C88	C	1.770157	0.679065	0.852097
C89	C	1.129150	0.281630	0.352136
C90	C	1.629150	0.781630	0.852136
C91	C	1.120821	0.287698	0.470477
C92	C	1.620821	0.787698	0.970477
H93	H	0.736117	0.036451	0.000029
H94	H	1.236117	0.536451	0.500029
N95	N	1.098298	0.304108	0.711800
N96	N	1.598298	0.804108	1.211800
H97	H	1.026180	0.287512	0.691220
H98	H	1.526180	0.787512	1.191220
H99	H	1.103174	0.300608	0.795725
H100	H	1.603174	0.800608	1.295725
N101	N	1.209771	-0.197634	0.213005
N102	N	1.709771	0.302366	0.713005
H103	H	1.167937	-0.216022	0.282038
H104	H	1.667937	0.283978	0.782038
H105	H	1.284079	-0.219432	0.212216
H106	H	1.784079	0.280568	0.712216
N107	N	1.350682	0.120465	0.288276
N108	N	1.850682	0.620465	0.788276
H109	H	1.314527	0.077699	0.239189
H110	H	1.814527	0.577699	0.739189
H111	H	1.400017	0.153672	0.239227
H112	H	1.900017	0.653672	0.739227
H113	H	0.516692	0.369683	0.000050
H114	H	1.016692	0.869683	0.500050
H115	H	0.561554	0.096486	0.000114
H116	H	1.061554	0.596486	0.500114
H117	H	1.078588	-0.205353	0.114279
H118	H	1.578588	0.294647	0.614279
N119	N	0.949838	0.036342	0.000026
N120	N	1.449838	0.536342	0.500026
H121	H	0.941345	-0.001918	-0.069670
H122	H	1.441345	0.498082	0.430330
H123	H	1.024629	0.055047	0.000071
H124	H	1.524629	0.555047	0.500071
N125	N	0.898415	0.349358	0.000048
N126	N	1.398415	0.849358	0.500048
H127	H	0.976991	0.345154	0.000046
H128	H	1.476991	0.845154	0.500046
H129	H	0.879031	0.376890	-0.069643
H130	H	1.379031	0.876890	0.430357
N131	N	1.408699	0.078305	0.465746
N132	N	1.908699	0.578305	0.965746
H133	H	1.449462	0.048661	0.521175
H134	H	1.949462	0.548661	1.021175
H135	H	1.372486	0.035585	0.416650
H136	H	1.872486	0.535585	0.916650
H137	H	1.379276	-0.215741	0.076982
H138	H	1.879276	0.284259	0.576982
H139	H	1.060023	0.331922	0.518679
H140	H	1.560023	0.831922	1.018679
N141	N	1.057587	0.333672	0.288349
N142	N	1.557587	0.833672	0.788349
H143	H	1.068059	0.395112	0.308948
H144	H	1.568059	0.895112	0.808948
H145	H	1.074223	0.321522	0.204417
H146	H	1.574223	0.821522	0.704417
H147	H	1.073030	-0.349657	0.107103
H148	H	1.573030	0.150343	0.607103
H149	H	0.712840	0.388142	0.000046
H150	H	1.212840	0.888142	0.500046
N151	N	1.406871	-0.218368	-0.102088
N152	N	1.906871	0.281632	0.397912
H153	H	1.435141	-0.270750	-0.147002
H154	H	1.935141	0.229250	0.352998
H155	H	1.363467	-0.184698	-0.150925
H156	H	1.863467	0.315302	0.349075
N157	N	1.388977	-0.366294	0.102439
N158	N	1.888977	0.133706	0.602439
H159	H	1.338342	-0.399935	0.149359
H160	H	1.838342	0.100065	0.649359
H161	H	1.453099	-0.401899	0.076741
H162	H	1.953099	0.098101	0.576741
H163	H	1.373842	0.103655	0.696087
H164	H	1.873842	0.603655	1.196087
H165	H	1.220538	-0.367636	-0.187673
H166	H	1.720538	0.132364	0.312327
N167	N	1.403001	-0.378114	-0.100957
N168	N	1.903001	0.121886	0.399043
H169	H	1.372083	-0.362455	-0.172463
H170	H	1.872083	0.137545	0.327537
H171	H	1.476650	-0.356894	-0.099944
H172	H	1.976650	0.143106	0.400056
H173	H	1.091194	-0.361399	-0.112284
H174	H	1.591194	0.138601	0.387716
H175	H	1.093309	-0.217967	-0.111325
H176	H	1.593309	0.282033	0.388675
H177	H	1.221998	-0.223827	-0.187230
H178	H	1.721998	0.276173	0.312770
H179	H	1.188090	-0.349984	0.187758
H180	H	1.688090	0.150016	0.687758
