data_functionalizedCrystal
_audit_creation_method	'MofGen! by Chris Wilmer'
_symmetry_space_group_name_H-M	'P1'
_symmetry_Int_Tables_number	1
_symmetry_cell_setting	triclinic
loop_
_symmetry_equiv_pos_as_xyz
  x,y,z
_cell_length_a	16.120490
_cell_length_b	16.120444
_cell_length_c	13.032268
_cell_angle_alpha	80.356652
_cell_angle_beta	85.355586
_cell_angle_gamma	90.165174
loop_
_atom_site_label
_atom_site_type_symbol
_atom_site_fract_x
_atom_site_fract_y
_atom_site_fract_z
Zn1	Zn	1.180620	-0.462313	0.695122
Zn2	Zn	1.680620	0.037687	1.195122
Zn3	Zn	1.191124	-0.585435	0.528865
Zn4	Zn	1.691124	-0.085435	1.028865
Zn5	Zn	1.061094	-0.437646	0.511247
Zn6	Zn	1.561094	0.062354	1.011247
Zn7	Zn	1.034571	-0.594168	0.694172
Zn8	Zn	1.534571	-0.094168	1.194172
O9	O	1.116852	-0.519890	0.607351
O10	O	1.616852	-0.019890	1.107351
O11	O	1.297553	-0.485314	0.680838
O12	O	1.797553	0.014686	1.180838
O13	O	1.189371	-0.551853	0.380393
O14	O	1.689371	-0.051853	0.880393
O15	O	1.083654	-0.323886	0.528662
O16	O	1.583654	0.176114	1.028662
O17	O	1.305270	-0.575772	0.558689
O18	O	1.805270	-0.075772	1.058689
O19	O	1.171469	-0.342009	0.663754
O20	O	1.671469	0.157991	1.163754
O21	O	1.093839	-0.443273	0.367450
O22	O	1.593839	0.056727	0.867450
O23	O	0.942036	-0.451740	0.527742
O24	O	1.442036	0.048260	1.027742
O25	O	1.038449	-0.590655	0.840432
O26	O	1.538449	-0.090655	1.340432
O27	O	0.922549	-0.566736	0.662136
O28	O	1.422549	-0.066736	1.162136
O29	O	1.145750	-0.493782	0.841130
O30	O	1.645750	0.006218	1.341130
O31	O	1.163652	-0.703625	0.557769
O32	O	1.663652	-0.203625	1.057769
O33	O	1.048633	-0.710041	0.679219
O34	O	1.548633	-0.210041	1.179219
C35	C	0.902334	-0.507509	0.592925
C36	C	1.402334	-0.007509	1.092925
C37	C	0.810558	-0.502235	0.586779
C38	C	1.310558	-0.002235	1.086779
C39	C	0.592015	-0.547242	0.639232
C40	C	1.092015	-0.047242	1.139232
C41	C	0.642527	-0.492614	0.575557
C42	C	1.142527	0.007386	1.075557
C43	C	0.736028	-0.497969	0.581803
C44	C	1.236028	0.002031	1.081803
C45	C	0.498506	-0.541888	0.632988
C46	C	0.998506	-0.041888	1.132988
C47	C	1.104424	-0.737182	0.620327
C48	C	1.604424	-0.237182	1.120327
C49	C	1.099179	-0.830148	0.625918
C50	C	1.599179	-0.330148	1.125918
C51	C	1.144238	-1.038586	0.578585
C52	C	1.644238	-0.538586	1.078585
C53	C	1.089618	-1.000354	0.636138
C54	C	1.589618	-0.500354	1.136138
C55	C	1.094939	-0.905642	0.630450
C56	C	1.594939	-0.405642	1.130450
C57	C	1.138918	-1.133306	0.584272
C58	C	1.638918	-0.633306	1.084272
C59	C	1.332208	-0.532320	0.621835
C60	C	1.832208	-0.032320	1.121835
C61	C	1.423979	-0.537617	0.628007
C62	C	1.923979	-0.037617	1.128007
C63	C	1.087969	-0.545944	0.879731
C64	C	1.587969	-0.045944	1.379731
C65	C	1.075661	-0.557046	0.995804
C66	C	1.575661	-0.057046	1.495804
C67	C	1.129349	-0.301754	0.594349
C68	C	1.629349	0.198246	1.094349
C69	C	1.134674	-0.208797	0.588808
C70	C	1.634674	0.291203	1.088808
C71	C	1.145673	-0.493881	0.336030
C72	C	1.645673	0.006119	0.836030
C73	C	1.158155	-0.482552	0.219955
C74	C	1.658155	0.017448	0.719955
C75	C	1.123265	-0.514065	1.047897
C76	C	1.623265	-0.014065	1.547897
C77	C	1.110545	-0.525539	1.167864
C78	C	1.610545	-0.025539	1.667864
H79	H	0.618991	-0.598029	0.698430
H80	H	1.118991	-0.098029	1.198430
O81	O	0.610487	-0.431949	0.504889
O82	O	1.110487	0.068051	1.004889
C83	C	0.639423	-0.313569	0.366794
C84	C	1.139423	0.186431	0.866794
C85	C	0.675822	-0.382210	0.446792
C86	C	1.175822	0.117790	0.946792
H87	H	0.692229	-0.273348	0.319785
H88	H	1.192229	0.226652	0.819785
H89	H	0.596472	-0.272161	0.409514
H90	H	1.096472	0.227839	0.909514
H91	H	0.602614	-0.344425	0.311806
H92	H	1.102614	0.155575	0.811806
H93	H	0.712670	-0.351425	0.501801
H94	H	1.212670	0.148575	1.001801
H95	H	0.718728	-0.423611	0.404003
H96	H	1.218728	0.076389	0.904003
H97	H	1.038858	-1.038752	0.689683
H98	H	1.538858	-0.538752	1.189683
O99	O	1.204713	-0.992653	0.514724
O100	O	1.704713	-0.492653	1.014724
C101	C	1.265259	-0.855005	0.450837
C102	C	1.765259	-0.355005	0.950837
C103	C	1.196723	-0.906933	0.523188
C104	C	1.696723	-0.406933	1.023188
H105	H	1.258834	-0.785693	0.457672
H106	H	1.758834	-0.285693	0.957672
H107	H	1.258798	-0.863208	0.366630
H108	H	1.758798	-0.363208	0.866630
H109	H	1.328927	-0.877689	0.474704
H110	H	1.828927	-0.377689	0.974704
H111	H	1.133024	-0.884283	0.499415
H112	H	1.633024	-0.384283	0.999415
H113	H	1.203258	-0.898728	0.607378
H114	H	1.703258	-0.398728	1.107378
O115	O	1.050794	-0.579680	1.220657
O116	O	1.550794	-0.079680	1.720657
C117	C	1.020241	-0.703632	1.349957
C118	C	1.520241	-0.203632	1.849957
C119	C	1.087990	-0.642393	1.290227
C120	C	1.587990	-0.142393	1.790227
H121	H	1.050287	-0.754339	1.406234
H122	H	1.550287	-0.254339	1.906234
H123	H	0.986386	-0.734276	1.292126
H124	H	1.486386	-0.234276	1.792126
H125	H	0.973879	-0.667573	1.395782
H126	H	1.473879	-0.167573	1.895782
H127	H	1.134406	-0.678389	1.244399
H128	H	1.634406	-0.178389	1.744399
H129	H	1.121782	-0.611748	1.348110
H130	H	1.621782	-0.111748	1.848110
H131	H	1.025484	-0.602332	1.040018
H132	H	1.525484	-0.102332	1.540018
H133	H	1.173434	-0.468770	1.003682
H134	H	1.673434	0.031230	1.503682
H135	H	1.208326	-0.437252	1.175745
H136	H	1.708326	0.062748	1.675745
