data_functionalizedCrystal
_audit_creation_method	'MofGen! by Chris Wilmer'
_symmetry_space_group_name_H-M	'P1'
_symmetry_Int_Tables_number	1
_symmetry_cell_setting	triclinic
loop_
_symmetry_equiv_pos_as_xyz
  x,y,z
_cell_length_a	19.377372
_cell_length_b	19.376995
_cell_length_c	14.560438
_cell_angle_alpha	48.616725
_cell_angle_beta	89.999405
_cell_angle_gamma	82.760355
loop_
_atom_site_label
_atom_site_type_symbol
_atom_site_fract_x
_atom_site_fract_y
_atom_site_fract_z
Zr1	Zr	0.743123	1.051911	-0.543325
O2	O	0.665492	1.172248	-0.700038
O3	O	0.750030	0.905723	-0.465559
O4	O	0.774388	1.063343	-0.700030
O5	O	0.641134	1.014626	-0.314427
O6	O	0.879501	1.101768	-0.733835
O7	O	0.641134	1.014628	-0.465568
O8	O	0.835928	0.819815	-0.314411
O9	O	0.684706	1.296579	-0.733851
O10	O	0.851827	1.004104	-0.493535
O11	O	0.773382	0.975426	-0.355511
O12	O	0.802061	1.161003	-0.631569
O13	O	0.723616	1.132325	-0.493545
Zr14	Zr	0.910765	1.113192	-0.356189
Zr15	Zr	0.910766	1.113195	-0.597242
Zr16	Zr	0.743122	1.051908	-0.302272
Zr17	Zr	0.773767	1.250205	-0.597252
Zr18	Zr	0.880121	0.914898	-0.302261
O19	O	0.903858	1.259380	-0.433954
O20	O	0.903859	1.259385	-0.776701
O21	O	0.665491	1.172243	-0.357292
O22	O	0.988396	0.992856	-0.199475
O23	O	0.988396	0.992860	-0.542222
O24	O	0.750029	0.905718	-0.122813
O25	O	1.012754	1.150477	-0.585087
O26	O	0.879500	1.101760	-0.199484
O27	O	0.774387	1.063335	-0.165678
O28	O	1.012754	1.150475	-0.433946
O29	O	0.817960	1.345291	-0.776707
O30	O	0.835928	0.819812	-0.122806
O31	O	0.969182	0.868524	-0.165663
O32	O	0.969182	0.868527	-0.357268
O33	O	0.684706	1.296576	-0.542246
O34	O	0.817959	1.345288	-0.585102
O35	O	0.851827	1.004100	-0.267945
O36	O	0.930272	1.032778	-0.405969
O37	O	0.880505	1.189677	-0.544003
O38	O	0.802061	1.161000	-0.405979
C39	C	0.788613	0.834516	-0.382302
C40	C	0.775604	0.750335	-0.359408
C41	C	0.716323	0.616717	-0.255100
C42	C	0.728552	0.695820	-0.276620
C43	C	0.810443	0.725767	-0.420715
C44	C	0.798218	0.646669	-0.399212
C45	C	0.751158	0.592149	-0.316402
C46	C	0.833053	0.622100	-0.460514
C47	C	0.820831	0.543005	-0.439007
C48	C	0.773775	0.488480	-0.356198
C49	C	0.738936	0.513054	-0.294895
C50	C	0.880116	0.676618	-0.543317
C51	C	0.914951	0.652049	-0.604618
C52	C	0.902727	0.572957	-0.583119
C53	C	0.855670	0.518431	-0.500310
C54	C	0.937565	0.548382	-0.644422
C55	C	0.925344	0.469288	-0.622915
C56	C	0.843449	0.439336	-0.478803
C57	C	0.617248	1.005895	-0.382315
C58	C	0.546079	0.979879	-0.359426
C59	C	0.182130	1.303803	-0.644409
C60	C	0.115263	1.279335	-0.622881
C61	C	0.167224	1.115544	-0.478784
C62	C	0.234097	1.139998	-0.500295
C63	C	0.241544	1.234129	-0.583110
C64	C	0.293511	1.070325	-0.438996
C65	C	0.360378	1.094778	-0.460511
C66	C	0.367831	1.188904	-0.543324
C67	C	0.308411	1.258582	-0.604624
C68	C	0.286063	0.976195	-0.356188
C69	C	0.345477	0.906521	-0.294889
C70	C	0.412345	0.930973	-0.316397
C71	C	0.419799	1.025100	-0.399211
C72	C	0.471766	0.861295	-0.255097
C73	C	0.538633	0.885748	-0.276612
C74	C	0.486665	1.049552	-0.420725
C75	C	1.036640	1.159208	-0.517198
C76	C	1.107808	1.185224	-0.540087
C77	C	0.826944	1.082556	-0.751277
C78	C	0.826944	1.082557	-0.853611
C79	C	0.865275	1.330587	-0.517212
C80	C	0.878284	1.414768	-0.540105
C81	C	0.800964	1.164454	-0.973738
C82	C	0.800965	1.164450	-1.069886
C83	C	0.852928	1.000644	-0.925764
C84	C	0.852931	1.000650	-0.829620
C85	C	0.770960	1.259025	-1.056946
C86	C	0.770962	1.259021	-1.153094
C87	C	0.826943	1.082547	-0.148236
C88	C	0.826943	1.082546	-0.045903
C89	C	0.998309	0.911173	-0.449743
C90	C	1.056468	0.853008	-0.449739
C91	C	0.788612	0.834512	-0.080781
C92	C	0.775603	0.750330	0.044446
C93	C	0.998308	0.911169	-0.148223
C94	C	1.056468	0.853003	-0.045885
C95	C	0.655579	1.253935	-0.751291
C96	C	0.597420	1.312100	-0.853629
C97	C	0.655579	1.253930	-0.449770
C98	C	0.597419	1.312095	-0.449775
C99	C	0.865275	1.330591	-0.818732
C100	C	0.878285	1.414773	-0.943959
C101	C	1.042834	0.810726	-0.495455
C102	C	1.097476	0.756083	-0.495474
C103	C	1.165752	0.743718	-0.449768
C104	C	1.179386	0.786008	-0.404052
C105	C	1.124745	0.840655	-0.404041
C106	C	0.810441	0.725765	0.148972
C107	C	0.798216	0.646677	0.266643
C108	C	0.751157	0.592151	0.279785
C109	C	0.716315	0.616722	0.175247
C110	C	0.728537	0.695813	0.057578
C111	C	1.124734	0.840660	-0.069875
C112	C	1.179390	0.786020	0.026268
C113	C	1.165776	0.743719	0.146402
C114	C	1.097502	0.756067	0.170391
C115	C	1.042850	0.810711	0.074247
C116	C	0.529155	1.324453	-0.829641
C117	C	0.474503	1.379117	-0.925791
C118	C	0.488118	1.421422	-1.045926
C119	C	0.556391	1.409069	-1.069913
C120	C	0.611041	1.354411	-0.973766
C121	C	0.611055	1.354386	-0.404071
C122	C	0.556416	1.409050	-0.404084
C123	C	0.488141	1.421418	-0.449794
C124	C	0.474506	1.379124	-0.495505
C125	C	0.529145	1.324466	-0.495499
C126	C	0.925348	1.469277	-0.957061
C127	C	0.937585	1.548370	-1.074718
C128	C	0.902755	1.572962	-1.179271
C129	C	0.855689	1.518450	-1.166165
C130	C	0.843456	1.439355	-1.048510
H131	H	0.848761	0.770164	-0.488136
H132	H	0.848760	0.770153	0.138295
H133	H	0.826593	0.626683	0.351749
H134	H	0.953711	0.449284	-0.672833
F135	F	0.962425	1.443120	-0.845802
F136	F	0.401848	1.392250	-0.900236
H137	H	0.700609	0.468667	-0.227474
F138	F	0.987675	1.606376	-1.088640
H139	H	0.518032	1.290031	-0.532713
F140	F	0.666233	0.558681	0.189253
H141	H	0.518055	1.290007	-0.731827
H142	H	0.741212	0.527753	0.375606
F143	F	0.818741	1.319306	-1.245122
F144	F	0.915780	1.657147	-1.304484
H145	H	0.700168	0.715802	-0.027525
H146	H	1.210238	0.699217	-0.449783
F147	F	1.139240	0.885676	-0.197725
F148	F	0.190058	1.403988	-0.732538
H149	H	1.234976	0.775973	0.006715
H150	H	0.987245	0.820793	-0.532690
F151	F	1.083024	0.711041	0.298255
H152	H	1.086361	0.721654	-0.532701
F153	F	1.223949	0.685563	0.248716
F154	F	0.970195	0.823835	0.099800
H155	H	0.443611	1.465926	-1.124204
F156	F	0.793358	1.381360	-1.034584
F157	F	0.570869	1.454098	-1.197778
F158	F	0.760772	0.404296	-0.333304
F159	F	0.691470	0.721964	-0.211370
H160	H	0.874096	0.933966	-0.731812
F161	F	0.793354	0.381315	-0.390681
H162	H	0.666624	1.344355	-0.993311
F163	F	0.683716	1.341238	-0.355420
F164	F	0.570942	1.454051	-0.355425
F165	F	0.697799	1.285233	-1.210264
F166	F	0.052029	1.353499	-0.688139
H167	H	0.443656	1.465927	-0.449792
F168	F	0.401837	1.392293	-0.544147
H169	H	0.827333	1.538486	-1.251309
H170	H	0.677995	0.572330	-0.187679
H171	H	0.890060	0.741026	-0.560833
H172	H	0.953270	0.696446	-0.672039
H173	H	0.975887	0.592777	-0.711837
H174	H	0.422280	1.208811	-0.560842
F175	F	0.494593	1.149738	-0.508855
H176	H	0.314473	1.335233	-0.672028
F177	F	1.139266	0.885646	-0.355372
H178	H	0.231614	0.956289	-0.338682
F179	F	0.159291	1.015367	-0.390651
F180	F	0.337543	0.806344	-0.206757
H181	H	0.587011	0.829013	-0.226677
F182	F	0.463830	0.761118	-0.166974
H183	H	0.803898	1.311593	-1.077108
F184	F	0.880583	0.913478	-0.900244
H185	H	0.715784	1.271606	-1.038187
H186	H	1.234984	0.775932	-0.366840
