data_functionalizedCrystal
_audit_creation_method	'MofGen! by Chris Wilmer'
_symmetry_space_group_name_H-M	'P1'
_symmetry_Int_Tables_number	1
_symmetry_cell_setting	triclinic
loop_
_symmetry_equiv_pos_as_xyz
  x,y,z
_cell_length_a	12.759401
_cell_length_b	15.297327
_cell_length_c	12.759393
_cell_angle_alpha	99.643518
_cell_angle_beta	89.979541
_cell_angle_gamma	99.708126
loop_
_atom_site_label
_atom_site_type_symbol
_atom_site_fract_x
_atom_site_fract_y
_atom_site_fract_z
Zn1	Zn	1.533809	-0.359088	-0.666331
Zn2	Zn	1.503257	-0.509972	-0.521035
Zn3	Zn	1.358099	-0.359134	-0.490675
Zn4	Zn	1.327668	-0.509911	-0.696660
O5	O	1.430708	-0.434527	-0.593675
O6	O	1.676776	-0.379110	-0.647070
O7	O	1.483952	-0.490008	-0.369996
O8	O	1.406929	-0.232882	-0.488578
O9	O	1.654330	-0.489964	-0.540322
O10	O	1.536022	-0.232848	-0.617631
O11	O	1.377305	-0.379189	-0.347690
O12	O	1.207043	-0.379129	-0.517987
O13	O	1.355063	-0.489859	-0.839649
O14	O	1.184685	-0.489904	-0.669323
O15	O	1.506514	-0.379050	-0.817366
O16	O	1.454444	-0.636210	-0.569730
O17	O	1.325439	-0.636165	-0.698761
C18	C	1.157743	-0.434515	-0.593652
C19	C	1.040963	-0.434532	-0.593671
C20	C	0.974469	-0.492301	-0.672384
C21	C	0.864744	-0.492304	-0.672406
C22	C	0.888018	-0.376769	-0.514992
C23	C	0.997741	-0.376761	-0.514976
C24	C	1.383352	-0.668922	-0.640854
C25	C	1.363189	-0.769197	-0.661073
C26	C	1.575250	-1.051826	-0.449529
C27	C	1.594193	-0.957612	-0.430527
C28	C	1.536444	-0.910504	-0.488162
C29	C	1.459748	-0.957618	-0.564802
C30	C	1.440796	-1.051841	-0.583799
C31	C	1.401991	-0.910519	-0.622432
C32	C	1.325294	-0.957634	-0.699072
C33	C	1.306347	-1.051848	-0.718067
C34	C	1.364096	-1.098956	-0.660432
C35	C	1.420942	-0.816296	-0.603435
C36	C	1.286489	-0.816312	-0.737705
C37	C	1.267545	-0.910526	-0.756707
C38	C	1.704739	-0.434538	-0.593699
C39	C	1.821515	-0.434543	-0.593709
C40	C	1.430802	-0.434443	-0.867692
C41	C	1.430841	-0.434407	-0.984461
C42	C	1.478278	-0.199216	-0.546335
C43	C	1.498549	-0.098940	-0.526161
C44	C	1.486414	-0.492044	-1.160660
C45	C	1.486379	-0.492086	-1.050944
C46	C	1.375325	-0.376687	-1.027700
C47	C	1.375353	-0.376650	-1.137415
C48	C	1.430689	-0.434545	-0.320712
C49	C	1.430904	-0.434327	-0.203891
H50	H	0.810609	-0.539344	-0.736502
Cl51	Cl	1.305545	-0.304099	-1.191771
Cl52	Cl	0.833673	-0.304148	-0.416065
H53	H	1.051884	-0.329714	-0.450878
H54	H	1.330099	-0.329728	-0.973562
H55	H	1.656638	-0.919254	-0.368127
Cl56	Cl	1.339858	-1.217400	-0.683890
H57	H	1.009657	-0.539340	-0.736465
Cl58	Cl	1.556244	-0.564554	-1.244227
H59	H	1.483389	-0.777944	-0.541034
H60	H	1.551872	-0.833791	-0.472685
Cl61	Cl	1.647836	-1.111051	-0.377081
Cl62	Cl	1.556164	-0.564650	-0.996601
Cl63	Cl	1.209923	-1.111076	-0.814409
Cl64	Cl	1.171129	-0.969766	-0.853050
H65	H	1.239462	-0.777957	-0.784634
