data_functionalizedCrystal
_audit_creation_method	'MofGen! by Chris Wilmer'
_symmetry_space_group_name_H-M	'P1'
_symmetry_Int_Tables_number	1
_symmetry_cell_setting	triclinic
loop_
_symmetry_equiv_pos_as_xyz
  x,y,z
_cell_length_a	6.817900
_cell_length_b	16.305597
_cell_length_c	17.110486
_cell_angle_alpha	96.313144
_cell_angle_beta	99.060439
_cell_angle_gamma	103.455834
loop_
_atom_site_label
_atom_site_type_symbol
_atom_site_fract_x
_atom_site_fract_y
_atom_site_fract_z
V1	V	-3.976725	-0.116465	-0.246991
O2	O	-3.965382	0.005855	-0.242010
O3	O	-3.928400	-0.231179	-0.245570
O4	O	-3.906585	-0.114560	-0.354590
O5	O	-3.987347	-0.111571	-0.132236
V6	V	-4.463160	-0.101847	-0.233233
O7	O	-4.231595	-0.148529	-0.277171
O8	O	-4.658487	-0.069783	-0.203053
O9	O	-4.288278	0.012867	-0.234653
O10	O	-4.591899	-0.224167	-0.238214
O11	O	-4.569934	-0.106741	-0.347988
O12	O	-4.310093	-0.103752	-0.125634
C13	C	-3.774122	-0.259147	-0.241743
C14	C	-3.815752	-0.352926	-0.241299
C15	C	-3.967196	-0.693686	-0.239722
C16	C	-3.732341	-0.652860	-0.235401
C17	C	-3.688774	-0.555261	-0.235549
C18	C	-3.892062	-0.524631	-0.240505
C19	C	-3.989800	-0.550074	-0.166774
C20	C	-4.031715	-0.647607	-0.166229
C21	C	-4.089632	-0.672785	-0.317561
C22	C	-4.042528	-0.575271	-0.318926
C23	C	-3.849610	-0.429088	-0.240945
C24	C	-4.009652	-0.789228	-0.239277
C25	C	-3.746295	-0.110387	-0.380807
C26	C	-3.770232	-0.109589	-0.468772
C27	C	-3.962768	-0.113424	-0.514138
C28	C	-3.985247	-0.112673	-0.596790
C29	C	-3.815192	-0.108093	-0.634074
C30	C	-3.622640	-0.104255	-0.588701
C31	C	-3.600160	-0.105000	-0.506050
C32	C	-3.873995	-0.105629	-0.883423
C33	C	-3.896492	-0.104887	-0.966080
C34	C	-4.259098	-0.113303	-0.974164
C35	C	-4.236603	-0.114052	-0.891512
C36	C	-4.044052	-0.110210	-0.846145
C37	C	-3.838167	-0.107328	-0.718557
C38	C	-4.021077	-0.110969	-0.761662
C39	C	-4.105898	0.040830	-0.238478
C40	C	-4.043505	0.134609	-0.238928
C41	C	-4.133726	-0.107928	-0.099412
C42	C	-4.089027	-0.108722	-0.011447
H43	H	-3.638549	-0.666416	-0.179262
H44	H	-4.142025	-0.115791	-0.633723
H45	H	-3.699713	-0.103603	-0.748924
H46	H	-4.375084	-0.117781	-0.861161
Br47	Br	-3.665687	-0.098674	-1.016680
H48	H	-4.101253	-0.117159	-0.483789
Br49	Br	-4.520405	-0.118516	-1.035736
H50	H	-4.050747	-0.705240	-0.373476
H51	H	-3.573255	-0.520885	-0.179248
Br52	Br	-3.612689	-0.100437	-0.821868
Br53	Br	-4.315095	-0.692354	-0.166148
H54	H	-3.484177	-0.100521	-0.619063
H55	H	-3.675982	-0.683285	-0.287874
H56	H	-3.944462	-0.659166	-0.107666
H57	H	-3.443369	-0.101856	-0.469110
H58	H	-4.159532	-0.114695	-0.731301
Br59	Br	-4.239591	-0.516987	-0.168110
Br60	Br	-4.293724	-0.542204	-0.332589
Br61	Br	-4.376050	-0.717761	-0.324114
Br62	Br	-3.560764	-0.526970	-0.323358
H63	H	-3.972741	-0.559525	-0.373483
Br64	Br	-3.812520	-0.490819	-0.070012
