data_functionalizedCrystal
_audit_creation_method	'MofGen! by Chris Wilmer'
_symmetry_space_group_name_H-M	'P1'
_symmetry_Int_Tables_number	1
_symmetry_cell_setting	triclinic
loop_
_symmetry_equiv_pos_as_xyz
  x,y,z
_cell_length_a	12.759401
_cell_length_b	17.637651
_cell_length_c	12.759393
_cell_angle_alpha	101.248903
_cell_angle_beta	90.020938
_cell_angle_gamma	101.220604
loop_
_atom_site_label
_atom_site_type_symbol
_atom_site_fract_x
_atom_site_fract_y
_atom_site_fract_z
Zn1	Zn	1.521705	-0.314700	0.509352
Zn2	Zn	1.486064	-0.446936	0.298095
Zn3	Zn	1.345992	-0.314742	0.333676
Zn4	Zn	1.310478	-0.446881	0.473747
O5	O	1.416060	-0.380814	0.403718
O6	O	1.663997	-0.332247	0.481339
O7	O	1.467430	-0.429441	0.155783
O8	O	1.399080	-0.204094	0.386772
O9	O	1.637811	-0.429400	0.326129
O10	O	1.528175	-0.204063	0.515840
O11	O	1.364520	-0.332318	0.181924
O12	O	1.194262	-0.332265	0.352247
O13	O	1.338551	-0.429306	0.625502
O14	O	1.168170	-0.429347	0.455156
O15	O	1.493738	-0.332193	0.651661
O16	O	1.432993	-0.557571	0.291604
O17	O	1.303991	-0.557530	0.420655
C18	C	1.143095	-0.380805	0.403699
C19	C	1.026314	-0.380820	0.403711
C20	C	1.360799	-0.586238	0.348428
C21	C	1.337254	-0.674120	0.324810
C22	C	0.957873	-0.431447	0.457170
C23	C	0.848148	-0.431450	0.457190
C24	C	0.875316	-0.330196	0.350284
C25	C	0.985040	-0.330190	0.350271
C26	C	0.690629	-0.459820	0.573418
C27	C	0.622180	-0.510460	0.626864
C28	C	0.637045	-0.587621	0.622052
C29	C	0.720352	-0.614157	0.563775
C30	C	0.788793	-0.563522	0.510320
C31	C	0.773933	-0.486350	0.515154
C32	C	1.142559	-0.301827	0.234040
C33	C	1.211002	-0.251195	0.180578
C34	C	1.196140	-0.174033	0.185379
C35	C	1.112829	-0.147500	0.243637
C36	C	1.044386	-0.198132	0.297099
C37	C	1.059256	-0.275293	0.292300
C38	C	1.595609	-0.962775	0.583473
C39	C	1.573452	-1.045353	0.561262
C40	C	1.439114	-1.045493	0.426733
C41	C	1.461264	-0.962913	0.448929
C42	C	1.539512	-0.921561	0.527301
C43	C	1.405166	-0.921699	0.392757
C44	C	1.427311	-0.839126	0.414956
C45	C	1.505553	-0.797768	0.493327
C46	C	1.561656	-0.838989	0.549500
C47	C	1.326914	-0.963052	0.314391
C48	C	1.270816	-0.921838	0.258219
C49	C	1.292966	-0.839264	0.280412
C50	C	1.371207	-0.797906	0.358783
C51	C	1.236862	-0.798044	0.224239
C52	C	1.259007	-0.715472	0.246438
C53	C	1.393352	-0.715334	0.380981
C54	C	1.690090	-0.380825	0.403736
C55	C	1.806866	-0.380829	0.403744
C56	C	1.416159	-0.380739	0.677772
C57	C	1.416201	-0.380706	0.794557
C58	C	1.471565	-0.174588	0.459246
C59	C	1.495218	-0.086707	0.482910
C60	C	1.416037	-0.380833	0.130745
C61	C	1.416258	-0.380643	0.014020
C62	C	1.497014	-0.330131	0.863044
C63	C	1.497041	-0.330097	0.972777
C64	C	1.335437	-0.431220	0.945525
C65	C	1.335407	-0.431249	0.835795
C66	C	1.559719	-0.236813	1.147853
C67	C	1.640547	-0.186245	1.216341
C68	C	1.746318	-0.174121	1.184012
C69	C	1.771278	-0.212576	1.083192
C70	C	1.690454	-0.263150	1.014708
C71	C	1.584673	-0.275259	1.047040
C72	C	1.272739	-0.524535	0.660717
C73	C	1.191918	-0.575113	0.592229
C74	C	1.086144	-0.587245	0.624555
C75	C	1.061183	-0.548804	0.725374
C76	C	1.142004	-0.498226	0.793862
C77	C	1.247778	-0.486092	0.761529
H78	H	0.991475	-0.472671	0.500687
N79	N	1.198501	-0.671012	0.185861
H80	H	1.145573	-0.709738	0.132843
H81	H	1.250481	-0.636753	0.146492
N82	N	1.354732	-1.090096	0.342197
H83	H	1.283499	-1.075758	0.362291
H84	H	1.349309	-1.148645	0.336694
N85	N	1.717361	-0.304628	0.905975
H86	H	1.796635	-0.289278	0.895885
H87	H	1.676420	-0.288793	0.848753
H88	H	1.523581	-0.730533	0.511399
H89	H	1.625381	-0.805318	0.613311
N90	N	1.584156	-0.275623	0.818561
H91	H	1.551319	-0.238994	0.782885
H92	H	1.624144	-0.307837	0.764440
N93	N	1.679999	-0.918168	0.668010
H94	H	1.685508	-0.859605	0.673549
H95	H	1.751183	-0.932565	0.647859
N96	N	1.885365	-0.199506	1.048326
H97	H	1.932778	-0.161631	1.107007
H98	H	1.889521	-0.176709	0.981373
N99	N	1.833499	-0.119584	1.257879
H100	H	1.801639	-0.097066	1.326651
H101	H	1.868349	-0.075229	1.222245
N102	N	1.613631	-0.144768	1.325078
H103	H	1.534357	-0.160113	1.335165
H104	H	1.634073	-0.085827	1.330480
N105	N	0.878649	-0.592125	0.447474
H106	H	0.869142	-0.588666	0.370072
H107	H	0.877636	-0.648682	0.452613
N108	N	1.158581	-0.385057	0.228872
H109	H	1.232049	-0.383669	0.259597
H110	H	1.151791	-0.414118	0.151946
N111	N	1.152471	-0.842653	0.139715
H112	H	1.172676	-0.828316	0.068517
H113	H	1.081276	-0.828293	0.159911
H114	H	1.619124	-1.078907	0.607025
N115	N	1.477752	-0.670716	0.465503
H116	H	1.548984	-0.685052	0.445397
H117	H	1.457463	-0.685068	0.536671
N118	N	0.736369	-0.697389	0.558564
H119	H	0.680370	-0.725440	0.601268
H120	H	0.809865	-0.695942	0.589263
N121	N	1.218822	-0.616574	0.483480
H122	H	1.198469	-0.675529	0.477999
H123	H	1.298092	-0.601152	0.473443
N124	N	1.303038	-1.052113	0.290454
H125	H	1.317042	-1.072031	0.213043
H126	H	1.225619	-1.071969	0.304415
H127	H	1.473593	-0.246674	1.174182
H128	H	1.100716	-0.084673	0.247530
N129	N	1.186429	-0.966441	0.173688
H130	H	1.180913	-1.025005	0.168146
H131	H	1.206699	-0.952036	0.102545
N132	N	0.563217	-0.642243	0.679688
H133	H	0.508188	-0.613727	0.717331
H134	H	0.606173	-0.659544	0.733946
H135	H	1.269659	-0.472372	0.979115
H136	H	1.121673	-0.466925	0.875954
N137	N	0.947100	-0.561889	0.760253
H138	H	0.899688	-0.599761	0.701568
H139	H	0.922416	-0.509919	0.775391
N140	N	0.998972	-0.641806	0.550693
H141	H	1.030830	-0.664326	0.481921
H142	H	0.943605	-0.611394	0.534507
N143	N	1.386828	-0.511441	0.625847
H144	H	1.411612	-0.563375	0.610737
H145	H	1.434154	-0.473537	0.684564
N146	N	0.532329	-0.481844	0.689716
H147	H	0.533303	-0.425274	0.684666
H148	H	0.541890	-0.485359	0.767086
H149	H	0.841697	-0.288976	0.306774
N150	N	0.674595	-0.376595	0.578610
H151	H	0.740896	-0.338028	0.611663
H152	H	0.611395	-0.367550	0.623607
N153	N	0.954525	-0.169518	0.359935
H154	H	0.955491	-0.112953	0.354867
H155	H	0.964088	-0.173019	0.437311
N156	N	1.269960	-0.119415	0.127725
H157	H	1.227074	-0.102106	0.073415
H158	H	1.324979	-0.147970	0.090146
N159	N	1.300858	-0.279811	0.117736
H160	H	1.299897	-0.336375	0.122812
H161	H	1.371488	-0.245809	0.148006
