data_functionalizedCrystal
_audit_creation_method	'MofGen! by Chris Wilmer'
_symmetry_space_group_name_H-M	'P1'
_symmetry_Int_Tables_number	1
_symmetry_cell_setting	triclinic
loop_
_symmetry_equiv_pos_as_xyz
  x,y,z
_cell_length_a	19.288864
_cell_length_b	10.654541
_cell_length_c	18.366186
_cell_angle_alpha	90.004853
_cell_angle_beta	90.022929
_cell_angle_gamma	83.810087
loop_
_atom_site_label
_atom_site_type_symbol
_atom_site_fract_x
_atom_site_fract_y
_atom_site_fract_z
O1	O	0.922378	0.156655	0.060783
O2	O	1.422378	0.656655	0.560783
O3	O	0.720256	0.177787	0.060733
O4	O	1.220256	0.677787	0.560733
O5	O	0.825965	-0.015618	0.060755
O6	O	1.325965	0.484382	0.560755
O7	O	0.816669	0.350060	0.060761
O8	O	1.316669	0.850060	0.560761
O9	O	0.825946	-0.015623	-0.060344
O10	O	1.325946	0.484377	0.439656
O11	O	0.720237	0.177782	-0.060366
O12	O	1.220237	0.677782	0.439634
O13	O	0.922359	0.156649	-0.060316
O14	O	1.422359	0.656649	0.439684
Zn15	Zn	0.821295	0.167215	-0.079568
Zn16	Zn	1.321295	0.667215	0.420432
Zn17	Zn	0.821320	0.167222	0.079985
Zn18	Zn	1.321320	0.667222	0.579985
O19	O	0.816650	0.350055	-0.060338
O20	O	1.316650	0.850055	0.439662
C21	C	0.694365	0.177105	0.000177
C22	C	1.194365	0.677105	0.500177
C23	C	0.617248	0.175064	0.000158
C24	C	1.117248	0.675064	0.500158
C25	C	0.573295	0.288545	0.000172
C26	C	1.073295	0.788545	0.500172
C27	C	0.500835	0.286627	0.000180
C28	C	1.000835	0.786627	0.500180
C29	C	0.472332	0.171222	0.000189
C30	C	0.972332	0.671222	0.500189
C31	C	0.516296	0.057725	0.000171
C32	C	1.016296	0.557725	0.500171
C33	C	0.588754	0.059646	0.000156
C34	C	1.088754	0.559646	0.500156
C35	C	0.363483	0.080502	0.042638
C36	C	0.863483	0.580502	0.542638
C37	C	0.291026	0.078586	0.042658
C38	C	0.791026	0.578586	0.542658
C39	C	0.248848	0.165292	0.000233
C40	C	0.748848	0.665292	0.500233
C41	C	0.279134	0.253936	-0.042203
C42	C	0.779134	0.753936	0.457797
C43	C	0.351592	0.255857	-0.042218
C44	C	0.851592	0.755857	0.457782
C45	C	0.393765	0.169126	0.000205
C46	C	0.893765	0.669126	0.500205
C47	C	0.126325	0.276702	0.000254
C48	C	0.626325	0.776702	0.500254
C49	C	0.053864	0.274780	0.000257
C50	C	0.553864	0.774780	0.500257
C51	C	0.069327	0.045875	0.000256
C52	C	0.569327	0.545875	0.500256
C53	C	0.141786	0.047800	0.000245
C54	C	0.641786	0.547800	0.500245
C55	C	0.170280	0.163218	0.000248
C56	C	0.670280	0.663218	0.500248
C57	C	0.825273	-0.062404	0.000205
C58	C	1.325273	0.437596	0.500205
C59	C	0.823232	-0.201804	0.000206
C60	C	1.323232	0.298196	0.500206
C61	C	0.949636	-0.232481	0.000228
C62	C	1.449636	0.267519	0.500228
C63	C	1.011877	-0.313307	0.000237
C64	C	1.511877	0.186693	0.500237
C65	C	1.009955	-0.444284	0.000239
C66	C	1.509955	0.055716	0.500239
C67	C	0.945785	-0.494436	0.000234
C68	C	1.445785	0.005564	0.500234
C69	C	0.883545	-0.413609	0.000225
C70	C	1.383545	0.086391	0.500225
C71	C	0.885474	-0.282631	0.000221
C72	C	1.385474	0.217369	0.500221
C73	C	0.757142	-0.382933	0.000208
C74	C	1.257142	0.117067	0.500208
C75	C	0.759063	-0.251955	0.000201
C76	C	1.259063	0.248045	0.500201
C77	C	0.692973	-0.433084	0.000203
C78	C	1.192973	0.066916	0.500203
C79	C	0.630732	-0.352257	0.000188
C80	C	1.130732	0.147743	0.500188
C81	C	0.632656	-0.221273	0.000186
C82	C	1.132656	0.278727	0.500186
C83	C	0.696823	-0.171129	0.000192
C84	C	1.196823	0.328871	0.500192
C85	C	0.948250	0.157332	0.000241
C86	C	1.448250	0.657332	0.500241
C87	C	1.025367	0.159373	0.000265
C88	C	1.525367	0.659373	0.500265
C89	C	0.817342	0.396841	0.000213
C90	C	1.317342	0.896841	0.500213
C91	C	0.819383	0.536241	0.000217
C92	C	1.319383	1.036241	0.500217
N93	N	0.821284	0.167209	-0.188459
N94	N	1.321284	0.667209	0.311541
C95	C	0.863768	0.243187	-0.226541
C96	C	1.363768	0.743187	0.273459
C97	C	0.863780	0.243183	-0.302769
C98	C	1.363780	0.743183	0.197231
C99	C	0.821294	0.167217	-0.340912
C100	C	1.321294	0.667217	0.159088
C101	C	0.778806	0.091224	-0.302821
C102	C	1.278806	0.591224	0.197179
C103	C	0.778801	0.091221	-0.226595
C104	C	1.278801	0.591221	0.273405
C105	C	0.758661	0.164041	-0.461709
C106	C	1.258661	0.664041	0.038291
C107	C	0.758664	0.164054	-0.537934
C108	C	1.258664	0.664054	-0.037934
C109	C	0.821309	0.167221	-0.576020
C110	C	1.321309	0.667221	-0.076020
C111	C	0.883952	0.170402	-0.537871
C112	C	1.383952	0.670402	-0.037871
C113	C	0.883947	0.170399	-0.461645
C114	C	1.383947	0.670399	0.038355
C115	C	0.821294	0.167212	-0.423567
C116	C	1.321294	0.667212	0.076433
C117	C	0.863810	0.243199	-0.696757
C118	C	1.363810	0.743199	-0.196757
C119	C	0.863823	0.243186	-0.772986
C120	C	1.363823	0.743186	-0.272986
C121	C	0.778842	0.091235	-0.773036
C122	C	1.278842	0.591235	-0.273036
C123	C	0.778836	0.091240	-0.696808
C124	C	1.278836	0.591240	-0.196808
C125	C	0.821319	0.167229	-0.658673
C126	C	1.321319	0.667229	-0.158673
N127	N	0.821337	0.167218	0.188876
N128	N	1.321337	0.667218	0.688876
H129	H	0.177574	-0.044609	0.000238
H130	H	0.677574	0.455391	0.500238
H131	H	0.018077	0.367194	0.000264
H132	H	0.518077	0.867194	0.500264
Cl133	Cl	0.550071	-0.415312	0.000190
Cl134	Cl	1.050071	0.084688	0.500190
H135	H	0.266373	0.006412	0.077214
H136	H	0.766373	0.506412	0.577214
H137	H	0.581972	-0.155470	0.000181
H138	H	1.081972	0.344530	0.500181
H139	H	0.934952	0.172986	-0.430588
H140	H	1.434952	0.672986	0.069412
H141	H	0.244794	0.324541	-0.076750
H142	H	0.744794	0.824541	0.423250
Cl143	Cl	0.943371	-0.659094	0.000286
Cl144	Cl	1.443371	-0.159094	0.500286
H145	H	1.064122	-0.272459	0.000235
H146	H	1.564122	0.227541	0.500235
Cl147	Cl	0.162150	0.421795	0.000249
Cl148	Cl	0.662150	0.921795	0.500249
Cl149	Cl	0.917231	0.338697	-0.648812
Cl150	Cl	1.417231	0.838697	-0.148812
H151	H	0.744204	0.029349	-0.195589
H152	H	1.244204	0.529349	0.304411
H153	H	0.898424	0.305052	-0.803991
H154	H	1.398424	0.805052	-0.303991
Cl155	Cl	0.952058	-0.067824	0.000209
Cl156	Cl	1.452058	0.432176	0.500209
Cl157	Cl	0.690557	-0.597742	0.000251
Cl158	Cl	1.190557	-0.097742	0.500251
H159	H	0.698396	-0.064483	0.000185
H160	H	1.198396	0.435517	0.500185
Cl161	Cl	0.725438	-0.004282	-0.820980
Cl162	Cl	1.225438	0.495718	-0.320980
Cl163	Cl	0.917162	0.338740	-0.178604
Cl164	Cl	1.417162	0.838740	0.321396
Cl165	Cl	0.445568	0.429301	0.000195
Cl166	Cl	0.945568	0.929301	0.500195
H167	H	0.046121	-0.048091	0.000309
H168	H	0.546121	0.451909	0.500309
Cl169	Cl	0.416501	-0.028512	0.095978
Cl170	Cl	0.916501	0.471488	0.595978
Cl171	Cl	0.917194	0.338704	-0.350654
Cl172	Cl	1.417194	0.838704	0.149346
Cl173	Cl	0.725397	-0.004280	-0.350771
Cl174	Cl	1.225397	0.495720	0.149229
Cl175	Cl	0.962711	0.174385	-0.585742
Cl176	Cl	1.462711	0.674385	-0.085742
Cl177	Cl	0.480465	-0.087356	0.000178
Cl178	Cl	0.980465	0.412644	0.500178
Cl179	Cl	0.389665	0.367284	-0.095566
Cl180	Cl	0.889665	0.867284	0.404434
Cl181	Cl	0.644013	-0.083028	0.000140
Cl182	Cl	1.144013	0.416972	0.500140
Cl183	Cl	0.725410	-0.004255	-0.648931
Cl184	Cl	1.225410	0.495745	-0.148931
H185	H	1.060636	-0.510094	0.000252
H186	H	1.560636	-0.010094	0.500252
H187	H	0.707644	0.161470	-0.430705
H188	H	1.207644	0.661470	0.069295
Cl189	Cl	0.609113	0.433641	0.000171
Cl190	Cl	1.109113	0.933641	0.500171
Cl191	Cl	0.679914	0.160067	-0.585884
Cl192	Cl	1.179914	0.660067	-0.085884
