data_functionalizedCrystal
_audit_creation_method	'MofGen! by Chris Wilmer'
_symmetry_space_group_name_H-M	'P1'
_symmetry_Int_Tables_number	1
_symmetry_cell_setting	triclinic
loop_
_symmetry_equiv_pos_as_xyz
  x,y,z
_cell_length_a	10.540510
_cell_length_b	10.489741
_cell_length_c	9.016244
_cell_angle_alpha	89.998079
_cell_angle_beta	89.992396
_cell_angle_gamma	84.526242
loop_
_atom_site_label
_atom_site_type_symbol
_atom_site_fract_x
_atom_site_fract_y
_atom_site_fract_z
O1	O	1.685936	0.179579	-0.123349
O2	O	1.316521	0.196556	-0.123350
O3	O	1.509634	0.002467	-0.123340
O4	O	1.492823	0.373667	-0.123358
O5	O	1.509606	0.002472	0.123340
O6	O	1.316492	0.196560	0.123331
O7	O	1.685908	0.179583	0.123332
Cu8	Cu	1.501198	0.188072	0.145856
Cu9	Cu	1.501231	0.188067	-0.145873
O10	O	1.492794	0.373671	0.123323
C11	C	1.269203	0.195293	-0.000009
C12	C	1.128252	0.191508	-0.000009
C13	C	0.910813	0.326340	-0.000583
C14	C	1.057409	0.330377	-0.000018
C15	C	1.083468	0.120422	0.140857
C16	C	0.936706	0.117368	0.140966
C17	C	0.936932	0.114471	-0.139556
C18	C	1.083274	0.121058	-0.141409
C19	C	1.508350	-0.045062	-0.000001
C20	C	1.504552	-0.186691	-0.000003
C21	C	1.381679	-0.254803	-0.000015
C22	C	1.439709	-0.346936	0.121612
C23	C	1.439766	-0.346915	-0.121596
C24	C	1.562632	-0.276959	0.121723
C25	C	1.562672	-0.276928	-0.121594
C26	C	1.620791	-0.369034	0.000062
C27	C	1.733226	0.180846	-0.000012
C28	C	1.874176	0.184631	-0.000021
C29	C	1.494078	0.421200	-0.000020
C30	C	1.497877	0.562829	-0.000027
N31	N	1.501183	0.188075	0.351042
N32	N	1.501255	0.188054	-0.351059
C33	C	1.397563	0.291551	0.586069
C34	C	1.397792	0.291938	0.414178
C35	C	1.633912	0.218340	0.413379
C36	C	1.633346	0.219072	0.585324
C37	C	1.473393	0.053995	0.585592
C38	C	1.470348	0.054864	0.413637
H39	H	1.130845	0.018189	0.146101
N40	N	1.568207	-0.042668	0.636598
N41	N	1.563299	-0.156673	0.598534
H42	H	1.630262	-0.224935	0.634564
H43	H	1.540866	-0.025853	0.370665
H44	H	1.280654	-0.205128	0.000108
N45	N	0.909165	-0.016336	-0.140782
N46	N	0.997969	-0.104220	-0.137250
H47	H	0.978360	-0.196602	-0.138112
N48	N	1.094220	0.400224	-0.126648
N49	N	1.150211	0.499025	-0.109723
H50	H	1.176191	0.548381	-0.199148
H51	H	1.114316	0.169793	0.245686
N52	N	1.665154	0.339646	0.359321
N53	N	1.589891	0.404010	0.274904
H54	H	1.611949	0.489687	0.236725
N55	N	1.733080	0.126349	0.362095
N56	N	1.729844	0.010410	0.392327
H57	H	1.799880	-0.054563	0.356108
H58	H	1.614630	-0.245897	-0.224425
N59	N	0.858199	0.394201	-0.127320
N60	N	0.793080	0.338923	-0.218710
H61	H	0.755912	0.386849	-0.308223
N62	N	1.274076	0.269133	0.361272
N63	N	1.253077	0.265531	0.224967
H64	H	1.165696	0.249431	0.187606
N65	N	1.119184	0.185962	-0.272134
N66	N	1.177688	0.283738	-0.261318
H67	H	1.203052	0.329584	-0.353641
N68	N	1.374566	-0.385770	-0.250608
N69	N	1.431276	-0.460874	-0.341690
H70	H	1.385224	-0.488312	-0.432801
H71	H	1.298634	0.273623	0.627463
N72	N	1.419746	0.415611	0.640259
N73	N	1.511592	0.428133	0.724981
H74	H	1.527264	0.515750	0.763255
H75	H	0.867301	0.380132	0.099863
H76	H	1.372706	0.031923	0.372896
N77	N	1.354500	0.017898	0.640022
N78	N	1.253657	0.086810	0.613637
H79	H	1.169680	0.061331	0.652071
H80	H	1.415704	0.391399	0.373027
H81	H	1.657712	0.316878	0.625408
H82	H	0.894402	0.158263	-0.246325
N83	N	1.374463	-0.385817	0.250600
N84	N	1.260745	-0.344675	0.272272
H85	H	1.214656	-0.372130	0.363365
N86	N	1.144815	-0.006131	-0.152046
N87	N	1.131342	-0.085191	-0.050873
H88	H	1.174809	-0.175023	-0.058372
H89	H	1.085808	0.386330	0.101126
N90	N	1.733141	0.128234	0.637566
N91	N	1.707204	0.036706	0.717231
H92	H	1.777697	-0.027426	0.754138
H93	H	0.896484	0.165952	0.246262
N94	N	0.907853	-0.012931	0.149004
N95	N	0.996075	-0.101324	0.154526
H96	H	0.975704	-0.193347	0.160213
H97	H	1.614565	-0.246137	0.224664
H98	H	1.721907	-0.418481	0.000130
