data_functionalizedCrystal
_audit_creation_method	'MofGen! by Chris Wilmer'
_symmetry_space_group_name_H-M	'P1'
_symmetry_Int_Tables_number	1
_symmetry_cell_setting	triclinic
loop_
_symmetry_equiv_pos_as_xyz
  x,y,z
_cell_length_a	6.817900
_cell_length_b	10.943632
_cell_length_c	10.943624
_cell_angle_alpha	91.771060
_cell_angle_beta	108.838799
_cell_angle_gamma	108.838880
loop_
_atom_site_label
_atom_site_type_symbol
_atom_site_fract_x
_atom_site_fract_y
_atom_site_fract_z
V1	V	-4.115495	-0.178596	-0.402520
O2	O	-4.073204	0.008617	-0.394890
O3	O	-4.093445	-0.354159	-0.399737
O4	O	-4.093458	-0.175834	-0.578087
O5	O	-4.073192	-0.170943	-0.215305
V6	V	-4.592293	-0.156205	-0.380131
O7	O	-4.391506	-0.227713	-0.451632
O8	O	-4.766479	-0.107088	-0.331020
O9	O	-4.391136	0.019358	-0.382915
O10	O	-4.751980	-0.343418	-0.387762
O11	O	-4.751993	-0.163858	-0.567347
O12	O	-4.391123	-0.158967	-0.204564
C13	C	-3.944003	-0.396958	-0.393379
C14	C	-4.007438	-0.540484	-0.392273
C15	C	-3.852284	-0.617637	-0.384920
C16	C	-3.931120	-0.690292	-0.280695
C17	C	-4.041658	-0.723567	-0.494542
C18	C	-4.085393	-0.611235	-0.287974
C19	C	-4.195950	-0.644516	-0.501916
C20	C	-4.274895	-0.717134	-0.397670
C21	C	-3.944018	-0.169484	-0.620881
C22	C	-4.007457	-0.168388	-0.764408
C23	C	-3.852287	-0.161001	-0.841556
C24	C	-4.041646	-0.270645	-0.947527
C25	C	-3.931164	-0.056801	-0.914178
C26	C	-4.196026	-0.278134	-0.868502
C27	C	-4.085465	-0.064194	-0.835129
C28	C	-4.274960	-0.173869	-0.941070
C29	C	-4.203920	0.062151	-0.389269
C30	C	-4.119726	0.205675	-0.390383
C31	C	-4.203905	-0.165321	-0.161764
C32	C	-4.119703	-0.166411	-0.018236
H33	H	-4.103227	-0.562474	-0.200587
N34	N	-4.512345	-0.774395	-0.404777
H35	H	-4.529059	-0.732982	-0.326735
H36	H	-4.554468	-0.871757	-0.404818
N37	N	-4.343571	-0.402184	-0.841287
H38	H	-4.502746	-0.407374	-0.878446
H39	H	-4.299277	-0.402122	-0.743853
N40	N	-4.343250	-0.616938	-0.625820
H41	H	-4.426322	-0.563465	-0.603206
H42	H	-4.452302	-0.702156	-0.681729
H43	H	-4.023738	-0.772480	-0.581812
N44	N	-4.109015	0.051414	-0.770248
H45	H	-4.267482	0.047465	-0.807836
H46	H	-4.008168	0.134884	-0.786266
N47	N	-3.614769	-0.560015	-0.377617
H48	H	-3.609035	-0.518191	-0.457984
H49	H	-3.549898	-0.631442	-0.372698
N50	N	-3.614912	-0.153972	-0.784000
H51	H	-3.598128	-0.232056	-0.825282
H52	H	-3.573117	-0.153903	-0.686647
H53	H	-4.023784	-0.357924	-0.996461
N54	N	-3.783679	0.067108	-0.941651
H55	H	-3.624673	0.071848	-0.905282
H56	H	-3.798854	0.145070	-0.899006
N57	N	-4.512476	-0.181107	-0.998354
H58	H	-4.601125	-0.261519	-1.066446
H59	H	-4.518138	-0.100698	-1.040107
N60	N	-3.783702	-0.717804	-0.156784
H61	H	-3.624679	-0.681437	-0.152010
H62	H	-3.829104	-0.815238	-0.156650
