data_functionalizedCrystal
_audit_creation_method	'MofGen! by Chris Wilmer'
_symmetry_space_group_name_H-M	'P1'
_symmetry_Int_Tables_number	1
_symmetry_cell_setting	triclinic
loop_
_symmetry_equiv_pos_as_xyz
  x,y,z
_cell_length_a	6.817900
_cell_length_b	23.752963
_cell_length_c	23.753023
_cell_angle_alpha	97.113271
_cell_angle_beta	100.067528
_cell_angle_gamma	100.066732
loop_
_atom_site_label
_atom_site_type_symbol
_atom_site_fract_x
_atom_site_fract_y
_atom_site_fract_z
V1	V	-3.971794	-0.079886	-0.178727
V2	V	-3.638461	0.253447	0.154606
V3	V	-3.305128	0.586781	0.487940
O4	O	-3.977677	0.003095	-0.174979
O5	O	-3.644344	0.336429	0.158354
O6	O	-3.311010	0.669762	0.491687
O7	O	-3.907026	-0.157686	-0.177837
O8	O	-3.573693	0.175648	0.155496
O9	O	-3.240360	0.508981	0.488830
O10	O	-3.907021	-0.078983	-0.256524
O11	O	-3.573688	0.254350	0.076809
O12	O	-3.240355	0.587683	0.410142
O13	O	-3.977682	-0.076152	-0.095747
O14	O	-3.644349	0.257182	0.237586
O15	O	-3.311015	0.590515	0.570920
V16	V	-4.459665	-0.069922	-0.168762
V17	V	-4.126331	0.263411	0.164572
V18	V	-3.792998	0.596745	0.497905
O19	O	-4.223516	-0.101743	-0.200587
O20	O	-3.890183	0.231590	0.132746
O21	O	-3.556850	0.564924	0.466080
O22	O	-4.658140	-0.048065	-0.146902
O23	O	-4.324806	0.285268	0.186432
O24	O	-3.991473	0.618602	0.519765
O25	O	-4.301226	0.007878	-0.169652
O26	O	-3.967892	0.341211	0.163682
O27	O	-3.634559	0.674544	0.497015
O28	O	-4.571179	-0.152903	-0.172509
O29	O	-4.237845	0.180430	0.160824
O30	O	-3.904512	0.513763	0.494157
O31	O	-4.571174	-0.073656	-0.251741
O32	O	-4.237840	0.259677	0.081592
O33	O	-3.904507	0.593010	0.414925
O34	O	-4.301231	-0.070825	-0.090964
O35	O	-3.967897	0.262509	0.242369
O36	O	-3.634564	0.595842	0.575703
C37	C	-3.748575	-0.176641	-0.175103
C38	C	-3.415242	0.156692	0.158230
C39	C	-3.081909	0.490025	0.491564
C40	C	-3.776798	-0.240246	-0.174894
C41	C	-3.443464	0.093088	0.158439
C42	C	-3.110131	0.426421	0.491773
C43	C	-3.748568	-0.076248	-0.275476
C44	C	-3.415235	0.257085	0.057857
C45	C	-3.081901	0.590419	0.391191
C46	C	-3.776784	-0.076025	-0.339078
C47	C	-3.443451	0.257308	-0.005745
C48	C	-3.110118	0.590642	0.327589
C49	C	-3.924670	-0.626269	-0.121105
C50	C	-3.591337	-0.292936	0.212229
C51	C	-3.258004	0.040397	0.545562
C52	C	-3.951214	-0.686031	-0.120900
C53	C	-3.617880	-0.352698	0.212433
C54	C	-3.284547	-0.019365	0.545767
O55	O	-3.941785	-0.709812	-0.076207
O56	O	-3.608452	-0.376479	0.257126
O57	O	-3.275119	-0.043146	0.590460
N58	N	-3.991787	-0.724303	-0.173229
N59	N	-3.658454	-0.390970	0.160104
N60	N	-3.325120	-0.057637	0.493438
C61	C	-4.005838	-0.702811	-0.225766
C62	C	-3.672504	-0.369478	0.107567
C63	C	-3.339171	-0.036144	0.440900
O64	O	-4.042788	-0.740852	-0.270258
O65	O	-3.709454	-0.407519	0.063076
O66	O	-3.376121	-0.074185	0.396409
C67	C	-3.979309	-0.643050	-0.225971
C68	C	-3.645976	-0.309717	0.107363
C69	C	-3.312642	0.023616	0.440696
C70	C	-3.938715	-0.604780	-0.173638
C71	C	-3.605382	-0.271447	0.159696
C72	C	-3.272048	0.061886	0.493029
C73	C	-3.884081	-0.588000	-0.068776
C74	C	-3.550748	-0.254667	0.264557
C75	C	-3.217414	0.078667	0.597891
C76	C	-3.857536	-0.528242	-0.068981
C77	C	-3.524203	-0.194909	0.264353
C78	C	-3.190869	0.138424	0.597686
C79	C	-3.871581	-0.506753	-0.121514
C80	C	-3.538247	-0.173420	0.211820
C81	C	-3.204914	0.159913	0.545153
C82	C	-3.912170	-0.545022	-0.173842
C83	C	-3.578837	-0.211689	0.159491
C84	C	-3.245504	0.121644	0.492824
C85	C	-3.993374	-0.621559	-0.278507
C86	C	-3.660041	-0.288226	0.054826
C87	C	-3.326708	0.045107	0.388159
C88	C	-3.966843	-0.561794	-0.278707
C89	C	-3.633510	-0.228460	0.054626
C90	C	-3.300176	0.104873	0.387960
C91	C	-3.926249	-0.523524	-0.226374
C92	C	-3.592916	-0.190190	0.106959
C93	C	-3.259582	0.143143	0.440292
C94	C	-3.899670	-0.463776	-0.226580
C95	C	-3.566337	-0.130442	0.106753
C96	C	-3.233003	0.202891	0.440087
N97	N	-3.859097	-0.425504	-0.174251
N98	N	-3.525763	-0.092170	0.159082
N99	N	-3.192430	0.241163	0.492416
C100	C	-3.845052	-0.446992	-0.121718
C101	C	-3.511719	-0.113659	0.211615
C102	C	-3.178385	0.219674	0.544949
C103	C	-4.061551	-0.828312	-0.225334
C104	C	-3.728218	-0.494979	0.107999
C105	C	-3.394885	-0.161646	0.441333
C106	C	-4.088066	-0.888072	-0.225130
C107	C	-3.754732	-0.554739	0.108203
C108	C	-3.421399	-0.221405	0.441537
C109	C	-4.033443	-0.871288	-0.120264
C110	C	-3.700110	-0.537955	0.213070
C111	C	-3.366776	-0.204621	0.546403
C112	C	-4.006914	-0.811527	-0.120468
C113	C	-3.673581	-0.478194	0.212866
C114	C	-3.340248	-0.144861	0.546199
C115	C	-4.020978	-0.790040	-0.173005
C116	C	-3.687645	-0.456707	0.160329
C117	C	-3.354311	-0.123374	0.493662
C118	C	-3.789306	-0.321497	-0.122152
C119	C	-3.455973	0.011836	0.211182
C120	C	-3.122639	0.345170	0.544515
C121	C	-3.762753	-0.261734	-0.122361
C122	C	-3.429420	0.071599	0.210973
C123	C	-3.096086	0.404932	0.544306
C124	C	-3.817388	-0.278524	-0.227227
C125	C	-3.484055	0.054810	0.106106
C126	C	-3.150721	0.388143	0.439440
C127	C	-3.843929	-0.338281	-0.227018
C128	C	-3.510595	-0.004948	0.106315
C129	C	-3.177262	0.328386	0.439649
C130	C	-3.829891	-0.359765	-0.174476
C131	C	-3.496558	-0.026432	0.158858
C132	C	-3.163225	0.306901	0.492191
O133	O	-3.909078	-0.439953	-0.271251
O134	O	-3.575745	-0.106620	0.062083
O135	O	-3.242411	0.226714	0.395416
O136	O	-3.808129	-0.408946	-0.077235
O137	O	-3.474796	-0.075613	0.256099
O138	O	-3.141462	0.257721	0.589432
C139	C	-3.979301	-0.127140	-0.741885
C140	C	-3.645968	0.206193	-0.408552
C141	C	-3.312635	0.539527	-0.075219
C142	C	-4.005846	-0.126939	-0.801648
C143	C	-3.672513	0.206394	-0.468315
C144	C	-3.339180	0.539727	-0.134981
O145	O	-4.042870	-0.171425	-0.839697
O146	O	-3.709537	0.161908	-0.506363
O147	O	-3.376204	0.495242	-0.173030
N148	N	-3.991799	-0.074407	-0.823143
N149	N	-3.658465	0.258926	-0.489810
N150	N	-3.325132	0.592259	-0.156476
C151	C	-3.951223	-0.022073	-0.784872
C152	C	-3.617890	0.311261	-0.451539
C153	C	-3.284557	0.644594	-0.118206
O154	O	-3.941714	0.022628	-0.808643
O155	O	-3.608381	0.355962	-0.475310
O156	O	-3.275047	0.689295	-0.141977
C157	C	-3.924693	-0.022274	-0.725111
C158	C	-3.591360	0.311059	-0.391778
C159	C	-3.258026	0.644392	-0.058444
C160	C	-3.938724	-0.074810	-0.703619
C161	C	-3.605390	0.258524	-0.370286
C162	C	-3.272057	0.591857	-0.036953
C163	C	-3.993332	-0.179671	-0.720393
C164	C	-3.659998	0.153662	-0.387059
C165	C	-3.326665	0.486996	-0.053726
C166	C	-3.966785	-0.179871	-0.660634
C167	C	-3.633451	0.153462	-0.327301
C168	C	-3.300118	0.486795	0.006032
C169	C	-3.926207	-0.127541	-0.622368
C170	C	-3.592874	0.205792	-0.289035
C171	C	-3.259540	0.539126	0.044299
C172	C	-3.912177	-0.075010	-0.643861
C173	C	-3.578843	0.258323	-0.310527
C174	C	-3.245510	0.591657	0.022806
C175	C	-3.884133	0.030059	-0.686842
C176	C	-3.550799	0.363392	-0.353508
C177	C	-3.217466	0.696726	-0.020175
C178	C	-3.857605	0.029853	-0.627077
C179	C	-3.524271	0.363186	-0.293744
C180	C	-3.190938	0.696520	0.039589
C181	C	-3.871635	-0.022682	-0.605585
C182	C	-3.538302	0.310651	-0.272252
C183	C	-3.204968	0.643984	0.061081
C184	C	-3.845052	-0.022880	-0.545836
C185	C	-3.511718	0.310453	-0.212503
C186	C	-3.178385	0.643787	0.120831
N187	N	-3.859099	-0.075412	-0.524341
N188	N	-3.525766	0.257921	-0.191008
N189	N	-3.192433	0.591254	0.142326
C190	C	-3.899677	-0.127743	-0.562607
C191	C	-3.566344	0.205591	-0.229274
C192	C	-3.233010	0.538924	0.104060
C193	C	-4.006944	-0.021654	-0.910376
C194	C	-3.673610	0.311680	-0.577042
C195	C	-3.340277	0.645013	-0.243709
C196	C	-4.033459	-0.021451	-0.970135
C197	C	-3.700125	0.311882	-0.636802
C198	C	-3.366792	0.645216	-0.303469
C199	C	-4.088084	-0.126318	-0.986907
C200	C	-3.754751	0.207016	-0.653574
C201	C	-3.421417	0.540349	-0.320240
C202	C	-4.061554	-0.126519	-0.927146
C203	C	-3.728221	0.206814	-0.593812
C204	C	-3.394887	0.540147	-0.260479
C205	C	-4.020991	-0.074186	-0.888880
C206	C	-3.687658	0.259148	-0.555547
C207	C	-3.354325	0.592481	-0.222214
C208	C	-3.843922	-0.128160	-0.437109
C209	C	-3.510589	0.205174	-0.103776
C210	C	-3.177256	0.538507	0.229558
C211	C	-3.817362	-0.128355	-0.377344
C212	C	-3.484029	0.204978	-0.044011
C213	C	-3.150695	0.538311	0.289323
C214	C	-3.762750	-0.023489	-0.360578
C215	C	-3.429417	0.309844	-0.027245
C216	C	-3.096083	0.643178	0.306089
C217	C	-3.789297	-0.023293	-0.420337
C218	C	-3.455964	0.310040	-0.087004
C219	C	-3.122630	0.643374	0.246329
C220	C	-3.829892	-0.075633	-0.458602
C221	C	-3.496558	0.257700	-0.125269
C222	C	-3.163225	0.591034	0.208065
O223	O	-3.808031	0.021583	-0.507753
O224	O	-3.474698	0.354916	-0.174420
O225	O	-3.141364	0.688249	0.158914
O226	O	-3.909205	-0.172437	-0.538828
O227	O	-3.575872	0.160897	-0.205495
O228	O	-3.242539	0.494230	0.127839
C229	C	-4.123019	0.026830	-0.172384
C230	C	-3.789685	0.360164	0.160949
C231	C	-3.456352	0.693497	0.494283
C232	C	-4.074034	0.090434	-0.172597
C233	C	-3.740700	0.423767	0.160737
C234	C	-3.407367	0.757101	0.494070
C235	C	-4.123026	-0.073562	-0.072009
C236	C	-3.789693	0.259772	0.261324
C237	C	-3.456360	0.593105	0.594657
C238	C	-4.074049	-0.073782	-0.008407
C239	C	-3.740716	0.259551	0.324926
C240	C	-3.407383	0.592885	0.658260
H241	H	-3.729691	-0.230576	-0.079743
H242	H	-3.396358	0.102757	0.253590
H243	H	-3.063024	0.436090	0.586924
F244	F	-3.963739	0.034052	-0.869654
F245	F	-3.630406	0.367385	-0.536321
F246	F	-3.297073	0.700718	-0.202987
F247	F	-3.832315	-0.255642	-0.283134
F248	F	-3.498982	0.077691	0.050200
F249	F	-3.165648	0.411024	0.383533
F250	F	-4.131237	-0.182012	-1.027643
F251	F	-3.797903	0.151321	-0.694309
F252	F	-3.464570	0.484654	-0.360976
H253	H	-3.978224	-0.222651	-0.643142
H254	H	-3.644891	0.110682	-0.309808
H255	H	-3.311558	0.444015	0.023525
H256	H	-3.828785	-0.171138	-0.359849
H257	H	-3.495452	0.162196	-0.026516
H258	H	-3.162118	0.495529	0.306817
F259	F	-4.036522	-0.235373	-0.761111
F260	F	-3.703188	0.097960	-0.427777
F261	F	-3.369855	0.431293	-0.094444
F262	F	-3.963716	-0.770803	-0.064769
F263	F	-3.630382	-0.437469	0.268565
F264	F	-3.297049	-0.104136	0.601898
F265	F	-3.887123	-0.183866	-0.477825
F266	F	-3.553790	0.149467	-0.144492
F267	F	-3.220457	0.482801	0.188842
H268	H	-3.872645	-0.605489	-0.025995
H269	H	-3.539312	-0.272155	0.307338
H270	H	-3.205978	0.061178	0.640672
F271	F	-4.036476	-0.662275	-0.334207
F272	F	-3.703143	-0.328942	-0.000873
F273	F	-3.369810	0.004392	0.332460
F274	F	-3.719555	0.032202	-0.319842
F275	F	-3.386221	0.365535	0.013491
F276	F	-3.052888	0.698869	0.346824
H277	H	-4.072980	-0.169298	-0.909652
H278	H	-3.739647	0.164035	-0.576318
H279	H	-3.406314	0.497368	-0.242985
H280	H	-4.022004	0.021329	-0.987628
H281	H	-3.688670	0.354662	-0.654294
H282	H	-3.355337	0.687995	-0.320961
H283	H	-3.872687	0.072839	-0.704329
H284	H	-3.539354	0.406173	-0.370996
H285	H	-3.206021	0.739506	-0.037662
F286	F	-3.774340	0.032621	-0.443211
F287	F	-3.441006	0.365954	-0.109878
F288	F	-3.107673	0.699287	0.223456
F289	F	-3.981823	-0.538930	-0.334626
F290	F	-3.648489	-0.205597	-0.001293
F291	F	-3.315156	0.127737	0.332041
F292	F	-3.887205	-0.379013	-0.282717
F293	F	-3.553871	-0.045680	0.050616
F294	F	-3.220538	0.287654	0.383949
H295	H	-3.777872	-0.338982	-0.079367
H296	H	-3.444539	-0.005649	0.253967
H297	H	-3.111205	0.327685	0.587300
H298	H	-3.824580	0.072471	-0.595924
H299	H	-3.491247	0.405804	-0.262590
H300	H	-3.157914	0.739137	0.070743
H301	H	-4.022010	-0.888795	-0.077488
H302	H	-3.688676	-0.555461	0.255845
H303	H	-3.355343	-0.222128	0.589179
F304	F	-3.814349	-0.487520	-0.013281
F305	F	-3.481015	-0.154186	0.320053
F306	F	-3.147682	0.179147	0.653386
H307	H	-4.121086	-0.919226	-0.267744
H308	H	-3.787753	-0.585893	0.065589
H309	H	-3.454419	-0.252560	0.398922
H310	H	-4.072999	-0.810823	-0.268118
H311	H	-3.739665	-0.477489	0.065215
H312	H	-3.406332	-0.144156	0.398548
