data_functionalizedCrystal
_audit_creation_method	'MofGen! by Chris Wilmer'
_symmetry_space_group_name_H-M	'P1'
_symmetry_Int_Tables_number	1
_symmetry_cell_setting	triclinic
loop_
_symmetry_equiv_pos_as_xyz
  x,y,z
_cell_length_a	16.625548
_cell_length_b	29.839132
_cell_length_c	16.625539
_cell_angle_alpha	90.034308
_cell_angle_beta	90.022345
_cell_angle_gamma	90.045122
loop_
_atom_site_label
_atom_site_type_symbol
_atom_site_fract_x
_atom_site_fract_y
_atom_site_fract_z
Zn1	Zn	-1.232553	0.178854	-0.455914
Zn2	Zn	-0.732553	0.678854	0.044086
Zn3	Zn	-1.232402	0.253985	-0.321067
Zn4	Zn	-0.732402	0.753985	0.178933
Zn5	Zn	-1.097715	0.178870	-0.321090
Zn6	Zn	-0.597715	0.678870	0.178910
Zn7	Zn	-1.097631	0.253958	-0.455853
Zn8	Zn	-0.597631	0.753958	0.044147
O9	O	-1.165075	0.216417	-0.388481
O10	O	-0.665075	0.716417	0.111519
O11	O	-1.345365	0.188825	-0.438042
O12	O	-0.845365	0.688825	0.061958
O13	O	-1.214508	0.244039	-0.208238
O14	O	-0.714508	0.744039	0.291762
O15	O	-1.115699	0.116001	-0.339010
O16	O	-0.615699	0.616001	0.160990
O17	O	-1.345255	0.244024	-0.338971
O18	O	-0.845255	0.744024	0.161029
O19	O	-1.214764	0.115989	-0.438065
O20	O	-0.714764	0.615989	0.061935
O21	O	-1.115553	0.188852	-0.208255
O22	O	-0.615553	0.688852	0.291745
O23	O	-0.984871	0.188825	-0.338951
O24	O	-0.484871	0.688825	0.161049
O25	O	-1.115557	0.243977	-0.568693
O26	O	-0.615557	0.743977	-0.068693
O27	O	-0.984810	0.243992	-0.437960
O28	O	-0.484810	0.743992	0.062040
O29	O	-1.214683	0.188799	-0.568738
O30	O	-0.714683	0.688799	-0.068738
O31	O	-1.214427	0.316849	-0.338911
O32	O	-0.714427	0.816849	0.161089
O33	O	-1.115411	0.316829	-0.437938
O34	O	-0.615411	0.816829	0.062062
C35	C	-0.955584	0.216408	-0.388452
C36	C	-0.455584	0.716408	0.111548
C37	C	-0.865963	0.216415	-0.388459
C38	C	-0.365963	0.716415	0.111541
C39	C	-0.537788	0.216414	-0.388483
C40	C	-0.037788	0.716414	0.111517
C41	C	-0.629096	0.216413	-0.388474
C42	C	-0.129096	0.716413	0.111526
C43	C	-0.701873	0.216415	-0.388470
C44	C	-0.201873	0.716415	0.111530
C45	C	-0.793187	0.216413	-0.388462
C46	C	-0.293187	0.716413	0.111538
C47	C	-1.164916	0.333139	-0.388433
C48	C	-0.664916	0.833139	0.111567
C49	C	-1.164921	0.383074	-0.388439
C50	C	-0.664921	0.883074	0.111561
C51	C	-0.375384	0.216423	-0.388503
C52	C	0.124616	0.716423	0.111497
C53	C	-0.465005	0.216418	-0.388492
C54	C	0.034995	0.716418	0.111508
C55	C	-1.216669	0.692715	-0.336960
C56	C	-0.716669	1.192715	0.163040
C57	C	-1.216746	0.880388	-0.336978
C58	C	-0.716746	1.380388	0.163022
O59	O	-1.260657	0.904651	-0.293195
O60	O	-0.760657	1.404651	0.206805
N61	N	-1.165160	0.903859	-0.388494
N62	N	-0.665160	1.403859	0.111506
C63	C	-1.113554	0.880408	-0.440012
C64	C	-0.613554	1.380408	0.059988
O65	O	-1.069684	0.904678	-0.483836
O66	O	-0.569684	1.404678	0.016164
C67	C	-1.113482	0.692736	-0.439998
C68	C	-0.613482	1.192736	0.060002
C69	C	-1.165066	0.669268	-0.388473
C70	C	-0.665066	1.169268	0.111527
C71	C	-1.268249	0.669247	-0.285440
C72	C	-0.768249	1.169247	0.214560
C73	C	-1.268227	0.622331	-0.285433
C74	C	-0.768227	1.122331	0.214567
C75	C	-1.216623	0.598884	-0.336946
C76	C	-0.716623	1.098884	0.163054
C77	C	-1.165043	0.622352	-0.388466
C78	C	-0.665043	1.122352	0.111534
C79	C	-1.061881	0.669287	-0.491520
C80	C	-0.561881	1.169287	0.008480
C81	C	-1.061869	0.622366	-0.491513
C82	C	-0.561869	1.122366	0.008487
C83	C	-1.113453	0.598897	-0.439988
C84	C	-0.613453	1.098897	0.060012
C85	C	-1.113417	0.551990	-0.439971
C86	C	-0.613417	1.051990	0.060029
N87	N	-1.165003	0.528519	-0.388456
N88	N	-0.665003	1.028519	0.111544
C89	C	-1.216606	0.551966	-0.336943
C90	C	-0.716606	1.051966	0.163057
C91	C	-1.113595	0.978939	-0.440015
C92	C	-0.613595	1.478939	0.059985
C93	C	-1.113611	1.025857	-0.440018
C94	C	-0.613611	1.525857	0.059982
C95	C	-1.216805	1.025833	-0.336985
C96	C	-0.716805	1.525833	0.163015
C97	C	-1.216783	0.978914	-0.336979
C98	C	-0.716783	1.478914	0.163021
C99	C	-1.165181	0.955468	-0.388500
C100	C	-0.665181	1.455468	0.111500
C101	C	-1.216554	0.453440	-0.336931
C102	C	-0.716554	0.953440	0.163069
C103	C	-1.216524	0.406521	-0.336926
C104	C	-0.716524	0.906521	0.163074
C105	C	-1.113334	0.406549	-0.439962
C106	C	-0.613334	0.906549	0.060038
C107	C	-1.113361	0.453464	-0.439965
C108	C	-0.613361	0.953464	0.060035
C109	C	-1.164977	0.476909	-0.388446
C110	C	-0.664977	0.976909	0.111554
O111	O	-1.069535	0.527698	-0.483738
O112	O	-0.569535	1.027698	0.016262
O113	O	-1.260482	0.527688	-0.293139
O114	O	-0.760482	1.027688	0.206861
C115	C	-1.216692	0.739630	-0.336967
C116	C	-0.716692	1.239630	0.163033
C117	C	-1.165112	0.763099	-0.388487
C118	C	-0.665112	1.263099	0.111513
C119	C	-1.113508	0.739652	-0.440000
C120	C	-0.613508	1.239652	0.060000
C121	C	-1.165128	0.810017	-0.388490
C122	C	-0.665128	1.310017	0.111510
C123	C	-1.216732	0.833464	-0.336977
C124	C	-0.716732	1.333464	0.163023
C125	C	-1.268318	0.809993	-0.285462
C126	C	-0.768318	1.309993	0.214538
C127	C	-1.268295	0.763077	-0.285455
C128	C	-0.768295	1.263077	0.214545
C129	C	-1.061922	0.763123	-0.491516
C130	C	-0.561922	1.263123	0.008484
C131	C	-1.061948	0.810038	-0.491518
C132	C	-0.561948	1.310038	0.008482
C133	C	-1.113552	0.833485	-0.440005
C134	C	-0.613552	1.333485	0.059995
C135	C	-1.165128	0.216383	-0.598790
C136	C	-0.665128	0.716383	-0.098790
C137	C	-1.165150	0.216369	-0.688411
C138	C	-0.665150	0.716369	-0.188411
C139	C	-1.165227	1.099238	-0.388529
C140	C	-0.665227	1.599238	0.111471
C141	C	-1.165215	1.049304	-0.388506
C142	C	-0.665215	1.549304	0.111494
C143	C	-1.165187	0.216319	-1.016587
C144	C	-0.665187	0.716319	-0.516587
C145	C	-1.165175	0.216334	-0.925278
C146	C	-0.665175	0.716334	-0.425278
C147	C	-1.165169	0.216344	-0.852502
C148	C	-0.665169	0.716344	-0.352502
C149	C	-1.165156	0.216359	-0.761188
C150	C	-0.665156	0.716359	-0.261188
C151	C	-1.165069	0.216418	-0.178990
C152	C	-0.665069	0.716418	0.321010
C153	C	-1.165203	0.216305	-0.089369
C154	C	-0.665203	0.716305	0.410631
H155	H	-1.258530	0.387414	-0.294966
H156	H	-0.758530	0.887414	0.205034
F157	F	-1.323236	0.834955	-0.230636
F158	F	-0.823236	1.334955	0.269364
H159	H	-1.071572	0.959852	-0.481971
H160	H	-0.571572	1.459852	0.018029
H161	H	-1.310233	0.603226	-0.243480
H162	H	-0.810233	1.103226	0.256520
H163	H	-1.310275	0.688332	-0.243492
H164	H	-0.810275	1.188332	0.256508
H165	H	-1.258788	0.959809	-0.295023
H166	H	-0.758788	1.459809	0.204977
F167	F	-1.058700	1.050829	-0.494849
F168	F	-0.558700	1.550829	0.005151
F169	F	-1.271723	1.050795	-0.282159
F170	F	-0.771723	1.550795	0.217841
H171	H	-1.019872	0.688387	-0.533473
H172	H	-0.519872	1.188387	-0.033473
H173	H	-1.019849	0.603278	-0.533470
H174	H	-0.519849	1.103278	-0.033470
H175	H	-1.071360	0.472573	-0.481923
H176	H	-0.571360	0.972573	0.018077
F177	F	-1.058420	0.381586	-0.494785
F178	F	-0.558420	0.881586	0.005215
F179	F	-1.323201	0.738106	-0.230617
F180	F	-0.823201	1.238106	0.269383
H181	H	-1.019935	0.829142	-0.533475
H182	H	-0.519935	1.329142	-0.033475
H183	H	-1.019901	0.744036	-0.533465
H184	H	-0.519901	1.244036	-0.033465
H185	H	-1.258587	0.472524	-0.294982
H186	H	-0.758587	0.972524	0.205018
