data_functionalizedCrystal
_audit_creation_method	'MofGen! by Chris Wilmer'
_symmetry_space_group_name_H-M	'P1'
_symmetry_Int_Tables_number	1
_symmetry_cell_setting	triclinic
loop_
_symmetry_equiv_pos_as_xyz
  x,y,z
_cell_length_a	17.000371
_cell_length_b	10.654550
_cell_length_c	9.130313
_cell_angle_alpha	90.000110
_cell_angle_beta	89.999497
_cell_angle_gamma	99.957925
loop_
_atom_site_label
_atom_site_type_symbol
_atom_site_fract_x
_atom_site_fract_y
_atom_site_fract_z
O1	O	1.056348	-0.045219	-0.121804
O2	O	0.824866	-0.090770	-0.121805
O3	O	0.945929	0.115405	-0.121799
O4	O	0.935285	-0.251395	-0.121810
O5	O	0.945928	0.115400	0.121800
O6	O	0.824865	-0.090775	0.121794
O7	O	1.056346	-0.045225	0.121794
Cu8	Cu	0.940605	-0.068000	0.144037
Cu9	Cu	0.940607	-0.067994	-0.144047
O10	O	0.935283	-0.251400	0.121789
C11	C	0.795225	-0.093219	-0.000006
C12	C	0.706907	-0.100495	-0.000006
C13	C	0.674263	0.011463	0.000000
C14	C	0.591278	0.004619	-0.000011
C15	C	0.540938	-0.114183	-0.000017
C16	C	0.573587	-0.226148	-0.000027
C17	C	0.656571	-0.219303	-0.000027
C18	C	0.289938	-0.140621	-0.000028
C19	C	0.206949	-0.147457	-0.000023
C20	C	0.224646	0.083311	-0.000010
C21	C	0.307631	0.090145	-0.000001
C22	C	0.340272	-0.021820	-0.000019
C23	C	0.456114	-0.121180	-0.000023
C24	C	0.425095	-0.014821	-0.000023
C25	C	0.945147	0.162104	-0.000002
C26	C	0.942809	0.301257	-0.000007
C27	C	1.085987	-0.042775	-0.000008
C28	C	1.174306	-0.035500	-0.000018
C29	C	0.936066	-0.298098	-0.000012
C30	C	0.938404	-0.437251	-0.000017
N31	N	0.940610	-0.068003	0.346659
C32	C	1.014088	0.389594	-0.000002
C33	C	1.011887	0.520341	-0.000012
C34	C	0.867119	0.474401	-0.000026
C35	C	0.869321	0.343656	-0.000026
C36	C	1.087576	0.347194	0.000017
C37	C	1.158861	0.435533	0.000023
C38	C	1.156660	0.566281	0.000013
C39	C	1.083172	0.608689	-0.000003
N40	N	0.940609	-0.067981	-0.346670
C41	C	0.994231	0.023264	0.423314
C42	C	0.994228	0.023279	0.576651
C43	C	0.886983	-0.159252	0.576665
C44	C	0.886982	-0.159261	0.423331
C45	C	1.047859	0.114521	0.346642
C46	C	1.101484	0.205795	0.423297
C47	C	1.101482	0.205809	0.576634
C48	C	1.047855	0.114550	0.653316
H49	H	0.316504	-0.231791	-0.000052
H50	H	0.348613	0.186886	0.000011
H51	H	0.843318	-0.233578	0.360918
H52	H	0.811279	0.271729	-0.000028
Br53	Br	0.505269	-0.387381	-0.000056
H54	H	1.145142	0.280101	0.360854
H55	H	0.415117	-0.217909	-0.000027
Br56	Br	0.546980	0.156568	-0.000054
Br57	Br	0.700873	-0.371251	-0.000048
H58	H	1.047852	0.114578	0.778173
H59	H	1.145141	0.280135	0.639044
Br60	Br	0.180343	0.235255	0.000010
H61	H	1.047867	0.114515	0.221788
Br62	Br	0.814208	-0.283098	0.680731
Br63	Br	1.090568	0.169753	0.000041
H64	H	0.715246	0.108204	0.000011
H65	H	0.466086	0.081906	-0.000026
Br66	Br	0.138629	-0.308699	-0.000011
H67	H	1.218692	0.400995	0.000000
Br68	Br	1.080185	0.786134	0.000051
Br69	Br	1.253402	0.686166	0.000000
Br70	Br	0.767392	0.531956	-0.000048
