data_functionalizedCrystal
_audit_creation_method	'MofGen! by Chris Wilmer'
_symmetry_space_group_name_H-M	'P1'
_symmetry_Int_Tables_number	1
_symmetry_cell_setting	triclinic
loop_
_symmetry_equiv_pos_as_xyz
  x,y,z
_cell_length_a	14.044191
_cell_length_b	13.101039
_cell_length_c	10.654551
_cell_angle_alpha	86.603408
_cell_angle_beta	88.838603
_cell_angle_gamma	93.662449
loop_
_atom_site_label
_atom_site_type_symbol
_atom_site_fract_x
_atom_site_fract_y
_atom_site_fract_z
O1	O	1.264871	0.085157	0.296681
O2	O	0.988830	0.085170	0.285737
O3	O	1.133196	0.085161	0.109108
O4	O	1.120504	0.085166	0.473310
O5	O	1.122838	-0.085268	0.121804
O6	O	0.978472	-0.085259	0.298433
O7	O	1.254513	-0.085272	0.309377
Zn8	Zn	1.114848	-0.112325	0.305921
Zn9	Zn	1.128495	0.112223	0.289193
O10	O	1.110146	-0.085263	0.486006
C11	C	0.948305	-0.000042	0.287298
C12	C	0.842986	-0.000037	0.273019
N13	N	1.105541	-0.265573	0.317337
C14	C	0.593193	-0.000046	0.348185
C15	C	0.650156	-0.000046	0.246934
C16	C	0.757456	-0.000041	0.261451
C17	C	0.485883	-0.000051	0.333670
C18	C	1.092879	-0.474614	0.332880
C19	C	1.150468	-0.525494	0.262229
C20	C	1.143423	-0.641812	0.270877
C21	C	1.099923	-0.358286	0.324233
C22	C	1.295038	-0.000057	0.307816
C23	C	1.400358	-0.000055	0.322095
C24	C	1.127085	-0.000052	0.068564
C25	C	1.124297	-0.000047	-0.071160
N26	N	1.137809	0.265471	0.277768
C27	C	1.128634	0.092855	-0.143716
C28	C	1.126006	0.092856	-0.275000
C29	C	1.114706	-0.092955	-0.261161
C30	C	1.117328	-0.092955	-0.129878
C31	C	1.116258	-0.000048	0.526550
C32	C	1.119047	-0.000046	0.666273
H33	H	0.618343	0.000025	0.149343
H34	H	1.205064	-0.481695	0.195248
H35	H	0.625009	-0.000042	0.445762
H36	H	1.038288	-0.518408	0.399858
C37	C	1.136289	0.195051	-0.079122
C38	C	1.222809	0.271694	-0.107932
C39	C	1.230461	0.373892	-0.043342
C40	C	1.151594	0.399448	0.050058
C41	C	1.065068	0.322803	0.078872
C42	C	1.057416	0.220604	0.014283
H43	H	1.281197	0.252778	-0.177076
H44	H	1.294514	0.430630	-0.064673
H45	H	1.157259	0.475101	0.097871
H46	H	1.006681	0.341719	0.148017
H47	H	0.993363	0.163867	0.035613
H48	H	1.129535	0.168506	-0.334070
C49	C	1.107034	-0.195155	-0.325743
C50	C	1.184945	-0.271822	-0.307022
C51	C	1.177267	-0.374028	-0.371594
C52	C	1.091680	-0.399567	-0.454887
C53	C	1.013763	-0.322899	-0.473612
C54	C	1.021440	-0.220693	-0.409040
H55	H	1.248307	-0.252918	-0.245360
H56	H	1.234947	-0.430782	-0.357732
H57	H	1.085997	-0.475226	-0.502687
H58	H	0.950401	-0.341803	-0.535274
H59	H	0.963761	-0.163938	-0.422901
H60	H	1.113790	-0.168611	-0.070800
