data_functionalizedCrystal
_audit_creation_method	'MofGen! by Chris Wilmer'
_symmetry_space_group_name_H-M	'P1'
_symmetry_Int_Tables_number	1
_symmetry_cell_setting	triclinic
loop_
_symmetry_equiv_pos_as_xyz
  x,y,z
_cell_length_a	14.519731
_cell_length_b	14.519731
_cell_length_c	9.798715
_cell_angle_alpha	89.995867
_cell_angle_beta	89.996220
_cell_angle_gamma	83.688853
loop_
_atom_site_label
_atom_site_type_symbol
_atom_site_fract_x
_atom_site_fract_y
_atom_site_fract_z
O1	O	1.223864	0.120982	-0.113497
O2	O	1.473864	0.370982	0.136503
O3	O	1.723864	0.620982	0.386503
O4	O	1.973864	0.870982	0.636503
O5	O	0.955391	0.135197	-0.113500
O6	O	1.205391	0.385197	0.136500
O7	O	1.455391	0.635197	0.386500
O8	O	1.705391	0.885197	0.636500
O9	O	1.096735	-0.006147	-0.113486
O10	O	1.346735	0.243853	0.136514
O11	O	1.596735	0.493853	0.386514
O12	O	1.846735	0.743853	0.636514
O13	O	1.082519	0.262326	-0.113511
O14	O	1.332519	0.512326	0.136489
O15	O	1.582519	0.762326	0.386489
O16	O	1.832519	1.012326	0.636489
O17	O	1.096725	-0.006147	0.113496
O18	O	1.346725	0.243853	0.363496
O19	O	1.596725	0.493853	0.613496
O20	O	1.846725	0.743853	0.863496
O21	O	0.955380	0.135197	0.113483
O22	O	1.205380	0.385197	0.363483
O23	O	1.455380	0.635197	0.613483
O24	O	1.705380	0.885197	0.863483
O25	O	1.223853	0.120981	0.113485
O26	O	1.473853	0.370981	0.363485
O27	O	1.723853	0.620981	0.613485
O28	O	1.973853	0.870981	0.863485
Zn29	Zn	1.089615	0.128089	0.149522
Zn30	Zn	1.339615	0.378089	0.399522
Zn31	Zn	1.589615	0.628089	0.649522
Zn32	Zn	1.839615	0.878089	0.899522
Zn33	Zn	1.089629	0.128090	-0.149537
Zn34	Zn	1.339629	0.378090	0.100463
Zn35	Zn	1.589629	0.628090	0.350463
Zn36	Zn	1.839629	0.878090	0.600463
O37	O	1.082509	0.262326	0.113471
O38	O	1.332509	0.512326	0.363471
O39	O	1.582509	0.762326	0.613471
O40	O	1.832509	1.012326	0.863471
C41	C	0.921026	0.134531	-0.000009
C42	C	1.171026	0.384531	0.249991
C43	C	1.421026	0.634531	0.499991
C44	C	1.671026	0.884531	0.749991
C45	C	0.818645	0.132535	-0.000009
C46	C	1.068645	0.382535	0.249991
C47	C	1.318645	0.632535	0.499991
C48	C	1.568645	0.882535	0.749991
C49	C	1.096064	-0.040507	0.000006
C50	C	1.346064	0.209493	0.250006
C51	C	1.596064	0.459493	0.500006
C52	C	1.846064	0.709493	0.750006
C53	C	1.094068	-0.142887	0.000006
C54	C	1.344068	0.107113	0.250006
C55	C	1.594068	0.357113	0.500006
C56	C	1.844068	0.607113	0.750006
C57	C	0.735501	0.130913	-0.000015
C58	C	0.985501	0.380913	0.249985
C59	C	1.235501	0.630913	0.499985
C60	C	1.485501	0.880913	0.749985
C61	C	0.631192	0.128887	-0.000015
C62	C	0.881192	0.378887	0.249985
C63	C	1.131192	0.628887	0.499985
C64	C	1.381192	0.878887	0.749985
C65	C	0.548053	0.127278	-0.000015
C66	C	0.798053	0.377278	0.249985
C67	C	1.048053	0.627278	0.499985
C68	C	1.298053	0.877278	0.749985
C69	C	0.443738	0.125252	-0.000017
C70	C	0.693738	0.375252	0.249983
C71	C	0.943738	0.625252	0.499983
C72	C	1.193738	0.875252	0.749983
C73	C	1.092446	-0.226031	0.000003
C74	C	1.342446	0.023969	0.250003
C75	C	1.592446	0.273969	0.500003
C76	C	1.842446	0.523969	0.750003
C77	C	1.090419	-0.330340	-0.000007
C78	C	1.340419	-0.080340	0.249993
C79	C	1.590419	0.169660	0.499993
C80	C	1.840419	0.419660	0.749993
C81	C	1.088811	-0.413479	-0.000016
C82	C	1.338811	-0.163479	0.249984
C83	C	1.588811	0.086521	0.499984
C84	C	1.838811	0.336521	0.749984
C85	C	1.086785	-0.517795	-0.000024
C86	C	1.336785	-0.267795	0.249976
C87	C	1.586785	-0.017795	0.499976
C88	C	1.836785	0.232205	0.749976
C89	C	1.258218	0.121648	-0.000009
C90	C	1.508218	0.371648	0.249991
C91	C	1.758218	0.621648	0.499991
C92	C	2.008218	0.871648	0.749991
C93	C	1.360598	0.123643	-0.000017
C94	C	1.610598	0.373643	0.249983
C95	C	1.860598	0.623643	0.499983
C96	C	2.110598	0.873643	0.749983
C97	C	1.083180	0.296685	-0.000023
C98	C	1.333180	0.546685	0.249977
C99	C	1.583180	0.796685	0.499977
C100	C	1.833180	1.046685	0.749977
C101	C	1.085176	0.399066	-0.000033
C102	C	1.335176	0.649066	0.249967
C103	C	1.585176	0.899066	0.499967
C104	C	1.835176	1.149066	0.749967
N105	N	1.089612	0.128088	0.353622
N106	N	1.339612	0.378088	0.603622
N107	N	1.589612	0.628088	0.853622
N108	N	1.839612	0.878088	1.103622
N109	N	1.089639	0.128083	-0.353636
N110	N	1.339639	0.378083	-0.103636
N111	N	1.589639	0.628083	0.146364
N112	N	1.839639	0.878083	0.396364
C113	C	1.148961	0.068482	0.421405
C114	C	1.398961	0.318482	0.671405
C115	C	1.648961	0.568482	0.921405
C116	C	1.898961	0.818482	1.171405
C117	C	1.148976	0.068479	0.578567
C118	C	1.398976	0.318479	0.828567
C119	C	1.648976	0.568479	1.078567
C120	C	1.898976	0.818479	1.328567
H121	H	1.199758	0.017449	0.363087
H122	H	1.449758	0.267449	0.613087
H123	H	1.699758	0.517449	0.863087
H124	H	1.949758	0.767449	1.113087
H125	H	1.199790	0.017450	0.636857
H126	H	1.449790	0.267450	0.886857
H127	H	1.699790	0.517450	1.136857
H128	H	1.949790	0.767450	1.386857
H129	H	1.038809	0.179114	0.411941
H130	H	1.288809	0.429114	0.661941
H131	H	1.538809	0.679114	0.911941
H132	H	1.788809	0.929114	1.161941
H133	H	1.038829	0.179121	0.588082
H134	H	1.288829	0.429121	0.838082
H135	H	1.538829	0.679121	1.088082
H136	H	1.788829	0.929121	1.338082
