data_functionalizedCrystal
_audit_creation_method	'MofGen! by Chris Wilmer'
_symmetry_space_group_name_H-M	'P1'
_symmetry_Int_Tables_number	1
_symmetry_cell_setting	triclinic
loop_
_symmetry_equiv_pos_as_xyz
  x,y,z
_cell_length_a	19.077105
_cell_length_b	12.759400
_cell_length_c	19.076919
_cell_angle_alpha	87.725144
_cell_angle_beta	89.923776
_cell_angle_gamma	87.711168
loop_
_atom_site_label
_atom_site_type_symbol
_atom_site_fract_x
_atom_site_fract_y
_atom_site_fract_z
Zn1	Zn	1.058328	-0.508276	0.440436
Zn2	Zn	1.062987	-0.677203	0.322935
Zn3	Zn	0.945544	-0.494202	0.318229
Zn4	Zn	0.940808	-0.676569	0.435688
O5	O	1.001917	-0.589062	0.379322
O6	O	1.157278	-0.536840	0.428806
O7	O	1.051339	-0.647302	0.223980
O8	O	0.960537	-0.349051	0.334457
O9	O	1.160701	-0.660950	0.342479
O10	O	1.043399	-0.359391	0.424243
O11	O	0.965055	-0.512852	0.220522
O12	O	0.846583	-0.512238	0.329853
O13	O	0.952466	-0.659870	0.534649
O14	O	0.843104	-0.646223	0.416150
O15	O	1.038807	-0.536225	0.538138
O16	O	1.046747	-0.824137	0.337875
O17	O	0.956983	-0.823671	0.420714
C18	C	0.819347	-0.577635	0.371976
C19	C	0.741242	-0.572772	0.368850
C20	C	0.702758	-0.640344	0.412241
C21	C	0.629371	-0.635761	0.409307
C22	C	0.594468	-0.563612	0.362979
C23	C	0.632957	-0.496033	0.319586
C24	C	0.706344	-0.500611	0.322524
C25	C	0.375179	-0.542424	0.349385
C26	C	0.301787	-0.537853	0.346449
C27	C	0.298205	-0.677581	0.436172
C28	C	0.371593	-0.682157	0.439102
C29	C	0.410076	-0.614574	0.395712
N30	N	0.519454	-0.558928	0.359977
N31	N	0.485088	-0.619253	0.398718
C32	C	1.001876	-0.862026	0.379306
C33	C	1.001921	-0.978807	0.379325
C34	C	1.048709	-1.033882	0.336242
C35	C	1.048751	-1.143610	0.336266
C36	C	0.955212	-1.143177	0.422456
C37	C	0.955173	-1.033452	0.422436
C38	C	1.095457	-0.979237	0.293132
C39	C	1.142248	-1.034313	0.250045
C40	C	1.142290	-1.144041	0.250068
C41	C	1.095542	-1.198693	0.293178
C42	C	1.185199	-0.600535	0.386697
C43	C	1.263303	-0.605424	0.389840
C44	C	0.994588	-0.599547	0.562603
C45	C	0.991465	-0.604015	0.640706
C46	C	1.001976	-0.315035	0.379355
C47	C	1.002002	-0.198260	0.379368
C48	C	1.009257	-0.578545	0.196756
C49	C	1.012516	-0.573790	0.118659
C50	C	1.034949	-0.541742	0.679216
C51	C	1.032006	-0.545935	0.752602
C52	C	0.985583	-0.612408	0.787477
C53	C	0.942094	-0.674683	0.748961
C54	C	0.945034	-0.670484	0.675576
C55	C	0.971967	-0.631866	1.006758
C56	C	0.969032	-0.636063	1.080148
C57	C	1.058943	-0.507313	1.083785
C58	C	1.061882	-0.503124	1.010398
C59	C	1.018391	-0.565395	0.971889
N60	N	0.982575	-0.616698	0.862489
N61	N	1.021396	-0.561099	0.896878
H62	H	0.400006	-0.740911	0.476826
H63	H	1.180314	-0.989810	0.214950
H64	H	0.731171	-0.699099	0.449965
O65	O	0.260894	-0.743172	0.478425
C66	C	0.276032	-0.725472	0.549202
H67	H	0.329263	-0.688502	0.552834
H68	H	0.277281	-0.803318	0.580730
H69	H	0.233795	-0.670286	0.571276
H70	H	1.099687	-0.448998	0.982009
H71	H	1.180395	-1.188881	0.214990
O72	O	1.095656	-1.305282	0.293097
C73	C	1.146994	-1.342180	0.245845
H74	H	1.158484	-1.277234	0.205180
H75	H	1.126908	-1.412785	0.218328
H76	H	1.197101	-1.366359	0.275814
O77	O	0.267991	-0.467666	0.301427
C78	C	0.317693	-0.409014	0.263747
H79	H	0.368861	-0.410348	0.294626
H80	H	0.296788	-0.324476	0.255501
H81	H	0.327619	-0.444789	0.210646
H82	H	1.072754	-0.487616	0.650827
H83	H	1.095426	-0.889891	0.293106
H84	H	0.406503	-0.487401	0.314049
H85	H	1.094350	-0.456614	1.115147
O86	O	0.909703	-1.196139	0.464288
C87	C	0.840287	-1.164181	0.446041
H88	H	0.839904	-1.082896	0.418957
H89	H	0.806710	-1.161363	0.495459
H90	H	0.818116	-1.222441	0.408955
H91	H	0.909618	-0.721182	0.644221
H92	H	0.604534	-0.437283	0.281867
H93	H	0.598040	-0.690786	0.444640
H94	H	0.737676	-0.445582	0.287194
O95	O	0.909759	-0.980063	0.464385
C96	C	0.922286	-1.011757	0.535053
H97	H	0.949258	-1.093170	0.537631
H98	H	0.870294	-1.014167	0.564486
H99	H	0.957435	-0.953563	0.560184
O100	O	0.923870	-0.700660	1.113915
C101	C	0.886126	-0.754742	1.064191
H102	H	0.885793	-0.708564	1.011787
H103	H	0.829912	-0.763693	1.083167
H104	H	0.912150	-0.835699	1.057411
H105	H	1.067417	-0.495228	0.783954
O106	O	0.896899	-0.739136	0.782799
C107	C	0.827589	-0.710781	0.762035
H108	H	0.824866	-0.625473	0.741732
H109	H	0.790938	-0.720424	0.808895
H110	H	0.810915	-0.763517	0.718689
O111	O	0.929821	-0.692415	0.969290
C112	C	0.971501	-0.760375	0.928455
H113	H	1.025201	-0.726031	0.919597
H114	H	0.944931	-0.769718	0.875703
H115	H	0.978076	-0.840329	0.957044
