data_functionalizedCrystal
_audit_creation_method	'MofGen! by Chris Wilmer'
_symmetry_space_group_name_H-M	'P1'
_symmetry_Int_Tables_number	1
_symmetry_cell_setting	triclinic
loop_
_symmetry_equiv_pos_as_xyz
  x,y,z
_cell_length_a	10.540539
_cell_length_b	12.837942
_cell_length_c	11.295483
_cell_angle_alpha	85.469583
_cell_angle_beta	85.855350
_cell_angle_gamma	90.322784
loop_
_atom_site_label
_atom_site_type_symbol
_atom_site_fract_x
_atom_site_fract_y
_atom_site_fract_z
O1	O	1.709660	-0.139298	-0.098967
O2	O	1.341761	-0.153073	-0.098982
O3	O	1.517552	0.004777	-0.098968
O4	O	1.533869	-0.297148	-0.098982
O5	O	1.502110	-0.009066	0.099082
O6	O	1.326319	-0.166916	0.099067
O7	O	1.694217	-0.153141	0.099082
Cu8	Cu	1.508858	-0.161292	0.117158
Cu9	Cu	1.527121	-0.144922	-0.117058
O10	O	1.518426	-0.310991	0.099068
C11	C	1.286624	-0.158962	0.000041
C12	C	1.145337	-0.155870	0.000035
N13	N	1.496022	-0.172806	0.281894
C14	C	1.504319	0.036517	0.000056
C15	C	1.487881	0.151716	0.000054
C16	C	0.948860	-0.037460	0.000503
C17	C	1.095859	-0.040561	0.000044
C18	C	1.098579	-0.203457	-0.113059
C19	C	0.951609	-0.199516	-0.113141
C20	C	0.933817	-0.217604	0.112078
C21	C	1.080800	-0.218769	0.113561
C22	C	1.749355	-0.147252	0.000056
C23	C	1.890643	-0.150343	0.000054
C24	C	1.531659	-0.342731	0.000041
C25	C	1.548098	-0.457929	0.000036
C26	C	1.685501	0.391213	0.000036
C27	C	1.670062	0.499453	0.000034
C28	C	1.441566	0.476440	0.000037
C29	C	1.457005	0.368199	0.000040
C30	C	1.578976	0.325590	0.000041
C31	C	1.594414	0.217347	0.000052
C32	C	1.365919	0.194336	0.000047
C33	C	1.350480	0.302577	0.000045
N34	N	1.539966	-0.133400	-0.281794
C35	C	1.632358	-0.050460	0.531194
C36	C	1.622668	-0.059168	0.655857
C37	C	1.466945	-0.198926	0.655884
C38	C	1.476636	-0.190217	0.531222
C39	C	1.559346	-0.115983	0.468881
C40	C	1.569042	-0.107280	0.344216
C41	C	1.413314	-0.247032	0.344245
C42	C	1.403623	-0.255741	0.468908
H43	H	1.127354	-0.002565	0.081116
H44	H	1.682120	-0.005812	0.706589
Br45	Br	0.908058	-0.121311	-0.254038
H46	H	1.353866	-0.300388	0.293496
Br47	Br	0.887502	-0.337133	-0.121702
Br48	Br	1.276049	0.534289	-0.000008
Br49	Br	1.291371	-0.356478	0.553521
Br50	Br	0.900679	0.047551	-0.133909
Br51	Br	0.882329	0.029020	0.135689
Br52	Br	1.814638	0.588511	0.000019
Br53	Br	0.870260	-0.356510	0.113346
Br54	Br	1.354682	-0.299653	0.740501
Br55	Br	1.744624	0.050270	0.446586
H56	H	1.139105	0.009086	-0.081163
H57	H	1.251174	0.337285	0.000039
Br58	Br	1.173436	-0.129407	-0.253342
Br59	Br	1.151926	-0.344094	-0.120112
H60	H	0.891486	-0.186278	0.197803
Br61	Br	1.130584	-0.160832	0.253012
H62	H	1.693729	0.182656	0.000058
Br63	Br	1.135675	-0.359690	0.124937
H64	H	1.784814	0.356519	0.000049
H65	H	1.636393	-0.046838	0.293459
Br66	Br	1.221338	0.105269	0.000075
