data_functionalizedCrystal
_audit_creation_method	'MofGen! by Chris Wilmer'
_symmetry_space_group_name_H-M	'P1'
_symmetry_Int_Tables_number	1
_symmetry_cell_setting	triclinic
loop_
_symmetry_equiv_pos_as_xyz
  x,y,z
_cell_length_a	12.970454
_cell_length_b	14.395555
_cell_length_c	12.970454
_cell_angle_alpha	90.001866
_cell_angle_beta	60.000265
_cell_angle_gamma	59.999555
loop_
_atom_site_label
_atom_site_type_symbol
_atom_site_fract_x
_atom_site_fract_y
_atom_site_fract_z
Zr1	Zr	1.128467	0.894917	-0.135238
O2	O	1.343564	0.746587	-0.299869
O3	O	0.913376	0.940388	-0.084770
O4	O	1.128466	0.940388	-0.299859
O5	O	1.128474	0.746588	0.084887
O6	O	1.128458	1.093262	-0.299850
O7	O	1.128474	0.746587	-0.084780
O8	O	0.743701	1.093262	0.084905
O9	O	1.513230	0.746587	-0.299868
O10	O	1.001838	1.073870	-0.063239
O11	O	1.001843	0.959782	0.063376
O12	O	1.255084	0.959782	-0.189864
O13	O	1.255089	0.845694	-0.063250
Zr14	Zr	1.128454	1.138735	0.135377
Zr15	Zr	1.128455	1.138734	-0.135223
Zr16	Zr	1.128466	0.894918	0.135362
Zr17	Zr	1.399065	0.894918	-0.135235
Zr18	Zr	0.857856	1.138734	0.135374
O19	O	1.343545	1.093264	0.084910
O20	O	1.343547	1.093263	-0.299849
O21	O	1.343563	0.746588	0.084889
O22	O	0.913356	1.287065	0.300008
O23	O	0.913358	1.287064	-0.084750
O24	O	0.913374	0.940390	0.299988
O25	O	1.128447	1.287064	-0.084748
O26	O	1.128455	1.093264	0.299999
O27	O	1.128463	0.940390	0.299990
O28	O	1.128446	1.287065	0.084919
O29	O	1.513221	0.940389	-0.299856
O30	O	0.743700	1.093263	0.299995
O31	O	0.743690	1.287065	0.300007
O32	O	0.743691	1.287064	0.084916
O33	O	1.513229	0.746588	-0.084777
O34	O	1.513220	0.940390	-0.084765
O35	O	1.001837	1.073871	0.190003
O36	O	1.001832	1.187958	0.063389
O37	O	1.255078	1.073870	-0.063236
O38	O	1.255083	0.959783	0.063378
C39	C	0.789984	1.016825	0.000067
C40	C	0.675108	1.016825	0.000066
C41	C	1.128476	0.711849	0.000052
C42	C	1.128481	0.608342	0.000046
C43	C	1.266562	0.485548	-0.068985
C44	C	1.197535	0.454712	-0.119014
C45	C	1.197502	0.454755	0.050065
C46	C	1.059454	0.578870	-0.050053
C47	C	1.059440	0.578910	0.119092
C48	C	0.990313	0.548147	0.069093
C49	C	1.466937	1.016827	0.000073
C50	C	1.581813	1.016828	0.000074
C51	C	1.128462	1.016825	-0.338410
C52	C	1.128463	1.016824	-0.453286
C53	C	1.128445	1.321803	0.000088
C54	C	1.128440	1.425310	0.000094
C55	C	1.128459	1.016827	0.338549
C56	C	1.128458	1.016828	0.453426
C57	C	0.789969	1.321802	0.000085
C58	C	0.675088	1.425308	0.000090
C59	C	0.789982	1.016826	0.338546
C60	C	0.675106	1.016826	0.453422
C61	C	0.789967	1.321804	0.338564
C62	C	0.675086	1.425310	0.453446
C63	C	1.466954	0.711849	-0.338425
C64	C	1.581835	0.608342	-0.453307
C65	C	1.466952	0.711850	0.000055
C66	C	1.581833	0.608344	0.000049
C67	C	1.466938	1.016826	-0.338407
C68	C	1.581815	1.016826	-0.453282
C69	C	0.527653	1.473917	0.093568
C70	C	0.419695	1.571162	0.093577
C71	C	0.459175	1.619802	0.000112
C72	C	0.606624	1.571184	-0.093375
C73	C	0.714579	1.473936	-0.093388
C74	C	0.527652	1.473926	0.507394
C75	C	0.419692	1.571192	0.615326
C76	C	0.459168	1.619837	0.669312
C77	C	0.606617	1.571216	0.615355
C78	C	0.714574	1.473957	0.507420
C79	C	1.729269	0.559735	-0.507264
C80	C	1.837229	0.462490	-0.615220
C81	C	1.797752	0.413849	-0.669211
C82	C	1.650303	0.462465	-0.615247
C83	C	1.542346	0.559713	-0.507299
C84	C	1.542308	0.559735	0.093531
C85	C	1.650236	0.462490	0.093552
C86	C	1.797688	0.413850	0.000085
C87	C	1.837213	0.462468	-0.093401
C88	C	1.729286	0.559716	-0.093416
H89	H	1.383322	0.460104	-0.127452
Cl90	Cl	0.899919	1.412845	0.439620
Cl91	Cl	1.287634	0.372080	-0.274417
Cl92	Cl	2.022580	0.401389	-0.683032
H93	H	1.761489	0.599283	-0.169545
Cl94	Cl	1.600515	0.401388	0.211083
H95	H	0.371248	1.699031	0.757201
Cl96	Cl	0.969456	0.661228	-0.115550
Cl97	Cl	0.323440	1.742060	0.000148
Cl98	Cl	0.809947	0.587649	0.159157
Cl99	Cl	1.933352	0.291592	0.000120
Cl100	Cl	2.022589	0.401303	-0.210898
H101	H	1.885672	0.334664	-0.757109
Cl102	Cl	0.969417	0.661538	0.274466
H103	H	1.761440	0.599322	-0.463316
H104	H	0.495480	1.434327	0.169681
H105	H	1.618180	0.422847	-0.659222
Cl106	Cl	1.287640	0.372147	0.115349
Cl107	Cl	1.357001	0.620800	-0.439472
Cl108	Cl	0.656232	1.632345	-0.210866
Cl109	Cl	0.234343	1.632265	0.211117
H110	H	0.299640	1.610760	0.659248
Cl111	Cl	0.899925	1.412837	-0.210920
Cl112	Cl	0.477986	1.412795	0.439545
Cl113	Cl	1.356948	0.620862	0.211047
Cl114	Cl	0.656221	1.632378	0.683245
