data_functionalizedCrystal
_audit_creation_method	'MofGen! by Chris Wilmer'
_symmetry_space_group_name_H-M	'P1'
_symmetry_Int_Tables_number	1
_symmetry_cell_setting	triclinic
loop_
_symmetry_equiv_pos_as_xyz
  x,y,z
_cell_length_a	13.635800
_cell_length_b	9.514072
_cell_length_c	9.100027
_cell_angle_alpha	78.964309
_cell_angle_beta	68.641558
_cell_angle_gamma	61.156579
loop_
_atom_site_label
_atom_site_type_symbol
_atom_site_fract_x
_atom_site_fract_y
_atom_site_fract_z
V1	V	-1.840287	0.153165	-0.487201
O2	O	-1.794311	-0.078225	-0.476670
O3	O	-1.858612	0.371855	-0.485077
O4	O	-1.721715	0.119715	-0.699134
O5	O	-1.932156	0.175661	-0.261131
V6	V	-2.088820	0.129162	-0.460014
O7	O	-1.956064	0.205817	-0.546837
O8	O	-2.198141	0.076510	-0.400378
O9	O	-1.958891	-0.089528	-0.462137
O10	O	-2.193494	0.360552	-0.470545
O11	O	-2.055649	0.106666	-0.686084
O12	O	-2.095789	0.162612	-0.248080
V13	V	-1.340287	0.153165	-0.487201
O14	O	-1.294311	-0.078225	-0.476670
O15	O	-1.358612	0.371855	-0.485077
O16	O	-1.221715	0.119715	-0.699134
O17	O	-1.432156	0.175661	-0.261131
V18	V	-1.588820	0.129162	-0.460014
O19	O	-1.456064	0.205817	-0.546837
O20	O	-1.698141	0.076510	-0.400378
O21	O	-1.458891	-0.089528	-0.462137
O22	O	-1.693494	0.360552	-0.470545
O23	O	-1.555649	0.106666	-0.686084
O24	O	-1.595789	0.162612	-0.248080
C25	C	-2.029294	0.177827	-0.196454
C26	C	-2.074935	0.203721	-0.023188
C27	C	-2.008060	0.222755	0.050214
C28	C	-2.050924	0.247067	0.213018
C29	C	-2.160667	0.252355	0.302416
C30	C	-2.227544	0.233314	0.229004
C31	C	-2.184676	0.208991	0.066205
C32	C	-1.794511	0.426139	-0.477703
C33	C	-1.849508	0.604721	-0.477379
C34	C	-1.619885	0.104507	-0.750752
C35	C	-1.563863	0.078605	-0.924017
C36	C	-1.854667	-0.143803	-0.469507
C37	C	-1.789285	-0.322385	-0.469841
C38	C	-1.529294	0.177827	-0.196454
C39	C	-1.574935	0.203721	-0.023188
C40	C	-1.294511	0.426139	-0.477703
C41	C	-1.349508	0.604721	-0.477379
C42	C	-1.119885	0.104507	-0.750752
C43	C	-1.063863	0.078605	-0.924017
C44	C	-1.354667	-0.143803	-0.469507
C45	C	-1.289285	-0.322385	-0.469841
C46	C	-1.126611	0.073316	-1.013373
C47	C	-1.073980	0.048957	-1.176171
C48	C	-0.958604	0.029899	-1.249613
C49	C	-0.895850	0.035184	-1.160244
C50	C	-0.948479	0.059531	-0.997447
H51	H	-1.918699	0.218453	-0.022554
C52	C	-1.253527	0.094265	-0.932617
N53	N	-1.349119	0.110030	-0.871801
H54	H	-1.695671	0.603401	-0.463557
C55	C	-0.900727	0.003119	-1.428697
N56	N	-0.857142	-0.017048	-1.563585
H57	H	-2.239145	0.193504	0.006454
H58	H	-1.943135	0.678944	-0.483640
H59	H	-1.996454	0.262567	0.272765
H60	H	-2.195566	0.272180	0.434973
H61	H	-1.511523	-0.048342	-0.971672
C62	C	-1.645649	0.375214	-0.958821
N63	N	-1.698914	0.504386	-0.910331
C64	C	-0.879444	0.065375	-0.899177
N65	N	-0.827441	0.069780	-0.825168
H66	H	-1.125096	0.044665	-1.248914
H67	H	-1.195671	0.603401	-0.463557
H68	H	-1.443135	0.678944	-0.483640
H69	H	-0.801906	0.019664	-1.220065
H70	H	-2.316899	0.237619	0.301817
