data_functionalizedCrystal
_audit_creation_method	'MofGen! by Chris Wilmer'
_symmetry_space_group_name_H-M	'P1'
_symmetry_Int_Tables_number	1
_symmetry_cell_setting	triclinic
loop_
_symmetry_equiv_pos_as_xyz
  x,y,z
_cell_length_a	12.759401
_cell_length_b	19.805405
_cell_length_c	19.805407
_cell_angle_alpha	90.016469
_cell_angle_beta	90.004666
_cell_angle_gamma	90.027935
loop_
_atom_site_label
_atom_site_type_symbol
_atom_site_fract_x
_atom_site_fract_y
_atom_site_fract_z
Zn1	Zn	1.606012	-0.269537	0.382662
Zn2	Zn	2.106012	0.230463	0.882662
Zn3	Zn	1.605917	-0.382700	0.269470
Zn4	Zn	2.105917	0.117300	0.769470
Zn5	Zn	1.430361	-0.269533	0.269492
Zn6	Zn	1.930361	0.230467	0.769492
Zn7	Zn	1.430267	-0.382692	0.382622
Zn8	Zn	1.930267	0.117308	0.882622
O9	O	1.518139	-0.326116	0.326061
O10	O	2.018139	0.173884	0.826061
O11	O	1.753021	-0.284553	0.367654
O12	O	2.253021	0.215447	0.867654
O13	O	1.582629	-0.367690	0.174756
O14	O	2.082629	0.132310	0.674756
O15	O	1.453740	-0.174817	0.284530
O16	O	1.953740	0.325183	0.784530
O17	O	1.752951	-0.367694	0.284493
O18	O	2.252951	0.132306	0.784493
O19	O	1.582791	-0.174820	0.367675
O20	O	2.082791	0.325180	0.867675
O21	O	1.453648	-0.284547	0.174772
O22	O	1.953648	0.215453	0.674772
O23	O	1.283327	-0.284539	0.284491
O24	O	1.783327	0.215461	0.784491
O25	O	1.453580	-0.367681	0.477344
O26	O	1.953580	0.132319	0.977344
O27	O	1.283258	-0.367677	0.367608
O28	O	1.783258	0.132323	0.867608
O29	O	1.582700	-0.284546	0.477373
O30	O	2.082700	0.215454	0.977373
O31	O	1.582538	-0.477416	0.284454
O32	O	2.082538	0.022584	0.784454
O33	O	1.453488	-0.477410	0.367587
O34	O	1.953488	0.022590	0.867587
C35	C	1.245172	-0.326108	0.326048
C36	C	1.745172	0.173892	0.826048
C37	C	1.128395	-0.326120	0.326058
C38	C	1.628395	0.173880	0.826058
C39	C	1.073525	-0.369476	0.369269
C40	C	1.573525	0.130524	0.869269
C41	C	0.963801	-0.369478	0.369282
C42	C	1.463801	0.130522	0.869282
C43	C	0.963827	-0.282768	0.282869
C44	C	1.463827	0.217232	0.782869
C45	C	1.073549	-0.282763	0.282859
C46	C	1.573549	0.217237	0.782859
C47	C	1.518021	-0.501972	0.326029
C48	C	2.018021	-0.001972	0.826029
C49	C	1.518067	-0.577204	0.326037
C50	C	2.018067	-0.077204	0.826037
C51	C	1.585328	-0.612528	0.282796
C52	C	2.085328	-0.112528	0.782796
C53	C	1.585372	-0.683217	0.282811
C54	C	2.085372	-0.183217	0.782811
C55	C	1.518150	-0.718579	0.326064
C56	C	2.018150	-0.218579	0.826064
C57	C	1.450885	-0.683250	0.369311
C58	C	1.950885	-0.183250	0.869311
C59	C	1.450847	-0.612563	0.369299
C60	C	1.950847	-0.112563	0.869299
C61	C	1.451040	-0.968323	0.369361
C62	C	1.951040	-0.468323	0.869361
C63	C	1.451082	-1.039015	0.369368
C64	C	1.951082	-0.539015	0.869368
C65	C	1.585566	-1.038977	0.282873
C66	C	2.085566	-0.538977	0.782873
C67	C	1.585527	-0.968290	0.282861
C68	C	2.085527	-0.468290	0.782861
C69	C	1.518268	-0.932967	0.326109
C70	C	2.018268	-0.432967	0.826109
C71	C	1.518221	-0.856318	0.326094
C72	C	2.018221	-0.356318	0.826094
C73	C	1.518190	-0.795226	0.326077
C74	C	2.018190	-0.295226	0.826077
C75	C	1.792172	-0.326125	0.326075
C76	C	2.292172	0.173875	0.826075
C77	C	1.908949	-0.326128	0.326081
C78	C	2.408949	0.173872	0.826081
C79	C	1.518140	-0.326113	0.502604
C80	C	2.018140	0.173887	1.002604
C81	C	1.518140	-0.326111	0.577836
C82	C	2.018140	0.173889	1.077836
C83	C	1.518286	-0.149573	0.326109
C84	C	2.018286	0.350427	0.826109
C85	C	1.518349	-0.074341	0.326129
C86	C	2.018349	0.425659	0.826129
C87	C	1.450990	-0.282824	0.613188
C88	C	1.950990	0.217176	1.113188
C89	C	1.450986	-0.282828	0.683876
C90	C	1.950986	0.217172	1.183876
C91	C	1.518139	-0.326117	0.719212
C92	C	2.018139	0.173883	1.219212
C93	C	1.585292	-0.369410	0.683855
C94	C	2.085292	0.130590	1.183855
C95	C	1.585290	-0.369408	0.613168
C96	C	2.085290	0.130592	1.113168
C97	C	1.585302	-0.369418	0.968928
C98	C	2.085302	0.130582	1.468928
C99	C	1.585302	-0.369414	1.039620
C100	C	2.085302	0.130586	1.539620
C101	C	1.450999	-0.282837	1.039637
C102	C	1.950999	0.217163	1.539637
C103	C	1.450997	-0.282835	0.968950
C104	C	1.950997	0.217165	1.468950
C105	C	1.518145	-0.326130	0.933599
C106	C	2.018145	0.173870	1.433599
C107	C	1.518147	-0.326126	0.856951
C108	C	2.018147	0.173874	1.356951
C109	C	1.518143	-0.326119	0.795859
C110	C	2.018143	0.173881	1.295859
C111	C	1.518134	-0.326132	1.150205
C112	C	2.018134	0.173868	1.650205
C113	C	1.518145	-0.326129	1.074973
C114	C	2.018145	0.173871	1.574973
H115	H	1.640064	-0.583741	0.247571
H116	H	2.140064	-0.083741	0.747571
C117	C	1.600195	-0.888831	0.191807
C118	C	2.100195	-0.388831	0.691807
C119	C	1.659420	-0.929422	0.235314
C120	C	2.159420	-0.429422	0.735314
H121	H	1.645818	-0.864841	0.162452
H122	H	2.145818	-0.364841	0.662452
H123	H	1.560141	-0.857679	0.217558
H124	H	2.060141	-0.357679	0.717558
H125	H	1.554472	-0.916451	0.165897
H126	H	2.054472	-0.416451	0.665897
H127	H	1.705138	-0.901801	0.261228
H128	H	2.205138	-0.401801	0.761228
H129	H	1.699493	-0.960578	0.209560
H130	H	2.199493	-0.460578	0.709560
C131	C	0.974875	-0.197056	0.197454
C132	C	1.474875	0.302944	0.697454
C133	C	0.903538	-0.235115	0.235381
C134	C	1.403538	0.264885	0.735381
H135	H	0.937654	-0.167635	0.168139
H136	H	1.437654	0.332365	0.668139
H137	H	1.017642	-0.226504	0.171508
H138	H	1.517642	0.273496	0.671508
H139	H	1.017697	-0.171211	0.226996
H140	H	1.517697	0.328789	0.726996
H141	H	0.860720	-0.260965	0.205839
H142	H	1.360720	0.239035	0.705839
H143	H	0.860753	-0.205664	0.261329
H144	H	1.360753	0.294336	0.761329
H145	H	1.639978	-0.404653	0.584385
H146	H	2.139978	0.095347	1.084385
C147	C	1.309679	-0.273414	0.533688
C148	C	1.809679	0.226586	1.033688
C149	C	1.377174	-0.235239	0.574348
C150	C	1.877174	0.264761	1.074348
H151	H	1.264111	-0.244037	0.509709
H152	H	1.764111	0.255963	1.009709
H153	H	1.269472	-0.302897	0.561254
H154	H	1.769472	0.197103	1.061254
H155	H	1.349685	-0.299191	0.502519
H156	H	1.849685	0.200809	1.002519
H157	H	1.337168	-0.209466	0.605521
H158	H	1.837168	0.290534	1.105521
H159	H	1.417385	-0.205744	0.546780
H160	H	1.917385	0.294256	1.046780
H161	H	1.640143	-0.711975	0.247598
H162	H	2.140143	-0.211975	0.747598
H163	H	1.396302	-0.247581	0.712657
H164	H	1.896302	0.252419	1.212657
C165	C	1.196928	-0.273211	0.191823
C166	C	1.696928	0.226789	0.691823
C167	C	1.133874	-0.235104	0.235358
C168	C	1.633874	0.264896	0.735358
H169	H	1.234174	-0.243787	0.162504
H170	H	1.734174	0.256213	0.662504
H171	H	1.154097	-0.302654	0.165881
H172	H	1.654097	0.197346	0.665881
H173	H	1.245288	-0.299026	0.217560
H174	H	1.745288	0.200974	0.717560
H175	H	1.085509	-0.209292	0.209621
H176	H	1.585509	0.290708	0.709621
H177	H	1.176709	-0.205649	0.261303
H178	H	1.676709	0.294351	0.761303
H179	H	1.639988	-0.404668	1.068388
H180	H	2.139988	0.095332	1.568388
H181	H	1.640336	-1.067746	0.247660
H182	H	2.140336	-0.567746	0.747660
H183	H	0.919130	-0.404782	0.404470
H184	H	1.419130	0.095218	0.904470
C185	C	1.391219	-0.791624	0.407731
C186	C	1.891219	-0.291624	0.907731
C187	C	1.376989	-0.722119	0.416855
C188	C	1.876989	-0.222119	0.916855
H189	H	1.345590	-0.815617	0.437080
H190	H	1.845590	-0.315617	0.937080
H191	H	1.461794	-0.803163	0.417682
H192	H	1.961794	-0.303163	0.917682
H193	H	1.375906	-0.803228	0.362245
H194	H	1.875906	-0.303228	0.862245
H195	H	1.392310	-0.710514	0.462341
H196	H	1.892310	-0.210514	0.962341
H197	H	1.306398	-0.710574	0.406909
H198	H	1.806398	-0.210574	0.906909
H199	H	1.396318	-0.247582	0.940183
H200	H	1.896318	0.252418	1.440183
H201	H	1.118177	-0.404779	0.404446
H202	H	1.618177	0.095221	0.904446
C203	C	1.391342	-0.244397	1.148003
C204	C	1.891342	0.255603	1.648003
C205	C	1.377172	-0.235253	1.078497
C206	C	1.877172	0.264747	1.578497
H207	H	1.345761	-0.215024	1.171991
H208	H	1.845761	0.284976	1.671991
H209	H	1.461931	-0.234492	1.159593
H210	H	1.961931	0.265508	1.659593
H211	H	1.375925	-0.289876	1.159565
H212	H	1.875925	0.210124	1.659565
H213	H	1.392596	-0.189775	1.066934
H214	H	1.892596	0.310225	1.566934
H215	H	1.306567	-0.245154	1.066902
H216	H	1.806567	0.254846	1.566902
H217	H	1.396342	-1.067805	0.404596
H218	H	1.896342	-0.567805	0.904596
C219	C	1.318085	-0.975471	0.454844
C220	C	1.818085	-0.475471	0.954844
C221	C	1.377089	-0.929502	0.416886
C222	C	1.877089	-0.429502	0.916886
H223	H	1.272420	-0.951500	0.484179
H224	H	1.772420	-0.451500	0.984179
H225	H	1.363838	-1.003000	0.480770
H226	H	1.863838	-0.503000	0.980770
H227	H	1.277966	-1.003081	0.425323
H228	H	1.777966	-0.503081	0.925323
H229	H	1.417213	-0.901895	0.446407
H230	H	1.917213	-0.401895	0.946407
H231	H	1.331329	-0.901961	0.390958
H232	H	1.831329	-0.401961	0.890958
H233	H	1.639967	-0.404678	0.940154
H234	H	2.139967	0.095322	1.440154
C235	C	1.309472	-0.533137	0.378614
C236	C	1.809472	-0.033137	0.878614
C237	C	1.376911	-0.573731	0.416831
C238	C	1.876911	-0.073731	0.916831
H239	H	1.263834	-0.509163	0.407963
H240	H	1.763834	-0.009163	0.907963
H241	H	1.269335	-0.560747	0.349112
H242	H	1.769335	-0.060747	0.849112
H243	H	1.349513	-0.501963	0.352855
H244	H	1.849513	-0.001963	0.852855
H245	H	1.336870	-0.604908	0.442586
H246	H	1.836870	-0.104908	0.942586
H247	H	1.417051	-0.546119	0.446344
H248	H	1.917051	-0.046119	0.946344
C249	C	1.644936	-0.407854	0.792204
C250	C	2.144936	0.092146	1.292204
C251	C	1.659108	-0.416995	0.722694
C252	C	2.159108	0.083005	1.222694
H253	H	1.690515	-0.437228	0.816179
H254	H	2.190515	0.062772	1.316179
H255	H	1.574346	-0.417758	0.803780
H256	H	2.074346	0.082242	1.303780
H257	H	1.660354	-0.362375	0.803795
H258	H	2.160354	0.137625	1.303795
H259	H	1.643683	-0.462473	0.711102
H260	H	2.143683	0.037527	1.211102
H261	H	1.729714	-0.407096	0.711113
H262	H	2.229714	0.092904	1.211113
