data_functionalizedCrystal
_audit_creation_method	'MofGen! by Chris Wilmer'
_symmetry_space_group_name_H-M	'P1'
_symmetry_Int_Tables_number	1
_symmetry_cell_setting	triclinic
loop_
_symmetry_equiv_pos_as_xyz
  x,y,z
_cell_length_a	15.298708
_cell_length_b	15.297327
_cell_length_c	15.298431
_cell_angle_alpha	88.343933
_cell_angle_beta	110.753161
_cell_angle_gamma	107.405650
loop_
_atom_site_label
_atom_site_type_symbol
_atom_site_fract_x
_atom_site_fract_y
_atom_site_fract_z
Zn1	Zn	1.313915	-0.080064	-0.296921
Zn2	Zn	1.304463	-0.253228	-0.177645
Zn3	Zn	1.175974	-0.124654	-0.177623
Zn4	Zn	1.122146	-0.253203	-0.359953
O5	O	1.229125	-0.177787	-0.253036
O6	O	1.446690	-0.084383	-0.254729
O7	O	1.305990	-0.254844	-0.051419
O8	O	1.220756	0.007528	-0.167061
O9	O	1.439746	-0.211606	-0.167097
O10	O	1.322100	0.040289	-0.254708
O11	O	1.211590	-0.160382	-0.051403
O12	O	1.034805	-0.160358	-0.228180
O13	O	1.129014	-0.211564	-0.477815
O14	O	0.995258	-0.254802	-0.362137
O15	O	1.269905	-0.084360	-0.431506
O16	O	1.253795	-0.379492	-0.228216
O17	O	1.119848	-0.379474	-0.362158
C18	C	0.980279	-0.212416	-0.301997
C19	C	0.873814	-0.227249	-0.322968
C20	C	1.179978	-0.412216	-0.302044
C21	C	1.159036	-0.512489	-0.323022
C22	C	0.655983	-0.071967	-0.103417
C23	C	0.756014	-0.058025	-0.083714
C24	C	0.785469	-0.100330	-0.143525
C25	C	0.714884	-0.156579	-0.223045
C26	C	0.614844	-0.170516	-0.242755
C27	C	0.744329	-0.198880	-0.282862
C28	C	0.673744	-0.255128	-0.362382
C29	C	0.573715	-0.269064	-0.382088
C30	C	0.544260	-0.226759	-0.322276
C31	C	0.844369	-0.184942	-0.263152
C32	C	0.803230	-0.283492	-0.402490
C33	C	0.703200	-0.297433	-0.422193
C34	C	1.379150	-0.795002	-0.103328
C35	C	1.398826	-0.700792	-0.083613
C36	C	1.338881	-0.653711	-0.143463
C37	C	1.259255	-0.700851	-0.223032
C38	C	1.239572	-0.795073	-0.242745
C39	C	1.199303	-0.653782	-0.282881
C40	C	1.119677	-0.700922	-0.362450
C41	C	1.099998	-0.795134	-0.382160
C42	C	1.159944	-0.842214	-0.322309
C43	C	1.218986	-0.559560	-0.263168
C44	C	1.079408	-0.559631	-0.402586
C45	C	1.059732	-0.653842	-0.422301
C46	C	1.478942	-0.143024	-0.203884
C47	C	1.585399	-0.128209	-0.182939
C48	C	1.194510	-0.142985	-0.488304
C49	C	1.179759	-0.128155	-0.588561
C50	C	1.278487	0.057564	-0.203851
C51	C	1.299522	0.157856	-0.182891
C52	C	1.123678	-0.072003	-0.635647
C53	C	1.109807	-0.058072	-0.729847
C54	C	1.152020	-0.100285	-0.776967
C55	C	1.208107	-0.156433	-0.729880
C56	C	1.221974	-0.170371	-0.635673
C57	C	1.250315	-0.198653	-0.776993
C58	C	1.306402	-0.254801	-0.729906
C59	C	1.320267	-0.268736	-0.635708
C60	C	1.278054	-0.226523	-0.588587
C61	C	1.236448	-0.184715	-0.871200
C62	C	1.334744	-0.283084	-0.871226
C63	C	1.348616	-0.297015	-0.777026
C64	C	1.263674	-0.212381	-0.018658
C65	C	1.278664	-0.226932	0.081688
H66	H	0.901831	-0.139141	-0.198409
H67	H	1.394282	-0.342731	-0.738674
C68	C	0.496073	-0.330944	-0.469558
N69	N	0.437594	-0.377558	-0.535437
H70	H	0.645716	-0.343231	-0.486940
C71	C	0.895505	-0.085000	-0.121842
N72	N	0.978390	-0.073455	-0.105504
C73	C	0.972138	-0.705710	-0.509820
N74	N	0.906161	-0.744779	-0.575737
H75	H	0.462809	-0.238112	-0.338311
H76	H	1.283817	-0.521187	-0.198382
C77	C	0.835625	-0.330032	-0.468286
N78	N	0.860032	-0.365083	-0.517839
C79	C	1.381159	-0.329542	-0.923062
N80	N	1.416107	-0.364540	-0.962114
H81	H	1.289350	-0.237859	-0.511881
H82	H	0.813477	-0.012231	-0.018966
C83	C	0.623574	-0.025433	-0.037639
N84	N	0.599163	0.009621	0.011910
H85	H	1.354905	-0.577001	-0.127406
C86	C	1.486398	-0.648949	0.003923
N87	N	1.552357	-0.609902	0.069863
C88	C	1.013465	-0.507846	-0.468428
N89	N	0.963800	-0.468836	-0.518015
H90	H	1.427944	-0.833345	-0.054601
C91	C	1.138301	-0.945854	-0.343989
N92	N	1.121999	-1.023917	-0.360314
H93	H	1.035152	-0.833516	-0.446942
C94	C	1.174761	-0.122947	-0.922983
N95	N	1.128298	-0.076416	-0.961984
C96	C	1.048124	0.003699	-0.781632
N97	N	1.001666	0.050233	-0.820637
C98	C	1.077259	-0.025568	-0.583806
N99	N	1.042297	0.009414	-0.544756
H100	H	1.365922	-0.314469	-0.597377
H101	H	1.140723	-0.088938	-0.853669
