data_functionalizedCrystal
_audit_creation_method	'MofGen! by Chris Wilmer'
_symmetry_space_group_name_H-M	'P1'
_symmetry_Int_Tables_number	1
_symmetry_cell_setting	triclinic
loop_
_symmetry_equiv_pos_as_xyz
  x,y,z
_cell_length_a	16.992701
_cell_length_b	10.654541
_cell_length_c	16.053802
_cell_angle_alpha	92.590712
_cell_angle_beta	87.243340
_cell_angle_gamma	87.575549
loop_
_atom_site_label
_atom_site_type_symbol
_atom_site_fract_x
_atom_site_fract_y
_atom_site_fract_z
O1	O	1.045120	0.261458	-0.069435
O2	O	0.816819	0.258538	-0.069435
O3	O	0.936219	0.077713	-0.069430
O4	O	0.925720	0.442284	-0.069440
O5	O	0.929647	0.087622	0.069429
O6	O	0.810246	0.268448	0.069423
O7	O	1.038548	0.271367	0.069424
Zn8	Zn	0.923354	0.271481	0.091470
Zn9	Zn	0.932013	0.258425	-0.091482
O10	O	0.919147	0.452193	0.069419
C11	C	0.784300	0.259733	-0.000006
C12	C	0.697195	0.248515	-0.000006
C13	C	0.207825	0.173140	-0.000007
C14	C	0.289669	0.183691	-0.000002
C15	C	0.321858	0.302492	-0.000009
C16	C	0.272198	0.410750	-0.000013
C17	C	0.190356	0.400199	-0.000011
C18	C	0.565693	0.346222	-0.000008
C19	C	0.647541	0.356765	-0.000012
C20	C	0.665006	0.129705	0.000000
C21	C	0.583162	0.119163	-0.000004
C22	C	0.533509	0.227422	-0.000003
N23	N	0.405515	0.313279	-0.000007
N24	N	0.449853	0.216634	0.000001
C25	C	0.932163	0.035803	-0.000001
C26	C	0.929857	-0.103840	-0.000002
C27	C	1.072632	-0.119474	0.000008
C28	C	1.142934	-0.192894	0.000015
C29	C	1.140763	-0.324099	0.000013
C30	C	1.068283	-0.381888	0.000001
C31	C	0.997982	-0.308468	-0.000007
C32	C	1.000160	-0.177260	-0.000001
C33	C	0.855208	-0.292835	-0.000023
C34	C	0.857377	-0.161629	-0.000015
C35	C	0.782729	-0.350624	-0.000035
C36	C	0.712425	-0.277203	-0.000037
C37	C	0.714599	-0.145990	-0.000033
C38	C	0.787076	-0.088209	-0.000022
C39	C	1.071067	0.270172	-0.000007
C40	C	1.158172	0.281390	-0.000013
C41	C	0.923204	0.494103	-0.000012
C42	C	0.925510	0.633745	-0.000016
N43	N	0.917449	0.280391	0.216330
N44	N	0.937923	0.249505	-0.216342
C45	C	0.968273	0.203481	0.260027
C46	C	0.964151	0.209726	0.347433
C47	C	0.909207	0.292889	0.391142
C48	C	0.858378	0.369803	0.347440
C49	C	0.862498	0.363550	0.260035
C50	C	0.891213	0.320166	0.652551
C51	C	0.887099	0.326416	0.739962
C52	C	0.992871	0.166337	0.739949
C53	C	0.996989	0.160097	0.652543
C54	C	0.946157	0.237005	0.608848
N55	N	0.904994	0.299278	0.480486
N56	N	0.950367	0.230610	0.519506
H57	H	0.673745	0.453513	-0.000005
H58	H	0.181624	0.076399	-0.000006
C59	C	1.075019	0.024849	0.000021
H60	H	1.022770	0.060299	0.000022
H61	H	1.104175	0.048205	-0.048393
H62	H	1.099575	0.055085	0.048459
C63	C	0.632709	-0.340771	-0.000049
H64	H	0.641485	-0.429427	-0.000049
H65	H	0.606025	-0.319504	-0.048471
H66	H	0.601439	-0.312616	0.048381
H67	H	0.788853	0.018625	-0.000014
H68	H	0.330094	0.095542	0.000006
C69	C	1.028710	0.111998	0.211954
H70	H	1.058383	0.067080	0.250500
H71	H	1.063219	0.158061	0.177843
H72	H	1.001808	0.054391	0.177873
C73	C	0.547756	-0.011515	-0.000004
H74	H	0.491903	-0.002295	-0.000015
H75	H	0.562462	-0.052988	0.048418
H76	H	0.567053	-0.059878	-0.048434
H77	H	0.298413	0.507481	-0.000013
C78	C	0.511085	0.465302	-0.000014
H79	H	0.541981	0.537562	-0.000028
H80	H	0.476504	0.469372	0.048409
H81	H	0.481088	0.462447	-0.048443
H82	H	0.149928	0.488348	-0.000013
H83	H	0.821110	0.426177	0.224458
H84	H	0.657351	-0.086219	-0.000042
C85	C	1.020065	0.125137	0.395496
H86	H	1.053385	0.074727	0.356946
H87	H	0.989963	0.072405	0.429607
H88	H	1.051357	0.176101	0.429576
H89	H	1.041728	0.092379	0.616957
H90	H	1.201945	-0.145827	0.000033
C91	C	1.218091	-0.404863	0.000021
H92	H	1.261568	-0.351661	0.000033
H93	H	1.222506	-0.459826	-0.048401
H94	H	1.217910	-0.452916	0.048451
C95	C	1.048774	0.081733	0.788015
H96	H	1.038449	0.097356	0.846330
H97	H	1.101881	0.099649	0.773677
H98	H	1.040467	-0.004017	0.773699
H99	H	0.842355	0.394142	0.775546
H100	H	0.849825	0.382791	0.616982
C101	C	0.797943	0.461283	0.395517
H102	H	0.802774	0.454003	0.453831
H103	H	0.746186	0.441314	0.381209
H104	H	0.807598	0.544984	0.381179
H105	H	0.780966	-0.457459	-0.000043
H106	H	0.705442	0.041567	0.000000
C107	C	1.065893	-0.526211	-0.000017
H108	H	1.012661	-0.550113	-0.000031
H109	H	1.089472	-0.555345	0.048402
H110	H	1.094060	-0.562214	-0.048450
