data_functionalizedCrystal
_audit_creation_method	'MofGen! by Chris Wilmer'
_symmetry_space_group_name_H-M	'P1'
_symmetry_Int_Tables_number	1
_symmetry_cell_setting	triclinic
loop_
_symmetry_equiv_pos_as_xyz
  x,y,z
_cell_length_a	16.625546
_cell_length_b	12.759401
_cell_length_c	12.759401
_cell_angle_alpha	89.998431
_cell_angle_beta	90.014013
_cell_angle_gamma	89.979382
loop_
_atom_site_label
_atom_site_type_symbol
_atom_site_fract_x
_atom_site_fract_y
_atom_site_fract_z
Zn1	Zn	-0.321170	-1.606012	0.593977
Zn2	Zn	0.178830	-1.106012	1.093977
Zn3	Zn	-0.455975	-1.605938	0.418283
Zn4	Zn	0.044025	-1.105938	0.918283
Zn5	Zn	-0.321156	-1.430369	0.418313
Zn6	Zn	0.178844	-0.930369	0.918313
Zn7	Zn	-0.455960	-1.430279	0.593921
Zn8	Zn	0.044040	-0.930279	1.093921
O9	O	-0.388565	-1.518149	0.506123
O10	O	0.111435	-1.018149	1.006123
O11	O	-0.339065	-1.753023	0.570681
O12	O	0.160935	-1.253023	1.070681
O13	O	-0.438091	-1.582655	0.271266
O14	O	0.061909	-1.082655	0.771266
O15	O	-0.208325	-1.453738	0.441651
O16	O	0.291675	-0.953738	0.941651
O17	O	-0.438105	-1.752969	0.441600
O18	O	0.061895	-1.252969	0.941600
O19	O	-0.208336	-1.582782	0.570711
O20	O	0.291664	-1.082782	1.070711
O21	O	-0.339040	-1.453665	0.271288
O22	O	0.160960	-0.953665	0.771288
O23	O	-0.339026	-1.283336	0.441597
O24	O	0.160974	-0.783336	0.941597
O25	O	-0.438080	-1.453584	0.740949
O26	O	0.061920	-0.953584	1.240949
O27	O	-0.438066	-1.283270	0.570615
O28	O	0.061934	-0.783270	1.070615
O29	O	-0.339051	-1.582694	0.740990
O30	O	0.160949	-1.082694	1.240990
O31	O	-0.568805	-1.582567	0.441546
O32	O	-0.068805	-1.082567	0.941546
O33	O	-0.568795	-1.453512	0.570586
O34	O	-0.068795	-0.953512	1.070586
C35	C	-0.388543	-1.245182	0.506104
C36	C	0.111457	-0.745182	1.006104
C37	C	-0.388553	-1.128406	0.506121
C38	C	0.111447	-0.628406	1.006121
C39	C	-0.440204	-1.073536	0.573188
C40	C	0.059796	-0.573536	1.073188
C41	C	-0.440212	-0.963812	0.573198
C42	C	0.059788	-0.463812	1.073198
C43	C	-0.336914	-0.963836	0.439063
C44	C	0.163086	-0.463836	0.939063
C45	C	-0.336903	-1.073558	0.439059
C46	C	0.163097	-0.573558	0.939059
C47	C	-0.499845	-1.073522	0.650627
C48	C	0.000155	-0.573522	1.150627
C49	C	-0.499852	-0.963798	0.650637
C50	C	0.000148	-0.463798	1.150637
C51	C	-0.598056	-1.518050	0.506079
C52	C	-0.098056	-1.018050	1.006079
C53	C	-0.687677	-1.518104	0.506096
C54	C	-0.187677	-1.018104	1.006096
C55	C	-1.015853	-1.518287	0.506205
C56	C	-0.515853	-1.018287	1.006205
C57	C	-0.924544	-1.518233	0.506178
C58	C	-0.424544	-1.018233	1.006178
C59	C	-0.851768	-1.518194	0.506150
C60	C	-0.351768	-1.018194	1.006150
C61	C	-0.760454	-1.518142	0.506123
C62	C	-0.260454	-1.018142	1.006123
C63	C	-0.178256	-1.518278	0.506191
C64	C	0.321744	-1.018278	1.006191
C65	C	-0.088635	-1.518333	0.506219
C66	C	0.411365	-1.018333	1.006219
C67	C	-0.388565	-1.518137	0.780157
C68	C	0.111435	-1.018137	1.280157
C69	C	-0.388565	-1.518132	0.896933
C70	C	0.111435	-1.018132	1.396933
C71	C	-0.388581	-0.792183	0.506139
C72	C	0.111419	-0.292183	1.006139
C73	C	-0.388571	-0.908959	0.506133
C74	C	0.111429	-0.408959	1.006133
C75	C	-0.440138	-1.450922	1.061500
C76	C	0.059862	-0.950922	1.561500
C77	C	-0.440128	-1.450914	0.951776
C78	C	0.059872	-0.950914	1.451776
C79	C	-0.337003	-1.585355	0.951820
C80	C	0.162997	-1.085355	1.451820
C81	C	-0.337009	-1.585358	1.061542
C82	C	0.162991	-1.085358	1.561542
C83	C	-0.499679	-1.373306	1.061474
C84	C	0.000321	-0.873306	1.561474
C85	C	-0.499669	-1.373298	0.951750
C86	C	0.000331	-0.873298	1.451750
C87	C	-0.388583	-1.518150	1.233156
C88	C	0.111417	-1.018150	1.733156
C89	C	-0.388581	-1.518143	1.116379
C90	C	0.111419	-1.018143	1.616379
H91	H	-0.483217	-1.103307	0.732036
H92	H	0.016783	-0.603307	1.232036
H93	H	-0.477297	-1.296010	0.917730
H94	H	0.022703	-0.796010	1.417730
Cl95	Cl	-0.596081	-1.406883	0.905725
Cl96	Cl	-0.096081	-0.906883	1.405725
H97	H	-0.559125	-1.107535	0.621337
H98	H	-0.059125	-0.607535	1.121337
Cl99	Cl	-0.272205	-1.669883	1.130530
Cl100	Cl	0.227795	-1.169883	1.630530
Cl101	Cl	-0.473856	-1.247696	1.107465
Cl102	Cl	0.026144	-0.747696	1.607465
Cl103	Cl	-0.591267	-1.418251	1.113989
Cl104	Cl	-0.091267	-0.918251	1.613989
Cl105	Cl	-0.271953	-1.142533	0.354762
Cl106	Cl	0.228047	-0.642533	0.854762
H107	H	-0.562277	-0.933998	0.628697
H108	H	-0.062277	-0.433998	1.128697
H109	H	-0.477584	-0.929780	0.727990
H110	H	0.022416	-0.429780	1.227990
H111	H	-0.294862	-0.919166	0.384465
H112	H	0.205138	-0.419166	0.884465
Cl113	Cl	-0.272168	-1.669842	0.882874
Cl114	Cl	0.227832	-1.169842	1.382874
