data_functionalizedCrystal
_audit_creation_method	'MofGen! by Chris Wilmer'
_symmetry_space_group_name_H-M	'P1'
_symmetry_Int_Tables_number	1
_symmetry_cell_setting	triclinic
loop_
_symmetry_equiv_pos_as_xyz
  x,y,z
_cell_length_a	12.837943
_cell_length_b	17.019305
_cell_length_c	15.500228
_cell_angle_alpha	96.706723
_cell_angle_beta	93.142593
_cell_angle_gamma	90.902161
loop_
_atom_site_label
_atom_site_type_symbol
_atom_site_fract_x
_atom_site_fract_y
_atom_site_fract_z
O1	O	1.369266	-0.209060	-0.087508
O2	O	1.869266	0.290940	0.412492
O3	O	1.067526	-0.198896	-0.086755
O4	O	1.567526	0.301104	0.413245
O5	O	1.227390	-0.089386	-0.078589
O6	O	1.727390	0.410614	0.421411
O7	O	1.209401	-0.318570	-0.095674
O8	O	1.709401	0.181430	0.404326
O9	O	1.237082	-0.082762	0.065794
O10	O	1.737082	0.417238	0.565794
O11	O	1.077217	-0.192272	0.057628
O12	O	1.577217	0.307728	0.557628
O13	O	1.378957	-0.202436	0.056875
O14	O	1.878957	0.297564	0.556875
Cu15	Cu	1.228972	-0.196749	0.070434
Cu16	Cu	1.728972	0.303251	0.570434
Cu17	Cu	1.217511	-0.204583	-0.100315
Cu18	Cu	1.717511	0.295417	0.399685
O19	O	1.219092	-0.311946	0.048708
O20	O	1.719092	0.188054	0.548708
C21	C	1.033773	-0.192151	-0.014308
C22	C	1.533773	0.307849	0.485692
C23	C	0.918762	-0.181910	-0.013547
C24	C	1.418762	0.318090	0.486453
N25	N	1.209450	-0.210087	-0.220410
N26	N	1.709450	0.289913	0.279590
C27	C	1.231746	-0.056536	-0.004197
C28	C	1.731746	0.443464	0.495803
C29	C	1.230272	0.031479	0.002358
C30	C	1.730272	0.531479	0.502358
C31	C	1.412710	-0.209181	-0.015574
C32	C	1.912710	0.290819	0.484426
C33	C	1.527720	-0.219422	-0.016341
C34	C	2.027720	0.280578	0.483659
C35	C	1.769479	-0.096315	-0.007155
C36	C	2.269479	0.403685	0.492845
C37	C	1.877542	-0.105933	-0.007875
C38	C	2.377542	0.394067	0.492125
C39	C	1.851912	-0.248275	-0.018496
C40	C	2.351912	0.251725	0.481504
C41	C	1.743849	-0.238657	-0.017776
C42	C	2.243849	0.261343	0.482224
C43	C	1.702636	-0.162674	-0.012106
C44	C	2.202636	0.337326	0.487894
C45	C	1.594571	-0.153057	-0.011392
C46	C	2.094571	0.346943	0.488608
C47	C	1.568943	-0.295399	-0.022007
C48	C	2.068943	0.204601	0.477993
C49	C	1.677006	-0.305017	-0.022727
C50	C	2.177006	0.194983	0.477273
C51	C	1.224300	0.069213	-0.073264
C52	C	1.724300	0.569213	0.426736
C53	C	1.222909	0.151913	-0.067101
C54	C	1.722909	0.651913	0.432899
C55	C	1.227498	0.196876	0.014684
C56	C	1.727498	0.696876	0.514684
C57	C	1.233468	0.159137	0.090313
C58	C	1.733468	0.659137	0.590313
C59	C	1.234852	0.076438	0.084149
C60	C	1.734852	0.576438	0.584149
C61	C	1.223579	0.446752	0.037231
C62	C	1.723579	0.946752	0.537231
C63	C	1.222198	0.529456	0.043389
C64	C	1.722198	1.029456	0.543389
C65	C	1.211637	0.522226	-0.114026
C66	C	1.711637	1.022226	0.385974
C67	C	1.213027	0.439527	-0.120182
C68	C	1.713027	0.939527	0.379818
C69	C	1.218991	0.401794	-0.044554
C70	C	1.718991	0.901794	0.455446
C71	C	1.226080	0.281409	0.020986
C72	C	1.726080	0.781409	0.520986
C73	C	1.220402	0.317263	-0.050856
C74	C	1.720402	0.817263	0.449144
C75	C	1.214741	0.655205	-0.025682
C76	C	1.714741	1.155205	0.474318
C77	C	1.216225	0.567190	-0.032233
C78	C	1.716225	1.067190	0.467767
C79	C	1.277318	-0.163793	-0.262235
C80	C	1.777318	0.336207	0.237765
C81	C	1.271220	-0.167954	-0.353118
C82	C	1.771220	0.332046	0.146882
C83	C	1.197248	-0.218405	-0.402175
C84	C	1.697248	0.281595	0.097825
C85	C	1.129377	-0.264705	-0.360344
C86	C	1.629377	0.235295	0.139656
C87	C	1.135481	-0.260547	-0.269463
C88	C	1.635481	0.239453	0.230537
C89	C	1.175274	-0.233381	-0.676758
C90	C	1.675274	0.266619	-0.176758
C91	C	1.169173	-0.237533	-0.767645
C92	C	1.669173	0.262467	-0.267645
C93	C	1.311018	-0.140783	-0.760413
C94	C	1.811018	0.359217	-0.260413
C95	C	1.317111	-0.136627	-0.669530
C96	C	1.817111	0.363373	-0.169530
C97	C	1.249244	-0.182929	-0.627708
C98	C	1.749244	0.317071	-0.127708
C99	C	1.191010	-0.222658	-0.495072
C100	C	1.691010	0.277342	0.004928
C101	C	1.255487	-0.178680	-0.534813
C102	C	1.755487	0.321320	-0.034813
N103	N	1.237041	-0.191239	0.190530
N104	N	1.737041	0.308761	0.690530
H105	H	1.561018	-0.091188	-0.006779
H106	H	2.061018	0.408812	0.493221
H107	H	1.710577	-0.366880	-0.027340
H108	H	2.210577	0.133120	0.472660
H109	H	1.326484	-0.130258	-0.387171
H110	H	1.826484	0.369742	0.112829
H111	H	1.218050	0.182632	-0.128681
H112	H	1.718050	0.682632	0.371319
H113	H	1.735923	-0.034447	-0.002547
H114	H	2.235923	0.465553	0.497453
H115	H	1.229820	0.318028	0.087576
H116	H	1.729820	0.818028	0.587576
H117	H	1.514507	-0.349434	-0.026039
H118	H	2.014507	0.150566	0.473961
H119	H	1.366273	-0.103087	-0.794473
H120	H	1.866273	0.396913	-0.294473
H121	H	1.377345	-0.095545	-0.629590
H122	H	1.877345	0.404455	-0.129590
H123	H	1.209291	0.402922	-0.186781
H124	H	1.709291	0.902922	0.313219
H125	H	1.130779	-0.263735	-0.535021
H126	H	1.630779	0.236265	-0.035021
H127	H	1.931962	-0.051895	-0.003843
H128	H	2.431962	0.448105	0.496157
H129	H	1.885487	-0.310136	-0.023105
H130	H	2.385487	0.189864	0.476895
H131	H	1.220568	0.032609	-0.139863
H132	H	1.720568	0.532609	0.360137
H133	H	1.069151	-0.305787	-0.400292
H134	H	1.569151	0.194213	0.099708
H135	H	1.225930	0.566064	0.109993
H136	H	1.725930	1.066064	0.609993
H137	H	1.080217	-0.298246	-0.235411
H138	H	1.580217	0.201754	0.264589
H139	H	1.206779	0.552957	-0.175598
H140	H	1.706779	1.052957	0.324402
H141	H	1.228456	0.416041	0.098814
H142	H	1.728456	0.916041	0.598814
H143	H	1.108932	-0.278619	-0.807584
H144	H	1.608932	0.221381	-0.307584
H145	H	1.237199	0.195753	0.156905
H146	H	1.737199	0.695753	0.656905
H147	H	1.239701	0.045716	0.145729
H148	H	1.739701	0.545716	0.645729
H149	H	1.216658	0.280650	-0.117445
H150	H	1.716658	0.780650	0.382555
H151	H	1.315719	-0.137606	-0.494868
H152	H	1.815719	0.362394	0.005132
H153	H	1.337549	-0.122706	-0.222298
H154	H	1.837549	0.377294	0.277702
H155	H	1.120012	-0.271081	-0.642714
H156	H	1.620012	0.228919	-0.142714
