data_functionalizedCrystal
_audit_creation_method	'MofGen! by Chris Wilmer'
_symmetry_space_group_name_H-M	'P1'
_symmetry_Int_Tables_number	1
_symmetry_cell_setting	triclinic
loop_
_symmetry_equiv_pos_as_xyz
  x,y,z
_cell_length_a	10.686220
_cell_length_b	12.594516
_cell_length_c	10.685880
_cell_angle_alpha	94.341733
_cell_angle_beta	89.641569
_cell_angle_gamma	94.397503
loop_
_atom_site_label
_atom_site_type_symbol
_atom_site_fract_x
_atom_site_fract_y
_atom_site_fract_z
Zn1	Zn	1.972249	-0.332254	-0.562388
Zn2	Zn	1.956029	-0.497766	-0.352643
Zn3	Zn	1.746379	-0.334424	-0.368710
Zn4	Zn	1.762446	-0.524820	-0.578416
O5	O	1.859276	-0.422316	-0.465539
O6	O	2.145641	-0.341980	-0.521133
O7	O	1.914706	-0.465684	-0.179233
O8	O	1.776405	-0.185187	-0.394419
O9	O	2.133723	-0.463580	-0.367034
O10	O	1.942351	-0.183593	-0.536713
O11	O	1.760677	-0.345677	-0.191038
O12	O	1.572967	-0.371910	-0.409961
O13	O	1.803789	-0.509690	-0.751831
O14	O	1.584772	-0.511794	-0.564030
O15	O	1.957931	-0.368213	-0.740056
O16	O	1.930285	-0.650304	-0.382576
O17	O	1.788061	-0.670180	-0.548450
C18	C	1.533353	-0.445024	-0.490479
C19	C	1.393924	-0.454766	-0.501178
C20	C	1.859193	-0.698862	-0.465533
C21	C	1.859275	-0.817164	-0.465564
C22	C	1.781906	-0.897264	-0.555725
C23	C	1.742561	-0.963435	-0.443599
C24	C	1.898736	-0.961785	-0.577700
C25	C	1.819864	-0.881778	-0.353383
C26	C	1.976099	-0.880122	-0.487556
C27	C	1.936791	-0.946254	-0.375349
C28	C	2.186471	-0.399520	-0.440503
C29	C	2.325902	-0.389806	-0.429834
C30	C	1.884462	-0.441728	-0.792732
C31	C	1.895194	-0.450000	-0.932162
C32	C	1.859395	-0.144689	-0.465570
C33	C	1.859447	-0.026381	-0.465583
C34	C	1.834260	-0.402898	-0.139614
C35	C	1.823770	-0.394309	-0.000166
H36	H	1.716344	-0.875397	-0.631878
C37	C	1.391314	-0.304598	-0.336264
H38	H	1.329945	-0.265155	-0.292935
H39	H	1.446146	-0.257608	-0.380466
H40	H	1.438197	-0.338470	-0.277646
C41	C	1.730062	-0.321346	-0.934726
H42	H	1.734899	-0.325165	-0.846456
H43	H	1.647401	-0.344047	-0.962592
H44	H	1.750094	-0.249802	-0.954740
C45	C	1.988912	-0.522963	-0.997606
H46	H	1.984089	-0.519134	-1.085876
H47	H	1.968898	-0.594502	-0.977589
H48	H	2.071576	-0.500245	-0.969740
H49	H	1.643845	-0.999850	-0.425017
C50	C	1.328502	-0.539973	-0.594755
H51	H	1.240229	-0.535563	-0.589919
H52	H	1.348480	-0.608888	-0.574638
H53	H	1.356423	-0.528018	-0.677449
H54	H	2.074797	-0.843715	-0.506195
C55	C	1.774704	-0.834699	-0.225263
H56	H	1.774873	-0.759310	-0.226054
H57	H	1.829341	-0.851784	-0.161203
H58	H	1.692013	-0.863949	-0.209508
H59	H	2.002286	-0.967918	-0.299029
H60	H	1.932043	-0.996776	-0.672524
