data_functionalizedCrystal
_audit_creation_method	'MofGen! by Chris Wilmer'
_symmetry_space_group_name_H-M	'P1'
_symmetry_Int_Tables_number	1
_symmetry_cell_setting	triclinic
loop_
_symmetry_equiv_pos_as_xyz
  x,y,z
_cell_length_a	16.120490
_cell_length_b	16.120484
_cell_length_c	16.625539
_cell_angle_alpha	92.868615
_cell_angle_beta	87.083784
_cell_angle_gamma	90.164100
loop_
_atom_site_label
_atom_site_type_symbol
_atom_site_fract_x
_atom_site_fract_y
_atom_site_fract_z
Zn1	Zn	1.254483	-0.395672	-0.536709
Zn2	Zn	1.247324	-0.534732	-0.408338
Zn3	Zn	1.115420	-0.388632	-0.394737
Zn4	Zn	1.108335	-0.527617	-0.535975
O5	O	1.181391	-0.461663	-0.468940
O6	O	1.369899	-0.420042	-0.525680
O7	O	1.229796	-0.515383	-0.293701
O8	O	1.139828	-0.273203	-0.408185
O9	O	1.364640	-0.522209	-0.431366
O10	O	1.241997	-0.278375	-0.512492
O11	O	1.132887	-0.408045	-0.283709
O12	O	0.998115	-0.401145	-0.407473
O13	O	1.127753	-0.510082	-0.648905
O14	O	0.992909	-0.503256	-0.511239
O15	O	1.235127	-0.413143	-0.649444
O16	O	1.222926	-0.650151	-0.430654
O17	O	1.120811	-0.644923	-0.524428
C18	C	0.965340	-0.450665	-0.457801
C19	C	0.872911	-0.445980	-0.453056
C20	C	0.659942	-0.485958	-0.493555
C21	C	0.703687	-0.437435	-0.444391
C22	C	0.797852	-0.442191	-0.449214
C23	C	0.565768	-0.481203	-0.488734
C24	C	1.170345	-0.677710	-0.478956
C25	C	1.165696	-0.770140	-0.483272
C26	C	1.157213	-0.939370	-0.491168
C27	C	1.205717	-0.983124	-0.446732
C28	C	1.200997	-1.077289	-0.451126
C29	C	1.161932	-0.845196	-0.486776
C30	C	1.398285	-0.472705	-0.480123
C31	C	1.490713	-0.477410	-0.484888
C32	C	1.181448	-0.461604	-0.679249
C33	C	1.181472	-0.461579	-0.768870
C34	C	1.192502	-0.244774	-0.458903
C35	C	1.197237	-0.152349	-0.454626
C36	C	1.181515	-0.461488	-1.097043
C37	C	1.181501	-0.461516	-1.005735
C38	C	1.181494	-0.461534	-0.932959
C39	C	1.181479	-0.461560	-0.841646
C40	C	1.181385	-0.461665	-0.259449
C41	C	1.181533	-0.461464	-0.169825
H42	H	0.670419	-0.392320	-0.398680
H43	H	1.250788	-0.949861	-0.405388
H44	H	1.112145	-0.972630	-0.532508
H45	H	0.693208	-0.531070	-0.539262
