data_functionalizedCrystal
_audit_creation_method	'MofGen! by Chris Wilmer'
_symmetry_space_group_name_H-M	'P1'
_symmetry_Int_Tables_number	1
_symmetry_cell_setting	triclinic
loop_
_symmetry_equiv_pos_as_xyz
  x,y,z
_cell_length_a	19.077212
_cell_length_b	25.639240
_cell_length_c	19.077174
_cell_angle_alpha	92.263375
_cell_angle_beta	85.292016
_cell_angle_gamma	92.324469
loop_
_atom_site_label
_atom_site_type_symbol
_atom_site_fract_x
_atom_site_fract_y
_atom_site_fract_z
Zn1	Zn	1.093704	-0.188787	-0.441972
Zn2	Zn	1.593704	0.311213	0.058028
Zn3	Zn	1.088872	-0.272847	-0.324063
Zn4	Zn	1.588872	0.227153	0.175937
Zn5	Zn	0.971085	-0.188793	-0.319350
Zn6	Zn	1.471085	0.311207	0.180650
Zn7	Zn	0.975761	-0.279561	-0.437162
Zn8	Zn	1.475761	0.220439	0.062838
O9	O	1.032356	-0.232497	-0.380637
O10	O	1.532356	0.267503	0.119363
O11	O	1.191717	-0.197125	-0.430317
O12	O	1.691717	0.302875	0.069683
O13	O	1.069269	-0.258890	-0.224788
O14	O	1.569269	0.241110	0.275212
O15	O	0.987417	-0.115627	-0.335657
O16	O	1.487417	0.384373	0.164343
O17	O	1.188167	-0.258884	-0.343690
O18	O	1.688167	0.241116	0.156310
O19	O	1.077504	-0.115622	-0.425746
O20	O	1.577504	0.384378	0.074254
O21	O	0.982731	-0.197136	-0.221325
O22	O	1.482731	0.302864	0.278675
O23	O	0.873052	-0.203647	-0.330992
O24	O	1.373052	0.296353	0.169008
O25	O	0.995386	-0.270326	-0.536449
O26	O	1.495386	0.229674	-0.036449
O27	O	0.876487	-0.270333	-0.417548
O28	O	1.376487	0.229667	0.082452
O29	O	1.082038	-0.203635	-0.539983
O30	O	1.582038	0.296365	-0.039983
O31	O	1.073802	-0.346903	-0.339025
O32	O	1.573802	0.153097	0.160975
O33	O	0.990700	-0.351836	-0.422118
O34	O	1.490700	0.148164	0.077882
C35	C	0.849189	-0.237719	-0.373237
C36	C	1.349189	0.262281	0.126763
C37	C	0.770831	-0.239967	-0.370088
C38	C	1.270831	0.260033	0.129912
C39	C	0.329555	-0.256063	-0.347537
C40	C	0.829555	0.243937	0.152463
C41	C	0.403182	-0.253949	-0.350490
C42	C	0.903182	0.246051	0.149510
C43	C	0.441848	-0.220794	-0.397142
C44	C	0.941848	0.279206	0.102858
C45	C	0.406884	-0.189748	-0.440839
C46	C	0.906884	0.310252	0.059161
C47	C	0.333259	-0.191860	-0.437881
C48	C	0.833259	0.308140	0.062119
C49	C	0.662242	-0.211033	-0.410827
C50	C	1.162242	0.288967	0.089173
C51	C	0.735872	-0.208924	-0.413783
C52	C	1.235872	0.291076	0.086217
C53	C	0.732164	-0.273125	-0.323433
C54	C	1.232164	0.226875	0.176567
C55	C	0.658538	-0.275236	-0.320483
C56	C	1.158538	0.224764	0.179517
C57	C	0.623581	-0.244188	-0.364177
C58	C	1.123581	0.255812	0.135823
N59	N	0.517106	-0.218633	-0.400163
N60	N	1.017106	0.281367	0.099837
N61	N	0.548324	-0.246346	-0.361151
N62	N	1.048324	0.253654	0.138849
C63	C	1.032254	-0.368341	-0.380577
C64	C	1.532254	0.131659	0.119423
C65	C	1.032276	-0.426454	-0.380578
C66	C	1.532276	0.073546	0.119422
C67	C	1.079290	-0.786777	-0.427629
C68	C	1.579290	-0.286777	0.072371
C69	C	1.079311	-0.841381	-0.427644
C70	C	1.579311	-0.341381	0.072356
O71	O	1.119164	-0.869586	-0.467586
O72	O	1.619164	-0.369586	0.032414
N73	N	1.032456	-0.868735	-0.380709
N74	N	1.532456	-0.368735	0.119291
C75	C	0.985572	-0.841482	-0.333760
C76	C	1.485572	-0.341482	0.166240
O77	O	0.945719	-0.869763	-0.293840
O78	O	1.445719	-0.369763	0.206160
C79	C	0.985548	-0.786879	-0.333749
C80	C	1.485548	-0.286879	0.166251
C81	C	1.032411	-0.759528	-0.380682
C82	C	1.532411	-0.259528	0.119318
C83	C	1.126149	-0.759426	-0.474559
C84	C	1.626149	-0.259426	0.025441
C85	C	1.126128	-0.704826	-0.474542
C86	C	1.626128	-0.204826	0.025458
C87	C	1.079249	-0.677576	-0.427596
C88	C	1.579249	-0.177576	0.072404
C89	C	1.032390	-0.704928	-0.380666
C90	C	1.532390	-0.204928	0.119334
C91	C	0.938660	-0.759628	-0.286805
C92	C	1.438660	-0.259628	0.213195
C93	C	0.938640	-0.705021	-0.286798
C94	C	1.438640	-0.205021	0.213202
C95	C	0.985503	-0.677670	-0.333731
C96	C	1.485503	-0.177670	0.166269
C97	C	0.985490	-0.623078	-0.333704
C98	C	1.485490	-0.123078	0.166296
N99	N	1.032345	-0.595724	-0.380639
N100	N	1.532345	-0.095724	0.119361
C101	C	1.079225	-0.622974	-0.427585
C102	C	1.579225	-0.122974	0.072415
C103	C	0.985626	-0.956152	-0.333788
C104	C	1.485626	-0.456152	0.166212
C105	C	0.985653	-1.010754	-0.333795
C106	C	1.485653	-0.510754	0.166205
C107	C	1.079392	-1.010649	-0.427680
C108	C	1.579392	-0.510649	0.072320
C109	C	1.079367	-0.956046	-0.427669
C110	C	1.579367	-0.456046	0.072331
C111	C	1.032481	-0.928798	-0.380723
C112	C	1.532481	-0.428798	0.119277
C113	C	1.079178	-0.508309	-0.427547
C114	C	1.579178	-0.008309	0.072453
C115	C	1.079155	-0.453703	-0.427525
C116	C	1.579155	0.046297	0.072475
C117	C	0.985414	-0.453813	-0.333643
C118	C	1.485414	0.046187	0.166357
C119	C	0.985439	-0.508413	-0.333662
C120	C	1.485439	-0.008413	0.166338
C121	C	1.032324	-0.535660	-0.380620
C122	C	1.532324	-0.035660	0.119380
O123	O	0.945656	-0.594839	-0.293784
O124	O	1.445656	-0.094839	0.206216
O125	O	1.119064	-0.594687	-0.467505
O126	O	1.619064	-0.094687	0.032495
C127	C	1.216237	-0.227254	-0.388066
C128	C	1.716237	0.272746	0.111934
C129	C	1.294597	-0.225020	-0.391231
C130	C	1.794597	0.274980	0.108769
C131	C	1.039772	-0.237729	-0.564510
C132	C	1.539772	0.262271	-0.064510
C133	C	1.042933	-0.239958	-0.642866
C134	C	1.542933	0.260042	-0.142866
C135	C	1.032478	-0.096123	-0.380712
C136	C	1.532478	0.403877	0.119288
C137	C	1.032530	-0.038008	-0.380745
C138	C	1.532530	0.461992	0.119255
C139	C	0.999364	-0.208855	-0.677875
C140	C	1.499364	0.291145	-0.177875
C141	C	1.002331	-0.210954	-0.751499
C142	C	1.502331	0.289046	-0.251499
C143	C	1.048871	-0.244155	-0.790113
C144	C	1.548871	0.255845	-0.290113
C145	C	1.092441	-0.275262	-0.755099
C146	C	1.592441	0.224738	-0.255099
C147	C	1.089470	-0.273165	-0.681477
C148	C	1.589470	0.226835	-0.181477
C149	C	1.062584	-0.253876	-1.010494
C150	C	1.562584	0.246124	-0.510494
C151	C	1.065553	-0.255970	-1.084121
C152	C	1.565553	0.244030	-0.584121
C153	C	0.975442	-0.191662	-1.080516
C154	C	1.475442	0.308338	-0.580516
C155	C	0.972478	-0.189566	-1.006892
C156	C	1.472478	0.310434	-0.506892
C157	C	1.016046	-0.220675	-0.971885
C158	C	1.516046	0.279325	-0.471885
N159	N	1.051906	-0.246300	-0.865368
N160	N	1.551906	0.253700	-0.365368
N161	N	1.013007	-0.218532	-0.896631
N162	N	1.513007	0.281468	-0.396631
C163	C	1.025009	-0.227247	-0.197480
C164	C	1.525009	0.272753	0.302520
C165	C	1.021985	-0.224866	-0.119130
C166	C	1.521985	0.275134	0.380870
H167	H	0.633789	-0.185753	-0.446410
H168	H	1.133789	0.314247	0.053590
O169	O	1.104984	-0.284105	-0.976606
O170	O	1.604984	0.215895	-0.476606
C171	C	1.146689	-0.313863	-1.026477
C172	C	1.646689	0.186137	-0.526477
H173	H	1.151258	-0.293871	-1.079069
H174	H	1.651258	0.206129	-0.579069
H175	H	1.121160	-0.354534	-1.033240
H176	H	1.621160	0.145466	-0.533240
C177	C	1.214947	-0.342987	-0.936183
C178	C	1.714947	0.157013	-0.436183
C179	C	1.220564	-0.318431	-1.000775
C180	C	1.720564	0.181569	-0.500775
H181	H	1.260516	-0.345807	-0.920328
H182	H	1.760516	0.154193	-0.420328
H183	H	1.186848	-0.322941	-0.902583
H184	H	1.686848	0.177059	-0.402583
H185	H	1.193670	-0.376877	-0.941827
H186	H	1.693670	0.123123	-0.441827
H187	H	1.241832	-0.284540	-0.995129
H188	H	1.741832	0.215460	-0.495129
H189	H	1.248668	-0.338472	-1.034374
H190	H	1.748668	0.161528	-0.534374
O191	O	1.124830	-1.037153	-0.473361
O192	O	1.624830	-0.537153	0.026639
C193	C	1.086496	-1.071195	-0.517227
C194	C	1.586496	-0.571195	-0.017227
H195	H	1.031137	-1.056479	-0.519286
H196	H	1.531137	-0.556479	-0.019286
H197	H	1.083219	-1.112036	-0.495337
H198	H	1.583219	-0.612036	0.004663
C199	C	1.191824	-1.091168	-0.589401
C200	C	1.691824	-0.591168	-0.089401
C201	C	1.123833	-1.073090	-0.591936
C202	C	1.623833	-0.573090	-0.091936
H203	H	1.214856	-1.092339	-0.635485
H204	H	1.714856	-0.592339	-0.135485
H205	H	1.217651	-1.068234	-0.559847
H206	H	1.717651	-0.568234	-0.059847
H207	H	1.189083	-1.125200	-0.571157
H208	H	1.689083	-0.625200	-0.071157
H209	H	1.126575	-1.039056	-0.610172
H210	H	1.626575	-0.539056	-0.110172
H211	H	1.098007	-1.096018	-0.621495
H212	H	1.598007	-0.596018	-0.121495
O213	O	1.137669	-0.307559	-0.792499
O214	O	1.637669	0.192441	-0.292499
C215	C	1.175499	-0.334553	-0.745809
C216	C	1.675499	0.165447	-0.245809
H217	H	1.144502	-0.335693	-0.692162
H218	H	1.644502	0.164307	-0.192162
H219	H	1.228742	-0.313656	-0.740151
H220	H	1.728742	0.186344	-0.240151
C221	C	1.224843	-0.389326	-0.840811
C222	C	1.724843	0.110674	-0.340811
C223	C	1.186769	-0.390731	-0.774923
C224	C	1.686769	0.109269	-0.274923
H225	H	1.231799	-0.423979	-0.858770
H226	H	1.731799	0.076021	-0.358770
H227	H	1.199359	-0.371139	-0.872267
H228	H	1.699359	0.128861	-0.372267
H229	H	1.269208	-0.371910	-0.836087
H230	H	1.769208	0.128090	-0.336087
H231	H	1.142402	-0.408141	-0.779649
H232	H	1.642402	0.091859	-0.279649
H233	H	1.212247	-0.408923	-0.743468
H234	H	1.712247	0.091077	-0.243468
H235	H	1.103455	-0.283006	-1.115559
H236	H	1.603455	0.216994	-0.615559
H237	H	0.939971	-0.166335	-1.109027
H238	H	1.439971	0.333665	-0.609027
H239	H	1.124954	-0.298489	-0.652974
H240	H	1.624954	0.201511	-0.152974
O241	O	0.959905	-0.180764	-0.785418
O242	O	1.459905	0.319236	-0.285418
C243	C	0.888907	-0.193690	-0.764585
C244	C	1.388907	0.306310	-0.264585
H245	H	0.885280	-0.212311	-0.711061
H246	H	1.385280	0.287689	-0.211061
H247	H	0.866801	-0.222425	-0.805044
H248	H	1.366801	0.277575	-0.305044
C249	C	0.850568	-0.120967	-0.825215
C250	C	1.350568	0.379033	-0.325215
C251	C	0.846113	-0.143834	-0.759473
C252	C	1.346113	0.356166	-0.259473
H253	H	0.824169	-0.090215	-0.822065
H254	H	1.324169	0.409785	-0.322065
H255	H	0.898401	-0.112259	-0.839253
H256	H	1.398401	0.387741	-0.339253
H257	H	0.832148	-0.144918	-0.858924
H258	H	1.332148	0.355082	-0.358924
H259	H	0.864541	-0.119886	-0.725768
H260	H	1.364541	0.380114	-0.225768
H261	H	0.798282	-0.152537	-0.745430
H262	H	1.298282	0.347463	-0.245430
O263	O	1.171724	-0.785944	-0.520068
O264	O	1.671724	-0.285944	-0.020068
C265	C	1.215703	-0.815058	-0.481818
C266	C	1.715703	-0.315058	0.018182
H267	H	1.188728	-0.822473	-0.427376
H268	H	1.688728	-0.322473	0.072624
H269	H	1.267627	-0.792264	-0.476213
H270	H	1.767627	-0.292264	0.023787
C271	C	1.263174	-0.858530	-0.588015
C272	C	1.763174	-0.358530	-0.088015
C273	C	1.230039	-0.867640	-0.521151
C274	C	1.730039	-0.367640	-0.021151
H275	H	1.272020	-0.890964	-0.612278
H276	H	1.772020	-0.390964	-0.112278
H277	H	1.233546	-0.838914	-0.613786
H278	H	1.733546	-0.338914	-0.113786
H279	H	1.306440	-0.839533	-0.583335
H280	H	1.806440	-0.339533	-0.083335
H281	H	1.186770	-0.886631	-0.525832
H282	H	1.686770	-0.386631	-0.025832
H283	H	1.259660	-0.887261	-0.495382
H284	H	1.759660	-0.387261	0.004618
H285	H	0.298078	-0.283064	-0.309551
H286	H	0.798078	0.216936	0.190449
H287	H	0.947499	-1.033018	-0.295570
H288	H	1.447499	-0.533018	0.204430
O289	O	0.437171	-0.284028	-0.307976
O290	O	0.937171	0.215972	0.192024
C291	C	0.477944	-0.251694	-0.264243
C292	C	0.977944	0.248306	0.235757
H293	H	0.455606	-0.211026	-0.259102
H294	H	0.955606	0.288974	0.240898
H295	H	0.534629	-0.248936	-0.288287
H296	H	1.034629	0.251064	0.211713
C297	C	0.503524	-0.324987	-0.197252
C298	C	1.003524	0.175013	0.302748
C299	C	0.476084	-0.275039	-0.190933
C300	C	0.976084	0.224961	0.309067
H301	H	0.502380	-0.339388	-0.152032
H302	H	1.002380	0.160612	0.347968
H303	H	0.476057	-0.346772	-0.226717
H304	H	0.976057	0.153228	0.273283
H305	H	0.550759	-0.322681	-0.217291
H306	H	1.050759	0.177319	0.282709
H307	H	0.428848	-0.277346	-0.170903
H308	H	0.928848	0.222654	0.329097
H309	H	0.503544	-0.253255	-0.161463
H310	H	1.003544	0.246745	0.338537
O311	O	0.954216	-0.176615	-0.640262
O312	O	1.454216	0.323385	-0.140262
C313	C	0.960922	-0.181441	-0.567772
C314	C	1.460922	0.318559	-0.067772
H315	H	1.014908	-0.196726	-0.559902
H316	H	1.514908	0.303274	-0.059902
H317	H	0.918238	-0.209882	-0.545175
H318	H	1.418238	0.290118	-0.045175
C319	C	0.886675	-0.108874	-0.539412
C320	C	1.386675	0.391126	-0.039412
C321	C	0.952983	-0.127643	-0.529746
C322	C	1.452983	0.372357	-0.029746
H323	H	0.881775	-0.075690	-0.515954
H324	H	1.381775	0.424310	-0.015954
H325	H	0.882155	-0.105623	-0.588250
H326	H	1.382155	0.394377	-0.088250
H327	H	0.851113	-0.132580	-0.520581
H328	H	1.351113	0.367420	-0.020581
H329	H	0.988544	-0.103941	-0.548584
H330	H	1.488544	0.396059	-0.048584
H331	H	0.957509	-0.130889	-0.480910
H332	H	1.457509	0.369111	0.019090
H333	H	0.947247	-0.431618	-0.295417
H334	H	1.447247	0.068382	0.204583
O335	O	0.940180	-0.929624	-0.288144
O336	O	1.440180	-0.429624	0.211856
C337	C	0.978504	-0.895599	-0.244247
C338	C	1.478504	-0.395599	0.255753
H339	H	1.032908	-0.886551	-0.271310
H340	H	1.532908	-0.386551	0.228690
H341	H	0.984200	-0.914954	-0.192334
H342	H	1.484200	-0.414954	0.307666
C343	C	0.872359	-0.855623	-0.196622
C344	C	1.372359	-0.355623	0.303378
C345	C	0.939178	-0.844507	-0.229864
C346	C	1.439178	-0.344507	0.270136
H347	H	0.848100	-0.824108	-0.187747
H348	H	1.348100	-0.324108	0.312253
H349	H	0.846539	-0.878548	-0.226194
H350	H	1.346539	-0.378548	0.273806
H351	H	0.877115	-0.871753	-0.153365
H352	H	1.377115	-0.371753	0.346635
H353	H	0.934421	-0.828383	-0.273124
H354	H	1.434421	-0.328383	0.226876
H355	H	0.964997	-0.821579	-0.200299
H356	H	1.464997	-0.321579	0.299701
H357	H	0.934579	-0.162532	-0.975457
H358	H	1.434579	0.337468	-0.475457
H359	H	0.304797	-0.166579	-0.473460
H360	H	0.804797	0.333421	0.026540
H361	H	0.627060	-0.302234	-0.282493
H362	H	1.127060	0.197766	0.217507
O363	O	0.893066	-0.678633	-0.241127
O364	O	1.393066	-0.178633	0.258873
C365	C	0.851700	-0.714488	-0.199724
C366	C	1.351700	-0.214488	0.300276
H367	H	0.880500	-0.752499	-0.198482
H368	H	1.380500	-0.252499	0.301518
H369	H	0.799182	-0.722584	-0.223340
H370	H	1.299182	-0.222584	0.276660
C371	C	0.803183	-0.644688	-0.125798
C372	C	1.303183	-0.144688	0.374202
C373	C	0.838558	-0.691371	-0.124268
C374	C	1.338558	-0.191371	0.375732
H375	H	0.795073	-0.630428	-0.079254
H376	H	1.295073	-0.130428	0.420746
H377	H	0.831050	-0.620531	-0.153693
H378	H	1.331050	-0.120531	0.346307
H379	H	0.759422	-0.651441	-0.145481
H380	H	1.259422	-0.151441	0.354519
H381	H	0.882321	-0.684617	-0.104593
H382	H	1.382321	-0.184617	0.395407
H383	H	0.810698	-0.715527	-0.096368
H384	H	1.310698	-0.215527	0.403632
H385	H	0.760634	-0.298402	-0.287859
H386	H	1.260634	0.201598	0.212141
O387	O	1.124786	-0.534689	-0.473189
O388	O	1.624786	-0.034689	0.026811
C389	C	1.166120	-0.498831	-0.514616
C390	C	1.666120	0.001169	-0.014616
H391	H	1.167402	-0.459030	-0.485823
H392	H	1.667402	0.040970	0.014177
H393	H	1.142412	-0.495274	-0.567085
H394	H	1.642412	0.004726	-0.067085
C395	C	1.239992	-0.567116	-0.563248
C396	C	1.739992	-0.067116	-0.063248
C397	C	1.241571	-0.518232	-0.527881
C398	C	1.741571	-0.018232	-0.027881
H399	H	1.286533	-0.579084	-0.571434
H400	H	1.786533	-0.079084	-0.071434
H401	H	1.212143	-0.591275	-0.535340
H402	H	1.712143	-0.091275	-0.035340
H403	H	1.220232	-0.564145	-0.606968
H404	H	1.720232	-0.064145	-0.106968
H405	H	1.261323	-0.521205	-0.484158
H406	H	1.761323	-0.021205	0.015842
H407	H	1.269426	-0.494074	-0.555782
H408	H	1.769426	0.005926	-0.055782
O409	O	0.444551	-0.157586	-0.486138
O410	O	0.944551	0.342414	0.013862
C411	C	0.517031	-0.162369	-0.479369
C412	C	1.017031	0.337631	0.020631
H413	H	0.526122	-0.201743	-0.456576
H414	H	1.026122	0.298257	0.043424
H415	H	0.536423	-0.129646	-0.442752
H416	H	1.036423	0.370354	0.057248
C417	C	0.546559	-0.110247	-0.580224
C418	C	1.046559	0.389753	-0.080224
C419	C	0.557726	-0.158610	-0.552235
C420	C	1.057726	0.341390	-0.052235
H421	H	0.571664	-0.107926	-0.625170
H422	H	1.071664	0.392074	-0.125170
H423	H	0.497729	-0.107023	-0.584784
H424	H	0.997729	0.392977	-0.084784
H425	H	0.562720	-0.082984	-0.549703
H426	H	1.062720	0.417016	-0.049703
H427	H	0.541558	-0.185872	-0.582752
H428	H	1.041558	0.314128	-0.082752
H429	H	0.606556	-0.161839	-0.547682
H430	H	1.106556	0.338161	-0.047682
H431	H	0.767352	-0.181922	-0.451772
H432	H	1.267352	0.318078	0.048228
O433	O	1.124581	-0.427081	-0.473151
O434	O	1.624581	0.072919	0.026849
C435	C	1.086231	-0.397955	-0.517030
C436	C	1.586231	0.102045	-0.017030
H437	H	1.031818	-0.390633	-0.489963
H438	H	1.531818	0.109367	0.010037
H439	H	1.080554	-0.420692	-0.568955
H440	H	1.580554	0.079308	-0.068955
C441	C	1.192339	-0.354308	-0.564628
C442	C	1.692339	0.145692	-0.064628
C443	C	1.125510	-0.345312	-0.531380
C444	C	1.625510	0.154688	-0.031380
H445	H	1.216569	-0.321837	-0.573483
H446	H	1.716569	0.178163	-0.073483
H447	H	1.218177	-0.373933	-0.535067
H448	H	1.718177	0.126067	-0.035067
H449	H	1.187599	-0.373257	-0.607895
H450	H	1.687599	0.126743	-0.107895
H451	H	1.130251	-0.326370	-0.488110
H452	H	1.630251	0.173630	0.011890
H453	H	1.099673	-0.325683	-0.560934
H454	H	1.599673	0.174317	-0.060934
H455	H	0.947285	-0.530684	-0.295440
H456	H	1.447285	-0.030684	0.204560
H457	H	1.164286	-0.682559	-0.512761
H458	H	1.664286	-0.182559	-0.012761
H459	H	0.900500	-0.781888	-0.248586
H460	H	1.400500	-0.281888	0.251414
H461	H	1.117527	-0.933780	-0.465886
H462	H	1.617527	-0.433780	0.034114
