data_functionalizedCrystal
_audit_creation_method	'MofGen! by Chris Wilmer'
_symmetry_space_group_name_H-M	'P1'
_symmetry_Int_Tables_number	1
_symmetry_cell_setting	triclinic
loop_
_symmetry_equiv_pos_as_xyz
  x,y,z
_cell_length_a	19.288840
_cell_length_b	10.723023
_cell_length_c	9.198806
_cell_angle_alpha	90.002425
_cell_angle_beta	90.010911
_cell_angle_gamma	83.796782
loop_
_atom_site_label
_atom_site_type_symbol
_atom_site_fract_x
_atom_site_fract_y
_atom_site_fract_z
O1	O	0.922370	0.155506	0.121132
O2	O	0.720244	0.176536	0.121082
O3	O	0.825970	-0.015654	0.121102
O4	O	0.816645	0.347696	0.121112
O5	O	0.825962	-0.015655	-0.120683
O6	O	0.720236	0.176535	-0.120703
O7	O	0.922362	0.155504	-0.120653
Cu8	Cu	0.821299	0.166020	-0.142755
Cu9	Cu	0.821308	0.166021	0.143184
O10	O	0.816637	0.347695	-0.120673
C11	C	0.694359	0.175864	0.000183
C12	C	0.617241	0.173849	0.000163
C13	C	0.581036	0.172881	0.131964
C14	C	0.508576	0.170973	0.131982
C15	C	0.472327	0.170008	0.000191
C16	C	0.508541	0.170983	-0.131627
C17	C	0.580998	0.172903	-0.131641
C18	C	0.362501	0.093878	-0.100761
C19	C	0.290046	0.091950	-0.100741
C20	C	0.248845	0.164090	0.000229
C21	C	0.280110	0.238142	0.101204
C22	C	0.352567	0.240063	0.101190
C23	C	0.393760	0.167926	0.000192
C24	C	0.134071	0.161056	0.132058
C25	C	0.061610	0.159155	0.132070
C26	C	0.061576	0.159152	-0.131542
C27	C	0.134035	0.161065	-0.131551
C28	C	0.170278	0.162011	0.000254
C29	C	0.825287	-0.062140	0.000211
C30	C	0.823257	-0.200651	0.000215
C31	C	0.822356	-0.262397	0.125469
C32	C	0.820258	-0.405556	0.125476
C33	C	0.948247	0.156177	0.000250
C34	C	1.025365	0.158192	0.000279
C35	C	0.817319	0.394181	0.000221
C36	C	0.819349	0.532692	0.000227
N37	N	0.821297	0.166018	-0.343869
C38	C	0.865798	0.085147	-0.583461
C39	C	0.865789	0.085149	-0.416049
N40	N	0.821315	0.166013	0.344298
H41	H	0.163581	0.161839	0.239381
C42	C	0.917246	-0.008369	-0.332134
H43	H	0.910496	0.003912	-0.230623
H44	H	0.909318	-0.091631	-0.357009
H45	H	0.963679	0.004942	-0.356984
H46	H	0.903891	0.015917	-0.645550
H47	H	0.783227	0.235252	-0.593612
H48	H	0.822471	-0.253772	-0.107013
H49	H	0.783209	0.235250	-0.405984
H50	H	0.819487	-0.458657	0.232710
C51	C	0.620827	0.173947	-0.276628
H52	H	0.588864	0.173091	-0.355119
H53	H	0.644140	0.247438	-0.282118
H54	H	0.654045	0.101930	-0.282103
C55	C	0.823414	-0.190647	0.270332
H56	H	0.824690	-0.103841	0.251322
H57	H	0.782672	-0.202164	0.324514
H58	H	0.863544	-0.221662	0.324523
H59	H	0.820127	-0.414217	-0.107013
H60	H	0.610541	0.173651	0.239289
H61	H	0.479092	0.170187	0.239313
H62	H	0.246565	0.296891	0.183419
C63	C	0.386947	0.321681	0.212082
H64	H	0.435997	0.312533	0.197565
H65	H	0.369187	0.407092	0.199208
H66	H	0.376874	0.295803	0.307846
C67	C	0.021780	0.158097	0.277055
H68	H	-0.026566	0.156833	0.258190
H69	H	0.038616	0.085659	0.331203
H70	H	0.028706	0.231166	0.331211
C71	C	0.021683	0.158503	-0.276509
H72	H	-0.026664	0.157340	-0.257625
H73	H	0.028670	0.231692	-0.330358
H74	H	0.038415	0.086181	-0.330971
C75	C	0.173864	0.162113	-0.276533
H76	H	0.141901	0.161256	-0.355023
H77	H	0.197173	0.235610	-0.282018
H78	H	0.207086	0.090102	-0.282016
H79	H	0.264596	0.031646	-0.182954
H80	H	0.396041	0.035130	-0.182989
H81	H	0.479022	0.170200	-0.238932
