data_functionalizedCrystal
_audit_creation_method	'MofGen! by Chris Wilmer'
_symmetry_space_group_name_H-M	'P1'
_symmetry_Int_Tables_number	1
_symmetry_cell_setting	triclinic
loop_
_symmetry_equiv_pos_as_xyz
  x,y,z
_cell_length_a	16.974897
_cell_length_b	15.455301
_cell_length_c	16.992695
_cell_angle_alpha	87.173129
_cell_angle_beta	92.972799
_cell_angle_gamma	96.650569
loop_
_atom_site_label
_atom_site_type_symbol
_atom_site_fract_x
_atom_site_fract_y
_atom_site_fract_z
O1	O	1.062125	0.146612	-0.106206
O2	O	0.831990	0.130476	-0.118237
O3	O	0.946134	0.138473	0.001923
O4	O	0.947980	0.138616	-0.226366
O5	O	0.939537	-0.006253	0.008066
O6	O	0.825392	-0.014249	-0.112094
O7	O	1.055527	0.001887	-0.100063
Cu8	Cu	0.939857	-0.019396	-0.105518
Cu9	Cu	0.947660	0.151759	-0.112782
O10	O	0.941383	-0.006110	-0.220223
C11	C	0.799108	0.056039	-0.114592
C12	C	0.710959	0.049858	-0.112873
N13	N	0.934375	-0.139777	-0.100408
C14	C	0.673135	0.125838	-0.115416
C15	C	0.590309	0.120018	-0.113812
C16	C	0.545308	0.038217	-0.109661
C17	C	0.583137	-0.037768	-0.107121
C18	C	0.665962	-0.031947	-0.108730
C19	C	0.297212	0.012348	-0.104496
C20	C	0.214382	0.006532	-0.102885
C21	C	0.221560	0.164319	-0.109578
C22	C	0.304386	0.170133	-0.111182
C23	C	0.342208	0.094148	-0.108646
N24	N	0.460645	0.032266	-0.108020
N25	N	0.426868	0.100100	-0.110293
C26	C	0.983421	-0.181725	-0.146161
C27	C	0.979286	-0.272824	-0.142291
C28	C	0.926100	-0.321972	-0.092673
C29	C	0.877052	-0.280017	-0.046914
C30	C	0.881192	-0.188920	-0.050780
C31	C	0.908240	-0.594808	-0.075994
C32	C	0.904102	-0.685911	-0.072133
C33	C	1.006337	-0.678712	-0.167510
C34	C	1.010469	-0.587613	-0.171375
C35	C	0.961424	-0.545666	-0.125613
N36	N	0.921869	-0.415089	-0.088718
N37	N	0.965659	-0.452550	-0.129564
C38	C	1.088409	0.076326	-0.103708
C39	C	1.176558	0.082512	-0.105427
C40	C	0.940462	0.065944	0.034212
C41	C	0.933380	0.065447	0.121270
N42	N	0.953148	0.272140	-0.117886
C43	C	0.947055	0.066421	-0.252512
C44	C	0.954138	0.066923	-0.339570
C45	C	1.001713	0.070238	0.171377
C46	C	0.995054	0.069779	0.253176
C47	C	0.920061	0.064524	0.284867
C48	C	0.851723	0.059736	0.234753
C49	C	0.858383	0.060201	0.152955
C50	C	0.892459	0.062600	0.528518
C51	C	0.885805	0.062133	0.610323
C52	C	1.029136	0.072178	0.628740
C53	C	1.035789	0.072637	0.546940
C54	C	0.967451	0.067854	0.496833
N55	N	0.913253	0.064052	0.368479
N56	N	0.974260	0.068332	0.413222
H57	H	0.709770	0.192449	-0.118794
H58	H	1.026727	-0.141715	-0.186571
Cl59	Cl	1.130071	0.079272	0.507105
Cl60	Cl	1.080963	0.075799	0.316165
Cl61	Cl	1.040945	-0.325555	-0.199814
H62	H	0.177742	-0.060083	-0.099526
H63	H	1.053781	-0.547602	-0.211777
Cl64	Cl	0.174008	0.259838	-0.112758
Cl65	Cl	1.115041	0.078194	0.691735
H66	H	1.046267	-0.712875	-0.204765
H67	H	0.860787	-0.725926	-0.031728
H68	H	0.868304	-0.560666	-0.038731
Cl69	Cl	0.360954	0.272973	-0.116396
H70	H	0.833750	-0.320041	-0.006509
H71	H	0.696756	-0.093818	-0.106663
H72	H	0.546490	-0.104373	-0.103745
Cl73	Cl	0.819539	-0.136184	0.006749
H74	H	1.062780	0.074512	0.145581
Cl75	Cl	0.791521	0.055521	0.650161
H76	H	0.327997	-0.049525	-0.102425
H77	H	0.836814	0.058705	0.487731
Cl78	Cl	0.757447	0.053140	0.274593
H79	H	0.802739	0.056300	0.112158
H80	H	0.559517	0.181889	-0.115883
