data_functionalizedCrystal
_audit_creation_method	'MofGen! by Chris Wilmer'
_symmetry_space_group_name_H-M	'P1'
_symmetry_Int_Tables_number	1
_symmetry_cell_setting	triclinic
loop_
_symmetry_equiv_pos_as_xyz
  x,y,z
_cell_length_a	19.077409
_cell_length_b	21.295417
_cell_length_c	19.077271
_cell_angle_alpha	87.717260
_cell_angle_beta	85.513571
_cell_angle_gamma	92.331622
loop_
_atom_site_label
_atom_site_type_symbol
_atom_site_fract_x
_atom_site_fract_y
_atom_site_fract_z
Zn1	Zn	1.061584	-0.225300	0.355437
Zn2	Zn	1.066251	-0.326137	0.237549
Zn3	Zn	0.948461	-0.225293	0.242284
Zn4	Zn	0.943656	-0.334946	0.360112
O5	O	1.004988	-0.277919	0.298845
O6	O	1.160853	-0.234993	0.335860
O7	O	1.054590	-0.309071	0.139530
O8	O	0.963524	-0.137204	0.257319
O9	O	1.164281	-0.309078	0.249249
O10	O	1.046636	-0.137209	0.340452
O11	O	0.968050	-0.234982	0.143009
O12	O	0.849174	-0.243523	0.261853
O13	O	0.955336	-0.324090	0.458139
O14	O	0.845645	-0.324083	0.348420
O15	O	1.041977	-0.243534	0.454704
O16	O	1.049931	-0.415396	0.253782
O17	O	0.959861	-0.421868	0.343828
C18	C	0.821831	-0.284759	0.306158
C19	C	0.743475	-0.287700	0.309303
C20	C	0.302215	-0.308750	0.331892
C21	C	0.375840	-0.305990	0.328924
C22	C	0.414464	-0.262605	0.282444
C23	C	0.379460	-0.221981	0.238924
C24	C	0.305837	-0.224744	0.241889
C25	C	0.634848	-0.249839	0.268748
C26	C	0.708476	-0.247078	0.265787
C27	C	0.704851	-0.331089	0.355787
C28	C	0.631226	-0.333846	0.358751
C29	C	0.596229	-0.293224	0.315228
N30	N	0.489720	-0.259782	0.279410
N31	N	0.520974	-0.296050	0.318259
C32	C	1.004900	-0.441473	0.298813
C33	C	1.004926	-0.511440	0.298821
C34	C	1.048175	-0.544254	0.342141
C35	C	1.048199	-0.609997	0.342157
C36	C	1.004982	-0.642921	0.298840
C37	C	0.961724	-0.610100	0.255517
C38	C	0.961696	-0.544359	0.255507
N39	N	1.002150	-0.744061	0.237359
N40	N	1.002181	-0.806512	0.237370
C41	C	1.005063	-0.840994	0.298869
N42	N	1.007926	-0.810666	0.360357
N43	N	1.007899	-0.748210	0.360344
C44	C	1.005007	-0.714206	0.298847
C45	C	1.048340	-0.945094	0.342211
C46	C	1.048360	-1.010837	0.342229
C47	C	0.961889	-1.010939	0.255582
C48	C	0.961866	-0.945197	0.255571
C49	C	1.005095	-0.912278	0.298884
C50	C	1.188861	-0.271053	0.291505
C51	C	1.267216	-0.268128	0.288377
C52	C	0.997600	-0.284795	0.482715
C53	C	0.994452	-0.287725	0.561069
C54	C	1.005096	-0.113727	0.298892
C55	C	1.005141	-0.043758	0.298912
C56	C	1.038080	-0.247162	0.596093
C57	C	1.035113	-0.249913	0.669715
C58	C	0.988522	-0.293231	0.708312
C59	C	0.944889	-0.333795	0.673284
C60	C	0.947852	-0.331041	0.599663
C61	C	0.974817	-0.305963	0.928687
C62	C	0.971859	-0.308716	1.002313
C63	C	1.062083	-0.224833	0.998740
C64	C	1.065045	-0.222085	0.925118
C65	C	1.021410	-0.262647	0.890095
N66	N	0.985490	-0.296045	0.783566
N67	N	1.024439	-0.259829	0.814843
C68	C	1.012341	-0.271084	1.115691
C69	C	1.015487	-0.268153	1.037337
H70	H	0.410913	-0.186658	0.201076
H71	H	1.070642	-0.216884	0.698228
H72	H	0.926651	-0.918477	0.220292
O73	O	1.090341	-0.913211	0.384359
C74	C	1.128525	-0.956275	0.422594
H75	H	1.099572	-1.004330	0.426167
H76	H	1.183128	-0.960266	0.394694
C77	C	1.171148	-0.873987	0.492836
C78	C	1.135584	-0.933009	0.497229
H79	H	1.175506	-0.859635	0.538874
H80	H	1.145425	-0.844974	0.467075
H81	H	1.216647	-0.877321	0.469583
H82	H	1.090084	-0.929673	0.520475
H83	H	1.161300	-0.962021	0.522997
H84	H	1.076022	-0.211890	0.564672
H85	H	0.939297	-0.339001	0.900181
H86	H	1.102987	-0.186813	0.893697
O87	O	0.926632	-0.350876	1.039733
C88	C	0.942722	-0.412372	1.021127
H89	H	0.971964	-0.410673	0.966590
H90	H	0.977288	-0.433771	1.061108
C91	C	0.838189	-0.455024	1.087452
C92	C	0.874100	-0.452937	1.020465
H93	H	0.795860	-0.480048	1.087046
H94	H	0.827350	-0.413593	1.099989
H95	H	0.867001	-0.472855	1.120762
H96	H	0.845291	-0.435099	0.987158
H97	H	0.884933	-0.494366	1.007922
O98	O	1.090254	-0.641941	0.384143
C99	C	1.137457	-0.676729	0.342229
H100	H	1.114786	-0.685552	0.289781
H101	H	1.190002	-0.649109	0.332432
C102	C	1.176509	-0.729288	0.444946
C103	C	1.148661	-0.740128	0.380530
H104	H	1.183424	-0.768394	0.468572
H105	H	1.144710	-0.705849	0.473184
H106	H	1.220293	-0.706269	0.436772
H107	H	1.104874	-0.763139	0.388705
H108	H	1.180453	-0.763573	0.352294
H109	H	0.277341	-0.191663	0.206456
H110	H	1.097607	-0.191809	1.027263
O111	O	0.745890	-0.204920	0.220562
C112	C	0.699214	-0.169652	0.182791
H113	H	0.646818	-0.197305	0.182416
H114	H	0.690379	-0.123134	0.209007
C115	C	0.795296	-0.122644	0.107085
C116	C	0.730944	-0.156611	0.106620
H117	H	0.814868	-0.114597	0.060100
H118	H	0.826743	-0.146404	0.132534
H119	H	0.787924	-0.083884	0.128935
H120	H	0.738318	-0.195374	0.084779
H121	H	0.699498	-0.132858	0.081166
O122	O	1.090271	-1.042748	0.384392
C123	C	1.048293	-1.084003	0.431495
H124	H	0.992586	-1.066473	0.438023
H125	H	1.046777	-1.133114	0.409805
C126	C	1.148157	-1.107939	0.495412
C127	C	1.079739	-1.086405	0.503434
H128	H	1.167555	-1.109424	0.539786
H129	H	1.176440	-1.080147	0.463676
H130	H	1.146884	-1.148863	0.477334
H131	H	1.081013	-1.045480	0.521503
H132	H	1.051457	-1.114191	0.535175
H133	H	1.083373	-0.517454	0.377411
H134	H	0.906950	-0.369063	0.704715
O135	O	0.905555	-0.370536	0.565662
C136	C	0.920190	-0.433373	0.583032
H137	H	0.975688	-0.435201	0.601032
H138	H	0.880662	-0.452843	0.627261
C139	C	0.846443	-0.470998	0.495835
C140	C	0.914608	-0.473243	0.517937
H141	H	0.842996	-0.495593	0.455683
H142	H	0.836580	-0.428664	0.484134
H143	H	0.813510	-0.487222	0.532698
H144	H	0.947539	-0.457012	0.481077
H145	H	0.924476	-0.515576	0.529630
O146	O	0.264807	-0.350948	0.377065
C147	C	0.311489	-0.386199	0.414849
H148	H	0.365118	-0.385291	0.383855
H149	H	0.317199	-0.364929	0.468118
C150	C	0.216458	-0.455779	0.464102
C151	C	0.282324	-0.454668	0.426031
H152	H	0.198467	-0.498013	0.471002
H153	H	0.185007	-0.432029	0.438648
H154	H	0.221225	-0.438051	0.508488
H155	H	0.277555	-0.472388	0.381642
H156	H	0.313775	-0.478422	0.451477
O157	O	0.919705	-0.642154	0.213538
C158	C	0.872537	-0.683396	0.255462
H159	H	0.895215	-0.694275	0.307914
H160	H	0.819968	-0.660343	0.265249
C161	C	0.833536	-0.731532	0.152759
C162	C	0.861393	-0.744897	0.217180
H163	H	0.826659	-0.769468	0.129144
H164	H	0.865312	-0.703744	0.124513
H165	H	0.789732	-0.712320	0.160924
H166	H	0.905200	-0.764102	0.209013
H167	H	0.829624	-0.772690	0.245423
H168	H	0.926696	-1.037746	0.220317
O169	O	0.409911	-0.345359	0.371233
C170	C	0.450682	-0.309688	0.415132
H171	H	0.462725	-0.260610	0.389919
H172	H	0.420227	-0.305856	0.468526
C173	C	0.505301	-0.402472	0.455985
C174	C	0.520097	-0.342196	0.425015
H175	H	0.548118	-0.422526	0.462085
H176	H	0.477831	-0.426505	0.426412
H177	H	0.479920	-0.399271	0.500477
H178	H	0.545470	-0.345399	0.380520
H179	H	0.547573	-0.318164	0.454581
H180	H	0.606362	-0.216764	0.233306
H181	H	0.733354	-0.364161	0.391220
H182	H	0.599783	-0.369176	0.396598
H183	H	0.926477	-0.517641	0.220230
