data_functionalizedCrystal
_audit_creation_method	'MofGen! by Chris Wilmer'
_symmetry_space_group_name_H-M	'P1'
_symmetry_Int_Tables_number	1
_symmetry_cell_setting	triclinic
loop_
_symmetry_equiv_pos_as_xyz
  x,y,z
_cell_length_a	17.639181
_cell_length_b	17.640280
_cell_length_c	17.639306
_cell_angle_alpha	87.821350
_cell_angle_beta	92.163142
_cell_angle_gamma	70.392638
loop_
_atom_site_label
_atom_site_type_symbol
_atom_site_fract_x
_atom_site_fract_y
_atom_site_fract_z
Zn1	Zn	1.340031	-0.596438	-0.055053
Zn2	Zn	1.329769	-0.696175	0.095177
Zn3	Zn	1.179584	-0.545973	0.034416
Zn4	Zn	1.230084	-0.706371	-0.055084
O5	O	1.269867	-0.636239	0.004864
O6	O	1.447535	-0.626521	-0.009684
O7	O	1.284417	-0.650863	0.187445
O8	O	1.184027	-0.443799	-0.002869
O9	O	1.439996	-0.699797	0.100690
O10	O	1.301907	-0.480876	-0.068601
O11	O	1.174077	-0.540510	0.142804
O12	O	1.077417	-0.550397	-0.002898
O13	O	1.270098	-0.717176	-0.155407
O14	O	1.114519	-0.668241	-0.068653
O15	O	1.350875	-0.636408	-0.155385
O16	O	1.333385	-0.806395	0.100661
O17	O	1.260148	-0.813886	-0.009735
C18	C	1.067741	-0.604950	-0.042372
C19	C	0.981277	-0.591588	-0.062593
C20	C	0.677162	-0.737927	0.158509
C21	C	0.595917	-0.725362	0.139500
C22	C	0.603826	-0.649255	0.024469
C23	C	0.685073	-0.661810	0.043470
C24	C	0.721734	-0.706148	0.110491
C25	C	0.729645	-0.630031	-0.004548
C26	C	0.810886	-0.642589	0.014450
C27	C	0.847554	-0.686926	0.081466
C28	C	0.802975	-0.718706	0.129488
C29	C	0.692983	-0.585698	-0.071571
C30	C	0.737555	-0.553919	-0.119589
C31	C	0.818796	-0.566472	-0.100589
C32	C	0.855464	-0.610809	-0.033573
C33	C	0.863375	-0.534692	-0.148611
C34	C	0.944616	-0.547250	-0.129613
C35	C	0.936705	-0.623367	-0.014575
C36	C	1.301158	-0.838376	0.052042
C37	C	1.314622	-0.924868	0.072218
C38	C	1.167969	-1.228869	-0.148595
C39	C	1.180616	-1.310136	-0.129614
C40	C	1.256964	-1.302303	-0.014737
C41	C	1.244326	-1.221034	-0.033711
C42	C	1.199828	-1.184324	-0.100640
C43	C	1.276185	-1.176489	0.014244
C44	C	1.263545	-1.095227	-0.004726
C45	C	1.219046	-1.058510	-0.071651
C46	C	1.187187	-1.103062	-0.119611
C47	C	1.320678	-1.213200	0.081176
C48	C	1.352537	-1.168655	0.129132
C49	C	1.339902	-1.087393	0.110159
C50	C	1.295403	-1.050675	0.043233
C51	C	1.371761	-1.042841	0.158118
C52	C	1.359121	-0.961579	0.139148
C53	C	1.282763	-0.969413	0.024263
C54	C	1.472782	-0.667651	0.052284
C55	C	1.559253	-0.681037	0.072492
C56	C	1.317265	-0.683559	-0.182137
C57	C	1.337463	-0.703723	-0.261826
C58	C	1.238478	-0.433320	-0.042509
C59	C	1.225103	-0.346848	-0.062697
C60	C	1.116681	-0.482807	-0.640134
C61	C	1.135680	-0.501774	-0.715006
C62	C	1.250566	-0.616672	-0.668506
C63	C	1.231578	-0.597712	-0.593628
C64	C	1.164634	-0.530779	-0.579449
C65	C	1.279532	-0.645685	-0.532944
C66	C	1.260543	-0.626729	-0.458073
C67	C	1.193601	-0.559801	-0.443887
C68	C	1.145646	-0.511823	-0.504579
C69	C	1.346472	-0.712621	-0.547125
C70	C	1.394425	-0.760594	-0.486440
C71	C	1.375440	-0.741635	-0.411568
C72	C	1.308498	-0.674707	-0.397382
C73	C	1.423395	-0.789612	-0.350876
C74	C	1.404407	-0.770657	-0.276005
C75	C	1.289509	-0.655751	-0.322511
C76	C	1.222689	-0.589055	0.191135
C77	C	1.202608	-0.568694	0.270808
H78	H	0.559629	-0.751247	0.178606
H79	H	0.966555	-0.659466	0.040003
C80	C	1.305907	-1.342692	0.058886
N81	N	1.342773	-1.373114	0.114339
C82	C	0.823033	-0.485915	-0.222328
N83	N	0.792647	-0.449171	-0.277849
H84	H	1.388765	-1.198555	0.183627
H85	H	1.154681	-1.346406	-0.168676
C86	C	1.420698	-1.083231	0.231744
N87	N	1.457556	-1.113652	0.287201
H88	H	1.385062	-0.925309	0.178198
H89	H	1.235004	-0.601240	-0.310966
H90	H	0.707012	-0.774025	0.213087
H91	H	1.178137	-0.544373	-0.382921
C92	C	1.072006	-0.438191	-0.488978
N93	N	1.016542	-0.382734	-0.477227
C94	C	0.993647	-0.512289	-0.182435
N95	N	1.030579	-0.485957	-0.222223
H96	H	1.246535	-0.939525	-0.030242
C97	C	1.043041	-0.409174	-0.624534
N98	N	0.987577	-0.353717	-0.612783
C99	C	1.119005	-1.188479	-0.222214
N100	N	1.082120	-1.158054	-0.277658
H101	H	1.096628	-0.462701	-0.764416
C102	C	1.205142	-0.969118	-0.092519
N103	N	1.194671	-0.901789	-0.108238
H104	H	1.305069	-0.671171	-0.680062
H105	H	0.913703	-0.697142	0.096937
C106	C	1.367361	-0.733469	-0.629486
N107	N	1.383095	-0.749168	-0.691521
H108	H	1.448929	-0.815093	-0.497996
H109	H	1.330971	-1.279370	0.096618
H110	H	0.626832	-0.575478	-0.087038
C111	C	1.496892	-0.863375	-0.366485
N112	N	1.552201	-0.918983	-0.378242
C113	C	1.457154	-0.823433	-0.209249
N114	N	1.496881	-0.863190	-0.158967
H115	H	0.573965	-0.613158	-0.030101
H116	H	1.150959	-1.073173	-0.174116
H117	H	0.707695	-0.517822	-0.174159
C118	C	0.843307	-0.767477	0.203216
N119	N	0.873685	-0.804211	0.258745
