data_functionalizedCrystal
_audit_creation_method	'MofGen! by Chris Wilmer'
_symmetry_space_group_name_H-M	'P1'
_symmetry_Int_Tables_number	1
_symmetry_cell_setting	triclinic
loop_
_symmetry_equiv_pos_as_xyz
  x,y,z
_cell_length_a	19.121102
_cell_length_b	12.759400
_cell_length_c	12.759393
_cell_angle_alpha	90.031564
_cell_angle_beta	87.539308
_cell_angle_gamma	92.430863
loop_
_atom_site_label
_atom_site_type_symbol
_atom_site_fract_x
_atom_site_fract_y
_atom_site_fract_z
Zn1	Zn	1.073801	0.486830	-0.662514
Zn2	Zn	1.073731	0.662544	-0.486829
Zn3	Zn	0.956345	0.479378	-0.479357
Zn4	Zn	0.956337	0.654961	-0.654979
O5	O	1.015054	0.570928	-0.570920
O6	O	1.172077	0.516432	-0.645490
O7	O	1.058133	0.638302	-0.338815
O8	O	0.971958	0.333348	-0.503679
O9	O	1.172025	0.645528	-0.516415
O10	O	1.058253	0.338823	-0.638244
O11	O	0.971890	0.503731	-0.333325
O12	O	0.858059	0.496377	-0.496373
O13	O	0.971946	0.632602	-0.803001
O14	O	0.858053	0.625377	-0.625401
O15	O	1.058246	0.509078	-0.808537
O16	O	1.058125	0.808557	-0.509109
O17	O	0.971877	0.802986	-0.632647
C18	C	0.832572	0.559246	-0.559259
C19	C	0.754505	0.554273	-0.554295
C20	C	1.015012	0.843893	-0.570895
C21	C	1.015058	0.960673	-0.570924
C22	C	1.015114	0.296899	-0.570969
C23	C	1.015140	0.180124	-0.570989
C24	C	0.717845	0.619202	-0.619036
C25	C	0.644493	0.614516	-0.614377
C26	C	0.607803	0.544906	-0.544972
C27	C	0.644468	0.479970	-0.480229
C28	C	0.717819	0.484652	-0.484893
C29	C	0.386331	0.527401	-0.527537
C30	C	0.312975	0.522727	-0.522875
C31	C	0.313005	0.657271	-0.657025
C32	C	0.386357	0.661951	-0.661680
C33	C	0.423016	0.597012	-0.596940
C34	C	0.532825	0.540117	-0.540206
C35	C	0.497992	0.601796	-0.601712
C36	C	1.198248	0.582657	-0.582627
C37	C	1.276315	0.587655	-0.587615
C38	C	1.015103	0.570825	-0.844956
C39	C	1.015124	0.570782	-0.961734
C40	C	1.060018	1.018404	-0.506675
C41	C	1.060061	1.128131	-0.506710
C42	C	0.970179	1.122384	-0.635246
C43	C	0.970140	1.012660	-0.635215
C44	C	1.104936	0.966417	-0.442383
C45	C	1.149898	1.024149	-0.378128
C46	C	1.149941	1.133875	-0.378163
C47	C	1.105022	1.185870	-0.442454
C48	C	1.060066	0.506456	-1.019481
C49	C	1.060083	0.506419	-1.129206
C50	C	0.970212	0.635042	-1.123428
C51	C	0.970193	0.635073	-1.013705
C52	C	1.104997	0.442165	-0.967511
C53	C	1.149944	0.377835	-1.025258
C54	C	1.149961	0.377799	-1.134983
C55	C	1.105031	0.442091	-1.186961
C56	C	1.015045	0.570957	-0.297952
C57	C	1.015160	0.570714	-0.181183
H58	H	0.614647	0.667389	-0.667095
H59	H	0.747667	0.431774	-0.432180
H60	H	1.186557	1.180878	-0.325852
H61	H	1.105040	0.442043	-1.276307
O62	O	0.757417	0.694277	-0.693900
H63	H	0.719598	0.738630	-0.738143
O64	O	0.537565	0.676855	-0.676584
H65	H	0.570965	0.732384	-0.631598
O66	O	1.198433	0.308404	-1.197258
H67	H	1.167017	0.252912	-1.245237
O68	O	1.104876	0.848069	-0.442337
H69	H	1.119026	0.819947	-0.522492
H70	H	0.416225	0.718637	-0.718195
O71	O	1.105068	1.304220	-0.442487
H72	H	1.119250	1.333977	-0.522659
H73	H	0.933608	1.164728	-0.687587
H74	H	0.933632	0.687386	-1.165758
O75	O	1.198400	0.308489	-0.969202
H76	H	1.253521	0.330029	-0.993793
H77	H	0.933586	0.687435	-0.966685
O78	O	0.273467	0.727300	-0.726861
H79	H	0.216298	0.712346	-0.711969
H80	H	0.933531	0.965654	-0.687534
H81	H	0.283104	0.466030	-0.466363
H82	H	0.416170	0.474530	-0.474813
O83	O	0.604888	0.404917	-0.405351
H84	H	0.571477	0.349393	-0.450325
O85	O	0.493239	0.465077	-0.465321
H86	H	0.459829	0.409552	-0.510295
H87	H	1.104990	0.442190	-0.878167
O88	O	1.198358	0.968079	-0.308808
H89	H	1.190776	0.882081	-0.319575
