data_functionalizedCrystal
_audit_creation_method	'MofGen! by Chris Wilmer'
_symmetry_space_group_name_H-M	'P1'
_symmetry_Int_Tables_number	1
_symmetry_cell_setting	triclinic
loop_
_symmetry_equiv_pos_as_xyz
  x,y,z
_cell_length_a	12.827893
_cell_length_b	19.120786
_cell_length_c	12.827885
_cell_angle_alpha	87.523932
_cell_angle_beta	89.980918
_cell_angle_gamma	92.465374
loop_
_atom_site_label
_atom_site_type_symbol
_atom_site_fract_x
_atom_site_fract_y
_atom_site_fract_z
Zn1	Zn	1.579850	-0.279595	-0.573049
Zn2	Zn	2.079850	0.220405	-0.073049
Zn3	Zn	1.572257	-0.397069	-0.390833
Zn4	Zn	2.072257	0.102931	0.109167
Zn5	Zn	1.405089	-0.279629	-0.398321
Zn6	Zn	1.905089	0.220371	0.101679
Zn7	Zn	1.397592	-0.397017	-0.565537
Zn8	Zn	1.897592	0.102983	-0.065537
O9	O	1.488697	-0.338327	-0.481935
O10	O	1.988697	0.161673	0.018065
O11	O	1.725078	-0.295185	-0.548888
O12	O	2.225078	0.204815	-0.048888
O13	O	1.550041	-0.381527	-0.245588
O14	O	2.050041	0.118473	0.254412
O15	O	1.434586	-0.181334	-0.427777
O16	O	1.934586	0.318666	0.072223
O17	O	1.719499	-0.381493	-0.415014
O18	O	2.219499	0.118507	0.084986
O19	O	1.562982	-0.181308	-0.556149
O20	O	2.062982	0.318692	-0.056149
O21	O	1.427224	-0.295244	-0.251089
O22	O	1.927224	0.204756	0.248911
O23	O	1.257859	-0.295194	-0.420492
O24	O	1.757859	0.204806	0.079508
O25	O	1.421810	-0.381405	-0.712772
O26	O	1.921810	0.118595	-0.212772
O27	O	1.252351	-0.381438	-0.543345
O28	O	1.752351	0.118562	-0.043345
O29	O	1.555713	-0.295135	-0.718291
O30	O	2.055713	0.204865	-0.218291
O31	O	1.542772	-0.495353	-0.407730
O32	O	2.042772	0.004647	0.092270
O33	O	1.414447	-0.495315	-0.536084
O34	O	1.914447	0.004685	-0.036084
C35	C	1.217188	-0.338314	-0.481917
C36	C	1.717188	0.161686	0.018083
C37	C	1.101034	-0.338326	-0.481933
C38	C	1.601034	0.161674	0.018067
C39	C	0.926502	-0.381080	-0.542637
C40	C	1.426502	0.118920	-0.042637
C41	C	1.046553	-0.381069	-0.542622
C42	C	1.546553	0.118931	-0.042622
C43	C	1.477000	-0.520820	-0.470302
C44	C	1.977000	-0.020820	0.029698
C45	C	1.472092	-0.598890	-0.465360
C46	C	1.972092	-0.098890	0.034640
C47	C	1.536585	-0.635495	-0.529930
C48	C	2.036585	-0.135495	-0.029930
C49	C	1.531969	-0.708851	-0.525288
C50	C	2.031969	-0.208851	-0.025288
C51	C	1.462865	-0.745601	-0.456072
C52	C	1.962865	-0.245601	0.043928
C53	C	1.398365	-0.708991	-0.391500
C54	C	1.898365	-0.208991	0.108500
C55	C	1.402976	-0.635637	-0.396147
C56	C	1.902976	-0.135637	0.103853
C57	C	1.445595	-0.967088	-0.438698
C58	C	1.945595	-0.467088	0.061302
C59	C	1.440990	-1.040448	-0.434053
C60	C	1.940990	-0.540448	0.065947
C61	C	1.574594	-1.040302	-0.567843
C62	C	2.074594	-0.540302	-0.067843
C63	C	1.579204	-0.966946	-0.572480
C64	C	2.079204	-0.466946	-0.072480
C65	C	1.514700	-0.930343	-0.507912
C66	C	2.014700	-0.430343	-0.007912
C67	C	1.458147	-0.820582	-0.451324
C68	C	1.958147	-0.320582	0.048676
C69	C	1.519413	-0.855362	-0.512667
C70	C	2.019413	-0.355362	-0.012667
C71	C	1.761266	-0.338341	-0.481954
C72	C	2.261266	0.161659	0.018046
C73	C	1.877419	-0.338347	-0.481962
C74	C	2.377419	0.161653	0.018038
C75	C	1.488772	-0.338260	-0.754510
C76	C	1.988772	0.161740	-0.254510
C77	C	1.488804	-0.338231	-0.870665
C78	C	1.988804	0.161769	-0.370665
C79	C	1.500468	-0.155123	-0.493636
C80	C	2.000468	0.344877	0.006364
C81	C	1.505483	-0.077052	-0.498622
C82	C	2.005483	0.422948	0.001378
C83	C	1.555072	-0.295534	-0.925181
C84	C	2.055072	0.204466	-0.425181
C85	C	1.555106	-0.295503	-1.045233
C86	C	2.055106	0.204497	-0.545233
C87	C	1.488685	-0.338344	-0.210424
C88	C	1.988685	0.161656	0.289576
C89	C	1.488868	-0.338175	-0.094282
C90	C	1.988868	0.161825	0.405718
H91	H	0.924274	-0.301756	-0.430001
H92	H	1.424274	0.198244	0.069999
H93	H	1.088774	-0.417651	-0.594573
H94	H	1.588774	0.082349	-0.094573
O95	O	1.050847	-0.294609	-0.419925
O96	O	1.550847	0.205391	0.080075
C97	C	1.124819	-0.254879	-0.363473
C98	C	1.624819	0.245121	0.136527
H99	H	1.202828	-0.252427	-0.406357
H100	H	1.702828	0.247573	0.093643
H101	H	1.096735	-0.199551	-0.356018
H102	H	1.596735	0.300449	0.143982
H103	H	1.134711	-0.280531	-0.282398
H104	H	1.634711	0.219469	0.217602
H105	H	1.592862	-0.605577	-0.586288
H106	H	2.092862	-0.105577	-0.086288
H107	H	1.350457	-0.605834	-0.343570
H108	H	1.850457	-0.105834	0.156430
O109	O	1.622691	-0.251912	-1.101303
O110	O	2.122691	0.248088	-0.601303
C111	C	1.607690	-0.261593	-1.208685
C112	C	2.107690	0.238407	-0.708685
H113	H	1.525558	-0.284601	-1.222013
H114	H	2.025558	0.215399	-0.722013
H115	H	1.618127	-0.208995	-1.253599
H116	H	2.118127	0.291005	-0.753599
H117	H	1.667255	-0.299008	-1.237277
H118	H	2.167255	0.200992	-0.737277
O119	O	1.594741	-0.744299	-0.588034
O120	O	2.094741	-0.244299	-0.088034
C121	C	1.656717	-0.696133	-0.650127
C122	C	2.156717	-0.196133	-0.150127
H123	H	1.663624	-0.643859	-0.610642
H124	H	2.163624	-0.143859	-0.110642
H125	H	1.737725	-0.717269	-0.659979
H126	H	2.237725	-0.217269	-0.159979
H127	H	1.618921	-0.688321	-0.729968
H128	H	2.118921	-0.188321	-0.229968
O129	O	0.870457	-0.424672	-0.604596
O130	O	1.370457	0.075328	-0.104596
C131	C	0.763068	-0.414987	-0.590803
C132	C	1.263068	0.085013	-0.090803
H133	H	0.751718	-0.360747	-0.560155
H134	H	1.251718	0.139253	-0.060155
H135	H	0.721241	-0.419792	-0.668728
H136	H	1.221241	0.080208	-0.168728
H137	H	0.729408	-0.456590	-0.532376
H138	H	1.229408	0.043410	-0.032376
H139	H	1.635475	-0.937025	-0.628842
H140	H	2.135475	-0.437025	-0.128842
O141	O	1.421324	-0.381824	-1.038259
O142	O	1.921324	0.118176	-0.538259
C143	C	1.477952	-0.427181	-0.972253
C144	C	1.977952	0.072819	-0.472253
H145	H	1.558749	-0.402405	-0.957601
H146	H	2.058749	0.097595	-0.457601
H147	H	1.434837	-0.436564	-0.894852
H148	H	1.934837	0.063436	-0.394852
H149	H	1.486060	-0.479249	-1.010930
H150	H	1.986060	0.020751	-0.510930
H151	H	1.432090	-0.374759	-0.912870
H152	H	1.932090	0.125241	-0.412870
O153	O	1.390880	-0.856253	-0.384196
O154	O	1.890880	-0.356253	0.115804
C155	C	1.287836	-0.838369	-0.408046
C156	C	1.787836	-0.338369	0.091954
H157	H	1.283774	-0.818160	-0.492801
H158	H	1.783774	-0.318160	0.007199
H159	H	1.233186	-0.886649	-0.395945
H160	H	1.733186	-0.386649	0.104055
H161	H	1.263222	-0.795840	-0.354679
H162	H	1.763222	-0.295840	0.145321
O163	O	1.637187	-1.075784	-0.630722
O164	O	2.137187	-0.575784	-0.130722
C165	C	1.615387	-1.057833	-0.735989
C166	C	2.115387	-0.557833	-0.235989
H167	H	1.578568	-1.004592	-0.741483
H168	H	2.078568	-0.504592	-0.241483
H169	H	1.690935	-1.055261	-0.783089
H170	H	2.190935	-0.555261	-0.283089
H171	H	1.559033	-1.099128	-0.768515
H172	H	2.059033	-0.599128	-0.268515
O173	O	1.373761	-1.076040	-0.366791
O174	O	1.873761	-0.576040	0.133209
C175	C	1.317833	-1.028004	-0.310780
C176	C	1.817833	-0.528004	0.189220
H177	H	1.317476	-0.975695	-0.356892
H178	H	1.817476	-0.475695	0.143108
H179	H	1.234169	-1.049257	-0.298222
H180	H	1.734169	-0.549257	0.201778
H181	H	1.356626	-1.020218	-0.231937
H182	H	1.856626	-0.520218	0.268063
O183	O	1.383097	-0.931458	-0.375928
O184	O	1.883097	-0.431458	0.124072
C185	C	1.445299	-0.889036	-0.311159
C186	C	1.945299	-0.389036	0.188841
H187	H	1.525166	-0.877983	-0.348788
H188	H	2.025166	-0.377983	0.151212
H189	H	1.405981	-0.837485	-0.300382
H190	H	1.905981	-0.337485	0.199618
H191	H	1.455048	-0.917337	-0.231933
H192	H	1.955048	-0.417337	0.268067
H193	H	1.342094	-0.738919	-0.335147
H194	H	1.842094	-0.238919	0.164853
O195	O	1.586398	-0.819589	-0.579957
O196	O	2.086398	-0.319589	-0.079957
C197	C	1.529528	-0.777173	-0.650103
C198	C	2.029528	-0.277173	-0.150103
H199	H	1.451036	-0.766256	-0.613873
H200	H	1.951036	-0.266256	-0.113873
H201	H	1.575323	-0.725554	-0.667405
H202	H	2.075323	-0.225554	-0.167405
H203	H	1.516240	-0.805409	-0.725751
H204	H	2.016240	-0.305409	-0.225751
O205	O	1.622587	-0.251917	-0.874726
O206	O	2.122587	0.248083	-0.374726
C207	C	1.565930	-0.206590	-0.814499
C208	C	2.065930	0.293410	-0.314499
H209	H	1.485122	-0.231369	-0.796671
H210	H	1.985122	0.268631	-0.296671
H211	H	1.609005	-0.197249	-0.738301
H212	H	2.109005	0.302751	-0.238301
H213	H	1.557851	-0.154499	-0.859823
H214	H	2.057851	0.345501	-0.359823
