data_functionalizedCrystal
_audit_creation_method	'MofGen! by Chris Wilmer'
_symmetry_space_group_name_H-M	'P1'
_symmetry_Int_Tables_number	1
_symmetry_cell_setting	triclinic
loop_
_symmetry_equiv_pos_as_xyz
  x,y,z
_cell_length_a	19.805407
_cell_length_b	19.076808
_cell_length_c	19.805399
_cell_angle_alpha	87.672943
_cell_angle_beta	89.980427
_cell_angle_gamma	92.323385
loop_
_atom_site_label
_atom_site_type_symbol
_atom_site_fract_x
_atom_site_fract_y
_atom_site_fract_z
Zn1	Zn	1.023914	-0.280233	-0.371886
Zn2	Zn	1.357247	0.053101	-0.038552
Zn3	Zn	1.690580	0.386434	0.294781
Zn4	Zn	1.019283	-0.397938	-0.254147
Zn5	Zn	1.352616	-0.064605	0.079186
Zn6	Zn	1.685950	0.268729	0.412520
Zn7	Zn	0.910727	-0.280252	-0.258710
Zn8	Zn	1.244061	0.053081	0.074624
Zn9	Zn	1.577394	0.386414	0.407957
Zn10	Zn	0.906148	-0.397901	-0.367295
Zn11	Zn	1.239481	-0.064567	-0.033962
Zn12	Zn	1.572814	0.268766	0.299371
O13	O	0.965018	-0.339081	-0.313009
O14	O	1.298351	-0.005748	0.020324
O15	O	1.631685	0.327586	0.353657
O16	O	1.118016	-0.295854	-0.356279
O17	O	1.451349	0.037479	-0.022946
O18	O	1.784682	0.370813	0.310387
O19	O	1.004861	-0.382351	-0.160035
O20	O	1.338195	-0.049017	0.173299
O21	O	1.671528	0.284316	0.506632
O22	O	0.929597	-0.181753	-0.277553
O23	O	1.262930	0.151580	0.055780
O24	O	1.596263	0.484913	0.389113
O25	O	1.114613	-0.382332	-0.269777
O26	O	1.447947	-0.048998	0.063556
O27	O	1.781280	0.284335	0.396890
O28	O	1.012754	-0.181739	-0.360703
O29	O	1.346087	0.151594	-0.027370
O30	O	1.679421	0.484928	0.305963
O31	O	0.925106	-0.295887	-0.163387
O32	O	1.258440	0.037446	0.169946
O33	O	1.591773	0.370779	0.503280
O34	O	0.815404	-0.295851	-0.273102
O35	O	1.148737	0.037482	0.060231
O36	O	1.482070	0.370816	0.393565
O37	O	0.921791	-0.382268	-0.462622
O38	O	1.255124	-0.048935	-0.129288
O39	O	1.588457	0.284399	0.204045
O40	O	0.812039	-0.382287	-0.352879
O41	O	1.145372	-0.048953	-0.019546
O42	O	1.478706	0.284380	0.313787
O43	O	1.008313	-0.295818	-0.465994
O44	O	1.341646	0.037515	-0.132661
O45	O	1.674980	0.370849	0.200672
O46	O	1.000421	-0.496429	-0.265326
O47	O	1.333754	-0.163096	0.068008
O48	O	1.667087	0.170237	0.401341
O49	O	0.917301	-0.496402	-0.348455
O50	O	1.250634	-0.163069	-0.015122
O51	O	1.583967	0.170265	0.318211
C52	C	0.789162	-0.339067	-0.312988
C53	C	1.122496	-0.005734	0.020345
C54	C	1.455829	0.327599	0.353679
C55	C	0.713930	-0.339079	-0.312994
C56	C	1.047263	-0.005745	0.020339
C57	C	1.380597	0.327588	0.353672
C58	C	0.676849	-0.384154	-0.354462
C59	C	1.010182	-0.050820	-0.021128
C60	C	1.343516	0.282513	0.312205
C61	C	0.606160	-0.384155	-0.354471
C62	C	0.939494	-0.050821	-0.021138
C63	C	1.272827	0.282512	0.312195
C64	C	0.572554	-0.339084	-0.313009
C65	C	0.905888	-0.005751	0.020324
C66	C	1.239221	0.327583	0.353657
C67	C	0.609640	-0.294004	-0.271540
C68	C	0.942974	0.039329	0.061793
C69	C	1.276307	0.372662	0.395127
C70	C	0.680328	-0.294000	-0.271535
C71	C	1.013661	0.039333	0.061799
C72	C	1.346994	0.372667	0.395132
C73	C	0.324567	-0.294020	-0.271562
C74	C	0.657900	0.039314	0.061771
C75	C	0.991233	0.372647	0.395105
C76	C	0.253874	-0.294029	-0.271569
C77	C	0.587207	0.039304	0.061764
C78	C	0.920541	0.372638	0.395098
C79	C	0.250399	-0.384175	-0.354498
C80	C	0.583733	-0.050841	-0.021165
C81	C	0.917066	0.282492	0.312168
C82	C	0.321086	-0.384170	-0.354493
C83	C	0.654420	-0.050837	-0.021160
C84	C	0.987753	0.282496	0.312174
C85	C	0.358167	-0.339088	-0.313027
C86	C	0.691500	-0.005755	0.020307
C87	C	1.024833	0.327578	0.353640
C88	C	0.434815	-0.339086	-0.313018
C89	C	0.768148	-0.005753	0.020315
C90	C	1.101482	0.327580	0.353649
C91	C	0.495907	-0.339089	-0.313014
C92	C	0.829240	-0.005756	0.020319
C93	C	1.162574	0.327578	0.353653
C94	C	0.957879	-0.521955	-0.305912
C95	C	1.291213	-0.188621	0.027421
C96	C	1.624546	0.144712	0.360755
C97	C	0.954888	-0.600189	-0.302898
C98	C	1.288221	-0.266856	0.030435
C99	C	1.621554	0.066478	0.363768
C100	C	0.996745	-0.636876	-0.344809
C101	C	1.330078	-0.303542	-0.011476
C102	C	1.663412	0.029791	0.321857
C103	C	0.993931	-0.710385	-0.341979
C104	C	1.327264	-0.377052	-0.008645
C105	C	1.660598	-0.043718	0.324688
C106	C	0.949263	-0.747206	-0.297233
C107	C	1.282596	-0.413873	0.036100
C108	C	1.615929	-0.080540	0.369433
C109	C	0.907400	-0.710515	-0.255321
C110	C	1.240734	-0.377181	0.078013
C111	C	1.574067	-0.043848	0.411346
C112	C	0.910211	-0.637007	-0.258155
C113	C	1.243545	-0.303673	0.075178
C114	C	1.576878	0.029660	0.408511
C115	C	0.936213	-0.967059	-0.284114
C116	C	1.269547	-0.633726	0.049220
C117	C	1.602880	-0.300392	0.382553
C118	C	0.933407	-1.040572	-0.281281
C119	C	1.266740	-0.707239	0.052052
C120	C	1.600073	-0.373905	0.385386
C121	C	1.019937	-1.040437	-0.367940
C122	C	1.353270	-0.707104	-0.034607
C123	C	1.686604	-0.373771	0.298726
C124	C	1.022747	-0.966928	-0.370768
C125	C	1.356080	-0.633595	-0.037434
C126	C	1.689414	-0.300261	0.295899
C127	C	0.980882	-0.930243	-0.328858
C128	C	1.314216	-0.596909	0.004476
C129	C	1.647549	-0.263576	0.337809
N130	N	0.946387	-0.822345	-0.294338
N131	N	1.279720	-0.489011	0.038996
N132	N	1.613053	-0.155678	0.372329
N133	N	0.983755	-0.855106	-0.331757
N134	N	1.317089	-0.521772	0.001576
N135	N	1.650422	-0.188439	0.334909
C136	C	1.141560	-0.339095	-0.313031
C137	C	1.474893	-0.005762	0.020302
C138	C	1.808227	0.327572	0.353635
C139	C	1.216792	-0.339101	-0.313041
C140	C	1.550125	-0.005768	0.020293
C141	C	1.883458	0.327566	0.353626
C142	C	0.965058	-0.339037	-0.489554
C143	C	1.298391	-0.005703	-0.156221
C144	C	1.631724	0.327630	0.177113
C145	C	0.965074	-0.339018	-0.564787
C146	C	1.298408	-0.005684	-0.231453
C147	C	1.631741	0.327649	0.101880
C148	C	0.972203	-0.155493	-0.320149
C149	C	1.305536	0.177840	0.013184
C150	C	1.638869	0.511174	0.346517
C151	C	0.975264	-0.077259	-0.323192
C152	C	1.308598	0.256075	0.010141
C153	C	1.641931	0.589408	0.343475
C154	C	1.010128	-0.294001	-0.601888
C155	C	1.343461	0.039332	-0.268555
C156	C	1.676794	0.372666	0.064779
C157	C	1.010135	-0.293980	-0.672577
C158	C	1.343469	0.039353	-0.339244
C159	C	1.676802	0.372686	-0.005911
C160	C	0.965093	-0.338981	-0.706164
C161	C	1.298426	-0.005648	-0.372830
C162	C	1.631759	0.327686	-0.039497
C163	C	0.920035	-0.384000	-0.669057
C164	C	1.253368	-0.050666	-0.335724
C165	C	1.586701	0.282667	-0.002391
C166	C	0.920024	-0.384016	-0.598369
C167	C	1.253358	-0.050683	-0.265036
C168	C	1.586691	0.282651	0.068297
C169	C	0.920075	-0.383934	-0.954133
C170	C	1.253409	-0.050601	-0.620800
C171	C	1.586742	0.282733	-0.287467
C172	C	0.920091	-0.383916	-1.024826
C173	C	1.253424	-0.050582	-0.691493
C174	C	1.586757	0.282751	-0.358159
C175	C	1.010187	-0.293899	-1.028341
C176	C	1.343520	0.039435	-0.695008
C177	C	1.676853	0.372768	-0.361675
C178	C	1.010176	-0.293915	-0.957653
C179	C	1.343509	0.039418	-0.624320
C180	C	1.676843	0.372752	-0.290987
C181	C	0.965116	-0.338931	-0.920553
C182	C	1.298449	-0.005597	-0.587220
C183	C	1.631783	0.327736	-0.253887
C184	C	0.965107	-0.338951	-0.843904
C185	C	1.298441	-0.005618	-0.510571
C186	C	1.631774	0.327715	-0.177237
C187	C	0.965104	-0.338964	-0.782812
C188	C	1.298438	-0.005631	-0.449478
C189	C	1.631771	0.327702	-0.116145
C190	C	0.965019	-0.339074	-0.137154
C191	C	1.298353	-0.005741	0.196180
C192	C	1.631686	0.327592	0.529513
C193	C	0.965141	-0.338895	-0.061929
C194	C	1.298475	-0.005562	0.271404
C195	C	1.631808	0.327772	0.604738
H196	H	0.710519	-0.257292	-0.237771
H197	H	1.043852	0.076042	0.095562
H198	H	1.377185	0.409375	0.428895
C199	C	0.407739	-0.199320	-0.265976
C200	C	0.741073	0.134014	0.067357
C201	C	1.074406	0.467347	0.400690
C202	C	0.365322	-0.244472	-0.225980
C203	C	0.698655	0.088861	0.107354
C204	C	1.031989	0.422195	0.440687
H205	H	0.432899	-0.168728	-0.237833
H206	H	0.766233	0.164605	0.095500
H207	H	1.099566	0.497939	0.428834
H208	H	0.437866	-0.226160	-0.290663
H209	H	0.771200	0.107174	0.042670
H210	H	1.104533	0.440507	0.376003
H211	H	0.381216	-0.172440	-0.296551
H212	H	0.714549	0.160893	0.036783
H213	H	1.047882	0.494226	0.370116
H214	H	0.391846	-0.271355	-0.195409
H215	H	0.725179	0.061978	0.137925
H216	H	1.058513	0.395312	0.471258
H217	H	0.335191	-0.217629	-0.201281
H218	H	0.668525	0.115705	0.132052
H219	H	1.001858	0.449038	0.465385
C220	C	1.056524	-0.944195	-0.486288
C221	C	1.389857	-0.610862	-0.152955
C222	C	1.723191	-0.277529	0.180378
C223	C	1.071849	-0.926459	-0.419954
C224	C	1.405183	-0.593126	-0.086621
C225	C	1.738516	-0.259792	0.246713
H226	H	1.086839	-0.919208	-0.516651
H227	H	1.420173	-0.585875	-0.183318
H228	H	1.753506	-0.252542	0.150015
H229	H	1.060840	-0.993219	-0.490594
H230	H	1.394174	-0.659886	-0.157260
H231	H	1.727507	-0.326552	0.176073
H232	H	1.011501	-0.932175	-0.496610
H233	H	1.344834	-0.598842	-0.163277
H234	H	1.678168	-0.265508	0.170057
H235	H	1.116871	-0.938484	-0.409631
H236	H	1.450205	-0.605151	-0.076298
H237	H	1.783538	-0.271817	0.257036
H238	H	1.067539	-0.877424	-0.415646
H239	H	1.400873	-0.544091	-0.082313
H240	H	1.734206	-0.210758	0.251020
H241	H	0.575972	-0.420860	-0.388237
H242	H	0.909305	-0.087527	-0.054904
H243	H	1.242639	0.245807	0.278429
H244	H	0.876126	-0.607137	-0.224028
H245	H	1.209459	-0.273804	0.109306
H246	H	1.542792	0.059530	0.442639
H247	H	0.883331	-0.420666	-0.568162
H248	H	1.216664	-0.087333	-0.234829
H249	H	1.549997	0.246000	0.098504
H250	H	0.704206	-0.420858	-0.388223
H251	H	1.037539	-0.087524	-0.054889
H252	H	1.370872	0.245809	0.278444
H253	H	1.046824	-0.257325	-0.702782
H254	H	1.380157	0.076008	-0.369449
H255	H	1.713490	0.409342	-0.036116
C256	C	1.099231	-0.204925	-0.968230
C257	C	1.432564	0.128408	-0.634897
C258	C	1.765897	0.461741	-0.301564
C259	C	1.059686	-0.244447	-0.920736
C260	C	1.393019	0.088887	-0.587403
C261	C	1.726353	0.422220	-0.254070
H262	H	1.129792	-0.174381	-0.945439
H263	H	1.463125	0.158952	-0.612105
H264	H	1.796458	0.492286	-0.278772
H265	H	1.123927	-0.235586	-0.994610
H266	H	1.457260	0.097747	-0.661277
H267	H	1.790593	0.431081	-0.327944
H268	H	1.070791	-0.177996	-0.996846
H269	H	1.404124	0.155337	-0.663512
H270	H	1.737457	0.488670	-0.330179
H271	H	1.088126	-0.271380	-0.892124
H272	H	1.421459	0.061954	-0.558791
H273	H	1.754792	0.395287	-0.225457
H274	H	1.034988	-0.213782	-0.894345
H275	H	1.368322	0.119551	-0.561012
H276	H	1.701655	0.452885	-0.227678
C277	C	1.101547	-0.284242	-0.522793
C278	C	1.434880	0.049091	-0.189460
C279	C	1.768213	0.382425	0.143873
C280	C	1.059639	-0.244533	-0.564973
C281	C	1.392972	0.088800	-0.231639
C282	C	1.726306	0.422134	0.101694
H283	H	1.132114	-0.253699	-0.500008
H284	H	1.465447	0.079635	-0.166675
H285	H	1.798781	0.412968	0.166658
H286	H	1.074715	-0.311049	-0.490582
H287	H	1.408048	0.022284	-0.157249
H288	H	1.741382	0.355617	0.176085
H289	H	1.126241	-0.314901	-0.549188
H290	H	1.459575	0.018433	-0.215855
H291	H	1.792908	0.351766	0.117479
H292	H	1.034941	-0.213878	-0.538577
H293	H	1.368274	0.119456	-0.205244
H294	H	1.701607	0.452789	0.128089
H295	H	1.086474	-0.217714	-0.597188
H296	H	1.419807	0.115620	-0.263855
H297	H	1.753141	0.448953	0.069479
H298	H	0.348445	-0.420874	-0.388253
H299	H	0.681778	-0.087541	-0.054920
H300	H	1.015112	0.245793	0.278414
H301	H	0.902127	-0.937196	-0.249987
H302	H	1.235460	-0.603862	0.083346
H303	H	1.568793	-0.270529	0.416679
H304	H	0.220200	-0.420880	-0.388265
H305	H	0.553533	-0.087547	-0.054932
H306	H	0.886867	0.245787	0.278402
C307	C	1.050208	-0.253886	-1.138263
C308	C	1.383541	0.079447	-0.804929
C309	C	1.716875	0.412781	-0.471596
C310	C	1.059711	-0.244406	-1.069125
C311	C	1.393044	0.088927	-0.735791
C312	C	1.726378	0.422261	-0.402458
H313	H	1.080780	-0.223329	-1.163438
H314	H	1.414113	0.110004	-0.830104
H315	H	1.747446	0.443337	-0.496771
H316	H	1.058266	-0.301169	-1.148009
H317	H	1.391600	0.032164	-0.814676
H318	H	1.724933	0.365497	-0.481343
H319	H	1.005134	-0.243576	-1.150231
H320	H	1.338467	0.089757	-0.816898
H321	H	1.671800	0.423091	-0.483564
H322	H	1.104784	-0.254721	-1.057155
H323	H	1.438117	0.078612	-0.723822
H324	H	1.771451	0.411946	-0.390489
H325	H	1.051658	-0.197112	-1.059374
H326	H	1.384991	0.136222	-0.726040
H327	H	1.718325	0.469555	-0.392707
H328	H	0.883409	-0.420562	-1.052170
H329	H	1.216742	-0.087229	-0.718837
H330	H	1.550075	0.246105	-0.385503
H331	H	0.883394	-0.420599	-0.923934
H332	H	1.216728	-0.087266	-0.590601
H333	H	1.550061	0.246068	-0.257268
H334	H	1.054020	-1.070315	-0.402062
H335	H	1.387353	-0.736981	-0.068729
H336	H	1.720687	-0.403648	0.264605
H337	H	0.226514	-0.257323	-0.237806
H338	H	0.559848	0.076011	0.095527
H339	H	0.893181	0.409344	0.428861
C340	C	0.502826	-0.253981	-0.234725
C341	C	0.836160	0.079352	0.098608
C342	C	1.169493	0.412685	0.431941
C343	C	0.572702	-0.244458	-0.225966
C344	C	0.906035	0.088875	0.107367
C345	C	1.239369	0.422208	0.440700
H346	H	0.480025	-0.223396	-0.206586
H347	H	0.813358	0.109938	0.126748
H348	H	1.146691	0.443271	0.460081
H349	H	0.491665	-0.243745	-0.280612
H350	H	0.824998	0.089589	0.052721
H351	H	1.158331	0.422922	0.386055
H352	H	0.489400	-0.301262	-0.222906
H353	H	0.822734	0.032071	0.110427
H354	H	1.156067	0.365405	0.443760
H355	H	0.586129	-0.197179	-0.237790
H356	H	0.919462	0.136154	0.095543
H357	H	1.252796	0.469488	0.428877
H358	H	0.583869	-0.254690	-0.180070
H359	H	0.917202	0.078643	0.153264
H360	H	1.250535	0.411977	0.486597
H361	H	1.033122	-0.606900	-0.381243
H362	H	1.366455	-0.273567	-0.047909
H363	H	1.699789	0.059766	0.285424
C364	C	0.817938	-1.063348	-0.247333
C365	C	1.151271	-0.730014	0.086000
C366	C	1.484605	-0.396681	0.419333
C367	C	0.884302	-1.081053	-0.232098
C368	C	1.217635	-0.747720	0.101235
C369	C	1.550968	-0.414386	0.434568
H370	H	0.787627	-1.088344	-0.216973
H371	H	1.120960	-0.755011	0.116360
H372	H	1.454293	-0.421677	0.449693
H373	H	0.813618	-1.014326	-0.243017
H374	H	1.146951	-0.680993	0.090316
H375	H	1.480285	-0.347659	0.423650
H376	H	0.807559	-1.075377	-0.292341
H377	H	1.140893	-0.742044	0.040993
H378	H	1.474226	-0.408711	0.374326
H379	H	0.894682	-1.069018	-0.187092
H380	H	1.228015	-0.735685	0.146241
H381	H	1.561349	-0.402352	0.479574
H382	H	0.888624	-1.130085	-0.236409
H383	H	1.221957	-0.796752	0.096925
H384	H	1.555291	-0.463419	0.430258
C385	C	1.079768	-0.702868	-0.427896
C386	C	1.413101	-0.369535	-0.094563
C387	C	1.746435	-0.036202	0.238771
C388	C	1.039957	-0.750711	-0.388034
C389	C	1.373291	-0.417377	-0.054701
C390	C	1.706624	-0.084044	0.278633
H391	H	1.108190	-0.727765	-0.456323
H392	H	1.441523	-0.394432	-0.122990
H393	H	1.774856	-0.061099	0.210344
H394	H	1.051365	-0.674215	-0.454875
H395	H	1.384698	-0.340882	-0.121541
H396	H	1.718031	-0.007548	0.211792
H397	H	1.106758	-0.674186	-0.399521
H398	H	1.440091	-0.340853	-0.066188
H399	H	1.773425	-0.007519	0.267145
H400	H	1.012964	-0.779390	-0.416409
H401	H	1.346297	-0.446056	-0.083075
H402	H	1.679630	-0.112723	0.250258
H403	H	1.068364	-0.779376	-0.361053
H404	H	1.401697	-0.446043	-0.027720
H405	H	1.735031	-0.112710	0.305614
C406	C	0.864676	-0.823255	-0.212491
C407	C	1.198010	-0.489922	0.120843
C408	C	1.531343	-0.156589	0.454176
C409	C	0.858302	-0.750987	-0.206133
C410	C	1.191635	-0.417654	0.127200
C411	C	1.524968	-0.084320	0.460534
H412	H	0.834368	-0.848239	-0.182118
H413	H	1.167701	-0.514905	0.151215
H414	H	1.501035	-0.181572	0.484548
H415	H	0.854280	-0.835281	-0.257488
H416	H	1.187614	-0.501948	0.075845
H417	H	1.520947	-0.168615	0.409178
H418	H	0.909703	-0.835258	-0.202165
H419	H	1.243037	-0.501925	0.131168
H420	H	1.576370	-0.168591	0.464502
H421	H	0.813276	-0.738983	-0.216464
H422	H	1.146609	-0.405650	0.116870
H423	H	1.479942	-0.072317	0.450203
H424	H	0.868693	-0.738956	-0.161125
H425	H	1.202026	-0.405623	0.172208
H426	H	1.535360	-0.072289	0.505542
C427	C	0.880047	-0.423949	-0.775854
C428	C	1.213381	-0.090616	-0.442521
C429	C	1.546714	0.242717	-0.109188
C430	C	0.870522	-0.433466	-0.705974
C431	C	1.203856	-0.100132	-0.372641
C432	C	1.537189	0.233201	-0.039307
H433	H	0.849482	-0.454493	-0.798642
H434	H	1.182816	-0.121159	-0.465309
H435	H	1.516149	0.212174	-0.131975
H436	H	0.871993	-0.376660	-0.789274
H437	H	1.205326	-0.043326	-0.455940
H438	H	1.538660	0.290007	-0.122607
H439	H	0.925125	-0.434254	-0.787039
H440	H	1.258458	-0.100920	-0.453705
H441	H	1.591791	0.232413	-0.120372
H442	H	0.825446	-0.423156	-0.694789
H443	H	1.158779	-0.089823	-0.361455
H444	H	1.492112	0.243510	-0.028122
H445	H	0.878571	-0.480766	-0.692549
H446	H	1.211905	-0.147433	-0.359216
H447	H	1.545238	0.185900	-0.025882
