data_functionalizedCrystal
_audit_creation_method	'MofGen! by Chris Wilmer'
_symmetry_space_group_name_H-M	'P1'
_symmetry_Int_Tables_number	1
_symmetry_cell_setting	triclinic
loop_
_symmetry_equiv_pos_as_xyz
  x,y,z
_cell_length_a	18.050589
_cell_length_b	12.759401
_cell_length_c	12.759393
_cell_angle_alpha	89.981594
_cell_angle_beta	89.969038
_cell_angle_gamma	90.027265
loop_
_atom_site_label
_atom_site_type_symbol
_atom_site_fract_x
_atom_site_fract_y
_atom_site_fract_z
Zn1	Zn	-0.295632	1.606155	-0.593990
Zn2	Zn	-0.419843	1.606008	-0.418313
Zn3	Zn	-0.295669	1.430457	-0.418329
Zn4	Zn	-0.419783	1.430404	-0.593954
O5	O	-0.357732	1.518256	-0.506147
O6	O	-0.312119	1.753157	-0.570694
O7	O	-0.403412	1.582682	-0.271294
O8	O	-0.191740	1.453848	-0.441653
O9	O	-0.403376	1.753049	-0.441625
O10	O	-0.191712	1.582932	-0.570710
O11	O	-0.312182	1.453706	-0.271306
O12	O	-0.312124	1.283429	-0.441618
O13	O	-0.403273	1.453757	-0.740980
O14	O	-0.403309	1.283390	-0.570649
O15	O	-0.312060	1.582880	-0.741007
O16	O	-0.523760	1.582630	-0.441591
O17	O	-0.523715	1.453615	-0.570634
C18	C	-0.357714	1.245289	-0.506132
C19	C	-0.357725	1.128512	-0.506151
C20	C	-0.310297	1.073699	-0.573461
C21	C	-0.310311	0.963975	-0.573468
C22	C	-0.405188	0.963887	-0.438851
C23	C	-0.405169	1.073609	-0.438840
C24	C	-0.255523	1.073750	-0.651185
C25	C	-0.255537	0.964026	-0.651191
C26	C	-0.550684	1.518129	-0.506129
C27	C	-0.633230	1.518171	-0.506157
C28	C	-0.832683	1.448082	-0.576306
C29	C	-0.882132	1.422468	-0.480438
C30	C	-0.784360	1.518275	-0.506171
C31	C	-0.881993	1.543940	-0.602050
C32	C	-0.930345	1.518372	-0.506192
C33	C	-0.832722	1.492610	-0.410252
C34	C	-0.832578	1.614127	-0.531929
C35	C	-0.882005	1.588550	-0.435994
C36	C	-0.700262	1.518216	-0.506160
C37	C	-1.014442	1.518431	-0.506193
C38	C	-0.164026	1.518412	-0.506187
C39	C	-0.081480	1.518479	-0.506205
C40	C	-0.357656	1.518329	-0.780180
C41	C	-0.357623	1.518360	-0.896957
C42	C	-0.357750	1.792289	-0.506162
C43	C	-0.357758	1.909066	-0.506169
C44	C	-0.310092	1.451250	-1.061558
C45	C	-0.310113	1.451224	-0.951833
C46	C	-0.405110	1.585534	-0.951810
C47	C	-0.405085	1.585565	-1.061532
C48	C	-0.255249	1.373704	-1.061570
C49	C	-0.255270	1.373678	-0.951846
C50	C	-0.357754	1.518244	-0.233179
C51	C	-0.357577	1.518417	-0.116403
H52	H	-0.443815	0.919171	-0.384049
H53	H	-0.200639	1.402856	-0.917835
Br54	Br	-0.796273	1.749128	-0.568283
H55	H	-0.903636	1.565609	-0.683126
Br56	Br	-0.280949	1.238028	-0.902187
H57	H	-0.443745	1.640268	-1.106184
Br58	Br	-0.469512	1.147996	-0.347450
Br59	Br	-0.159380	1.410135	-1.111240
H60	H	-0.903915	1.341454	-0.458671
H61	H	-0.276186	1.107808	-0.728423
Br62	Br	-0.159620	1.123406	-0.615099
H63	H	-0.200877	0.930002	-0.622191
H64	H	-0.271014	0.934275	-0.732528
Br65	Br	-0.289583	1.244878	-1.118288
Br66	Br	-0.796585	1.349006	-0.675026
H67	H	-0.811168	1.470847	-0.329154
H68	H	-0.903524	1.647951	-0.376624
Br69	Br	-0.469579	1.676663	-0.877336
