data_functionalizedCrystal
_audit_creation_method	'MofGen! by Chris Wilmer'
_symmetry_space_group_name_H-M	'P1'
_symmetry_Int_Tables_number	1
_symmetry_cell_setting	triclinic
loop_
_symmetry_equiv_pos_as_xyz
  x,y,z
_cell_length_a	23.532407
_cell_length_b	14.044220
_cell_length_c	12.503552
_cell_angle_alpha	93.839943
_cell_angle_beta	93.495659
_cell_angle_gamma	91.981222
loop_
_atom_site_label
_atom_site_type_symbol
_atom_site_fract_x
_atom_site_fract_y
_atom_site_fract_z
O1	O	0.764497	-0.109510	0.089188
O2	O	0.599536	-0.126149	0.089220
O3	O	0.679540	0.020131	0.089194
O4	O	0.684493	-0.255790	0.089214
O5	O	0.673516	0.009120	-0.089447
O6	O	0.593513	-0.137160	-0.089421
O7	O	0.758473	-0.120521	-0.089452
Cu8	Cu	0.675443	-0.129846	-0.105748
Cu9	Cu	0.682567	-0.116824	0.105515
O10	O	0.678469	-0.266801	-0.089426
C11	C	0.575286	-0.131230	-0.000096
C12	C	0.512000	-0.129956	-0.000084
N13	N	0.670436	-0.139004	-0.254339
C14	C	0.674361	0.049920	-0.000126
C15	C	0.667895	0.155085	-0.000126
C16	C	0.117154	-0.208534	-0.000127
C17	C	0.057690	-0.207350	-0.000134
O18	O	0.024892	-0.280193	-0.000168
N19	N	0.030350	-0.120386	-0.000139
C20	C	0.062477	-0.034600	-0.000147
O21	O	0.033762	0.039478	-0.000153
C22	C	0.121941	-0.035785	-0.000148
C23	C	0.149278	-0.122754	-0.000133
C24	C	0.144492	-0.295496	-0.000113
C25	C	0.203952	-0.296678	-0.000104
C26	C	0.236075	-0.210899	-0.000110
C27	C	0.208738	-0.123937	-0.000124
C28	C	0.154067	0.050000	-0.000165
C29	C	0.213534	0.048807	-0.000167
C30	C	0.240871	-0.038162	-0.000151
C31	C	0.300322	-0.039340	-0.000121
N32	N	0.327662	-0.126304	-0.000117
C33	C	0.295539	-0.212083	-0.000111
C34	C	-0.062400	-0.032119	-0.000147
C35	C	-0.121862	-0.030933	-0.000138
C36	C	-0.126645	-0.203684	-0.000127
C37	C	-0.067182	-0.204868	-0.000128
C38	C	-0.035060	-0.119083	-0.000143
C39	C	0.420410	-0.214560	-0.000092
C40	C	0.479877	-0.215735	-0.000079
C41	C	0.484655	-0.042985	-0.000096
C42	C	0.425194	-0.041810	-0.000103
C43	C	0.393073	-0.127605	-0.000105
O44	O	0.333156	0.033464	-0.000092
O45	O	0.324261	-0.286150	-0.000120
C46	C	0.782724	-0.115439	-0.000134
C47	C	0.846010	-0.116714	-0.000138
C48	C	0.683649	-0.296589	-0.000104
C49	C	0.690115	-0.401754	-0.000097
C50	C	0.656074	0.347636	-0.000109
C51	C	0.701933	0.405701	-0.000114
C52	C	0.695356	0.512843	-0.000104
C53	C	0.662650	0.240484	-0.000119
C54	C	0.694939	-0.094184	-0.526780
C55	C	0.663076	-0.152475	-0.473445
C56	C	0.667172	-0.144978	-0.351523
C57	C	0.690843	-0.101680	-0.648713
N58	N	0.687577	-0.107658	0.254107
H59	H	0.502131	-0.286559	-0.000066
O60	O	0.754684	0.369076	0.000051
C61	C	0.787557	0.406019	0.092546
H62	H	0.758088	0.430349	0.157231
H63	H	0.815357	0.469365	0.071623
C64	C	0.861913	0.298056	0.055023
C65	C	0.825719	0.327932	0.134473
H66	H	0.885455	0.249891	0.080884
H67	H	0.839767	0.273169	-0.007295
H68	H	0.885075	0.350852	0.037594
H69	H	0.802553	0.275140	0.151891
H70	H	0.847861	0.352809	0.196795
O71	O	0.603385	0.384473	-0.000151
C72	C	0.608467	0.484800	-0.000119
H73	H	0.650593	0.506221	-0.033938
H74	H	0.607224	0.517570	0.085585
C75	C	0.507051	0.494881	-0.028639
C76	C	0.558789	0.521190	-0.070184
H77	H	0.476407	0.517330	-0.071853
H78	H	0.503627	0.427289	-0.028656
H79	H	0.506024	0.522191	0.042781
H80	H	0.559819	0.493871	-0.141596
H81	H	0.562213	0.588779	-0.070180
H82	H	0.632722	-0.208012	-0.519351
O83	O	0.731083	-0.027907	-0.471897
C84	C	0.699772	0.034208	-0.406849
H85	H	0.657703	-0.002914	-0.390153
H86	H	0.690910	0.101588	-0.450088
C87	C	0.786040	0.106778	-0.320446
C88	C	0.734372	0.061181	-0.299933
H89	H	0.807383	0.123421	-0.254497
H90	H	0.807135	0.064933	-0.364273
H91	H	0.778647	0.162923	-0.356481
H92	H	0.741765	0.005032	-0.263911
H93	H	0.713278	0.103018	-0.256097
O94	O	0.389301	-0.297984	-0.000038
C95	C	0.426190	-0.374984	-0.000048
H96	H	0.470415	-0.348406	0.033769
H97	H	0.428896	-0.406957	-0.085746
C98	C	0.348770	-0.484452	0.028488
C99	C	0.403087	-0.451810	0.070032
H100	H	0.334519	-0.531845	0.071713
H101	H	0.323917	-0.432577	0.028491
H102	H	0.351033	-0.511089	-0.042925
H103	H	0.400823	-0.425163	0.141439
H104	H	0.427940	-0.503683	0.070043
O105	O	0.398568	0.042604	-0.000253
C106	C	0.361219	0.042766	-0.092798
H107	H	0.349194	-0.033950	-0.123638
H108	H	0.383144	0.080936	-0.157581
C109	C	0.321819	0.189235	-0.026840
C110	C	0.307045	0.095011	-0.064712
H111	H	0.288403	0.221466	-0.009518
H112	H	0.346983	0.189129	0.035508
H113	H	0.340090	0.221031	-0.080832
H114	H	0.288781	0.063214	-0.010716
H115	H	0.281877	0.095114	-0.127050
H116	H	0.510820	0.026854	-0.000096
H117	H	0.226204	-0.367497	-0.000091
O118	O	0.113380	-0.378913	-0.000056
C119	C	0.150270	-0.455911	-0.000073
H120	H	0.194496	-0.429331	0.033738
H121	H	0.152973	-0.487883	-0.085771
C122	C	0.072855	-0.565384	0.028476
C123	C	0.127173	-0.532739	0.070011
H124	H	0.058607	-0.612777	0.071702
H125	H	0.048000	-0.513510	0.028483
H126	H	0.075115	-0.592020	-0.042939
H127	H	0.124911	-0.506092	0.141419
H128	H	0.152027	-0.584610	0.070017
H129	H	-0.044928	-0.275687	-0.000121
H130	H	-0.144114	0.039887	-0.000134
O131	O	-0.157943	-0.286929	-0.000174
C132	C	-0.216287	-0.267223	-0.000152
H133	H	-0.223483	-0.194913	-0.033977
H134	H	-0.230391	-0.265696	0.085551
C135	C	-0.242406	-0.434252	-0.028660
C136	C	-0.251245	-0.345443	-0.070214
H137	H	-0.263970	-0.482503	-0.071873
H138	H	-0.203099	-0.447530	-0.028671
H139	H	-0.254159	-0.432966	0.042758
H140	H	-0.239485	-0.346726	-0.141625
H141	H	-0.290551	-0.332168	-0.070216
H142	H	-0.036249	0.037742	-0.000149
H143	H	0.239685	0.118666	-0.000180
H144	H	0.131819	0.120819	-0.000179
