data_functionalizedCrystal
_audit_creation_method	'MofGen! by Chris Wilmer'
_symmetry_space_group_name_H-M	'P1'
_symmetry_Int_Tables_number	1
_symmetry_cell_setting	triclinic
loop_
_symmetry_equiv_pos_as_xyz
  x,y,z
_cell_length_a	14.908571
_cell_length_b	25.639240
_cell_length_c	14.908308
_cell_angle_alpha	93.259955
_cell_angle_beta	89.824947
_cell_angle_gamma	93.261014
loop_
_atom_site_label
_atom_site_type_symbol
_atom_site_fract_x
_atom_site_fract_y
_atom_site_fract_z
Zn1	Zn	1.345112	0.272843	0.587523
Zn2	Zn	1.845112	0.772843	1.087523
Zn3	Zn	1.353637	0.355540	0.437145
Zn4	Zn	1.853637	0.855540	0.937145
Zn5	Zn	1.203434	0.262801	0.428523
Zn6	Zn	1.703434	0.762801	0.928523
Zn7	Zn	1.194665	0.354918	0.578797
Zn8	Zn	1.694665	0.854918	1.078797
O9	O	1.274212	0.311526	0.507997
O10	O	1.774212	0.811526	1.007997
O11	O	1.472066	0.288276	0.574835
O12	O	1.972066	0.788276	1.074835
O13	O	1.340950	0.339295	0.310178
O14	O	1.840950	0.839295	0.810178
O15	O	1.222330	0.190973	0.449658
O16	O	1.722330	0.690973	0.949658
O17	O	1.478329	0.349032	0.464353
O18	O	1.978329	0.849032	0.964353
O19	O	1.326420	0.198351	0.566474
O20	O	1.826420	0.698351	1.066474
O21	O	1.230596	0.271160	0.303843
O22	O	1.730596	0.771160	0.803843
O23	O	1.076448	0.270558	0.441197
O24	O	1.576448	0.770558	0.941197
O25	O	1.207385	0.347974	0.705778
O26	O	1.707385	0.847974	1.205778
O27	O	1.070005	0.338236	0.551603
O28	O	1.570005	0.838236	1.051603
O29	O	1.317917	0.287673	0.712189
O30	O	1.817917	0.787673	1.212189
O31	O	1.332447	0.428618	0.455892
O32	O	1.832447	0.928618	0.955892
O33	O	1.215651	0.428161	0.559963
O34	O	1.715651	0.928161	1.059963
C35	C	1.040602	0.303240	0.494518
C36	C	1.540602	0.803240	0.994518
C37	C	0.940661	0.299709	0.488772
C38	C	1.440661	0.799709	0.988772
C39	C	1.274045	0.447361	0.507938
C40	C	1.774045	0.947361	1.007938
C41	C	1.274055	0.505475	0.507947
C42	C	1.774055	1.005475	1.007947
C43	C	0.746211	0.363646	0.592788
C44	C	1.246211	0.863646	1.092788
C45	C	0.652308	0.360330	0.587393
C46	C	1.152308	0.860330	1.087393
C47	C	0.658949	0.289759	0.472593
C48	C	1.158949	0.789759	0.972593
C49	C	0.752853	0.293075	0.477988
C50	C	1.252853	0.793075	0.977988
C51	C	0.796480	0.330020	0.538086
C52	C	1.296480	0.830020	1.038086
C53	C	0.890385	0.333339	0.543476
C54	C	1.390385	0.833339	1.043476
C55	C	0.897025	0.262765	0.428681
C56	C	1.397025	0.762765	0.928681
C57	C	0.803122	0.259449	0.423286
C58	C	1.303122	0.759449	0.923286
C59	C	1.335099	0.866075	0.453875
C60	C	1.835099	1.366075	0.953875
C61	C	1.335126	0.920680	0.453885
C62	C	1.835126	1.420680	0.953885
O63	O	1.386911	0.949113	0.407877
O64	O	1.886911	1.449113	0.907877
N65	N	1.274283	0.947768	0.508021
N66	N	1.774283	1.447768	1.008021
C67	C	1.213415	0.920247	0.562157
C68	C	1.713415	1.420247	1.062157
O69	O	1.161667	0.948301	0.608206
O70	O	1.661667	1.448301	1.108206
C71	C	1.213393	0.865643	0.562151
C72	C	1.713393	1.365643	1.062151
C73	C	1.274234	0.838558	0.508005
C74	C	1.774234	1.338558	1.008005
C75	C	1.395936	0.838990	0.399734
C76	C	1.895936	1.338990	0.899734
C77	C	1.395908	0.784388	0.399723
C78	C	1.895908	1.284388	0.899723
C79	C	1.335043	0.756871	0.453853
C80	C	1.835043	1.256871	0.953853
C81	C	1.274206	0.783956	0.507994
C82	C	1.774206	1.283956	1.007994
C83	C	1.152530	0.838124	0.616291
C84	C	1.652530	1.338124	1.116291
C85	C	1.152514	0.783516	0.616281
C86	C	1.652514	1.283516	1.116281
C87	C	1.213355	0.756431	0.562135
C88	C	1.713355	1.256431	1.062135
C89	C	1.213312	0.701837	0.562112
C90	C	1.713312	1.201837	1.062112
N91	N	1.274156	0.674750	0.507976
N92	N	1.774156	1.174750	1.007976
C93	C	1.335021	0.702267	0.453847
C94	C	1.835021	1.202267	0.953847
C95	C	1.213467	1.034920	0.562167
C96	C	1.713467	1.534920	1.062167
C97	C	1.213484	1.089523	0.562169
C98	C	1.713484	1.589523	1.062169
C99	C	1.335197	1.089952	0.453898
C100	C	1.835197	1.589952	0.953898
C101	C	1.335175	1.035348	0.453892
C102	C	1.835175	1.535348	0.953892
C103	C	1.274310	1.007832	0.508031
C104	C	1.774310	1.507832	1.008031
C105	C	1.334956	0.587599	0.453826
C106	C	1.834956	1.087599	0.953826
C107	C	1.334920	0.532992	0.453817
C108	C	1.834920	1.032992	0.953817
C109	C	1.213211	0.532568	0.562091
C110	C	1.713211	1.032568	1.062091
C111	C	1.213243	0.587169	0.562097
C112	C	1.713243	1.087169	1.062097
C113	C	1.274124	0.614684	0.507962
C114	C	1.774124	1.114684	1.007962
O115	O	1.161557	0.673370	0.608100
O116	O	1.661557	1.173370	1.108100
O117	O	1.386769	0.674207	0.407815
O118	O	1.886769	1.174207	0.907815
C119	C	1.508734	0.319843	0.521529
C120	C	2.008734	0.819843	1.021529
C121	C	1.608674	0.323388	0.527296
C122	C	2.108674	0.823388	1.027296
C123	C	1.260722	0.318874	0.742521
C124	C	1.760722	0.818874	1.242521
C125	C	1.254973	0.322006	0.842461
C126	C	1.754973	0.822006	1.342461
C127	C	1.274370	1.175160	0.508060
C128	C	1.774370	1.675160	1.008060
C129	C	1.274353	1.117045	0.508042
C130	C	1.774353	1.617045	1.008042
C131	C	1.287701	0.304169	0.274389
C132	C	1.787701	0.804169	0.774389
C133	C	1.293624	0.300897	0.174459
C134	C	1.793624	0.800897	0.674459
C135	C	1.359266	0.265088	1.036936
C136	C	1.859266	0.765088	1.536936
C137	C	1.353868	0.268028	1.130838
C138	C	1.853868	0.768028	1.630838
C139	C	1.238774	0.330825	1.124170
C140	C	1.738774	0.830825	1.624170
C141	C	1.244172	0.327884	1.030268
C142	C	1.744172	0.827884	1.530268
C143	C	1.304421	0.295015	0.986654
C144	C	1.804421	0.795015	1.486654
C145	C	1.309824	0.292077	0.892750
C146	C	1.809824	0.792077	1.392750
C147	C	1.194726	0.354871	0.886083
C148	C	1.694726	0.854871	1.386083
C149	C	1.189327	0.357812	0.979986
C150	C	1.689327	0.857812	1.479986
H151	H	0.925905	0.363422	0.592410
H152	H	1.425905	0.863422	1.092410
H153	H	1.445505	0.861389	0.355655
H154	H	1.945505	1.361389	0.855655
H155	H	0.781733	0.393731	0.641717
H156	H	1.281733	0.893731	1.141717
Cl157	Cl	1.411412	0.498946	0.385743
Cl158	Cl	1.911412	0.998946	0.885743
Cl159	Cl	0.604087	0.243310	0.397061
Cl160	Cl	1.104087	0.743310	0.897061
H161	H	0.767588	0.229368	0.374358
H162	H	1.267588	0.729368	0.874358
H163	H	1.102983	0.860166	0.660379
H164	H	1.602983	1.360166	1.160379
Cl165	Cl	0.589114	0.402603	0.656165
Cl166	Cl	1.089114	0.902603	1.156165
H167	H	0.937965	0.235385	0.384137
H168	H	1.437965	0.735385	0.884137
Cl169	Cl	1.385567	0.250758	0.837922
Cl170	Cl	1.885567	0.750758	1.337922
H171	H	1.150070	0.379242	0.845133
H172	H	1.650070	0.879242	1.345133
Cl173	Cl	1.435015	0.223774	0.982104
Cl174	Cl	1.935015	0.723774	1.482104
Cl175	Cl	1.411713	1.124555	0.385847
Cl176	Cl	1.911713	1.624555	0.885847
H177	H	1.163897	1.012519	0.606250
H178	H	1.663897	1.512519	1.106250
Cl179	Cl	1.075995	0.748928	0.684348
Cl180	Cl	1.575995	1.248928	1.184348
H181	H	1.398526	0.243657	1.171775
H182	H	1.898526	0.743657	1.671775
H183	H	1.384717	1.013299	0.409802
H184	H	1.884717	1.513299	0.909802
Cl185	Cl	1.411490	0.622180	0.385768
Cl186	Cl	1.911490	1.122180	0.885768
H187	H	1.140273	0.384572	1.015509
H188	H	1.640273	0.884572	1.515509
Cl189	Cl	1.472411	0.750348	0.331664
Cl190	Cl	1.972411	1.250348	0.831664
H191	H	1.189721	0.357585	1.159697
H192	H	1.689721	0.857585	1.659697
Cl193	Cl	1.136985	1.123565	0.630230
Cl194	Cl	1.636985	1.623565	1.130230
H195	H	1.163704	0.609223	0.606190
H196	H	1.663704	1.109223	1.106190
H197	H	1.163652	0.510155	0.606160
H198	H	1.663652	1.010155	1.106160
