data_functionalizedCrystal
_audit_creation_method	'MofGen! by Chris Wilmer'
_symmetry_space_group_name_H-M	'P1'
_symmetry_Int_Tables_number	1
_symmetry_cell_setting	triclinic
loop_
_symmetry_equiv_pos_as_xyz
  x,y,z
_cell_length_a	10.654543
_cell_length_b	10.654550
_cell_length_c	15.455304
_cell_angle_alpha	92.976308
_cell_angle_beta	92.972752
_cell_angle_gamma	84.483552
loop_
_atom_site_label
_atom_site_type_symbol
_atom_site_fract_x
_atom_site_fract_y
_atom_site_fract_z
O1	O	-1.672791	-0.181301	-0.072038
O2	O	-1.307313	-0.198117	-0.072060
O3	O	-1.498454	-0.006969	-0.072043
O4	O	-1.481649	-0.372449	-0.072055
O5	O	-1.488536	0.002934	0.072220
O6	O	-1.297394	-0.188214	0.072203
O7	O	-1.662872	-0.171398	0.072225
Cu8	Cu	-1.479227	-0.178902	0.085386
Cu9	Cu	-1.490957	-0.190613	-0.085221
O10	O	-1.471730	-0.362546	0.072208
C11	C	-1.255555	-0.191933	0.000069
C12	C	-1.116112	-0.188245	0.000060
N13	N	-1.470986	-0.170664	0.205382
C14	C	-1.492261	0.044780	0.000088
C15	C	-1.488569	0.184223	0.000086
C16	C	-1.036627	-0.300789	0.000058
C17	C	-0.905605	-0.297314	0.000071
C18	C	-0.933567	-0.068743	0.000085
C19	C	-1.064586	-0.072218	0.000078
C20	C	-0.714629	-0.177588	0.000090
C21	C	-0.854071	-0.181296	0.000080
C22	C	-1.477924	-0.414295	0.000075
C23	C	-1.481616	-0.553739	0.000071
C24	C	-1.601111	0.263712	0.000093
C25	C	-1.597635	0.394732	0.000082
C26	C	-1.369066	0.366762	0.000062
C27	C	-1.372544	0.235744	0.000066
C28	C	-1.544701	-0.244429	0.250774
C29	C	-1.538485	-0.238191	0.341582
C30	C	-1.458548	-0.158194	0.386996
C31	C	-1.384831	-0.084420	0.341597
C32	C	-1.391054	-0.090652	0.250791
C33	C	-1.431704	-0.131305	0.658578
C34	C	-1.425483	-0.125082	0.749391
C35	C	-1.579140	-0.278852	0.749370
C36	C	-1.585351	-0.285083	0.658562
C37	C	-1.511639	-0.211304	0.613171
N38	N	-1.452189	-0.151819	0.479816
N39	N	-1.518004	-0.217673	0.520352
N40	N	-1.499198	-0.198847	0.794783
H41	H	-1.078574	-0.395264	0.000050
O42	O	-0.828576	-0.406760	0.000027
C43	C	-0.814673	-0.633835	0.000059
C44	C	-0.902054	-0.509979	0.000087
H45	H	-0.874044	-0.717318	0.000126
H46	H	-0.756793	-0.642151	-0.060324
H47	H	-0.748475	-0.633716	0.060423
H48	H	-0.968327	-0.510012	-0.060236
H49	H	-0.959846	-0.501711	0.060510
H50	H	-0.891597	0.025722	0.000105
H51	H	-1.280893	0.171020	0.000059
O52	O	-1.256345	0.416745	-0.000105
C53	C	-1.065034	0.427734	-0.074834
C54	C	-1.192669	0.371064	-0.074766
H55	H	-1.013504	0.390803	-0.135181
H56	H	-1.081810	0.535032	-0.074889
H57	H	-1.005258	0.399252	-0.014437
H58	H	-1.252511	0.399450	-0.135152
H59	H	-1.175801	0.263775	-0.074665
H60	H	-1.598514	-0.298257	0.378537
H61	H	-1.609787	-0.309580	0.213805
H62	H	-1.129307	0.019434	0.000083
O63	O	-1.650934	-0.350442	0.793368
C64	C	-1.860829	-0.399480	0.821174
C65	C	-1.779663	-0.318345	0.771278
H66	H	-1.964924	-0.373540	0.803347
H67	H	-1.835054	-0.503592	0.803300
H68	H	-1.842589	-0.381311	0.893872
H69	H	-1.797860	-0.336405	0.698569
H70	H	-1.805454	-0.214259	0.789225
O71	O	-1.662815	-0.362948	0.614417
C72	C	-1.678541	-0.539610	0.511862
C73	C	-1.590676	-0.451523	0.561812
H74	H	-1.620256	-0.611227	0.469305
H75	H	-1.730127	-0.591356	0.559872
H76	H	-1.750315	-0.481389	0.469381
H77	H	-1.518832	-0.509650	0.604294
H78	H	-1.539183	-0.399771	0.513755
O79	O	-1.347805	-0.047254	0.793370
C80	C	-1.196006	0.104558	0.783806
C81	C	-1.283942	0.016504	0.733893
H82	H	-1.144329	0.156111	0.735741
H83	H	-1.254207	0.176342	0.826300
H84	H	-1.124313	0.046332	0.826340
H85	H	-1.355651	0.074626	0.691312
H86	H	-1.225659	-0.055283	0.691455
H87	H	-1.689278	0.459447	0.000086
O88	O	-1.359995	-0.059852	0.614410
C89	C	-1.197262	-0.058120	0.511981
C90	C	-1.278438	-0.139180	0.561929
H91	H	-1.131285	-0.122224	0.469552
H92	H	-1.261227	0.007755	0.469399
H93	H	-1.139115	0.000128	0.560072
H94	H	-1.336596	-0.197504	0.513901
H95	H	-1.214404	-0.204974	0.604524
H96	H	-1.319750	-0.019278	0.378580
O97	O	-1.319319	-0.018955	0.206828
C98	C	-1.166313	0.134278	0.216426
C99	C	-1.247459	0.053121	0.266320
H100	H	-1.108214	0.192592	0.264504
H101	H	-1.100316	0.070295	0.173935
H102	H	-1.230416	0.200098	0.173891
H103	H	-1.183454	-0.012709	0.308902
H104	H	-1.313467	0.117179	0.308756
H105	H	-1.695586	0.221769	0.000107
