data_functionalizedCrystal
_audit_creation_method	'MofGen! by Chris Wilmer'
_symmetry_space_group_name_H-M	'P1'
_symmetry_Int_Tables_number	1
_symmetry_cell_setting	triclinic
loop_
_symmetry_equiv_pos_as_xyz
  x,y,z
_cell_length_a	19.121063
_cell_length_b	19.805407
_cell_length_c	19.805399
_cell_angle_alpha	90.021725
_cell_angle_beta	92.411105
_cell_angle_gamma	87.529649
loop_
_atom_site_label
_atom_site_type_symbol
_atom_site_fract_x
_atom_site_fract_y
_atom_site_fract_z
Zn1	Zn	-0.279608	-1.023235	-0.394240
Zn2	Zn	0.053725	-0.689901	-0.060907
Zn3	Zn	0.387059	-0.356568	0.272426
Zn4	Zn	-0.397060	-1.018318	-0.285875
Zn5	Zn	-0.063727	-0.684985	0.047458
Zn6	Zn	0.269606	-0.351652	0.380792
Zn7	Zn	-0.279630	-0.910048	-0.281062
Zn8	Zn	0.053704	-0.576715	0.052272
Zn9	Zn	0.387037	-0.243382	0.385605
Zn10	Zn	-0.397026	-0.905183	-0.399016
Zn11	Zn	-0.063692	-0.571850	-0.065683
Zn12	Zn	0.269641	-0.238516	0.267650
O13	O	-0.338331	-0.964196	-0.340048
O14	O	-0.004998	-0.630863	-0.006715
O15	O	0.328336	-0.297529	0.326618
O16	O	-0.295194	-1.117299	-0.379881
O17	O	0.038140	-0.783966	-0.046548
O18	O	0.371473	-0.450632	0.286785
O19	O	-0.381507	-1.003935	-0.190521
O20	O	-0.048173	-0.670601	0.142812
O21	O	0.285160	-0.337268	0.476146
O22	O	-0.181342	-0.929156	-0.292062
O23	O	0.151991	-0.595823	0.041272
O24	O	0.485325	-0.262490	0.374605
O25	O	-0.381485	-1.113687	-0.300266
O26	O	-0.048152	-0.780354	0.033068
O27	O	0.285181	-0.447020	0.366401
O28	O	-0.181326	-1.012314	-0.375214
O29	O	0.152007	-0.678981	-0.041880
O30	O	0.485341	-0.345647	0.291453
O31	O	-0.295231	-0.924389	-0.186984
O32	O	0.038102	-0.591056	0.146349
O33	O	0.371436	-0.257723	0.479682
O34	O	-0.295197	-0.814687	-0.296693
O35	O	0.038136	-0.481353	0.036641
O36	O	0.371470	-0.148020	0.369974
O37	O	-0.381426	-0.920864	-0.493098
O38	O	-0.048093	-0.587531	-0.159765
O39	O	0.285241	-0.254198	0.173568
O40	O	-0.381447	-0.811112	-0.383353
O41	O	-0.048114	-0.477779	-0.050020
O42	O	0.285219	-0.144446	0.283313
O43	O	-0.295160	-1.007596	-0.489589
O44	O	0.038173	-0.674263	-0.156256
O45	O	0.371507	-0.340930	0.177077
O46	O	-0.495341	-0.999217	-0.304897
O47	O	-0.162007	-0.665884	0.028437
O48	O	0.171326	-0.332550	0.361770
O49	O	-0.495315	-0.916097	-0.388021
O50	O	-0.161982	-0.582764	-0.054688
O51	O	0.171352	-0.249430	0.278646
C52	C	-0.338321	-0.788341	-0.340019
C53	C	-0.004988	-0.455007	-0.006686
C54	C	0.328345	-0.121674	0.326647
C55	C	-0.338334	-0.713108	-0.340024
C56	C	-0.005001	-0.379775	-0.006690
C57	C	0.328332	-0.046441	0.326643
C58	C	-0.293474	-0.253198	-0.381583
C59	C	0.039860	0.080135	-0.048250
C60	C	0.373193	0.413468	0.285083
C61	C	-0.293476	-0.323887	-0.381580
C62	C	0.039858	0.009447	-0.048247
C63	C	0.373191	0.342780	0.285087
C64	C	-0.338334	-0.357346	-0.340056
C65	C	-0.005000	-0.024013	-0.006723
C66	C	0.328333	0.309320	0.326610
C67	C	-0.383197	-0.320114	-0.298538
C68	C	-0.049864	0.013220	0.034795
C69	C	0.283469	0.346553	0.368129
C70	C	-0.383198	-0.249426	-0.298545
C71	C	-0.049865	0.083907	0.034788
C72	C	0.283468	0.417240	0.368121
C73	C	-0.383196	-0.605187	-0.298509
C74	C	-0.049862	-0.271854	0.034825
C75	C	0.283471	0.061480	0.368158
C76	C	-0.383190	-0.675879	-0.298503
C77	C	-0.049857	-0.342546	0.034830
C78	C	0.283477	-0.009213	0.368163
C79	C	-0.293473	-0.679647	-0.381544
C80	C	0.039860	-0.346314	-0.048210
C81	C	0.373193	-0.012981	0.285123
C82	C	-0.293474	-0.608960	-0.381551
C83	C	0.039859	-0.275627	-0.048217
C84	C	0.373193	0.057707	0.285116
C85	C	-0.338340	-0.571733	-0.340035
C86	C	-0.005007	-0.238400	-0.006702
C87	C	0.328327	0.094933	0.326631
C88	C	-0.338338	-0.495085	-0.340040
C89	C	-0.005005	-0.161752	-0.006707
C90	C	0.328329	0.171582	0.326626
C91	C	-0.338333	-0.433993	-0.340047
C92	C	-0.004999	-0.100660	-0.006714
C93	C	0.328334	0.232673	0.326619
C94	C	-0.520812	-0.956614	-0.347514
C95	C	-0.187479	-0.623281	-0.014181
C96	C	0.145855	-0.289947	0.319152
C97	C	-0.598878	-0.953432	-0.350731
C98	C	-0.265545	-0.620099	-0.017398
C99	C	0.067789	-0.286766	0.315936
C100	C	-0.635544	-0.995247	-0.309000
C101	C	-0.302210	-0.661914	0.024334
C102	C	0.031123	-0.328581	0.357667
C103	C	-0.708895	-0.992259	-0.312029
C104	C	-0.375562	-0.658926	0.021305
C105	C	-0.042229	-0.325592	0.354638
C106	C	-0.745580	-0.947452	-0.356786
C107	C	-0.412246	-0.614118	-0.023453
C108	C	-0.078913	-0.280785	0.309880
C109	C	-0.708909	-0.905635	-0.398522
C110	C	-0.375576	-0.572302	-0.065189
C111	C	-0.042242	-0.238968	0.268145
C112	C	-0.635559	-0.908627	-0.395496
C113	C	-0.302225	-0.575294	-0.062163
C114	C	0.031108	-0.241961	0.271171
C115	C	-0.967050	-0.936253	-0.368090
C116	C	-0.633717	-0.602920	-0.034757
C117	C	-0.300383	-0.269587	0.298577
C118	C	-1.040405	-0.933263	-0.371112
C119	C	-0.707072	-0.599929	-0.037778
C120	C	-0.373739	-0.266596	0.295555
C121	C	-1.040387	-1.019888	-0.284619
C122	C	-0.707053	-0.686555	0.048715
C123	C	-0.373720	-0.353221	0.382048
C124	C	-0.967035	-1.022873	-0.281594
C125	C	-0.633702	-0.689540	0.051740
C126	C	-0.300368	-0.356207	0.385073
C127	C	-0.930371	-0.981059	-0.323332
C128	C	-0.597037	-0.647726	0.010001
C129	C	-0.263704	-0.314393	0.343335
C130	C	-0.820557	-0.944395	-0.359882
C131	C	-0.487223	-0.611061	-0.026549
C132	C	-0.153890	-0.277728	0.306785
C133	C	-0.855395	-0.984120	-0.320239
C134	C	-0.522062	-0.650787	0.013094
C135	C	-0.188728	-0.317454	0.346428
C136	C	-0.155137	-0.971826	-0.332568
C137	C	0.178196	-0.638493	0.000765
C138	C	0.511529	-0.305160	0.334099
C139	C	-0.077071	-0.975078	-0.329380
C140	C	0.256262	-0.641744	0.003953
C141	C	0.589596	-0.308411	0.337286
C142	C	-0.338287	-0.964236	-0.516589
C143	C	-0.004953	-0.630903	-0.183256
C144	C	0.328380	-0.297569	0.150077
C145	C	-0.338268	-0.964253	-0.591821
C146	C	-0.004934	-0.630920	-0.258487
C147	C	0.328399	-0.297586	0.074846
C148	C	-0.338338	-0.140739	-0.340072
C149	C	-0.005004	0.192595	-0.006738
C150	C	0.328329	0.525928	0.326595
C151	C	-0.338332	-0.215971	-0.340067
C152	C	-0.004999	0.117363	-0.006733
C153	C	0.328334	0.450696	0.326600
C154	C	-0.293347	-1.009415	-0.625339
C155	C	0.039987	-0.676082	-0.292005
C156	C	0.373320	-0.342749	0.041328
C157	C	-0.293326	-1.009423	-0.696026
C158	C	0.040007	-0.676090	-0.362693
C159	C	0.373340	-0.342756	-0.029360
C160	C	-0.338231	-0.964271	-0.733195
C161	C	-0.004898	-0.630938	-0.399861
C162	C	0.328436	-0.297605	-0.066528
C163	C	-0.383154	-0.919104	-0.699672
C164	C	-0.049821	-0.585771	-0.366338
C165	C	0.283512	-0.252437	-0.033005
C166	C	-0.383170	-0.919093	-0.628985
C167	C	-0.049837	-0.585760	-0.295652
C168	C	0.283496	-0.252427	0.037681
C169	C	-0.383089	-0.919145	-0.984742
C170	C	-0.049755	-0.585812	-0.651409
C171	C	0.283578	-0.252478	-0.318076
C172	C	-0.383070	-0.919160	-1.055434
C173	C	-0.049737	-0.585827	-0.722101
C174	C	0.283596	-0.252494	-0.388767
C175	C	-0.293245	-1.009475	-1.051784
C176	C	0.040089	-0.676141	-0.718450
C177	C	0.373422	-0.342808	-0.385117
C178	C	-0.293261	-1.009464	-0.981097
C179	C	0.040072	-0.676131	-0.647764
C180	C	0.373406	-0.342797	-0.314430
C181	C	-0.338181	-0.964295	-0.947580
C182	C	-0.004848	-0.630961	-0.614247
C183	C	0.328486	-0.297628	-0.280913
C184	C	-0.338202	-0.964286	-0.870933
C185	C	-0.004868	-0.630953	-0.537599
C186	C	0.328465	-0.297619	-0.204266
C187	C	-0.338215	-0.964283	-0.809841
C188	C	-0.004881	-0.630949	-0.476508
C189	C	0.328452	-0.297616	-0.143175
C190	C	-0.338324	-0.964198	-0.164192
C191	C	-0.004991	-0.630864	0.169141
C192	C	0.328342	-0.297531	0.502475
C193	C	-0.338145	-0.964320	-0.088953
C194	C	-0.004812	-0.630987	0.244380
C195	C	0.328521	-0.297653	0.577714
H196	H	-0.605680	-1.031731	-0.272550
H197	H	-0.272347	-0.698398	0.060783
H198	H	0.060987	-0.365065	0.394116
Cl199	Cl	-0.866680	-0.888066	-0.416146
Cl200	Cl	-0.533347	-0.554733	-0.082813
Cl201	Cl	-0.200014	-0.221400	0.250520
Cl202	Cl	-0.439604	-0.862339	-0.746398
Cl203	Cl	-0.106271	-0.529006	-0.413064
Cl204	Cl	0.227063	-0.195672	-0.079731
Cl205	Cl	-0.439588	-0.717942	-0.246298
Cl206	Cl	-0.106254	-0.384609	0.087035
Cl207	Cl	0.227079	-0.051275	0.420369
H208	H	-0.419743	-0.882311	-0.601696
H209	H	-0.086409	-0.548978	-0.268362
H210	H	0.246924	-0.215644	0.064971
Cl211	Cl	-0.439594	-0.362177	-0.246340
Cl212	Cl	-0.106261	-0.028844	0.086994
Cl213	Cl	0.227073	0.304489	0.420327
H214	H	-0.937168	-1.059359	-0.245149
H215	H	-0.603835	-0.726026	0.088185
H216	H	-0.270501	-0.392692	0.421518
H217	H	-0.256950	-0.354194	-0.415389
H218	H	0.076384	-0.020861	-0.082056
H219	H	0.409717	0.312472	0.251277
H220	H	-0.605706	-0.874578	-0.429479
H221	H	-0.272373	-0.541245	-0.096145
H222	H	0.060960	-0.207911	0.237188
H223	H	-0.419727	-0.574886	-0.264702
H224	H	-0.086393	-0.241552	0.068631
H225	H	0.246940	0.091781	0.401964
Cl226	Cl	-0.237073	-0.211142	-0.433784
Cl227	Cl	0.096260	0.122191	-0.100451
Cl228	Cl	0.429593	0.455525	0.232883
H229	H	-0.419728	-0.219116	-0.264740
H230	H	-0.086395	0.114217	0.068594
H231	H	0.246938	0.447550	0.401927
H232	H	-0.937204	-0.902205	-0.402074
H233	H	-0.603870	-0.568872	-0.068741
H234	H	-0.270537	-0.235539	0.264593
Cl235	Cl	-0.439560	-0.862361	-0.942616
Cl236	Cl	-0.106227	-0.529027	-0.609283
Cl237	Cl	0.227106	-0.195694	-0.275949
H238	H	-1.070247	-1.053932	-0.250639
H239	H	-0.736913	-0.720598	0.082695
H240	H	-0.403580	-0.387265	0.416028
H241	H	-0.419639	-0.882389	-1.085695
H242	H	-0.086305	-0.549056	-0.752361
H243	H	0.247028	-0.215723	-0.419028
H244	H	-0.738745	-1.026309	-0.278046
H245	H	-0.405412	-0.692975	0.055287
H246	H	-0.072079	-0.359642	0.388621
H247	H	-1.070272	-0.896783	-0.407571
H248	H	-0.736939	-0.563450	-0.074237
H249	H	-0.403605	-0.230117	0.259096
H250	H	-0.256944	-0.581721	-0.415361
H251	H	0.076390	-0.248388	-0.082028
H252	H	0.409723	0.084946	0.251306
H253	H	-0.256749	-1.046200	-0.723314
H254	H	0.076585	-0.712867	-0.389980
H255	H	0.409918	-0.379534	-0.056647
Cl256	Cl	-0.755027	-0.849309	-0.454793
Cl257	Cl	-0.421693	-0.515976	-0.121460
Cl258	Cl	-0.088360	-0.182643	0.211874
Cl259	Cl	-0.809276	-1.040450	-0.263977
Cl260	Cl	-0.475943	-0.707117	0.069356
Cl261	Cl	-0.142610	-0.373783	0.402690
Cl262	Cl	-0.236895	-1.066184	-0.578620
Cl263	Cl	0.096438	-0.732851	-0.245286
Cl264	Cl	0.429772	-0.399518	0.088047
H265	H	-0.256666	-1.046251	-1.079081
H266	H	0.076667	-0.712918	-0.745748
H267	H	0.410001	-0.379585	-0.412415
Cl268	Cl	-0.237072	-0.726451	-0.433739
Cl269	Cl	0.096261	-0.393117	-0.100405
Cl270	Cl	0.429594	-0.059784	0.232928
Cl271	Cl	-0.236809	-1.066230	-0.934375
Cl272	Cl	0.096524	-0.732897	-0.601042
Cl273	Cl	0.429858	-0.399564	-0.267708
