data_functionalizedCrystal
_audit_creation_method	'MofGen! by Chris Wilmer'
_symmetry_space_group_name_H-M	'P1'
_symmetry_Int_Tables_number	1
_symmetry_cell_setting	triclinic
loop_
_symmetry_equiv_pos_as_xyz
  x,y,z
_cell_length_a	16.120297
_cell_length_b	16.625548
_cell_length_c	16.625546
_cell_angle_alpha	90.023536
_cell_angle_beta	87.129618
_cell_angle_gamma	87.121773
loop_
_atom_site_label
_atom_site_type_symbol
_atom_site_fract_x
_atom_site_fract_y
_atom_site_fract_z
Zn1	Zn	-0.471374	-1.209557	0.344116
Zn2	Zn	-0.221374	-0.959557	0.594116
Zn3	Zn	0.028626	-0.709557	0.844116
Zn4	Zn	0.278626	-0.459557	1.094116
Zn5	Zn	-0.331959	-1.216300	0.472116
Zn6	Zn	-0.081959	-0.966300	0.722116
Zn7	Zn	0.168041	-0.716300	0.972116
Zn8	Zn	0.418041	-0.466300	1.222116
Zn9	Zn	-0.331977	-1.081557	0.337304
Zn10	Zn	-0.081977	-0.831557	0.587304
Zn11	Zn	0.168023	-0.581557	0.837304
Zn12	Zn	0.418023	-0.331557	1.087304
Zn13	Zn	-0.471324	-1.074692	0.478910
Zn14	Zn	-0.221324	-0.824692	0.728910
Zn15	Zn	0.028676	-0.574692	0.978910
Zn16	Zn	0.278676	-0.324692	1.228910
O17	O	-0.401658	-1.145526	0.408112
O18	O	-0.151658	-0.895526	0.658112
O19	O	0.098342	-0.645526	0.908112
O20	O	0.348342	-0.395526	1.158112
O21	O	-0.452893	-1.323283	0.361103
O22	O	-0.202893	-1.073283	0.611103
O23	O	0.047107	-0.823283	0.861103
O24	O	0.297107	-0.573283	1.111103
O25	O	-0.215298	-1.204120	0.448538
O26	O	0.034702	-0.954120	0.698538
O27	O	0.284702	-0.704120	0.948538
O28	O	0.534702	-0.454120	1.198538
O29	O	-0.350497	-1.098588	0.225377
O30	O	-0.100497	-0.848588	0.475377
O31	O	0.149503	-0.598588	0.725377
O32	O	0.399503	-0.348588	0.975377
O33	O	-0.350465	-1.328237	0.455143
O34	O	-0.100465	-1.078237	0.705143
O35	O	0.149535	-0.828237	0.955143
O36	O	0.399535	-0.578237	1.205143
O37	O	-0.452911	-1.192629	0.230381
O38	O	-0.202911	-0.942629	0.480381
O39	O	0.047089	-0.692629	0.730381
O40	O	0.297089	-0.442629	0.980381
O41	O	-0.215312	-1.105126	0.349493
O42	O	0.034688	-0.855126	0.599493
O43	O	0.284688	-0.605126	0.849493
O44	O	0.534688	-0.355126	1.099493
O45	O	-0.350449	-0.967815	0.356081
O46	O	-0.100449	-0.717815	0.606081
O47	O	0.149551	-0.467815	0.856081
O48	O	0.399551	-0.217815	1.106081
O49	O	-0.587993	-1.086887	0.466724
O50	O	-0.337993	-0.836887	0.716724
O51	O	-0.087993	-0.586887	0.966724
O52	O	0.162007	-0.336887	1.216724
O53	O	-0.452827	-0.962771	0.460119
O54	O	-0.202827	-0.712771	0.710119
O55	O	0.047173	-0.462771	0.960119
O56	O	0.297173	-0.212771	1.210119
O57	O	-0.588030	-1.185972	0.367691
O58	O	-0.338030	-0.935972	0.617691
O59	O	-0.088030	-0.685972	0.867691
O60	O	0.161970	-0.435972	1.117691
O61	O	-0.350417	-1.197463	0.585848
O62	O	-0.100417	-0.947463	0.835848
O63	O	0.149583	-0.697463	1.085848
O64	O	0.399583	-0.447463	1.335848
O65	O	-0.452808	-1.093425	0.590840
O66	O	-0.202808	-0.843425	0.840840
O67	O	0.047192	-0.593425	1.090840
O68	O	0.297192	-0.343425	1.340840
C69	C	-0.401635	-0.936037	0.408099
C70	C	-0.151635	-0.686037	0.658099
C71	C	0.098365	-0.436037	0.908099
C72	C	0.348365	-0.186037	1.158099
C73	C	-0.401645	-0.846415	0.408114
C74	C	-0.151645	-0.596415	0.658114
C75	C	0.098355	-0.346415	0.908114
C76	C	0.348355	-0.096415	1.158114
C77	C	-0.401624	-1.145452	0.617601
C78	C	-0.151624	-0.895452	0.867601
C79	C	0.098376	-0.645452	1.117601
C80	C	0.348376	-0.395452	1.367601
C81	C	-0.401636	-1.145492	0.707222
C82	C	-0.151636	-0.895492	0.957222
C83	C	0.098364	-0.645492	1.207222
C84	C	0.348364	-0.395492	1.457222
C85	C	-0.619107	-1.134912	0.418726
C86	C	-0.369107	-0.884912	0.668726
C87	C	-0.119107	-0.634912	0.918726
C88	C	0.130893	-0.384912	1.168726
C89	C	-0.711770	-1.130389	0.423249
C90	C	-0.461770	-0.880389	0.673249
C91	C	-0.211770	-0.630389	0.923249
C92	C	0.038230	-0.380389	1.173249
C93	C	-0.881427	-1.122101	0.431489
C94	C	-0.631427	-0.872101	0.681489
C95	C	-0.381427	-0.622101	0.931489
C96	C	-0.131427	-0.372101	1.181489
C97	C	-0.922741	-1.169111	0.384493
C98	C	-0.672741	-0.919111	0.634493
C99	C	-0.422741	-0.669111	0.884493
C100	C	-0.172741	-0.419111	1.134493
C101	C	-1.017145	-1.164500	0.389078
C102	C	-0.767145	-0.914500	0.639078
C103	C	-0.517145	-0.664500	0.889078
C104	C	-0.267145	-0.414500	1.139078
C105	C	-0.787016	-1.126711	0.426905
C106	C	-0.537016	-0.876711	0.676905
C107	C	-0.287016	-0.626711	0.926905
C108	C	-0.037016	-0.376711	1.176905
C109	C	-0.185056	-1.156146	0.397481
C110	C	0.064944	-0.906146	0.647481
C111	C	0.314944	-0.656146	0.897481
C112	C	0.564944	-0.406146	1.147481
C113	C	-0.092393	-1.160826	0.392730
C114	C	0.157607	-0.910826	0.642730
C115	C	0.407607	-0.660826	0.892730
C116	C	0.657607	-0.410826	1.142730
C117	C	-0.401682	-1.355834	0.408125
C118	C	-0.151682	-1.105834	0.658125
C119	C	0.098318	-0.855834	0.908125
C120	C	0.348318	-0.605834	1.158125
C121	C	-0.401692	-1.445455	0.408131
C122	C	-0.151692	-1.195455	0.658131
C123	C	0.098308	-0.945455	0.908131
C124	C	0.348308	-0.695455	1.158131
C125	C	-0.401681	-0.518238	0.408121
C126	C	-0.151681	-0.268238	0.658121
C127	C	0.098319	-0.018238	0.908121
C128	C	0.348319	0.231762	1.158121
C129	C	-0.401668	-0.609547	0.408117
C130	C	-0.151668	-0.359547	0.658117
C131	C	0.098332	-0.109547	0.908117
C132	C	0.348332	0.140453	1.158117
C133	C	-0.401662	-0.682324	0.408118
C134	C	-0.151662	-0.432324	0.658118
C135	C	0.098338	-0.182324	0.908118
C136	C	0.348338	0.067676	1.158118
C137	C	-0.401651	-0.773638	0.408113
C138	C	-0.151651	-0.523638	0.658113
C139	C	0.098349	-0.273638	0.908113
C140	C	0.348349	-0.023638	1.158113
C141	C	-0.401712	-1.145622	0.197805
C142	C	-0.151712	-0.895622	0.447805
C143	C	0.098288	-0.645622	0.697805
C144	C	0.348288	-0.395622	0.947805
C145	C	-0.401734	-1.145663	0.108185
C146	C	-0.151734	-0.895663	0.358185
C147	C	0.098266	-0.645663	0.608185
C148	C	0.348266	-0.395663	0.858185
C149	C	-0.401723	-1.145629	1.035402
C150	C	-0.151723	-0.895629	1.285402
C151	C	0.098277	-0.645629	1.535402
C152	C	0.348277	-0.395629	1.785402
C153	C	-0.401701	-1.145588	0.944093
C154	C	-0.151701	-0.895588	1.194093
C155	C	0.098299	-0.645588	1.444093
C156	C	0.348299	-0.395588	1.694093
C157	C	-0.401679	-1.145560	0.871315
C158	C	-0.151679	-0.895560	1.121315
C159	C	0.098321	-0.645560	1.371315
C160	C	0.348321	-0.395560	1.621315
C161	C	-0.401658	-1.145521	0.780000
C162	C	-0.151658	-0.895521	1.030000
C163	C	0.098342	-0.645521	1.280000
C164	C	0.348342	-0.395521	1.530000
H165	H	-0.887213	-1.212820	0.340814
H166	H	-0.637213	-0.962820	0.590814
H167	H	-0.387213	-0.712820	0.840814
H168	H	-0.137213	-0.462820	1.090814
H169	H	-0.916954	-1.078395	0.475164
H170	H	-0.666954	-0.828395	0.725164
H171	H	-0.416954	-0.578395	0.975164
H172	H	-0.166954	-0.328395	1.225164
