data_functionalizedCrystal
_audit_creation_method	'MofGen! by Chris Wilmer'
_symmetry_space_group_name_H-M	'P1'
_symmetry_Int_Tables_number	1
_symmetry_cell_setting	triclinic
loop_
_symmetry_equiv_pos_as_xyz
  x,y,z
_cell_length_a	29.839135
_cell_length_b	18.215405
_cell_length_c	29.839111
_cell_angle_alpha	90.118719
_cell_angle_beta	90.064854
_cell_angle_gamma	90.026712
loop_
_atom_site_label
_atom_site_type_symbol
_atom_site_fract_x
_atom_site_fract_y
_atom_site_fract_z
Zn1	Zn	-0.686989	0.292315	-0.254052
Zn2	Zn	-0.436989	0.542315	-0.004052
Zn3	Zn	-0.186989	0.792315	0.245948
Zn4	Zn	0.063011	1.042315	0.495948
Zn5	Zn	-0.686879	0.415576	-0.178922
Zn6	Zn	-0.436879	0.665576	0.071078
Zn7	Zn	-0.186879	0.915576	0.321078
Zn8	Zn	0.063121	1.165576	0.571078
Zn9	Zn	-0.611808	0.292532	-0.178930
Zn10	Zn	-0.361808	0.542532	0.071070
Zn11	Zn	-0.111808	0.792532	0.321070
Zn12	Zn	0.138192	1.042532	0.571070
Zn13	Zn	-0.611841	0.415349	-0.254019
Zn14	Zn	-0.361841	0.665349	-0.004019
Zn15	Zn	-0.111841	0.915349	0.245981
Zn16	Zn	0.138159	1.165349	0.495981
O17	O	-0.649379	0.353943	-0.216481
O18	O	-0.399379	0.603943	0.033519
O19	O	-0.149379	0.853943	0.283519
O20	O	0.100621	1.103943	0.533519
O21	O	-0.749842	0.308671	-0.244097
O22	O	-0.499842	0.558671	0.005903
O23	O	-0.249842	0.808671	0.255903
O24	O	0.000158	1.058671	0.505903
O25	O	-0.676860	0.399440	-0.116056
O26	O	-0.426860	0.649440	0.133944
O27	O	-0.176860	0.899440	0.383944
O28	O	0.073140	1.149440	0.633944
O29	O	-0.621813	0.189519	-0.188912
O30	O	-0.371813	0.439519	0.061088
O31	O	-0.121813	0.689519	0.311088
O32	O	0.128187	0.939519	0.561088
O33	O	-0.749760	0.399230	-0.188899
O34	O	-0.499760	0.649230	0.061101
O35	O	-0.249760	0.899230	0.311101
O36	O	0.000240	1.149230	0.561101
O37	O	-0.677048	0.189360	-0.244104
O38	O	-0.427048	0.439360	0.005896
O39	O	-0.177048	0.689360	0.255896
O40	O	0.072952	0.939360	0.505896
O41	O	-0.621705	0.309040	-0.116061
O42	O	-0.371705	0.559040	0.133939
O43	O	-0.121705	0.809040	0.383939
O44	O	0.128295	1.059040	0.633939
O45	O	-0.548945	0.308819	-0.188880
O46	O	-0.298945	0.558819	0.061120
O47	O	-0.048945	0.808819	0.311120
O48	O	0.201055	1.058819	0.561120
O49	O	-0.621870	0.398842	-0.316891
O50	O	-0.371870	0.648842	-0.066891
O51	O	-0.121870	0.898842	0.183109
O52	O	0.128130	1.148842	0.433109
O53	O	-0.548970	0.399052	-0.244048
O54	O	-0.298970	0.649052	0.005952
O55	O	-0.048970	0.899052	0.255952
O56	O	0.201030	1.149052	0.505952
O57	O	-0.677081	0.308450	-0.316915
O58	O	-0.427081	0.558450	-0.066915
O59	O	-0.177081	0.808450	0.183085
O60	O	0.072919	1.058450	0.433085
O61	O	-0.676893	0.518530	-0.188867
O62	O	-0.426893	0.768530	0.061133
O63	O	-0.176893	1.018530	0.311133
O64	O	0.073107	1.268530	0.561133
O65	O	-0.621763	0.518363	-0.244041
O66	O	-0.371763	0.768363	0.005959
O67	O	-0.121763	1.018363	0.255959
O68	O	0.128237	1.268363	0.505959
C69	C	-0.532657	0.353935	-0.216461
C70	C	-0.282657	0.603935	0.033539
C71	C	-0.032657	0.853935	0.283539
C72	C	0.217343	1.103935	0.533539
C73	C	-0.482722	0.353949	-0.216463
C74	C	-0.232722	0.603949	0.033537
C75	C	0.017278	0.853949	0.283537
C76	C	0.267278	1.103949	0.533537
C77	C	-0.173118	0.306851	-0.245262
C78	C	0.076882	0.556851	0.004738
C79	C	0.326882	0.806851	0.254738
C80	C	0.576882	1.056851	0.504738
C81	C	0.014555	0.306852	-0.245274
C82	C	0.264555	0.556852	0.004726
C83	C	0.514555	0.806852	0.254726
C84	C	0.764555	1.056852	0.504726
O85	O	0.038786	0.266795	-0.269740
O86	O	0.288786	0.516795	-0.019740
O87	O	0.538786	0.766795	0.230260
O88	O	0.788786	1.016795	0.480260
N89	N	0.038063	0.353930	-0.216494
N90	N	0.288063	0.603930	0.033506
N91	N	0.538063	0.853930	0.283506
N92	N	0.788063	1.103930	0.533506
C93	C	0.014650	0.401008	-0.187707
C94	C	0.264650	0.651008	0.062293
C95	C	0.514650	0.901008	0.312293
C96	C	0.764650	1.151008	0.562293
O97	O	0.038951	0.441045	-0.163225
O98	O	0.288951	0.691045	0.086775
O99	O	0.538951	0.941045	0.336775
O100	O	0.788951	1.191045	0.586775
C101	C	-0.173022	0.401002	-0.187693
C102	C	0.076978	0.651002	0.062307
C103	C	0.326978	0.901002	0.312307
C104	C	0.576978	1.151002	0.562307
C105	C	-0.196528	0.353926	-0.216478
C106	C	0.053472	0.603926	0.033522
C107	C	0.303472	0.853926	0.283522
C108	C	0.553472	1.103926	0.533522
C109	C	-0.196624	0.259778	-0.274045
C110	C	0.053376	0.509778	-0.024045
C111	C	0.303376	0.759778	0.225955
C112	C	0.553376	1.009778	0.475955
C113	C	-0.243539	0.259781	-0.274043
C114	C	0.006461	0.509781	-0.024043
C115	C	0.256461	0.759781	0.225957
C116	C	0.506461	1.009781	0.475957
C117	C	-0.266949	0.306857	-0.245259
C118	C	-0.016949	0.556857	0.004741
C119	C	0.233051	0.806857	0.254741
C120	C	0.483051	1.056857	0.504741
C121	C	-0.243443	0.353929	-0.216477
C122	C	0.006557	0.603929	0.033523
C123	C	0.256557	0.853929	0.283523
C124	C	0.506557	1.103929	0.533523
C125	C	-0.196435	0.448076	-0.158904
C126	C	0.053565	0.698076	0.091096
C127	C	0.303565	0.948076	0.341096
C128	C	0.553565	1.198076	0.591096
C129	C	-0.243356	0.448069	-0.158902
C130	C	0.006644	0.698069	0.091098
C131	C	0.256644	0.948069	0.341098
C132	C	0.506644	1.198069	0.591098
C133	C	-0.266861	0.400993	-0.187687
C134	C	-0.016861	0.650993	0.062313
C135	C	0.233139	0.900993	0.312313
C136	C	0.483139	1.150993	0.562313
C137	C	-0.313769	0.401008	-0.187691
C138	C	-0.063769	0.651008	0.062309
C139	C	0.186231	0.901008	0.312309
C140	C	0.436231	1.151008	0.562309
N141	N	-0.337277	0.353930	-0.216471
N142	N	-0.087277	0.603930	0.033529
N143	N	0.162723	0.853930	0.283529
N144	N	0.412723	1.103930	0.533529
C145	C	-0.313867	0.306854	-0.245255
C146	C	-0.063867	0.556854	0.004745
C147	C	0.186133	0.806854	0.254745
C148	C	0.436133	1.056854	0.504745
C149	C	0.113180	0.401008	-0.187717
C150	C	0.363180	0.651008	0.062283
C151	C	0.613180	0.901008	0.312283
C152	C	0.863180	1.151008	0.562283
C153	C	0.160098	0.401011	-0.187721
C154	C	0.410098	0.651011	0.062279
C155	C	0.660098	0.901011	0.312279
C156	C	0.910098	1.151011	0.562279
C157	C	0.160000	0.306854	-0.245288
C158	C	0.410000	0.556854	0.004712
C159	C	0.660000	0.806854	0.254712
C160	C	0.910000	1.056854	0.504712
C161	C	0.113081	0.306855	-0.245286
C162	C	0.363081	0.556855	0.004714
C163	C	0.613081	0.806855	0.254714
C164	C	0.863081	1.056855	0.504714
C165	C	0.089672	0.353930	-0.216497
C166	C	0.339672	0.603930	0.033503
C167	C	0.589672	0.853930	0.283503
C168	C	0.839672	1.103930	0.533503
C169	C	-0.412393	0.306864	-0.245250
C170	C	-0.162393	0.556864	0.004750
C171	C	0.087607	0.806864	0.254750
C172	C	0.337607	1.056864	0.504750
C173	C	-0.459312	0.306874	-0.245247
C174	C	-0.209312	0.556874	0.004753
C175	C	0.040688	0.806874	0.254753
C176	C	0.290688	1.056874	0.504753
C177	C	-0.459210	0.401028	-0.187679
C178	C	-0.209210	0.651028	0.062321
C179	C	0.040790	0.901028	0.312321
C180	C	0.290790	1.151028	0.562321
C181	C	-0.412295	0.401021	-0.187683
C182	C	-0.162295	0.651021	0.062317
C183	C	0.087705	0.901021	0.312317
C184	C	0.337705	1.151021	0.562317
C185	C	-0.388887	0.353934	-0.216470
C186	C	-0.138887	0.603934	0.033530
C187	C	0.111113	0.853934	0.283530
C188	C	0.361113	1.103934	0.533530
O189	O	-0.338029	0.441038	-0.163235
O190	O	-0.088029	0.691038	0.086765
O191	O	0.161971	0.941038	0.336765
O192	O	0.411971	1.191038	0.586765
O193	O	-0.338176	0.266811	-0.269727
O194	O	-0.088176	0.516811	-0.019727
O195	O	0.161824	0.766811	0.230273
O196	O	0.411824	1.016811	0.480273
C197	C	-0.126203	0.306848	-0.245264
C198	C	0.123797	0.556848	0.004736
C199	C	0.373797	0.806848	0.254736
C200	C	0.623797	1.056848	0.504736
C201	C	-0.102697	0.353920	-0.216481
C202	C	0.147303	0.603920	0.033519
C203	C	0.397303	0.853920	0.283519
C204	C	0.647303	1.103920	0.533519
C205	C	-0.126107	0.400996	-0.187697
C206	C	0.123893	0.650996	0.062303
C207	C	0.373893	0.900996	0.312303
C208	C	0.623893	1.150996	0.562303
C209	C	-0.055779	0.353923	-0.216485
C210	C	0.194221	0.603923	0.033515
C211	C	0.444221	0.853923	0.283515
C212	C	0.694221	1.103923	0.533515
C213	C	-0.032369	0.306847	-0.245269
C214	C	0.217631	0.556847	0.004731
C215	C	0.467631	0.806847	0.254731
C216	C	0.717631	1.056847	0.504731
C217	C	-0.055877	0.259769	-0.274050
C218	C	0.194123	0.509769	-0.024050
C219	C	0.444123	0.759769	0.225950
C220	C	0.694123	1.009769	0.475950
C221	C	-0.102793	0.259772	-0.274048
C222	C	0.147207	0.509772	-0.024048
C223	C	0.397207	0.759772	0.225952
C224	C	0.647207	1.009772	0.475952
C225	C	-0.102599	0.448074	-0.158917
C226	C	0.147401	0.698074	0.091083
C227	C	0.397401	0.948074	0.341083
C228	C	0.647401	1.198074	0.591083
C229	C	-0.055683	0.448068	-0.158921
C230	C	0.194317	0.698068	0.091079
C231	C	0.444317	0.948068	0.341079
C232	C	0.694317	1.198068	0.591079
C233	C	-0.032274	0.400992	-0.187706
C234	C	0.217726	0.650992	0.062294
C235	C	0.467726	0.900992	0.312294
C236	C	0.717726	1.150992	0.562294
C237	C	-0.649332	0.545149	-0.216459
C238	C	-0.399332	0.795149	0.033541
C239	C	-0.149332	1.045149	0.283541
C240	C	0.100668	1.295149	0.533541
C241	C	-0.649353	0.626948	-0.216465
C242	C	-0.399353	0.876948	0.033535
C243	C	-0.149353	1.126948	0.283535
C244	C	0.100647	1.376948	0.533535
C245	C	-0.649492	0.353597	-0.333660
C246	C	-0.399492	0.603597	-0.083660
C247	C	-0.149492	0.853597	0.166340
C248	C	0.100508	1.103597	0.416340
C249	C	-0.649540	0.353449	-0.383594
C250	C	-0.399540	0.603449	-0.133594
C251	C	-0.149540	0.853449	0.116406
C252	C	0.100460	1.103449	0.366406
C253	C	0.233442	0.353946	-0.216500
C254	C	0.483442	0.603946	0.033500
C255	C	0.733442	0.853946	0.283500
C256	C	0.983442	1.103946	0.533500
C257	C	0.183508	0.353935	-0.216505
C258	C	0.433508	0.603935	0.033495
C259	C	0.683508	0.853935	0.283495
C260	C	0.933508	1.103935	0.533495
C261	C	-0.649439	0.161990	-0.216512
C262	C	-0.399439	0.411990	0.033488
C263	C	-0.149439	0.661990	0.283488
C264	C	0.100561	0.911990	0.533488
C265	C	-0.649465	0.080191	-0.216526
C266	C	-0.399465	0.330191	0.033474
C267	C	-0.149465	0.580191	0.283474
C268	C	0.100535	0.830191	0.533474
C269	C	-0.678126	0.815205	-0.187789
C270	C	-0.428126	1.065205	0.062211
C271	C	-0.178126	1.315205	0.312211
C272	C	0.071874	1.565205	0.562211
C273	C	-0.678146	0.892063	-0.187800
C274	C	-0.428146	1.142063	0.062200
C275	C	-0.178146	1.392063	0.312200
C276	C	0.071854	1.642063	0.562200
C277	C	-0.620690	0.891929	-0.245205
C278	C	-0.370690	1.141929	0.004795
C279	C	-0.120690	1.391929	0.254795
C280	C	0.129310	1.641929	0.504795
C281	C	-0.620672	0.815072	-0.245196
C282	C	-0.370672	1.065072	0.004804
C283	C	-0.120672	1.315072	0.254804
C284	C	0.129328	1.565072	0.504804
C285	C	-0.649390	0.776712	-0.216486
C286	C	-0.399390	1.026712	0.033514
C287	C	-0.149390	1.276712	0.283514
C288	C	0.100610	1.526712	0.533514
C289	C	-0.649427	0.930428	-0.216505
C290	C	-0.399427	1.180428	0.033495
C291	C	-0.149427	1.430428	0.283495
C292	C	0.100573	1.680428	0.533495
C293	C	-0.649449	1.013761	-0.216517
C294	C	-0.399449	1.263761	0.033483
C295	C	-0.149449	1.513761	0.283483
C296	C	0.100551	1.763761	0.533483
C297	C	-0.649369	0.693373	-0.216474
C298	C	-0.399369	0.943373	0.033526
C299	C	-0.149369	1.193373	0.283526
C300	C	0.100631	1.443373	0.533526
C301	C	-0.649293	0.354235	-0.099758
C302	C	-0.399293	0.604235	0.150242
C303	C	-0.149293	0.854235	0.400242
C304	C	0.100707	1.104235	0.650242
C305	C	-0.649332	0.354175	-0.049824
C306	C	-0.399332	0.604175	0.200176
C307	C	-0.149332	0.854175	0.450176
C308	C	0.100668	1.104175	0.700176
C309	C	-0.677977	0.306370	0.306634
C310	C	-0.427977	0.556370	0.556634
C311	C	-0.177977	0.806370	0.806634
C312	C	0.072023	1.056370	1.056634
C313	C	-0.677919	0.306579	0.118961
C314	C	-0.427919	0.556579	0.368961
C315	C	-0.177919	0.806579	0.618961
C316	C	0.072081	1.056579	0.868961
O317	O	-0.702166	0.266273	0.094586
O318	O	-0.452166	0.516273	0.344586
O319	O	-0.202166	0.766273	0.594586
O320	O	0.047834	1.016273	0.844586
N321	N	-0.649376	0.354008	0.095621
N322	N	-0.399376	0.604008	0.345621
N323	N	-0.149376	0.854008	0.595621
N324	N	0.100624	1.104008	0.845621
C325	C	-0.620843	0.401385	0.119203
C326	C	-0.370843	0.651385	0.369203
C327	C	-0.120843	0.901385	0.619203
C328	C	0.129157	1.151385	0.869203
O329	O	-0.596561	0.441726	0.095045
O330	O	-0.346561	0.691726	0.345045
O331	O	-0.096561	0.941726	0.595045
O332	O	0.153439	1.191726	0.845045
C333	C	-0.620899	0.401171	0.306875
C334	C	-0.370899	0.651171	0.556875
C335	C	-0.120899	0.901171	0.806875
C336	C	0.129101	1.151171	1.056875
C337	C	-0.649448	0.353744	0.330212
C338	C	-0.399448	0.603744	0.580212
C339	C	-0.149448	0.853744	0.830212
C340	C	0.100552	1.103744	1.080212
C341	C	-0.706523	0.258946	0.329971
C342	C	-0.456523	0.508946	0.579971
C343	C	-0.206523	0.758946	0.829971
C344	C	0.043477	1.008946	1.079971
C345	C	-0.706539	0.258897	0.376886
C346	C	-0.456539	0.508897	0.626886
C347	C	-0.206539	0.758897	0.876886
C348	C	0.043461	1.008897	1.126886
C349	C	-0.678009	0.306271	0.400464
C350	C	-0.428009	0.556271	0.650464
C351	C	-0.178009	0.806271	0.900464
C352	C	0.071991	1.056271	1.150464
C353	C	-0.649464	0.353695	0.377127
C354	C	-0.399464	0.603695	0.627127
C355	C	-0.149464	0.853695	0.877127
C356	C	0.100536	1.103695	1.127127
C357	C	-0.592365	0.448543	0.330456
C358	C	-0.342365	0.698543	0.580456
C359	C	-0.092365	0.948543	0.830456
C360	C	0.157635	1.198543	1.080456
C361	C	-0.592381	0.448484	0.377377
C362	C	-0.342381	0.698484	0.627377
C363	C	-0.092381	0.948484	0.877377
C364	C	0.157619	1.198484	1.127377
C365	C	-0.620929	0.401057	0.400714
C366	C	-0.370929	0.651057	0.650714
C367	C	-0.120929	0.901057	0.900714
C368	C	0.129071	1.151057	1.150714
C369	C	-0.620950	0.401020	0.447621
C370	C	-0.370950	0.651020	0.697621
C371	C	-0.120950	0.901020	0.947621
C372	C	0.129050	1.151020	1.197621
N373	N	-0.649493	0.353591	0.470960
N374	N	-0.399493	0.603591	0.720960
N375	N	-0.149493	0.853591	0.970960
N376	N	0.100507	1.103591	1.220960
C377	C	-0.678023	0.306217	0.447382
C378	C	-0.428023	0.556217	0.697382
C379	C	-0.178023	0.806217	0.947382
C380	C	0.071977	1.056217	1.197382
C381	C	-0.620816	0.401495	0.020672
C382	C	-0.370816	0.651495	0.270672
C383	C	-0.120816	0.901495	0.520672
C384	C	0.129184	1.151495	0.770672
C385	C	-0.620802	0.401549	-0.026245
C386	C	-0.370802	0.651549	0.223755
C387	C	-0.120802	0.901549	0.473755
C388	C	0.129198	1.151549	0.723755
C389	C	-0.677878	0.306743	-0.026484
C390	C	-0.427878	0.556743	0.223516
C391	C	-0.177878	0.806743	0.473516
C392	C	0.072122	1.056743	0.723516
C393	C	-0.677893	0.306692	0.020434
C394	C	-0.427893	0.556692	0.270434
C395	C	-0.177893	0.806692	0.520434
C396	C	0.072107	1.056692	0.770434
C397	C	-0.649359	0.354066	0.044012
C398	C	-0.399359	0.604066	0.294012
C399	C	-0.149359	0.854066	0.544012
C400	C	0.100641	1.104066	0.794012
C401	C	-0.678055	0.306118	0.545908
C402	C	-0.428055	0.556118	0.795908
C403	C	-0.178055	0.806118	1.045908
C404	C	0.071945	1.056118	1.295908
C405	C	-0.678069	0.306075	0.592827
C406	C	-0.428069	0.556075	0.842827
C407	C	-0.178069	0.806075	1.092827
C408	C	0.071931	1.056075	1.342827
C409	C	-0.620993	0.400878	0.593062
C410	C	-0.370993	0.650878	0.843062
C411	C	-0.120993	0.900878	1.093062
C412	C	0.129007	1.150878	1.343062
C413	C	-0.620979	0.400924	0.546147
C414	C	-0.370979	0.650924	0.796147
C415	C	-0.120979	0.900924	1.046147
C416	C	0.129021	1.150924	1.296147
C417	C	-0.649512	0.353538	0.522571
C418	C	-0.399512	0.603538	0.772571
C419	C	-0.149512	0.853538	1.022571
C420	C	0.100488	1.103538	1.272571
O421	O	-0.596712	0.441299	0.472025
O422	O	-0.346712	0.691299	0.722025
O423	O	-0.096712	0.941299	0.972025
O424	O	0.153288	1.191299	1.222025
O425	O	-0.702294	0.265871	0.471548
O426	O	-0.452294	0.515871	0.721548
O427	O	-0.202294	0.765871	0.971548
O428	O	0.047706	1.015871	1.221548
C429	C	-0.677961	0.306419	0.259718
C430	C	-0.427961	0.556419	0.509718
C431	C	-0.177961	0.806419	0.759718
C432	C	0.072039	1.056419	1.009718
C433	C	-0.649415	0.353842	0.236381
C434	C	-0.399415	0.603842	0.486381
C435	C	-0.149415	0.853842	0.736381
C436	C	0.100585	1.103842	0.986381
C437	C	-0.620886	0.401217	0.259959
C438	C	-0.370886	0.651217	0.509959
C439	C	-0.120886	0.901217	0.759959
C440	C	0.129114	1.151217	1.009959
C441	C	-0.649402	0.353897	0.189463
C442	C	-0.399402	0.603897	0.439463
C443	C	-0.149402	0.853897	0.689463
C444	C	0.100598	1.103897	0.939463
C445	C	-0.677931	0.306522	0.165885
C446	C	-0.427931	0.556522	0.415885
C447	C	-0.177931	0.806522	0.665885
C448	C	0.072069	1.056522	0.915885
C449	C	-0.706474	0.259093	0.189224
C450	C	-0.456474	0.509093	0.439224
C451	C	-0.206474	0.759093	0.689224
C452	C	0.043526	1.009093	0.939224
C453	C	-0.706490	0.259044	0.236140
C454	C	-0.456490	0.509044	0.486140
C455	C	-0.206490	0.759044	0.736140
C456	C	0.043510	1.009044	0.986140
C457	C	-0.592343	0.448646	0.236620
C458	C	-0.342343	0.698646	0.486620
C459	C	-0.092343	0.948646	0.736620
C460	C	0.157657	1.198646	0.986620
C461	C	-0.592329	0.448692	0.189705
C462	C	-0.342329	0.698692	0.439705
C463	C	-0.092329	0.948692	0.689705
C464	C	0.157671	1.198692	0.939705
C465	C	-0.620859	0.401317	0.166126
C466	C	-0.370859	0.651317	0.416126
C467	C	-0.120859	0.901317	0.666126
C468	C	0.129141	1.151317	0.916126
H469	H	-0.177568	0.221439	-0.297485
H470	H	0.072432	0.471439	-0.047485
H471	H	0.322432	0.721439	0.202515
H472	H	0.572432	0.971439	0.452515
H473	H	-0.569083	0.487319	0.170708
H474	H	-0.319083	0.737319	0.420708
H475	H	-0.069083	0.987319	0.670708
H476	H	0.180917	1.237319	0.920708
H477	H	-0.597309	0.923172	-0.268579
H478	H	-0.347309	1.173172	-0.018579
H479	H	-0.097309	1.423172	0.231421
H480	H	0.152691	1.673172	0.481421
H481	H	-0.478449	0.268538	-0.268689
H482	H	-0.228449	0.518538	-0.018689
H483	H	0.021551	0.768538	0.231311
H484	H	0.271551	1.018538	0.481311
H485	H	-0.597580	0.440077	0.039865
H486	H	-0.347580	0.690077	0.289865
H487	H	-0.097580	0.940077	0.539865
H488	H	0.152420	1.190077	0.789865
H489	H	-0.597737	0.439550	0.527145
H490	H	-0.347737	0.689550	0.777145
H491	H	-0.097737	0.939550	1.027145
H492	H	0.152263	1.189550	1.277145
H493	H	-0.597272	0.783729	-0.268566
H494	H	-0.347272	1.033729	-0.018566
H495	H	-0.097272	1.283729	0.231434
H496	H	0.152728	1.533729	0.481434
Cl497	Cl	-0.714229	0.766983	-0.151697
Cl498	Cl	-0.464229	1.016983	0.098303
Cl499	Cl	-0.214229	1.266983	0.348303
Cl500	Cl	0.035771	1.516983	0.598303
H501	H	-0.393340	0.268519	-0.268690
H502	H	-0.143340	0.518519	-0.018690
H503	H	0.106660	0.768519	0.231310
H504	H	0.356660	1.018519	0.481310
H505	H	-0.729706	0.220522	0.170019
H506	H	-0.479706	0.470522	0.420019
H507	H	-0.229706	0.720522	0.670019
H508	H	0.020294	0.970522	0.920019
H509	H	-0.393155	0.439363	-0.164249
H510	H	-0.143155	0.689363	0.085751
H511	H	0.106845	0.939363	0.335751
H512	H	0.356845	1.189363	0.585751
Cl513	Cl	-0.742381	0.199417	0.265471
Cl514	Cl	-0.492381	0.449417	0.515471
Cl515	Cl	-0.242381	0.699417	0.765471
Cl516	Cl	0.007619	0.949417	1.015471
Cl517	Cl	-0.272781	0.507254	-0.122709
Cl518	Cl	-0.022781	0.757254	0.127291
Cl519	Cl	0.227219	1.007254	0.377291
Cl520	Cl	0.477219	1.257254	0.627291
H521	H	0.094125	0.439345	-0.164272
H522	H	0.344125	0.689345	0.085728
H523	H	0.594125	0.939345	0.335728
H524	H	0.844125	1.189345	0.585728
H525	H	-0.597766	0.439452	0.612268
H526	H	-0.347766	0.689452	0.862268
H527	H	-0.097766	0.939452	1.112268
H528	H	0.152234	1.189452	1.362268
Cl529	Cl	-0.714274	0.940451	-0.151724
Cl530	Cl	-0.464274	1.190451	0.098276
Cl531	Cl	-0.214274	1.440451	0.348276
Cl532	Cl	0.035726	1.690451	0.598276
Cl533	Cl	-0.166896	0.507246	-0.122705
Cl534	Cl	0.083104	0.757246	0.127295
Cl535	Cl	0.333104	1.007246	0.377295
Cl536	Cl	0.583104	1.257246	0.627295
Cl537	Cl	-0.273082	0.200593	-0.310231
Cl538	Cl	-0.023082	0.450593	-0.060231
Cl539	Cl	0.226918	0.700593	0.189769
Cl540	Cl	0.476918	0.950593	0.439769
H541	H	-0.121927	0.221437	-0.297488
H542	H	0.128073	0.471437	-0.047488
H543	H	0.378073	0.721437	0.202512
H544	H	0.628073	0.971437	0.452512
H545	H	-0.478279	0.439357	-0.164245
H546	H	-0.228279	0.689357	0.085755
H547	H	0.021721	0.939357	0.335755
H548	H	0.271721	1.189357	0.585755
Cl549	Cl	-0.742427	0.199266	0.406217
Cl550	Cl	-0.492427	0.449266	0.656217
Cl551	Cl	-0.242427	0.699266	0.906217
Cl552	Cl	0.007573	0.949266	1.156217
H553	H	-0.701318	0.267454	0.611826
H554	H	-0.451318	0.517454	0.861826
H555	H	-0.201318	0.767454	1.111826
H556	H	0.048682	1.017454	1.361826
Cl557	Cl	-0.556473	0.508208	0.266254
Cl558	Cl	-0.306473	0.758208	0.516254
Cl559	Cl	-0.056473	1.008208	0.766254
Cl560	Cl	0.193527	1.258208	1.016254
H561	H	0.179068	0.268523	-0.268725
H562	H	0.429068	0.518523	-0.018725
H563	H	0.679068	0.768523	0.231275
H564	H	0.929068	1.018523	0.481275
Cl565	Cl	0.083536	0.247670	-0.281473
Cl566	Cl	0.333536	0.497670	-0.031473
Cl567	Cl	0.583536	0.747670	0.218527
Cl568	Cl	0.833536	0.997670	0.468527
H569	H	-0.701287	0.267529	0.526718
H570	H	-0.451287	0.517529	0.776718
H571	H	-0.201287	0.767529	1.026718
H572	H	0.048713	1.017529	1.276718
Cl573	Cl	-0.026439	0.200591	-0.310236
Cl574	Cl	0.223561	0.450591	-0.060236
Cl575	Cl	0.473561	0.700591	0.189764
Cl576	Cl	0.723561	0.950591	0.439764
H577	H	-0.729755	0.220364	0.310778
H578	H	-0.479755	0.470364	0.560778
H579	H	-0.229755	0.720364	0.810778
H580	H	0.020245	0.970364	1.060778
H581	H	-0.569118	0.487163	0.311463
H582	H	-0.319118	0.737163	0.561463
H583	H	-0.069118	0.987163	0.811463
H584	H	0.180882	1.237163	1.061463
H585	H	-0.701139	0.268072	0.039432
H586	H	-0.451139	0.518072	0.289432
H587	H	-0.201139	0.768072	0.539432
H588	H	0.048861	1.018072	0.789432
H589	H	0.179233	0.439353	-0.164286
H590	H	0.429233	0.689353	0.085714
H591	H	0.679233	0.939353	0.335714
H592	H	0.929233	1.189353	0.585714
Cl593	Cl	-0.713742	0.247185	-0.056134
Cl594	Cl	-0.463742	0.497185	0.193866
Cl595	Cl	-0.213742	0.747185	0.443866
Cl596	Cl	0.036258	0.997185	0.693866
H597	H	-0.036549	0.486410	-0.135482
H598	H	0.213451	0.736410	0.114518
H599	H	0.463451	0.986410	0.364518
H600	H	0.713451	1.236410	0.614518
Cl601	Cl	-0.584919	0.461186	-0.055578
Cl602	Cl	-0.334919	0.711186	0.194422
Cl603	Cl	-0.084919	0.961186	0.444422
Cl604	Cl	0.165081	1.211186	0.694422
Cl605	Cl	-0.556506	0.508043	0.407014
Cl606	Cl	-0.306506	0.758043	0.657014
Cl607	Cl	-0.056506	1.008043	0.907014
Cl608	Cl	0.193494	1.258043	1.157014
Cl609	Cl	-0.132021	0.507254	-0.122723
Cl610	Cl	0.117979	0.757254	0.127277
Cl611	Cl	0.367979	1.007254	0.377277
Cl612	Cl	0.617979	1.257254	0.627277
