data_functionalizedCrystal
_audit_creation_method	'MofGen! by Chris Wilmer'
_symmetry_space_group_name_H-M	'P1'
_symmetry_Int_Tables_number	1
_symmetry_cell_setting	triclinic
loop_
_symmetry_equiv_pos_as_xyz
  x,y,z
_cell_length_a	10.654545
_cell_length_b	16.109295
_cell_length_c	14.586319
_cell_angle_alpha	90.002929
_cell_angle_beta	90.005436
_cell_angle_gamma	96.028867
loop_
_atom_site_label
_atom_site_type_symbol
_atom_site_fract_x
_atom_site_fract_y
_atom_site_fract_z
O1	O	1.666260	-0.116751	0.076224
O2	O	1.300630	-0.127880	0.076227
O3	O	1.493493	-0.001344	0.076227
O4	O	1.473397	-0.243287	0.076225
O5	O	1.493470	-0.001351	-0.076254
O6	O	1.300606	-0.127888	-0.076253
O7	O	1.666237	-0.116758	-0.076257
Cu8	Cu	1.483419	-0.122324	-0.090178
Cu9	Cu	1.483447	-0.122315	0.090149
O10	O	1.473374	-0.243295	-0.076256
C11	C	1.253831	-0.127067	-0.000012
C12	C	1.114421	-0.124625	-0.000011
C13	C	1.048919	-0.123479	-0.083129
C14	C	0.917931	-0.121170	-0.083129
C15	C	0.917957	-0.121157	0.083114
C16	C	1.048944	-0.123460	0.083113
C17	C	1.492669	0.029632	-0.000011
C18	C	1.490232	0.121942	-0.000004
C19	C	1.599005	0.343570	0.000028
C20	C	1.596705	0.430304	0.000043
C21	C	1.367884	0.411788	0.000041
C22	C	1.370185	0.325055	0.000032
C23	C	1.485749	0.290949	0.000021
C24	C	1.481149	0.464416	0.000045
C25	C	1.478655	0.558457	0.000061
C26	C	1.488243	0.196902	0.000007
C27	C	1.713036	-0.117571	-0.000015
C28	C	1.852446	-0.120013	-0.000010
C29	C	1.474206	0.725730	0.000006
C30	C	1.476666	0.633422	0.000071
N31	N	1.483409	-0.122329	-0.217009
C32	C	1.559570	-0.173210	-0.452017
C33	C	1.559583	-0.173204	-0.547998
C34	C	1.407303	-0.071416	-0.548005
C35	C	1.407298	-0.071418	-0.452026
C36	C	1.483429	-0.122320	-0.404034
C37	C	1.483448	-0.122312	-0.595995
C38	C	1.483461	-0.122306	-0.700062
C39	C	1.483418	-0.122325	-0.299960
N40	N	1.483468	-0.122303	0.216980
H41	H	0.864605	-0.120238	-0.150812
H42	H	0.864630	-0.120209	0.150791
H43	H	1.688930	0.473145	0.000051
N44	N	1.325174	-0.016520	-0.400271
H45	H	1.233798	-0.032359	-0.416979
H46	H	1.336833	-0.024265	-0.332203
N47	N	1.641683	-0.228105	-0.400252
H48	H	1.689922	-0.260341	-0.445217
H49	H	1.703085	-0.192230	-0.360421
H50	H	1.273795	0.439568	0.000048
H51	H	1.693104	0.315803	0.000021
H52	H	1.277952	0.282208	0.000029
N53	N	1.119543	-0.124736	-0.172779
H54	H	1.058167	-0.123659	-0.225433
H55	H	1.184102	-0.074243	-0.176403
H56	H	1.621587	-0.214643	-0.587062
H57	H	1.345319	-0.029975	-0.587092
N58	N	1.119606	-0.124685	0.172766
H59	H	1.058252	-0.123602	0.225425
H60	H	1.163751	-0.177087	0.176390
