data_functionalizedCrystal
_audit_creation_method	'MofGen! by Chris Wilmer'
_symmetry_space_group_name_H-M	'P1'
_symmetry_Int_Tables_number	1
_symmetry_cell_setting	triclinic
loop_
_symmetry_equiv_pos_as_xyz
  x,y,z
_cell_length_a	10.654550
_cell_length_b	12.837942
_cell_length_c	11.892095
_cell_angle_alpha	85.697431
_cell_angle_beta	93.940295
_cell_angle_gamma	89.656921
loop_
_atom_site_label
_atom_site_type_symbol
_atom_site_fract_x
_atom_site_fract_y
_atom_site_fract_z
O1	O	-1.690993	-0.139141	-0.094097
O2	O	-1.327028	-0.153026	-0.094079
O3	O	-1.500940	0.004877	-0.094081
O4	O	-1.517082	-0.297044	-0.094095
O5	O	-1.486437	-0.008269	0.093927
O6	O	-1.312525	-0.166171	0.093929
O7	O	-1.676490	-0.152286	0.093910
Zn8	Zn	-1.492205	-0.161316	0.123770
Zn9	Zn	-1.511313	-0.143997	-0.123938
O10	O	-1.502579	-0.310189	0.093912
C11	C	-1.272868	-0.158579	-0.000073
C12	C	-1.133091	-0.155530	-0.000066
C13	C	-1.730651	-0.146733	-0.000098
C14	C	-1.870429	-0.149782	-0.000113
C15	C	-1.488236	0.036964	-0.000077
C16	C	-1.471973	0.152158	-0.000078
C17	C	-1.063752	-0.248499	-0.000087
C18	C	-0.932419	-0.245626	-0.000106
C19	C	-0.939776	-0.056806	-0.000088
C20	C	-1.071106	-0.059681	-0.000061
C21	C	-1.125737	-0.344348	-0.000092
C22	C	-1.056398	-0.437325	-0.000114
C23	C	-0.925065	-0.434452	-0.000133
C24	C	-0.863071	-0.338602	-0.000131
C25	C	-1.515283	-0.342276	-0.000094
C26	C	-1.531546	-0.457470	-0.000100
N27	N	-1.479174	-0.173135	0.292824
C28	C	-1.667480	0.391713	-0.000112
C29	C	-1.652206	0.499949	-0.000113
C30	C	-1.426153	0.476868	-0.000090
C31	C	-1.441427	0.368632	-0.000089
C32	C	-1.562094	0.326059	-0.000098
C33	C	-1.577367	0.217820	-0.000089
C34	C	-1.351315	0.194742	-0.000074
C35	C	-1.336041	0.302978	-0.000075
N36	N	-1.524354	-0.132169	-0.292993
C37	C	-1.615027	-0.049865	0.529471
C38	C	-1.605928	-0.058134	0.647813
C39	C	-1.451871	-0.197937	0.647852
C40	C	-1.460970	-0.189668	0.529510
C41	C	-1.542552	-0.115630	0.470324
C42	C	-1.551657	-0.107367	0.351979
C43	C	-1.397593	-0.247165	0.352021
C44	C	-1.388494	-0.255434	0.470363
H45	H	-1.232675	-0.346698	-0.000081
C46	C	-1.733124	0.116236	-0.096749
C47	C	-1.709999	0.171016	-0.000104
H48	H	-1.815005	0.087338	-0.096755
H49	H	-1.727521	0.162560	-0.162299
H50	H	-1.672537	0.061644	-0.096725
H51	H	-1.770580	0.225612	-0.000132
H52	H	-1.715613	0.124688	0.065463
H53	H	-1.106881	-0.515363	-0.000107
C54	C	-1.808343	0.276634	0.096536
C55	C	-1.800114	0.344912	-0.000114
H56	H	-1.890231	0.247750	0.096536
H57	H	-1.747776	0.222046	0.096529
H58	H	-1.792624	0.313809	0.162090
H59	H	-1.815824	0.307735	-0.065668
H60	H	-1.860700	0.399509	-0.000118
H61	H	-1.738023	0.553402	-0.000128
H62	H	-1.618089	-0.047084	0.303791
C63	C	-1.236241	0.497290	-0.096741
C64	C	-1.293528	0.523686	-0.000096
H65	H	-1.154368	0.526202	-0.096749
H66	H	-1.230240	0.423442	-0.096721
H67	H	-1.285257	0.524344	-0.162298
H68	H	-1.244517	0.496626	0.065461
H69	H	-1.299523	0.597550	-0.000105
H70	H	-1.322068	-0.315712	0.518566
H71	H	-0.889292	0.021232	-0.000105
H72	H	-0.756130	-0.336271	-0.000129
H73	H	-1.681464	0.010413	0.481280
H74	H	-1.385439	-0.258210	0.696057
C75	C	-1.146112	0.323388	-0.096706
C76	C	-1.203410	0.349784	-0.000067
H77	H	-1.064234	0.352289	-0.096701
H78	H	-1.140124	0.249538	-0.096691
H79	H	-1.195115	0.350450	-0.162267
H80	H	-1.154412	0.322715	0.065495
H81	H	-1.209392	0.423649	-0.000072
H82	H	-1.127564	0.016023	-0.000047
H83	H	-1.265501	0.141273	-0.000054
H84	H	-1.664943	-0.004580	0.695967
C85	C	-1.348086	-0.423675	0.315612
C86	C	-1.317923	-0.319466	0.287007
H87	H	-1.298909	-0.468310	0.275470
H88	H	-1.330986	-0.439181	0.394554
H89	H	-1.434816	-0.434209	0.296192
H90	H	-1.231194	-0.308930	0.306435
H91	H	-1.335013	-0.303954	0.208048
H92	H	-0.868612	-0.510158	-0.000140
