data_functionalizedCrystal
_audit_creation_method	'MofGen! by Chris Wilmer'
_symmetry_space_group_name_H-M	'P1'
_symmetry_Int_Tables_number	1
_symmetry_cell_setting	triclinic
loop_
_symmetry_equiv_pos_as_xyz
  x,y,z
_cell_length_a	12.837943
_cell_length_b	12.837942
_cell_length_c	11.295483
_cell_angle_alpha	85.469583
_cell_angle_beta	85.461227
_cell_angle_gamma	85.171060
loop_
_atom_site_label
_atom_site_type_symbol
_atom_site_fract_x
_atom_site_fract_y
_atom_site_fract_z
O1	O	1.408689	-0.265788	-0.099003
O2	O	1.105556	-0.252345	-0.099010
O3	O	1.250401	-0.107500	-0.098999
O4	O	1.263845	-0.410633	-0.099013
O5	O	1.237676	-0.120201	0.099051
O6	O	1.092832	-0.265045	0.099040
O7	O	1.395965	-0.278489	0.099047
Cu8	Cu	1.243237	-0.272927	0.117127
Cu9	Cu	1.258285	-0.257907	-0.117090
O10	O	1.251121	-0.423333	0.099037
C11	C	1.060125	-0.254153	0.000014
C12	C	0.943710	-0.240609	0.000012
C13	C	0.718835	-0.403439	0.000021
C14	C	0.609453	-0.390717	0.000020
C15	C	0.615561	-0.202446	0.000016
C16	C	0.724943	-0.215167	0.000017
C17	C	0.776576	-0.315667	0.000018
C18	C	0.885961	-0.328387	0.000011
C19	C	0.892066	-0.140117	0.000016
C20	C	0.782684	-0.127396	0.000015
C21	C	1.239497	-0.074781	0.000025
C22	C	1.225953	0.041634	0.000023
C23	C	1.441396	-0.276680	0.000021
C24	C	1.557812	-0.290224	0.000015
C25	C	1.262024	-0.456052	0.000010
C26	C	1.275569	-0.572467	0.000004
N27	N	1.232661	-0.283491	0.281863
C28	C	1.388784	0.266509	0.000002
C29	C	1.376062	0.375892	-0.000000
C30	C	1.187791	0.369784	0.000008
C31	C	1.200512	0.260402	0.000010
C32	C	1.301011	0.208768	0.000009
C33	C	1.313731	0.099383	0.000020
C34	C	1.125461	0.093278	0.000019
C35	C	1.112740	0.202660	0.000017
N36	N	1.268868	-0.247335	-0.281825
C37	C	1.344996	-0.171231	0.531161
C38	C	1.337012	-0.179223	0.655824
C39	C	1.208702	-0.307459	0.655854
C40	C	1.216687	-0.299467	0.531191
C41	C	1.284837	-0.231353	0.468849
C42	C	1.292826	-0.223367	0.344183
C43	C	1.164512	-0.351597	0.344216
C44	C	1.156528	-0.359589	0.468879
H45	H	0.562444	-0.462191	0.000025
H46	H	1.105969	0.411844	-0.000004
H47	H	1.030916	0.244716	0.000013
O48	O	1.040121	0.037312	-0.000133
C49	C	0.889716	0.005154	-0.102755
C50	C	0.986310	0.068624	-0.102725
H51	H	0.846194	0.030430	-0.185704
H52	H	0.835405	0.019873	-0.019926
H53	H	0.916085	-0.081893	-0.102691
H54	H	0.960036	0.155690	-0.102831
H55	H	1.040599	0.053816	-0.185547
H56	H	0.573495	-0.120630	0.000114
H57	H	1.400494	-0.115777	0.480401
O58	O	1.359040	-0.157117	0.283805
C59	C	1.485501	-0.030807	0.296939
C60	C	1.410540	-0.105781	0.365460
H61	H	1.527175	0.010702	0.362926
H62	H	1.438919	0.029782	0.238619
H63	H	1.545961	-0.077465	0.238529
H64	H	1.350064	-0.059211	0.423934
H65	H	1.457191	-0.166371	0.423704
H66	H	0.740628	-0.045572	0.000028
O67	O	1.395401	-0.120666	0.716225
C68	C	1.436265	0.052828	0.754414
C69	C	1.370093	-0.013367	0.685915
H70	H	1.415813	0.139592	0.729953
H71	H	1.523047	0.032523	0.729861
H72	H	1.418873	0.035363	0.854217
H73	H	1.387395	0.004062	0.586096
H74	H	1.283332	0.006949	0.710566
O75	O	0.768831	-0.501134	0.000067
C76	C	0.751240	-0.686526	-0.000024
C77	C	0.694488	-0.575947	-0.000045
H78	H	0.691160	-0.747040	-0.000140
H79	H	0.796941	-0.702575	0.082879
H80	H	0.807651	-0.691816	-0.082888
H81	H	0.638026	-0.570577	0.082763
H82	H	0.648855	-0.559946	-0.083003
O83	O	1.142347	-0.373486	0.716378
C84	C	0.963933	-0.419204	0.754527
C85	C	1.038965	-0.344345	0.685927
H86	H	0.880337	-0.395684	0.729914
H87	H	0.968471	-0.414564	0.854342
H88	H	0.987466	-0.502840	0.730048
H89	H	1.015484	-0.260677	0.710306
H90	H	1.034417	-0.349076	0.586129
O91	O	1.106182	-0.410164	0.283743
C92	C	1.065226	-0.583662	0.245686
C93	C	1.131360	-0.517458	0.314221
H94	H	1.085543	-0.670421	0.270321
H95	H	1.082645	-0.566349	0.145861
H96	H	0.978466	-0.563214	0.270201
H97	H	1.218141	-0.537868	0.289806
H98	H	1.113853	-0.534779	0.414030
H99	H	0.939091	-0.068646	0.000006
H100	H	1.395563	0.057344	0.000023
O101	O	1.486358	0.216236	-0.000152
C102	C	1.616597	0.102904	-0.102786
C103	C	1.506064	0.159760	-0.102746
H104	H	1.632571	0.057246	-0.185736
H105	H	1.621956	0.046468	-0.019957
H106	H	1.677125	0.162976	-0.102727
H107	H	1.445470	0.099764	-0.102847
H108	H	1.500792	0.216214	-0.185567
H109	H	1.101038	-0.415044	0.519653
H110	H	0.928000	-0.410219	0.000014
H111	H	1.447536	0.422901	-0.000010
