data_functionalizedCrystal
_audit_creation_method	'MofGen! by Chris Wilmer'
_symmetry_space_group_name_H-M	'P1'
_symmetry_Int_Tables_number	1
_symmetry_cell_setting	triclinic
loop_
_symmetry_equiv_pos_as_xyz
  x,y,z
_cell_length_a	19.121321
_cell_length_b	19.121063
_cell_length_c	18.215399
_cell_angle_alpha	92.409843
_cell_angle_beta	92.421570
_cell_angle_gamma	89.929715
loop_
_atom_site_label
_atom_site_type_symbol
_atom_site_fract_x
_atom_site_fract_y
_atom_site_fract_z
Zn1	Zn	1.059811	-0.324761	-0.383198
Zn2	Zn	1.054716	-0.441999	-0.265592
Zn3	Zn	0.942577	-0.319789	-0.265168
Zn4	Zn	0.937540	-0.436968	-0.393635
O5	O	0.998661	-0.380879	-0.326898
O6	O	1.157236	-0.344498	-0.363407
O7	O	1.039817	-0.425812	-0.162554
O8	O	0.962368	-0.222345	-0.276279
O9	O	1.153493	-0.430633	-0.277002
O10	O	1.048499	-0.225997	-0.362995
O11	O	0.957428	-0.336026	-0.162242
O12	O	0.843808	-0.331148	-0.286400
O13	O	0.953784	-0.422058	-0.495232
O14	O	0.840107	-0.417238	-0.380784
O15	O	1.043615	-0.339620	-0.487564
O16	O	1.034933	-0.539435	-0.287123
O17	O	0.948844	-0.535739	-0.381195
C18	C	0.816521	-0.373108	-0.334679
C19	C	0.738600	-0.369800	-0.338025
C20	C	0.297993	-0.348791	-0.359247
C21	C	0.371208	-0.351912	-0.356098
C22	C	0.405861	-0.398245	-0.309458
C23	C	0.367295	-0.441464	-0.265969
C24	C	0.294082	-0.438346	-0.269122
C25	C	0.626820	-0.409902	-0.297689
C26	C	0.700039	-0.413015	-0.294538
C27	C	0.703947	-0.323464	-0.384668
C28	C	0.630732	-0.320347	-0.387813
C29	C	0.592173	-0.363569	-0.344327
C30	C	0.480698	-0.401434	-0.306238
C31	C	0.517337	-0.360382	-0.347553
C32	C	0.990808	-0.563025	-0.335352
C33	C	0.987513	-0.640951	-0.338991
C34	C	1.030821	-0.679463	-0.291760
C35	C	1.027726	-0.752683	-0.295186
C36	C	0.981319	-0.787388	-0.345841
C37	C	0.938008	-0.748871	-0.393077
C38	C	0.941107	-0.675653	-0.389654
C39	C	0.969720	-1.008364	-0.358629
C40	C	0.966623	-1.081588	-0.362047
C41	C	1.056342	-1.085394	-0.264156
C42	C	1.059434	-1.012174	-0.260734
C43	C	1.016126	-0.973664	-0.307974
C44	C	0.978152	-0.862230	-0.349343
C45	C	1.019297	-0.898823	-0.304475
C46	C	1.181512	-0.388681	-0.319088
C47	C	1.259433	-0.392006	-0.315759
C48	C	0.998706	-0.380833	-0.518847
C49	C	0.998725	-0.380813	-0.600644
C50	C	1.006564	-0.198022	-0.318426
C51	C	1.009931	-0.120100	-0.314816
C52	C	1.045518	-0.337846	-0.784844
C53	C	1.045527	-0.337826	-0.861702
C54	C	0.951986	-0.423673	-0.869675
C55	C	0.951974	-0.423689	-0.792819
C56	C	0.998744	-0.380777	-0.750405
C57	C	0.998765	-0.380741	-0.904119
C58	C	0.998775	-0.380719	-0.987451
C59	C	0.998733	-0.380797	-0.667068
C60	C	0.998659	-0.380877	-0.135692
C61	C	0.998784	-0.380705	-0.053880
H62	H	0.508921	-0.439155	-0.268261
H63	H	1.083614	-0.302866	-0.889738
H64	H	0.735350	-0.288276	-0.420073
Br65	Br	0.583708	-0.257467	-0.451114
H66	H	0.928840	-1.109843	-0.403309
Br67	Br	1.082281	-0.851722	-0.235736
Br68	Br	0.888518	-0.481911	-0.927241
Br69	Br	1.115117	-1.137662	-0.200053
Br70	Br	0.423538	-0.293267	-0.415126
H71	H	0.905842	-0.644297	-0.428116
H72	H	0.940365	-0.890496	-0.390585
H73	H	0.395515	-0.479191	-0.227997
H74	H	1.068608	-0.651211	-0.250508
H75	H	1.083599	-0.302902	-0.750313
H76	H	0.913880	-0.458648	-0.764779
Br77	Br	0.574499	-0.468539	-0.238648
H78	H	0.728251	-0.450746	-0.256557
Br79	Br	0.241748	-0.497005	-0.210110
Br80	Br	1.122427	-0.965079	-0.191995
Br81	Br	0.910945	-0.956109	-0.422740
H82	H	0.489119	-0.322661	-0.385529
Br83	Br	0.250972	-0.285903	-0.422541
H84	H	1.062992	-0.784036	-0.256725
Br85	Br	0.875031	-0.795971	-0.461830
