data_functionalizedCrystal
_audit_creation_method	'MofGen! by Chris Wilmer'
_symmetry_space_group_name_H-M	'P1'
_symmetry_Int_Tables_number	1
_symmetry_cell_setting	triclinic
loop_
_symmetry_equiv_pos_as_xyz
  x,y,z
_cell_length_a	11.169417
_cell_length_b	18.215405
_cell_length_c	11.169409
_cell_angle_alpha	89.960260
_cell_angle_beta	89.979436
_cell_angle_gamma	90.025764
loop_
_atom_site_label
_atom_site_type_symbol
_atom_site_fract_x
_atom_site_fract_y
_atom_site_fract_z
Zn1	Zn	1.834850	-0.292908	-0.678481
Zn2	Zn	1.834686	-0.415999	-0.477771
Zn3	Zn	1.634133	-0.292953	-0.477815
Zn4	Zn	1.634092	-0.415939	-0.678416
O5	O	1.734440	-0.354450	-0.578121
O6	O	2.002778	-0.309242	-0.651865
O7	O	1.808030	-0.399720	-0.309827
O8	O	1.660844	-0.189962	-0.504479
O9	O	2.002657	-0.399677	-0.504404
O10	O	1.808310	-0.189930	-0.651907
O11	O	1.660685	-0.309319	-0.309859
O12	O	1.466178	-0.309261	-0.504416
O13	O	1.660775	-0.399575	-0.846375
O14	O	1.466148	-0.399618	-0.651797
O15	O	1.808270	-0.309184	-0.846422
O16	O	1.807991	-0.518975	-0.504342
O17	O	1.660616	-0.518931	-0.651755
C18	C	1.422615	-0.354438	-0.578105
C19	C	1.289215	-0.354451	-0.578127
C20	C	1.734313	-0.545656	-0.578063
C21	C	1.734369	-0.627455	-0.578078
C22	C	1.811287	-0.815647	-0.501462
C23	C	1.811341	-0.892506	-0.501491
C24	C	1.657746	-0.892500	-0.654866
C25	C	1.657700	-0.815643	-0.654842
C26	C	1.734468	-0.777218	-0.578133
C27	C	1.734569	-0.930934	-0.578186
C28	C	1.734626	-1.014268	-0.578218
C29	C	1.734413	-0.693879	-0.578102
C30	C	2.047482	-0.354461	-0.578137
C31	C	2.180882	-0.354466	-0.578144
C32	C	1.734536	-0.354368	-0.891163
C33	C	1.734577	-0.354333	-1.024563
C34	C	1.734600	-0.162497	-0.578205
C35	C	1.734668	-0.080698	-0.578241
C36	C	1.734413	-0.354478	-0.266296
C37	C	1.734605	-0.354305	-0.132897
H38	H	1.873799	-0.784364	-0.439002
H39	H	1.595242	-0.923795	-0.717318
C40	C	1.894592	-0.934349	-0.418252
C41	C	1.826766	-0.978598	-0.341300
C42	C	1.903441	-1.017173	-0.264649
H43	H	1.940371	-0.900562	-0.372451
H44	H	1.946823	-0.964302	-0.464264
H45	H	1.774556	-0.948648	-0.295292
H46	H	1.780990	-1.012399	-0.387068
H47	H	1.955672	-1.047126	-0.310661
H48	H	1.949216	-0.983380	-0.218856
H49	H	1.857433	-1.047206	-0.212435
C50	C	1.574159	-0.774047	-0.738136
C51	C	1.506909	-0.824146	-0.805291
C52	C	1.429937	-0.785854	-0.882021
H53	H	1.619894	-0.744011	-0.790565
H54	H	1.521810	-0.744131	-0.692195
H55	H	1.559252	-0.854049	-0.851229
H56	H	1.461151	-0.854183	-0.752893
H57	H	1.377588	-0.755938	-0.836080
H58	H	1.475681	-0.755820	-0.934443
H59	H	1.384291	-0.819840	-0.927587
