data_functionalizedCrystal
_audit_creation_method	'MofGen! by Chris Wilmer'
_symmetry_space_group_name_H-M	'P1'
_symmetry_Int_Tables_number	1
_symmetry_cell_setting	triclinic
loop_
_symmetry_equiv_pos_as_xyz
  x,y,z
_cell_length_a	13.032891
_cell_length_b	19.120786
_cell_length_c	13.032268
_cell_angle_alpha	94.409956
_cell_angle_beta	90.886842
_cell_angle_gamma	84.951705
loop_
_atom_site_label
_atom_site_type_symbol
_atom_site_fract_x
_atom_site_fract_y
_atom_site_fract_z
Zn1	Zn	1.472794	-0.469319	-0.747726
Zn2	Zn	1.488872	-0.572861	-0.568441
Zn3	Zn	1.324242	-0.440288	-0.556015
Zn4	Zn	1.295327	-0.569105	-0.718831
O5	O	1.395309	-0.512893	-0.647753
O6	O	1.618096	-0.496775	-0.741236
O7	O	1.485863	-0.544697	-0.423622
O8	O	1.349320	-0.346896	-0.588338
O9	O	1.629908	-0.572847	-0.609516
O10	O	1.458461	-0.368224	-0.729187
O11	O	1.364910	-0.447297	-0.414493
O12	O	1.177237	-0.443655	-0.560320
O13	O	1.300038	-0.566446	-0.865834
O14	O	1.155993	-0.538296	-0.679940
O15	O	1.430423	-0.493133	-0.887063
O16	O	1.457825	-0.669606	-0.581498
O17	O	1.315628	-0.666846	-0.691989
C18	C	1.129493	-0.487419	-0.615646
C19	C	1.015772	-0.476539	-0.601934
C20	C	0.837058	-0.507332	-0.640746
C21	C	0.954595	-0.518580	-0.654916
C22	C	1.385358	-0.693445	-0.634982
C23	C	1.381191	-0.770697	-0.629564
C24	C	1.436001	-0.818033	-0.700399
C25	C	1.432080	-0.890620	-0.695310
C26	C	1.373355	-0.915868	-0.619380
C27	C	1.318538	-0.868525	-0.548542
C28	C	1.322454	-0.795940	-0.553637
C29	C	1.358689	-1.134475	-0.600330
C30	C	1.354780	-1.207066	-0.595239
C31	C	1.468321	-1.229155	-0.742008
C32	C	1.472236	-1.156568	-0.747093
C33	C	1.417415	-1.109232	-0.676258
C34	C	1.369349	-0.990063	-0.614174
C35	C	1.421416	-1.035038	-0.681469
C36	C	1.662162	-0.538468	-0.679986
C37	C	1.775879	-0.549366	-0.693721
C38	C	1.360212	-0.532609	-0.914609
C39	C	1.345256	-0.541010	-1.028328
C40	C	1.405323	-0.331641	-0.660599
C41	C	1.409590	-0.254402	-0.666074
C42	C	1.403100	-0.508482	-1.089530
C43	C	1.387643	-0.517164	-1.207064
C44	C	1.430330	-0.493210	-0.381946
C45	C	1.445495	-0.484632	-0.268266
H46	H	1.483826	-0.797482	-0.762225
H47	H	1.476721	-0.929159	-0.752984
H48	H	1.464061	-0.474203	-1.054914
C49	C	1.262889	-0.587314	-1.075086
N50	N	1.200848	-0.622192	-1.110303
H51	H	1.506460	-0.450349	-1.233656
H52	H	0.989228	-0.562894	-0.710769
C53	C	0.822670	-0.609236	-0.769165
N54	N	0.857911	-0.654332	-0.825989
C55	C	1.254010	-0.896302	-0.464964
N56	N	1.205435	-0.917224	-0.401989
C57	C	1.298357	-1.082414	-0.522430
N58	N	1.252902	-1.043198	-0.463759
C59	C	0.968988	-0.416667	-0.526484
N60	N	0.933751	-0.371573	-0.469654
C61	C	1.290170	-1.234836	-0.511711
N62	N	1.241509	-1.255753	-0.448801
H63	H	0.802418	-0.463015	-0.584907
C64	C	1.305272	-0.563471	-1.253818
N65	N	1.243231	-0.598349	-1.289035
C66	C	1.536859	-1.128801	-0.830604
N67	N	1.585545	-1.107888	-0.893499
C68	C	1.262159	-0.743870	-0.475712
N69	N	1.216741	-0.704650	-0.417019
H70	H	1.512951	-1.267703	-0.799679
C71	C	1.486014	-1.007262	-0.764987
N72	N	1.534674	-0.986336	-0.827890
H73	H	1.321538	-1.010628	-0.552350
