data_functionalizedCrystal
_audit_creation_method	'MofGen! by Chris Wilmer'
_symmetry_space_group_name_H-M	'P1'
_symmetry_Int_Tables_number	1
_symmetry_cell_setting	triclinic
loop_
_symmetry_equiv_pos_as_xyz
  x,y,z
_cell_length_a	12.759399
_cell_length_b	12.759401
_cell_length_c	12.759393
_cell_angle_alpha	89.980441
_cell_angle_beta	90.031199
_cell_angle_gamma	89.986444
loop_
_atom_site_label
_atom_site_type_symbol
_atom_site_fract_x
_atom_site_fract_y
_atom_site_fract_z
Zn1	Zn	-0.418256	-1.606250	0.594014
Zn2	Zn	-0.593975	-1.606142	0.418335
Zn3	Zn	-0.418305	-1.430552	0.418350
Zn4	Zn	-0.593888	-1.430539	0.593973
O5	O	-0.506106	-1.518371	0.506168
O6	O	-0.441582	-1.753257	0.570720
O7	O	-0.570729	-1.582811	0.271316
O8	O	-0.271278	-1.453910	0.441675
O9	O	-0.570682	-1.753178	0.441650
O10	O	-0.271242	-1.582994	0.570735
O11	O	-0.441665	-1.453805	0.271327
O12	O	-0.441581	-1.283529	0.441636
O13	O	-0.570533	-1.453887	0.741000
O14	O	-0.570581	-1.283519	0.570666
O15	O	-0.441497	-1.582981	0.741030
O16	O	-0.740985	-1.582797	0.441611
O17	O	-0.740921	-1.453782	0.570651
C18	C	-0.506077	-1.245404	0.506149
C19	C	-0.506090	-1.128627	0.506165
C20	C	-0.573366	-1.073787	0.573239
C21	C	-0.573375	-0.964063	0.573248
C22	C	-0.438830	-0.964028	0.439101
C23	C	-0.438816	-1.073750	0.439098
C24	C	-0.651048	-1.073806	0.650684
C25	C	-0.651058	-0.964082	0.650694
C26	C	-0.779073	-1.518305	0.506148
C27	C	-0.895850	-1.518373	0.506174
C28	C	-1.060435	-1.585700	0.439089
C29	C	-0.950711	-1.585632	0.439058
C30	C	-0.950719	-1.451171	0.573318
C31	C	-1.060441	-1.451235	0.573342
C32	C	-1.115291	-1.652971	0.371976
C33	C	-1.060430	-1.720172	0.304831
C34	C	-0.950706	-1.720103	0.304801
C35	C	-0.895843	-1.652833	0.371915
C36	C	-0.232073	-1.518466	0.506211
C37	C	-0.115296	-1.518506	0.506230
C38	C	-0.506000	-1.518444	0.780201
C39	C	-0.505955	-1.518476	0.896978
C40	C	-0.506127	-0.792404	0.506183
C41	C	-0.506113	-0.909181	0.506178
C42	C	-0.506136	-1.518358	0.233201
C43	C	-0.505885	-1.518530	0.116424
C44	C	-0.438760	-1.585705	0.951857
C45	C	-0.438722	-1.585730	1.061582
C46	C	-0.573083	-1.451294	1.061538
C47	C	-0.573115	-1.451265	0.951815
C48	C	-0.361190	-1.663323	0.951884
C49	C	-0.361152	-1.663348	1.061608
H50	H	-0.384057	-0.919334	0.384499
H51	H	-0.283842	-1.634235	1.095655
H52	H	-0.382947	-1.744718	1.091388
H53	H	-1.105109	-1.396530	0.628024
C54	C	-1.228624	-1.780014	0.245295
C55	C	-1.120731	-1.794129	0.231080
H56	H	-1.265847	-1.825684	0.199771
H57	H	-1.246684	-1.709459	0.229838
H58	H	-1.246513	-1.795345	0.315914
H59	H	-1.102840	-1.778791	0.160462
H60	H	-1.102664	-1.864700	0.246528
H61	H	-0.629350	-1.103615	0.732092
C62	C	-0.705899	-1.318363	0.962798
C63	C	-0.646962	-1.377348	0.891491
H64	H	-0.751490	-1.272730	0.925554
H65	H	-0.660098	-1.278222	1.005605
H66	H	-0.746092	-1.364139	1.005583
H67	H	-0.606762	-1.331572	0.848711
H68	H	-0.692768	-1.417493	0.848666
H69	H	-0.279825	-1.641555	0.922127
C70	C	-0.782508	-1.779696	0.245132
C71	C	-0.890399	-1.793960	0.230992
H72	H	-0.745281	-1.825292	0.199560
H73	H	-0.764460	-1.795023	0.315723
H74	H	-0.764610	-1.709100	0.229684
H75	H	-0.908299	-1.864554	0.246447
H76	H	-0.908454	-1.778640	0.160385
C77	C	-0.823841	-1.037986	0.585208
C78	C	-0.755336	-1.119734	0.611162
H79	H	-0.888225	-1.066343	0.560813
H80	H	-0.793374	-0.996077	0.531767
H81	H	-0.836397	-0.996109	0.645451
H82	H	-0.742774	-1.161607	0.550917
H83	H	-0.785809	-1.161661	0.664607
H84	H	-0.906042	-1.396404	0.627961
C85	C	-0.305815	-1.062690	0.306515
C86	C	-0.364855	-1.134031	0.365379
H87	H	-0.260156	-1.099907	0.261000
H88	H	-0.265698	-1.019916	0.352366
H89	H	-0.351554	-1.019874	0.266243
H90	H	-0.319116	-1.176842	0.405657
H91	H	-0.404974	-1.176823	0.319522
C92	C	-0.586088	-0.999937	0.823678
C93	C	-0.611848	-0.918176	0.755109
H94	H	-0.561885	-0.971592	0.888137
H95	H	-0.532554	-1.041828	0.793361
H96	H	-0.646364	-1.041830	0.836049
H97	H	-0.551570	-0.876287	0.742732
H98	H	-0.665387	-0.876267	0.785432
C99	C	-0.738771	-1.552802	0.344999
C100	C	-0.775231	-1.652754	0.371879
H101	H	-0.664312	-1.552759	0.344974
H102	H	-0.763592	-1.503171	0.394594
H103	H	-0.763669	-1.534698	0.277190
H104	H	-0.750339	-1.670854	0.439692
H105	H	-0.750400	-1.702400	0.322281
H106	H	-0.627761	-1.396571	1.106199
C107	C	-0.426374	-1.836177	0.987657
C108	C	-0.400553	-1.767639	0.905928
H109	H	-0.450669	-1.900578	0.959282
H110	H	-0.479855	-1.805763	1.029533
H111	H	-0.366100	-1.848686	1.029573
H112	H	-0.460829	-1.755124	0.864016
H113	H	-0.347067	-1.798059	0.864034
H114	H	-0.732406	-0.934286	0.628762
H115	H	-1.204634	-1.653036	0.371996
