data_functionalizedCrystal
_audit_creation_method	'MofGen! by Chris Wilmer'
_symmetry_space_group_name_H-M	'P1'
_symmetry_Int_Tables_number	1
_symmetry_cell_setting	triclinic
loop_
_symmetry_equiv_pos_as_xyz
  x,y,z
_cell_length_a	10.540514
_cell_length_b	10.540539
_cell_length_c	9.016244
_cell_angle_alpha	90.002288
_cell_angle_beta	89.995932
_cell_angle_gamma	84.520326
loop_
_atom_site_label
_atom_site_type_symbol
_atom_site_fract_x
_atom_site_fract_y
_atom_site_fract_z
O1	O	1.685905	0.178739	-0.123351
O2	O	1.316488	0.195628	-0.123349
O3	O	1.509624	0.002476	-0.123349
O4	O	1.492768	0.371891	-0.123352
O5	O	1.509609	0.002488	0.123332
O6	O	1.316473	0.195640	0.123331
O7	O	1.685890	0.178751	0.123329
Cu8	Cu	1.501180	0.187196	0.145854
Cu9	Cu	1.501198	0.187182	-0.145874
O10	O	1.492753	0.371902	0.123329
C11	C	1.269177	0.194374	-0.000009
C12	C	1.128227	0.190605	-0.000008
C13	C	1.057522	0.328745	-0.000013
C14	C	0.910908	0.324871	-0.000580
C15	C	0.935898	0.115471	-0.140609
C16	C	1.082438	0.120325	-0.140719
C17	C	1.082823	0.118294	0.139813
C18	C	0.935844	0.116961	0.141653
C19	C	1.508353	-0.044821	-0.000011
C20	C	1.504571	-0.185769	-0.000019
C21	C	1.359652	-0.369182	-0.000572
C22	C	1.363486	-0.222564	-0.000017
C23	C	1.572459	-0.247426	0.140848
C24	C	1.567644	-0.393970	0.140966
C25	C	1.570530	-0.394502	-0.139556
C26	C	1.571830	-0.247520	-0.141418
C27	C	1.733201	0.180004	-0.000014
C28	C	1.874151	0.183774	-0.000025
C29	C	1.494025	0.419199	-0.000012
C30	C	1.497807	0.560147	-0.000014
N31	N	1.501177	0.187205	0.351040
N32	N	1.501211	0.187163	-0.351060
C33	C	1.397816	0.290513	0.414010
C34	C	1.397463	0.290216	0.585901
C35	C	1.471620	0.054293	0.586517
C36	C	1.470857	0.054922	0.414572
C37	C	1.634441	0.215571	0.414376
C38	C	1.633596	0.218548	0.586333
H39	H	0.869183	0.378353	-0.101951
Cl40	Cl	1.490155	-0.437498	0.303537
Cl41	Cl	1.678066	0.362125	0.347443
H42	H	1.304141	-0.399380	0.099881
Cl43	Cl	1.281010	-0.156782	-0.155918
H44	H	1.415186	0.388928	0.628109
H45	H	1.303927	-0.397782	-0.101589
H46	H	0.868238	0.378593	0.100173
Cl47	Cl	0.901449	-0.044530	-0.148076
H48	H	1.373649	0.030186	0.374495
H49	H	1.110668	0.170201	-0.246211
Cl50	Cl	1.724293	-0.468049	0.150854
H51	H	1.298597	0.271902	0.627064
H52	H	1.524875	-0.426055	-0.246324
H53	H	1.676067	-0.225081	0.146085
H54	H	1.309681	-0.180799	0.101131
Cl55	Cl	1.499632	-0.181649	0.302700
Cl56	Cl	1.323264	0.015213	0.653036
Cl57	Cl	0.870254	0.187846	-0.302762
H58	H	1.714183	0.148303	0.629242
Cl59	Cl	1.582608	-0.067470	0.350245
Cl60	Cl	1.495781	-0.183690	-0.302336
H61	H	1.674692	-0.223308	-0.149925
H62	H	1.130444	0.018852	-0.146721
H63	H	1.656022	0.316312	0.627109
Cl64	Cl	1.727861	-0.467431	-0.141025
Cl65	Cl	1.753211	0.099294	0.351487
Cl66	Cl	1.584733	-0.067389	0.649548
Cl67	Cl	1.424717	0.443444	0.350189
H68	H	1.299495	0.272463	0.370832
Cl69	Cl	1.102374	0.415629	0.154961
Cl70	Cl	1.131435	0.189297	0.304383
H71	H	0.894843	0.166877	0.245659
Cl72	Cl	0.898498	-0.041825	0.155419
Cl73	Cl	1.104191	0.413995	-0.155437
Cl74	Cl	1.155807	-0.039010	0.141932
