data_functionalizedCrystal
_audit_creation_method	'MofGen! by Chris Wilmer'
_symmetry_space_group_name_H-M	'P1'
_symmetry_Int_Tables_number	1
_symmetry_cell_setting	triclinic
loop_
_symmetry_equiv_pos_as_xyz
  x,y,z
_cell_length_a	19.805407
_cell_length_b	17.640280
_cell_length_c	19.805398
_cell_angle_alpha	78.777166
_cell_angle_beta	89.986879
_cell_angle_gamma	78.800112
loop_
_atom_site_label
_atom_site_type_symbol
_atom_site_fract_x
_atom_site_fract_y
_atom_site_fract_z
Zn1	Zn	1.089242	-0.314673	-0.328319
Zn2	Zn	1.112083	-0.446849	-0.192279
Zn3	Zn	0.976074	-0.314697	-0.215139
Zn4	Zn	0.998926	-0.446805	-0.305434
O5	O	1.044081	-0.380756	-0.260293
O6	O	1.186990	-0.332215	-0.310283
O7	O	1.094037	-0.429348	-0.100590
O8	O	0.971963	-0.204089	-0.249297
O9	O	1.203771	-0.429324	-0.210336
O10	O	1.055108	-0.204072	-0.332449
O11	O	0.994111	-0.332256	-0.117385
O12	O	0.884387	-0.332213	-0.227106
O13	O	1.010912	-0.429249	-0.403191
O14	O	0.901177	-0.429272	-0.293445
O15	O	1.077266	-0.332172	-0.420004
O16	O	1.116196	-0.557448	-0.188145
O17	O	1.033060	-0.557415	-0.271279
C18	C	0.868223	-0.380741	-0.260273
C19	C	0.792993	-0.380753	-0.260278
C20	C	1.079604	-0.586110	-0.224763
C21	C	1.094863	-0.673961	-0.209586
C22	C	0.766422	-0.431368	-0.294737
C23	C	0.695734	-0.431370	-0.294747
C24	C	0.651619	-0.380760	-0.260292
C25	C	0.678193	-0.330139	-0.225831
C26	C	0.748880	-0.330134	-0.225827
C27	C	0.393123	-0.330157	-0.225851
C28	C	0.322433	-0.330167	-0.225857
C29	C	0.339977	-0.431392	-0.294771
C30	C	0.410664	-0.431387	-0.294766
C31	C	0.437232	-0.380764	-0.260309
C32	C	0.513880	-0.380762	-0.260300
C33	C	0.574972	-0.380765	-0.260296
C34	C	0.928440	-0.962945	-0.375837
C35	C	0.942780	-1.045495	-0.361554
C36	C	1.029403	-1.045463	-0.275074
C37	C	1.015073	-0.962912	-0.289352
C38	C	0.964591	-0.921659	-0.339733
C39	C	1.051224	-0.921626	-0.253248
C40	C	1.036892	-0.839082	-0.267523
C41	C	0.986411	-0.797824	-0.317900
C42	C	0.950260	-0.839115	-0.354007
C43	C	1.101702	-0.962880	-0.202864
C44	C	1.137853	-0.921595	-0.166760
C45	C	1.123525	-0.839049	-0.181038
C46	C	1.073044	-0.797791	-0.231415
C47	C	1.159677	-0.797758	-0.144931
C48	C	1.145345	-0.715214	-0.159205
C49	C	1.058713	-0.715247	-0.245690
C50	C	1.220627	-0.380772	-0.260312
C51	C	1.295860	-0.380778	-0.260321
C52	C	1.044090	-0.380703	-0.436845
C53	C	1.044094	-0.380680	-0.512081
C54	C	1.008438	-0.174600	-0.295976
C55	C	0.993249	-0.086749	-0.311181
C56	C	1.096210	-0.431110	-0.965146
C57	C	1.096195	-0.431131	-0.894454
C58	C	1.044163	-0.380591	-0.867858
C59	C	0.992138	-0.330031	-0.911957
C60	C	0.992151	-0.330014	-0.982648
C61	C	0.992084	-0.330099	-0.626872
C62	C	0.992077	-0.330118	-0.556177
C63	C	1.096129	-0.431216	-0.538679
C64	C	1.096142	-0.431199	-0.609369
C65	C	1.044115	-0.380643	-0.653461
C66	C	1.044131	-0.380621	-0.730114
C67	C	1.044149	-0.380608	-0.791208
C68	C	1.044102	-0.380752	-0.084437
C69	C	1.044191	-0.380552	-0.009240
H70	H	0.674104	-0.472586	-0.322807
N71	N	0.873991	-0.918437	-0.430174
H72	H	0.895524	-0.884146	-0.467492
H73	H	0.853278	-0.957160	-0.450832
H74	H	0.286514	-0.288949	-0.197800
H75	H	1.138490	-0.472384	-0.502769
N76	N	0.458246	-0.485978	-0.331923
H77	H	0.430687	-0.518043	-0.353755
H78	H	0.482026	-0.453850	-0.368846
N79	N	0.935979	-0.275547	-0.674415
H80	H	0.957165	-0.238915	-0.710080
H81	H	0.910174	-0.307692	-0.698142
N82	N	0.936013	-0.275522	-0.883275
H83	H	0.943898	-0.283201	-0.831803
H84	H	0.936790	-0.219072	-0.905406
H85	H	1.070504	-1.079062	-0.234051
N86	N	0.421772	-0.275547	-0.188701
H87	H	0.383097	-0.243486	-0.166878
H88	H	0.456654	-0.307654	-0.151770
H89	H	0.949703	-0.288959	-0.534526
N90	N	0.777547	-0.275549	-0.188657
H91	H	0.800552	-0.238962	-0.222545
H92	H	0.738844	-0.243540	-0.166827
N93	N	0.936042	-0.275488	-1.030209
H94	H	0.903077	-0.243472	-1.002636
H95	H	0.957272	-0.238906	-1.065874
H96	H	1.138584	-0.472262	-0.986795
H97	H	1.200774	-0.831358	-0.103905
N98	N	0.814002	-0.485961	-0.331894
H99	H	0.786440	-0.518024	-0.353726
H100	H	0.837784	-0.453835	-0.368819
H101	H	0.642268	-0.288928	-0.197781
N102	N	1.152299	-0.485662	-0.846892
H103	H	1.185267	-0.517674	-0.874466
H104	H	1.178052	-0.453497	-0.823130
H105	H	1.178954	-0.955194	-0.125738
H106	H	1.017610	-0.681657	-0.286720
H107	H	1.138514	-0.472352	-0.631019
H108	H	0.318337	-0.472609	-0.322831
N109	N	0.970948	-0.708794	-0.333294
H110	H	1.013908	-0.688859	-0.349228
H111	H	0.933463	-0.688991	-0.370670
H112	H	0.909157	-0.805526	-0.395038
H113	H	0.913346	-1.079107	-0.390966
N114	N	1.117163	-1.051910	-0.187470
H115	H	1.154625	-1.071779	-0.150073
H116	H	1.074166	-1.071779	-0.171573
H117	H	1.174782	-0.681598	-0.129805
