data_functionalizedCrystal
_audit_creation_method	'MofGen! by Chris Wilmer'
_symmetry_space_group_name_H-M	'P1'
_symmetry_Int_Tables_number	1
_symmetry_cell_setting	triclinic
loop_
_symmetry_equiv_pos_as_xyz
  x,y,z
_cell_length_a	18.215407
_cell_length_b	18.215405
_cell_length_c	18.215399
_cell_angle_alpha	90.030970
_cell_angle_beta	90.019350
_cell_angle_gamma	90.025333
loop_
_atom_site_label
_atom_site_type_symbol
_atom_site_fract_x
_atom_site_fract_y
_atom_site_fract_z
Zn1	Zn	1.125068	-0.292980	0.416103
Zn2	Zn	1.625068	0.207020	0.916103
Zn3	Zn	1.124978	-0.416052	0.293031
Zn4	Zn	1.624978	0.083948	0.793031
Zn5	Zn	1.002002	-0.293005	0.293050
Zn6	Zn	1.502002	0.206995	0.793050
Zn7	Zn	1.001967	-0.416010	0.416056
Zn8	Zn	1.501967	0.083990	0.916056
O9	O	1.063504	-0.354512	0.354560
O10	O	1.563504	0.145488	0.854560
O11	O	1.228041	-0.309313	0.399788
O12	O	1.728041	0.190687	0.899788
O13	O	1.108642	-0.399758	0.190049
O14	O	1.608642	0.100242	0.690049
O15	O	1.018380	-0.190017	0.309401
O16	O	1.518380	0.309983	0.809401
O17	O	1.227974	-0.399733	0.309368
O18	O	1.727974	0.100267	0.809368
O19	O	1.108796	-0.189999	0.399807
O20	O	1.608796	0.310001	0.899807
O21	O	1.018292	-0.309355	0.190063
O22	O	1.518292	0.190645	0.690063
O23	O	0.899013	-0.309315	0.309355
O24	O	1.399013	0.190685	0.809355
O25	O	1.018320	-0.399662	0.519046
O26	O	1.518320	0.100338	1.019046
O27	O	0.898987	-0.399686	0.399727
O28	O	1.398987	0.100314	0.899727
O29	O	1.108762	-0.309272	0.519081
O30	O	1.608762	0.190728	1.019081
O31	O	1.108608	-0.519031	0.309322
O32	O	1.608608	-0.019031	0.809322
O33	O	1.018232	-0.519000	0.399708
O34	O	1.518232	-0.019000	0.899708
C35	C	0.872298	-0.354499	0.354539
C36	C	1.372298	0.145501	0.854539
C37	C	0.790499	-0.354512	0.354547
C38	C	1.290499	0.145488	0.854547
C39	C	0.602311	-0.401642	0.401544
C40	C	1.102311	0.098358	0.901544
C41	C	0.525452	-0.401644	0.401554
C42	C	1.025452	0.098356	0.901554
C43	C	0.525449	-0.307395	0.307591
C44	C	1.025449	0.192605	0.807591
C45	C	0.602306	-0.307390	0.307586
C46	C	1.102306	0.192610	0.807586
C47	C	0.640735	-0.354517	0.354562
C48	C	1.140735	0.145483	0.854562
C49	C	0.487019	-0.354525	0.354576
C50	C	0.987019	0.145475	0.854576
C51	C	0.403685	-0.354527	0.354585
C52	C	0.903685	0.145473	0.854585
C53	C	0.724074	-0.354514	0.354553
C54	C	1.224074	0.145486	0.854553
C55	C	1.063426	-0.545718	0.354524
C56	C	1.563426	-0.045718	0.854524
C57	C	1.063460	-0.627517	0.354534
C58	C	1.563460	-0.127517	0.854534
C59	C	1.110629	-0.815702	0.307556
C60	C	1.610629	-0.315702	0.807556
C61	C	1.110662	-0.892561	0.307574
C62	C	1.610662	-0.392561	0.807574
C63	C	1.016473	-0.892569	0.401616
C64	C	1.516473	-0.392569	0.901616
C65	C	1.016444	-0.815712	0.401601
C66	C	1.516444	-0.315712	0.901601
C67	C	1.063521	-0.777280	0.354567
C68	C	1.563521	-0.277280	0.854567
C69	C	1.063583	-0.930997	0.354600
C70	C	1.563583	-0.430997	0.854600
C71	C	1.063618	-1.014330	0.354619
C72	C	1.563618	-0.514330	0.854619
C73	C	1.063487	-0.693942	0.354548
C74	C	1.563487	-0.193942	0.854548
C75	C	1.255457	-0.354525	0.354581
C76	C	1.755457	0.145475	0.854581
C77	C	1.337256	-0.354531	0.354591
C78	C	1.837256	0.145469	0.854591
C79	C	1.063547	-0.354460	0.546513
C80	C	1.563547	0.145540	1.046513
C81	C	1.063565	-0.354437	0.628312
C82	C	1.563565	0.145563	1.128312
C83	C	1.063602	-0.162559	0.354611
C84	C	1.563602	0.337441	0.854611
C85	C	1.063644	-0.080760	0.354633
C86	C	1.563644	0.419240	0.854633
C87	C	1.063503	-0.354511	0.163353
C88	C	1.563503	0.145489	0.663353
C89	C	1.063627	-0.354326	0.081555
C90	C	1.563627	0.145674	0.581555
C91	C	1.110686	-0.307308	0.893389
C92	C	1.610686	0.192692	1.393389
C93	C	1.110677	-0.307328	0.816530
C94	C	1.610677	0.192672	1.316530
C95	C	1.016505	-0.401460	0.816483
C96	C	1.516505	0.098540	1.316483
C97	C	1.016518	-0.401444	0.893341
C98	C	1.516518	0.098556	1.393341
C99	C	1.063607	-0.354363	0.931791
C100	C	1.563607	0.145637	1.431791
C101	C	1.063586	-0.354400	0.778075
C102	C	1.563586	0.145600	1.278075
C103	C	1.063576	-0.354422	0.694742
C104	C	1.563576	0.145578	1.194742
C105	C	1.063618	-0.354342	1.015130
C106	C	1.563618	0.145658	1.515130
H107	H	0.633593	-0.269010	0.269327
H108	H	1.133593	0.230990	0.769327
N109	N	1.161475	-0.256529	0.934855
N110	N	1.661475	0.243471	1.434855
H111	H	1.214050	-0.267962	0.921485
H112	H	1.714050	0.232038	1.421485
H113	H	1.154280	-0.263675	0.989359
H114	H	1.654280	0.236325	1.489359
N115	N	1.161406	-0.774250	0.256833
N116	N	1.661406	-0.274250	0.756833
H117	H	1.191255	-0.810256	0.227057
H118	H	1.691255	-0.310256	0.727057
H119	H	1.195431	-0.742312	0.286818
H120	H	1.695431	-0.242312	0.786818
N121	N	0.643756	-0.452470	0.452211
N122	N	1.143756	0.047530	0.952211
H123	H	0.630407	-0.441105	0.504814
H124	H	1.130407	0.058895	1.004814
H125	H	0.698263	-0.445297	0.445017
H126	H	1.198263	0.054703	0.945017
N127	N	1.161457	-0.256579	0.775109
N128	N	1.661457	0.243421	1.275109
H129	H	1.191289	-0.226754	0.811132
H130	H	1.691289	0.273246	1.311132
H131	H	1.131512	-0.222529	0.743223
H132	H	1.631512	0.277471	1.243223
N133	N	0.965716	-0.452236	0.775012
N134	N	1.465716	0.047764	1.275012
H135	H	0.972849	-0.445106	0.720495
H136	H	1.472849	0.054894	1.220495
H137	H	0.913164	-0.440779	0.788442
H138	H	1.413164	0.059221	1.288442
N139	N	0.965625	-0.774267	0.452303
N140	N	1.465625	-0.274267	0.952303
H141	H	0.972753	-0.719747	0.445157
H142	H	1.472753	-0.219747	0.945157
H143	H	0.977049	-0.787652	0.504877
H144	H	1.477049	-0.287652	1.004877
H145	H	0.978143	-0.923869	0.439908
H146	H	1.478143	-0.423869	0.939908
N147	N	0.484007	-0.452475	0.452224
N148	N	0.984007	0.047525	0.952224
H149	H	0.520016	-0.482328	0.481979
H150	H	1.020016	0.017672	0.981979
H151	H	0.452094	-0.486494	0.422205
H152	H	0.952094	0.013506	0.922205
N153	N	0.484001	-0.256586	0.256907
N154	N	0.984001	0.243414	0.756907
H155	H	0.429481	-0.263747	0.264031
H156	H	0.929481	0.236253	0.764031
H157	H	0.497422	-0.267993	0.204333
H158	H	0.997422	0.232007	0.704333
N159	N	1.161473	-0.934003	0.256872
N160	N	1.661473	-0.434003	0.756872
H161	H	1.191290	-0.897992	0.227076
H162	H	1.691290	-0.397992	0.727076
H163	H	1.131550	-0.965943	0.222793
H164	H	1.631550	-0.465943	0.722793
H165	H	0.978180	-0.439766	0.924609
H166	H	1.478180	0.060234	1.424609
