data_functionalizedCrystal
_audit_creation_method	'MofGen! by Chris Wilmer'
_symmetry_space_group_name_H-M	'P1'
_symmetry_Int_Tables_number	1
_symmetry_cell_setting	triclinic
loop_
_symmetry_equiv_pos_as_xyz
  x,y,z
_cell_length_a	10.908878
_cell_length_b	10.489741
_cell_length_c	9.565339
_cell_angle_alpha	89.992742
_cell_angle_beta	89.996430
_cell_angle_gamma	72.311982
loop_
_atom_site_label
_atom_site_type_symbol
_atom_site_fract_x
_atom_site_fract_y
_atom_site_fract_z
O1	O	1.702033	-0.196610	-0.116233
O2	O	1.329088	-0.097201	-0.116241
O3	O	1.524046	-0.334381	-0.116228
O4	O	1.507074	0.040570	-0.116246
O5	O	1.524036	-0.334396	0.116292
O6	O	1.329078	-0.097216	0.116279
O7	O	1.702022	-0.196625	0.116287
Zn8	Zn	1.515548	-0.146923	0.153201
Zn9	Zn	1.515562	-0.146903	-0.153155
O10	O	1.507064	0.040555	0.116275
C11	C	1.281327	-0.087919	0.000018
C12	C	1.139030	-0.060252	0.000015
C13	C	1.522759	-0.381637	0.000031
C14	C	1.518924	-0.522418	0.000028
C15	C	1.089088	-0.161202	0.000019
C16	C	0.942017	-0.132610	0.000015
C17	C	1.394878	-0.563112	0.000015
C18	C	1.453471	-0.668207	0.114661
C19	C	1.453511	-0.668173	-0.114586
C20	C	1.577569	-0.625659	0.114769
C21	C	1.577591	-0.625612	-0.114581
C22	C	1.636274	-0.730699	0.000093
C23	C	1.749783	-0.205908	0.000025
C24	C	1.892080	-0.233575	0.000019
C25	C	1.508351	0.087810	0.000012
C26	C	1.512186	0.228591	0.000006
N27	N	1.515548	-0.146939	0.362280
N28	N	1.515572	-0.146899	-0.362234
C29	C	1.605005	-0.257177	0.546622
C30	C	1.631964	-0.147995	0.453379
C31	C	1.488646	-0.256124	0.453454
C32	C	1.542590	-0.037672	0.546575
C33	C	1.399220	-0.145865	0.546658
C34	C	1.426132	-0.036589	0.453457
H35	H	1.155212	-0.268798	0.000017
Br36	Br	1.664975	-0.593632	0.276495
Br37	Br	1.580730	0.116249	0.614456
Br38	Br	1.450693	-0.410047	0.385281
H39	H	1.401012	-0.687514	-0.211519
H40	H	1.292888	-0.490895	0.000128
Br41	Br	1.002270	-0.412924	0.000004
H42	H	1.738356	-0.802709	0.000159
H43	H	1.072907	0.047343	0.000003
H44	H	1.400980	-0.687612	0.211583
Br45	Br	0.831823	0.046738	-0.000011
Br46	Br	1.665010	-0.593195	-0.276134
H47	H	1.350488	0.056737	0.412809
Br48	Br	1.731155	-0.412460	0.614808
H49	H	1.730350	-0.148874	0.412406
Br50	Br	1.235283	-0.144468	0.615003
