data_functionalizedCrystal
_audit_creation_method	'MofGen! by Chris Wilmer'
_symmetry_space_group_name_H-M	'P1'
_symmetry_Int_Tables_number	1
_symmetry_cell_setting	triclinic
loop_
_symmetry_equiv_pos_as_xyz
  x,y,z
_cell_length_a	16.625546
_cell_length_b	16.625547
_cell_length_c	14.908858
_cell_angle_alpha	93.273493
_cell_angle_beta	86.668924
_cell_angle_gamma	90.022405
loop_
_atom_site_label
_atom_site_type_symbol
_atom_site_fract_x
_atom_site_fract_y
_atom_site_fract_z
Zn1	Zn	-0.294670	1.206369	-0.510189
Zn2	Zn	0.038663	1.539702	-0.176856
Zn3	Zn	0.371997	1.873035	0.156478
Zn4	Zn	-0.437299	1.214052	-0.359324
Zn5	Zn	-0.103966	1.547386	-0.025991
Zn6	Zn	0.229367	1.880719	0.307342
Zn7	Zn	-0.302484	1.079310	-0.359333
Zn8	Zn	0.030850	1.412644	-0.026000
Zn9	Zn	0.364183	1.745977	0.307333
Zn10	Zn	-0.429467	1.071504	-0.510124
Zn11	Zn	-0.096134	1.404837	-0.176791
Zn12	Zn	0.237199	1.738171	0.156542
O13	O	-0.365980	1.142809	-0.434743
O14	O	-0.032647	1.476142	-0.101409
O15	O	0.300687	1.809475	0.231924
O16	O	-0.313598	1.320219	-0.490200
O17	O	0.019736	1.653552	-0.156866
O18	O	0.353069	1.986886	0.176467
O19	O	-0.425964	1.202661	-0.233081
O20	O	-0.092630	1.535994	0.100252
O21	O	0.240703	1.869328	0.433585
O22	O	-0.188613	1.096216	-0.379376
O23	O	0.144720	1.429550	-0.046042
O24	O	0.478053	1.762883	0.287291
O25	O	-0.418387	1.325864	-0.379360
O26	O	-0.085053	1.659198	-0.046027
O27	O	0.248280	1.992531	0.287307
O28	O	-0.182872	1.189565	-0.490209
O29	O	0.150461	1.522899	-0.156875
O30	O	0.483794	1.856232	0.176458
O31	O	-0.326915	1.103667	-0.233088
O32	O	0.006418	1.437000	0.100245
O33	O	0.339751	1.770334	0.433578
O34	O	-0.319321	0.965444	-0.379313
O35	O	0.014012	1.298777	-0.045980
O36	O	0.347346	1.632110	0.287354
O37	O	-0.405038	1.082911	-0.636377
O38	O	-0.071705	1.416245	-0.303044
O39	O	0.261628	1.749578	0.030290
O40	O	-0.412615	0.959708	-0.490098
O41	O	-0.079282	1.293042	-0.156765
O42	O	0.254051	1.626375	0.176568
O43	O	-0.306003	1.181996	-0.636424
O44	O	0.027330	1.515329	-0.303091
O45	O	0.360663	1.848662	0.030242
O46	O	-0.549094	1.195092	-0.379297
O47	O	-0.215761	1.528425	-0.045964
O48	O	0.117572	1.861758	0.287369
O49	O	-0.543340	1.090362	-0.490089
O50	O	-0.210007	1.423695	-0.156756
O51	O	0.123326	1.757029	0.176577
C52	C	-0.365967	0.933320	-0.434700
C53	C	-0.032633	1.266653	-0.101367
C54	C	0.300700	1.599987	0.231966
C55	C	-0.365979	0.843699	-0.434703
C56	C	-0.032646	1.177032	-0.101370
C57	C	0.300687	1.510366	0.231963
C58	C	-0.365980	0.770916	-0.434715
C59	C	-0.032647	1.104249	-0.101381
C60	C	0.300686	1.437583	0.231952
C61	C	-0.365983	0.679606	-0.434737
C62	C	-0.032650	1.012940	-0.101404
C63	C	0.300683	1.346273	0.231930
C64	C	-0.365990	0.606829	-0.434760
C65	C	-0.032656	0.940162	-0.101427
C66	C	0.300677	1.273495	0.231907
C67	C	-0.365994	0.515513	-0.434782
C68	C	-0.032661	0.848847	-0.101448
C69	C	0.300673	1.182180	0.231885
C70	C	-0.575473	1.142734	-0.434705
C71	C	-0.242140	1.476068	-0.101372
C72	C	0.091194	1.809401	0.231962
C73	C	-0.665093	1.142775	-0.434719
C74	C	-0.331760	1.476108	-0.101386
C75	C	0.001573	1.809442	0.231948
C76	C	-0.993264	1.142911	-0.434813
C77	C	-0.659931	1.476244	-0.101480
C78	C	-0.326597	1.809577	0.231854
C79	C	-0.901957	1.142870	-0.434789
C80	C	-0.568623	1.476203	-0.101456
C81	C	-0.235290	1.809537	0.231877
C82	C	-0.829182	1.142842	-0.434766
C83	C	-0.495848	1.476175	-0.101432
C84	C	-0.162515	1.809509	0.231901
C85	C	-0.737869	1.142803	-0.434743
C86	C	-0.404535	1.476136	-0.101410
C87	C	-0.071202	1.809470	0.231924
C88	C	-0.155668	1.142904	-0.434800
C89	C	0.177665	1.476238	-0.101467
C90	C	0.510998	1.809571	0.231866
C91	C	-0.066046	1.142945	-0.434825
C92	C	0.267288	1.476278	-0.101492
C93	C	0.600621	1.809612	0.231842
C94	C	-0.353776	1.130726	-0.670050
C95	C	-0.020442	1.464059	-0.336716
C96	C	0.312891	1.797392	-0.003383
C97	C	-0.348575	1.125577	-0.770323
C98	C	-0.015241	1.458910	-0.436990
C99	C	0.318092	1.792243	-0.103657
C100	C	-0.365994	1.353115	-0.434786
C101	C	-0.032661	1.686449	-0.101453
C102	C	0.300672	2.019782	0.231881
C103	C	-0.366000	1.442736	-0.434805
C104	C	-0.032667	1.776069	-0.101471
C105	C	0.300666	2.109402	0.231862
C106	C	-0.289677	1.066784	-0.911658
C107	C	0.043656	1.400117	-0.578324
C108	C	0.376990	1.733451	-0.244991
C109	C	-0.294562	1.071619	-0.817441
C110	C	0.038771	1.404952	-0.484108
C111	C	0.372104	1.738286	-0.150775
C112	C	-0.397704	1.174705	-0.817428
C113	C	-0.064370	1.508038	-0.484095
C114	C	0.268963	1.841371	-0.150761
C115	C	-0.392819	1.169870	-0.911644
C116	C	-0.059485	1.503203	-0.578311
C117	C	0.273848	1.836537	-0.244978
C118	C	-0.338804	1.115907	-0.958756
C119	C	-0.005471	1.449240	-0.625422
C120	C	0.327862	1.782574	-0.292089
C121	C	-0.333924	1.111068	-1.052973
C122	C	-0.000590	1.444402	-0.719640
C123	C	0.332743	1.777735	-0.386307
C124	C	-0.437061	1.214158	-1.052958
C125	C	-0.103727	1.547491	-0.719625
C126	C	0.229606	1.880824	-0.386292
C127	C	-0.441946	1.218993	-0.958742
C128	C	-0.108612	1.552326	-0.625409
C129	C	0.224721	1.885659	-0.292076
C130	C	-0.378079	1.154891	-0.200351
C131	C	-0.044746	1.488225	0.132982
C132	C	0.288588	1.821558	0.466315
C133	C	-0.383053	1.160197	-0.100078
C134	C	-0.049719	1.493530	0.233255
C135	C	0.283614	1.826863	0.566588
H136	H	-0.289943	1.067128	-1.091330
H137	H	0.043390	1.400462	-0.757997
H138	H	0.376724	1.733795	-0.424664
C139	C	-0.230269	1.007427	-0.963483
C140	C	0.103065	1.340760	-0.630149
C141	C	0.436398	1.674093	-0.296816
H142	H	-0.201707	0.978864	-0.921938
H143	H	0.131626	1.312197	-0.588605
H144	H	0.464959	1.645531	-0.255271
H145	H	-0.259207	0.970399	-1.000223
H146	H	0.074127	1.303732	-0.666890
H147	H	0.407460	1.637065	-0.333557
H148	H	-0.193228	1.036404	-1.000249
H149	H	0.140106	1.369737	-0.666916
H150	H	0.473439	1.703071	-0.333583
C151	C	-0.240530	1.017577	-0.765636
C152	C	0.092803	1.350910	-0.432303
C153	C	0.426137	1.684244	-0.098969
H154	H	-0.207669	0.984743	-0.807191
H155	H	0.125665	1.318076	-0.473858
H156	H	0.458998	1.651410	-0.140524
H157	H	-0.207304	1.050316	-0.728893
H158	H	0.126029	1.383650	-0.395560
H159	H	0.459362	1.716983	-0.062227
H160	H	-0.273287	0.984315	-0.728873
H161	H	0.060046	1.317649	-0.395540
H162	H	0.393379	1.650982	-0.062206
H163	H	-0.441674	1.218644	-0.779054
H164	H	-0.108341	1.551977	-0.445720
H165	H	0.224993	1.885311	-0.112387
C166	C	-0.501359	1.278344	-0.906915
C167	C	-0.168026	1.611677	-0.573582
C168	C	0.165307	1.945010	-0.240249
H169	H	-0.497238	1.274185	-0.844058
H170	H	-0.163904	1.607518	-0.510724
H171	H	0.169429	1.940851	-0.177391
H172	H	-0.488768	1.331732	-0.922369
H173	H	-0.155435	1.665066	-0.589035
H174	H	0.177898	1.998399	-0.255702
H175	H	-0.554736	1.265716	-0.922338
H176	H	-0.221403	1.599049	-0.589005
H177	H	0.111931	1.932382	-0.255671
C178	C	-0.491100	1.268197	-1.104768
C179	C	-0.157767	1.601531	-0.771435
C180	C	0.175566	1.934864	-0.438101
H181	H	-0.480453	1.257594	-1.167628
H182	H	-0.147120	1.590927	-0.834294
H183	H	0.186213	1.924261	-0.500961
H184	H	-0.546076	1.257168	-1.089307
H185	H	-0.212743	1.590501	-0.755974
H186	H	0.120591	1.923834	-0.422641
H187	H	-0.480097	1.323173	-1.089341
H188	H	-0.146764	1.656506	-0.756008
H189	H	0.186570	1.989839	-0.422675
