data_functionalizedCrystal
_audit_creation_method	'MofGen! by Chris Wilmer'
_symmetry_space_group_name_H-M	'P1'
_symmetry_Int_Tables_number	1
_symmetry_cell_setting	triclinic
loop_
_symmetry_equiv_pos_as_xyz
  x,y,z
_cell_length_a	19.077115
_cell_length_b	19.077068
_cell_length_c	12.759393
_cell_angle_alpha	92.261180
_cell_angle_beta	87.681635
_cell_angle_gamma	90.115280
loop_
_atom_site_label
_atom_site_type_symbol
_atom_site_fract_x
_atom_site_fract_y
_atom_site_fract_z
Zn1	Zn	1.063009	-0.322929	-0.677037
Zn2	Zn	1.563009	0.177071	-0.177037
Zn3	Zn	1.058191	-0.440451	-0.508095
Zn4	Zn	1.558191	0.059549	-0.008095
Zn5	Zn	0.945496	-0.318237	-0.494049
Zn6	Zn	1.445496	0.181763	0.005951
Zn7	Zn	0.940745	-0.435671	-0.676408
Zn8	Zn	1.440745	0.064329	-0.176408
O9	O	1.001860	-0.379322	-0.588897
O10	O	1.501860	0.120678	-0.088897
O11	O	1.160702	-0.342482	-0.660768
O12	O	1.660702	0.157518	-0.160768
O13	O	1.043214	-0.424276	-0.359212
O14	O	1.543214	0.075724	0.140788
O15	O	0.965090	-0.220530	-0.512707
O16	O	1.465090	0.279470	-0.012707
O17	O	1.157162	-0.428825	-0.536648
O18	O	1.657162	0.071175	-0.036648
O19	O	1.051426	-0.223977	-0.647148
O20	O	1.551426	0.276023	-0.147148
O21	O	0.960418	-0.334486	-0.348892
O22	O	1.460418	0.165514	0.151108
O23	O	0.846534	-0.329851	-0.512097
O24	O	1.346534	0.170149	-0.012097
O25	O	0.956991	-0.420678	-0.823512
O26	O	1.456991	0.079322	-0.323512
O27	O	0.843043	-0.416129	-0.646076
O28	O	1.343043	0.083871	-0.146076
O29	O	1.046819	-0.337847	-0.823974
O30	O	1.546819	0.162153	-0.323974
O31	O	1.038607	-0.538146	-0.536038
O32	O	1.538607	-0.038146	-0.036038
O33	O	0.952319	-0.534634	-0.659696
O34	O	1.452319	-0.034634	-0.159696
C35	C	0.819293	-0.371963	-0.577495
C36	C	1.319293	0.128037	-0.077495
C37	C	0.741189	-0.368831	-0.572643
C38	C	1.241189	0.131169	-0.072643
C39	C	0.301741	-0.346342	-0.537851
C40	C	0.801741	0.153658	-0.037851
C41	C	0.375128	-0.349288	-0.542416
C42	C	0.875128	0.150712	-0.042416
C43	C	0.410016	-0.395755	-0.614349
C44	C	0.910016	0.104245	-0.114349
C45	C	0.371515	-0.439274	-0.681728
C46	C	0.871515	0.060726	-0.181728
C47	C	0.298129	-0.436324	-0.677168
C48	C	0.798129	0.063676	-0.177168
C49	C	0.629302	-0.409400	-0.635462
C50	C	1.129302	0.090600	-0.135462
C51	C	0.702692	-0.412348	-0.640015
C52	C	1.202692	0.087652	-0.140015
C53	C	0.706300	-0.322361	-0.500703
C54	C	1.206300	0.177639	-0.000703
C55	C	0.632913	-0.319418	-0.496145
C56	C	1.132913	0.180582	0.003855
C57	C	0.594418	-0.362934	-0.563528
C58	C	1.094418	0.137066	-0.063528
N59	N	0.485029	-0.398769	-0.619014
N60	N	0.985029	0.101231	-0.119014
N61	N	0.519406	-0.359916	-0.558867
N62	N	1.019406	0.140084	-0.058867
C63	C	0.994443	-0.561887	-0.599347
C64	C	1.494443	-0.061887	-0.099347
C65	C	0.991335	-0.639991	-0.603857
C66	C	1.491335	-0.139991	-0.103857
C67	C	1.034834	-0.678491	-0.541651
C68	C	1.534834	-0.178491	-0.041651
C69	C	1.031915	-0.751879	-0.545899
C70	C	1.531915	-0.251879	-0.045899
C71	C	0.985491	-0.786765	-0.612348
C72	C	1.485491	-0.286765	-0.112348
C73	C	0.941990	-0.748259	-0.674560
C74	C	1.441990	-0.248259	-0.174560
C75	C	0.944913	-0.674873	-0.670317
C76	C	1.444913	-0.174873	-0.170317
C77	C	0.971929	-1.006052	-0.631941
C78	C	1.471929	-0.506052	-0.131941
C79	C	0.969007	-1.079443	-0.636177
C80	C	1.469007	-0.579443	-0.136177
C81	C	1.058933	-1.083058	-0.507516
C82	C	1.558933	-0.583058	-0.007516
C83	C	1.061850	-1.009670	-0.503274
C84	C	1.561850	-0.509670	-0.003274
C85	C	1.018351	-0.971171	-0.565491
C86	C	1.518351	-0.471171	-0.065491
N87	N	0.982504	-0.861779	-0.616689
N88	N	1.482504	-0.361779	-0.116689
N89	N	1.021342	-0.896159	-0.561154
N90	N	1.521342	-0.396159	-0.061154
C91	C	1.185141	-0.386710	-0.600345
C92	C	1.685141	0.113290	-0.100345
C93	C	1.263244	-0.389859	-0.605223
C94	C	1.763244	0.110141	-0.105223
C95	C	1.001912	-0.379253	-0.862930
C96	C	1.501912	0.120747	-0.362930
C97	C	1.001934	-0.379223	-0.979706
C98	C	1.501934	0.120777	-0.479706
C99	C	1.009325	-0.196045	-0.578431
C100	C	1.509325	0.303955	-0.078431
C101	C	1.012507	-0.117943	-0.573971
C102	C	1.512507	0.382057	-0.073971
C103	C	0.958839	-0.332462	-1.029195
C104	C	1.458839	0.167538	-0.529195
C105	C	0.958856	-0.332441	-1.138918
C106	C	1.458856	0.167559	-0.638918
C107	C	1.045071	-0.425945	-1.149656
C108	C	1.545071	0.074055	-0.649656
C109	C	1.045049	-0.425969	-1.039934
C110	C	1.545049	0.074031	-0.539934
C111	C	1.001851	-0.379342	-0.315931
C112	C	1.501851	0.120658	0.184069
C113	C	1.001973	-0.379179	-0.199152
C114	C	1.501973	0.120821	0.300848
H115	H	0.737651	-0.286932	-0.445845
H116	H	1.237651	0.213068	0.054155
H117	H	0.923763	-0.294365	-1.179207
H118	H	1.423763	0.205635	-0.679207
H119	H	0.406468	-0.313855	-0.487549
H120	H	0.906468	0.186145	0.012451
H121	H	0.604511	-0.281585	-0.437562
H122	H	1.104511	0.218415	0.062438
N123	N	1.091568	-0.476363	-1.214616
N124	N	1.591568	0.023637	-0.714616
H125	H	1.085043	-0.469253	-1.291635
H126	H	1.585043	0.030747	-0.791635
H127	H	1.142196	-0.467459	-1.197949
H128	H	1.642196	0.032541	-0.697949
N129	N	0.587787	-0.456346	-0.708117
N130	N	1.087787	0.043654	-0.208117
H131	H	0.621026	-0.486236	-0.754366
H132	H	1.121026	0.013764	-0.254366
H133	H	0.556012	-0.487601	-0.665218
H134	H	1.056012	0.012399	-0.165218
N135	N	0.409141	-0.489394	-0.759314
N136	N	0.909141	0.010606	-0.259314
H137	H	0.461472	-0.484664	-0.751977
H138	H	0.961472	0.015336	-0.251977
H139	H	0.394266	-0.539047	-0.744903
H140	H	0.894266	-0.039047	-0.244903
N141	N	0.264116	-0.296228	-0.460256
N142	N	0.764116	0.203772	0.039744
H143	H	0.232500	-0.323524	-0.411234
H144	H	0.732500	0.176476	0.088766
H145	H	0.299689	-0.269122	-0.418345
H146	H	0.799689	0.230878	0.081655
N147	N	0.740325	-0.462470	-0.717601
N148	N	1.240325	0.037530	-0.217601
H149	H	0.704804	-0.489589	-0.759598
H150	H	1.204804	0.010411	-0.259598
H151	H	0.771952	-0.435130	-0.766545
H152	H	1.271952	0.064870	-0.266545
N153	N	0.256605	-0.483258	-0.749835
N154	N	0.756605	0.016742	-0.249835
H155	H	0.289841	-0.513144	-0.796095
H156	H	0.789841	-0.013144	-0.296095
H157	H	0.224822	-0.514516	-0.706954
H158	H	0.724822	-0.014516	-0.206954
H159	H	0.909492	-0.643527	-0.720973
H160	H	1.409492	-0.143527	-0.220973
N161	N	1.091529	-0.476410	-0.986549
N162	N	1.591529	0.023590	-0.486549
H163	H	1.118848	-0.506016	-1.041352
H164	H	1.618848	-0.006016	-0.541352
H165	H	1.125204	-0.449130	-0.941421
H166	H	1.625204	0.050870	-0.441421
H167	H	1.072634	-0.650092	-0.487536
H168	H	1.572634	-0.150092	0.012464
H169	H	1.067336	-0.783223	-0.495243
H170	H	1.567336	-0.283223	0.004757
N171	N	0.918937	-1.117073	-0.707855
N172	N	1.418937	-0.617073	-0.207855
H173	H	0.885172	-1.146258	-0.664847
H174	H	1.385172	-0.646258	-0.164847
H175	H	0.891874	-1.081507	-0.746613
H176	H	1.391874	-0.581507	-0.246613
N177	N	1.111931	-0.972045	-0.431620
N178	N	1.611931	-0.472045	0.068380
H179	H	1.139050	-1.007571	-0.392863
H180	H	1.639050	-0.507571	0.107137
H181	H	1.145644	-0.942860	-0.474710
H182	H	1.645644	-0.442860	0.025290
H183	H	1.094348	-1.114411	-0.456864
H184	H	1.594348	-0.614411	0.043136
H185	H	0.936509	-0.974712	-0.682598
H186	H	1.436509	-0.474712	-0.182598
H187	H	0.904194	-0.776669	-0.728669
H188	H	1.404194	-0.276669	-0.228669
H189	H	0.923732	-0.294400	-0.980160
H190	H	1.423732	0.205600	-0.480160
