data_functionalizedCrystal
_audit_creation_method	'MofGen! by Chris Wilmer'
_symmetry_space_group_name_H-M	'P1'
_symmetry_Int_Tables_number	1
_symmetry_cell_setting	triclinic
loop_
_symmetry_equiv_pos_as_xyz
  x,y,z
_cell_length_a	14.908571
_cell_length_b	18.050590
_cell_length_c	14.908308
_cell_angle_alpha	86.735264
_cell_angle_beta	89.824947
_cell_angle_gamma	86.714611
loop_
_atom_site_label
_atom_site_type_symbol
_atom_site_fract_x
_atom_site_fract_y
_atom_site_fract_z
Zn1	Zn	1.345312	-0.387560	0.587562
Zn2	Zn	1.845312	0.112440	1.087562
Zn3	Zn	1.353897	-0.505027	0.437196
Zn4	Zn	1.853897	-0.005027	0.937196
Zn5	Zn	1.203627	-0.373296	0.428561
Zn6	Zn	1.703627	0.126704	0.928561
Zn7	Zn	1.194925	-0.504144	0.578848
Zn8	Zn	1.694925	-0.004144	1.078848
O9	O	1.274440	-0.442507	0.508042
O10	O	1.774440	0.057493	1.008042
O11	O	1.472277	-0.409481	0.574877
O12	O	1.972277	0.090519	1.074877
O13	O	1.341198	-0.481952	0.310226
O14	O	1.841198	0.018048	0.810226
O15	O	1.222470	-0.271267	0.449685
O16	O	1.722470	0.228733	0.949685
O17	O	1.478585	-0.495784	0.464404
O18	O	1.978585	0.004216	0.964404
O19	O	1.326566	-0.281747	0.566503
O20	O	1.826566	0.218253	1.066503
O21	O	1.230795	-0.385170	0.303882
O22	O	1.730795	0.114830	0.803882
O23	O	1.076646	-0.384314	0.441236
O24	O	1.576646	0.115686	0.941236
O25	O	1.207640	-0.494280	0.705828
O26	O	1.707640	0.005720	1.205828
O27	O	1.070253	-0.480448	0.551651
O28	O	1.570253	0.019552	1.051651
O29	O	1.318128	-0.408626	0.712231
O30	O	1.818128	0.091374	1.212231
O31	O	1.332761	-0.608830	0.455954
O32	O	1.832761	-0.108830	0.955954
O33	O	1.215964	-0.608182	0.560025
O34	O	1.715964	-0.108182	1.060025
C35	C	1.040824	-0.430738	0.494561
C36	C	1.540824	0.069262	0.994561
C37	C	0.940881	-0.425722	0.488816
C38	C	1.440881	0.074278	0.988816
C39	C	0.746477	-0.516542	0.592840
C40	C	1.246477	-0.016542	1.092840
C41	C	0.652572	-0.511831	0.587444
C42	C	1.152572	-0.011831	1.087444
C43	C	0.659162	-0.411588	0.472634
C44	C	1.159162	0.088412	0.972634
C45	C	0.753068	-0.416298	0.478030
C46	C	1.253068	0.083702	0.978030
C47	C	0.796722	-0.468778	0.538134
C48	C	1.296722	0.031222	1.038134
C49	C	0.890630	-0.473491	0.543524
C50	C	1.390630	0.026509	1.043524
C51	C	0.897218	-0.373245	0.428719
C52	C	1.397218	0.126755	0.928719
C53	C	0.803312	-0.368535	0.423324
C54	C	1.303312	0.131465	0.923324
C55	C	1.274373	-0.635454	0.508002
C56	C	1.774373	-0.135454	1.008002
C57	C	1.274425	-0.718003	0.508020
C58	C	1.774425	-0.218003	1.008020
C59	C	1.338059	-0.917789	0.451517
C60	C	1.838059	-0.417789	0.951517
C61	C	1.355286	-0.971896	0.534844
C62	C	1.855286	-0.471896	1.034844
C63	C	1.274474	-0.869138	0.508059
C64	C	1.774474	-0.369138	1.008059
C65	C	1.257337	-0.962119	0.424773
C66	C	1.757337	-0.462119	0.924773
C67	C	1.274523	-1.015126	0.508089
C68	C	1.774523	-0.515126	1.008089
C69	C	1.291740	-0.922161	0.591431
C70	C	1.791740	-0.422161	1.091431
C71	C	1.193756	-0.912375	0.481303
C72	C	1.693756	-0.412375	0.981303
C73	C	1.210949	-0.966460	0.564685
C74	C	1.710949	-0.466460	1.064685
C75	C	1.274448	-0.785037	0.508040
C76	C	1.774448	-0.285037	1.008040
C77	C	1.274549	-1.099225	0.508117
C78	C	1.774549	-0.599225	1.008117
C79	C	1.508969	-0.454322	0.521575
C80	C	2.008969	0.045678	1.021575
C81	C	1.608911	-0.459357	0.527343
C82	C	2.108911	0.040643	1.027343
C83	C	1.260956	-0.452946	0.742567
C84	C	1.760956	0.047054	1.242567
C85	C	1.255209	-0.457394	0.842507
C86	C	1.755209	0.042606	1.342507
C87	C	1.274531	-0.248808	0.508103
C88	C	1.774531	0.251192	1.008103
C89	C	1.274570	-0.166266	0.508129
C90	C	1.774570	0.333734	1.008129
C91	C	1.287924	-0.432058	0.274432
C92	C	1.787924	0.067942	0.774432
C93	C	1.293845	-0.427409	0.174503
C94	C	1.793845	0.072591	0.674503
C95	C	1.359460	-0.376544	1.036974
C96	C	1.859460	0.123456	1.536974
C97	C	1.354064	-0.380721	1.130877
C98	C	1.854064	0.119279	1.630877
C99	C	1.239016	-0.469921	1.124218
C100	C	1.739016	0.030079	1.624218
C101	C	1.244412	-0.465744	1.030315
C102	C	1.744412	0.034256	1.530315
C103	C	1.304638	-0.419055	0.986696
C104	C	1.804638	0.080945	1.486696
C105	C	1.310038	-0.414882	0.892792
C106	C	1.810038	0.085118	1.392792
C107	C	1.194986	-0.504077	0.886134
C108	C	1.694986	-0.004077	1.386134
C109	C	1.189590	-0.508254	0.980037
C110	C	1.689590	-0.008254	1.480037
H111	H	0.938137	-0.334354	0.384171
H112	H	1.438137	0.165646	0.884171
F113	F	1.310828	-0.899143	0.683540
F114	F	1.810828	-0.399143	1.183540
H115	H	1.242821	-0.979829	0.354328
H116	H	1.742821	-0.479829	0.854328
F117	F	1.140688	-0.994234	0.627274
F118	F	1.640688	-0.494234	1.127274
F119	F	0.937089	-0.529345	0.607489
F120	F	1.437089	-0.029345	1.107489
F121	F	1.104531	-0.878401	0.451673
F122	F	1.604531	-0.378401	0.951673
H123	H	0.782022	-0.559276	0.641774
H124	H	1.282022	-0.059276	1.141774
F125	F	1.374136	-0.365194	0.846371
F126	F	1.874136	0.134806	1.346371
H127	H	1.189983	-0.507933	1.159749
H128	H	1.689983	-0.007933	1.659749
F129	F	1.423564	-0.326862	0.990550
F130	F	1.923564	0.173138	1.490550
F131	F	0.612686	-0.355732	0.408685
F132	F	1.112686	0.144268	0.908685
F133	F	1.125496	-0.557940	1.026469
F134	F	1.625496	-0.057940	1.526469
F135	F	1.412413	-0.335475	1.184383
F136	F	1.912413	0.164525	1.684383
F137	F	0.599100	-0.562667	0.645672
F138	F	1.099100	-0.062667	1.145672
H139	H	0.767756	-0.325806	0.374391
H140	H	1.267756	0.174194	0.874391
F141	F	1.136644	-0.549330	0.832619
F142	F	1.636644	-0.049330	1.332619
H143	H	1.423568	-0.997875	0.557493
H144	H	1.923568	-0.497875	1.057493
F145	F	1.408358	-0.889847	0.389087
F146	F	1.908358	-0.389847	0.889087
