data_functionalizedCrystal
_audit_creation_method	'MofGen! by Chris Wilmer'
_symmetry_space_group_name_H-M	'P1'
_symmetry_Int_Tables_number	1
_symmetry_cell_setting	triclinic
loop_
_symmetry_equiv_pos_as_xyz
  x,y,z
_cell_length_a	12.759401
_cell_length_b	14.908520
_cell_length_c	12.759393
_cell_angle_alpha	86.737527
_cell_angle_beta	90.018567
_cell_angle_gamma	93.319585
loop_
_atom_site_label
_atom_site_type_symbol
_atom_site_fract_x
_atom_site_fract_y
_atom_site_fract_z
Zn1	Zn	1.582066	-0.359127	0.618086
Zn2	Zn	1.571797	-0.510013	0.452533
Zn3	Zn	1.406365	-0.359171	0.442428
Zn4	Zn	1.396198	-0.509941	0.628170
O5	O	1.489106	-0.434563	0.535304
O6	O	1.727724	-0.379154	0.596134
O7	O	1.549809	-0.490052	0.304175
O8	O	1.438224	-0.232921	0.457281
O9	O	1.720179	-0.490009	0.474503
O10	O	1.567311	-0.232889	0.586336
O11	O	1.428267	-0.379229	0.296751
O12	O	1.257996	-0.379159	0.467058
O13	O	1.420896	-0.489886	0.773850
O14	O	1.250526	-0.489929	0.603522
O15	O	1.557453	-0.379084	0.766442
O16	O	1.539951	-0.636247	0.484281
O17	O	1.410939	-0.636194	0.613320
C18	C	1.216140	-0.434542	0.535288
C19	C	1.099363	-0.434554	0.535308
C20	C	1.048415	-0.376941	0.598753
C21	C	0.938690	-0.376958	0.598760
C22	C	0.930869	-0.492210	0.471876
C23	C	1.040593	-0.492188	0.471864
C24	C	1.052929	-0.310403	0.672012
C25	C	0.943204	-0.310421	0.672019
C26	C	1.473256	-0.668954	0.551014
C27	C	1.466571	-0.769228	0.557769
C28	C	1.588488	-0.957647	0.436204
C29	C	1.582210	-1.051863	0.442548
C30	C	1.447745	-1.051878	0.576807
C31	C	1.454022	-0.957662	0.570462
C32	C	1.524395	-0.910550	0.500158
C33	C	1.530666	-0.816332	0.493809
C34	C	1.396207	-0.816348	0.628072
C35	C	1.389929	-0.910565	0.634416
C36	C	1.763138	-0.434585	0.535321
C37	C	1.879914	-0.434594	0.535328
C38	C	1.489186	-0.434472	0.809332
C39	C	1.489220	-0.434433	0.926106
C40	C	1.505047	-0.199256	0.519557
C41	C	1.511840	-0.098982	0.512846
C42	C	1.489092	-0.434588	0.262339
C43	C	1.489278	-0.434373	0.145548
C44	C	1.560334	-0.376733	0.977112
C45	C	1.560361	-0.376700	1.086834
C46	C	1.418156	-0.492076	1.094535
C47	C	1.418125	-0.492103	0.984814
C48	C	1.642438	-0.310124	0.972667
C49	C	1.642466	-0.310092	1.082389
H50	H	0.912192	-0.329222	0.754617
H51	H	1.722576	-0.328806	1.113423
H52	H	1.085303	-0.335505	0.750934
H53	H	1.390458	-1.090253	0.634052
H54	H	0.913634	-0.244021	0.638564
H55	H	1.587964	-0.777974	0.436560
H56	H	1.087404	-0.240504	0.645667
C57	C	1.021837	-0.606101	0.346437
C58	C	1.096596	-0.555511	0.402115
H59	H	1.056414	-0.645198	0.303379
H60	H	0.981676	-0.566759	0.303702
H61	H	0.976732	-0.640669	0.394473
H62	H	1.141697	-0.520938	0.354078
H63	H	1.136775	-0.594858	0.444853
H64	H	0.883006	-0.539133	0.420222
C65	C	1.368189	-1.016445	0.782852
C66	C	1.312577	-0.962359	0.711688
H67	H	1.320429	-1.048423	0.830550
H68	H	1.416377	-0.979629	0.820604
H69	H	1.405461	-1.057975	0.745660
H70	H	1.275310	-0.920824	0.748879
H71	H	1.264370	-0.999178	0.673932
H72	H	1.645781	-0.919288	0.378952
H73	H	1.617823	-0.243707	1.111981
C74	C	1.715746	-1.042381	0.309197
C75	C	1.652658	-1.103634	0.372243
H76	H	1.759234	-1.074344	0.265789
H77	H	1.758357	-1.005578	0.352531
H78	H	1.672428	-1.005690	0.266500
H79	H	1.695976	-1.140321	0.414946
H80	H	1.610042	-1.140452	0.328904
H81	H	1.344015	-0.777991	0.680144
C82	C	1.739300	-0.342262	0.819266
C83	C	1.744472	-0.343933	0.928976
H84	H	1.802288	-0.363142	0.792296
H85	H	1.730821	-0.282427	0.792286
H86	H	1.681290	-0.380097	0.798815
H87	H	1.802478	-0.306092	0.949428
H88	H	1.752963	-0.403777	0.955966
C89	C	1.277545	-0.606123	1.003451
C90	C	1.339938	-0.555515	0.928747
H91	H	1.229276	-0.645273	0.968835
H92	H	1.240052	-0.566796	1.043620
H93	H	1.320997	-0.640636	1.048551
H94	H	1.296487	-0.520996	0.883651
H95	H	1.377434	-0.594847	0.888560
H96	H	1.625376	-0.240258	0.938222
C97	C	1.355063	-0.543265	1.266149
C98	C	1.340020	-0.555472	1.159072
H99	H	1.306828	-0.582411	1.305987
H100	H	1.343794	-0.482652	1.280073
H101	H	1.424767	-0.556470	1.285007
H102	H	1.270318	-0.542261	1.140211
H103	H	1.351280	-0.616099	1.145141
