data_functionalizedCrystal
_audit_creation_method	'MofGen! by Chris Wilmer'
_symmetry_space_group_name_H-M	'P1'
_symmetry_Int_Tables_number	1
_symmetry_cell_setting	triclinic
loop_
_symmetry_equiv_pos_as_xyz
  x,y,z
_cell_length_a	27.732048
_cell_length_b	16.974819
_cell_length_c	16.053802
_cell_angle_alpha	96.215481
_cell_angle_beta	87.445675
_cell_angle_gamma	83.019271
loop_
_atom_site_label
_atom_site_type_symbol
_atom_site_fract_x
_atom_site_fract_y
_atom_site_fract_z
O1	O	0.643151	0.091031	-0.063167
O2	O	0.502385	0.105382	-0.062222
O3	O	0.576922	-0.017321	-0.070499
O4	O	0.568615	0.213735	-0.054890
O5	O	0.572819	-0.010595	0.068814
O6	O	0.498283	0.112109	0.077091
O7	O	0.639048	0.097758	0.076146
Zn8	Zn	0.568014	0.106001	0.098737
Zn9	Zn	0.573420	0.097139	-0.084813
O10	O	0.564512	0.220461	0.084423
C11	C	0.482327	0.108444	0.007411
C12	C	0.428670	0.107536	0.007340
N13	N	0.564329	0.112049	0.224005
C14	C	0.574631	-0.043509	-0.002841
C15	C	0.573911	-0.131562	-0.008796
C16	C	0.089981	0.174337	0.011889
C17	C	-0.111685	0.170971	0.011669
O18	O	-0.142826	0.232056	0.015832
N19	N	-0.130947	0.098213	0.006752
C20	C	-0.099789	0.026291	0.001896
O21	O	-0.120800	-0.035671	-0.002283
C22	C	0.101876	0.029658	0.002122
C23	C	0.121135	0.102420	0.007030
C24	C	0.109240	0.247094	0.016798
C25	C	0.159654	0.247934	0.016848
C26	C	0.190808	0.176018	0.011990
C27	C	0.171549	0.103261	0.007080
C28	C	0.133033	-0.042263	-0.002729
C29	C	0.183452	-0.041415	-0.002670
C30	C	0.202711	0.031348	0.002239
C31	C	0.253117	0.032185	0.002272
N32	N	0.272379	0.104943	0.007189
C33	C	0.241224	0.176860	0.012048
C34	C	-0.205666	0.024529	0.001776
C35	C	-0.256082	0.023687	0.001718
C36	C	-0.267975	0.168367	0.011493
C37	C	-0.217558	0.169208	0.011545
C38	C	-0.186404	0.097287	0.006692
C39	C	0.347097	0.178619	0.012152
C40	C	0.397516	0.179453	0.012199
C41	C	0.409405	0.034773	0.002428
C42	C	0.358990	0.033938	0.002377
C43	C	0.327837	0.105868	0.007243
O44	O	0.284286	-0.028866	-0.001879
O45	O	0.262244	0.238814	0.016244
C46	C	0.039567	0.173497	0.011839
C47	C	0.020308	0.100740	0.006929
C48	C	0.051462	0.028823	0.002071
C49	C	-0.030108	0.099898	0.006871
C50	C	-0.061262	0.171814	0.011730
C51	C	-0.042001	0.244573	0.016647
C52	C	0.008413	0.245413	0.016697
C53	C	0.032200	-0.043935	-0.002846
C54	C	-0.018214	-0.044770	-0.002897
C55	C	-0.049368	0.027147	0.001962
C56	C	0.659107	0.094696	0.006511
C57	C	0.712764	0.095603	0.006576
C58	C	0.566803	0.246649	0.016763
C59	C	0.567523	0.334702	0.022712
C60	C	0.571338	0.830739	0.064349
C61	C	0.570664	0.748003	0.058758
C62	C	0.572559	0.702969	-0.019979
C63	C	0.575134	0.740674	-0.093129
C64	C	0.575812	0.823407	-0.087537
C65	C	0.570775	0.455139	-0.044846
C66	C	0.570096	0.372401	-0.050432
C67	C	0.565626	0.379736	0.101454
C68	C	0.566301	0.462471	0.107039
C69	C	0.568879	0.500168	0.033890
N70	N	0.571869	0.618401	-0.025696
N71	N	0.569573	0.584734	0.039607
N72	N	0.577109	0.091085	-0.210082
C73	C	0.596056	0.059857	0.264179
C74	C	0.593482	0.064095	0.351871
C75	C	0.559184	0.120529	0.399389
C76	C	0.527453	0.172723	0.359210
C77	C	0.530025	0.168481	0.271519
C78	C	0.547950	0.139037	0.662047
C79	C	0.545382	0.143277	0.749745
C80	C	0.611410	0.034647	0.742400
C81	C	0.613981	0.030413	0.654707
C82	C	0.582249	0.082604	0.614535
N83	N	0.556553	0.124864	0.489025
N84	N	0.584878	0.078265	0.524901
H85	H	0.321738	0.237191	0.016117
C86	C	-0.196378	0.249246	0.016951
H87	H	-0.222157	0.291953	0.019841
H88	H	-0.175528	0.250241	-0.031402
H89	H	-0.178389	0.254931	0.065767
C90	C	-0.277264	-0.056350	-0.003697
H91	H	-0.311752	-0.046560	-0.003043
H92	H	-0.267984	-0.083591	0.042885
H93	H	-0.265127	-0.088276	-0.054284
C94	C	0.180832	0.327974	0.022264
H95	H	0.155051	0.370679	0.025160
H96	H	0.201681	0.328978	-0.026088
H97	H	0.198821	0.333654	0.071080
C98	C	0.074978	0.326209	0.022136
H99	H	0.093676	0.369653	0.025061
H100	H	0.053632	0.331248	0.070895
H101	H	0.056495	0.326542	-0.026275
H102	H	0.208816	-0.099983	-0.006621
C103	C	0.111859	-0.122303	-0.008117
H104	H	0.137640	-0.165005	-0.010990
H105	H	0.093865	-0.128001	-0.056920
H106	H	0.091015	-0.123288	0.040251
H107	H	0.568571	0.717312	0.118319
C108	C	0.495128	0.225895	0.227328
H109	H	0.474335	0.260119	0.268187
H110	H	0.476087	0.195932	0.191215
H111	H	0.513433	0.257070	0.195331
H112	H	0.057562	-0.102499	-0.006801
H113	H	0.571635	0.335737	-0.114552
C114	C	0.628386	0.006690	0.396059
H115	H	0.649186	-0.027519	0.355200
H116	H	0.610089	-0.024487	0.428059
H117	H	0.647426	0.036667	0.432170
H118	H	0.413194	0.238707	0.016196
H119	H	0.522114	0.181535	0.629347
C120	C	0.651706	-0.031670	0.602443
H121	H	0.670231	-0.062152	0.638929
H122	H	0.672753	-0.005017	0.570137
H123	H	0.635406	-0.066153	0.566027
C124	C	-0.171403	-0.054590	-0.003571
H125	H	-0.190099	-0.098037	-0.006516
H126	H	-0.152914	-0.054935	0.044827
H127	H	-0.150062	-0.059616	-0.052342
H128	H	0.343310	-0.025312	-0.001632
C129	C	0.646309	-0.022768	0.786586
H130	H	0.667105	-0.056982	0.745726
H131	H	0.628006	-0.053938	0.818584
H132	H	0.665353	0.007198	0.822698
C133	C	0.577234	0.691139	-0.179739
H134	H	0.578872	0.725441	-0.222500
H135	H	0.548881	0.665098	-0.184665
H136	H	0.605256	0.652325	-0.185490
C137	C	0.633787	-0.002215	0.211913
H138	H	0.630780	0.002738	0.153933
H139	H	0.628262	-0.054407	0.222716
H140	H	0.665601	0.006743	0.226839
H141	H	-0.293350	0.226925	0.015449
H142	H	0.434780	-0.023780	-0.001531
H143	H	-0.067376	0.303129	0.020600
H144	H	0.024088	0.304664	0.020696
H145	H	-0.033889	-0.104026	-0.006901
H146	H	0.563528	0.349034	0.161009
H147	H	0.569786	0.867401	0.128464
C148	C	0.578641	0.864877	-0.167995
H149	H	0.579669	0.826209	-0.215689
H150	H	0.607185	0.890603	-0.169400
H151	H	0.550809	0.903395	-0.168541
C152	C	0.564222	0.512001	0.193649
H153	H	0.562598	0.477697	0.236412
H154	H	0.536209	0.550826	0.199421
H155	H	0.592585	0.538027	0.198551
C156	C	0.573602	0.496598	-0.125307
H157	H	0.574627	0.457927	-0.172998
H158	H	0.602145	0.522325	-0.126722
H159	H	0.545768	0.535114	-0.125850
H160	H	0.499524	0.218671	0.397904
C161	C	0.507627	0.205316	0.802011
H162	H	0.489086	0.235775	0.765526
H163	H	0.523897	0.239816	0.838452
H164	H	0.486592	0.178610	0.834289
