data_functionalizedCrystal
_audit_creation_method	'MofGen! by Chris Wilmer'
_symmetry_space_group_name_H-M	'P1'
_symmetry_Int_Tables_number	1
_symmetry_cell_setting	triclinic
loop_
_symmetry_equiv_pos_as_xyz
  x,y,z
_cell_length_a	10.654545
_cell_length_b	15.944551
_cell_length_c	9.130313
_cell_angle_alpha	90.006165
_cell_angle_beta	90.000033
_cell_angle_gamma	83.990908
loop_
_atom_site_label
_atom_site_type_symbol
_atom_site_fract_x
_atom_site_fract_y
_atom_site_fract_z
O1	O	1.666311	0.117960	0.121788
O2	O	1.300686	0.129204	0.121795
O3	O	1.493483	0.001365	0.121778
O4	O	1.473514	0.245799	0.121805
O5	O	1.493481	0.001358	-0.121821
O6	O	1.300684	0.129197	-0.121804
O7	O	1.666309	0.117953	-0.121811
Cu8	Cu	1.483497	0.123575	-0.144050
Cu9	Cu	1.483499	0.123582	0.144034
O10	O	1.473512	0.245793	-0.121794
C11	C	1.253898	0.128376	-0.000004
C12	C	1.114486	0.125908	-0.000002
C13	C	1.048996	0.124743	-0.132789
C14	C	0.918007	0.122410	-0.132789
C15	C	0.918009	0.122412	0.132796
C16	C	1.048997	0.124738	0.132795
C17	C	1.492653	-0.029937	-0.000022
C18	C	1.490168	-0.123198	-0.000022
C19	C	1.364723	-0.338779	0.000000
C20	C	1.422974	-0.399463	-0.120110
C21	C	1.485672	-0.293950	-0.000011
C22	C	1.423005	-0.399440	0.120059
C23	C	1.481320	-0.458887	0.000006
C24	C	1.543956	-0.353405	-0.120220
C25	C	1.543970	-0.353376	0.120057
C26	C	1.602309	-0.414042	-0.000082
C27	C	1.488175	-0.198933	-0.000022
C28	C	1.478825	-0.553903	0.000007
C29	C	1.713097	0.118781	-0.000009
C30	C	1.852509	0.121249	-0.000001
C31	C	1.474342	0.277094	0.000009
C32	C	1.476827	0.370355	0.000019
N33	N	1.483501	0.123581	0.346657
N34	N	1.483504	0.123569	-0.346673
C35	C	1.569030	0.067086	0.423301
C36	C	1.569035	0.067082	0.576638
C37	C	1.397971	0.180070	0.576672
C38	C	1.397973	0.180078	0.423338
H39	H	0.864672	0.121460	0.240914
C40	C	1.663115	0.004935	0.660949
C41	C	1.661268	-0.090751	0.639841
C42	C	1.755354	-0.152900	0.724152
C43	C	1.851286	-0.119364	0.829571
C44	C	1.853137	-0.023674	0.850684
C45	C	1.759051	0.038475	0.766373
H46	H	1.590250	-0.115580	0.561799
H47	H	1.753983	-0.223736	0.708522
H48	H	1.920934	-0.165371	0.891983
H49	H	1.924155	0.001156	0.928726
H50	H	1.760422	0.109312	0.782003
H51	H	1.102321	0.125685	0.240932
C52	C	1.353870	-0.427041	-0.257282
C53	C	1.214815	-0.393651	-0.283666
C54	C	1.145702	-0.421225	-0.420831
C55	C	1.215645	-0.482189	-0.531612
C56	C	1.354708	-0.515582	-0.505232
C57	C	1.423821	-0.488008	-0.368067
H58	H	1.163033	-0.348519	-0.201656
H59	H	1.042758	-0.396505	-0.440358
H60	H	1.164483	-0.502601	-0.633150
H61	H	1.406490	-0.560714	-0.587242
H62	H	1.526765	-0.512728	-0.348539
C63	C	1.121040	0.126025	-0.278858
C64	C	1.088762	0.198512	-0.388398
C65	C	1.160803	0.199793	-0.534470
C66	C	1.265123	0.128587	-0.571004
C67	C	1.297406	0.056094	-0.461461
C68	C	1.225365	0.054813	-0.315389
H69	H	1.011533	0.251229	-0.361356
H70	H	1.136904	0.253458	-0.615561
H71	H	1.318453	0.129535	-0.679135
H72	H	1.374635	0.003378	-0.488503
H73	H	1.249264	0.001149	-0.234298
H74	H	0.864690	0.121462	-0.240917
C75	C	1.229104	-0.294559	-0.000151
C76	C	1.116038	-0.347323	-0.001580
C77	C	0.980424	-0.303102	-0.001739
C78	C	0.957876	-0.206116	-0.000468
C79	C	1.070946	-0.153346	0.000961
C80	C	1.206560	-0.197568	0.001119
H81	H	1.132725	-0.419123	-0.002520
H82	H	0.896722	-0.342166	-0.002796
H83	H	0.857487	-0.173381	-0.000586
H84	H	1.054258	-0.081547	0.001901
H85	H	1.290262	-0.158504	0.002177
H86	H	1.595069	-0.333122	-0.221875
H87	H	1.702790	-0.446620	-0.000152
H88	H	1.638674	0.021085	0.360871
H89	H	1.595083	-0.332948	0.221604
H90	H	1.371833	-0.419810	0.221610
H91	H	1.328334	0.226067	0.639122
H92	H	1.328324	0.226087	0.360930
