data_functionalizedCrystal
_audit_creation_method	'MofGen! by Chris Wilmer'
_symmetry_space_group_name_H-M	'P1'
_symmetry_Int_Tables_number	1
_symmetry_cell_setting	triclinic
loop_
_symmetry_equiv_pos_as_xyz
  x,y,z
_cell_length_a	21.295418
_cell_length_b	21.295417
_cell_length_c	21.295411
_cell_angle_alpha	89.979403
_cell_angle_beta	89.956262
_cell_angle_gamma	90.045515
loop_
_atom_site_label
_atom_site_type_symbol
_atom_site_fract_x
_atom_site_fract_y
_atom_site_fract_z
Zn1	Zn	0.962359	-0.250415	-0.356238
Zn2	Zn	1.295693	0.082918	-0.022905
Zn3	Zn	1.629026	0.416251	0.310428
Zn4	Zn	0.962263	-0.355667	-0.250965
Zn5	Zn	1.295597	-0.022334	0.082368
Zn6	Zn	1.628930	0.311000	0.415701
Zn7	Zn	0.857082	-0.250445	-0.250948
Zn8	Zn	1.190416	0.082889	0.082385
Zn9	Zn	1.523749	0.416222	0.415719
Zn10	Zn	0.857053	-0.355680	-0.356162
Zn11	Zn	1.190387	-0.022346	-0.022829
Zn12	Zn	1.523720	0.310987	0.310505
O13	O	0.909690	-0.303052	-0.303578
O14	O	1.243023	0.030282	0.029755
O15	O	1.576356	0.363615	0.363088
O16	O	1.050436	-0.264360	-0.342313
O17	O	1.383769	0.068974	-0.008979
O18	O	1.717103	0.402307	0.324354
O19	O	0.948283	-0.341716	-0.162874
O20	O	1.281616	-0.008383	0.170460
O21	O	1.614949	0.324950	0.503793
O22	O	0.871100	-0.162351	-0.264940
O23	O	1.204433	0.170982	0.068394
O24	O	1.537767	0.504315	0.401727
O25	O	1.050365	-0.341688	-0.264969
O26	O	1.383699	-0.008354	0.068364
O27	O	1.717032	0.324979	0.401697
O28	O	0.948447	-0.162330	-0.342296
O29	O	1.281780	0.171004	-0.008962
O30	O	1.615113	0.504337	0.324371
O31	O	0.871007	-0.264410	-0.162861
O32	O	1.204340	0.068923	0.170472
O33	O	1.537674	0.402257	0.503806
O34	O	0.768989	-0.264422	-0.264866
O35	O	1.102323	0.068911	0.068468
O36	O	1.435656	0.402245	0.401801
O37	O	0.871050	-0.341709	-0.444262
O38	O	1.204384	-0.008376	-0.110928
O39	O	1.537717	0.324958	0.222405
O40	O	0.768968	-0.341738	-0.342166
O41	O	1.102301	-0.008404	-0.008833
O42	O	1.435634	0.324929	0.324501
O43	O	0.948418	-0.264372	-0.444318
O44	O	1.281752	0.068962	-0.110984
O45	O	1.615085	0.402295	0.222349
O46	O	0.948254	-0.443758	-0.264895
O47	O	1.281588	-0.110425	0.068438
O48	O	1.614921	0.222909	0.401771
O49	O	0.870957	-0.443767	-0.342183
O50	O	1.204291	-0.110434	-0.008850
O51	O	1.537624	0.222899	0.324484
C52	C	0.746138	-0.303085	-0.303506
C53	C	1.079471	0.030249	0.029827
C54	C	1.412805	0.363582	0.363161
C55	C	0.676170	-0.303114	-0.303490
C56	C	1.009503	0.030219	0.029843
C57	C	1.342836	0.363553	0.363177
C58	C	0.643308	-0.343426	-0.343680
C59	C	0.976642	-0.010092	-0.010347
C60	C	1.309975	0.323241	0.322987
C61	C	0.577566	-0.343410	-0.343708
C62	C	0.910899	-0.010077	-0.010375
C63	C	1.244233	0.323257	0.322958
C64	C	0.544687	-0.303090	-0.303535
C65	C	0.878021	0.030244	0.029798
C66	C	1.211354	0.363577	0.363131
C67	C	0.577557	-0.262770	-0.263342
C68	C	0.910890	0.070563	0.069991
C69	C	1.244223	0.403896	0.403324
C70	C	0.643298	-0.262783	-0.263320
C71	C	0.976631	0.070551	0.070014
C72	C	1.309964	0.403884	0.403347
N73	N	0.441411	-0.298163	-0.248477
N74	N	0.774745	0.035171	0.084856
N75	N	1.108078	0.368504	0.418189
N76	N	0.378960	-0.298155	-0.248501
N77	N	0.712293	0.035179	0.084833
N78	N	1.045626	0.368512	0.418166
C79	C	0.346613	-0.303050	-0.303602
C80	C	0.679946	0.030284	0.029731
C81	C	1.013279	0.363617	0.363065
N82	N	0.379076	-0.307965	-0.358680
N83	N	0.712410	0.025368	-0.025347
N84	N	1.045743	0.358702	0.307987
N85	N	0.441533	-0.307976	-0.358656
N86	N	0.774867	0.025357	-0.025323
N87	N	1.108200	0.358691	0.308011
C88	C	0.473402	-0.303072	-0.303556
C89	C	0.806735	0.030262	0.029778
C90	C	1.140069	0.363595	0.363111
C91	C	0.242466	-0.343346	-0.343826
C92	C	0.575799	-0.010013	-0.010493
C93	C	0.909133	0.323320	0.322841
C94	C	0.176722	-0.343326	-0.343855
C95	C	0.510055	-0.009993	-0.010522
C96	C	0.843389	0.323340	0.322811
C97	C	0.176714	-0.262690	-0.263484
C98	C	0.510047	0.070643	0.069850
C99	C	0.843381	0.403977	0.403183
C100	C	0.242456	-0.262707	-0.263460
C101	C	0.575790	0.070627	0.069873
C102	C	0.909123	0.403960	0.403207
C103	C	0.275328	-0.303038	-0.303630
C104	C	0.608662	0.030295	0.029703
C105	C	0.941995	0.363628	0.363036
C106	C	0.909609	-0.466603	-0.303547
C107	C	1.242943	-0.133270	0.029787
C108	C	1.576276	0.200063	0.363120
C109	C	0.909633	-0.536571	-0.303554
C110	C	1.242966	-0.203238	0.029779
C111	C	1.576299	0.130095	0.363113
C112	C	0.949884	-0.569370	-0.343862
C113	C	1.283217	-0.236036	-0.010529
C114	C	1.616551	0.097297	0.322805
C115	C	0.949906	-0.635112	-0.343878
C116	C	1.283239	-0.301779	-0.010544
C117	C	1.616573	0.031555	0.322789
C118	C	0.909684	-0.668054	-0.303574
C119	C	1.243017	-0.334721	0.029760
C120	C	1.576350	-0.001387	0.363093
C121	C	0.869425	-0.635248	-0.263263
C122	C	1.202758	-0.301914	0.070071
C123	C	1.536091	0.031419	0.403404
C124	C	0.869399	-0.569507	-0.263253
C125	C	1.202732	-0.236173	0.070080
C126	C	1.536066	0.097160	0.403414
N127	N	0.904924	-0.771307	-0.248481
N128	N	1.238258	-0.437974	0.084852
N129	N	1.571591	-0.104641	0.418186
N130	N	0.904952	-0.833759	-0.248492
N131	N	1.238285	-0.500426	0.084841
N132	N	1.571619	-0.167092	0.418174
C133	C	0.909757	-0.866129	-0.303602
C134	C	1.243091	-0.532795	0.029731
C135	C	1.576424	-0.199462	0.363064
N136	N	0.914546	-0.833687	-0.358702
N137	N	1.247879	-0.500354	-0.025368
N138	N	1.581212	-0.167021	0.307965
N139	N	0.914521	-0.771230	-0.358690
N140	N	1.247854	-0.437897	-0.025356
N141	N	1.581188	-0.104564	0.307977
C142	C	0.909707	-0.739339	-0.303580
C143	C	1.243040	-0.406006	0.029753
C144	C	1.576373	-0.072673	0.363086
C145	C	0.950035	-0.970212	-0.343931
C146	C	1.283368	-0.636879	-0.010597
C147	C	1.616701	-0.303546	0.322736
C148	C	0.950052	-1.035956	-0.343947
C149	C	1.283386	-0.702623	-0.010614
C150	C	1.616719	-0.369289	0.322719
C151	C	0.869574	-1.036090	-0.263327
C152	C	1.202908	-0.702757	0.070007
C153	C	1.536241	-0.369424	0.403340
C154	C	0.869553	-0.970348	-0.263316
C155	C	1.202887	-0.637015	0.070018
C156	C	1.536220	-0.303681	0.403351
C157	C	0.909787	-0.937413	-0.303617
C158	C	1.243120	-0.604079	0.029716
C159	C	1.576453	-0.270746	0.363050
C160	C	1.073880	-0.303019	-0.303652
C161	C	1.407213	0.030314	0.029682
C162	C	1.740547	0.363648	0.363015
C163	C	1.143848	-0.303005	-0.303683
C164	C	1.477181	0.030328	0.029651
C165	C	1.810515	0.363662	0.362984
C166	C	0.909742	-0.303038	-0.467769
C167	C	1.243075	0.030295	-0.134435
C168	C	1.576408	0.363628	0.198898
C169	C	0.909764	-0.303033	-0.537737
C170	C	1.243097	0.030301	-0.204404
C171	C	1.576431	0.363634	0.128930
C172	C	0.909787	-0.138861	-0.303624
C173	C	1.243121	0.194472	0.029709
C174	C	1.576454	0.527805	0.363042
C175	C	0.909829	-0.068893	-0.303644
C176	C	1.243162	0.264440	0.029690
C177	C	1.576496	0.597773	0.363023
C178	C	0.950048	-0.262761	-0.570634
C179	C	1.283381	0.070572	-0.237300
C180	C	1.616714	0.403905	0.096033
C181	C	0.950047	-0.262734	-0.636376
C182	C	1.283380	0.070599	-0.303043
C183	C	1.616714	0.403933	0.030290
C184	C	0.909769	-0.302989	-0.669219
C185	C	1.243102	0.030344	-0.335886
C186	C	1.576436	0.363677	-0.002553
C187	C	0.869477	-0.343263	-0.636315
C188	C	1.202811	-0.009930	-0.302981
C189	C	1.536144	0.323403	0.030352
C190	C	0.869475	-0.343285	-0.570573
C191	C	1.202808	-0.009952	-0.237240
C192	C	1.536142	0.323382	0.096093
N193	N	0.904913	-0.358058	-0.772434
N194	N	1.238246	-0.024725	-0.439101
N195	N	1.571580	0.308608	-0.105768
N196	N	0.904919	-0.358036	-0.834886
N197	N	1.238252	-0.024703	-0.501552
N198	N	1.571586	0.308631	-0.168219
C199	C	0.909773	-0.302926	-0.867294
C200	C	1.243106	0.030408	-0.533961
C201	C	1.576440	0.363741	-0.200628
N202	N	0.914633	-0.247837	-0.834892
N203	N	1.247966	0.085496	-0.501559
N204	N	1.581300	0.418830	-0.168225
N205	N	0.914630	-0.247860	-0.772435
N206	N	1.247964	0.085473	-0.439102
N207	N	1.581297	0.418807	-0.105768
C208	C	0.909767	-0.302970	-0.740505
C209	C	1.243100	0.030363	-0.407172
C210	C	1.576434	0.363697	-0.073838
C211	C	0.950058	-0.262621	-0.971477
C212	C	1.283391	0.070712	-0.638143
C213	C	1.616725	0.404045	-0.304810
C214	C	0.950053	-0.262593	-1.037220
C215	C	1.283386	0.070740	-0.703887
C216	C	1.616719	0.404074	-0.370554
C217	C	0.869486	-0.343128	-1.037158
C218	C	1.202820	-0.009795	-0.703824
C219	C	1.536153	0.323539	-0.370491
C220	C	0.869488	-0.343151	-0.971415
C221	C	1.202822	-0.009817	-0.638082
C222	C	1.536155	0.323516	-0.304748
C223	C	0.909777	-0.302898	-0.938579
C224	C	1.243111	0.030435	-0.605245
C225	C	1.576444	0.363769	-0.271912
C226	C	0.909674	-0.303019	-0.140027
C227	C	1.243007	0.030314	0.193306
C228	C	1.576340	0.363647	0.526640
C229	C	0.909774	-0.302848	-0.070059
C230	C	1.243107	0.030486	0.263274
C231	C	1.576440	0.363819	0.596608
H232	H	0.269212	-0.229884	-0.230730
H233	H	0.602546	0.103450	0.102604
H234	H	0.935879	0.436783	0.435937
H235	H	0.836621	-0.542802	-0.230429
H236	H	1.169954	-0.209468	0.102905
H237	H	1.503288	0.123865	0.436238
F238	F	0.826614	-0.670308	-0.220372
F239	F	1.159947	-0.336974	0.112962
F240	F	1.493281	-0.003641	0.446295
F241	F	0.992914	-0.219860	-0.671395
F242	F	1.326247	0.113474	-0.338061
F243	F	1.659580	0.446807	-0.004728
H244	H	0.670053	-0.229954	-0.230592
H245	H	1.003386	0.103379	0.102741
H246	H	1.336720	0.436713	0.436075
F247	F	0.992852	-0.935158	-0.386824
F248	F	1.326185	-0.601825	-0.053491
F249	F	1.659519	-0.268491	0.279843
F250	F	0.141749	-0.386231	-0.386637
F251	F	0.475082	-0.052897	-0.053304
F252	F	0.808416	0.280436	0.280030
F253	F	0.992889	-1.070862	-0.386858
F254	F	1.326223	-0.737529	-0.053524
F255	F	1.659556	-0.404195	0.279809
H256	H	0.982643	-0.542556	-0.376679
H257	H	1.315976	-0.209222	-0.043346
H258	H	1.649309	0.124111	0.289988
H259	H	0.149945	-0.229857	-0.230777
H260	H	0.483278	0.103476	0.102556
H261	H	0.816612	0.436809	0.435890
F262	F	0.826614	-0.385966	-1.072107
F263	F	1.159948	-0.052633	-0.738774
F264	F	1.493281	0.280700	-0.405441
F265	F	0.826609	-0.386104	-0.671270
F266	F	1.159942	-0.052771	-0.337936
F267	F	1.493276	0.280563	-0.004603
H268	H	0.982678	-0.661822	-0.376709
H269	H	1.316012	-0.328488	-0.043375
H270	H	1.649345	0.004845	0.289958
H271	H	0.836820	-1.062911	-0.230515
H272	H	1.170154	-0.729578	0.102819
H273	H	1.503487	-0.396244	0.436152
F274	F	0.277453	-0.386267	-0.386581
F275	F	0.610786	-0.052934	-0.053248
F276	F	0.944120	0.280400	0.280086
H277	H	0.836779	-0.943642	-0.230490
H278	H	1.170113	-0.610309	0.102843
H279	H	1.503446	-0.276975	0.436176
H280	H	0.836689	-0.375948	-0.944630
H281	H	1.170022	-0.042614	-0.611297
H282	H	1.503355	0.290719	-0.277964
F283	F	0.826598	-0.386149	-0.535561
F284	F	1.159931	-0.052816	-0.202228
F285	F	1.493264	0.280517	0.131106
H286	H	0.982854	-0.229984	-0.543902
H287	H	1.316187	0.103349	-0.210569
H288	H	1.649520	0.436683	0.122764
H289	H	0.982860	-0.229842	-0.944740
H290	H	1.316193	0.103492	-0.611406
H291	H	1.649527	0.436825	-0.278073
H292	H	0.982855	-0.229795	-1.064004
H293	H	1.316189	0.103538	-0.730671
H294	H	1.649522	0.436871	-0.397337
H295	H	0.550805	-0.376236	-0.376438
H296	H	0.884138	-0.042903	-0.043105
H297	H	1.217472	0.290430	0.290228
F298	F	0.542564	-0.219856	-0.220590
F299	F	0.875897	0.113477	0.112744
F300	F	1.209231	0.446811	0.446077
F301	F	0.678289	-0.386348	-0.386435
F302	F	1.011623	-0.053015	-0.053102
F303	F	1.344956	0.280318	0.280232
