data_functionalizedCrystal
_audit_creation_method	'MofGen! by Chris Wilmer'
_symmetry_space_group_name_H-M	'P1'
_symmetry_Int_Tables_number	1
_symmetry_cell_setting	triclinic
loop_
_symmetry_equiv_pos_as_xyz
  x,y,z
_cell_length_a	12.759394
_cell_length_b	21.395355
_cell_length_c	21.395362
_cell_angle_alpha	89.956060
_cell_angle_beta	90.030716
_cell_angle_gamma	89.985423
loop_
_atom_site_label
_atom_site_type_symbol
_atom_site_fract_x
_atom_site_fract_y
_atom_site_fract_z
Zn1	Zn	-0.417943	-0.354603	0.957929
Zn2	Zn	-0.593608	-0.249833	0.957860
Zn3	Zn	-0.417992	-0.249804	0.853143
Zn4	Zn	-0.593629	-0.354537	0.853142
O5	O	-0.505793	-0.302194	0.905518
O6	O	-0.441216	-0.340744	1.045597
O7	O	-0.570323	-0.162151	0.943941
O8	O	-0.270964	-0.263721	0.867073
O9	O	-0.570276	-0.263770	1.045547
O10	O	-0.270928	-0.340717	0.944058
O11	O	-0.441299	-0.162130	0.867006
O12	O	-0.441320	-0.263658	0.765465
O13	O	-0.570313	-0.442224	0.867070
O14	O	-0.570360	-0.340605	0.765464
O15	O	-0.441237	-0.442272	0.944056
O16	O	-0.740632	-0.263706	0.943940
O17	O	-0.740647	-0.340632	0.867003
C18	C	-0.778760	-0.302179	0.905481
C19	C	-0.895537	-0.302193	0.905522
C20	C	-0.505848	-0.302121	0.742731
C21	C	-0.505897	-0.302105	0.673089
C22	C	-0.505772	-0.465618	0.905570
C23	C	-0.505762	-0.535259	0.905593
C24	C	-0.895467	-0.222150	0.985696
C25	C	-0.950293	-0.182136	1.025799
C26	C	-1.060015	-0.182153	1.025836
C27	C	-1.114913	-0.222190	0.985766
C28	C	-1.060087	-0.262204	0.945663
C29	C	-0.950363	-0.262182	0.945629
C30	C	-1.060157	-0.342250	0.865493
C31	C	-0.950435	-0.342230	0.865453
C32	C	-1.115055	-0.382286	0.825424
C33	C	-1.060229	-0.422298	0.785317
C34	C	-0.950501	-0.422279	0.785281
C35	C	-0.895609	-0.382244	0.825349
C36	C	-0.231759	-0.302223	0.905573
C37	C	-0.114983	-0.302235	0.905597
C38	C	-0.438550	-0.567998	0.945678
C39	C	-0.438505	-0.633433	0.945677
C40	C	-0.505691	-0.666127	0.905597
C41	C	-0.572908	-0.633380	0.865505
C42	C	-0.572944	-0.567946	0.865502
C43	C	-0.600292	-0.769795	0.900637
C44	C	-0.600258	-0.835228	0.900644
C45	C	-0.505580	-0.867948	0.905601
C46	C	-0.410933	-0.835227	0.910565
C47	C	-0.410968	-0.769793	0.910563
C48	C	-0.505659	-0.737080	0.905595
C49	C	-0.438313	-0.971640	0.945688
C50	C	-0.438266	-1.037076	0.945682
C51	C	-0.572679	-1.037022	0.865513
C52	C	-0.572716	-0.971586	0.865515
C53	C	-0.505535	-0.938899	0.905606
C54	C	-0.505738	-0.139407	0.905503
C55	C	-0.505451	-0.069766	0.905602
C56	C	-0.573178	-0.342112	0.640392
C57	C	-0.573152	-0.342139	0.574957
C58	C	-0.505857	-0.302150	0.542221
C59	C	-0.438564	-0.262141	0.574927
C60	C	-0.438584	-0.262118	0.640361
C61	C	-0.497393	-0.245744	0.438495
C62	C	-0.497380	-0.245766	0.373062
C63	C	-0.505788	-0.302219	0.340401
C64	C	-0.514231	-0.358653	0.373180
C65	C	-0.514252	-0.358631	0.438614
C66	C	-0.505827	-0.302170	0.471269
C67	C	-0.573044	-0.342259	0.236751
C68	C	-0.573011	-0.342288	0.171314
C69	C	-0.438429	-0.262284	0.171285
C70	C	-0.438456	-0.262260	0.236720
C71	C	-0.505770	-0.302247	0.269449
C72	C	-0.505738	-0.302267	1.068942
C73	C	-0.505714	-0.302299	1.138583
H74	H	-0.806126	-0.222124	0.985662
H75	H	-0.627608	-0.660004	0.832870
H76	H	-0.383631	-0.229726	0.144633
Cl77	Cl	-1.252990	-0.382043	0.825205
Cl78	Cl	-1.252848	-0.221945	0.985549
Cl79	Cl	-0.524858	-0.429573	0.479820
Cl80	Cl	-0.291900	-0.876353	0.916800
Cl81	Cl	-0.881274	-0.131810	1.076172
Cl82	Cl	-0.524796	-0.429629	0.332127
Cl83	Cl	-0.291989	-0.728660	0.916798
H84	H	-0.677326	-0.861864	0.896606
H85	H	-0.383603	-0.945025	0.978328
Cl86	Cl	-1.129248	-0.472629	0.734954
H87	H	-0.490542	-0.199770	0.465083
H88	H	-0.627939	-0.374720	0.548329
Cl89	Cl	-0.657448	-0.526786	0.815106
H90	H	-0.627850	-0.374822	0.263400
Cl91	Cl	-0.881586	-0.472589	0.734866
H92	H	-1.104654	-0.149573	1.058494
H93	H	-0.677371	-0.743160	0.896433
H94	H	-0.806268	-0.382221	0.825320
Cl95	Cl	-0.353778	-1.078235	0.996090
H96	H	-0.627797	-0.374870	0.144693
Cl97	Cl	-0.353873	-0.211962	0.277828
Cl98	Cl	-0.657795	-0.392383	0.681534
H99	H	-0.383844	-0.541388	0.978322
Cl100	Cl	-0.657133	-1.078116	0.815121
Cl101	Cl	-0.486765	-0.174821	0.331861
Cl102	Cl	-0.353981	-0.674600	0.996061
Cl103	Cl	-0.657222	-0.930426	0.815122
Cl104	Cl	-0.353959	-0.211871	0.533774
H105	H	-0.383793	-0.229540	0.666983
