data_functionalizedCrystal
_audit_creation_method	'MofGen! by Chris Wilmer'
_symmetry_space_group_name_H-M	'P1'
_symmetry_Int_Tables_number	1
_symmetry_cell_setting	triclinic
loop_
_symmetry_equiv_pos_as_xyz
  x,y,z
_cell_length_a	18.050591
_cell_length_b	18.050589
_cell_length_c	16.120297
_cell_angle_alpha	87.124470
_cell_angle_beta	92.873600
_cell_angle_gamma	89.968854
loop_
_atom_site_label
_atom_site_type_symbol
_atom_site_fract_x
_atom_site_fract_y
_atom_site_fract_z
Zn1	Zn	1.113992	0.317045	-0.471516
Zn2	Zn	1.363992	0.567045	-0.221516
Zn3	Zn	1.613992	0.817045	0.028484
Zn4	Zn	1.863992	1.067045	0.278484
Zn5	Zn	1.120176	0.434941	-0.332115
Zn6	Zn	1.370176	0.684941	-0.082115
Zn7	Zn	1.620176	0.934941	0.167885
Zn8	Zn	1.870176	1.184941	0.417885
Zn9	Zn	0.996099	0.310761	-0.332108
Zn10	Zn	1.246099	0.560761	-0.082108
Zn11	Zn	1.496099	0.810761	0.167892
Zn12	Zn	1.746099	1.060761	0.417892
Zn13	Zn	0.989747	0.441188	-0.471468
Zn14	Zn	1.239747	0.691188	-0.221468
Zn15	Zn	1.489747	0.941188	0.028532
Zn16	Zn	1.739747	1.191188	0.278532
O17	O	1.055004	0.375984	-0.401802
O18	O	1.305004	0.625984	-0.151802
O19	O	1.555004	0.875984	0.098198
O20	O	1.805004	1.125984	0.348198
O21	O	1.218736	0.332700	-0.453046
O22	O	1.468736	0.582700	-0.203046
O23	O	1.718736	0.832700	0.046954
O24	O	1.968736	1.082700	0.296954
O25	O	1.108963	0.413223	-0.215451
O26	O	1.358963	0.663223	0.034549
O27	O	1.608963	0.913223	0.284549
O28	O	1.858963	1.163223	0.534549
O29	O	1.011808	0.207671	-0.350617
O30	O	1.261808	0.457671	-0.100617
O31	O	1.511808	0.707671	0.149383
O32	O	1.761808	0.957671	0.399383
O33	O	1.223279	0.419317	-0.350629
O34	O	1.473279	0.669317	-0.100629
O35	O	1.723279	0.919317	0.149371
O36	O	1.973279	1.169317	0.399371
O37	O	1.098423	0.212288	-0.453040
O38	O	1.348423	0.462288	-0.203040
O39	O	1.598423	0.712288	0.046960
O40	O	1.848423	0.962288	0.296960
O41	O	1.017804	0.321989	-0.215446
O42	O	1.267804	0.571989	0.034554
O43	O	1.517804	0.821989	0.284554
O44	O	1.767804	1.071989	0.534554
O45	O	0.891333	0.328047	-0.350571
O46	O	1.141333	0.578047	-0.100571
O47	O	1.391333	0.828047	0.149429
O48	O	1.641333	1.078047	0.399429
O49	O	1.000982	0.429965	-0.588137
O50	O	1.250982	0.679965	-0.338137
O51	O	1.500982	0.929965	-0.088137
O52	O	1.750982	1.179965	0.161863
O53	O	0.886666	0.423871	-0.452959
O54	O	1.136666	0.673871	-0.202959
O55	O	1.386666	0.923871	0.047041
O56	O	1.636666	1.173871	0.297041
O57	O	1.092265	0.338758	-0.588172
O58	O	1.342265	0.588758	-0.338172
O59	O	1.592265	0.838758	-0.088172
O60	O	1.842265	1.088758	0.161828
O61	O	1.102804	0.539693	-0.350583
O62	O	1.352804	0.789693	-0.100583
O63	O	1.602804	1.039693	0.149417
O64	O	1.852804	1.289693	0.399417
O65	O	1.006979	0.544283	-0.452966
O66	O	1.256979	0.794283	-0.202966
O67	O	1.506979	1.044283	0.047034
O68	O	1.756979	1.294283	0.297034
C69	C	0.862053	0.375956	-0.401760
C70	C	1.112053	0.625956	-0.151760
C71	C	1.362053	0.875956	0.098240
C72	C	1.612053	1.125956	0.348240
C73	C	0.779508	0.375963	-0.401762
C74	C	1.029508	0.625963	-0.151762
C75	C	1.279508	0.875963	0.098238
C76	C	1.529508	1.125963	0.348238
C77	C	0.533192	0.323808	-0.346215
C78	C	0.783192	0.573808	-0.096215
C79	C	1.033192	0.823808	0.153785
C80	C	1.283192	1.073808	0.403785
C81	C	0.579195	0.309159	-0.422297
C82	C	0.829195	0.559159	-0.172297
C83	C	1.079195	0.809159	0.077703
C84	C	1.329195	1.059159	0.327703
C85	C	0.482384	0.376004	-0.401830
C86	C	0.732384	0.626004	-0.151830
C87	C	0.982384	0.876004	0.098170
C88	C	1.232384	1.126004	0.348170
C89	C	0.583465	0.390598	-0.325719
C90	C	0.833465	0.640598	-0.075719
C91	C	1.083465	0.890598	0.174281
C92	C	1.333465	1.140598	0.424281
C93	C	0.628371	0.375981	-0.401792
C94	C	0.878371	0.625981	-0.151792
C95	C	1.128371	0.875981	0.098208
C96	C	1.378371	1.125981	0.348208
C97	C	0.527298	0.361321	-0.477952
C98	C	0.777298	0.611321	-0.227952
C99	C	1.027298	0.861321	0.022048
C100	C	1.277298	1.111321	0.272048
C101	C	0.531566	0.442789	-0.381323
C102	C	0.781566	0.692789	-0.131323
C103	C	1.031566	0.942789	0.118677
C104	C	1.281566	1.192789	0.368677
C105	C	0.577543	0.428168	-0.457457
C106	C	0.827543	0.678168	-0.207457
C107	C	1.077543	0.928168	0.042543
C108	C	1.327543	1.178168	0.292543
C109	C	0.398285	0.376014	-0.401850
C110	C	0.648285	0.626014	-0.151850
C111	C	0.898285	0.876014	0.098150
C112	C	1.148285	1.126014	0.348150
C113	C	0.712468	0.375971	-0.401780
C114	C	0.962468	0.625971	-0.151780
C115	C	1.212468	0.875971	0.098220
C116	C	1.462468	1.125971	0.348220
C117	C	1.054893	0.568935	-0.401788
C118	C	1.304893	0.818935	-0.151788
C119	C	1.554893	1.068935	0.098212
C120	C	1.804893	1.318935	0.348212
C121	C	1.054912	0.651482	-0.401811
C122	C	1.304912	0.901482	-0.151811
C123	C	1.554912	1.151482	0.098189
C124	C	1.804912	1.401482	0.348189
C125	C	1.002829	0.853455	-0.457468
C126	C	1.252829	1.103455	-0.207468
C127	C	1.502829	1.353455	0.042532
C128	C	1.752829	1.603455	0.292532
C129	C	0.988157	0.899456	-0.381393
C130	C	1.238157	1.149456	-0.131393
C131	C	1.488157	1.399456	0.118607
C132	C	1.738157	1.649456	0.368607
C133	C	1.054967	0.802613	-0.401822
C134	C	1.304967	1.052613	-0.151822
C135	C	1.554967	1.302613	0.098178
C136	C	1.804967	1.552613	0.348178
C137	C	1.069659	0.903694	-0.477907
C138	C	1.319659	1.153694	-0.227907
C139	C	1.569659	1.403694	0.022093
C140	C	1.819659	1.653694	0.272093
C141	C	1.055019	0.948599	-0.401840
C142	C	1.305019	1.198599	-0.151840
C143	C	1.555019	1.448599	0.098160
C144	C	1.805019	1.698599	0.348160
C145	C	1.040262	0.847525	-0.325707
C146	C	1.290262	1.097525	-0.075707
C147	C	1.540262	1.347525	0.174293
C148	C	1.790262	1.597525	0.424293
C149	C	1.121793	0.851761	-0.422272
C150	C	1.371793	1.101761	-0.172272
C151	C	1.621793	1.351761	0.077728
C152	C	1.871793	1.601761	0.327728
C153	C	1.107149	0.897737	-0.346145
C154	C	1.357149	1.147737	-0.096145
C155	C	1.607149	1.397737	0.153855
C156	C	1.857149	1.647737	0.403855
C157	C	1.054936	0.718514	-0.401813
C158	C	1.304936	0.968514	-0.151813
C159	C	1.554936	1.218514	0.098187
C160	C	1.804936	1.468514	0.348187
C161	C	1.055051	1.032695	-0.401840
C162	C	1.305051	1.282695	-0.151840
C163	C	1.555051	1.532695	0.098160
C164	C	1.805051	1.782695	0.348160
C165	C	1.248707	0.376013	-0.401844
C166	C	1.498707	0.626013	-0.151844
C167	C	1.748707	0.876013	0.098156
C168	C	1.998707	1.126013	0.348156
C169	C	1.331252	0.376025	-0.401862
C170	C	1.581252	0.626025	-0.151862
C171	C	1.831252	0.876025	0.098138
C172	C	2.081252	1.126025	0.348138
C173	C	1.045225	0.385759	-0.619250
C174	C	1.295225	0.635759	-0.369250
C175	C	1.545225	0.885759	-0.119250
C176	C	1.795225	1.135759	0.130750
C177	C	1.041058	0.389925	-0.711913
C178	C	1.291058	0.639925	-0.461913
C179	C	1.541058	0.889925	-0.211913
C180	C	1.791058	1.139925	0.038087
C181	C	1.055106	1.182280	-0.401834
C182	C	1.305106	1.432280	-0.151834
C183	C	1.555106	1.682280	0.098166
C184	C	1.805106	1.932280	0.348166
C185	C	1.055077	1.099735	-0.401850
C186	C	1.305077	1.349735	-0.151850
C187	C	1.555077	1.599735	0.098150
C188	C	1.805077	1.849735	0.348150
C189	C	1.033423	0.397514	-0.881571
C190	C	1.283423	0.647514	-0.631571
C191	C	1.533423	0.897514	-0.381571
C192	C	1.783423	1.147514	-0.131571
C193	C	1.076731	0.354231	-0.922884
C194	C	1.326731	0.604231	-0.672884
C195	C	1.576731	0.854231	-0.422884
C196	C	1.826731	1.104231	-0.172884
C197	C	1.072483	0.358454	-1.017287
C198	C	1.322483	0.608454	-0.767287
C199	C	1.572483	0.858454	-0.517287
C200	C	1.822483	1.108454	-0.267287
C201	C	1.037670	0.393292	-0.787159
C202	C	1.287670	0.643292	-0.537159
C203	C	1.537670	0.893292	-0.287159
C204	C	1.787670	1.143292	-0.037159
C205	C	1.064787	0.366193	-0.185199
C206	C	1.314787	0.616193	0.064801
C207	C	1.564787	0.866193	0.314801
C208	C	1.814787	1.116193	0.564801
C209	C	1.069098	0.361818	-0.092536
C210	C	1.319098	0.611818	0.157464
C211	C	1.569098	0.861818	0.407464
C212	C	1.819098	1.111818	0.657464
H213	H	0.596960	0.472302	-0.504527
H214	H	0.846960	0.722302	-0.254527
H215	H	1.096960	0.972302	-0.004527
H216	H	1.346960	1.222302	0.245473
F217	F	0.945133	0.827926	-0.518889
F218	F	1.195133	1.077926	-0.268889
F219	F	1.445133	1.327926	-0.018889
F220	F	1.695133	1.577926	0.231111
F221	F	1.023962	0.815544	-0.241590
F222	F	1.273962	1.065544	0.008410
F223	F	1.523962	1.315544	0.258410
F224	F	1.773962	1.565544	0.508410
H225	H	0.502828	0.348902	-0.542321
H226	H	0.752828	0.598902	-0.292321
H227	H	1.002828	0.848902	-0.042321
H228	H	1.252828	1.098902	0.207679
H229	H	0.993159	0.437737	-0.917098
H230	H	1.243159	0.687737	-0.667098
H231	H	1.493159	0.937737	-0.417098
H232	H	1.743159	1.187737	-0.167098
H233	H	1.151265	0.917125	-0.299040
H234	H	1.401265	1.167125	-0.049040
H235	H	1.651265	1.417125	0.200960
H236	H	1.901265	1.667125	0.450960
F237	F	0.914321	0.926877	-0.358786
F238	F	1.164321	1.176877	-0.108786
F239	F	1.414321	1.426877	0.141214
F240	F	1.664321	1.676877	0.391214
F241	F	1.129377	0.301665	-0.876447
F242	F	1.379377	0.551665	-0.626447
F243	F	1.629377	0.801665	-0.376447
F244	F	1.879377	1.051665	-0.126447
F245	F	1.195607	0.824319	-0.444907
F246	F	1.445607	1.074319	-0.194907
F247	F	1.695607	1.324319	0.055093
F248	F	1.945607	1.574319	0.305093
F249	F	0.507625	0.266090	-0.284839
F250	F	0.757625	0.516090	-0.034839
F251	F	1.007625	0.766090	0.215161
F252	F	1.257625	1.016090	0.465161
H253	H	0.608025	0.402951	-0.261368
H254	H	0.858025	0.652951	-0.011368
H255	H	1.108025	0.902951	0.238632
H256	H	1.358025	1.152951	0.488632
F257	F	0.504159	0.516601	-0.358636
F258	F	0.754159	0.766601	-0.108636
F259	F	1.004159	1.016601	0.141364
F260	F	1.254159	1.266601	0.391364
F261	F	0.606572	0.235324	-0.444960
F262	F	0.856572	0.485324	-0.194960
F263	F	1.106572	0.735324	0.055040
F264	F	1.356572	0.985324	0.305040
H265	H	1.082065	0.928253	-0.542243
H266	H	1.332065	1.178253	-0.292243
H267	H	1.582065	1.428253	-0.042243
H268	H	1.832065	1.678253	0.207757
