data_functionalizedCrystal
_audit_creation_method	'MofGen! by Chris Wilmer'
_symmetry_space_group_name_H-M	'P1'
_symmetry_Int_Tables_number	1
_symmetry_cell_setting	triclinic
loop_
_symmetry_equiv_pos_as_xyz
  x,y,z
_cell_length_a	16.974848
_cell_length_b	16.053802
_cell_length_c	16.992700
_cell_angle_alpha	87.265839
_cell_angle_beta	92.973892
_cell_angle_gamma	83.770402
loop_
_atom_site_label
_atom_site_type_symbol
_atom_site_fract_x
_atom_site_fract_y
_atom_site_fract_z
O1	O	-1.061818	0.141197	0.093264
O2	O	-0.831716	0.125651	0.106720
O3	O	-0.945845	0.133340	-0.014146
O4	O	-0.947690	0.133507	0.214130
O5	O	-0.939561	-0.005942	-0.007520
O6	O	-0.825433	-0.013632	0.113346
O7	O	-1.055535	0.001915	0.099889
Zn8	Zn	-0.939486	-0.027973	0.107669
Zn9	Zn	-0.947765	0.155538	0.098940
O10	O	-0.941406	-0.005775	0.220755
C11	C	-0.798995	0.054011	0.109642
C12	C	-0.710859	0.048055	0.108469
N13	N	-0.933842	-0.153213	0.113626
C14	C	-0.214374	0.006381	0.102280
C15	C	-0.297187	0.011979	0.103382
C16	C	-0.342020	0.090702	0.100315
C17	C	-0.304034	0.163832	0.096154
C18	C	-0.221222	0.158233	0.095058
C19	C	-0.590061	0.115587	0.103212
C20	C	-0.672879	0.121180	0.104306
C21	C	-0.666026	-0.030674	0.111535
C22	C	-0.583212	-0.036266	0.110434
C23	C	-0.545234	0.036864	0.106277
N24	N	-0.426669	0.096425	0.101439
N25	N	-0.460586	0.031140	0.105159
C26	C	-0.982424	-0.193634	0.062216
C27	C	-0.978483	-0.281306	0.066390
C28	C	-0.925964	-0.328556	0.121980
C29	C	-0.877377	-0.288130	0.173392
C30	C	-0.881314	-0.200459	0.169214
C31	C	-0.908765	-0.591124	0.140211
C32	C	-0.904833	-0.678801	0.144387
C33	C	-1.005939	-0.671971	0.037384
C34	C	-1.009875	-0.584299	0.033213
C35	C	-0.961285	-0.543881	0.084623
N36	N	-0.921937	-0.418171	0.126250
N37	N	-0.965308	-0.454267	0.080349
C38	C	-0.088256	0.073553	0.096961
C39	C	-0.176394	0.079505	0.098117
C40	C	-0.940330	0.063535	-0.040035
C41	C	-0.933249	0.063046	-0.127049
N42	N	-0.953415	0.280779	0.092977
C43	C	-0.885679	0.059908	-0.615811
C44	C	-0.892338	0.060350	-0.534052
C45	C	-0.967320	0.065404	-0.502826
C46	C	-1.035648	0.070026	-0.553364
C47	C	-1.028989	0.069590	-0.635121
C48	C	-0.994919	0.067232	-0.259344
C49	C	-1.001572	0.067665	-0.177580
C50	C	-0.858261	0.057990	-0.158274
C51	C	-0.851609	0.057549	-0.240034
C52	C	-0.919937	0.062176	-0.290565
N53	N	-0.974127	0.065853	-0.419256
N54	N	-0.913129	0.061733	-0.374134
C55	C	-0.946921	0.064032	0.246645
C56	C	-0.954002	0.064527	0.333658
H57	H	-0.177876	-0.057724	0.104780
H58	H	-0.802632	0.054225	-0.117123
O59	O	-0.352395	0.248737	0.092843
H60	H	-0.334475	0.283836	0.144325
H61	H	-0.869202	-0.558222	0.182072
H62	H	-0.190300	0.217779	0.091670
H63	H	-0.836701	0.056591	-0.492912
H64	H	-0.790551	0.053443	-0.265451
H65	H	-1.045498	-0.704888	-0.004473
O66	O	-1.082450	0.073124	-0.143897
H67	H	-1.128845	0.076276	-0.192769
O68	O	-0.804801	0.054449	-0.649482
H69	H	-0.811646	0.054911	-0.714822
H70	H	-1.025194	-0.155168	0.016953
H71	H	-0.546716	-0.100370	0.112914
H72	H	-0.559149	0.175134	0.099824
O73	O	-1.102682	0.074569	-0.689626
H74	H	-1.100506	0.017835	-0.724657
H75	H	-1.096700	0.074140	-0.527934
O76	O	-0.820738	-0.339089	0.233358
H77	H	-0.759035	-0.326510	0.222796
O78	O	-1.068611	0.072218	-0.313842
H79	H	-1.066436	0.015486	-0.348876
O80	O	-0.828919	-0.156855	0.224666
H81	H	-0.791744	-0.204438	0.264029
H82	H	-0.328107	-0.047567	0.106770
H83	H	-1.018042	-0.314216	0.024527
H84	H	-0.696957	-0.090212	0.114921
H85	H	-0.709380	0.185289	0.101815
H86	H	-0.862064	-0.717268	0.189658
O87	O	-1.066513	-0.533336	-0.026750
H88	H	-1.099628	-0.576174	-0.061805
