data_functionalizedCrystal
_audit_creation_method	'MofGen! by Chris Wilmer'
_symmetry_space_group_name_H-M	'P1'
_symmetry_Int_Tables_number	1
_symmetry_cell_setting	triclinic
loop_
_symmetry_equiv_pos_as_xyz
  x,y,z
_cell_length_a	12.645331
_cell_length_b	12.594510
_cell_length_c	12.645330
_cell_angle_alpha	90.032346
_cell_angle_beta	89.974834
_cell_angle_gamma	89.979001
loop_
_atom_site_label
_atom_site_type_symbol
_atom_site_fract_x
_atom_site_fract_y
_atom_site_fract_z
Zn1	Zn	1.620651	-0.601871	0.421972
Zn2	Zn	1.620512	-0.423899	0.599286
Zn3	Zn	1.443371	-0.423901	0.422034
Zn4	Zn	1.443321	-0.601830	0.599191
O5	O	1.531964	-0.512875	0.510621
O6	O	1.768980	-0.578280	0.445507
O7	O	1.596976	-0.274953	0.575839
O8	O	1.466967	-0.447527	0.273679
O9	O	1.768877	-0.447524	0.575779
O10	O	1.597214	-0.578281	0.273633
O11	O	1.466831	-0.274955	0.445613
O12	O	1.295017	-0.447486	0.445520
O13	O	1.466882	-0.750781	0.575617
O14	O	1.294981	-0.578210	0.575677
O15	O	1.597166	-0.750812	0.445415
O16	O	1.596928	-0.447484	0.747621
O17	O	1.466747	-0.578208	0.747551
C18	C	1.256534	-0.512844	0.510596
C19	C	1.138704	-0.512856	0.510610
C20	C	0.971128	-0.431072	0.428352
C21	C	1.093687	-0.430712	0.428565
C22	C	1.094168	-0.482220	0.622289
C23	C	0.971570	-0.481662	0.621840
C24	C	0.971556	-0.625593	0.482253
C25	C	1.094162	-0.624967	0.479758
C26	C	1.532034	-0.790496	0.510498
C27	C	1.532064	-0.908802	0.510446
C28	C	1.602946	-0.978072	0.439624
C29	C	1.506265	-1.048862	0.413675
C30	C	1.628802	-1.048811	0.536322
C31	C	1.435331	-0.978034	0.484447
C32	C	1.557933	-0.977976	0.607139
C33	C	1.461185	-1.048735	0.581226
C34	C	1.808469	-0.512907	0.510647
C35	C	1.926299	-0.512920	0.510658
C36	C	1.531846	-0.512865	0.786051
C37	C	1.531892	-0.512896	0.903881
C38	C	1.531955	-0.236334	0.510666
C39	C	1.532131	-0.118029	0.510420
C40	C	1.450308	-0.595391	1.071445
C41	C	1.449909	-0.595124	0.948885
C42	C	1.501643	-0.400724	0.948490
C43	C	1.501127	-0.401226	1.071089
C44	C	1.644167	-0.541669	1.070968
C45	C	1.643497	-0.544120	0.948360
C46	C	1.532074	-0.512913	1.234116
C47	C	1.532026	-0.512939	1.116286
H48	H	0.941914	-0.538677	0.685241
H49	H	1.123277	-0.648068	0.397575
N50	N	0.930672	-0.662452	0.376238
H51	H	0.992144	-0.674662	0.326675
H52	H	0.890074	-0.730861	0.385513
N53	N	1.737131	-1.089984	0.565332
H54	H	1.757196	-1.063089	0.637857
H55	H	1.736118	-1.170166	0.565720
N56	N	1.474969	-0.705296	0.908916
H57	H	1.486375	-0.754473	0.970938
H58	H	1.414081	-0.732132	0.864702
N59	N	1.134746	-0.710073	0.553369
H60	H	1.182794	-0.677014	0.608007
H61	H	1.073070	-0.745427	0.589894
H62	H	1.671750	-0.622075	1.101800
H63	H	0.942566	-0.686577	0.542201
N64	N	1.381735	-1.089593	0.660538
H65	H	1.419230	-1.133729	0.715654
H66	H	1.345375	-1.027601	0.695891
H67	H	1.484407	-1.079999	0.331893
H68	H	1.353525	-0.947075	0.462455
N69	N	1.724814	-0.462124	1.109375
H70	H	1.727516	-0.463376	1.189189
H71	H	1.796656	-0.481027	1.079936
N72	N	1.682218	-0.936970	0.360257
H73	H	1.662559	-0.962760	0.287225
H74	H	1.682080	-0.856787	0.361392
H75	H	1.579820	-0.946818	0.688898
N76	N	0.932103	-0.456216	0.318325
H77	H	0.994459	-0.470762	0.270521
H78	H	0.884971	-0.520887	0.320858
H79	H	1.420531	-0.375945	0.917881
N80	N	1.475119	-0.705932	1.110390
H81	H	1.539570	-0.703641	1.157482
H82	H	1.412874	-0.734224	1.151744
H83	H	1.367691	-0.576600	1.102347
H84	H	1.366782	-0.576089	0.919652
N85	N	1.132477	-0.320120	0.453456
H86	H	1.212345	-0.319425	0.453697
H87	H	1.105557	-0.269107	0.398054
N88	N	1.673725	-0.653468	0.909736
H89	H	1.615377	-0.682666	0.863615
H90	H	1.741339	-0.648892	0.867444
N91	N	1.392547	-0.368985	1.109108
H92	H	1.345468	-0.354582	1.046227
H93	H	1.361228	-0.428162	1.152939
N94	N	1.576539	-0.317077	1.110398
H95	H	1.609965	-0.279818	1.048083
H96	H	1.536543	-0.263786	1.154759
H97	H	0.940279	-0.348068	0.446920
N98	N	1.577989	-0.317115	0.909889
H99	H	1.633050	-0.351229	0.862998
H100	H	1.538141	-0.261503	0.868407
N101	N	0.933605	-0.372559	0.653735
H102	H	0.960484	-0.355237	0.726938
H103	H	0.961163	-0.318302	0.601809
N104	N	1.133587	-0.456133	0.318871
H105	H	1.107194	-0.528517	0.296840
H106	H	1.106824	-0.400907	0.267550
N107	N	1.132748	-0.558727	0.705693
H108	H	1.179585	-0.614111	0.671805
H109	H	1.174276	-0.518641	0.761006
H110	H	1.124822	-0.400735	0.646789
H111	H	1.707597	-0.488439	0.917719
