data_functionalizedCrystal
_audit_creation_method	'MofGen! by Chris Wilmer'
_symmetry_space_group_name_H-M	'P1'
_symmetry_Int_Tables_number	1
_symmetry_cell_setting	triclinic
loop_
_symmetry_equiv_pos_as_xyz
  x,y,z
_cell_length_a	18.215407
_cell_length_b	29.839131
_cell_length_c	18.215399
_cell_angle_alpha	90.038527
_cell_angle_beta	90.019833
_cell_angle_gamma	90.035676
loop_
_atom_site_label
_atom_site_type_symbol
_atom_site_fract_x
_atom_site_fract_y
_atom_site_fract_z
Zn1	Zn	1.125019	-0.178853	0.416062
Zn2	Zn	1.458352	0.154481	0.749395
Zn3	Zn	1.791686	0.487814	1.082728
Zn4	Zn	1.124905	-0.253982	0.292973
Zn5	Zn	1.458239	0.079351	0.626306
Zn6	Zn	1.791572	0.412685	0.959639
Zn7	Zn	1.001952	-0.178867	0.293009
Zn8	Zn	1.335285	0.154466	0.626342
Zn9	Zn	1.668618	0.487799	0.959676
Zn10	Zn	1.001895	-0.253957	0.415998
Zn11	Zn	1.335229	0.079376	0.749331
Zn12	Zn	1.668562	0.412710	1.082664
O13	O	1.063443	-0.216415	0.354510
O14	O	1.396776	0.116919	0.687844
O15	O	1.730109	0.450252	1.021177
O16	O	1.227988	-0.188823	0.399745
O17	O	1.561322	0.144510	0.733079
O18	O	1.894655	0.477844	1.066412
O19	O	1.108571	-0.244034	0.189993
O20	O	1.441904	0.089299	0.523327
O21	O	1.775238	0.422632	0.856660
O22	O	1.018348	-0.115998	0.309374
O23	O	1.351681	0.217335	0.642708
O24	O	1.685015	0.550668	0.976041
O25	O	1.227905	-0.244020	0.309312
O26	O	1.561238	0.089313	0.642646
O27	O	1.894571	0.422647	0.975979
O28	O	1.108765	-0.115987	0.399781
O29	O	1.442098	0.217346	0.733114
O30	O	1.775432	0.550679	1.066447
O31	O	1.018238	-0.188848	0.190020
O32	O	1.351571	0.144485	0.523353
O33	O	1.684904	0.477819	0.856687
O34	O	0.898960	-0.188824	0.309312
O35	O	1.232293	0.144510	0.642646
O36	O	1.565627	0.477843	0.975979
O37	O	1.018252	-0.243978	0.518990
O38	O	1.351585	0.089356	0.852324
O39	O	1.684919	0.422689	1.185657
O40	O	0.898918	-0.243992	0.399671
O41	O	1.232252	0.089342	0.733005
O42	O	1.565585	0.422675	1.066338
O43	O	1.108710	-0.188799	0.519038
O44	O	1.442044	0.144535	0.852371
O45	O	1.775377	0.477868	1.185704
O46	O	1.108516	-0.316846	0.309250
O47	O	1.441850	0.016488	0.642584
O48	O	1.775183	0.349821	0.975917
O49	O	1.018142	-0.316827	0.399636
O50	O	1.351475	0.016506	0.732969
O51	O	1.684808	0.349839	1.066303
C52	C	0.872237	-0.216407	0.354489
C53	C	1.205570	0.116926	0.687823
C54	C	1.538903	0.450260	1.021156
C55	C	0.790438	-0.216414	0.354498
C56	C	1.123771	0.116919	0.687831
C57	C	1.457104	0.450252	1.021164
C58	C	1.063331	-0.333137	0.354448
C59	C	1.396664	0.000196	0.687782
C60	C	1.729997	0.333529	1.021115
C61	C	1.063350	-0.383072	0.354446
C62	C	1.396683	-0.049738	0.687780
C63	C	1.730017	0.283595	1.021113
C64	C	0.602241	-0.245186	0.401489
C65	C	0.935575	0.088148	0.734822
C66	C	1.268908	0.421481	1.068155
C67	C	0.525383	-0.245187	0.401498
C68	C	0.858716	0.088146	0.734831
C69	C	1.192049	0.421480	1.068164
C70	C	0.525396	-0.187652	0.307548
C71	C	0.858730	0.145682	0.640881
C72	C	1.192063	0.479015	0.974215
C73	C	0.602254	-0.187648	0.307543
C74	C	0.935587	0.145685	0.640877
C75	C	1.268920	0.479018	0.974210
C76	C	0.640674	-0.216418	0.354512
C77	C	0.974007	0.116915	0.687846
C78	C	1.307341	0.450249	1.021179
C79	C	0.486958	-0.216423	0.354526
C80	C	0.820291	0.116911	0.687860
C81	C	1.153625	0.450244	1.021193
C82	C	0.403624	-0.216424	0.354536
C83	C	0.736958	0.116909	0.687869
C84	C	1.070291	0.450243	1.021203
C85	C	0.724013	-0.216416	0.354504
C86	C	1.057346	0.116917	0.687837
C87	C	1.390680	0.450251	1.021171
C88	C	1.110513	-0.692675	0.401652
C89	C	1.443846	-0.359341	0.734985
C90	C	1.777179	-0.026008	1.068319
C91	C	1.110593	-0.880348	0.401696
C92	C	1.443926	-0.547014	0.735029
C93	C	1.777259	-0.213681	1.068363
O94	O	1.150582	-0.904578	0.441786
O95	O	1.483915	-0.571245	0.775119
O96	O	1.817249	-0.237911	1.108453
N97	N	1.063568	-0.903857	0.354592
N98	N	1.396901	-0.570523	0.687925
N99	N	1.730234	-0.237190	1.021259
C100	C	1.016516	-0.880445	0.307477
C101	C	1.349850	-0.547111	0.640810
C102	C	1.683183	-0.213778	0.974143
O103	O	0.976515	-0.904747	0.267418
O104	O	1.309849	-0.571414	0.600752
O105	O	1.643182	-0.238080	0.934085
C106	C	1.016433	-0.692773	0.307437
C107	C	1.349767	-0.359439	0.640770
C108	C	1.683100	-0.026106	0.974104
C109	C	1.063466	-0.669266	0.354539
C110	C	1.396800	-0.335932	0.687872
C111	C	1.730133	-0.002599	1.021206
C112	C	1.157541	-0.669168	0.448751
C113	C	1.490875	-0.335834	0.782084
C114	C	1.824208	-0.002501	1.115417
C115	C	1.157524	-0.622252	0.448736
C116	C	1.490857	-0.288919	0.782070
C117	C	1.824191	0.044414	1.115403
C118	C	1.110477	-0.598844	0.401623
C119	C	1.443811	-0.265510	0.734957
C120	C	1.777144	0.067823	1.068290
C121	C	1.063449	-0.622350	0.354524
C122	C	1.396782	-0.289017	0.687858
C123	C	1.730115	0.044316	1.021191
C124	C	0.969378	-0.669361	0.260326
C125	C	1.302712	-0.336028	0.593659
C126	C	1.636045	-0.002695	0.926993
C127	C	0.969361	-0.622440	0.260321
C128	C	1.302694	-0.289107	0.593655
C129	C	1.636027	0.044226	0.926988
C130	C	1.016394	-0.598934	0.307423
C131	C	1.349727	-0.265600	0.640757
C132	C	1.683060	0.067733	0.974090
C133	C	1.016385	-0.552026	0.307397
C134	C	1.349718	-0.218693	0.640730
C135	C	1.683051	0.114640	0.974064
N136	N	1.063410	-0.528517	0.354501
N137	N	1.396743	-0.195184	0.687835
N138	N	1.730076	0.138150	1.021168
C139	C	1.110456	-0.551926	0.401614
C140	C	1.443789	-0.218592	0.734948
C141	C	1.777123	0.114741	1.068281
C142	C	1.016564	-0.978975	0.307500
C143	C	1.349897	-0.645642	0.640833
C144	C	1.683231	-0.312309	0.974167
C145	C	1.016586	-1.025893	0.307509
C146	C	1.349919	-0.692560	0.640842
C147	C	1.683252	-0.359226	0.974176
C148	C	1.110661	-1.025793	0.401730
C149	C	1.443995	-0.692459	0.735063
C150	C	1.777328	-0.359126	1.068396
C151	C	1.110643	-0.978874	0.401716
C152	C	1.443976	-0.645541	0.735050
C153	C	1.777310	-0.312207	1.068383
C154	C	1.063589	-0.955466	0.354604
C155	C	1.396922	-0.622133	0.687938
C156	C	1.730256	-0.288799	1.021271
C157	C	1.110416	-0.453400	0.401580
C158	C	1.443749	-0.120067	0.734913
C159	C	1.777083	0.213267	1.068247
C160	C	1.110396	-0.406480	0.401559
C161	C	1.443730	-0.073147	0.734893
C162	C	1.777063	0.260186	1.068226
C163	C	1.016318	-0.406585	0.307342
C164	C	1.349652	-0.073252	0.640675
C165	C	1.682985	0.260082	0.974009
C166	C	1.016340	-0.453500	0.307360
C167	C	1.349674	-0.120167	0.640693
C168	C	1.683007	0.213166	0.974026
C169	C	1.063392	-0.476907	0.354485
C170	C	1.396725	-0.143573	0.687818
C171	C	1.730058	0.189760	1.021151
O172	O	0.976410	-0.527767	0.267334
O173	O	1.309744	-0.194434	0.600667
O174	O	1.643077	0.138900	0.934001
O175	O	1.150439	-0.527615	0.441678
O176	O	1.483773	-0.194282	0.775012
O177	O	1.817106	0.139051	1.108345
C178	C	1.110530	-0.739590	0.401666
C179	C	1.443864	-0.406257	0.735000
C180	C	1.777197	-0.072923	1.068333
C181	C	1.063502	-0.763097	0.354568
C182	C	1.396835	-0.429763	0.687901
C183	C	1.730168	-0.096430	1.021234
C184	C	1.016455	-0.739688	0.307454
C185	C	1.349789	-0.406355	0.640788
C186	C	1.683122	-0.073021	0.974121
C187	C	1.063523	-0.810015	0.354576
C188	C	1.396856	-0.476681	0.687910
C189	C	1.730190	-0.143348	1.021243
C190	C	1.110569	-0.833423	0.401690
C191	C	1.443903	-0.500090	0.735023
C192	C	1.777236	-0.166757	1.068356
C193	C	1.157594	-0.809914	0.448794
C194	C	1.490928	-0.476581	0.782127
C195	C	1.824261	-0.143247	1.115460
C196	C	1.157577	-0.762999	0.448779
C197	C	1.490910	-0.429665	0.782113
C198	C	1.824243	-0.096332	1.115446
C199	C	0.969430	-0.763197	0.260350
C200	C	1.302764	-0.429864	0.593684
C201	C	1.636097	-0.096530	0.927017
C202	C	0.969452	-0.810113	0.260368
C203	C	1.302786	-0.476779	0.593701
C204	C	1.636119	-0.143446	0.927035
C205	C	1.016499	-0.833521	0.307481
C206	C	1.349832	-0.500188	0.640814
C207	C	1.683165	-0.166855	0.974148
C208	C	1.255396	-0.216423	0.354532
C209	C	1.588729	0.116911	0.687865
C210	C	1.922062	0.450244	1.021199
C211	C	1.337195	-0.216426	0.354541
C212	C	1.670528	0.116907	0.687874
C213	C	2.003861	0.450241	1.021208
C214	C	1.063488	-0.216384	0.546463
C215	C	1.396821	0.116950	0.879797
C216	C	1.730154	0.450283	1.213130
C217	C	1.063507	-0.216370	0.628262
C218	C	1.396840	0.116963	0.961596
C219	C	1.730173	0.450296	1.294929
C220	C	1.063576	-0.099236	0.354589
C221	C	1.396909	0.234097	0.687922
C222	C	1.730242	0.567430	1.021255
C223	C	1.063632	-0.049302	0.354622
C224	C	1.396965	0.284032	0.687955
C225	C	1.730299	0.617365	1.021289
C226	C	1.063440	-0.216413	0.163304
C227	C	1.396774	0.116920	0.496637
C228	C	1.730107	0.450254	0.829971
C229	C	1.063564	-0.216300	0.081506
C230	C	1.396897	0.117034	0.414839
C231	C	1.730231	0.450367	0.748172
C232	C	1.110625	-0.187612	0.816482
C233	C	1.443959	0.145721	1.149815
C234	C	1.777292	0.479055	1.483149
C235	C	1.110634	-0.187599	0.893341
C236	C	1.443968	0.145734	1.226674
C237	C	1.777301	0.479068	1.560007
C238	C	1.016440	-0.245059	0.893281
C239	C	1.349773	0.088274	1.226614
C240	C	1.683107	0.421607	1.559947
C241	C	1.016428	-0.245070	0.816423
C242	C	1.349762	0.088263	1.149756
C243	C	1.683095	0.421597	1.483090
C244	C	1.063525	-0.216347	0.778026
C245	C	1.396858	0.116986	1.111359
C246	C	1.730192	0.450320	1.444693
C247	C	1.063546	-0.216323	0.931742
C248	C	1.396879	0.117010	1.265075
C249	C	1.730212	0.450343	1.598409
C250	C	1.063555	-0.216309	1.015076
C251	C	1.396888	0.117024	1.348409
C252	C	1.730222	0.450357	1.681742
C253	C	1.063515	-0.216360	0.694687
C254	C	1.396848	0.116973	1.028020
C255	C	1.730182	0.450307	1.361354
H256	H	0.494094	-0.268612	0.439752
H257	H	0.827427	0.064721	0.773085
H258	H	1.160761	0.398055	1.106418
O259	O	1.161414	-0.156631	0.775064
O260	O	1.494747	0.176703	1.108397
O261	O	1.828081	0.510036	1.441731
H262	H	1.194162	-0.136644	0.814721
H263	H	1.527495	0.196689	1.148054
H264	H	1.860829	0.530022	1.481387
H265	H	0.978246	-0.959920	0.269134
H266	H	1.311580	-0.626586	0.602467
H267	H	1.644913	-0.293253	0.935801
O268	O	0.483958	-0.156637	0.256865
O269	O	0.817291	0.176696	0.590199
O270	O	1.150625	0.510029	0.923532
H271	H	0.424057	-0.161479	0.264747
H272	H	0.757390	0.171854	0.598081
H273	H	1.090724	0.505187	0.931414
H274	H	0.978068	-0.268469	0.785111
H275	H	1.311401	0.064864	1.118445
H276	H	1.644735	0.398198	1.451778
H277	H	1.148987	-0.164199	0.924648
H278	H	1.482320	0.169134	1.257982
H279	H	1.815654	0.502467	1.591315
O280	O	0.643715	-0.156626	0.256863
O281	O	0.977048	0.176707	0.590196
O282	O	1.310381	0.510041	0.923530
H283	H	0.604088	-0.136628	0.224191
H284	H	0.937421	0.196705	0.557525
H285	H	1.270755	0.530038	0.890858
O286	O	0.643688	-0.276205	0.452157
O287	O	0.977022	0.057129	0.785490
O288	O	1.310355	0.390462	1.118824
H289	H	0.628902	-0.311457	0.439439
H290	H	0.962235	0.021876	0.772772
H291	H	1.295568	0.355210	1.106106
O292	O	1.208312	-0.737653	0.499583
O293	O	1.541645	-0.404319	0.832916
O294	O	1.874979	-0.070986	1.166250
H295	H	1.175355	-0.716272	0.536994
H296	H	1.508688	-0.382939	0.870327
H297	H	1.842021	-0.049605	1.203661
O298	O	0.965645	-0.276039	0.934693
O299	O	1.298978	0.057294	1.268027
O300	O	1.632312	0.390627	1.601360
H301	H	0.973569	-0.271208	0.994598
H302	H	1.306902	0.062126	1.327932
H303	H	1.640236	0.395459	1.661265
H304	H	0.931119	-0.744141	0.221986
H305	H	1.264452	-0.410808	0.555319
H306	H	1.597785	-0.077475	0.888653
O307	O	1.208263	-0.596901	0.499528
O308	O	1.541597	-0.263567	0.832861
O309	O	1.874930	0.069766	1.166195
H310	H	1.240977	-0.621067	0.532285
H311	H	1.574310	-0.287734	0.865619
H312	H	1.907644	0.045600	1.198952
H313	H	1.148941	-0.959738	0.440071
H314	H	1.482274	-0.626404	0.773404
H315	H	1.815608	-0.293071	1.106738
O316	O	1.161137	-0.381129	0.452357
O317	O	1.494471	-0.047796	0.785691
O318	O	1.827804	0.285538	1.119024
H319	H	1.148489	-0.390107	0.510109
H320	H	1.481822	-0.056774	0.843443
H321	H	1.815155	0.276560	1.176776
O322	O	1.161167	-0.478643	0.452401
O323	O	1.494500	-0.145309	0.785734
O324	O	1.827834	0.188024	1.119068
H325	H	1.193867	-0.454409	0.485140
H326	H	1.527200	-0.121075	0.818473
H327	H	1.860534	0.212258	1.151807
H328	H	1.195852	-0.688222	0.487120
H329	H	1.529186	-0.354889	0.820453
H330	H	1.862519	-0.021555	1.153787
O331	O	1.161398	-1.051044	0.452555
O332	O	1.494732	-0.717711	0.785888
O333	O	1.828065	-0.384377	1.119221
H334	H	1.153501	-1.087617	0.444649
H335	H	1.486834	-0.754284	0.777982
H336	H	1.820168	-0.420951	1.111315
O337	O	0.965862	-1.051246	0.256702
O338	O	1.299196	-0.717912	0.590036
O339	O	1.632529	-0.384579	0.923369
H340	H	0.933142	-1.027081	0.223948
H341	H	1.266475	-0.693748	0.557282
H342	H	1.599809	-0.360414	0.890615
O343	O	0.918644	-0.694709	0.209528
O344	O	1.251978	-0.361375	0.542861
O345	O	1.585311	-0.028042	0.876195
H346	H	0.885924	-0.670542	0.176779
H347	H	1.219257	-0.337208	0.510112
H348	H	1.552591	-0.003875	0.843446
O349	O	0.918615	-0.597192	0.209500
O350	O	1.251949	-0.263859	0.542833
O351	O	1.585282	0.069474	0.876167
H352	H	0.885923	-0.621423	0.176747
H353	H	1.219257	-0.288090	0.510081
H354	H	1.552590	0.045243	0.843414
H355	H	0.978048	-0.472641	0.269000
H356	H	1.311381	-0.139307	0.602333
H357	H	1.644715	0.194026	0.935666
O358	O	0.965574	-0.381333	0.256530
O359	O	1.298908	-0.048000	0.589863
O360	O	1.632241	0.285333	0.923196
H361	H	0.973462	-0.344760	0.264444
H362	H	1.306795	-0.011427	0.597777
H363	H	1.640128	0.321907	0.931111
H364	H	1.195904	-0.828982	0.487152
H365	H	1.529237	-0.495648	0.820486
H366	H	1.862570	-0.162315	1.153819
O367	O	0.918724	-0.835461	0.209554
O368	O	1.252057	-0.502128	0.542887
O369	O	1.585390	-0.168795	0.876221
H370	H	0.926638	-0.872020	0.217468
H371	H	1.259971	-0.538687	0.550802
H372	H	1.593304	-0.205353	0.884135
