data_functionalizedCrystal
_audit_creation_method	'MofGen! by Chris Wilmer'
_symmetry_space_group_name_H-M	'P1'
_symmetry_Int_Tables_number	1
_symmetry_cell_setting	triclinic
loop_
_symmetry_equiv_pos_as_xyz
  x,y,z
_cell_length_a	19.288867
_cell_length_b	15.944493
_cell_length_c	18.366186
_cell_angle_alpha	89.999635
_cell_angle_beta	89.992441
_cell_angle_gamma	83.306056
loop_
_atom_site_label
_atom_site_type_symbol
_atom_site_fract_x
_atom_site_fract_y
_atom_site_fract_z
O1	O	0.921610	0.104794	-0.060515
O2	O	1.171610	0.354794	0.189485
O3	O	1.421610	0.604794	0.439485
O4	O	1.671610	0.854794	0.689485
O5	O	0.719384	0.118928	-0.060521
O6	O	0.969384	0.368928	0.189479
O7	O	1.219384	0.618928	0.439479
O8	O	1.469384	0.868928	0.689479
O9	O	0.826040	-0.010438	-0.060524
O10	O	1.076040	0.239562	0.189476
O11	O	1.326040	0.489562	0.439476
O12	O	1.576040	0.739562	0.689476
O13	O	0.814954	0.234161	-0.060512
O14	O	1.064954	0.484161	0.189488
O15	O	1.314954	0.734161	0.439488
O16	O	1.564954	0.984161	0.689488
O17	O	0.826022	-0.010444	0.060576
O18	O	1.076022	0.239556	0.310576
O19	O	1.326022	0.489556	0.560576
O20	O	1.576022	0.739556	0.810576
O21	O	0.719366	0.118922	0.060579
O22	O	0.969366	0.368922	0.310579
O23	O	1.219366	0.618922	0.560579
O24	O	1.469366	0.868922	0.810579
O25	O	0.921592	0.104788	0.060585
O26	O	1.171592	0.354788	0.310585
O27	O	1.421592	0.604788	0.560585
O28	O	1.671592	0.854788	0.810585
Zn29	Zn	0.820476	0.111854	0.079809
Zn30	Zn	1.070476	0.361854	0.329809
Zn31	Zn	1.320476	0.611854	0.579809
Zn32	Zn	1.570476	0.861854	0.829809
Zn33	Zn	0.820500	0.111862	-0.079745
Zn34	Zn	1.070500	0.361862	0.170255
Zn35	Zn	1.320500	0.611862	0.420255
Zn36	Zn	1.570500	0.861862	0.670255
O37	O	0.814935	0.234154	0.060588
O38	O	1.064935	0.484154	0.310588
O39	O	1.314935	0.734154	0.560588
O40	O	1.564935	0.984154	0.810588
C41	C	0.693497	0.118470	0.000028
C42	C	0.943497	0.368470	0.250028
C43	C	1.193497	0.618470	0.500028
C44	C	1.443497	0.868470	0.750028
C45	C	0.616391	0.117104	0.000025
C46	C	0.866391	0.367104	0.250025
C47	C	1.116391	0.617104	0.500025
C48	C	1.366391	0.867104	0.750025
C49	C	0.060811	0.107268	-0.065978
C50	C	0.310811	0.357268	0.184022
C51	C	0.560811	0.607268	0.434022
C52	C	0.810811	0.857268	0.684022
C53	C	0.133262	0.108546	-0.065981
C54	C	0.383262	0.358546	0.184019
C55	C	0.633262	0.608546	0.434019
C56	C	0.883262	0.858546	0.684019
C57	C	0.169482	0.109186	0.000031
C58	C	0.419482	0.359186	0.250031
C59	C	0.669482	0.609186	0.500031
C60	C	0.919482	0.859186	0.750031
C61	C	0.133248	0.108526	0.066049
C62	C	0.383248	0.358526	0.316049
C63	C	0.633248	0.608526	0.566049
C64	C	0.883248	0.858526	0.816049
C65	C	0.060799	0.107239	0.066050
C66	C	0.310799	0.357239	0.316050
C67	C	0.560799	0.607239	0.566050
C68	C	0.810799	0.857239	0.816050
C69	C	0.278928	0.160420	0.050606
C70	C	0.528928	0.410420	0.300606
C71	C	0.778928	0.660420	0.550606
C72	C	1.028928	0.910420	0.800606
C73	C	0.351374	0.161712	0.050603
C74	C	0.601374	0.411712	0.300603
C75	C	0.851374	0.661712	0.550603
C76	C	1.101374	0.911712	0.800603
C77	C	0.392937	0.113152	0.000031
C78	C	0.642937	0.363152	0.250031
C79	C	0.892937	0.613152	0.500031
C80	C	1.142937	0.863152	0.750031
C81	C	0.362044	0.063310	-0.050549
C82	C	0.612044	0.313310	0.199451
C83	C	0.862044	0.563310	0.449451
C84	C	1.112044	0.813310	0.699451
C85	C	0.289595	0.062023	-0.050549
C86	C	0.539595	0.312023	0.199451
C87	C	0.789595	0.562023	0.449451
C88	C	1.039595	0.812023	0.699451
C89	C	0.248040	0.110581	0.000037
C90	C	0.498040	0.360581	0.250037
C91	C	0.748040	0.610581	0.500037
C92	C	0.998040	0.860581	0.750037
C93	C	0.507723	0.115192	-0.065986
C94	C	0.757723	0.365192	0.184014
C95	C	1.007723	0.615192	0.434014
C96	C	1.257723	0.865192	0.684014
C97	C	0.580175	0.116466	-0.065986
C98	C	0.830175	0.366466	0.184014
C99	C	1.080175	0.616466	0.434014
C100	C	1.330175	0.866466	0.684014
C101	C	0.580159	0.116453	0.066045
C102	C	0.830159	0.366453	0.316045
C103	C	1.080159	0.616453	0.566045
C104	C	1.330159	0.866453	0.816045
C105	C	0.507709	0.115172	0.066043
C106	C	0.757709	0.365172	0.316043
C107	C	1.007709	0.615172	0.566043
C108	C	1.257709	0.865172	0.816043
C109	C	0.471494	0.114545	0.000025
C110	C	0.721494	0.364545	0.250025
C111	C	0.971494	0.614545	0.500025
C112	C	1.221494	0.864545	0.750025
C113	C	0.825578	-0.041734	0.000023
C114	C	1.075578	0.208266	0.250023
C115	C	1.325578	0.458266	0.500023
C116	C	1.575578	0.708266	0.750023
C117	C	0.824220	-0.134978	0.000014
C118	C	1.074220	0.115022	0.250014
C119	C	1.324220	0.365022	0.500014
C120	C	1.574220	0.615022	0.750014
C121	C	0.887000	-0.370979	0.000029
C122	C	1.137000	-0.120979	0.250029
C123	C	1.387000	0.129021	0.500029
C124	C	1.637000	0.379021	0.750029
C125	C	0.853154	-0.421414	-0.059680
C126	C	1.103154	-0.171414	0.190320
C127	C	1.353154	0.078586	0.440320
C128	C	1.603154	0.328586	0.690320
C129	C	0.821702	-0.305689	0.000022
C130	C	1.071702	-0.055689	0.250022
C131	C	1.321702	0.194311	0.500022
C132	C	1.571702	0.444311	0.750022
C133	C	0.853121	-0.421396	0.059715
C134	C	1.103121	-0.171396	0.309715
C135	C	1.353121	0.078604	0.559715
C136	C	1.603121	0.328604	0.809715
C137	C	0.819276	-0.470589	0.000034
C138	C	1.069276	-0.220589	0.250034
C139	C	1.319276	0.029411	0.500034
C140	C	1.569276	0.279411	0.750034
C141	C	0.787874	-0.354896	-0.059736
C142	C	1.037874	-0.104896	0.190264
C143	C	1.287874	0.145104	0.440264
C144	C	1.537874	0.395104	0.690264
C145	C	0.787850	-0.354875	0.059712
C146	C	1.037850	-0.104875	0.309712
C147	C	1.287850	0.145125	0.559712
C148	C	1.537850	0.395125	0.809712
C149	C	0.753956	-0.405276	-0.000011
C150	C	1.003956	-0.155276	0.249989
C151	C	1.253956	0.094724	0.499989
C152	C	1.503956	0.344724	0.749989
C153	C	0.823102	-0.210695	0.000015
C154	C	1.073102	0.039305	0.250015
C155	C	1.323102	0.289305	0.500015
C156	C	1.573102	0.539305	0.750015
C157	C	0.817871	-0.565581	0.000036
C158	C	1.067871	-0.315581	0.250036
C159	C	1.317871	-0.065581	0.500036
C160	C	1.567871	0.184419	0.750036
C161	C	0.947478	0.105246	0.000034
C162	C	1.197478	0.355246	0.250034
C163	C	1.447478	0.605246	0.500034
C164	C	1.697478	0.855246	0.750034
C165	C	1.024585	0.106612	0.000032
C166	C	1.274585	0.356612	0.250032
C167	C	1.524585	0.606612	0.500032
C168	C	1.774585	0.856612	0.750032
C169	C	0.815398	0.265451	0.000039
C170	C	1.065398	0.515451	0.250039
C171	C	1.315398	0.765451	0.500039
C172	C	1.565398	1.015451	0.750039
C173	C	0.816756	0.358694	0.000044
C174	C	1.066756	0.608694	0.250044
C175	C	1.316756	0.858694	0.500044
C176	C	1.566756	1.108694	0.750044
N177	N	0.820465	0.111848	0.188700
N178	N	1.070465	0.361848	0.438700
N179	N	1.320465	0.611848	0.688700
N180	N	1.570465	0.861848	0.938700
N181	N	0.820517	0.111862	-0.188636
N182	N	1.070517	0.361862	0.061364
N183	N	1.320517	0.611862	0.311364
N184	N	1.570517	0.861862	0.561364
C185	C	0.867708	0.054592	0.226799
C186	C	1.117708	0.304592	0.476799
C187	C	1.367708	0.554592	0.726799
C188	C	1.617708	0.804592	0.976799
C189	C	0.867712	0.054589	0.303027
C190	C	1.117712	0.304589	0.553027
C191	C	1.367712	0.554589	0.803027
C192	C	1.617712	0.804589	1.053027
C193	C	0.820480	0.111855	0.341153
C194	C	1.070480	0.361855	0.591153
C195	C	1.320480	0.611855	0.841153
C196	C	1.570480	0.861855	1.091153
C197	C	0.773228	0.169114	0.303044
C198	C	1.023228	0.419114	0.553044
C199	C	1.273228	0.669114	0.803044
C200	C	1.523228	0.919114	1.053044
C201	C	0.773221	0.169111	0.226818
C202	C	1.023221	0.419111	0.476818
C203	C	1.273221	0.669111	0.726818
C204	C	1.523221	0.919111	0.976818
C205	C	0.811370	0.188390	0.461916
C206	C	1.061370	0.438390	0.711916
C207	C	1.311370	0.688390	0.961916
C208	C	1.561370	0.938390	1.211916
C209	C	0.811383	0.188395	0.538141
C210	C	1.061383	0.438395	0.788141
C211	C	1.311383	0.688395	1.038141
C212	C	1.561383	0.938395	1.288141
C213	C	0.820500	0.111865	0.576260
C214	C	1.070500	0.361865	0.826260
C215	C	1.320500	0.611865	1.076260
C216	C	1.570500	0.861865	1.326260
C217	C	0.829619	0.035328	0.538145
C218	C	1.079619	0.285328	0.788145
C219	C	1.329619	0.535328	1.038145
C220	C	1.579619	0.785328	1.288145
C221	C	0.829611	0.035324	0.461918
C222	C	1.079611	0.285324	0.711918
C223	C	1.329611	0.535324	0.961918
C224	C	1.579611	0.785324	1.211918
C225	C	0.820483	0.111865	0.423807
C226	C	1.070483	0.361865	0.673807
C227	C	1.320483	0.611865	0.923807
C228	C	1.570483	0.861865	1.173807
C229	C	0.867750	0.054601	0.697014
C230	C	1.117750	0.304601	0.947014
C231	C	1.367750	0.554601	1.197014
C232	C	1.617750	0.804601	1.447014
C233	C	0.867750	0.054596	0.773243
C234	C	1.117750	0.304596	1.023243
C235	C	1.367750	0.554596	1.273243
C236	C	1.617750	0.804596	1.523243
C237	C	0.773269	0.169129	0.773260
C238	C	1.023269	0.419129	1.023260
C239	C	1.273269	0.669129	1.273260
C240	C	1.523269	0.919129	1.523260
C241	C	0.773267	0.169127	0.697032
C242	C	1.023267	0.419127	0.947032
C243	C	1.273267	0.669127	1.197032
C244	C	1.523267	0.919127	1.447032
C245	C	0.820511	0.111864	0.658914
C246	C	1.070511	0.361864	0.908914
C247	C	1.320511	0.611864	1.158914
C248	C	1.570511	0.861864	1.408914
H249	H	0.478236	0.114680	-0.119742
H250	H	0.728236	0.364680	0.130258
H251	H	0.978236	0.614680	0.380258
H252	H	1.228236	0.864680	0.630258
H253	H	0.880737	-0.450463	-0.110158
H254	H	1.130737	-0.200463	0.139842
H255	H	1.380737	0.049537	0.389842
H256	H	1.630737	0.299537	0.639842
Cl257	Cl	0.745337	-0.310239	-0.137758
Cl258	Cl	0.995337	-0.060239	0.112242
Cl259	Cl	1.245337	0.189761	0.362242
Cl260	Cl	1.495337	0.439761	0.612242
H261	H	0.906218	0.007968	0.804264
H262	H	1.156218	0.257968	1.054264
H263	H	1.406218	0.507968	1.304264
H264	H	1.656218	0.757968	1.554264
Cl265	Cl	0.667052	-0.428826	-0.000061
Cl266	Cl	0.917052	-0.178826	0.249939
Cl267	Cl	1.167052	0.071174	0.499939
Cl268	Cl	1.417052	0.321174	0.749939
Cl269	Cl	0.625688	0.117244	0.149032
Cl270	Cl	0.875688	0.367244	0.399032
Cl271	Cl	1.125688	0.617244	0.649032
Cl272	Cl	1.375688	0.867244	0.899032
Cl273	Cl	0.895703	-0.466229	0.137647
Cl274	Cl	1.145703	-0.216229	0.387647
Cl275	Cl	1.395703	0.033771	0.637647
Cl276	Cl	1.645703	0.283771	0.887647
Cl277	Cl	0.713887	0.241115	0.821184
Cl278	Cl	0.963887	0.491115	1.071184
Cl279	Cl	1.213887	0.741115	1.321184
Cl280	Cl	1.463887	0.991115	1.571184
H281	H	0.734800	0.215753	0.666009
H282	H	0.984800	0.465753	0.916009
H283	H	1.234800	0.715753	1.166009
H284	H	1.484800	0.965753	1.416009
H285	H	0.837035	-0.026995	0.430888
H286	H	1.087035	0.223005	0.680888
H287	H	1.337035	0.473005	0.930888
H288	H	1.587035	0.723005	1.180888
H289	H	0.760290	-0.325811	0.110193
H290	H	1.010290	-0.075811	0.360193
H291	H	1.260290	0.174189	0.610193
H292	H	1.510290	0.424189	0.860193
H293	H	0.943245	-0.355567	-0.000029
H294	H	1.193245	-0.105567	0.249971
H295	H	1.443245	0.144433	0.499971
H296	H	1.693245	0.394433	0.749971
Cl297	Cl	0.250760	-0.000635	-0.114129
Cl298	Cl	0.500760	0.249365	0.135871
Cl299	Cl	0.750760	0.499365	0.385871
Cl300	Cl	1.000760	0.749365	0.635871
H301	H	0.906175	0.007964	0.195765
H302	H	1.156175	0.257964	0.445765
H303	H	1.406175	0.507964	0.695765
H304	H	1.656175	0.757964	0.945765
H305	H	0.609670	0.116993	-0.119742
H306	H	0.859670	0.366993	0.130258
H307	H	1.109670	0.616993	0.380258
H308	H	1.359670	0.866993	0.630258
Cl309	Cl	0.015256	0.106419	0.149041
Cl310	Cl	0.265256	0.356419	0.399041
Cl311	Cl	0.515256	0.606419	0.649041
Cl312	Cl	0.765256	0.856419	0.899041
Cl313	Cl	0.927109	-0.017395	0.350931
Cl314	Cl	1.177109	0.232605	0.600931
Cl315	Cl	1.427109	0.482605	0.850931
Cl316	Cl	1.677109	0.732605	1.100931
Cl317	Cl	0.841087	-0.060888	0.586056
Cl318	Cl	1.091087	0.189112	0.836056
Cl319	Cl	1.341087	0.439112	1.086056
Cl320	Cl	1.591087	0.689112	1.336056
H321	H	0.734770	0.215740	0.334090
H322	H	0.984770	0.465740	0.584090
H323	H	1.234770	0.715740	0.834090
H324	H	1.484770	0.965740	1.084090
Cl325	Cl	0.927138	-0.017391	0.649093
Cl326	Cl	1.177138	0.232609	0.899093
Cl327	Cl	1.427138	0.482609	1.149093
Cl328	Cl	1.677138	0.732609	1.399093
H329	H	0.803962	0.250716	0.569169
H330	H	1.053962	0.500716	0.819169
H331	H	1.303962	0.750716	1.069169
H332	H	1.553962	1.000716	1.319169
Cl333	Cl	0.799973	0.284611	0.414004
Cl334	Cl	1.049973	0.534611	0.664004
Cl335	Cl	1.299973	0.784611	0.914004
Cl336	Cl	1.549973	1.034611	1.164004
H337	H	0.031330	0.106755	-0.119735
H338	H	0.281330	0.356755	0.130265
H339	H	0.531330	0.606755	0.380265
H340	H	0.781330	0.856755	0.630265
Cl341	Cl	0.414286	0.002262	-0.114133
Cl342	Cl	0.664286	0.252262	0.135867
Cl343	Cl	0.914286	0.502262	0.385867
Cl344	Cl	1.164286	0.752262	0.635867
Cl345	Cl	0.178812	0.109373	-0.148971
Cl346	Cl	0.428812	0.359373	0.101029
Cl347	Cl	0.678812	0.609373	0.351029
Cl348	Cl	0.928812	0.859373	0.601029
Cl349	Cl	0.462164	0.114361	0.149032
Cl350	Cl	0.712164	0.364361	0.399032
Cl351	Cl	0.962164	0.614361	0.649032
Cl352	Cl	1.212164	0.864361	0.899032
H353	H	0.734749	0.215736	0.195797
H354	H	0.984749	0.465736	0.445797
H355	H	1.234749	0.715736	0.695797
H356	H	1.484749	0.965736	0.945797
H357	H	0.245093	0.199959	0.091796
H358	H	0.495093	0.449959	0.341796
H359	H	0.745093	0.699959	0.591796
H360	H	0.995093	0.949959	0.841796
Cl361	Cl	0.390204	0.224376	0.114183
Cl362	Cl	0.640204	0.474376	0.364183
Cl363	Cl	0.890204	0.724376	0.614183
Cl364	Cl	1.140204	0.974376	0.864183
Cl365	Cl	0.178781	0.109326	0.149035
Cl366	Cl	0.428781	0.359326	0.399035
Cl367	Cl	0.678781	0.609326	0.649035
Cl368	Cl	0.928781	0.859326	0.899035
