data_functionalizedCrystal
_audit_creation_method	'MofGen! by Chris Wilmer'
_symmetry_space_group_name_H-M	'P1'
_symmetry_Int_Tables_number	1
_symmetry_cell_setting	triclinic
loop_
_symmetry_equiv_pos_as_xyz
  x,y,z
_cell_length_a	19.121063
_cell_length_b	21.395364
_cell_length_c	21.395356
_cell_angle_alpha	90.024718
_cell_angle_beta	92.411537
_cell_angle_gamma	87.536922
loop_
_atom_site_label
_atom_site_type_symbol
_atom_site_fract_x
_atom_site_fract_y
_atom_site_fract_z
Zn1	Zn	-0.279743	-0.947221	-0.364916
Zn2	Zn	-0.397194	-0.942662	-0.264604
Zn3	Zn	-0.279749	-0.842438	-0.260151
Zn4	Zn	-0.397145	-0.837943	-0.369340
O5	O	-0.338458	-0.892566	-0.314752
O6	O	-0.295341	-1.034294	-0.351621
O7	O	-0.381638	-0.929339	-0.176336
O8	O	-0.181464	-0.860127	-0.270333
O9	O	-0.381632	-1.030944	-0.277922
O10	O	-0.181459	-0.937111	-0.347303
O11	O	-0.295352	-0.855705	-0.173064
O12	O	-0.295305	-0.754164	-0.274623
O13	O	-0.381548	-0.852467	-0.456430
O14	O	-0.381555	-0.750862	-0.354844
O15	O	-0.295293	-0.932753	-0.453180
O16	O	-0.495472	-0.924982	-0.282212
O17	O	-0.495436	-0.848045	-0.359161
C18	C	-0.338425	-0.729780	-0.314730
C19	C	-0.338428	-0.660138	-0.314736
C20	C	-0.293607	-0.160082	-0.353190
C21	C	-0.293604	-0.225517	-0.353191
C22	C	-0.338458	-0.256499	-0.314754
C23	C	-0.383331	-0.222039	-0.276324
C24	C	-0.383337	-0.156605	-0.276329
C25	C	-0.343910	-0.359929	-0.258496
C26	C	-0.343899	-0.425362	-0.258490
C27	C	-0.338441	-0.458320	-0.314740
C28	C	-0.332981	-0.425837	-0.370997
C29	C	-0.332988	-0.360403	-0.371001
C30	C	-0.338456	-0.327451	-0.314745
C31	C	-0.293572	-0.563725	-0.353171
C32	C	-0.293574	-0.629161	-0.353173
C33	C	-0.383296	-0.625682	-0.276301
C34	C	-0.383298	-0.560247	-0.276304
C35	C	-0.338432	-0.529272	-0.314738
C36	C	-0.520938	-0.885548	-0.321664
C37	C	-0.599004	-0.882603	-0.324641
C38	C	-0.635675	-0.921307	-0.286010
C39	C	-0.709026	-0.918541	-0.288814
C40	C	-0.745705	-0.877067	-0.330247
C41	C	-0.709029	-0.838362	-0.368882
C42	C	-0.635679	-0.841131	-0.366081
C43	C	-0.967174	-0.866702	-0.340711
C44	C	-1.040529	-0.863934	-0.343508
C45	C	-1.040521	-0.944115	-0.263441
C46	C	-0.967170	-0.946878	-0.260640
C47	C	-0.930500	-0.908175	-0.299278
C48	C	-0.820681	-0.874238	-0.333113
C49	C	-0.855525	-0.911008	-0.296415
C50	C	-0.155265	-0.899629	-0.307828
C51	C	-0.077199	-0.902638	-0.304877
C52	C	-0.338414	-0.892617	-0.478174
C53	C	-0.338396	-0.892639	-0.547815
C54	C	-0.338482	-0.055988	-0.314769
C55	C	-0.338471	-0.125630	-0.314763
C56	C	-0.293462	-0.854308	-0.578814
C57	C	-0.293449	-0.854307	-0.644249
C58	C	-0.338362	-0.892647	-0.678682
C59	C	-0.383305	-0.930980	-0.647675
C60	C	-0.383322	-0.930976	-0.582241
C61	C	-0.343891	-0.948889	-0.782579
C62	C	-0.343869	-0.948894	-0.848012
C63	C	-0.338315	-0.892659	-0.880501
C64	C	-0.332768	-0.836417	-0.847549
C65	C	-0.332784	-0.836413	-0.782116
C66	C	-0.338350	-0.892655	-0.749634
C67	C	-0.293364	-0.854324	-0.982452
C68	C	-0.293356	-0.854321	-1.047889
C69	C	-0.383209	-0.930999	-1.051313
C70	C	-0.383221	-0.930997	-0.985878
C71	C	-0.338295	-0.892660	-0.951451
C72	C	-0.338451	-0.892553	-0.151965
C73	C	-0.338271	-0.892661	-0.082317
H74	H	-0.257068	-0.253573	-0.384482
H75	H	-0.419872	-0.128554	-0.245036
H76	H	-0.850553	-0.840468	-0.366846
H77	H	-0.328269	-0.790620	-0.755289
O78	O	-0.349187	-0.328015	-0.203791
C79	C	-0.354015	-0.370714	-0.154141
H80	H	-0.330431	-0.418268	-0.168111
H81	H	-0.411391	-0.375468	-0.143221
C82	C	-0.342611	-0.288286	-0.078624
C83	C	-0.313638	-0.346693	-0.095781
H84	H	-0.317708	-0.273468	-0.042624
H85	H	-0.339361	-0.259519	-0.112074
H86	H	-0.390423	-0.292256	-0.069528
H87	H	-0.265830	-0.342720	-0.104883
H88	H	-0.316880	-0.375459	-0.062330
H89	H	-0.348340	-0.451805	-0.212682
O90	O	-0.250130	-0.129923	-0.390565
C91	C	-0.290180	-0.090574	-0.432508
H92	H	-0.343375	-0.078720	-0.412349
H93	H	-0.297963	-0.115522	-0.479219
C94	C	-0.186224	-0.044466	-0.467216
C95	C	-0.251557	-0.029901	-0.442454
H96	H	-0.162399	-0.007041	-0.473354
H97	H	-0.159241	-0.070977	-0.438960
H98	H	-0.192719	-0.065257	-0.506139
H99	H	-0.245061	-0.009118	-0.403528
H100	H	-0.278538	-0.003385	-0.470704
H101	H	-0.348408	-0.994686	-0.756132
O102	O	-1.076189	-0.823577	-0.383672
C103	C	-1.118686	-0.781530	-0.349586
H104	H	-1.096618	-0.778516	-0.299394
H105	H	-1.174263	-0.798804	-0.349565
C106	C	-1.146945	-0.720041	-0.441830
C107	C	-1.119838	-0.716335	-0.380184
H108	H	-1.147660	-0.679826	-0.460705
H109	H	-1.118317	-0.748370	-0.464795
H110	H	-1.193257	-0.734438	-0.441804
H111	H	-1.073524	-0.701945	-0.380212
H112	H	-1.148459	-0.688002	-0.357220
O113	O	-0.744777	-0.956091	-0.251345
C114	C	-0.787329	-0.918908	-0.212457
H115	H	-0.798290	-0.870957	-0.234854
H116	H	-0.759194	-0.913203	-0.164886
C117	C	-0.843548	-1.009667	-0.176476
C118	C	-0.857016	-0.950774	-0.203987
H119	H	-0.886533	-1.029324	-0.171248
H120	H	-0.814879	-1.034718	-0.202674
H121	H	-0.820100	-1.004904	-0.136837
H122	H	-0.880455	-0.955538	-0.243629
H123	H	-0.885691	-0.925724	-0.177796
H124	H	-0.257039	-0.538504	-0.384466
H125	H	-0.256882	-0.823089	-0.550788
O126	O	-1.076034	-0.981737	-0.225851
C127	C	-1.027931	-1.018949	-0.188695
H128	H	-0.975667	-0.995258	-0.184505
H129	H	-1.020073	-1.066817	-0.211386
C130	C	-1.120790	-1.056032	-0.128261
C131	C	-1.056601	-1.026932	-0.123110
H132	H	-1.138475	-1.060960	-0.087806
H133	H	-1.153198	-1.030964	-0.153295
H134	H	-1.114233	-1.095920	-0.147173
H135	H	-1.063160	-0.987043	-0.104206
H136	H	-1.024194	-1.051994	-0.098071
O137	O	-0.426993	-0.968272	-0.552223
C138	C	-0.466650	-1.002099	-0.596642
H139	H	-0.437874	-1.005380	-0.642201
H140	H	-0.519986	-0.977097	-0.605605
C141	C	-0.512137	-1.064360	-0.515558
C142	C	-0.476791	-1.068395	-0.571512
H143	H	-0.518396	-1.105254	-0.500056
H144	H	-0.485422	-1.041569	-0.485631
H145	H	-0.556580	-1.043523	-0.523034
H146	H	-0.432347	-1.089225	-0.564033
H147	H	-0.503500	-1.091191	-0.601437
H148	H	-0.738898	-0.804596	-0.402621
H149	H	-0.328240	-0.790626	-0.874000
O150	O	-0.931640	-0.829126	-0.378326
C151	C	-0.949496	-0.842116	-0.441468
H152	H	-1.002728	-0.864198	-0.444822
H153	H	-0.908168	-0.875869	-0.461032
C154	C	-0.887537	-0.753759	-0.475365
C155	C	-0.952921	-0.780876	-0.479485
H156	H	-0.889648	-0.715985	-0.498817
H157	H	-0.875505	-0.745009	-0.432825
H158	H	-0.853105	-0.781893	-0.491667
H159	H	-0.987351	-0.752746	-0.463176
H160	H	-0.964960	-0.789621	-0.522024
H161	H	-0.328543	-0.333958	-0.416808
O162	O	-0.327550	-0.457811	-0.425650
C163	C	-0.264107	-0.444245	-0.452983
H164	H	-0.225281	-0.427737	-0.415249
H165	H	-0.274299	-0.405880	-0.489607
C166	C	-0.281175	-0.523827	-0.530686
C167	C	-0.233486	-0.503556	-0.484339
H168	H	-0.262287	-0.560412	-0.550031
H169	H	-0.323919	-0.532965	-0.512273
H170	H	-0.289664	-0.491851	-0.561200
H171	H	-0.225005	-0.535529	-0.453823
H172	H	-0.190740	-0.494425	-0.502748
O173	O	-0.426935	-0.252200	-0.239074
C174	C	-0.472354	-0.288318	-0.276400
H175	H	-0.447648	-0.299090	-0.322981
H176	H	-0.524416	-0.261110	-0.285185
C177	C	-0.515358	-0.336740	-0.185174
C178	C	-0.485011	-0.349976	-0.242382
H179	H	-0.523169	-0.374773	-0.164189
H180	H	-0.484761	-0.312406	-0.160026
H181	H	-0.558740	-0.314066	-0.192503
H182	H	-0.441626	-0.372642	-0.235052
H183	H	-0.515601	-0.374316	-0.267528
O184	O	-0.600163	-0.803473	-0.403633
C185	C	-0.648263	-0.766285	-0.440816
H186	H	-0.700569	-0.762148	-0.417147
H187	H	-0.656014	-0.788918	-0.488716
C188	C	-0.555435	-0.705760	-0.477774
C189	C	-0.619677	-0.700674	-0.448699
H190	H	-0.537802	-0.665289	-0.482639
H191	H	-0.523029	-0.730816	-0.452725
H192	H	-0.561903	-0.724624	-0.517687
H193	H	-0.613207	-0.681819	-0.408784
H194	H	-0.652082	-0.675614	-0.473742
H195	H	-0.419875	-0.962196	-0.675714
O196	O	-0.249712	-0.817019	-0.949102
C197	C	-0.210041	-0.783191	-0.990499
H198	H	-0.238797	-0.779918	-1.038228
H199	H	-0.156700	-0.808187	-0.995451
C200	C	-0.164601	-0.720916	-0.905930
C201	C	-0.199923	-0.716891	-0.964551
H202	H	-0.158356	-0.680019	-0.889924
H203	H	-0.191325	-0.743707	-0.878040
H204	H	-0.120153	-0.741748	-0.910065
H205	H	-0.244372	-0.696066	-0.960414
H206	H	-0.173205	-0.694094	-0.992440
H207	H	-0.257042	-0.657211	-0.384470
O208	O	-0.249729	-0.817056	-0.674272
C209	C	-0.210095	-0.783205	-0.629855
H210	H	-0.207682	-0.808956	-0.583128
H211	H	-0.235800	-0.734625	-0.623853
C212	C	-0.138298	-0.745441	-0.709957
C213	C	-0.135330	-0.777071	-0.652567
H214	H	-0.092180	-0.741655	-0.723968
H215	H	-0.165002	-0.768245	-0.739882
H216	H	-0.159722	-0.704961	-0.704948
H217	H	-0.113914	-0.817553	-0.657579
H218	H	-0.108621	-0.754274	-0.622644
O219	O	-0.426886	-0.968296	-0.955859
C220	C	-0.466539	-1.002125	-1.000279
H221	H	-0.437761	-1.005405	-1.045837
H222	H	-0.519876	-0.977127	-1.009243
C223	C	-0.512024	-1.064389	-0.919196
C224	C	-0.476676	-1.068422	-0.975149
H225	H	-0.518280	-1.105283	-0.903694
H226	H	-0.485312	-1.041596	-0.889268
H227	H	-0.556467	-1.043555	-0.926674
H228	H	-0.432230	-1.089249	-0.967669
H229	H	-0.503381	-1.091220	-1.005075
H230	H	-0.419822	-0.650906	-0.245010
H231	H	-0.825659	-0.944778	-0.262683
O232	O	-0.600125	-0.961560	-0.245677
C233	C	-0.618095	-0.947210	-0.183903
H234	H	-0.671372	-0.921114	-0.184618
H235	H	-0.576855	-0.916565	-0.161194
C236	C	-0.556029	-1.040235	-0.145260
C237	C	-0.621467	-1.008188	-0.146137
H238	H	-0.558106	-1.077849	-0.121962
H239	H	-0.543919	-1.049903	-0.186877
H240	H	-0.521669	-1.014691	-0.126337
H241	H	-0.655824	-1.033729	-0.165066
H242	H	-0.633583	-0.998527	-0.104521
H243	H	-0.256767	-0.823103	-1.073127
H244	H	-0.937307	-0.980649	-0.226902
O245	O	-0.426895	-0.526873	-0.238912
C246	C	-0.466497	-0.568246	-0.204997
H247	H	-0.437723	-0.615992	-0.201776
H248	H	-0.519872	-0.573171	-0.229885
C249	C	-0.511867	-0.483650	-0.142635
C250	C	-0.476523	-0.542290	-0.138675
H251	H	-0.518054	-0.467638	-0.101726
H252	H	-0.485189	-0.455775	-0.165486
H253	H	-0.556342	-0.487761	-0.163378
H254	H	-0.432045	-0.538177	-0.117940
H255	H	-0.503194	-0.570164	-0.115820
O256	O	-0.349293	-1.003576	-0.879922
C257	C	-0.354193	-1.053210	-0.837217
H258	H	-0.374555	-1.034155	-0.791337
H259	H	-0.300213	-1.077002	-0.828225
C260	C	-0.379950	-1.124433	-0.921044
C261	C	-0.404964	-1.101030	-0.864695
H262	H	-0.411265	-1.153933	-0.937994
H263	H	-0.376646	-1.090995	-0.949816
H264	H	-0.334966	-1.144255	-0.913543
H265	H	-0.449943	-1.081202	-0.872198
H266	H	-0.408276	-1.134467	-0.835925
H267	H	-0.419778	-0.962218	-1.079347
