data_functionalizedCrystal
_audit_creation_method	'MofGen! by Chris Wilmer'
_symmetry_space_group_name_H-M	'P1'
_symmetry_Int_Tables_number	1
_symmetry_cell_setting	triclinic
loop_
_symmetry_equiv_pos_as_xyz
  x,y,z
_cell_length_a	29.839134
_cell_length_b	29.839131
_cell_length_c	16.625539
_cell_angle_alpha	89.967906
_cell_angle_beta	89.967351
_cell_angle_gamma	90.034165
loop_
_atom_site_label
_atom_site_type_symbol
_atom_site_fract_x
_atom_site_fract_y
_atom_site_fract_z
Zn1	Zn	0.686757	-0.178939	-0.456148
Zn2	Zn	0.686678	-0.254070	-0.321306
Zn3	Zn	0.611628	-0.178946	-0.321300
Zn4	Zn	0.611587	-0.254034	-0.456068
O5	O	0.649163	-0.216497	-0.388705
O6	O	0.749613	-0.188918	-0.438297
O7	O	0.676707	-0.244123	-0.208473
O8	O	0.621645	-0.116078	-0.339219
O9	O	0.749555	-0.244117	-0.339229
O10	O	0.676841	-0.116073	-0.438291
O11	O	0.621568	-0.188929	-0.208468
O12	O	0.548756	-0.188893	-0.339141
O13	O	0.621574	-0.244054	-0.568911
O14	O	0.548726	-0.244060	-0.438154
O15	O	0.676801	-0.188883	-0.568970
O16	O	0.676667	-0.316933	-0.339152
O17	O	0.621498	-0.316906	-0.438160
C18	C	0.532440	-0.216474	-0.388639
C19	C	0.482506	-0.216475	-0.388629
C20	C	0.125922	-0.187729	-0.337255
C21	C	0.313595	-0.187717	-0.337206
O22	O	0.337862	-0.163238	-0.293450
N23	N	0.337060	-0.216482	-0.388670
C24	C	0.313605	-0.245250	-0.440154
O25	O	0.337870	-0.269713	-0.483932
C26	C	0.125933	-0.245260	-0.440206
C27	C	0.102469	-0.216497	-0.388733
C28	C	0.102458	-0.158967	-0.285786
C29	C	0.055543	-0.158973	-0.285796
C30	C	0.032091	-0.187740	-0.337274
C31	C	0.055554	-0.216502	-0.388742
C32	C	0.102478	-0.274026	-0.491694
C33	C	0.055557	-0.274025	-0.491704
C34	C	0.032094	-0.245261	-0.440230
C35	C	-0.014814	-0.245274	-0.440230
N36	N	-0.038279	-0.216509	-0.388766
C37	C	-0.014827	-0.187742	-0.337288
C38	C	0.412135	-0.245244	-0.440122
C39	C	0.459053	-0.245242	-0.440108
C40	C	0.459040	-0.187707	-0.337160
C41	C	0.412121	-0.187712	-0.337171
C42	C	0.388670	-0.216478	-0.388657
C43	C	-0.113353	-0.187755	-0.337311
C44	C	-0.160273	-0.187764	-0.337323
C45	C	-0.160255	-0.245297	-0.440273
C46	C	-0.113340	-0.245289	-0.440259
C47	C	-0.089890	-0.216515	-0.388775
O48	O	-0.039110	-0.269736	-0.483970
O49	O	-0.039100	-0.163275	-0.293529
C50	C	0.172837	-0.187724	-0.337245
C51	C	0.196300	-0.216486	-0.388713
C52	C	0.172848	-0.245253	-0.440192
C53	C	0.243218	-0.216484	-0.388700
C54	C	0.266670	-0.187717	-0.337221
C55	C	0.243205	-0.158952	-0.285757
C56	C	0.196289	-0.158957	-0.285767
C57	C	0.196314	-0.274019	-0.491656
C58	C	0.243229	-0.274011	-0.491642
C59	C	0.266682	-0.245244	-0.440163
C60	C	0.649081	-0.333220	-0.388665
C61	C	0.649088	-0.383154	-0.388675
C62	C	0.677941	-0.692799	-0.337227
C63	C	0.677997	-0.880472	-0.337258
O64	O	0.702464	-0.904738	-0.293484
N65	N	0.649256	-0.903939	-0.388766
C66	C	0.620501	-0.880485	-0.440274
O67	O	0.596060	-0.904752	-0.484091
C68	C	0.620448	-0.692813	-0.440246
C69	C	0.649188	-0.669348	-0.388729
C70	C	0.706679	-0.669334	-0.285715
C71	C	0.706663	-0.622419	-0.285704
C72	C	0.677909	-0.598968	-0.337206
C73	C	0.649172	-0.622433	-0.388718
C74	C	0.591696	-0.669360	-0.491757
C75	C	0.591686	-0.622439	-0.491747
C76	C	0.620426	-0.598974	-0.440230
C77	C	0.620402	-0.552067	-0.440210
N78	N	0.649143	-0.528600	-0.388702
C79	C	0.677897	-0.552050	-0.337200
C80	C	0.620530	-0.979016	-0.440284
C81	C	0.620543	-1.025934	-0.440290
C82	C	0.678039	-1.025917	-0.337275
C83	C	0.678024	-0.978999	-0.337266
C84	C	0.649271	-0.955549	-0.388776
C85	C	0.677861	-0.453524	-0.337182
C86	C	0.677841	-0.406605	-0.337173
C87	C	0.620347	-0.406626	-0.440191
C88	C	0.620365	-0.453541	-0.440196
C89	C	0.649125	-0.476989	-0.388689
O90	O	0.595951	-0.527772	-0.483967
O91	O	0.702342	-0.527776	-0.293402
C92	C	0.677957	-0.739714	-0.337237
C93	C	0.649219	-0.763179	-0.388750
C94	C	0.620466	-0.739729	-0.440252
C95	C	0.649232	-0.810097	-0.388756
C96	C	0.677985	-0.833548	-0.337254
C97	C	0.706726	-0.810081	-0.285746
C98	C	0.706711	-0.763165	-0.285736
C99	C	0.591725	-0.763196	-0.491759
C100	C	0.591743	-0.810111	-0.491765
C101	C	0.620496	-0.833562	-0.440263
C102	C	0.766341	-0.216521	-0.388773
C103	C	0.816275	-0.216531	-0.388802
C104	C	0.649192	-0.216464	-0.599014
C105	C	0.649204	-0.216450	-0.688636
C106	C	0.649256	-0.099319	-0.388763
C107	C	0.649296	-0.049384	-0.388788
C108	C	0.649225	-0.216399	-1.016811
C109	C	0.649218	-0.216415	-0.925503
C110	C	0.649215	-0.216425	-0.852726
C111	C	0.649207	-0.216439	-0.761412
C112	C	0.649159	-0.216498	-0.179215
C113	C	0.649234	-0.216386	-0.089594
H114	H	0.121574	-0.297449	-0.533609
O115	O	0.592484	-0.383819	-0.490305
C116	C	0.618045	-0.356630	-0.542404
H117	H	0.653429	-0.370742	-0.547453
H118	H	0.619594	-0.321082	-0.517463
C119	C	0.552619	-0.338557	-0.619985
C120	C	0.596077	-0.355891	-0.626191
H121	H	0.539067	-0.338099	-0.671668
H122	H	0.535397	-0.356873	-0.584884
H123	H	0.553916	-0.308935	-0.599198
H124	H	0.594779	-0.385515	-0.646969
H125	H	0.613298	-0.337580	-0.661298
H126	H	0.597136	-1.045035	-0.482233
H127	H	0.121548	-0.135539	-0.243866
O128	O	0.173447	-0.131000	-0.235873
C129	C	0.146344	-0.102006	-0.281862
H130	H	0.139329	-0.117885	-0.342923
H131	H	0.164443	-0.068715	-0.290811
C132	C	0.110380	-0.074352	-0.162528
C133	C	0.101762	-0.093857	-0.237522
H134	H	0.082881	-0.069323	-0.135176
H135	H	0.128641	-0.093884	-0.131543
H136	H	0.125464	-0.046611	-0.169996
H137	H	0.086684	-0.121599	-0.230052
H138	H	0.083497	-0.074329	-0.268504
O139	O	0.389280	-0.159750	-0.287283
C140	C	0.362183	-0.130755	-0.333283
H141	H	0.355169	-0.146638	-0.394341
H142	H	0.380288	-0.097468	-0.342238
C143	C	0.326219	-0.103087	-0.213961
C144	C	0.317601	-0.122596	-0.288951
H145	H	0.298719	-0.098052	-0.186614
H146	H	0.344476	-0.122620	-0.182969
H147	H	0.341307	-0.075349	-0.221434
H148	H	0.302518	-0.150335	-0.281476
H149	H	0.299341	-0.103068	-0.319941
O150	O	-0.183134	-0.159870	-0.287334
C151	C	-0.229574	-0.166036	-0.298383
H152	H	-0.235989	-0.200721	-0.324696
H153	H	-0.242865	-0.139413	-0.341391
C154	C	-0.245805	-0.119280	-0.184491
C155	C	-0.253684	-0.161882	-0.216803
H156	H	-0.260678	-0.116715	-0.134170
H157	H	-0.214517	-0.115124	-0.177048
H158	H	-0.256881	-0.097099	-0.220339
H159	H	-0.242603	-0.184062	-0.180960
H160	H	-0.284971	-0.166042	-0.224237
O161	O	0.389308	-0.273214	-0.490022
C162	C	0.362143	-0.302209	-0.444030
H163	H	0.355093	-0.286321	-0.382982
H164	H	0.380207	-0.335492	-0.435052
C165	C	0.326252	-0.329896	-0.563368
C166	C	0.317590	-0.310381	-0.488390
H167	H	0.298770	-0.334939	-0.590731
H168	H	0.344554	-0.310363	-0.594354
H169	H	0.341306	-0.357630	-0.555875
H170	H	0.302542	-0.282645	-0.495884
H171	H	0.299284	-0.329909	-0.457406
H172	H	0.730113	-0.744063	-0.243786
H173	H	-0.094235	-0.268715	-0.482166
O174	O	0.265941	-0.130945	-0.235788
C175	C	0.254518	-0.086181	-0.253569
H176	H	0.220463	-0.085271	-0.284569
H177	H	0.280947	-0.071079	-0.295071
C178	C	0.294167	-0.060032	-0.136977
C179	C	0.252339	-0.058913	-0.175046
H180	H	0.292825	-0.043211	-0.088541
H181	H	0.301865	-0.090190	-0.124999
H182	H	0.316187	-0.047447	-0.171570
H183	H	0.230321	-0.071503	-0.140457
H184	H	0.244638	-0.028757	-0.187016
O185	O	0.734717	-0.832879	-0.235843
C186	C	0.763715	-0.859975	-0.281839
H187	H	0.766448	-0.845805	-0.345345
H188	H	0.749841	-0.895547	-0.284592
C189	C	0.807082	-0.878064	-0.164576
C190	C	0.810442	-0.860658	-0.242574
H191	H	0.835905	-0.878488	-0.140355
H192	H	0.787544	-0.859811	-0.133587
H193	H	0.795518	-0.907706	-0.166881
H194	H	0.821999	-0.831015	-0.240267
H195	H	0.829982	-0.878907	-0.273562
H196	H	0.568291	-0.688457	-0.533704
O197	O	0.734606	-0.599578	-0.235779
C198	C	0.763608	-0.572406	-0.281741
H199	H	0.747741	-0.565365	-0.342809
H200	H	0.796901	-0.590459	-0.290678
C201	C	0.791240	-0.536499	-0.162377
C202	C	0.771749	-0.527848	-0.237380
H203	H	0.796264	-0.509014	-0.135012
H204	H	0.771702	-0.554806	-0.131411
H205	H	0.818982	-0.551544	-0.169835
H206	H	0.744006	-0.512808	-0.229920
H207	H	0.791283	-0.509537	-0.268343
O208	O	0.173486	-0.301988	-0.541549
C209	C	0.146325	-0.330984	-0.495553
H210	H	0.139277	-0.315096	-0.434504
H211	H	0.164391	-0.364266	-0.486576
C212	C	0.110431	-0.358675	-0.614885
C213	C	0.101771	-0.339160	-0.539906
H214	H	0.082948	-0.363720	-0.642244
H215	H	0.128730	-0.339141	-0.645874
H216	H	0.125487	-0.386408	-0.607393
H217	H	0.086720	-0.311425	-0.547399
H218	H	0.083467	-0.358689	-0.508919
H219	H	0.701282	-0.472611	-0.295241
O220	O	0.705803	-0.383881	-0.287103
C221	C	0.731177	-0.414644	-0.241638
H222	H	0.732732	-0.448074	-0.274677
H223	H	0.714746	-0.419674	-0.180368
C224	C	0.777080	-0.355237	-0.189528
C225	C	0.778993	-0.396295	-0.230111
H226	H	0.806574	-0.343917	-0.182414
H227	H	0.759984	-0.334511	-0.220156
H228	H	0.763386	-0.359433	-0.138474
H229	H	0.792682	-0.392096	-0.281167
H230	H	0.796092	-0.417020	-0.199491
O231	O	0.563732	-0.599613	-0.541674
C232	C	0.534710	-0.572526	-0.495710
H233	H	0.550568	-0.565501	-0.434636
H234	H	0.501427	-0.590644	-0.486788
C235	C	0.507067	-0.536580	-0.615069
C236	C	0.526547	-0.527949	-0.540058
H237	H	0.502030	-0.509084	-0.642426
H238	H	0.526618	-0.554830	-0.646036
H239	H	0.479334	-0.551679	-0.607624
H240	H	0.554282	-0.512855	-0.547505
H241	H	0.507000	-0.509696	-0.509093
H242	H	0.596964	-0.472647	-0.482148
O243	O	0.734626	-0.692040	-0.235603
C244	C	0.759992	-0.661260	-0.190159
H245	H	0.741578	-0.627834	-0.187340
H246	H	0.794102	-0.656229	-0.219751
C247	C	0.789112	-0.720639	-0.107813
C248	C	0.766494	-0.679586	-0.104346
H249	H	0.793125	-0.731944	-0.054881
H250	H	0.772024	-0.741377	-0.138432
H251	H	0.817535	-0.716441	-0.132477
H252	H	0.738070	-0.683785	-0.079693
H253	H	0.783578	-0.658849	-0.073721
H254	H	0.701426	-0.959896	-0.295316
O255	O	0.032743	-0.131100	-0.235687
C256	C	0.005571	-0.156650	-0.183540
H257	H	0.019684	-0.192032	-0.178482
H258	H	-0.029985	-0.158204	-0.208441
C259	C	-0.012475	-0.091206	-0.105985
C260	C	0.004861	-0.134662	-0.099767
H261	H	-0.012915	-0.077642	-0.054311
H262	H	0.005829	-0.073992	-0.141119
H263	H	-0.042104	-0.092507	-0.126739
H264	H	0.034491	-0.133360	-0.079024
H265	H	-0.013438	-0.151875	-0.064628
H266	H	0.262329	-0.297439	-0.533556
O267	O	0.481875	-0.159823	-0.287116
C268	C	0.508972	-0.185362	-0.234934
H269	H	0.515989	-0.219430	-0.263253
H270	H	0.490867	-0.190251	-0.175165
C271	C	0.544932	-0.118791	-0.185637
C272	C	0.553553	-0.160633	-0.220422
H273	H	0.572431	-0.103537	-0.176682
H274	H	0.526675	-0.101585	-0.220791
H275	H	0.529843	-0.122872	-0.135834
H276	H	0.568636	-0.156552	-0.270229
H277	H	0.571814	-0.177838	-0.185276
H278	H	0.597115	-0.959926	-0.482230
H279	H	0.701451	-1.045019	-0.295340
O280	O	0.032756	-0.301906	-0.541804
C281	C	0.005641	-0.276366	-0.593954
H282	H	0.019800	-0.240984	-0.599041
H283	H	-0.029926	-0.274806	-0.569038
C284	C	-0.012446	-0.341824	-0.671460
C285	C	0.004945	-0.298369	-0.677713
H286	H	-0.012878	-0.355398	-0.723126
H287	H	0.005820	-0.359032	-0.636324
H288	H	-0.042084	-0.340519	-0.650694
H289	H	0.034584	-0.299676	-0.698469
H290	H	-0.013316	-0.281162	-0.712854
H291	H	-0.179358	-0.268720	-0.482183
H292	H	0.568311	-0.744106	-0.533700
O293	O	0.563808	-0.832833	-0.541888
C294	C	0.538421	-0.802068	-0.587326
H295	H	0.556812	-0.768606	-0.590136
H296	H	0.504307	-0.797122	-0.557733
C297	C	0.509342	-0.861444	-0.669686
C298	C	0.531931	-0.820346	-0.673143
H299	H	0.505336	-0.872720	-0.722621
H300	H	0.526444	-0.882172	-0.639072
H301	H	0.480916	-0.857317	-0.645022
H302	H	0.560359	-0.824475	-0.697797
H303	H	0.514834	-0.799620	-0.703763
H304	H	-0.094266	-0.164322	-0.295392
H305	H	0.478153	-0.268669	-0.482014
