data_functionalizedCrystal
_audit_creation_method	'MofGen! by Chris Wilmer'
_symmetry_space_group_name_H-M	'P1'
_symmetry_Int_Tables_number	1
_symmetry_cell_setting	triclinic
loop_
_symmetry_equiv_pos_as_xyz
  x,y,z
_cell_length_a	16.959454
_cell_length_b	18.215407
_cell_length_c	18.215385
_cell_angle_alpha	90.064947
_cell_angle_beta	89.911061
_cell_angle_gamma	89.979477
loop_
_atom_site_label
_atom_site_type_symbol
_atom_site_fract_x
_atom_site_fract_y
_atom_site_fract_z
Zn1	Zn	-0.314171	-1.125424	-0.416139
Zn2	Zn	0.185829	-0.625424	0.083861
Zn3	Zn	-0.446507	-1.125246	-0.293081
Zn4	Zn	0.053493	-0.625246	0.206919
Zn5	Zn	-0.314348	-1.002260	-0.293086
Zn6	Zn	0.185652	-0.502260	0.206914
Zn7	Zn	-0.446313	-1.002333	-0.416106
Zn8	Zn	0.053687	-0.502333	0.083894
O9	O	-0.380335	-1.063816	-0.354603
O10	O	0.119665	-0.563816	0.145397
O11	O	-0.331733	-1.228385	-0.399826
O12	O	0.168267	-0.728385	0.100174
O13	O	-0.429131	-1.108827	-0.190097
O14	O	0.070869	-0.608827	0.309903
O15	O	-0.203713	-1.018642	-0.309424
O16	O	0.296287	-0.518642	0.190576
O17	O	-0.428960	-1.228254	-0.309417
O18	O	0.071040	-0.728254	0.190583
O19	O	-0.203584	-1.109130	-0.399831
O20	O	0.296416	-0.609130	0.100169
O21	O	-0.332034	-1.018469	-0.190101
O22	O	0.167966	-0.518469	0.309899
O23	O	-0.331845	-0.899285	-0.309393
O24	O	0.168155	-0.399285	0.190607
O25	O	-0.428629	-1.018767	-0.519095
O26	O	0.071371	-0.518767	-0.019095
O27	O	-0.428800	-0.899339	-0.399776
O28	O	0.071200	-0.399339	0.100224
O29	O	-0.331545	-1.109201	-0.519119
O30	O	0.168455	-0.609201	-0.019119
O31	O	-0.557092	-1.108898	-0.309385
O32	O	-0.057092	-0.608898	0.190615
O33	O	-0.556949	-1.018594	-0.399771
O34	O	-0.056949	-0.518594	0.100229
C35	C	-0.380321	-0.872610	-0.354582
C36	C	0.119679	-0.372610	0.145418
C37	C	-0.380334	-0.790811	-0.354590
C38	C	0.119666	-0.290811	0.145410
C39	C	-0.585701	-1.063754	-0.354590
C40	C	-0.085701	-0.563754	0.145410
C41	C	-0.673557	-1.063795	-0.354610
C42	C	-0.173557	-0.563795	0.145390
C43	C	-0.380045	-1.064012	-0.546556
C44	C	0.119955	-0.564012	-0.046556
C45	C	-0.379922	-1.064096	-0.628356
C46	C	0.120078	-0.564096	-0.128356
C47	C	-1.044989	-1.016863	-0.401662
C48	C	-0.544989	-0.516863	0.098338
C49	C	-1.045077	-1.110974	-0.307619
C50	C	-0.545077	-0.610974	0.192381
C51	C	-0.962531	-1.110948	-0.307612
C52	C	-0.462531	-0.610948	0.192388
C53	C	-0.921210	-1.063878	-0.354630
C54	C	-0.421210	-0.563878	0.145370
C55	C	-0.962435	-1.016834	-0.401655
C56	C	-0.462435	-0.516834	0.098345
C57	C	-0.921301	-1.157986	-0.260583
C58	C	-0.421301	-0.657986	0.239417
C59	C	-0.838750	-1.157962	-0.260574
C60	C	-0.338750	-0.657962	0.239426
C61	C	-0.797427	-1.110895	-0.307596
C62	C	-0.297427	-0.610895	0.192404
C63	C	-0.838657	-1.063850	-0.354623
C64	C	-0.338657	-0.563850	0.145377
C65	C	-0.797336	-1.016780	-0.401641
C66	C	-0.297336	-0.516780	0.098359
C67	C	-0.838564	-0.969738	-0.448673
C68	C	-0.338564	-0.469738	0.051327
C69	C	-0.921112	-0.969768	-0.448677
C70	C	-0.421112	-0.469768	0.051323
C71	C	-0.714879	-1.110865	-0.307592
C72	C	-0.214879	-0.610865	0.192408
C73	C	-0.714782	-1.016751	-0.401635
C74	C	-0.214782	-0.516751	0.098365
C75	C	-0.174166	-1.063898	-0.354632
C76	C	0.325834	-0.563898	0.145368
C77	C	-0.086310	-1.063933	-0.354644
C78	C	0.413690	-0.563933	0.145356
C79	C	-0.380349	-1.255769	-0.354625
C80	C	0.119651	-0.755769	0.145375
C81	C	-0.380355	-1.337568	-0.354634
C82	C	0.119645	-0.837568	0.145366
C83	C	-0.430898	-0.602664	-0.401594
C84	C	0.069102	-0.102664	0.098406
C85	C	-0.430900	-0.525805	-0.401603
C86	C	0.069100	-0.025805	0.098397
C87	C	-0.329786	-0.525720	-0.307629
C88	C	0.170214	-0.025720	0.192371
C89	C	-0.329780	-0.602577	-0.307624
C90	C	0.170220	-0.102577	0.192376
C91	C	-0.380340	-0.641047	-0.354605
C92	C	0.119660	-0.141047	0.145395
C93	C	-0.380349	-0.487331	-0.354619
C94	C	0.119651	0.012669	0.145381
C95	C	-0.380351	-0.403998	-0.354629
C96	C	0.119649	0.096002	0.145371
C97	C	-0.380337	-0.724386	-0.354597
C98	C	0.119663	-0.224386	0.145403
C99	C	-0.380566	-1.063663	-0.163396
C100	C	0.119434	-0.563663	0.336604
C101	C	-0.380466	-1.063722	-0.081598
C102	C	0.119534	-0.563722	0.418402
C103	C	-0.330055	-1.016494	0.106560
C104	C	0.169945	-0.516494	0.606560
C105	C	-0.329960	-1.016558	0.183418
C106	C	0.170040	-0.516558	0.683418
C107	C	-0.430336	-1.111329	0.183482
C108	C	0.069664	-0.611329	0.683482
C109	C	-0.430426	-1.111267	0.106625
C110	C	0.069574	-0.611267	0.606625
C111	C	-0.380286	-1.063846	0.068166
C112	C	0.119714	-0.563846	0.568166
C113	C	-0.380102	-1.063971	0.221881
C114	C	0.119898	-0.563971	0.721881
C115	C	-0.380000	-1.064041	0.305215
C116	C	0.120000	-0.564041	0.805215
C117	C	-0.380387	-1.063777	-0.015173
C118	C	0.119613	-0.563777	0.484827
H119	H	-0.681143	-0.978424	-0.439925
H120	H	-0.181143	-0.478424	0.060075
H121	H	-0.472068	-0.494557	-0.439867
H122	H	0.027932	0.005443	0.060133
H123	H	-0.289056	-0.978001	0.214675
H124	H	0.210944	-0.478001	0.714675
H125	H	-1.078560	-0.978565	-0.439956
H126	H	-0.578560	-0.478565	0.060044
Cl127	Cl	-0.266229	-0.477352	-0.248568
Cl128	Cl	0.233771	0.022648	0.251432
Cl129	Cl	-0.663052	-1.169991	-0.248464
Cl130	Cl	-0.163052	-0.669991	0.251536
Cl131	Cl	-0.972947	-0.910633	-0.507795
Cl132	Cl	-0.472947	-0.410633	-0.007795
Cl133	Cl	-0.266211	-0.650834	-0.248552
Cl134	Cl	0.233789	-0.150834	0.251448
H135	H	-0.289225	-0.977883	0.075248
H136	H	0.210775	-0.477883	0.575248
H137	H	-0.471159	-1.149936	0.214805
H138	H	0.028841	-0.649936	0.714805
H139	H	-0.472066	-0.633984	-0.439851
H140	H	0.027934	-0.133984	0.060149
H141	H	-0.471331	-1.149831	0.075363
H142	H	0.028669	-0.649831	0.575363
H143	H	-0.804911	-0.931410	-0.486952
H144	H	-0.304911	-0.431410	0.013048
H145	H	-0.954950	-1.196302	-0.222298
H146	H	-0.454950	-0.696302	0.277702
Cl147	Cl	-1.097025	-1.170144	-0.248514
Cl148	Cl	-0.597025	-0.670144	0.251486
H149	H	-0.805187	-1.196266	-0.222279
H150	H	-0.305187	-0.696266	0.277721
