data_functionalizedCrystal
_audit_creation_method	'MofGen! by Chris Wilmer'
_symmetry_space_group_name_H-M	'P1'
_symmetry_Int_Tables_number	1
_symmetry_cell_setting	triclinic
loop_
_symmetry_equiv_pos_as_xyz
  x,y,z
_cell_length_a	23.532407
_cell_length_b	23.532357
_cell_length_c	10.268362
_cell_angle_alpha	89.989189
_cell_angle_beta	89.998092
_cell_angle_gamma	82.838519
loop_
_atom_site_label
_atom_site_type_symbol
_atom_site_fract_x
_atom_site_fract_y
_atom_site_fract_z
O1	O	0.755247	0.069137	-0.108234
O2	O	0.589382	0.079141	-0.108256
O3	O	0.677331	-0.008795	-0.108218
O4	O	0.667298	0.157073	-0.108272
O5	O	0.677323	-0.008798	0.108383
O6	O	0.589374	0.079137	0.108344
O7	O	0.755239	0.069134	0.108367
Cu8	Cu	0.672306	0.074135	0.128133
Cu9	Cu	0.672315	0.074139	-0.128022
O10	O	0.667290	0.157069	0.108328
C11	C	0.568162	0.078884	0.000041
C12	C	0.504945	0.078118	0.000034
C13	C	0.238788	0.022922	0.000088
C14	C	0.298188	0.023633	0.000087
O15	O	0.334940	-0.020154	0.000147
N16	N	0.320805	0.075911	0.000061
C17	C	0.284018	0.127480	0.000049
O18	O	0.308710	0.172012	0.000027
C19	C	0.224619	0.126768	0.000058
C20	C	0.202006	0.074487	0.000071
C21	C	0.216174	-0.029355	0.000102
C22	C	0.156778	-0.030066	0.000100
C23	C	0.119996	0.021499	0.000084
C24	C	0.142610	0.073776	0.000070
C25	C	0.187833	0.178337	0.000055
C26	C	0.128431	0.177620	0.000066
C27	C	0.105818	0.125339	0.000079
C28	C	0.046431	0.124630	0.000051
N29	N	0.023815	0.072353	0.000078
C30	C	0.060597	0.020787	0.000094
C31	C	0.408760	0.128971	0.000030
C32	C	0.468158	0.129684	0.000011
C33	C	0.482324	0.025837	0.000052
C34	C	0.422925	0.025125	0.000062
C35	C	0.386143	0.076694	0.000056
C36	C	-0.064140	0.019297	0.000089
C37	C	-0.123542	0.018591	0.000082
C38	C	-0.137702	0.122438	0.000047
C39	C	-0.078306	0.123145	0.000048
C40	C	-0.041525	0.071570	0.000073
O41	O	0.009644	0.168394	-0.000003
O42	O	0.035897	-0.023737	0.000132
C43	C	0.677076	-0.030013	0.000087
C44	C	0.676322	-0.093232	0.000099
C45	C	0.671589	-0.485241	-0.118041
C46	C	0.670872	-0.544640	-0.118049
O47	O	0.670485	-0.575355	-0.218462
N48	N	0.670512	-0.574354	0.000019
C49	C	0.670864	-0.544663	0.118101
O50	O	0.670491	-0.575391	0.218526
C51	C	0.671577	-0.485264	0.118108
C52	C	0.671942	-0.455555	0.000032
C53	C	0.671954	-0.455532	-0.236106
C54	C	0.672672	-0.396136	-0.236098
C55	C	0.673026	-0.366451	-0.118025
C56	C	0.672661	-0.396160	0.000040
C57	C	0.671924	-0.455575	0.236189
C58	C	0.672637	-0.396172	0.236185
C59	C	0.673003	-0.366462	0.118110
C60	C	0.673732	-0.307079	0.118122
N61	N	0.674092	-0.277366	0.000055
C62	C	0.673739	-0.307052	-0.118019
C63	C	0.669365	-0.669405	0.118079
C64	C	0.668656	-0.728803	0.118075
C65	C	0.668663	-0.728776	-0.118076
C66	C	0.669376	-0.669377	-0.118070
C67	C	0.669725	-0.639692	0.000012
C68	C	0.675248	-0.182317	-0.117993
C69	C	0.675968	-0.122917	-0.117975
C70	C	0.675958	-0.122949	0.118175
C71	C	0.675241	-0.182345	0.118157
C72	C	0.674883	-0.212027	0.000063
O73	O	0.674117	-0.276326	0.218484
O74	O	0.674104	-0.276316	-0.218427
C75	C	0.776459	0.069390	0.000066
C76	C	0.839676	0.070156	0.000065
C77	C	0.667545	0.178288	0.000021
C78	C	0.668300	0.241506	0.000000
N79	N	0.672304	0.074132	0.308299
N80	N	0.672322	0.074138	-0.308188
C81	C	0.672312	0.074138	0.573969
C82	C	0.672306	0.074136	0.426132
H83	H	0.404518	-0.017447	0.000073
O84	O	0.668214	-0.757629	-0.232744
C85	C	0.618475	-0.785264	-0.239792
H86	H	0.584211	-0.762659	-0.172792
H87	H	0.629085	-0.831805	-0.208063
C88	C	0.638181	-0.810878	-0.463146
C89	C	0.596096	-0.783112	-0.380864
H90	H	0.624377	-0.809554	-0.550166
H91	H	0.671692	-0.792262	-0.458397
H92	H	0.647018	-0.849660	-0.436689
H93	H	0.587264	-0.744329	-0.407311
H94	H	0.562582	-0.801721	-0.385620
O95	O	0.672875	-0.367294	0.350856
C96	C	0.623965	-0.326192	0.357894
H97	H	0.589275	-0.339379	0.290878
H98	H	0.635664	-0.282695	0.326181
C99	C	0.644206	-0.306042	0.581262
C100	C	0.601596	-0.322241	0.498959
H101	H	0.630408	-0.303603	0.668277
H102	H	0.677158	-0.333732	0.576520
H103	H	0.653951	-0.269796	0.554818
H104	H	0.591857	-0.358490	0.525393
H105	H	0.568641	-0.294557	0.503709
O106	O	0.671512	-0.484375	-0.350780
C107	C	0.621778	-0.512015	-0.357873
H108	H	0.587506	-0.489424	-0.290873
H109	H	0.632390	-0.558560	-0.326176
C110	C	0.641504	-0.537596	-0.581238
C111	C	0.599409	-0.509846	-0.498955
H112	H	0.627706	-0.536261	-0.668264
H113	H	0.675011	-0.518976	-0.576458
H114	H	0.650344	-0.576381	-0.554807
H115	H	0.590575	-0.471060	-0.525376
H116	H	0.565899	-0.528459	-0.503743
H117	H	0.378815	0.170968	0.000016
H118	H	0.669651	-0.645239	0.214242
H119	H	0.138372	-0.072639	0.000116
O120	O	0.209812	0.229112	-0.000202
C121	C	0.243751	0.232635	-0.112377
H122	H	0.229881	0.202947	-0.190762
H123	H	0.290676	0.219244	-0.087019
C124	C	0.253209	0.331142	-0.067003
C125	C	0.236170	0.294681	-0.163282
H126	H	0.248536	0.369415	-0.098402
H127	H	0.230345	0.328768	0.008573
H128	H	0.292312	0.319975	-0.045881
H129	H	0.197066	0.305844	-0.184391
H130	H	0.259027	0.297059	-0.238864
H131	H	-0.059893	0.165716	0.000036
H132	H	0.671628	-0.479754	0.332338
O133	O	0.676196	-0.094062	0.232827
C134	C	0.627283	-0.052962	0.239830
H135	H	0.592597	-0.066161	0.172817
H136	H	0.638979	-0.009468	0.208091
C137	C	0.647511	-0.032782	0.463188
C138	C	0.604907	-0.048995	0.380889
H139	H	0.633710	-0.030333	0.550200
H140	H	0.680466	-0.060470	0.458469
H141	H	0.657254	0.003462	0.436723
H142	H	0.595170	-0.085242	0.407344
H143	H	0.571950	-0.021313	0.385616
H144	H	0.512283	-0.016151	0.000065
H145	H	0.674948	-0.206536	0.214304
H146	H	-0.034199	-0.022700	0.000109
H147	H	0.668367	-0.752989	0.214223
O148	O	-0.173519	0.172474	0.000094
C149	C	-0.230793	0.160629	0.000071
H150	H	-0.232810	0.115904	0.041082
H151	H	-0.247988	0.162893	-0.103840
C152	C	-0.264927	0.259978	0.034647
C153	C	-0.267405	0.205048	0.085027
H154	H	-0.287513	0.287379	0.087046
H155	H	-0.226341	0.267959	0.034657
H156	H	-0.279255	0.261856	-0.051946
H157	H	-0.253071	0.203168	0.171611
H158	H	-0.305990	0.197068	0.085033
H159	H	-0.141950	-0.023984	0.000089
O160	O	0.673066	-0.367233	-0.350727
C161	C	0.722771	-0.339549	-0.357872
H162	H	0.757090	-0.362162	-0.291007
H163	H	0.712141	-0.293029	-0.326038
C164	C	0.702915	-0.313827	-0.581128
C165	C	0.745068	-0.341605	-0.499012
H166	H	0.716668	-0.315093	-0.668190
H167	H	0.669427	-0.332476	-0.576314
H168	H	0.694061	-0.275063	-0.554584
H169	H	0.753916	-0.380369	-0.525547
H170	H	0.778559	-0.322962	-0.503834
H171	H	0.676267	-0.098731	-0.214130
O172	O	0.251818	-0.079503	0.000055
C173	C	0.219108	-0.125788	0.000105
H174	H	0.174690	-0.111062	-0.040892
H175	H	0.214971	-0.141834	0.104024
C176	C	0.303525	-0.192654	-0.034484
C177	C	0.248971	-0.174568	-0.084848
H178	H	0.321947	-0.222745	-0.086882
H179	H	0.325563	-0.161471	-0.034513
H180	H	0.300070	-0.206021	0.052113
H181	H	0.252428	-0.161195	-0.171437
H182	H	0.226935	-0.205750	-0.084836
H183	H	0.486564	0.172256	-0.000018
H184	H	0.098485	0.219615	0.000068
H185	H	0.674954	-0.206477	-0.214157
H186	H	0.669673	-0.645192	-0.214217
