data_functionalizedCrystal
_audit_creation_method	'MofGen! by Chris Wilmer'
_symmetry_space_group_name_H-M	'P1'
_symmetry_Int_Tables_number	1
_symmetry_cell_setting	triclinic
loop_
_symmetry_equiv_pos_as_xyz
  x,y,z
_cell_length_a	10.654559
_cell_length_b	10.654551
_cell_length_c	15.186229
_cell_angle_alpha	89.999082
_cell_angle_beta	89.996428
_cell_angle_gamma	84.487023
loop_
_atom_site_label
_atom_site_type_symbol
_atom_site_fract_x
_atom_site_fract_y
_atom_site_fract_z
O1	O	1.667833	0.176452	-0.073227
O2	O	1.302356	0.193246	-0.073228
O3	O	1.493497	0.002110	-0.073228
O4	O	1.476692	0.367588	-0.073227
O5	O	1.493484	0.002108	0.073229
O6	O	1.302343	0.193243	0.073230
O7	O	1.667820	0.176449	0.073230
Zn8	Zn	1.485080	0.184846	0.096483
Zn9	Zn	1.485097	0.184850	-0.096481
O10	O	1.476680	0.367585	0.073230
C11	C	1.255552	0.192009	0.000001
C12	C	1.116109	0.188313	0.000001
C13	C	1.492256	-0.044689	-0.000001
C14	C	1.488564	-0.184132	-0.000007
C15	C	1.064569	0.072301	0.000003
C16	C	0.933547	0.068835	-0.000004
C17	C	0.905616	0.297404	-0.000011
C18	C	1.036636	0.300868	-0.000010
C19	C	1.144043	-0.040255	0.000014
C20	C	1.092504	-0.156277	0.000017
C21	C	0.961482	-0.159742	0.000010
C22	C	0.881999	-0.047186	0.000001
C23	C	1.486839	-0.249643	-0.079840
C24	C	1.483359	-0.380663	-0.079835
C25	C	1.483334	-0.380652	0.079840
C26	C	1.486805	-0.249633	0.079835
C27	C	1.488598	-0.184142	-0.159682
C28	C	1.486874	-0.249653	-0.239521
C29	C	1.483394	-0.380674	-0.239517
C30	C	1.481637	-0.446183	-0.159674
C31	C	1.714625	0.177686	-0.000001
C32	C	1.854067	0.181383	-0.000006
C33	C	1.477920	0.414385	0.000002
C34	C	1.481613	0.553828	0.000002
N35	N	1.485077	0.184843	0.228176
N36	N	1.485109	0.184843	-0.228173
C37	C	1.569744	0.100237	0.453898
C38	C	1.569748	0.100234	0.546088
C39	C	1.400434	0.269453	0.546097
C40	C	1.400425	0.269449	0.453909
C41	C	1.485087	0.184842	0.407812
C42	C	1.485100	0.184843	0.592190
C43	C	1.485103	0.184841	0.692146
C44	C	1.485082	0.184843	0.307850
H45	H	1.157227	-0.247915	0.000017
H46	H	1.481977	-0.434007	-0.304525
N47	N	1.477874	-0.587497	-0.159660
H48	H	1.399323	-0.609553	-0.191004
H49	H	1.554809	-0.628475	-0.190985
N50	N	1.481462	-0.451303	0.165952
H51	H	1.402312	-0.496171	0.169516
H52	H	1.557798	-0.515091	0.169453
H53	H	0.840891	0.389041	-0.000017
N54	N	1.492341	-0.042828	-0.159697
H55	H	1.415454	-0.001763	-0.128358
H56	H	1.570935	-0.020873	-0.128366
N57	N	1.661021	0.008967	0.404168
H58	H	1.717044	0.057463	0.365907
H59	H	1.714565	-0.044622	0.447403
H60	H	1.638682	0.031339	0.583609
H61	H	0.919522	-0.254212	0.000004
N62	N	1.309124	0.360704	0.595817
H63	H	1.321975	0.347872	0.661211
H64	H	1.324402	0.449935	0.579697
H65	H	1.488183	-0.196290	0.144842
N66	N	1.309101	0.360696	0.404194
H67	H	1.255474	0.414299	0.447384
H68	H	1.357654	0.416664	0.365934
H69	H	1.250729	-0.037446	0.000022
N70	N	0.740681	-0.050920	-0.000019
H71	H	0.720088	-0.141493	-0.000020
H72	H	0.703717	-0.006825	0.054273
H73	H	1.488292	-0.196305	-0.304526
N74	N	1.092237	0.425992	-0.000017
H75	H	1.022012	0.496770	-0.000017
H76	H	1.145987	0.432408	0.054276
