data_functionalizedCrystal
_audit_creation_method	'MofGen! by Chris Wilmer'
_symmetry_space_group_name_H-M	'P1'
_symmetry_Int_Tables_number	1
_symmetry_cell_setting	triclinic
loop_
_symmetry_equiv_pos_as_xyz
  x,y,z
_cell_length_a	9.065218
_cell_length_b	11.295483
_cell_length_c	12.837932
_cell_angle_alpha	85.466831
_cell_angle_beta	89.922794
_cell_angle_gamma	94.166271
loop_
_atom_site_label
_atom_site_type_symbol
_atom_site_fract_x
_atom_site_fract_y
_atom_site_fract_z
O1	O	1.987875	0.099020	0.145302
O2	O	1.560108	0.099021	0.157785
O3	O	1.764505	0.099021	0.000551
O4	O	1.783478	0.099019	0.302535
O5	O	1.746550	-0.099030	0.014340
O6	O	1.542153	-0.099030	0.171574
O7	O	1.969920	-0.099031	0.159090
Cu8	Cu	1.754397	-0.117114	0.166591
Cu9	Cu	1.775631	0.117104	0.150284
O10	O	1.765523	-0.099032	0.316324
C11	C	1.495998	-0.000005	0.163480
C12	C	1.331719	-0.000004	0.159892
N13	N	1.739472	-0.281851	0.178060
C14	C	1.897994	-0.531140	0.056192
C15	C	1.886727	-0.655803	0.064866
C16	C	1.705664	-0.655844	0.204077
C17	C	1.716931	-0.531180	0.195403
C18	C	1.813101	-0.468833	0.121459
C19	C	1.824375	-0.344167	0.112790
C20	C	1.643305	-0.344209	0.251996
C21	C	1.632038	-0.468873	0.260670
C22	C	2.034030	-0.000003	0.153395
C23	C	2.198310	0.000004	0.156982
C24	C	1.749119	-0.000002	-0.031235
C25	C	1.730005	0.000007	-0.146492
N26	N	1.790566	0.281840	0.138808
C27	C	1.570245	0.000005	-0.297835
C28	C	1.588195	0.000007	-0.189541
C29	C	1.853874	0.000008	-0.211748
C30	C	1.835924	0.000006	-0.320042
C31	C	1.694105	0.000003	-0.363082
C32	C	1.676155	-0.000008	-0.471378
C33	C	1.941833	0.000001	-0.493583
C34	C	1.959784	0.000003	-0.385289
C35	C	1.780910	-0.000006	0.348111
C36	C	1.800024	-0.000007	0.463367
H37	H	1.902685	-0.293404	0.052584
H38	H	1.976310	-0.480375	-0.004010
H39	H	1.955853	-0.706531	0.011718
H40	H	1.627354	-0.706624	0.264274
H41	H	1.560677	-0.000021	-0.506417
O42	O	1.538747	-0.529627	0.332472
C43	C	1.441079	-0.721695	0.407493
C44	C	1.546811	-0.653045	0.326144
H45	H	1.447540	-0.821490	0.402389
H46	H	1.474237	-0.697274	0.489142
H47	H	1.323093	-0.697131	0.391120
H48	H	1.664829	-0.677572	0.342420
H49	H	1.513527	-0.677472	0.244521
H50	H	1.574184	-0.293465	0.305144
H51	H	1.454768	-0.000019	-0.332877
H52	H	1.969331	-0.000065	-0.176680
H53	H	1.487335	0.000011	-0.136420
O54	O	2.097430	-0.000050	-0.343300
C55	C	2.242838	0.000023	-0.186314
C56	C	2.086866	0.000060	-0.233722
H57	H	2.234352	0.000137	-0.097716
H58	H	2.297326	-0.082885	-0.207231
H59	H	2.312322	0.082883	-0.218917
H60	H	2.017264	-0.082744	-0.201146
H61	H	2.032495	0.083022	-0.212814
O62	O	2.062138	0.000214	-0.557021
C63	C	2.205320	0.102776	-0.699360
C64	C	2.069051	0.102702	-0.627575
H65	H	2.210937	0.185616	-0.756436
H66	H	2.309814	0.102856	-0.650046
H67	H	2.196034	0.019852	-0.744791
H68	H	2.078193	0.185612	-0.582130
H69	H	1.964612	0.102560	-0.676947
