data_functionalizedCrystal
_audit_creation_method	'MofGen! by Chris Wilmer'
_symmetry_space_group_name_H-M	'P1'
_symmetry_Int_Tables_number	1
_symmetry_cell_setting	triclinic
loop_
_symmetry_equiv_pos_as_xyz
  x,y,z
_cell_length_a	17.077404
_cell_length_b	13.897448
_cell_length_c	17.077396
_cell_angle_alpha	90.024780
_cell_angle_beta	89.980499
_cell_angle_gamma	89.980206
loop_
_atom_site_label
_atom_site_type_symbol
_atom_site_fract_x
_atom_site_fract_y
_atom_site_fract_z
Zn1	Zn	1.200073	0.384009	-0.443863
Zn2	Zn	1.199987	0.545322	-0.312605
Zn3	Zn	1.068805	0.384043	-0.312611
Zn4	Zn	1.068780	0.545264	-0.443829
O5	O	1.134411	0.464660	-0.378227
O6	O	1.309908	0.405417	-0.426463
O7	O	1.182560	0.523966	-0.202759
O8	O	1.086263	0.249057	-0.330038
O9	O	1.309846	0.523933	-0.330029
O10	O	1.182706	0.249032	-0.426469
O11	O	1.086181	0.405475	-0.202763
O12	O	0.958954	0.405420	-0.330005
O13	O	1.086222	0.523835	-0.553680
O14	O	0.958936	0.523868	-0.426411
O15	O	1.182682	0.405362	-0.553705
O16	O	1.182537	0.680296	-0.329996
O17	O	1.086139	0.680254	-0.426405
C18	C	0.930463	0.464642	-0.378205
C19	C	0.843214	0.464658	-0.378215
C20	C	0.802235	0.526427	-0.428332
C21	C	0.720254	0.526429	-0.428345
C22	C	0.679254	0.464666	-0.378235
C23	C	0.720239	0.402890	-0.328115
C24	C	0.802218	0.402884	-0.328107
C25	C	0.549369	0.402909	-0.328134
C26	C	0.467384	0.402916	-0.328141
C27	C	0.467405	0.526454	-0.428372
C28	C	0.549384	0.526448	-0.428364
C29	C	0.590363	0.464673	-0.378243
C30	C	1.134347	0.715274	-0.378214
C31	C	1.134392	0.822488	-0.378234
C32	C	1.134469	1.018783	-0.378290
C33	C	1.134424	0.909550	-0.378261
C34	C	1.339155	0.464678	-0.378249
C35	C	1.426405	0.464686	-0.378259
C36	C	1.134459	0.464588	-0.582971
C37	C	1.134479	0.464558	-0.670221
C38	C	1.134490	1.213067	-0.378267
C39	C	1.134507	1.105853	-0.378308
C40	C	1.184708	0.402864	-0.711226
C41	C	1.184717	0.402832	-0.793206
C42	C	1.134501	0.464500	-0.834181
C43	C	1.084267	0.526197	-0.793171
C44	C	1.084254	0.526223	-0.711192
C45	C	1.084299	0.526139	-0.964041
C46	C	1.084312	0.526114	-1.046025
C47	C	1.184761	0.402747	-1.046055
C48	C	1.184749	0.402774	-0.964076
C49	C	1.134515	0.464472	-0.923072
C50	C	1.134409	0.464661	-0.174279
C51	C	1.134541	0.464419	-0.087030
H52	H	0.835582	0.352580	-0.287300
H53	H	1.043381	0.576365	-0.930657
H54	H	1.043378	0.576404	-0.826539
H55	H	1.225643	0.352564	-0.930717
H56	H	1.225602	0.352650	-0.677870
H57	H	0.582764	0.576746	-0.469163
H58	H	0.835611	0.576725	-0.469135
H59	H	0.582731	0.352597	-0.287327
H60	H	1.225662	0.352508	-1.079445
H61	H	1.225620	0.352596	-0.826588
H62	H	1.043345	0.576451	-0.677807
H63	H	0.686850	0.352597	-0.287318
H64	H	0.686893	0.576729	-0.469155
H65	H	0.434036	0.576751	-0.469185
H66	H	0.434004	0.352612	-0.287347
H67	H	1.043420	0.576327	-1.079385
