data_functionalizedCrystal
_audit_creation_method	'MofGen! by Chris Wilmer'
_symmetry_space_group_name_H-M	'P1'
_symmetry_Int_Tables_number	1
_symmetry_cell_setting	triclinic
loop_
_symmetry_equiv_pos_as_xyz
  x,y,z
_cell_length_a	8.597187
_cell_length_b	11.792241
_cell_length_c	7.681481
_cell_angle_alpha	84.218353
_cell_angle_beta	88.166928
_cell_angle_gamma	84.765473
loop_
_atom_site_label
_atom_site_type_symbol
_atom_site_fract_x
_atom_site_fract_y
_atom_site_fract_z
O1	O	2.038025	0.202356	-0.455622
O2	O	2.538025	0.702356	0.044378
O3	O	1.588069	0.210418	-0.387362
O4	O	2.088069	0.710418	0.112638
O5	O	1.823967	0.041409	-0.423136
O6	O	2.323967	0.541409	0.076864
O7	O	1.802126	0.371365	-0.419848
O8	O	2.302126	0.871365	0.080152
O9	O	1.853002	0.020558	-0.134682
O10	O	2.353002	0.520558	0.365318
O11	O	1.617104	0.189567	-0.098907
O12	O	2.117104	0.689567	0.401093
O13	O	2.067060	0.181506	-0.167167
O14	O	2.567060	0.681506	0.332833
Zn15	Zn	1.846692	0.182226	-0.087239
Zn16	Zn	2.346692	0.682226	0.412761
Zn17	Zn	1.808437	0.209697	-0.467290
Zn18	Zn	2.308437	0.709697	0.032710
O19	O	1.831161	0.350514	-0.131393
O20	O	2.331161	0.850514	0.368607
C21	C	1.544982	0.197965	-0.234396
C22	C	2.044982	0.697965	0.265604
C23	C	1.373339	0.191909	-0.208357
C24	C	1.873339	0.691909	0.291643
C25	C	1.837113	-0.011332	-0.278701
C26	C	2.337113	0.488668	0.221299
C27	C	1.833007	-0.137418	-0.278080
C28	C	2.333007	0.362582	0.221920
C29	C	1.825454	-0.368262	-0.276964
C30	C	2.325454	0.131738	0.223036
C31	C	1.829650	-0.239803	-0.277585
C32	C	2.329650	0.260197	0.222415
C33	C	2.110146	0.193959	-0.320137
C34	C	2.610146	0.693959	0.179863
C35	C	2.281788	0.200015	-0.346188
C36	C	2.781788	0.700015	0.153812
C37	C	1.818015	0.403255	-0.275832
C38	C	2.318015	0.903255	0.224168
C39	C	1.822120	0.529342	-0.276464
C40	C	2.322120	1.029342	0.223536
N41	N	1.872811	0.163477	0.172134
N42	N	2.372811	0.663477	0.672134
N43	N	1.782330	0.228438	-0.726665
N44	N	2.282330	0.728438	-0.226665
H45	H	1.334727	0.211589	-0.484110
H46	H	1.834727	0.711589	0.015890
O47	O	1.672327	0.307605	0.200126
O48	O	2.172327	0.807605	0.700126
C49	C	1.745349	0.386970	0.082420
C50	C	2.245349	0.886970	0.582420
H51	H	1.863171	0.346318	0.037087
H52	H	2.363171	0.846318	0.537087
H53	H	1.763696	0.466077	0.150574
H54	H	2.263696	0.966077	0.650574
C55	C	1.496464	0.471645	-0.021304
C56	C	1.996464	0.971645	0.478696
C57	C	1.641169	0.421713	-0.076995
C58	C	2.141169	0.921713	0.423005
H59	H	1.432199	0.493081	-0.119636
H60	H	1.932199	0.993081	0.380364
H61	H	1.447266	0.418179	0.058001
H62	H	1.947266	0.918179	0.558001
H63	H	1.511774	0.537562	0.035491
H64	H	2.011774	1.037562	0.535491
H65	H	1.625859	0.355790	-0.133769
H66	H	2.125859	0.855790	0.366231
H67	H	1.690362	0.475169	-0.156314
H68	H	2.190362	0.975169	0.343686
H69	H	1.320405	0.180349	-0.070443
H70	H	1.820405	0.680349	0.429557
H71	H	1.965190	0.097175	0.233331
H72	H	2.465190	0.597175	0.733331
