data_functionalizedCrystal
_audit_creation_method	'MofGen! by Chris Wilmer'
_symmetry_space_group_name_H-M	'P1'
_symmetry_Int_Tables_number	1
_symmetry_cell_setting	triclinic
loop_
_symmetry_equiv_pos_as_xyz
  x,y,z
_cell_length_a	10.654550
_cell_length_b	12.837942
_cell_length_c	9.130313
_cell_angle_alpha	89.996012
_cell_angle_beta	89.999724
_cell_angle_gamma	89.656935
loop_
_atom_site_label
_atom_site_type_symbol
_atom_site_fract_x
_atom_site_fract_y
_atom_site_fract_z
O1	O	1.683741	0.145723	-0.121688
O2	O	1.319778	0.159606	-0.121715
O3	O	1.493689	0.001704	-0.121693
O4	O	1.509830	0.303626	-0.121710
O5	O	1.493675	0.001699	0.121906
O6	O	1.319764	0.159602	0.121884
O7	O	1.683728	0.145718	0.121911
Cu8	Cu	1.501745	0.152660	0.144140
Cu9	Cu	1.501761	0.152665	-0.143944
O10	O	1.509816	0.303621	0.121889
C11	C	1.272862	0.158585	0.000081
C12	C	1.133086	0.155535	0.000071
C13	C	1.063746	0.248505	0.000070
C14	C	0.932411	0.245633	0.000096
C15	C	0.939770	0.056812	0.000117
C16	C	1.071101	0.059685	0.000102
C17	C	1.488230	-0.036958	0.000105
C18	C	1.471967	-0.152152	0.000101
C19	C	1.667472	-0.391705	0.000085
C20	C	1.652197	-0.499941	0.000082
C21	C	1.426146	-0.476861	0.000080
C22	C	1.441420	-0.368626	0.000084
C23	C	1.562087	-0.326052	0.000088
C24	C	1.577360	-0.217814	0.000103
C25	C	1.351309	-0.194737	0.000091
C26	C	1.336035	-0.302972	0.000087
C27	C	1.730644	0.146740	0.000111
C28	C	1.870420	0.149790	0.000112
C29	C	1.515276	0.342283	0.000087
C30	C	1.531538	0.457477	0.000081
N31	N	1.501742	0.152655	0.346762
N32	N	1.501772	0.152661	-0.346567
C33	C	1.578782	0.082766	0.423424
C34	C	1.578794	0.082766	0.576761
C35	C	1.424723	0.222554	0.576761
C36	C	1.424706	0.222548	0.423427
H37	H	1.127560	-0.016027	0.000107
C38	C	0.780471	0.351953	0.125324
C39	C	0.856192	0.347830	0.000087
H40	H	0.733423	0.415051	0.125321
H41	H	0.724762	0.294469	0.125333
H42	H	0.831880	0.349152	0.210255
H43	H	0.804782	0.350623	-0.084844
H44	H	0.911907	0.405329	0.000065
C45	C	1.187719	-0.411301	-0.125138
C46	C	1.203405	-0.349780	0.000087
H47	H	1.105840	-0.440201	-0.125127
H48	H	1.198365	-0.369548	-0.210068
H49	H	1.248306	-0.465889	-0.125129
H50	H	1.142824	-0.295187	0.000073
H51	H	1.192747	-0.391536	0.085039
C52	C	0.741713	-0.031433	0.000135
C53	C	0.871631	-0.048542	0.000132
H54	H	0.699652	-0.096477	0.000132
H55	H	0.718690	0.006877	0.085077
H56	H	0.718688	0.006890	-0.084820
H57	H	0.894658	-0.086859	0.085093
H58	H	0.894664	-0.086869	-0.084819
H59	H	1.114209	0.326552	0.000056
H60	H	1.675613	-0.183153	0.000112
C61	C	1.889381	-0.425385	0.000084
C62	C	1.800103	-0.344900	0.000086
H63	H	1.971262	-0.396488	0.000074
H64	H	1.878724	-0.467121	0.085029
H65	H	1.878714	-0.467120	-0.084868
H66	H	1.810764	-0.303170	0.085045
H67	H	1.810765	-0.303147	-0.084867
H68	H	1.362004	0.279461	0.639197
H69	H	1.265497	-0.141269	0.000105
C70	C	1.277856	-0.585198	-0.125163
C71	C	1.293521	-0.523679	0.000068
H72	H	1.195982	-0.614108	-0.125163
H73	H	1.288501	-0.543441	-0.210089
H74	H	1.338452	-0.639779	-0.125151
H75	H	1.232931	-0.469094	0.000051
H76	H	1.282863	-0.565439	0.085016
H77	H	1.641508	0.025853	0.361007
H78	H	1.641526	0.025854	0.639174
H79	H	1.738013	-0.553393	0.000074
H80	H	1.361964	0.279461	0.361005
