data_functionalizedCrystal
_audit_creation_method	'MofGen! by Chris Wilmer'
_symmetry_space_group_name_H-M	'P1'
_symmetry_Int_Tables_number	1
_symmetry_cell_setting	triclinic
loop_
_symmetry_equiv_pos_as_xyz
  x,y,z
_cell_length_a	12.594516
_cell_length_b	12.594517
_cell_length_c	18.215399
_cell_angle_alpha	90.005942
_cell_angle_beta	89.972835
_cell_angle_gamma	89.992835
loop_
_atom_site_label
_atom_site_type_symbol
_atom_site_fract_x
_atom_site_fract_y
_atom_site_fract_z
Zn1	Zn	-0.423929	-1.627267	-0.415859
Zn2	Zn	-0.601928	-1.627171	-0.292795
Zn3	Zn	-0.423944	-1.449276	-0.292835
Zn4	Zn	-0.601846	-1.449261	-0.415849
O5	O	-0.512912	-1.538244	-0.354334
O6	O	-0.447569	-1.776200	-0.399522
O7	O	-0.578359	-1.603539	-0.189816
O8	O	-0.274997	-1.472933	-0.309175
O9	O	-0.578344	-1.776129	-0.309107
O10	O	-0.274986	-1.603702	-0.399560
O11	O	-0.447595	-1.472841	-0.189845
O12	O	-0.447516	-1.300328	-0.309165
O13	O	-0.578205	-1.472907	-0.518834
O14	O	-0.578219	-1.300317	-0.399543
O15	O	-0.447490	-1.603687	-0.518842
O16	O	-0.750863	-1.603524	-0.309097
O17	O	-0.750803	-1.472814	-0.399505
C18	C	-0.789453	-1.538186	-0.354312
C19	C	-0.907759	-1.538259	-0.354327
C20	C	-0.512861	-1.261703	-0.354358
C21	C	-0.512865	-1.143397	-0.354386
C22	C	-1.047769	-1.609482	-0.305240
C23	C	-0.977072	-1.512353	-0.287169
C24	C	-0.976884	-1.635376	-0.372364
C25	C	-1.047847	-1.441188	-0.336285
C26	C	-1.047665	-1.564276	-0.421511
C27	C	-0.977000	-1.467080	-0.403466
C28	C	-0.584091	-1.074169	-0.403450
C29	C	-0.487044	-1.003355	-0.421556
C30	C	-0.609984	-1.003412	-0.336272
C31	C	-0.415766	-1.074142	-0.372527
C32	C	-0.538771	-1.074205	-0.287212
C33	C	-0.441657	-1.003423	-0.305292
C34	C	-0.235291	-1.538330	-0.354373
C35	C	-0.116986	-1.538367	-0.354390
C36	C	-0.512837	-1.538306	-0.546287
C37	C	-0.512805	-1.538333	-0.628086
C38	C	-0.512954	-0.815864	-0.354322
C39	C	-0.512947	-0.934170	-0.354346
C40	C	-0.444649	-1.606469	-0.893149
C41	C	-0.444678	-1.606457	-0.816290
C42	C	-0.580805	-1.470282	-0.816272
C43	C	-0.580781	-1.470301	-0.893130
C44	C	-0.512697	-1.538393	-0.931566
C45	C	-0.512750	-1.538362	-0.777850
C46	C	-0.512782	-1.538348	-0.694516
C47	C	-0.512667	-1.538409	-1.014905
C48	C	-0.512910	-1.538243	-0.163128
C49	C	-0.512643	-1.538422	-0.081330
H50	H	-1.078842	-1.669593	-0.263670
Cl51	Cl	-0.359131	-1.692044	-0.767998
H52	H	-0.946061	-1.490385	-0.230379
H53	H	-0.389210	-1.661913	-0.924442
H54	H	-0.636235	-1.414843	-0.784968
H55	H	-0.636199	-1.414864	-0.924410
H56	H	-1.078885	-1.359079	-0.320992
Cl57	Cl	-0.572583	-1.122254	-0.199542
Cl58	Cl	-0.929326	-1.374056	-0.467599
Cl59	Cl	-0.348613	-0.955760	-0.241205
Cl60	Cl	-1.095589	-1.598239	-0.509165
H61	H	-0.945714	-1.717460	-0.387592
Cl62	Cl	-0.676918	-1.122133	-0.467583
H63	H	-0.333644	-1.105081	-0.387895
H64	H	-0.465161	-0.972235	-0.478347
H65	H	-0.692081	-0.972337	-0.320971
