data_functionalizedCrystal
_audit_creation_method	'MofGen! by Chris Wilmer'
_symmetry_space_group_name_H-M	'P1'
_symmetry_Int_Tables_number	1
_symmetry_cell_setting	triclinic
loop_
_symmetry_equiv_pos_as_xyz
  x,y,z
_cell_length_a	16.120490
_cell_length_b	19.121459
_cell_length_c	16.120297
_cell_angle_alpha	90.556879
_cell_angle_beta	90.129683
_cell_angle_gamma	84.558848
loop_
_atom_site_label
_atom_site_type_symbol
_atom_site_fract_x
_atom_site_fract_y
_atom_site_fract_z
Zn1	Zn	1.266321	-0.355959	-0.517478
Zn2	Zn	1.279201	-0.467791	-0.373062
Zn3	Zn	1.133681	-0.344082	-0.371969
Zn4	Zn	1.133122	-0.467138	-0.505066
O5	O	1.203081	-0.408743	-0.441894
O6	O	1.384674	-0.376038	-0.503973
O7	O	1.265522	-0.446684	-0.256777
O8	O	1.146119	-0.247357	-0.396008
O9	O	1.394138	-0.458201	-0.397871
O10	O	1.243569	-0.256083	-0.502913
O11	O	1.158609	-0.355796	-0.255973
O12	O	1.016962	-0.355162	-0.383972
O13	O	1.145167	-0.457087	-0.622853
O14	O	1.016551	-0.445570	-0.481758
O15	O	1.243028	-0.375404	-0.631972
O16	O	1.264980	-0.566006	-0.385836
O17	O	1.157657	-0.565526	-0.482819
C18	C	0.986512	-0.399007	-0.431400
C19	C	0.893862	-0.394860	-0.426930
C20	C	0.682777	-0.430250	-0.465084
C21	C	0.724237	-0.387294	-0.418767
C22	C	0.818625	-0.391505	-0.423310
C23	C	0.588380	-0.426040	-0.460542
C24	C	1.212677	-0.591256	-0.433118
C25	C	1.216858	-0.669340	-0.429395
C26	C	1.243323	-1.110982	-0.405789
C27	C	1.239388	-1.037613	-0.409288
C28	C	1.181507	-1.000703	-0.461489
C29	C	1.127552	-1.037166	-0.510188
C30	C	1.131484	-1.110533	-0.506684
C31	C	1.166834	-0.779170	-0.474590
C32	C	1.162908	-0.705798	-0.478092
C33	C	1.274743	-0.706250	-0.377191
C34	C	1.278673	-0.779619	-0.373695
C35	C	1.224716	-0.816075	-0.422390
C36	C	1.177485	-0.925709	-0.465069
C37	C	1.228734	-0.891068	-0.418805
C38	C	1.420496	-0.418517	-0.452429
C39	C	1.513146	-0.422682	-0.456918
C40	C	1.192598	-0.417497	-0.658369
C41	C	1.188131	-0.421228	-0.750618
C42	C	1.193470	-0.225519	-0.450723
C43	C	1.189374	-0.147439	-0.454486
C44	C	1.179944	-0.428023	-0.919517
C45	C	1.226372	-0.389260	-0.965141
C46	C	1.221817	-0.393040	-1.059122
C47	C	1.184498	-0.424243	-0.825527
C48	C	1.213569	-0.399974	-0.226266
C49	C	1.218187	-0.396052	-0.134035
H50	H	1.283316	-1.007930	-0.369635
O51	O	1.277988	-0.346328	-0.927629
C52	C	1.360871	-0.366259	-0.952016
H53	H	1.361029	-0.395818	-1.013779
H54	H	1.393150	-0.401720	-0.902876
C55	C	1.407398	-0.263895	-0.885744
C56	C	1.407592	-0.300195	-0.961607
H57	H	1.436219	-0.223145	-0.891657
H58	H	1.351558	-0.250468	-0.869311
H59	H	1.434295	-0.293454	-0.844802
H60	H	1.380685	-0.270640	-1.002544
H61	H	1.463428	-0.313616	-0.978047
H62	H	1.122892	-0.808843	-0.514235
O63	O	1.334921	-0.815360	-0.322911
C64	C	1.381710	-0.767450	-0.280694
H65	H	1.344910	-0.713527	-0.278636
H66	H	1.443098	-0.763664	-0.314577
C67	C	1.444800	-0.859299	-0.194119
C68	C	1.399600	-0.793071	-0.191584
H69	H	1.455840	-0.875104	-0.139152
H70	H	1.413281	-0.891578	-0.222563
H71	H	1.495952	-0.856135	-0.222358
H72	H	1.348445	-0.796238	-0.163355
H73	H	1.431111	-0.760793	-0.163133
H74	H	1.130358	-0.895651	-0.507574
H75	H	1.318672	-0.676561	-0.337544
O76	O	1.128520	-0.470988	-0.957248
C77	C	1.135359	-0.465235	-1.044043
H78	H	1.197920	-0.445577	-1.060006
H79	H	1.082784	-0.426577	-1.068044
C80	C	1.052504	-0.561870	-1.065264
C81	C	1.129345	-0.537731	-1.084871
H82	H	1.048790	-0.606588	-1.090450
H83	H	1.047892	-0.565745	-1.006789
H84	H	1.008699	-0.529649	-1.085266
H85	H	1.173148	-0.569948	-1.064860
H86	H	1.133964	-0.533864	-1.143344
H87	H	0.688843	-0.347356	-0.375701
O88	O	1.079044	-1.145843	-0.554073
C89	C	1.027100	-1.097534	-0.600885
H90	H	1.058296	-1.046859	-0.607939
H91	H	0.964876	-1.085714	-0.567748
C92	C	0.973961	-1.191424	-0.678590
C93	C	1.012278	-1.129186	-0.687260
H94	H	0.964814	-1.210949	-0.731869
H95	H	1.008953	-1.223972	-0.647050
H96	H	0.922111	-1.181566	-0.650973
H97	H	1.064131	-1.139047	-0.714867
H98	H	0.977294	-1.096641	-0.718807
H99	H	0.718168	-0.470186	-0.508145
O100	O	1.299574	-1.146723	-0.355008
C101	C	1.346359	-1.098809	-0.312793
H102	H	1.309557	-1.044887	-0.310737
H103	H	1.407748	-1.095022	-0.346674
C104	C	1.409453	-1.190653	-0.226212
C105	C	1.364249	-1.124427	-0.223681
H106	H	1.420492	-1.206456	-0.171245
H107	H	1.377935	-1.222934	-0.254655
H108	H	1.460605	-1.187488	-0.254450
H109	H	1.313094	-1.127594	-0.195452
H110	H	1.395758	-1.092146	-0.195231
H111	H	1.115772	-0.675749	-0.520604
H112	H	1.275858	-0.921123	-0.376300
O113	O	1.071441	-1.001288	-0.560992
C114	C	1.113988	-0.963087	-0.618945
H115	H	1.180564	-0.988307	-0.626247
H116	H	1.115146	-0.906581	-0.596082
C117	C	0.987195	-0.932647	-0.694303
C118	C	1.068963	-0.963626	-0.703276
H119	H	0.959420	-0.932976	-0.746322
H120	H	0.958530	-0.958381	-0.655258
H121	H	0.988171	-0.885561	-0.675247
H122	H	1.067985	-1.010713	-0.722322
H123	H	1.097627	-0.937899	-0.742327
