data_functionalizedCrystal
_audit_creation_method	'MofGen! by Chris Wilmer'
_symmetry_space_group_name_H-M	'P1'
_symmetry_Int_Tables_number	1
_symmetry_cell_setting	triclinic
loop_
_symmetry_equiv_pos_as_xyz
  x,y,z
_cell_length_a	16.974897
_cell_length_b	12.811415
_cell_length_c	15.455313
_cell_angle_alpha	87.254642
_cell_angle_beta	83.675220
_cell_angle_gamma	83.375521
loop_
_atom_site_label
_atom_site_type_symbol
_atom_site_fract_x
_atom_site_fract_y
_atom_site_fract_z
O1	O	1.057037	0.123912	-0.155999
O2	O	0.826183	0.141876	-0.141225
O3	O	0.946845	-0.019168	-0.137014
O4	O	0.936375	0.284956	-0.160210
O5	O	0.939945	-0.009996	0.007010
O6	O	0.819283	0.151047	0.002799
O7	O	1.050137	0.133083	-0.011974
Cu8	Cu	0.934080	0.142903	0.008563
Cu9	Cu	0.942240	0.132057	-0.161762
O10	O	0.929475	0.294127	-0.016185
C11	C	0.793171	0.145946	-0.067100
C12	C	0.705088	0.144397	-0.060802
C13	C	0.667460	0.138673	-0.136344
C14	C	0.584694	0.137235	-0.130415
C15	C	0.539559	0.141514	-0.048942
C16	C	0.577192	0.147242	0.026606
C17	C	0.659956	0.148687	0.020675
C18	C	0.291629	0.137735	-0.022788
C19	C	0.208860	0.136286	-0.016863
C20	C	0.216368	0.126281	-0.173885
C21	C	0.299133	0.127721	-0.179808
C22	C	0.336759	0.133454	-0.104260
N23	N	0.454959	0.140041	-0.042880
N24	N	0.421356	0.134934	-0.110324
C25	C	0.942597	-0.053487	-0.061886
C26	C	0.940209	-0.169411	-0.052603
C27	C	0.943232	-0.397233	-0.192191
C28	C	0.940989	-0.506154	-0.183473
C29	C	0.933474	-0.496176	-0.026448
C30	C	0.935717	-0.387255	-0.035167
C31	C	0.940597	-0.337787	-0.118041
C32	C	0.942846	-0.228865	-0.126759
C33	C	0.935326	-0.218888	0.030265
C34	C	0.933083	-0.327809	0.038983
C35	C	1.083148	0.129013	-0.086102
C36	C	1.171232	0.130562	-0.092405
C37	C	0.933723	0.328446	-0.091315
C38	C	0.936111	0.444370	-0.100604
N39	N	0.928346	0.150531	0.128360
N40	N	0.947980	0.124420	-0.281560
C41	C	0.979626	0.082139	0.175540
C42	C	0.975297	0.087917	0.266197
C43	C	0.919692	0.162093	0.309672
C44	C	0.868406	0.230488	0.262485
C45	C	0.872732	0.224704	0.171831
C46	C	0.901021	0.187031	0.580600
C47	C	0.896700	0.192812	0.671261
C48	C	1.003590	0.050239	0.674966
C49	C	1.007914	0.044466	0.584309
C50	C	0.956626	0.112857	0.537131
N51	N	0.915267	0.168004	0.402337
N52	N	0.961047	0.106941	0.444468
H53	H	0.322254	0.142396	0.038729
C54	C	0.835527	0.274410	0.719081
C55	C	0.771602	0.237882	0.788890
C56	C	0.710433	0.319477	0.836709
C57	C	0.713189	0.437600	0.814719
C58	C	0.777116	0.474133	0.744906
C59	C	0.838285	0.392538	0.697087
H60	H	0.769560	0.150435	0.805172
H61	H	0.663110	0.292432	0.888389
H62	H	0.667908	0.498001	0.850117
H63	H	0.779158	0.561580	0.728625
H64	H	0.885608	0.419583	0.645407
H65	H	0.540435	0.150732	0.092943
H66	H	1.053192	-0.015934	0.548914
C67	C	0.928088	-0.550625	0.064697
C68	C	0.856739	-0.611873	0.096101
C69	C	0.851347	-0.666334	0.187242
C70	C	0.917302	-0.659548	0.246981
C71	C	0.988656	-0.598298	0.215579
C72	C	0.994049	-0.543837	0.124437
H73	H	0.807910	-0.616899	0.051878
H74	H	0.798525	-0.711676	0.210488
H75	H	0.913310	-0.699864	0.314449
H76	H	1.037485	-0.593272	0.259801
H77	H	1.046870	-0.498495	0.101191
H78	H	0.933184	-0.170476	0.090643
C79	C	0.348782	0.122999	-0.269429
C80	C	0.439820	0.124570	-0.275952
C81	C	0.489470	0.119833	-0.365573
C82	C	0.448082	0.113525	-0.448670
C83	C	0.357038	0.111954	-0.442150
C84	C	0.307388	0.116691	-0.352529
H85	H	0.470463	0.129239	-0.214436
H86	H	0.556867	0.120996	-0.370400
H87	H	0.484836	0.110019	-0.515013
H88	H	0.326396	0.107284	-0.503666
H89	H	0.239992	0.115527	-0.347702
H90	H	0.690591	0.153353	0.082190
C91	C	0.927713	-0.382238	0.130137
C92	C	0.856374	-0.443489	0.161577
C93	C	0.851005	-0.497919	0.252731
C94	C	0.916974	-0.491099	0.312445
C95	C	0.988318	-0.429846	0.281007
C96	C	0.993687	-0.375415	0.189853
H97	H	0.807535	-0.448540	0.117372
H98	H	0.798191	-0.543263	0.276004
H99	H	0.912999	-0.531392	0.379923
H100	H	1.037157	-0.424794	0.325212
H101	H	1.046501	-0.330071	0.166580
C102	C	0.816325	0.299939	0.119930
C103	C	0.755188	0.381568	0.167742
C104	C	0.698776	0.456802	0.115843
C105	C	0.703500	0.450406	0.016132
C106	C	0.764640	0.368774	-0.031686
C107	C	0.821052	0.293540	0.020213
H108	H	0.751688	0.386305	0.241559
H109	H	0.653516	0.517231	0.151242
H110	H	0.661741	0.506099	-0.022287
H111	H	0.768140	0.364037	-0.105503
H112	H	0.866311	0.233111	-0.015185
H113	H	0.946822	-0.188591	-0.194239
H114	H	1.024908	0.021741	0.140149
H115	H	0.823127	0.290881	0.297888
H116	H	0.554062	0.132574	-0.191930
H117	H	1.017052	0.032226	0.304611
C118	C	0.948607	-0.342811	-0.283347
C119	C	1.020165	-0.374160	-0.350774
C120	C	1.025542	-0.319738	-0.441931
C121	C	0.959361	-0.233968	-0.465662
C122	C	0.887798	-0.202614	-0.398234
C123	C	0.882421	-0.257036	-0.307076
H124	H	1.069161	-0.437656	-0.333209
H125	H	1.078518	-0.342949	-0.491846
H126	H	0.963341	-0.193682	-0.533142
H127	H	0.838802	-0.139118	-0.415799
H128	H	0.829445	-0.233825	-0.257161
H129	H	0.859261	0.242720	0.542195
C130	C	1.059999	-0.024996	0.726863
C131	C	1.025464	-0.100736	0.797683
C132	C	1.081873	-0.175979	0.849579
C133	C	1.172817	-0.175481	0.830654
C134	C	1.207356	-0.099738	0.759830
C135	C	1.150947	-0.024496	0.707934
H136	H	0.958138	-0.101107	0.811695
H137	H	1.056304	-0.232049	0.902008
H138	H	1.214574	-0.231180	0.869071
H139	H	1.274682	-0.099367	0.745818
H140	H	1.176516	0.031574	0.655506
C141	C	0.717106	0.133968	-0.225967
C142	C	0.783394	0.042907	-0.245093
C143	C	0.833037	0.038206	-0.334718
C144	C	0.816393	0.124566	-0.405218
C145	C	0.750102	0.215634	-0.386095
C146	C	0.700459	0.220335	-0.296469
H147	H	0.795718	-0.021028	-0.192903
H148	H	0.882110	-0.029209	-0.348874
H149	H	0.853142	0.121086	-0.471564
H150	H	0.737778	0.279569	-0.438285
H151	H	0.651386	0.287749	-0.282313
H152	H	0.172110	0.139800	0.049484
H153	H	0.943131	-0.554551	-0.243853
H154	H	0.185724	0.121616	-0.235391
