data_functionalizedCrystal
_audit_creation_method	'MofGen! by Chris Wilmer'
_symmetry_space_group_name_H-M	'P1'
_symmetry_Int_Tables_number	1
_symmetry_cell_setting	triclinic
loop_
_symmetry_equiv_pos_as_xyz
  x,y,z
_cell_length_a	13.032831
_cell_length_b	13.897447
_cell_length_c	13.032268
_cell_angle_alpha	82.850929
_cell_angle_beta	89.113023
_cell_angle_gamma	82.824382
loop_
_atom_site_label
_atom_site_type_symbol
_atom_site_fract_x
_atom_site_fract_y
_atom_site_fract_z
Zn1	Zn	1.498459	-0.651421	0.780831
Zn2	Zn	1.998459	-0.151421	1.280831
Zn3	Zn	1.520196	-0.795136	0.608850
Zn4	Zn	2.020196	-0.295136	1.108850
Zn5	Zn	1.348318	-0.611126	0.587072
Zn6	Zn	1.848318	-0.111126	1.087072
Zn7	Zn	1.326445	-0.789920	0.758975
Zn8	Zn	1.826445	-0.289920	1.258975
O9	O	1.423354	-0.711901	0.683932
O10	O	1.923354	-0.211901	1.183932
O11	O	1.645262	-0.689531	0.776278
O12	O	2.145262	-0.189531	1.276278
O13	O	1.515648	-0.756045	0.462045
O14	O	2.015648	-0.256045	0.962045
O15	O	1.368292	-0.481500	0.612807
O16	O	1.868292	0.018500	1.112807
O17	O	1.661233	-0.795118	0.649925
O18	O	2.161233	-0.295118	1.149925
O19	O	1.478599	-0.511105	0.755161
O20	O	1.978599	-0.011105	1.255161
O21	O	1.389370	-0.620854	0.446044
O22	O	1.889370	-0.120854	0.946044
O23	O	1.201497	-0.615797	0.591615
O24	O	1.701497	-0.115797	1.091615
O25	O	1.331011	-0.786229	0.905791
O26	O	1.831011	-0.286229	1.405791
O27	O	1.185426	-0.747157	0.717911
O28	O	1.685426	-0.247157	1.217911
O29	O	1.457389	-0.684474	0.921848
O30	O	1.957389	-0.184474	1.421848
O31	O	1.494438	-0.929415	0.628732
O32	O	1.994438	-0.429415	1.128732
O33	O	1.352089	-0.925583	0.739028
O34	O	1.852089	-0.425583	1.239028
C35	C	1.156144	-0.676539	0.650029
C36	C	1.656144	-0.176539	1.150029
C37	C	1.041828	-0.661437	0.635549
C38	C	1.541828	-0.161437	1.135549
C39	C	0.982950	-0.719783	0.691489
C40	C	1.482950	-0.219783	1.191489
C41	C	0.864797	-0.704175	0.676525
C42	C	1.364797	-0.204175	1.176525
C43	C	1.423274	-0.962502	0.683898
C44	C	1.923274	-0.462502	1.183898
C45	C	1.423329	-1.069726	0.683929
C46	C	1.923329	-0.569726	1.183929
C47	C	1.423376	-1.156804	0.683959
C48	C	1.923376	-0.656804	1.183959
C49	C	1.423445	-1.266049	0.683995
C50	C	1.923445	-0.766049	1.183995
C51	C	1.691608	-0.747401	0.717969
C52	C	2.191608	-0.247401	1.217969
C53	C	1.805921	-0.762529	0.732473
C54	C	2.305921	-0.262529	1.232473
C55	C	1.389335	-0.739265	0.952179
C56	C	1.889335	-0.239265	1.452179
C57	C	1.374838	-0.750926	1.066490
C58	C	1.874838	-0.250926	1.566490
C59	C	1.423460	-0.460327	0.683993
C60	C	1.923460	0.039673	1.183993
C61	C	1.423506	-0.353122	0.684019
C62	C	1.923506	0.146878	1.184019
C63	C	1.457300	-0.684581	0.416736
C64	C	1.957300	-0.184581	0.916736
C65	C	1.471996	-0.672675	0.302451
C66	C	1.971996	-0.172675	0.802451
C67	C	1.430904	-0.705778	1.125398
C68	C	1.930904	-0.205778	1.625398
C69	C	1.415923	-0.717829	1.243545
C70	C	1.915923	-0.217829	1.743545
H71	H	1.004763	-0.599927	0.576583
H72	H	1.504763	-0.099927	1.076583
H73	H	0.827737	-0.642661	0.617555
H74	H	1.327737	-0.142661	1.117555
Br75	Br	1.276335	-0.830213	1.128203
Br76	Br	1.776335	-0.330213	1.628203
Br77	Br	0.867675	-0.865037	0.830791
Br78	Br	1.367675	-0.365037	1.330791
H79	H	1.489992	-0.658200	1.088364
H80	H	1.989992	-0.158200	1.588364
H81	H	1.356820	-0.765399	1.280573
H82	H	1.856820	-0.265399	1.780573
Br83	Br	1.044715	-0.822304	0.789779
Br84	Br	1.544715	-0.322304	1.289779
Br85	Br	1.570509	-0.593389	1.240747
Br86	Br	2.070509	-0.093389	1.740747
