data_functionalizedCrystal
_audit_creation_method	'MofGen! by Chris Wilmer'
_symmetry_space_group_name_H-M	'P1'
_symmetry_Int_Tables_number	1
_symmetry_cell_setting	triclinic
loop_
_symmetry_equiv_pos_as_xyz
  x,y,z
_cell_length_a	16.109301
_cell_length_b	14.586319
_cell_length_c	16.109301
_cell_angle_alpha	89.998390
_cell_angle_beta	96.538519
_cell_angle_gamma	90.003133
loop_
_atom_site_label
_atom_site_type_symbol
_atom_site_fract_x
_atom_site_fract_y
_atom_site_fract_z
O1	O	1.103134	0.076185	-0.106861
O2	O	1.603134	0.576185	0.393139
O3	O	0.861072	0.076200	-0.120161
O4	O	1.361072	0.576200	0.379839
O5	O	0.988753	0.076183	0.007520
O6	O	1.488753	0.576183	0.507520
O7	O	0.975454	0.076203	-0.234542
O8	O	1.475454	0.576203	0.265458
O9	O	0.988737	-0.076298	0.007512
O10	O	1.488737	0.423702	0.507512
O11	O	0.861057	-0.076281	-0.120168
O12	O	1.361057	0.423719	0.379832
O13	O	1.103119	-0.076295	-0.106869
O14	O	1.603119	0.423705	0.393131
Cu15	Cu	0.982086	-0.090211	-0.113519
Cu16	Cu	1.482086	0.409789	0.386481
Cu17	Cu	0.982105	0.090115	-0.113510
Cu18	Cu	1.482105	0.590115	0.386490
O19	O	0.975438	-0.076278	-0.234550
O20	O	1.475438	0.423722	0.265450
C21	C	0.830090	-0.000038	-0.119626
C22	C	1.330090	0.499962	0.380374
C23	C	0.737794	-0.000033	-0.118011
C24	C	1.237794	0.499967	0.381989
N25	N	0.982079	-0.217042	-0.113525
N26	N	1.482079	0.282958	0.386475
C27	C	0.515522	-0.000038	-0.190018
C28	C	1.015522	0.499962	0.309982
C29	C	0.428801	-0.000044	-0.188494
C30	C	0.928801	0.499956	0.311506
C31	C	0.448676	-0.000052	-0.037006
C32	C	0.948676	0.499948	0.462994
C33	C	0.535394	-0.000053	-0.038530
C34	C	1.035394	0.499947	0.461470
C35	C	0.568815	-0.000041	-0.115039
C36	C	1.068815	0.499959	0.384961
C37	C	0.395376	-0.000046	-0.111990
C38	C	0.895376	0.499954	0.388010
C39	C	0.301350	-0.000053	-0.110337
C40	C	0.801350	0.499947	0.389663
C41	C	0.662847	-0.000036	-0.116693
C42	C	1.162847	0.499964	0.383307
C43	C	1.032502	-0.452048	-0.163954
C44	C	1.532502	0.047952	0.336046
C45	C	1.032511	-0.548029	-0.163948
C46	C	1.532511	-0.048029	0.336052
C47	C	0.931693	-0.548041	-0.063064
C48	C	1.431693	-0.048041	0.436936
C49	C	0.931690	-0.452061	-0.063066
C50	C	1.431690	0.047939	0.436934
C51	C	0.982093	-0.404067	-0.113515
C52	C	1.482093	0.095933	0.386485
C53	C	0.982105	-0.596028	-0.113508
C54	C	1.482105	-0.096028	0.386492
C55	C	0.982114	-0.700095	-0.113501
C56	C	1.482114	-0.200095	0.386499
C57	C	0.982085	-0.299993	-0.113521
C58	C	1.482085	0.200007	0.386479
C59	C	1.134101	-0.000055	-0.107404
C60	C	1.634101	0.499945	0.392596
C61	C	1.226397	-0.000054	-0.109019
C62	C	1.726397	0.499946	0.390981
C63	C	0.988206	-0.000058	0.038491
C64	C	1.488206	0.499942	0.538491
C65	C	0.986591	-0.000059	0.130786
C66	C	1.486591	0.499941	0.630786
N67	N	0.982118	0.216947	-0.113498
N68	N	1.482118	0.716947	0.386502
C69	C	0.975984	-0.000035	-0.265521
C70	C	1.475984	0.499965	0.234479
C71	C	0.977600	-0.000028	-0.357816
C72	C	1.477600	0.499972	0.142184
C73	C	1.058599	-0.000049	0.353059
C74	C	1.558599	0.499951	0.853059
C75	C	1.057075	-0.000041	0.439779
C76	C	1.557075	0.499959	0.939779
C77	C	0.905586	-0.000036	0.419905
C78	C	1.405586	0.499964	0.919905
C79	C	0.907111	-0.000037	0.333186
C80	C	1.407111	0.499963	0.833186
C81	C	0.983620	-0.000048	0.299766
C82	C	1.483620	0.499952	0.799766
C83	C	0.980571	-0.000039	0.473205
C84	C	1.480571	0.499961	0.973205
C85	C	0.978918	-0.000031	0.567231
C86	C	1.478918	0.499969	1.067231
C87	C	0.985273	-0.000055	0.205734
C88	C	1.485273	0.499945	0.705734
H89	H	0.542730	-0.000035	-0.252317
H90	H	1.042730	0.499965	0.247683
C91	C	0.886875	-0.695174	-0.018316
C92	C	1.386875	-0.195174	0.481684
C93	C	0.876282	-0.600796	-0.007619
C94	C	1.376282	-0.100796	0.492381
H95	H	0.852659	-0.727739	0.015910
H96	H	1.352659	-0.227739	0.515910
H97	H	0.943751	-0.710932	-0.002908
H98	H	1.443751	-0.210932	0.497092
H99	H	0.871383	-0.710859	-0.075204
H100	H	1.371383	-0.210859	0.424796
H101	H	0.891780	-0.585110	0.049269
H102	H	1.391780	-0.085110	0.549269
H103	H	0.819393	-0.585032	-0.023022
H104	H	1.319393	-0.085032	0.476978
H105	H	1.073560	-0.587091	-0.205019
H106	H	1.573560	-0.087091	0.294981
H107	H	0.846050	-0.000033	0.289792
H108	H	1.346050	0.499967	0.789792
C109	C	1.077258	-0.304913	-0.208759
C110	C	1.577258	0.195087	0.291241
C111	C	1.087908	-0.399291	-0.219403
C112	C	1.587908	0.100709	0.280597
H113	H	1.111462	-0.272347	-0.242996
H114	H	1.611462	0.227653	0.257004
H115	H	1.092722	-0.289186	-0.151884
H116	H	1.592722	0.210814	0.348116
H117	H	1.020367	-0.289199	-0.224194
H118	H	1.520367	0.210801	0.275806
H119	H	1.144798	-0.415005	-0.203962
H120	H	1.644798	0.084995	0.296038
H121	H	1.072449	-0.415024	-0.276290
H122	H	1.572449	0.084976	0.223710
H123	H	0.890639	-0.412994	-0.021988
H124	H	1.390639	0.087006	0.478012
C125	C	1.208185	-0.000037	0.381417
C126	C	1.708185	0.499963	0.881417
C127	C	1.142696	-0.000045	0.316322
C128	C	1.642696	0.499955	0.816322
H129	H	1.260103	-0.000025	0.358737
H130	H	1.760103	0.499975	0.858737
H131	H	1.204440	-0.053208	0.414825
H132	H	1.704440	0.446792	0.914825
H133	H	1.204430	0.053139	0.414827
H134	H	1.704430	0.553139	0.914827
H135	H	1.146447	-0.053224	0.282915
H136	H	1.646447	0.446776	0.782915
H137	H	1.146442	0.053132	0.282900
H138	H	1.646442	0.553132	0.782900
C139	C	1.143255	0.078349	0.548817
C140	C	1.643255	0.578349	1.048817
C141	C	1.139496	-0.000041	0.498357
C142	C	1.639496	0.499959	0.998357
H143	H	1.194144	0.078351	0.584975
H144	H	1.694144	0.578351	1.084975
H145	H	1.097482	0.078346	0.581133
H146	H	1.597482	0.578346	1.081133
H147	H	1.140702	0.131513	0.514559
H148	H	1.640702	0.631513	1.014559
H149	H	1.142042	-0.053206	0.532614
H150	H	1.642042	0.446794	1.032614
H151	H	1.185281	-0.000047	0.466038
H152	H	1.685281	0.499953	0.966038
C153	C	0.756000	-0.000020	0.391549
C154	C	1.256000	0.499980	0.891549
C155	C	0.821490	-0.000027	0.456643
C156	C	1.321490	0.499973	0.956643
H157	H	0.704082	-0.000009	0.414230
H158	H	1.204082	0.499991	0.914230
H159	H	0.759739	-0.053191	0.358143
H160	H	1.259739	0.446809	0.858143
H161	H	0.759758	0.053157	0.358137
H162	H	1.259758	0.553157	0.858137
H163	H	0.817735	-0.053207	0.490052
H164	H	1.317735	0.446793	0.990052
H165	H	0.817749	0.053150	0.490063
H166	H	1.317749	0.553150	0.990063
H167	H	0.385413	-0.000043	-0.249550
H168	H	0.885413	0.499957	0.250450
C169	C	0.324566	-0.000046	0.032597
C170	C	0.824566	0.499954	0.532597
C171	C	0.411936	-0.000053	0.047090
C172	C	0.911936	0.499947	0.547090
H173	H	0.301888	-0.000038	0.084517
H174	H	0.801888	0.499962	0.584517
H175	H	0.306272	-0.053215	0.001732
H176	H	0.806272	0.446785	0.501732
H177	H	0.306285	0.053133	0.001724
H178	H	0.806285	0.553133	0.501724
H179	H	0.430218	-0.053235	0.077958
H180	H	0.930218	0.446765	0.577958
H181	H	0.430238	0.053122	0.077968
H182	H	0.930238	0.553122	0.577968
C183	C	0.546337	-0.000050	0.111369
C184	C	1.046337	0.499950	0.611369
C185	C	0.593982	-0.000052	0.043893
C186	C	1.093982	0.499948	0.543893
H187	H	0.582508	-0.000047	0.162250
H188	H	1.082508	0.499953	0.662250
H189	H	0.512099	-0.053220	0.108816
H190	H	1.012099	0.446780	0.608816
H191	H	0.512101	0.053127	0.108810
H192	H	1.012101	0.553127	0.608810
H193	H	0.628213	-0.053234	0.046449
H194	H	1.128213	0.446766	0.546449
H195	H	0.628234	0.053123	0.046448
H196	H	1.128234	0.553123	0.546448
