data_functionalizedCrystal
_audit_creation_method	'MofGen! by Chris Wilmer'
_symmetry_space_group_name_H-M	'P1'
_symmetry_Int_Tables_number	1
_symmetry_cell_setting	triclinic
loop_
_symmetry_equiv_pos_as_xyz
  x,y,z
_cell_length_a	19.188905
_cell_length_b	10.654550
_cell_length_c	9.730223
_cell_angle_alpha	89.998861
_cell_angle_beta	90.009929
_cell_angle_gamma	83.809729
loop_
_atom_site_label
_atom_site_type_symbol
_atom_site_fract_x
_atom_site_fract_y
_atom_site_fract_z
O1	O	0.927179	0.156622	0.114513
O2	O	0.724004	0.177760	0.114466
O3	O	0.830263	-0.015648	0.114486
O4	O	0.820920	0.350030	0.114494
O5	O	0.830256	-0.015637	-0.114094
O6	O	0.723997	0.177771	-0.114114
O7	O	0.927172	0.156632	-0.114067
Zn8	Zn	0.825583	0.167203	-0.150382
Zn9	Zn	0.825592	0.167189	0.150782
O10	O	0.820913	0.350040	-0.114086
C11	C	0.829573	-0.062426	0.000197
C12	C	0.827521	-0.201826	0.000201
C13	C	0.697984	0.177086	0.000170
C14	C	0.620466	0.175047	0.000152
C15	C	0.890085	-0.282645	0.000212
C16	C	0.888152	-0.413625	0.000221
C17	C	0.761086	-0.382952	0.000203
C18	C	0.763020	-0.251975	0.000204
C19	C	0.963445	-0.300355	0.000216
C20	C	0.961512	-0.431335	0.000225
C21	C	0.584071	0.174061	0.124754
C22	C	0.511235	0.172131	0.124771
C23	C	0.474798	0.171162	0.000179
C24	C	0.511200	0.172154	-0.124440
C25	C	0.584034	0.174097	-0.124454
N26	N	0.365287	0.096653	-0.092545
N27	N	0.296098	0.094804	-0.092524
C28	C	0.255353	0.165311	0.000212
N29	N	0.286411	0.237721	0.092946
N30	N	0.355607	0.239563	0.092929
C31	C	0.395821	0.169056	0.000179
C32	C	0.139981	0.162235	0.124841
C33	C	0.067143	0.160313	0.124853
C34	C	0.067110	0.160323	-0.124362
C35	C	0.139946	0.162258	-0.124370
C36	C	0.176377	0.163208	0.000235
C37	C	0.953191	0.157306	0.000232
C38	C	1.030710	0.159345	0.000259
C39	C	0.821602	0.396818	0.000205
C40	C	0.823655	0.536218	0.000210
N41	N	0.825582	0.167212	-0.355919
C42	C	0.868293	0.243176	-0.427846
C43	C	0.868304	0.243152	-0.571729
C44	C	0.782886	0.091197	-0.571745
C45	C	0.782880	0.091215	-0.427865
C46	C	0.917606	0.330910	-0.427838
C47	C	0.917616	0.330886	-0.571721
N48	N	0.825599	0.167170	0.356318
H49	H	0.712074	-0.186175	0.000215
C50	C	0.180060	0.163292	0.261895
H51	H	0.228652	0.164572	0.244042
H52	H	0.163157	0.236187	0.313098
H53	H	0.173106	0.089748	0.313089
C54	C	0.735913	0.007617	-0.650890
H55	H	0.742031	0.018489	-0.746882
H56	H	0.748469	-0.078363	-0.627287
H57	H	0.688253	0.031182	-0.627339
H58	H	0.481528	0.171368	-0.225884
H59	H	0.037511	0.159518	0.226324
H60	H	0.037443	0.159541	-0.225808
C61	C	0.991990	0.287659	-0.375030
H62	H	0.991983	0.287693	-0.277392
H63	H	1.006344	0.204828	-0.407535
H64	H	1.023531	0.343801	-0.407568
H65	H	0.983686	-0.477455	0.098925
H66	H	0.708572	-0.423800	0.000207
C67	C	0.887921	0.459292	-0.367574
H68	H	0.874709	0.516452	-0.440301
H69	H	0.848069	0.448609	-0.312639
H70	H	0.922679	0.492027	-0.312618
H71	H	0.992142	-0.271613	0.095876
H72	H	0.481597	0.171331	0.226241
H73	H	0.169579	0.163052	-0.225835
C74	C	0.988654	0.276067	-0.631971
H75	H	1.020283	0.251677	-0.559239
H76	H	0.982275	0.204497	-0.686914
H77	H	1.007233	0.338224	-0.686918
H78	H	0.613666	0.174900	-0.225923
H79	H	0.900421	0.430287	-0.610795
C80	C	0.994996	-0.252876	-0.133099
H81	H	0.995252	-0.163856	-0.128559
H82	H	1.041628	-0.291670	-0.143644
H83	H	0.967557	-0.273791	-0.209348
C84	C	0.998837	-0.488546	-0.128995
H85	H	1.015493	-0.423192	-0.182152
H86	H	1.037221	-0.547359	-0.102427
H87	H	0.966814	-0.530366	-0.182142
C88	C	0.624141	0.175124	0.261814
H89	H	0.592028	0.174272	0.336026
H90	H	0.657534	0.102671	0.266993
H91	H	0.647572	0.249109	0.266989
H92	H	0.748108	0.029345	-0.369307
