data_functionalizedCrystal
_audit_creation_method	'MofGen! by Chris Wilmer'
_symmetry_space_group_name_H-M	'P1'
_symmetry_Int_Tables_number	1
_symmetry_cell_setting	triclinic
loop_
_symmetry_equiv_pos_as_xyz
  x,y,z
_cell_length_a	17.077404
_cell_length_b	13.897441
_cell_length_c	17.077402
_cell_angle_alpha	90.033015
_cell_angle_beta	89.979147
_cell_angle_gamma	89.979346
loop_
_atom_site_label
_atom_site_type_symbol
_atom_site_fract_x
_atom_site_fract_y
_atom_site_fract_z
Zn1	Zn	1.200072	-0.545363	0.312526
Zn2	Zn	1.700072	-0.045363	0.812526
Zn3	Zn	1.199974	-0.384057	0.443808
Zn4	Zn	1.699974	0.115943	0.943808
Zn5	Zn	1.068799	-0.384081	0.312555
Zn6	Zn	1.568799	0.115919	0.812555
Zn7	Zn	1.068772	-0.545310	0.443749
Zn8	Zn	1.568772	-0.045310	0.943749
O9	O	1.134404	-0.464703	0.378159
O10	O	1.634404	0.035297	0.878159
O11	O	1.309906	-0.523977	0.329953
O12	O	1.809906	-0.023977	0.829953
O13	O	1.182544	-0.249079	0.426434
O14	O	1.682544	0.250921	0.926434
O15	O	1.086265	-0.405508	0.202705
O16	O	1.586265	0.094492	0.702705
O17	O	1.309834	-0.405467	0.426405
O18	O	1.809834	0.094533	0.926405
O19	O	1.182711	-0.524001	0.202683
O20	O	1.682711	-0.024001	0.702683
O21	O	1.086170	-0.249097	0.330004
O22	O	1.586170	0.250903	0.830004
O23	O	0.958948	-0.405457	0.329946
O24	O	1.458948	0.094543	0.829946
O25	O	1.086219	-0.680299	0.426304
O26	O	1.586219	-0.180299	0.926304
O27	O	0.958929	-0.523911	0.426333
O28	O	1.458929	-0.023911	0.926333
O29	O	1.182685	-0.680338	0.329895
O30	O	1.682685	-0.180338	0.829895
O31	O	1.182518	-0.405416	0.553647
O32	O	1.682518	0.094584	1.053647
O33	O	1.086124	-0.523888	0.553604
O34	O	1.586124	-0.023888	1.053604
C35	C	0.930457	-0.464681	0.378137
C36	C	1.430457	0.035319	0.878137
C37	C	0.843207	-0.464695	0.378147
C38	C	1.343207	0.035305	0.878147
C39	C	0.802255	-0.526498	0.328013
C40	C	1.302255	-0.026498	0.828013
C41	C	0.720274	-0.526502	0.328018
C42	C	1.220274	-0.026502	0.828018
C43	C	0.679247	-0.464708	0.378161
C44	C	1.179247	0.035292	0.878161
C45	C	0.720205	-0.402899	0.428297
C46	C	1.220205	0.097101	0.928297
C47	C	0.802184	-0.402890	0.428287
C48	C	1.302184	0.097110	0.928287
C49	C	0.549335	-0.402923	0.428315
C50	C	1.049335	0.097077	0.928315
C51	C	0.467350	-0.402932	0.428326
C52	C	0.967350	0.097068	0.928326
C53	C	0.467425	-0.526535	0.328045
C54	C	0.967425	-0.026535	0.828045
C55	C	0.549404	-0.526526	0.328036
C56	C	1.049404	-0.026526	0.828036
C57	C	0.590356	-0.464718	0.378173
C58	C	1.090356	0.035282	0.878173
C59	C	1.134460	-0.716296	0.378090
C60	C	1.634460	-0.216296	0.878090
C61	C	1.134484	-0.823510	0.378060
C62	C	1.634484	-0.323510	0.878060
C63	C	1.134505	-1.019805	0.378007
C64	C	1.634505	-0.519805	0.878007
C65	C	1.134491	-0.910573	0.378039
C66	C	1.634491	-0.410573	0.878039
C67	C	1.339149	-0.464725	0.378182
C68	C	1.839149	0.035275	0.878182
C69	C	1.426398	-0.464735	0.378192
C70	C	1.926398	0.035265	0.878192
C71	C	1.134329	-0.464665	0.582107
C72	C	1.634329	0.035335	1.082107
C73	C	1.134368	-0.464680	0.669357
C74	C	1.634368	0.035320	1.169357
C75	C	1.134394	-0.214089	0.378172
C76	C	1.634394	0.285911	0.878172
C77	C	1.134522	-0.106875	0.377980
C78	C	1.634522	0.393125	0.877980
C79	C	1.134502	-0.464763	0.173415
C80	C	1.634502	0.035237	0.673415
C81	C	1.134543	-0.464788	0.086165
C82	C	1.634543	0.035212	0.586165
C83	C	1.184611	-0.403058	0.710344
C84	C	1.684611	0.096942	1.210344
C85	C	1.184650	-0.403083	0.792324
C86	C	1.684650	0.096917	1.292324
C87	C	1.134440	-0.464725	0.833316
C88	C	1.634440	0.035275	1.333316
C89	C	1.084195	-0.526354	0.792324
C90	C	1.584195	-0.026354	1.292324
C91	C	1.084161	-0.526334	0.710345
C92	C	1.584161	-0.026334	1.210345
C93	C	1.084267	-0.526391	0.963194
C94	C	1.584267	-0.026391	1.463194
C95	C	1.084300	-0.526410	1.045179
C96	C	1.584300	-0.026410	1.545179
C97	C	1.184756	-0.403140	1.045173
C98	C	1.684756	0.096860	1.545173
C99	C	1.184723	-0.403120	0.963194
C100	C	1.684723	0.096880	1.463194
C101	C	1.134476	-0.464747	0.922207
C102	C	1.634476	0.035253	1.422207
H103	H	0.433948	-0.352615	0.469157
H104	H	0.933948	0.147385	0.969157
C105	C	0.594381	-0.334944	0.483472
C106	C	1.094381	0.165056	0.983472
H107	H	0.558207	-0.298152	0.513345
H108	H	1.058207	0.201848	1.013345
H109	H	0.626358	-0.292976	0.453408
H110	H	1.126358	0.207024	0.953408
H111	H	0.626360	-0.371780	0.517707
H112	H	1.126360	0.128220	1.017707
H113	H	1.225672	-0.352964	1.078549
H114	H	1.725672	0.147036	1.578549
C115	C	0.847231	-0.334915	0.483440
C116	C	1.347231	0.165085	0.983440
H117	H	0.811057	-0.298121	0.513312
H118	H	1.311057	0.201879	1.013312
H119	H	0.879205	-0.292949	0.453371
H120	H	1.379205	0.207051	0.953371
H121	H	0.879213	-0.371745	0.517677
H122	H	1.379213	0.128255	1.017677
H123	H	0.686794	-0.352580	0.469121
H124	H	1.186794	0.147420	0.969121
H125	H	0.582807	-0.576850	0.287209
H126	H	1.082807	-0.076850	0.787209
C127	C	0.422382	-0.594520	0.272894
C128	C	0.922382	-0.094520	0.772894
H129	H	0.367683	-0.585670	0.280073
H130	H	0.867683	-0.085670	0.780073
H131	H	0.435837	-0.659302	0.284448
H132	H	0.935837	-0.159302	0.784448
H133	H	0.435827	-0.580517	0.220134
H134	H	0.935827	-0.080517	0.720134
C135	C	1.239836	-0.335246	0.665256
C136	C	1.739836	0.164754	1.165256
H137	H	1.232615	-0.344049	0.610561
H138	H	1.732615	0.155951	1.110561
H139	H	1.292579	-0.349418	0.678639
H140	H	1.792579	0.150582	1.178639
H141	H	1.228372	-0.270425	0.678745
H142	H	1.728372	0.229575	1.178745
H143	H	1.225603	-0.352921	0.929818
H144	H	1.725603	0.147079	1.429818
H145	H	1.225562	-0.352903	0.825692
H146	H	1.725562	0.147097	1.325692
H147	H	1.043430	-0.576623	1.078552
H148	H	1.543430	-0.076623	1.578552
C149	C	1.028966	-0.594165	0.837410
C150	C	1.528966	-0.094165	1.337410
H151	H	0.999044	-0.630869	0.801256
H152	H	1.499044	-0.130869	1.301256
H153	H	0.994792	-0.557240	0.869440
H154	H	1.494792	-0.057240	1.369440
H155	H	1.058996	-0.636236	0.869338
H156	H	1.558996	-0.136236	1.369338
C157	C	0.847378	-0.594472	0.272855
C158	C	1.347378	-0.094472	0.772855
H159	H	0.811244	-0.631273	0.242993
H160	H	1.311244	-0.131273	0.742993
H161	H	0.879366	-0.636432	0.302918
H162	H	1.379366	-0.136432	0.802918
H163	H	0.879351	-0.557639	0.238609
H164	H	1.379351	-0.057639	0.738609
C165	C	0.675231	-0.594487	0.272873
C166	C	1.175231	-0.094487	0.772873
H167	H	0.711406	-0.631296	0.243015
H168	H	1.211406	-0.131296	0.743015
H169	H	0.643247	-0.557670	0.238635
H170	H	1.143247	-0.057670	0.738635
H171	H	0.643258	-0.636454	0.302951
H172	H	1.143258	-0.136454	0.802951
C173	C	1.028895	-0.594119	0.665260
C174	C	1.528895	-0.094119	1.165260
H175	H	0.998992	-0.630830	0.701413
H176	H	1.498992	-0.130830	1.201413
H177	H	1.058894	-0.636171	0.633231
H178	H	1.558894	-0.136171	1.133231
H179	H	0.994691	-0.557174	0.633328
H180	H	1.494691	-0.057174	1.133328
H181	H	1.043354	-0.576578	0.929825
H182	H	1.543354	-0.076578	1.429825
