data_functionalizedCrystal
_audit_creation_method	'MofGen! by Chris Wilmer'
_symmetry_space_group_name_H-M	'P1'
_symmetry_Int_Tables_number	1
_symmetry_cell_setting	triclinic
loop_
_symmetry_equiv_pos_as_xyz
  x,y,z
_cell_length_a	19.077105
_cell_length_b	12.759400
_cell_length_c	19.076919
_cell_angle_alpha	87.724458
_cell_angle_beta	89.923776
_cell_angle_gamma	87.711155
loop_
_atom_site_label
_atom_site_type_symbol
_atom_site_fract_x
_atom_site_fract_y
_atom_site_fract_z
Zn1	Zn	1.058328	-0.508276	0.440440
Zn2	Zn	1.062987	-0.677203	0.322941
Zn3	Zn	0.945544	-0.494202	0.318233
Zn4	Zn	0.940808	-0.676570	0.435693
O5	O	1.001917	-0.589063	0.379327
O6	O	1.157278	-0.536840	0.428810
O7	O	1.051339	-0.647303	0.223985
O8	O	0.960537	-0.349051	0.334460
O9	O	1.160701	-0.660950	0.342484
O10	O	1.043399	-0.359391	0.424245
O11	O	0.965055	-0.512852	0.220526
O12	O	0.846583	-0.512238	0.329857
O13	O	0.952466	-0.659870	0.534655
O14	O	0.843104	-0.646223	0.416155
O15	O	1.038807	-0.536226	0.538142
O16	O	1.046747	-0.824137	0.337881
O17	O	0.956984	-0.823672	0.420720
C18	C	0.819347	-0.577635	0.371981
C19	C	0.741242	-0.572773	0.368855
C20	C	0.702758	-0.640344	0.412246
C21	C	0.629371	-0.635762	0.409312
C22	C	0.594468	-0.563612	0.362983
C23	C	0.632957	-0.496033	0.319590
C24	C	0.706344	-0.500611	0.322528
C25	C	0.375179	-0.542424	0.349390
C26	C	0.301787	-0.537853	0.346453
C27	C	0.298205	-0.677581	0.436177
C28	C	0.371593	-0.682157	0.439108
C29	C	0.410076	-0.614575	0.395717
N30	N	0.519454	-0.558929	0.359982
N31	N	0.485089	-0.619254	0.398723
C32	C	1.001876	-0.862027	0.379313
C33	C	1.001921	-0.978807	0.379333
C34	C	1.045046	-1.038965	0.426121
C35	C	1.045085	-1.148692	0.426142
C36	C	0.958872	-1.138095	0.332579
C37	C	0.958830	-1.028370	0.332563
C38	C	1.066869	-1.304878	0.510064
C39	C	1.110005	-1.365039	0.556847
C40	C	1.178114	-1.334240	0.570443
C41	C	1.203101	-1.243281	0.537247
C42	C	1.159969	-1.183126	0.490459
C43	C	1.091850	-1.213924	0.476875
C44	C	0.937054	-0.872182	0.248640
C45	C	0.893925	-0.812024	0.201848
C46	C	0.825815	-0.842821	0.188245
C47	C	0.800831	-0.933783	0.221429
C48	C	0.843960	-0.993941	0.268221
C49	C	0.912069	-0.963136	0.281825
C50	C	1.185199	-0.600536	0.386702
C51	C	1.263303	-0.605425	0.389845
C52	C	0.994588	-0.599547	0.562607
C53	C	0.991466	-0.604015	0.640711
C54	C	1.001976	-0.315035	0.379357
C55	C	1.002002	-0.198260	0.379370
C56	C	1.009257	-0.578546	0.196761
C57	C	1.012516	-0.573790	0.118663
C58	C	1.034949	-0.541742	0.679221
C59	C	1.032006	-0.545935	0.752607
C60	C	0.985583	-0.612408	0.787482
C61	C	0.942095	-0.674684	0.748966
C62	C	0.945034	-0.670484	0.675582
C63	C	0.971967	-0.631866	1.006763
C64	C	0.969032	-0.636064	1.080154
C65	C	1.058944	-0.507313	1.083789
C66	C	1.061882	-0.503124	1.010402
C67	C	1.018391	-0.565395	0.971894
N68	N	0.982575	-0.616699	0.862494
N69	N	1.021396	-0.561099	0.896883
H70	H	0.598040	-0.690787	0.444646
H71	H	0.737677	-0.445582	0.287198
H72	H	0.923790	-1.178462	0.294500
H73	H	1.067417	-0.495229	0.783958
H74	H	0.992511	-0.847088	0.259723
H75	H	1.011406	-1.329957	0.499004
H76	H	0.931226	-0.690196	1.108546
H77	H	1.072754	-0.487616	0.650831
H78	H	0.909618	-0.721182	0.644227
H79	H	0.823611	-1.068006	0.295241
H80	H	0.904293	-0.728803	0.777367
H81	H	0.745370	-0.958860	0.210351
H82	H	0.790701	-0.793831	0.150141
H83	H	1.213236	-1.383231	0.608535
H84	H	0.936564	-0.682588	0.975419
H85	H	0.400006	-0.740911	0.476832
H86	H	1.099687	-0.448998	0.982013
H87	H	1.180314	-1.109070	0.463429
H88	H	0.406503	-0.487401	0.314053
H89	H	0.731171	-0.699100	0.449970
H90	H	1.094351	-0.456614	1.115150
H91	H	0.914275	-0.737962	0.174825
H92	H	0.266865	-0.732601	0.471504
H93	H	0.273372	-0.479088	0.308731
H94	H	0.604534	-0.437283	0.281871
H95	H	1.089654	-1.439098	0.583875
H96	H	1.080133	-0.998614	0.464205
H97	H	1.258566	-1.218219	0.548315
