data_functionalizedCrystal
_audit_creation_method	'MofGen! by Chris Wilmer'
_symmetry_space_group_name_H-M	'P1'
_symmetry_Int_Tables_number	1
_symmetry_cell_setting	triclinic
loop_
_symmetry_equiv_pos_as_xyz
  x,y,z
_cell_length_a	12.594517
_cell_length_b	12.594516
_cell_length_c	12.759393
_cell_angle_alpha	89.971950
_cell_angle_beta	89.986792
_cell_angle_gamma	90.011939
loop_
_atom_site_label
_atom_site_type_symbol
_atom_site_fract_x
_atom_site_fract_y
_atom_site_fract_z
Zn1	Zn	1.627285	-0.423808	-0.593821
Zn2	Zn	1.627171	-0.601824	-0.418149
Zn3	Zn	1.449284	-0.423847	-0.418180
Zn4	Zn	1.449271	-0.601732	-0.593810
O5	O	1.538253	-0.512802	-0.505990
O6	O	1.776216	-0.447444	-0.570510
O7	O	1.603531	-0.578269	-0.271132
O8	O	1.472949	-0.274896	-0.441497
O9	O	1.776131	-0.578231	-0.441444
O10	O	1.603726	-0.274867	-0.570540
O11	O	1.472838	-0.447510	-0.271155
O12	O	1.300336	-0.447421	-0.441486
O13	O	1.472928	-0.578075	-0.740832
O14	O	1.300327	-0.578113	-0.570520
O15	O	1.603714	-0.447355	-0.740841
O16	O	1.603519	-0.750757	-0.441433
O17	O	1.472817	-0.750690	-0.570490
C18	C	1.261712	-0.512762	-0.506006
C19	C	1.143406	-0.512771	-0.506038
C20	C	1.074179	-0.583993	-0.576084
C21	C	1.003371	-0.486946	-0.601920
C22	C	1.003415	-0.609897	-0.480178
C23	C	1.074157	-0.415672	-0.531924
C24	C	1.074207	-0.538689	-0.410137
C25	C	1.003431	-0.441575	-0.435937
C26	C	1.538183	-0.789343	-0.505980
C27	C	1.538250	-0.907649	-0.506010
C28	C	1.467155	-0.976904	-0.576155
C29	C	1.441218	-1.047770	-0.480292
C30	C	1.564284	-1.047581	-0.601890
C31	C	1.512263	-0.976957	-0.410096
C32	C	1.635373	-0.976762	-0.531759
C33	C	1.609474	-1.047596	-0.435830
C34	C	1.815873	-0.512844	-0.505975
C35	C	1.934179	-0.512861	-0.505968
C36	C	1.538332	-0.512700	-0.780023
C37	C	1.538366	-0.512657	-0.896800
C38	C	1.538352	-0.235181	-0.506023
C39	C	1.538394	-0.116876	-0.506037
C40	C	1.606472	-0.444580	-0.951668
C41	C	1.606490	-0.444534	-1.061392
C42	C	1.470294	-0.580651	-1.061371
C43	C	1.470271	-0.580691	-0.951649
C44	C	1.644597	-0.318958	-1.211360
C45	C	1.712719	-0.250891	-1.266232
C46	C	1.816574	-0.234580	-1.230626
C47	C	1.852329	-0.286351	-1.140150
C48	C	1.784212	-0.354427	-1.085284
C49	C	1.680342	-0.370718	-1.120888
C50	C	1.432175	-0.706268	-0.801679
C51	C	1.364063	-0.774349	-0.746811
C52	C	1.260206	-0.790671	-0.782415
C53	C	1.224455	-0.738918	-0.872894
C54	C	1.292567	-0.670837	-0.927762
C55	C	1.396423	-0.654513	-0.892151
C56	C	1.538234	-0.512827	-0.233023
C57	C	1.538407	-0.512571	-0.116246
H58	H	0.972257	-0.465056	-0.682991
H59	H	1.105246	-0.644107	-0.635396
N60	N	1.115443	-0.567725	-0.302777
H61	H	1.160726	-0.633689	-0.307967
H62	H	1.159506	-0.507254	-0.274320
N63	N	1.744054	-0.935412	-0.560641
H64	H	1.743355	-0.855228	-0.559739
H65	H	1.797963	-0.962323	-0.508413
N66	N	1.332515	-1.089101	-0.451440
H67	H	1.312354	-1.062304	-0.379546
H68	H	1.278872	-1.063389	-0.504516
H69	H	1.105101	-0.333547	-0.553859
H70	H	1.393184	-0.816499	-0.673144
H71	H	1.813324	-0.396582	-1.011623
H72	H	1.586245	-1.078604	-0.682964
N73	N	0.962543	-0.361756	-0.357433
H74	H	0.917363	-0.307217	-0.394571
H75	H	0.918450	-0.399450	-0.302747
H76	H	1.204754	-0.846119	-0.737736
N77	N	1.387386	-0.935761	-0.654613
H78	H	1.406242	-0.962552	-0.726853
H79	H	1.314121	-0.961599	-0.634943
H80	H	1.516742	-0.692975	-0.772676
H81	H	1.683598	-0.208738	-1.339898
N82	N	1.964351	-0.268767	-1.101752
H83	H	2.002076	-0.217784	-1.150236
H84	H	1.962357	-0.238078	-1.028664
H85	H	1.669658	-1.078440	-0.376453
N86	N	0.962253	-0.718645	-0.451232
H87	H	0.987992	-0.772348	-0.504220
H88	H	0.989141	-0.738641	-0.379318
H89	H	1.872039	-0.179157	-1.275310
H90	H	1.560027	-0.332225	-1.240354
N91	N	1.679911	-0.371203	-0.892508
H92	H	1.723057	-0.328069	-0.943920
H93	H	1.636596	-0.321956	-0.846987
H94	H	1.490207	-0.946063	-0.329000
N95	N	1.396836	-0.654011	-1.120529
H96	H	1.407179	-0.643654	-1.198364
H97	H	1.413350	-0.730044	-1.101348
N98	N	1.254014	-0.615015	-1.025353
H99	H	1.177884	-0.635684	-1.039587
H100	H	1.258659	-0.535668	-1.014898
H101	H	1.139888	-0.752212	-0.901886
