data_functionalizedCrystal
_audit_creation_method	'MofGen! by Chris Wilmer'
_symmetry_space_group_name_H-M	'P1'
_symmetry_Int_Tables_number	1
_symmetry_cell_setting	triclinic
loop_
_symmetry_equiv_pos_as_xyz
  x,y,z
_cell_length_a	19.188930
_cell_length_b	10.489741
_cell_length_c	17.666332
_cell_angle_alpha	89.996088
_cell_angle_beta	90.006765
_cell_angle_gamma	96.158022
loop_
_atom_site_label
_atom_site_type_symbol
_atom_site_fract_x
_atom_site_fract_y
_atom_site_fract_z
O1	O	0.098499	-1.691856	0.062911
O2	O	0.107745	-1.320453	0.062924
O3	O	0.001538	-1.516872	0.062902
O4	O	0.204706	-1.495437	0.062933
O5	O	0.001542	-1.516846	-0.062994
O6	O	0.107748	-1.320427	-0.062973
O7	O	0.098502	-1.691830	-0.062986
Cu8	Cu	0.103126	-1.506126	-0.074475
Cu9	Cu	0.103122	-1.506157	0.074413
O10	O	0.204709	-1.495411	-0.062964
C11	C	0.107048	-1.272924	-0.000023
C12	C	0.104959	-1.131341	-0.000019
C13	C	-0.024476	-1.516165	-0.000048
C14	C	-0.101994	-1.514081	-0.000055
C15	C	0.099199	-1.739359	-0.000037
C16	C	0.101288	-1.880941	-0.000036
C17	C	-0.146146	-1.629334	-0.000062
C18	C	-0.218983	-1.627376	-0.000050
C19	C	-0.247665	-1.510159	-0.000045
C20	C	-0.203503	-1.394892	-0.000034
C21	C	-0.130668	-1.396853	-0.000038
N22	N	-0.356269	-1.420553	-0.042887
N23	N	-0.425460	-1.418698	-0.042885
C24	C	-0.467113	-1.504244	-0.000030
N25	N	-0.436963	-1.591735	0.042812
N26	N	-0.367766	-1.593594	0.042806
C27	C	-0.326642	-1.508020	-0.000040
C28	C	-0.590244	-1.617382	-0.000023
C29	C	-0.663081	-1.615419	-0.000006
C30	C	-0.647600	-1.382932	0.000002
C31	C	-0.574764	-1.384898	-0.000007
C32	C	-0.546090	-1.502126	-0.000023
C33	C	0.230723	-1.496118	-0.000012
C34	C	0.308242	-1.498202	-0.000001
N35	N	0.103128	-1.506114	-0.179194
C36	C	0.037383	-1.064712	-0.000036
C37	C	0.069303	-0.971885	0.062041
C38	C	0.069323	-0.971893	-0.062084
C39	C	0.136908	-1.040378	0.062109
C40	C	0.136918	-1.040396	-0.062071
C41	C	0.168887	-0.947595	0.000021
C42	C	0.145866	-1.583295	-0.781240
C43	C	0.145873	-1.583282	-0.701992
C44	C	0.103115	-1.506169	-0.662376
C45	C	0.060360	-1.429037	-0.702013
C46	C	0.060359	-1.429043	-0.781259
N47	N	0.041933	-1.503080	-0.537960
N48	N	0.041936	-1.503083	-0.462679
C49	C	0.103114	-1.506146	-0.423612
N50	N	0.164292	-1.509232	-0.462668
N51	N	0.164288	-1.509236	-0.537956
C52	C	0.103111	-1.506154	-0.576446
C53	C	0.145878	-1.583252	-0.298054
C54	C	0.145886	-1.583230	-0.218805
C55	C	0.060366	-1.428992	-0.218828
C56	C	0.060364	-1.429007	-0.298075
C57	C	0.103119	-1.506143	-0.337684
N58	N	0.103114	-1.506179	0.179132
H59	H	-0.122805	-1.724790	-0.000073
Cl60	Cl	0.006618	-1.332038	-0.169032
Cl61	Cl	0.199620	-1.680256	-0.831029
Cl62	Cl	0.199628	-1.680215	-0.347851
H63	H	0.180704	-1.646024	-0.186541
Cl64	Cl	0.025164	-0.925038	-0.143113
H65	H	0.224498	-0.896927	0.000063
H66	H	-0.538814	-1.291047	-0.000005
H67	H	0.025548	-1.366217	-0.330341
H68	H	0.165489	-1.070792	-0.114548
H69	H	0.040709	-0.941520	0.114515
H70	H	-0.670952	-1.287492	0.000010
Cl71	Cl	0.199611	-1.680256	-0.652163
Cl72	Cl	-0.048397	-1.143290	0.000044
H73	H	0.165477	-1.070578	0.114650
Cl74	Cl	0.006610	-1.332089	-0.652211
H75	H	0.025544	-1.366243	-0.813524
H76	H	-0.254938	-1.721231	-0.000053
H77	H	-0.094719	-1.302998	-0.000032
Cl78	Cl	-0.554193	-1.764751	-0.000048
Cl79	Cl	-0.718588	-1.760322	-0.000011
Cl80	Cl	-0.239559	-1.247534	-0.000022
