data_functionalizedCrystal
_audit_creation_method	'MofGen! by Chris Wilmer'
_symmetry_space_group_name_H-M	'P1'
_symmetry_Int_Tables_number	1
_symmetry_cell_setting	triclinic
loop_
_symmetry_equiv_pos_as_xyz
  x,y,z
_cell_length_a	10.686285
_cell_length_b	17.639504
_cell_length_c	10.686551
_cell_angle_alpha	104.617801
_cell_angle_beta	80.915481
_cell_angle_gamma	83.986065
loop_
_atom_site_label
_atom_site_type_symbol
_atom_site_fract_x
_atom_site_fract_y
_atom_site_fract_z
Zn1	Zn	-0.009305	-1.262920	-1.121107
Zn2	Zn	-0.237907	-1.262856	-0.892582
Zn3	Zn	-0.075095	-1.121300	-0.859293
Zn4	Zn	-0.264361	-1.140143	-1.061829
O5	O	-0.146667	-1.196805	-0.983703
O6	O	-0.001025	-1.373536	-1.129532
O7	O	-0.232772	-1.236166	-0.707766
O8	O	0.108511	-1.132227	-0.904900
O9	O	-0.168978	-1.373489	-0.961636
O10	O	0.156847	-1.236275	-1.097253
O11	O	-0.113155	-1.132165	-0.683309
O12	O	-0.138806	-1.013175	-0.847420
O13	O	-0.214065	-1.164342	-1.250092
O14	O	-0.277859	-1.027019	-0.996222
O15	O	-0.026676	-1.254546	-1.293644
O16	O	-0.416295	-1.254437	-0.904156
O17	O	-0.435731	-1.164280	-1.028501
C18	C	-0.218343	-0.991414	-0.911777
C19	C	-0.249034	-0.903549	-0.881036
C20	C	0.086631	-0.614724	-1.217546
C21	C	0.057759	-0.532162	-1.188631
C22	C	-0.116887	-0.532113	-1.013580
C23	C	-0.088034	-0.614676	-1.042484
C24	C	0.013728	-0.655975	-1.144467
C25	C	-0.160937	-0.655928	-0.969405
C26	C	-0.132081	-0.738484	-0.998303
C27	C	-0.030322	-0.779789	-1.100279
C28	C	0.042584	-0.738532	-1.173364
C29	C	-0.262692	-0.614627	-0.867416
C30	C	-0.335595	-0.655879	-0.794338
C31	C	-0.306745	-0.738437	-0.823241
C32	C	-0.204986	-0.779741	-0.925217
C33	C	-0.379651	-0.779694	-0.750155
C34	C	-0.350795	-0.862250	-0.779052
C35	C	-0.176130	-0.862298	-0.954114
C36	C	-0.471347	-1.211419	-0.963544
C37	C	-0.610218	-1.217745	-0.954989
C38	C	0.179291	-1.182156	-1.003976
C39	C	0.318195	-1.175914	-1.012615
C40	C	-0.115982	-1.211553	-1.319952
C41	C	-0.102907	-1.217838	-1.463241
C42	C	-0.074694	-0.402997	-1.055906
C43	C	-0.043978	-0.490861	-1.086667
C44	C	-0.177126	-1.182155	-0.648783
C45	C	-0.189796	-1.176008	-0.505570
H46	H	-0.093270	-0.895926	-1.037163
H47	H	-0.462497	-0.746055	-0.667112
C48	C	-0.418609	-1.145215	-1.437236
C49	C	-0.303733	-1.121175	-1.406512
H50	H	-0.488949	-1.111367	-1.376068
H51	H	-0.424469	-1.142377	-1.523749
H52	H	-0.420322	-1.198201	-1.432704
H53	H	-0.302016	-1.068191	-1.411053
H54	H	-0.297872	-1.124005	-1.319977
C55	C	0.288802	-0.700780	-1.278682
C56	C	0.198483	-0.660128	-1.329656
H57	H	0.357846	-0.728813	-1.347895
H58	H	0.320313	-0.663946	-1.214310
H59	H	0.249502	-0.737160	-1.239291
H60	H	0.237781	-0.623743	-1.369039
H61	H	0.166971	-0.696965	-1.394052
H62	H	-0.410160	-0.895838	-0.719544
C63	C	-0.522895	-1.165842	-1.191092
C64	C	-0.621128	-1.121038	-1.088071
H65	H	-0.485438	-1.131963	-1.237680
H66	H	-0.459389	-1.191229	-1.156081
H67	H	-0.557247	-1.204711	-1.249396
H68	H	-0.586775	-1.082173	-1.029762
H69	H	-0.684645	-1.095638	-1.123082
H70	H	-0.655178	-1.258395	-0.899092
H71	H	-0.018512	-1.258464	-1.536630
H72	H	-0.006825	-0.847011	-1.123801
H73	H	0.125444	-0.772160	-1.256414
C74	C	0.195044	-0.432536	-1.184764
C75	C	0.137905	-0.486821	-1.268973
H76	H	0.244530	-0.404550	-1.234365
H77	H	0.130315	-0.396124	-1.119913
H78	H	0.249057	-0.460124	-1.142921
H79	H	0.083884	-0.459232	-1.310809
H80	H	0.202643	-0.523238	-1.333849
H81	H	-0.199738	-0.498475	-0.930541
C82	C	-0.324906	-0.503201	-0.946611
C83	C	-0.294426	-0.523880	-0.835649
H84	H	-0.344506	-0.447178	-0.926994
H85	H	-0.253874	-0.521887	-1.017793
H86	H	-0.397025	-0.526505	-0.970284
H87	H	-0.222301	-0.500580	-0.811981
H88	H	-0.365465	-0.505185	-0.764444
H89	H	-0.418446	-0.622241	-0.711299
