data_functionalizedCrystal
_audit_creation_method	'MofGen! by Chris Wilmer'
_symmetry_space_group_name_H-M	'P1'
_symmetry_Int_Tables_number	1
_symmetry_cell_setting	triclinic
loop_
_symmetry_equiv_pos_as_xyz
  x,y,z
_cell_length_a	14.853567
_cell_length_b	16.109301
_cell_length_c	14.586319
_cell_angle_alpha	90.005214
_cell_angle_beta	89.999465
_cell_angle_gamma	96.451794
loop_
_atom_site_label
_atom_site_type_symbol
_atom_site_fract_x
_atom_site_fract_y
_atom_site_fract_z
O1	O	1.196184	-0.108546	-0.076180
O2	O	1.696184	0.391454	0.423820
O3	O	0.933703	-0.121477	-0.076196
O4	O	1.433703	0.378523	0.423804
O5	O	1.072154	0.006009	-0.076178
O6	O	1.572154	0.506009	0.423822
O7	O	1.057733	-0.236033	-0.076198
O8	O	1.557733	0.263967	0.423802
O9	O	1.072145	0.006011	0.076302
O10	O	1.572145	0.506011	0.576302
O11	O	0.933694	-0.121475	0.076285
O12	O	1.433694	0.378525	0.576285
O13	O	1.196175	-0.108545	0.076301
O14	O	1.696175	0.391455	0.576301
Cu15	Cu	1.064933	-0.115010	0.090215
Cu16	Cu	1.564933	0.384990	0.590215
Cu17	Cu	1.064945	-0.115012	-0.090111
Cu18	Cu	1.564945	0.384988	0.409889
O19	O	1.057724	-0.236031	0.076283
O20	O	1.557724	0.263969	0.576283
C21	C	0.900111	-0.120890	0.000042
C22	C	1.400111	0.379110	0.500042
C23	C	0.800030	-0.119135	0.000036
C24	C	1.300030	0.380865	0.500036
C25	C	1.071566	0.036986	0.000062
C26	C	1.571566	0.536986	0.500062
C27	C	1.069814	0.129284	0.000064
C28	C	1.569814	0.629284	0.500064
N29	N	1.064932	-0.115008	0.217047
N30	N	1.564932	0.384992	0.717047
C31	C	0.387634	-0.035983	0.000064
C32	C	0.887634	0.464017	0.500064
C33	C	0.366102	-0.187440	0.000051
C34	C	0.866102	0.312560	0.500051
C35	C	0.460133	-0.189090	0.000047
C36	C	0.960133	0.310910	0.500047
C37	C	0.517919	-0.114187	0.000051
C38	C	1.017919	0.385813	0.500051
C39	C	0.481674	-0.037632	0.000058
C40	C	0.981674	0.462368	0.500058
C41	C	0.496386	-0.265644	0.000031
C42	C	0.996386	0.234356	0.500031
C43	C	0.590422	-0.267298	0.000027
C44	C	1.090422	0.232702	0.500027
C45	C	0.648210	-0.192393	0.000038
C46	C	1.148210	0.307607	0.500038
C47	C	0.611959	-0.115835	0.000045
C48	C	1.111959	0.384165	0.500045
C49	C	0.669745	-0.040931	0.000049
C50	C	1.169745	0.459069	0.500049
C51	C	0.633496	0.035628	0.000063
C52	C	1.133496	0.535628	0.500063
C53	C	0.539461	0.037273	0.000068
C54	C	1.039461	0.537273	0.500068
C55	C	0.742245	-0.194038	0.000033
C56	C	1.242245	0.305962	0.500033
C57	C	0.763785	-0.042580	0.000043
C58	C	1.263785	0.457420	0.500043
C59	C	1.229767	-0.109131	0.000060
C60	C	1.729767	0.390869	0.500060
C61	C	1.329848	-0.110887	0.000060
C62	C	1.829848	0.389113	0.500060
C63	C	1.058313	-0.267007	0.000040
C64	C	1.558313	0.232993	0.500040
C65	C	1.060064	-0.359305	0.000033
C66	C	1.560064	0.140695	0.500033
C67	C	1.147896	0.351446	0.000054
C68	C	1.647896	0.851446	0.500054
C69	C	1.146243	0.438169	0.000046
C70	C	1.646243	0.938169	0.500046
C71	C	0.981976	0.418525	0.000040
C72	C	1.481976	0.918525	0.500040
C73	C	0.983629	0.331804	0.000041
C74	C	1.483629	0.831804	0.500041
C75	C	1.066592	0.298267	0.000053
C76	C	1.566592	0.798267	0.500053
C77	C	1.063286	0.471711	0.000044
C78	C	1.563286	0.971711	0.500044
C79	C	1.061494	0.565740	0.000036
C80	C	1.561494	1.065740	0.500036
C81	C	1.068385	0.204233	0.000059
C82	C	1.568385	0.704233	0.500059
N83	N	1.064953	-0.115007	-0.216943
N84	N	1.564953	0.384993	0.283057
C85	C	1.126258	-0.058576	0.452061
C86	C	1.626258	0.441424	0.952061
C87	C	1.126261	-0.058574	0.548043
C88	C	1.626261	0.441426	1.048043
C89	C	1.003620	-0.171442	0.548036
C90	C	1.503620	0.328558	1.048036
C91	C	1.003614	-0.171439	0.452057
C92	C	1.503614	0.328561	0.952057
C93	C	1.064938	-0.115007	0.404072
C94	C	1.564938	0.384993	0.904072
C95	C	1.064947	-0.115008	0.596033
C96	C	1.564947	0.384992	1.096033
C97	C	1.064949	-0.115006	0.700100
C98	C	1.564949	0.384994	1.200100
C99	C	1.064935	-0.115008	0.299998
C100	C	1.564935	0.384992	0.799998
H101	H	0.680557	0.096614	0.000060
H102	H	1.180557	0.596614	0.500060
H103	H	0.449331	-0.326626	0.000019
H104	H	0.949331	0.173374	0.500019
O105	O	0.352277	0.038310	0.000036
O106	O	0.852277	0.538310	0.500036
C107	C	0.256889	0.023711	0.000069
C108	C	0.756889	0.523711	0.500069
H109	H	0.234785	-0.041145	-0.028804
H110	H	0.734785	0.458855	0.471196
H111	H	0.228025	0.072703	-0.044191
H112	H	0.728025	0.572703	0.455809
H113	H	0.230722	0.027769	0.073225
H114	H	0.730722	0.527769	0.573225
H115	H	1.176192	-0.012621	0.587113
H116	H	1.676192	0.487379	1.087113
H117	H	0.619928	-0.329636	0.000016
H118	H	1.119928	0.170364	0.500016
H119	H	0.953693	-0.217389	0.587115
H120	H	1.453693	0.282611	1.087115
H121	H	0.914430	0.445842	0.000032
H122	H	1.414430	0.945842	0.500032
H123	H	0.917418	0.288503	0.000037
H124	H	1.417418	0.788503	0.500037
O125	O	0.944134	-0.226377	0.405476
O126	O	1.444134	0.273623	0.905476
C127	C	0.958749	-0.308706	0.428931
C128	C	1.458749	0.191294	0.928931
H129	H	1.030926	-0.309235	0.455311
H130	H	1.530926	0.190765	0.955311
H131	H	0.948363	-0.350411	0.365805
H132	H	1.448363	0.149589	0.865805
H133	H	0.908776	-0.333046	0.484642
H134	H	1.408776	0.166954	0.984642
H135	H	1.215449	0.324144	0.000061
H136	H	1.715449	0.824144	0.500061
H137	H	1.212449	0.481464	0.000045
H138	H	1.712449	0.981464	0.500045
H139	H	0.810829	0.018417	0.000050
H140	H	1.310829	0.518417	0.500050
O141	O	1.185854	-0.003675	0.405590
O142	O	1.685854	0.496325	0.905590
C143	C	1.239991	0.046120	0.468534
C144	C	1.739991	0.546120	0.968534
H145	H	1.203033	0.047116	0.536954
H146	H	1.703033	0.547116	1.036954
H147	H	1.253761	0.112496	0.440812
H148	H	1.753761	0.612496	0.940812
H149	H	1.306953	0.019015	0.478733
H150	H	1.806953	0.519015	0.978733
H151	H	0.509938	0.099603	0.000102
H152	H	1.009938	0.599603	0.500102
H153	H	0.771754	-0.256371	0.000023
H154	H	1.271754	0.243629	0.500023
H155	H	0.319048	-0.248423	0.000040
H156	H	0.819048	0.251577	0.500040
