data_functionalizedCrystal
_audit_creation_method	'MofGen! by Chris Wilmer'
_symmetry_space_group_name_H-M	'P1'
_symmetry_Int_Tables_number	1
_symmetry_cell_setting	triclinic
loop_
_symmetry_equiv_pos_as_xyz
  x,y,z
_cell_length_a	10.654550
_cell_length_b	10.654559
_cell_length_c	9.130313
_cell_angle_alpha	89.999089
_cell_angle_beta	90.000096
_cell_angle_gamma	84.486774
loop_
_atom_site_label
_atom_site_type_symbol
_atom_site_fract_x
_atom_site_fract_y
_atom_site_fract_z
O1	O	1.667840	0.176391	-0.121792
O2	O	1.302362	0.193197	-0.121797
O3	O	1.493498	0.002055	-0.121783
O4	O	1.476704	0.367532	-0.121806
O5	O	1.493496	0.002063	0.121816
O6	O	1.302359	0.193205	0.121802
O7	O	1.667837	0.176399	0.121807
Cu8	Cu	1.485098	0.184803	0.144047
Cu9	Cu	1.485101	0.184793	-0.144037
O10	O	1.476701	0.367540	0.121793
C11	C	1.492261	-0.044738	0.000016
C12	C	1.488565	-0.184181	0.000016
C13	C	1.255563	0.191967	0.000002
C14	C	1.116119	0.188275	0.000000
C15	C	1.483365	-0.380703	-0.132797
C16	C	1.486835	-0.249681	-0.132780
C17	C	1.486838	-0.249711	0.132804
C18	C	1.483377	-0.380732	0.132787
C19	C	1.483358	-0.380683	-0.286130
C20	C	1.486827	-0.249662	-0.286114
C21	C	1.714637	0.177629	0.000005
C22	C	1.854080	0.181321	-0.000003
C23	C	1.933562	0.068780	-0.000001
C24	C	2.064583	0.072256	0.000005
C25	C	2.036627	0.300825	0.000003
C26	C	1.905609	0.297347	0.000007
C27	C	1.949703	-0.063183	-0.000007
C28	C	2.080724	-0.059706	0.000000
C29	C	1.477938	0.414334	-0.000009
C30	C	1.481635	0.553777	-0.000018
N31	N	1.485105	0.184809	0.346670
C32	C	1.569762	0.100201	0.423328
C33	C	1.569759	0.100188	0.576665
C34	C	1.400438	0.269401	0.576672
C35	C	1.400436	0.269407	0.423338
C36	C	1.667522	0.002511	0.423325
C37	C	1.667519	0.002498	0.576662
N38	N	1.485104	0.184789	0.653341
H39	H	1.488258	-0.196372	0.240929
H40	H	1.637003	-0.088724	0.624214
H41	H	1.914071	-0.105207	-0.105185
H42	H	1.840898	0.388989	0.000023
O43	O	2.092202	0.425965	0.000003
H44	H	2.196661	0.409479	-0.000005
O45	O	1.309146	0.360664	0.659373
H46	H	1.250280	0.419501	0.580303
H47	H	2.126369	-0.099579	0.105184
H48	H	1.646076	-0.094022	0.381711
H49	H	1.481987	-0.434076	0.240908
O50	O	1.362034	-0.419873	-0.349148
H51	H	1.351658	-0.386376	-0.464017
H52	H	2.122478	-0.109422	-0.101947
O53	O	1.309123	0.360654	0.340649
H54	H	1.250259	0.419484	0.419725
H55	H	1.578424	-0.220082	-0.333692
H56	H	1.758707	0.033098	0.375766
H57	H	1.570150	-0.426951	-0.345011
O58	O	1.795344	0.031019	0.631815
H59	H	1.868371	-0.042027	0.591241
O60	O	1.371856	-0.188331	-0.364066
H61	H	1.312811	-0.262212	-0.402229
H62	H	1.920347	-0.114794	0.101936
