data_functionalizedCrystal
_audit_creation_method	'MofGen! by Chris Wilmer'
_symmetry_space_group_name_H-M	'P1'
_symmetry_Int_Tables_number	1
_symmetry_cell_setting	triclinic
loop_
_symmetry_equiv_pos_as_xyz
  x,y,z
_cell_length_a	19.077269
_cell_length_b	14.908178
_cell_length_c	19.077222
_cell_angle_alpha	95.737219
_cell_angle_beta	85.503402
_cell_angle_gamma	91.150529
loop_
_atom_site_label
_atom_site_type_symbol
_atom_site_fract_x
_atom_site_fract_y
_atom_site_fract_z
Zn1	Zn	1.044509	-0.395668	0.338143
Zn2	Zn	1.544509	0.104332	0.838143
Zn3	Zn	1.042399	-0.552820	0.213453
Zn4	Zn	1.542399	-0.052820	0.713453
Zn5	Zn	0.931386	-0.395661	0.225008
Zn6	Zn	1.431386	0.104339	0.725008
Zn7	Zn	0.920354	-0.540185	0.336586
Zn8	Zn	1.420354	-0.040185	0.836586
O9	O	0.984662	-0.471083	0.278298
O10	O	1.484662	0.028917	0.778298
O11	O	1.142648	-0.421805	0.317418
O12	O	1.642648	0.078195	0.817418
O13	O	1.031407	-0.537257	0.116107
O14	O	1.531407	-0.037257	0.616107
O15	O	0.951892	-0.269410	0.245503
O16	O	1.451892	0.230590	0.745503
O17	O	1.141098	-0.537264	0.225809
O18	O	1.641098	-0.037264	0.725809
O19	O	1.035003	-0.269415	0.328623
O20	O	1.535003	0.230585	0.828623
O21	O	0.949846	-0.421794	0.124596
O22	O	1.449846	0.078206	0.624596
O23	O	0.831504	-0.409542	0.243993
O24	O	1.331504	0.090458	0.743993
O25	O	0.933090	-0.515729	0.435672
O26	O	1.433090	-0.015729	0.935672
O27	O	0.823399	-0.515723	0.325970
O28	O	1.323399	-0.015723	0.825970
O29	O	1.024306	-0.409553	0.436816
O30	O	1.524306	0.090447	0.936816
O31	O	1.020709	-0.677396	0.224300
O32	O	1.520709	-0.177396	0.724300
O33	O	0.931044	-0.668113	0.314765
O34	O	1.431044	-0.168113	0.814765
C35	C	0.801933	-0.461261	0.286067
C36	C	1.301933	0.038739	0.786067
C37	C	0.723759	-0.457080	0.289406
C38	C	1.223759	0.042920	0.789406
C39	C	0.686229	-0.515139	0.243216
C40	C	1.186229	-0.015139	0.743216
C41	C	0.612776	-0.511210	0.246363
C42	C	1.112776	-0.011210	0.746363
C43	C	0.576854	-0.449217	0.295698
C44	C	1.076854	0.050783	0.795698
C45	C	0.614389	-0.391156	0.341893
C46	C	1.114389	0.108844	0.841893
C47	C	0.687840	-0.395090	0.338749
C48	C	1.187840	0.104910	0.838749
C49	C	0.357264	-0.431019	0.310226
C50	C	0.857264	0.068981	0.810226
C51	C	0.283807	-0.427088	0.313365
C52	C	0.783807	0.072912	0.813365
C53	C	0.282199	-0.547143	0.217836
C54	C	0.782199	-0.047143	0.717836
C55	C	0.355652	-0.551068	0.214693
C56	C	0.855652	-0.051068	0.714693
C57	C	0.393180	-0.493010	0.260891
C58	C	0.893180	0.006990	0.760891
N59	N	0.501773	-0.445198	0.298914
N60	N	1.001773	0.054802	0.798914
N61	N	0.468259	-0.497035	0.257677
N62	N	0.968259	0.002965	0.757677
C63	C	0.974469	-0.705490	0.268124
C64	C	1.474469	-0.205490	0.768124
C65	C	0.970172	-0.805773	0.263793
C66	C	1.470172	-0.305773	0.763793
C67	C	1.048568	-0.994060	0.342306
C68	C	1.548568	-0.494060	0.842306
C69	C	1.044533	-1.088285	0.338239
C70	C	1.544533	-0.588285	0.838239
C71	C	0.958063	-1.088447	0.251595
C72	C	1.458063	-0.588447	0.751595
C73	C	0.962098	-0.994223	0.255662
C74	C	1.462098	-0.494223	0.755662
C75	C	1.007353	-0.947033	0.301019
C76	C	1.507353	-0.447033	0.801019
C77	C	1.011392	-0.852807	0.305082
C78	C	1.511392	-0.352807	0.805082
C79	C	0.924918	-0.852971	0.218442
C80	C	1.424918	-0.352971	0.718442
C81	C	0.920883	-0.947195	0.214375
C82	C	1.420883	-0.447195	0.714375
C83	C	1.168105	-0.480945	0.270499
C84	C	1.668105	0.019055	0.770499
C85	C	1.246277	-0.485147	0.267175
C86	C	1.746277	0.014853	0.767175
C87	C	0.977702	-0.461233	0.462599
C88	C	1.477702	0.038767	0.962599
C89	C	0.974737	-0.457035	0.541137
C90	C	1.474737	0.042965	1.041137
C91	C	0.994914	-0.235761	0.288525
C92	C	1.494914	0.264239	0.788525
C93	C	0.999282	-0.135481	0.292884
C94	C	1.499282	0.364519	0.792884
C95	C	0.953486	-0.426960	0.983699
C96	C	1.453486	0.073040	1.483699
C97	C	0.956276	-0.430901	0.909904
C98	C	1.456276	0.069099	1.409904
C99	C	1.000131	-0.492992	0.868586
C100	C	1.500131	0.007008	1.368586
C101	C	1.041204	-0.551139	0.901066
C102	C	1.541204	-0.051139	1.401066
C103	C	1.038418	-0.547193	0.974860
C104	C	1.538418	-0.047193	1.474860
C105	C	1.013023	-0.511236	0.647411
C106	C	1.513023	-0.011236	1.147411
C107	C	1.015805	-0.515179	0.573613
C108	C	1.515805	-0.015179	1.073613
C109	C	0.930877	-0.394940	0.582456
C110	C	1.430877	0.105060	1.082456
C111	C	0.928091	-0.391003	0.656251
C112	C	1.428091	0.108997	1.156251
C113	C	0.969167	-0.449147	0.688725
C114	C	1.469167	0.050853	1.188725
N115	N	1.002983	-0.497024	0.793155
N116	N	1.502983	0.002976	1.293155
N117	N	0.966319	-0.445110	0.764154
N118	N	1.466319	0.054890	1.264154
C119	C	0.991589	-0.480913	1.094713
C120	C	1.491589	0.019087	1.594713
C121	C	0.994554	-0.485105	1.016175
C122	C	1.494554	0.014895	1.516175
H123	H	0.387810	-0.383746	0.347844
H124	H	0.887810	0.116254	0.847844
H125	H	1.051534	-0.565726	0.539973
H126	H	1.551534	-0.065726	1.039973
H127	H	1.078091	-1.126571	0.371863
H128	H	1.578091	-0.626571	0.871863
H129	H	0.921215	-1.126885	0.214671
H130	H	1.421215	-0.626885	0.714671
H131	H	0.891360	-0.814670	0.184821
H132	H	1.391360	-0.314670	0.684821
C133	C	0.244780	-0.359671	0.366824
C134	C	0.744780	0.140329	0.866824
C135	C	0.206641	-0.301621	0.331208
C136	C	0.706641	0.198379	0.831208
C137	C	0.170689	-0.239500	0.380426
C138	C	0.670689	0.260500	0.880426
H139	H	0.213416	-0.390960	0.397310
H140	H	0.713416	0.109040	0.897310
H141	H	0.277632	-0.325606	0.393878
H142	H	0.777632	0.174394	0.893878
H143	H	0.173792	-0.335682	0.304167
H144	H	0.673792	0.164318	0.804167
H145	H	0.237987	-0.270312	0.300725
H146	H	0.737987	0.229688	0.800725
H147	H	0.203542	-0.205435	0.407480
H148	H	0.703542	0.294565	0.907480
H149	H	0.139330	-0.270796	0.410910
H150	H	0.639330	0.229204	0.910910
H151	H	0.144813	-0.200100	0.356268
H152	H	0.644813	0.299900	0.856268
C153	C	1.097686	-0.942660	0.391475
C154	C	1.597686	-0.442660	0.891475
C155	C	1.092411	-0.850078	0.386187
C156	C	1.592411	-0.350078	0.886187
C157	C	1.137655	-0.802702	0.431464
C158	C	1.637655	-0.302702	0.931464
H159	H	1.084952	-0.954887	0.438748
H160	H	1.584952	-0.454887	0.938748
H161	H	1.144697	-0.961089	0.378492
H162	H	1.644697	-0.461089	0.878492
H163	H	1.045410	-0.831655	0.399175
H164	H	1.545410	-0.331655	0.899175
H165	H	1.105151	-0.837823	0.338925
H166	H	1.605151	-0.337823	0.838925
H167	H	1.184666	-0.821131	0.418481
H168	H	1.684666	-0.321131	0.918481
H169	H	1.124917	-0.814937	0.478734
H170	H	1.624917	-0.314937	0.978734
H171	H	1.134087	-0.739881	0.427878
H172	H	1.634087	-0.239881	0.927878
C173	C	0.871822	-0.998599	0.165147
C174	C	1.371822	-0.498599	0.665147
C175	C	0.877121	-1.091185	0.170408
C176	C	1.377121	-0.591185	0.670408
C177	C	0.831945	-1.138564	0.125060
C178	C	1.331945	-0.638564	0.625060
H179	H	0.824796	-0.980229	0.178067
H180	H	1.324796	-0.480229	0.678067
H181	H	0.884620	-0.986316	0.117889
H182	H	1.384620	-0.486316	0.617889
H183	H	0.864319	-1.103462	0.217655
H184	H	1.364319	-0.603462	0.717655
H185	H	0.924136	-1.109582	0.157482
H186	H	1.424136	-0.609582	0.657482
H187	H	0.844743	-1.126281	0.077802
H188	H	1.344743	-0.626281	0.577802
H189	H	0.784922	-1.120186	0.137984
H190	H	1.284922	-0.620186	0.637984
H191	H	0.835539	-1.201389	0.128618
H192	H	1.335539	-0.701389	0.628618
C193	C	0.575265	-0.323880	0.395384
C194	C	1.075265	0.176120	0.895384
C195	C	0.502908	-0.332841	0.388238
C196	C	1.002908	0.167159	0.888238
C197	C	0.466848	-0.270869	0.437495
C198	C	0.966848	0.229131	0.937495
H199	H	0.584862	-0.335222	0.441785
H200	H	1.084862	0.164778	0.941785
H201	H	0.590284	-0.264413	0.387232
H202	H	1.090284	0.235587	0.887232
H203	H	0.487895	-0.392294	0.396395
H204	H	0.987895	0.107706	0.896395
H205	H	0.493290	-0.321490	0.341848
H206	H	0.993290	0.178510	0.841848
H207	H	0.481866	-0.211402	0.429343
H208	H	0.981866	0.288598	0.929343
H209	H	0.476450	-0.282217	0.483893
H210	H	0.976450	0.217783	0.983893
H211	H	0.417750	-0.276935	0.432649
H212	H	0.917750	0.223065	0.932649
H213	H	1.076916	-0.601691	0.867419
H214	H	1.576916	-0.101691	1.367419
C215	C	0.905852	-0.359452	1.028434
C216	C	1.405852	0.140548	1.528434
C217	C	0.870499	-0.309359	0.984195
C218	C	1.370499	0.190641	1.484195
C219	C	0.826620	-0.247152	1.025377
C220	C	1.326620	0.252848	1.525377
H221	H	0.872557	-0.390670	1.057034
H222	H	1.372557	0.109330	1.557034
H223	H	0.933370	-0.320003	1.057772
H224	H	1.433370	0.179997	1.557772
H225	H	0.842982	-0.348804	0.954868
H226	H	1.342982	0.151196	1.454868
H227	H	0.903776	-0.278123	0.955595
H228	H	1.403776	0.221877	1.455595
H229	H	0.854139	-0.207702	1.054715
H230	H	1.354139	0.292298	1.554715
H231	H	0.793330	-0.278377	1.053975
H232	H	1.293330	0.221623	1.553975
H233	H	0.802633	-0.213151	0.995367
H234	H	1.302633	0.286849	1.495367
C235	C	0.911638	-0.367923	0.874553
C236	C	1.411638	0.132077	1.374553
C237	C	0.865947	-0.418847	0.831870
C238	C	1.365947	0.081153	1.331870
C239	C	0.824820	-0.360860	0.799288
C240	C	1.324820	0.139140	1.299288
H241	H	0.885055	-0.330365	0.909654
H242	H	1.385055	0.169635	1.409654
H243	H	0.941321	-0.331609	0.846291
H244	H	1.441321	0.168391	1.346291
H245	H	0.836267	-0.455146	0.860130
H246	H	1.336267	0.044854	1.360130
H247	H	0.892511	-0.456403	0.796756
H248	H	1.392511	0.043597	1.296756
H249	H	0.854503	-0.324546	0.771027
H250	H	1.354503	0.175454	1.271027
H251	H	0.798242	-0.323305	0.834394
H252	H	1.298242	0.176695	1.334394
H253	H	0.793818	-0.395404	0.770319
H254	H	1.293818	0.104596	1.270319
C255	C	0.725096	-0.582542	0.189627
C256	C	1.225096	-0.082542	0.689627
C257	C	0.676502	-0.632564	0.149864
C258	C	1.176502	-0.132564	0.649864
C259	C	0.712277	-0.694676	0.100498
C260	C	1.212277	-0.194676	0.600498
H261	H	0.756404	-0.551254	0.159089
H262	H	1.256404	-0.051254	0.659089
H263	H	0.751011	-0.622046	0.213656
H264	H	1.251011	-0.122046	0.713656
H265	H	0.650599	-0.593065	0.125836
H266	H	1.150599	-0.093065	0.625836
H267	H	0.645192	-0.663871	0.180382
H268	H	1.145192	-0.163871	0.680382
H269	H	0.738193	-0.734181	0.124527
H270	H	1.238193	-0.234181	0.624527
H271	H	0.743585	-0.663381	0.069966
H272	H	1.243585	-0.163381	0.569966
H273	H	0.679312	-0.728629	0.073518
H274	H	1.179312	-0.228629	0.573518
H275	H	0.582222	-0.558487	0.208750
H276	H	1.082222	-0.058487	0.708750
H277	H	0.892376	-0.340446	0.689888
H278	H	1.392376	0.159554	1.189888
H279	H	0.718396	-0.347812	0.376361
H280	H	1.218396	0.152188	0.876361
C281	C	0.886369	-0.331854	0.547065
C282	C	1.386369	0.168146	1.047065
C283	C	0.898207	-0.348579	0.473597
C284	C	1.398207	0.151421	0.973597
C285	C	0.857225	-0.290469	0.440973
C286	C	1.357225	0.209531	0.940973
H287	H	0.838058	-0.341811	0.560513
H288	H	1.338058	0.158189	1.060513
H289	H	0.898860	-0.271127	0.561316
H290	H	1.398860	0.228873	1.061316
H291	H	0.885710	-0.409292	0.459351
H292	H	1.385710	0.090708	0.959351
H293	H	0.946508	-0.338617	0.460129
H294	H	1.446508	0.161383	0.960129
H295	H	0.869716	-0.229742	0.455224
H296	H	1.369716	0.270258	0.955224
H297	H	0.808917	-0.300430	0.454427
H298	H	1.308917	0.199570	0.954427
H299	H	0.865256	-0.301803	0.391122
H300	H	1.365256	0.198197	0.891122
H301	H	0.251636	-0.594412	0.180226
H302	H	0.751636	-0.094412	0.680226
H303	H	1.048242	-0.814386	0.342012
H304	H	1.548242	-0.314386	0.842012
C305	C	1.057639	-0.574476	0.682530
C306	C	1.557639	-0.074476	1.182530
C307	C	1.096623	-0.629714	0.630548
C308	C	1.596623	-0.129714	1.130548
C309	C	1.137725	-0.687995	0.662875
C310	C	1.637725	-0.187995	1.162875
H311	H	1.088762	-0.540183	0.711508
H312	H	1.588762	-0.040183	1.211508
H313	H	1.027948	-0.610849	0.710735
H314	H	1.527948	-0.110849	1.210735
H315	H	1.126312	-0.593346	0.602355
H316	H	1.626312	-0.093346	1.102355
H317	H	1.065518	-0.664027	0.601566
H318	H	1.565518	-0.164027	1.101566
H319	H	1.108034	-0.724367	0.691080
H320	H	1.608034	-0.224367	1.191080
H321	H	1.168843	-0.653694	0.691853
H322	H	1.668843	-0.153694	1.191853
H323	H	1.164176	-0.725486	0.627610
H324	H	1.664176	-0.225486	1.127610
H325	H	1.071861	-0.594539	1.001300
H326	H	1.571861	-0.094539	1.501300
H327	H	0.384895	-0.601548	0.174519
H328	H	0.884895	-0.101548	0.674519
