data_functionalizedCrystal
_audit_creation_method	'MofGen! by Chris Wilmer'
_symmetry_space_group_name_H-M	'P1'
_symmetry_Int_Tables_number	1
_symmetry_cell_setting	triclinic
loop_
_symmetry_equiv_pos_as_xyz
  x,y,z
_cell_length_a	13.032831
_cell_length_b	18.101395
_cell_length_c	13.032268
_cell_angle_alpha	97.146252
_cell_angle_beta	90.886977
_cell_angle_gamma	82.835691
loop_
_atom_site_label
_atom_site_type_symbol
_atom_site_fract_x
_atom_site_fract_y
_atom_site_fract_z
Zn1	Zn	1.498320	-0.500117	-0.780796
Zn2	Zn	1.520028	-0.610451	-0.608808
Zn3	Zn	1.348189	-0.469181	-0.587040
Zn4	Zn	1.326277	-0.606447	-0.758934
O5	O	1.423203	-0.546549	-0.683894
O6	O	1.645116	-0.529375	-0.776242
O7	O	1.515487	-0.580440	-0.462005
O8	O	1.368189	-0.369663	-0.612782
O9	O	1.661064	-0.610437	-0.649882
O10	O	1.478491	-0.392391	-0.755134
O11	O	1.389238	-0.476650	-0.446012
O12	O	1.201366	-0.472767	-0.591582
O13	O	1.330844	-0.603613	-0.905750
O14	O	1.185268	-0.573616	-0.717872
O15	O	1.457244	-0.525493	-0.921812
O16	O	1.494241	-0.713541	-0.628683
O17	O	1.351893	-0.710600	-0.738979
C18	C	1.156001	-0.519401	-0.649993
C19	C	1.041687	-0.507806	-0.635514
C20	C	0.982797	-0.552600	-0.691451
C21	C	0.864648	-0.540618	-0.676488
C22	C	1.423070	-0.738943	-0.683847
C23	C	1.423102	-0.821262	-0.683873
C24	C	1.423321	-1.120381	-0.683957
C25	C	1.333919	-1.087270	-0.753573
C26	C	1.333573	-1.001594	-0.753276
C27	C	1.423212	-0.971985	-0.683916
C28	C	1.407642	-0.991648	-0.571811
C29	C	1.407070	-1.077279	-0.572223
C30	C	1.528588	-1.101951	-0.725513
C31	C	1.527646	-1.016421	-0.727809
C32	C	1.423153	-0.888117	-0.683886
C33	C	1.423378	-1.204247	-0.683979
C34	C	1.691449	-0.573804	-0.717929
C35	C	1.805759	-0.585418	-0.732432
C36	C	1.389178	-0.567557	-0.952140
C37	C	1.374679	-0.576509	-1.066450
C38	C	1.423363	-0.353408	-0.683968
C39	C	1.423431	-0.271103	-0.684000
C40	C	1.430755	-0.541848	-1.125361
C41	C	1.415770	-0.551100	-1.243507
C42	C	1.457155	-0.525575	-0.416700
C43	C	1.471854	-0.516434	-0.302416
H44	H	0.842804	-0.632638	-0.791410
H45	H	1.341850	-1.115992	-0.836504
H46	H	1.489853	-0.505321	-1.088329
H47	H	1.595027	-1.123643	-0.674977
H48	H	1.019848	-0.599818	-0.750422
H49	H	1.356658	-0.587621	-1.280533
H50	H	1.004636	-0.460583	-0.576551
O51	O	1.343235	-0.986334	-0.851993
C52	C	1.361268	-1.036284	-1.031901
C53	C	1.350321	-1.053665	-0.920150
H54	H	1.367022	-1.090711	-1.087035
H55	H	1.290860	-0.997015	-1.052853
H56	H	1.434108	-1.008255	-1.038533
H57	H	1.277523	-1.081720	-0.913435
H58	H	1.420782	-1.092902	-0.899247
H59	H	1.315571	-0.613028	-1.103481
H60	H	1.596674	-0.997101	-0.681897
H61	H	0.827601	-0.493392	-0.617521
O62	O	1.542338	-0.472896	-1.258089
C63	C	1.621437	-0.423896	-1.099905
C64	C	1.541609	-0.473247	-1.149973
H65	H	1.620859	-0.424150	-1.012485
H66	H	1.701744	-0.446943	-1.131396
H67	H	1.600752	-0.364009	-1.118774
H68	H	1.562198	-0.533144	-1.131125
H69	H	1.461324	-0.450138	-1.118481
H70	H	1.256075	-1.099292	-0.725253
H71	H	1.330530	-1.087401	-0.538622
O72	O	1.240122	-0.965847	-0.719066
C73	C	1.070645	-0.978541	-0.657324
C74	C	1.176443	-1.019118	-0.696036
H75	H	1.019123	-1.021594	-0.638714
H76	H	1.081862	-0.938245	-0.584703
H77	H	1.032602	-0.945740	-0.719974
H78	H	1.214544	-1.051961	-0.633459
H79	H	1.165157	-1.059371	-0.768683
H80	H	1.471316	-0.972170	-0.517925
O81	O	1.482278	-1.102812	-0.507268
C82	C	1.619056	-1.071643	-0.389386
C83	C	1.533914	-1.042630	-0.462903
H84	H	1.660842	-1.023003	-0.353513
H85	H	1.582727	-1.097552	-0.325601
H86	H	1.676680	-1.115873	-0.434683
H87	H	1.476262	-0.998375	-0.417695
H88	H	1.570316	-1.016767	-0.526688
O89	O	1.542077	-1.002415	-0.826355
C90	C	1.652269	-1.026607	-0.976632
C91	C	1.636066	-1.042532	-0.865032
H92	H	1.728267	-1.059020	-1.007928
H93	H	1.585659	-1.045006	-1.027266
H94	H	1.654904	-0.963953	-0.977292
H95	H	1.633454	-1.105176	-0.864273
H96	H	1.702678	-1.024081	-0.814446
H97	H	1.331997	-0.960395	-0.537896
H98	H	1.545469	-1.132313	-0.806592
