data_functionalizedCrystal
_audit_creation_method	'MofGen! by Chris Wilmer'
_symmetry_space_group_name_H-M	'P1'
_symmetry_Int_Tables_number	1
_symmetry_cell_setting	triclinic
loop_
_symmetry_equiv_pos_as_xyz
  x,y,z
_cell_length_a	25.639242
_cell_length_b	25.639240
_cell_length_c	18.050582
_cell_angle_alpha	89.968180
_cell_angle_beta	89.976321
_cell_angle_gamma	90.028283
loop_
_atom_site_label
_atom_site_type_symbol
_atom_site_fract_x
_atom_site_fract_y
_atom_site_fract_z
Zn1	Zn	0.799254	-0.208246	-0.420038
Zn2	Zn	1.299254	0.291754	0.079962
Zn3	Zn	0.799185	-0.295674	-0.295828
Zn4	Zn	1.299185	0.204326	0.204172
Zn5	Zn	0.711828	-0.208248	-0.295843
Zn6	Zn	1.211828	0.291752	0.204157
Zn7	Zn	0.711785	-0.295646	-0.419958
Zn8	Zn	1.211785	0.204354	0.080042
O9	O	0.755513	-0.251953	-0.357917
O10	O	1.255513	0.248047	0.142083
O11	O	0.872410	-0.219855	-0.403589
O12	O	1.372410	0.280145	0.096411
O13	O	0.787586	-0.284089	-0.191906
O14	O	1.287586	0.215911	0.308094
O15	O	0.723473	-0.135082	-0.312358
O16	O	1.223473	0.364918	0.187642
O17	O	0.872359	-0.284088	-0.312332
O18	O	1.372359	0.215912	0.187668
O19	O	0.787705	-0.135081	-0.403604
O20	O	1.287705	0.364919	0.096396
O21	O	0.723405	-0.219857	-0.191917
O22	O	1.223405	0.280143	0.308083
O23	O	0.638657	-0.219830	-0.312280
O24	O	1.138657	0.280170	0.187720
O25	O	0.723399	-0.284040	-0.523893
O26	O	1.223399	0.215960	-0.023893
O27	O	0.638625	-0.284041	-0.403466
O28	O	1.138625	0.215959	0.096534
O29	O	0.787662	-0.219828	-0.523952
O30	O	1.287662	0.280172	-0.023952
O31	O	0.787543	-0.368836	-0.312254
O32	O	1.287543	0.131164	0.187746
O33	O	0.723331	-0.368815	-0.403452
O34	O	1.223331	0.131185	0.096548
C35	C	0.619671	-0.251933	-0.357867
C36	C	1.119671	0.248067	0.142133
C37	C	0.561556	-0.251937	-0.357863
C38	C	1.061556	0.248063	0.142137
C39	C	0.201186	-0.285444	-0.405353
C40	C	0.701186	0.214556	0.094647
C41	C	0.146581	-0.285447	-0.405364
C42	C	0.646581	0.214553	0.094636
O43	O	0.118338	-0.313911	-0.445699
O44	O	0.618338	0.186089	0.054301
N45	N	0.119274	-0.251968	-0.357965
N46	N	0.619274	0.248032	0.142035
C47	C	0.146574	-0.218479	-0.310557
C48	C	0.646574	0.281521	0.189443
O49	O	0.118333	-0.190003	-0.270242
O50	O	0.618333	0.309997	0.229758
C51	C	0.201177	-0.218474	-0.310550
C52	C	0.701177	0.281526	0.189450
C53	C	0.228482	-0.251959	-0.357946
C54	C	0.728482	0.248041	0.142054
C55	C	0.228490	-0.318926	-0.452746
C56	C	0.728490	0.181074	0.047254
C57	C	0.283091	-0.318924	-0.452733
C58	C	0.783091	0.181076	0.047267
C59	C	0.310387	-0.285439	-0.405327
C60	C	0.810387	0.214561	0.094673
C61	C	0.283082	-0.251957	-0.357933
C62	C	0.783082	0.248043	0.142067
C63	C	0.228476	-0.184983	-0.263145
C64	C	0.728476	0.315017	0.236855
C65	C	0.283083	-0.184980	-0.263142
C66	C	0.783083	0.315020	0.236858
C67	C	0.310387	-0.218466	-0.310539
C68	C	0.810387	0.281534	0.189461
C69	C	0.364979	-0.218469	-0.310514
C70	C	0.864979	0.281531	0.189486
N71	N	0.392286	-0.251949	-0.357913
N72	N	0.892286	0.248051	0.142087
C73	C	0.364990	-0.285433	-0.405319
C74	C	0.864990	0.214567	0.094681
C75	C	0.031903	-0.218493	-0.310577
C76	C	0.531903	0.281507	0.189423
C77	C	-0.022699	-0.218500	-0.310580
C78	C	0.477301	0.281500	0.189420
C79	C	-0.022688	-0.285468	-0.405389
C80	C	0.477312	0.214532	0.094611
C81	C	0.031915	-0.285462	-0.405381
C82	C	0.531915	0.214538	0.094619
C83	C	0.059211	-0.251972	-0.357976
C84	C	0.559211	0.248028	0.142024
C85	C	0.479655	-0.285426	-0.405288
C86	C	0.979655	0.214574	0.094712
C87	C	0.534260	-0.285421	-0.405269
C88	C	1.034260	0.214579	0.094731
C89	C	0.534244	-0.218452	-0.310464
C90	C	1.034244	0.281548	0.189536
C91	C	0.479644	-0.218458	-0.310480
C92	C	0.979644	0.281542	0.189520
C93	C	0.452351	-0.251947	-0.357898
C94	C	0.952351	0.248053	0.142102
O95	O	0.393257	-0.190019	-0.270202
O96	O	0.893257	0.309981	0.229798
O97	O	0.393238	-0.313901	-0.445634
O98	O	0.893238	0.186099	0.054366
C99	C	0.755439	-0.387796	-0.357859
C100	C	1.255439	0.112204	0.142141
C101	C	0.755455	-0.445910	-0.357859
C102	C	1.255455	0.054090	0.142141
C103	C	0.788975	-0.806234	-0.405514
C104	C	1.288975	-0.306234	0.094486
C105	C	0.788990	-0.860838	-0.405529
C106	C	1.288990	-0.360838	0.094471
O107	O	0.817402	-0.889042	-0.445988
O108	O	1.317402	-0.389042	0.054012
N109	N	0.755586	-0.888193	-0.357989
N110	N	1.255586	-0.388193	0.142011
C111	C	0.722159	-0.860939	-0.310435
C112	C	1.222159	-0.360939	0.189565
O113	O	0.693747	-0.889220	-0.270000
O114	O	1.193747	-0.389220	0.230000
C115	C	0.722142	-0.806336	-0.310425
C116	C	1.222142	-0.306336	0.189575
C117	C	0.755553	-0.778985	-0.357963
C118	C	1.255553	-0.278985	0.142037
C119	C	0.822383	-0.778883	-0.453049
C120	C	1.322383	-0.278883	0.046951
C121	C	0.822368	-0.724282	-0.453033
C122	C	1.322368	-0.224282	0.046967
C123	C	0.788945	-0.697033	-0.405482
C124	C	1.288945	-0.197033	0.094518
C125	C	0.755538	-0.724384	-0.357947
C126	C	1.255538	-0.224384	0.142053
C127	C	0.688713	-0.779084	-0.262875
C128	C	1.188713	-0.279084	0.237125
C129	C	0.688698	-0.724477	-0.262869
C130	C	1.188698	-0.224477	0.237131
C131	C	0.722109	-0.697126	-0.310407
C132	C	1.222109	-0.197126	0.189593
C133	C	0.722100	-0.642535	-0.310379
C134	C	1.222100	-0.142535	0.189621
N135	N	0.755505	-0.615181	-0.357920
N136	N	1.255505	-0.115181	0.142080
C137	C	0.788928	-0.642430	-0.405471
C138	C	1.288928	-0.142430	0.094529
C139	C	0.722198	-0.975610	-0.310463
C140	C	1.222198	-0.475610	0.189537
C141	C	0.722218	-1.030212	-0.310469
C142	C	1.222218	-0.530212	0.189531
C143	C	0.789049	-1.030108	-0.405564
C144	C	1.289049	-0.530108	0.094436
C145	C	0.789031	-0.975504	-0.405553
C146	C	1.289031	-0.475504	0.094447
C147	C	0.755603	-0.948256	-0.358003
C148	C	1.255603	-0.448256	0.141997
C149	C	0.788894	-0.527765	-0.405433
C150	C	1.288894	-0.027765	0.094567
C151	C	0.788878	-0.473159	-0.405410
C152	C	1.288878	0.026841	0.094590
C153	C	0.722046	-0.473269	-0.310318
C154	C	1.222046	0.026731	0.189682
C155	C	0.722064	-0.527870	-0.310338
C156	C	1.222064	-0.027870	0.189662
C157	C	0.755490	-0.555116	-0.357901
C158	C	1.255490	-0.055116	0.142099
O159	O	0.693702	-0.614296	-0.269943
O160	O	1.193702	-0.114296	0.230057
O161	O	0.817330	-0.614142	-0.445906
O162	O	1.317330	-0.114142	0.054094
C163	C	0.891886	-0.251975	-0.357968
C164	C	1.391886	0.248025	0.142032
C165	C	0.950000	-0.251984	-0.357990
C166	C	1.450000	0.248016	0.142010
C167	C	0.755534	-0.251930	-0.551623
C168	C	1.255534	0.248070	-0.051623
C169	C	0.755542	-0.251920	-0.634168
C170	C	1.255542	0.248080	-0.134168
C171	C	0.755601	-0.115580	-0.357992
C172	C	1.255601	0.384420	0.142008
C173	C	0.755639	-0.057466	-0.358023
C174	C	1.255639	0.442534	0.141977
C175	C	0.720623	-0.286791	-0.833587
C176	C	1.220623	0.213209	-0.333587
C177	C	0.768323	-0.299575	-0.882986
C178	C	1.268323	0.200425	-0.382986
C179	C	0.755568	-0.251881	-0.785299
C180	C	1.255568	0.248119	-0.285299
C181	C	0.707894	-0.239082	-0.882982
C182	C	1.207894	0.260918	-0.382982
C183	C	0.755589	-0.251843	-0.931284
C184	C	1.255589	0.248157	-0.431284
C185	C	0.803293	-0.264690	-0.833610
C186	C	1.303293	0.235310	-0.333610
C187	C	0.742833	-0.204174	-0.833602
C188	C	1.242833	0.295826	-0.333602
C189	C	0.790566	-0.216940	-0.882979
C190	C	1.290566	0.283060	-0.382979
C191	C	0.755555	-0.251903	-0.701201
C192	C	1.255555	0.248097	-0.201201
C193	C	0.755607	-0.251820	-1.015381
C194	C	1.255607	0.248180	-0.515381
C195	C	0.755523	-0.251939	-0.164965
C196	C	1.255523	0.248061	0.335035
C197	C	0.755615	-0.251801	-0.082419
C198	C	1.255615	0.248199	0.417581
H199	H	0.305317	-0.346190	-0.491330
H200	H	0.805317	0.153810	0.008670
Br201	Br	0.676690	-0.436277	-0.245786
Br202	Br	1.176690	0.063723	0.254214
H203	H	0.457439	-0.312694	-0.443903
H204	H	0.957439	0.187306	0.056097
H205	H	-0.044926	-0.191239	-0.271977
H206	H	0.455074	0.308761	0.228023
H207	H	0.206272	-0.346194	-0.491354
H208	H	0.706272	0.153806	0.008646
Br209	Br	0.643366	-0.816190	-0.198356
Br210	Br	1.143366	-0.316190	0.301644
Br211	Br	0.068966	-0.330908	-0.469708
Br212	Br	0.568966	0.169092	0.030292
H213	H	0.843631	-0.275545	-0.812014
H214	H	1.343631	0.224455	-0.312014
Br215	Br	-0.059743	-0.330907	-0.469733
Br216	Br	0.440257	0.169093	0.030267
H217	H	0.054123	-0.191221	-0.271969
H218	H	0.554123	0.308779	0.228031
Br219	Br	0.191434	-0.139533	-0.198821
Br220	Br	0.691434	0.360467	0.301179
H221	H	0.691098	-0.316353	-0.811901
H222	H	1.191098	0.183647	-0.311901
H223	H	0.816262	-1.052304	-0.444284
H224	H	1.316262	-0.552304	0.055716
Br225	Br	0.676882	-1.067325	-0.245938
Br226	Br	1.176882	-0.567325	0.254062
Br227	Br	0.571299	-0.173011	-0.246129
Br228	Br	1.071299	0.326989	0.253871
H229	H	0.305304	-0.157705	-0.224543
H230	H	0.805304	0.342295	0.275457
Br231	Br	0.676830	-0.938636	-0.245920
Br232	Br	1.176830	-0.438636	0.254080
Br233	Br	0.786300	-0.366791	-0.919141
Br234	Br	1.286300	0.133209	-0.419141
Br235	Br	0.442586	-0.173024	-0.246141
Br236	Br	0.942586	0.326976	0.253859
H237	H	0.849572	-0.702016	-0.491745
H238	H	1.349572	-0.202016	0.008255
Br239	Br	0.724836	-0.136975	-0.797417
Br240	Br	1.224836	0.363025	-0.297417
Br241	Br	0.676729	-0.564990	-0.245809
Br242	Br	1.176729	-0.064990	0.254191
H243	H	0.816087	-0.450892	-0.444121
H244	H	1.316087	0.049108	0.055879
Br245	Br	0.839890	-0.167706	-0.918902
Br246	Br	1.339890	0.332294	-0.418902
H247	H	0.667568	-0.228272	-0.904670
H248	H	1.167568	0.271728	-0.404670
H249	H	0.661476	-0.702294	-0.224149
H250	H	1.161476	-0.202294	0.275851
Br251	Br	0.867745	-0.815854	-0.517596
Br252	Br	1.367745	-0.315854	-0.017596
Br253	Br	0.571313	-0.330871	-0.469594
Br254	Br	1.071313	0.169129	0.030406
H255	H	0.816109	-0.549942	-0.444168
H256	H	1.316109	-0.049942	0.055832
H257	H	0.816237	-0.953238	-0.444263
H258	H	1.316237	-0.453238	0.055737
