data_functionalizedCrystal
_audit_creation_method	'MofGen! by Chris Wilmer'
_symmetry_space_group_name_H-M	'P1'
_symmetry_Int_Tables_number	1
_symmetry_cell_setting	triclinic
loop_
_symmetry_equiv_pos_as_xyz
  x,y,z
_cell_length_a	16.120566
_cell_length_b	17.077402
_cell_length_c	17.077396
_cell_angle_alpha	90.029784
_cell_angle_beta	92.919707
_cell_angle_gamma	87.118933
loop_
_atom_site_label
_atom_site_type_symbol
_atom_site_fract_x
_atom_site_fract_y
_atom_site_fract_z
Zn1	Zn	-1.274550	0.373429	-0.504679
Zn2	Zn	-1.024550	0.623429	-0.254679
Zn3	Zn	-0.774550	0.873429	-0.004679
Zn4	Zn	-0.524550	1.123429	0.245321
Zn5	Zn	-1.274451	0.504699	-0.373405
Zn6	Zn	-1.024451	0.754699	-0.123405
Zn7	Zn	-0.774451	1.004699	0.126595
Zn8	Zn	-0.524451	1.254699	0.376595
Zn9	Zn	-1.135133	0.366792	-0.366772
Zn10	Zn	-0.885133	0.616792	-0.116772
Zn11	Zn	-0.635133	0.866792	0.133228
Zn12	Zn	-0.385133	1.116792	0.383228
Zn13	Zn	-1.135099	0.497991	-0.497977
Zn14	Zn	-0.885099	0.747991	-0.247977
Zn15	Zn	-0.635099	0.997991	0.002023
Zn16	Zn	-0.385099	1.247991	0.252023
O17	O	-1.204808	0.435728	-0.435708
O18	O	-0.954808	0.685728	-0.185708
O19	O	-0.704808	0.935728	0.064292
O20	O	-0.454808	1.185728	0.314292
O21	O	-1.391202	0.396427	-0.492847
O22	O	-1.141202	0.646427	-0.242847
O23	O	-0.891202	0.896427	0.007153
O24	O	-0.641202	1.146427	0.257153
O25	O	-1.255943	0.486435	-0.262677
O26	O	-1.005943	0.736435	-0.012677
O27	O	-0.755943	0.986435	0.237323
O28	O	-0.505943	1.236435	0.487323
O29	O	-1.153682	0.257828	-0.385094
O30	O	-0.903682	0.507828	-0.135094
O31	O	-0.653682	0.757828	0.114906
O32	O	-0.403682	1.007828	0.364906
O33	O	-1.391130	0.492871	-0.396400
O34	O	-1.141130	0.742871	-0.146400
O35	O	-0.891130	0.992871	0.103600
O36	O	-0.641130	1.242871	0.353600
O37	O	-1.256111	0.262704	-0.486414
O38	O	-1.006111	0.512704	-0.236414
O39	O	-0.756111	0.762704	0.013586
O40	O	-0.506111	1.012704	0.263586
O41	O	-1.153587	0.385116	-0.257803
O42	O	-0.903587	0.635116	-0.007803
O43	O	-0.653587	0.885116	0.242197
O44	O	-0.403587	1.135116	0.492197
O45	O	-1.018463	0.378611	-0.378595
O46	O	-0.768463	0.628611	-0.128595
O47	O	-0.518463	0.878611	0.121405
O48	O	-0.268463	1.128611	0.371405
O49	O	-1.153624	0.481438	-0.608714
O50	O	-0.903624	0.731438	-0.358714
O51	O	-0.653624	0.981438	-0.108714
O52	O	-0.403624	1.231438	0.141286
O53	O	-1.018438	0.475003	-0.474991
O54	O	-0.768438	0.725003	-0.224991
O55	O	-0.518438	0.975003	0.025009
O56	O	-0.268438	1.225003	0.275009
O57	O	-1.256078	0.389923	-0.613638
O58	O	-1.006078	0.639923	-0.363638
O59	O	-0.756078	0.889923	-0.113638
O60	O	-0.506078	1.139923	0.136362
O61	O	-1.255910	0.613654	-0.389901
O62	O	-1.005910	0.863654	-0.139901
O63	O	-0.755910	1.113654	0.110099
O64	O	-0.505910	1.363654	0.360099
O65	O	-1.153529	0.608725	-0.481423
O66	O	-0.903529	0.858725	-0.231423
O67	O	-0.653529	1.108725	0.018577
O68	O	-0.403529	1.358725	0.268577
C69	C	-0.988200	0.425359	-0.425346
C70	C	-0.738200	0.675359	-0.175346
C71	C	-0.488200	0.925359	0.074654
C72	C	-0.238200	1.175359	0.324654
C73	C	-0.895534	0.420943	-0.420932
C74	C	-0.645534	0.670943	-0.170932
C75	C	-0.395534	0.920943	0.079068
C76	C	-0.145534	1.170943	0.329068
C77	C	-0.725872	0.412861	-0.412879
C78	C	-0.475872	0.662861	-0.162879
C79	C	-0.225872	0.912861	0.087121
C80	C	0.024128	1.162861	0.337121
C81	C	-0.684584	0.458663	-0.458543
C82	C	-0.434584	0.708663	-0.208543
C83	C	-0.184584	0.958663	0.041457
C84	C	0.065416	1.208663	0.291457
C85	C	-0.590179	0.454166	-0.454063
C86	C	-0.340179	0.704166	-0.204063
C87	C	-0.090179	0.954166	0.045937
C88	C	0.159821	1.204166	0.295937
C89	C	-0.820286	0.417356	-0.417359
C90	C	-0.570286	0.667356	-0.167359
C91	C	-0.320286	0.917356	0.082641
C92	C	-0.070286	1.167356	0.332641
C93	C	-1.204728	0.639672	-0.435673
C94	C	-0.954728	0.889672	-0.185673
C95	C	-0.704728	1.139672	0.064327
C96	C	-0.454728	1.389672	0.314327
C97	C	-1.204770	0.726924	-0.435688
C98	C	-0.954770	0.976924	-0.185688
C99	C	-0.704770	1.226924	0.064312
C100	C	-0.454770	1.476924	0.314312
C101	C	-1.204859	0.435672	-0.640455
C102	C	-0.954859	0.685672	-0.390455
C103	C	-0.704859	0.935672	-0.140455
C104	C	-0.454859	1.185672	0.109545
C105	C	-1.204880	0.435649	-0.727706
C106	C	-0.954880	0.685649	-0.477706
C107	C	-0.704880	0.935649	-0.227706
C108	C	-0.454880	1.185649	0.022294
C109	C	-0.422262	0.446140	-0.446098
C110	C	-0.172262	0.696140	-0.196098
C111	C	0.077738	0.946140	0.053902
C112	C	0.327738	1.196140	0.303902
C113	C	-0.514928	0.450583	-0.450493
C114	C	-0.264928	0.700583	-0.200493
C115	C	-0.014928	0.950583	0.049507
C116	C	0.235072	1.200583	0.299507
C117	C	-1.204912	0.230989	-0.435762
C118	C	-0.954912	0.480989	-0.185762
C119	C	-0.704912	0.730989	0.064238
C120	C	-0.454912	0.980989	0.314238
C121	C	-1.204956	0.143741	-0.435785
C122	C	-0.954956	0.393741	-0.185785
C123	C	-0.704956	0.643741	0.064215
C124	C	-0.454956	0.893741	0.314215
C125	C	-1.258134	0.770457	-0.388089
C126	C	-1.008134	1.020457	-0.138089
C127	C	-0.758134	1.270457	0.111911
C128	C	-0.508134	1.520457	0.361911
C129	C	-1.258175	0.852439	-0.388111
C130	C	-1.008175	1.102439	-0.138111
C131	C	-0.758175	1.352439	0.111889
C132	C	-0.508175	1.602439	0.361889
C133	C	-1.204846	0.890887	-0.435728
C134	C	-0.954846	1.140887	-0.185728
C135	C	-0.704846	1.390887	0.064272
C136	C	-0.454846	1.640887	0.314272
C137	C	-1.151479	0.847348	-0.483333
C138	C	-0.901479	1.097348	-0.233333
C139	C	-0.651479	1.347348	0.016667
C140	C	-0.401479	1.597348	0.266667
C141	C	-1.151443	0.765367	-0.483314
C142	C	-0.901443	1.015367	-0.233314
C143	C	-0.651443	1.265367	0.016686
C144	C	-0.401443	1.515367	0.266686
C145	C	-1.151557	1.018222	-0.483366
C146	C	-0.901557	1.268222	-0.233366
C147	C	-0.651557	1.518222	0.016634
C148	C	-0.401557	1.768222	0.266634
C149	C	-1.151591	1.100208	-0.483384
C150	C	-0.901591	1.350208	-0.233384
C151	C	-0.651591	1.600208	0.016616
C152	C	-0.401591	1.850208	0.266616
C153	C	-1.258288	1.105293	-0.388163
C154	C	-1.008288	1.355293	-0.138163
C155	C	-0.758288	1.605293	0.111837
C156	C	-0.508288	1.855293	0.361837
C157	C	-1.258252	1.023313	-0.388144
C158	C	-1.008252	1.273313	-0.138144
C159	C	-0.758252	1.523313	0.111856
C160	C	-0.508252	1.773313	0.361856
C161	C	-1.204884	0.979780	-0.435748
C162	C	-0.954884	1.229780	-0.185748
C163	C	-0.704884	1.479780	0.064252
C164	C	-0.454884	1.729780	0.314252
C165	C	-1.258230	0.387993	-0.771261
C166	C	-1.008230	0.637993	-0.521261
C167	C	-0.758230	0.887993	-0.271261
C168	C	-0.508230	1.137993	-0.021261
C169	C	-1.258240	0.387967	-0.853242
C170	C	-1.008240	0.637967	-0.603242
C171	C	-0.758240	0.887967	-0.353242
C172	C	-0.508240	1.137967	-0.103242
C173	C	-1.204904	0.435602	-0.891666
C174	C	-0.954904	0.685602	-0.641666
C175	C	-0.704904	0.935602	-0.391666
C176	C	-0.454904	1.185602	-0.141666
C177	C	-1.151548	0.483260	-0.848105
C178	C	-0.901548	0.733260	-0.598105
C179	C	-0.651548	0.983260	-0.348105
C180	C	-0.401548	1.233260	-0.098105
C181	C	-1.151535	0.483281	-0.766125
C182	C	-0.901535	0.733281	-0.516125
C183	C	-0.651535	0.983281	-0.266125
C184	C	-0.401535	1.233281	-0.016125
C185	C	-1.151582	0.483215	-1.018977
C186	C	-0.901582	0.733215	-0.768977
C187	C	-0.651582	0.983215	-0.518977
C188	C	-0.401582	1.233215	-0.268977
C189	C	-1.151596	0.483195	-1.100962
C190	C	-0.901596	0.733195	-0.850962
C191	C	-0.651596	0.983195	-0.600962
C192	C	-0.401596	1.233195	-0.350962
C193	C	-1.258287	0.387901	-1.106094
C194	C	-1.008287	0.637901	-0.856094
C195	C	-0.758287	0.887901	-0.606094
C196	C	-0.508287	1.137901	-0.356094
C197	C	-1.258273	0.387921	-1.024114
C198	C	-1.008273	0.637921	-0.774114
C199	C	-0.758273	0.887921	-0.524114
C200	C	-0.508273	1.137921	-0.274114
C201	C	-1.204919	0.435581	-0.980558
C202	C	-0.954919	0.685581	-0.730558
C203	C	-0.704919	0.935581	-0.480558
C204	C	-0.454919	1.185581	-0.230558
C205	C	-1.204806	0.435729	-0.231760
C206	C	-0.954806	0.685729	0.018240
C207	C	-0.704806	0.935729	0.268240
C208	C	-0.454806	1.185729	0.518240
C209	C	-1.204946	0.435539	-0.144518
C210	C	-0.954946	0.685539	0.105482
C211	C	-0.704946	0.935539	0.355482
C212	C	-0.454946	1.185539	0.605482
H213	H	-1.301557	0.739158	-0.349310
H214	H	-1.051557	0.989158	-0.099310
H215	H	-0.801557	1.239158	0.150690
H216	H	-0.551557	1.489158	0.400690
H217	H	-1.301665	0.349205	-0.739983
H218	H	-1.051665	0.599205	-0.489983
H219	H	-0.801665	0.849205	-0.239983
H220	H	-0.551665	1.099205	0.010017
H221	H	-0.690321	0.370275	-0.370423
H222	H	-0.440321	0.620275	-0.120423
H223	H	-0.190321	0.870275	0.129577
H224	H	0.059679	1.120275	0.379577
H225	H	-0.720138	0.501252	-0.501003
H226	H	-0.470138	0.751252	-0.251003
H227	H	-0.220138	1.001252	-0.001003
H228	H	0.029862	1.251252	0.248997
H229	H	-1.301629	0.887880	-0.349350
H230	H	-1.051629	1.137880	-0.099350
H231	H	-0.801629	1.387880	0.150650
H232	H	-0.551629	1.637880	0.400650
H233	H	-1.108163	0.521982	-1.132244
H234	H	-0.858163	0.771982	-0.882244
H235	H	-0.608163	1.021982	-0.632244
H236	H	-0.358163	1.271982	-0.382244
H237	H	-1.301672	0.992009	-0.349367
H238	H	-1.051672	1.242009	-0.099367
H239	H	-0.801672	1.492009	0.150633
H240	H	-0.551672	1.742009	0.400633
H241	H	-1.301745	1.140742	-0.349405
H242	H	-1.051745	1.390742	-0.099405
H243	H	-0.801745	1.640742	0.150595
H244	H	-0.551745	1.890742	0.400595
H245	H	-1.108182	1.131511	-0.522173
H246	H	-0.858182	1.381511	-0.272173
H247	H	-0.608182	1.631511	-0.022173
H248	H	-0.358182	1.881511	0.227827
H249	H	-1.108101	0.982780	-0.522133
H250	H	-0.858101	1.232780	-0.272133
H251	H	-0.608101	1.482780	-0.022133
H252	H	-0.358101	1.732780	0.227867
H253	H	-1.108062	0.878659	-0.522107
H254	H	-0.858062	1.128659	-0.272107
H255	H	-0.608062	1.378659	-0.022107
H256	H	-0.358062	1.628659	0.227893
H257	H	-1.107990	0.729924	-0.522075
H258	H	-0.857990	0.979924	-0.272075
H259	H	-0.607990	1.229924	-0.022075
H260	H	-0.357990	1.479924	0.227925
H261	H	-1.301684	0.349163	-0.888702
H262	H	-1.051684	0.599163	-0.638702
H263	H	-0.801684	0.849163	-0.388702
H264	H	-0.551684	1.099163	-0.138702
H265	H	-1.301709	0.349137	-0.992832
H266	H	-1.051709	0.599137	-0.742832
H267	H	-0.801709	0.849137	-0.492832
H268	H	-0.551709	1.099137	-0.242832
H269	H	-1.108083	0.522080	-0.730663
H270	H	-0.858083	0.772080	-0.480663
H271	H	-0.608083	1.022080	-0.230663
H272	H	-0.358083	1.272080	0.019337
H273	H	-1.108122	0.522011	-0.983515
H274	H	-0.858122	0.772011	-0.733515
H275	H	-0.608122	1.022011	-0.483515
H276	H	-0.358122	1.272011	-0.233515
H277	H	-1.108118	0.522043	-0.879396
H278	H	-0.858118	0.772043	-0.629396
H279	H	-0.608118	1.022043	-0.379396
H280	H	-0.358118	1.272043	-0.129396
H281	H	-1.301729	0.349093	-1.141561
H282	H	-1.051729	0.599093	-0.891561
H283	H	-0.801729	0.849093	-0.641561
H284	H	-0.551729	1.099093	-0.391561
