data_functionalizedCrystal
_audit_creation_method	'MofGen! by Chris Wilmer'
_symmetry_space_group_name_H-M	'P1'
_symmetry_Int_Tables_number	1
_symmetry_cell_setting	triclinic
loop_
_symmetry_equiv_pos_as_xyz
  x,y,z
_cell_length_a	18.050589
_cell_length_b	12.759401
_cell_length_c	12.759393
_cell_angle_alpha	89.979213
_cell_angle_beta	89.970454
_cell_angle_gamma	90.028703
loop_
_atom_site_label
_atom_site_type_symbol
_atom_site_fract_x
_atom_site_fract_y
_atom_site_fract_z
Zn1	Zn	-0.295614	1.606168	-0.594023
Zn2	Zn	-0.419822	1.606017	-0.418346
Zn3	Zn	-0.295651	1.430466	-0.418358
Zn4	Zn	-0.419768	1.430417	-0.593983
O5	O	-0.357714	1.518267	-0.506178
O6	O	-0.312097	1.753169	-0.570730
O7	O	-0.403389	1.582688	-0.271326
O8	O	-0.191722	1.453857	-0.441682
O9	O	-0.403352	1.753058	-0.441661
O10	O	-0.191694	1.582944	-0.570742
O11	O	-0.312161	1.453711	-0.271336
O12	O	-0.312108	1.283439	-0.441644
O13	O	-0.403260	1.453773	-0.741010
O14	O	-0.403296	1.283402	-0.570675
O15	O	-0.312045	1.582896	-0.741039
O16	O	-0.523739	1.582640	-0.441623
O17	O	-0.523699	1.453627	-0.570663
C18	C	-0.357701	1.245300	-0.506157
C19	C	-0.357714	1.128523	-0.506174
C20	C	-0.405165	0.963875	-0.438897
C21	C	-0.405154	1.073599	-0.438877
C22	C	-0.310275	1.073718	-0.573487
C23	C	-0.310283	0.963996	-0.573501
C24	C	-0.431573	1.223473	-0.314888
C25	C	-0.479018	1.278275	-0.247587
C26	C	-0.551471	1.242615	-0.231286
C27	C	-0.576494	1.152156	-0.282301
C28	C	-0.529054	1.097360	-0.349610
C29	C	-0.456590	1.133018	-0.365892
C30	C	-0.283872	0.814119	-0.697491
C31	C	-0.236435	0.759321	-0.764806
C32	C	-0.163980	0.794979	-0.781118
C33	C	-0.138960	0.885442	-0.730122
C34	C	-0.186397	0.940239	-0.662806
C35	C	-0.258851	0.904574	-0.646493
C36	C	-0.550666	1.518140	-0.506160
C37	C	-0.633212	1.518182	-0.506188
C38	C	-0.832668	1.448094	-0.576335
C39	C	-0.882115	1.422478	-0.480467
C40	C	-0.784342	1.518285	-0.506202
C41	C	-0.881976	1.543953	-0.602081
C42	C	-0.930327	1.518383	-0.506223
C43	C	-0.832702	1.492619	-0.410282
C44	C	-0.832559	1.614139	-0.531961
C45	C	-0.881984	1.588559	-0.436027
C46	C	-0.700244	1.518226	-0.506190
C47	C	-1.014424	1.518442	-0.506224
C48	C	-0.164008	1.518423	-0.506218
C49	C	-0.081462	1.518489	-0.506235
C50	C	-0.357642	1.518346	-0.780211
C51	C	-0.357612	1.518379	-0.896988
C52	C	-0.357727	1.792300	-0.506198
C53	C	-0.357732	1.909077	-0.506207
C54	C	-0.310109	1.585619	-0.951867
C55	C	-0.310077	1.585637	-1.061591
C56	C	-0.405058	1.451172	-1.061548
C57	C	-0.405085	1.451150	-0.951826
C58	C	-0.222456	1.623278	-1.211567
C59	C	-0.174959	1.690534	-1.266449
C60	C	-0.163573	1.793050	-1.230857
C61	C	-0.199693	1.828332	-1.140385
C62	C	-0.247196	1.761082	-1.085508
C63	C	-0.258568	1.658550	-1.121098
C64	C	-0.492707	1.413520	-0.801848
C65	C	-0.540214	1.346274	-0.746969
C66	C	-0.551608	1.243755	-0.782559
C67	C	-0.515500	1.208478	-0.873035
C68	C	-0.467993	1.275723	-0.927914
C69	C	-0.456598	1.378241	-0.892316
C70	C	-0.357731	1.518249	-0.233210
C71	C	-0.357552	1.518419	-0.116434
H72	H	-0.079962	0.914477	-0.743406
H73	H	-0.590101	1.287242	-0.176487
H74	H	-0.438593	1.246992	-1.001584
H75	H	-0.372574	1.252510	-0.328145
C76	C	-0.886035	1.641668	-0.255608
C77	C	-0.911042	1.668745	-0.355886
H78	H	-0.903980	1.691166	-0.206132
H79	H	-0.833418	1.641664	-0.254770
H80	H	-0.903757	1.573816	-0.237907
H81	H	-0.893315	1.736596	-0.373590
H82	H	-0.963670	1.668761	-0.356726
H83	H	-0.810777	1.695134	-0.553776
H84	H	-0.635496	1.123136	-0.269032
H85	H	-0.458643	1.351942	-0.206072
H86	H	-0.443711	1.396439	-1.106210
H87	H	-0.124899	1.847810	-1.275550
C88	C	-0.577340	1.044210	-0.844885
C89	C	-0.528021	1.095785	-0.912162
H90	H	-0.585068	0.974637	-0.869039
H91	H	-0.623229	1.080590	-0.843830
H92	H	-0.557162	1.042411	-0.776162
H93	H	-0.548201	1.097591	-0.980884
H94	H	-0.482123	1.059396	-0.913229
C95	C	-0.149097	0.647823	-0.896453
C96	C	-0.111837	0.734750	-0.855122
H97	H	-0.116903	0.610642	-0.942133
H98	H	-0.191369	0.670791	-0.934329
H99	H	-0.164277	0.603075	-0.840926
H100	H	-0.096662	0.779502	-0.910650
H101	H	-0.069552	0.711783	-0.817245
H102	H	-0.271645	1.118446	-0.628277
H103	H	-0.811147	1.470854	-0.329184
H104	H	-0.549428	1.023711	-0.391148
H105	H	-0.903620	1.565624	-0.683157
H106	H	-0.166075	1.014038	-0.621474
H107	H	-0.590299	1.189008	-0.737872
C108	C	-0.266875	1.904039	-0.966409
C109	C	-0.286896	1.799848	-0.986062
H110	H	-0.291378	1.927968	-0.905007
H111	H	-0.280871	1.946487	-1.024264
H112	H	-0.214795	1.908317	-0.956609
H113	H	-0.338974	1.795572	-0.995869
H114	H	-0.272903	1.757388	-0.928192
H115	H	-0.271451	1.640358	-0.907221
H116	H	-0.443801	0.919163	-0.384101
H117	H	-0.190424	1.911815	-1.111418
H118	H	-0.256814	0.685665	-0.806335
H119	H	-0.145550	1.661798	-1.340112
H120	H	-0.342871	0.785079	-0.684216
C121	C	-0.656669	1.378740	-0.661980
C122	C	-0.579906	1.385044	-0.647512
H123	H	-0.681170	1.402678	-0.600580
H124	H	-0.670249	1.308067	-0.675327
H125	H	-0.670648	1.421215	-0.719836
H126	H	-0.565926	1.342563	-0.589660
H127	H	-0.566320	1.455729	-0.634152
H128	H	-0.811013	1.388648	-0.635561
C129	C	-0.502306	1.597218	-0.840344
C130	C	-0.480177	1.526221	-0.762743
H131	H	-0.494567	1.666795	-0.816208
H132	H	-0.553352	1.587212	-0.855377
H133	H	-0.473996	1.585804	-0.902071
H134	H	-0.508492	1.537629	-0.701018
H135	H	-0.429123	1.536230	-0.747696
C136	C	-0.886617	1.239674	-0.524586
C137	C	-0.911505	1.313110	-0.451055
H138	H	-0.904763	1.172155	-0.506435
H139	H	-0.834002	1.238690	-0.524987
H140	H	-0.904218	1.258365	-0.592204
H141	H	-0.893899	1.294422	-0.383437
H142	H	-0.964130	1.314091	-0.450644
H143	H	-0.231717	1.539798	-1.240549
