data_functionalizedCrystal
_audit_creation_method	'MofGen! by Chris Wilmer'
_symmetry_space_group_name_H-M	'P1'
_symmetry_Int_Tables_number	1
_symmetry_cell_setting	triclinic
loop_
_symmetry_equiv_pos_as_xyz
  x,y,z
_cell_length_a	10.654542
_cell_length_b	22.610064
_cell_length_c	10.654541
_cell_angle_alpha	89.997333
_cell_angle_beta	84.484065
_cell_angle_gamma	90.015565
loop_
_atom_site_label
_atom_site_type_symbol
_atom_site_fract_x
_atom_site_fract_y
_atom_site_fract_z
O1	O	-1.667862	-0.049199	-0.176374
O2	O	-1.302382	-0.049197	-0.193182
O3	O	-1.493527	-0.049195	-0.002038
O4	O	-1.476717	-0.049202	-0.367518
O5	O	-1.493471	0.049175	-0.002062
O6	O	-1.302326	0.049172	-0.193206
O7	O	-1.667806	0.049170	-0.176398
Zn8	Zn	-1.485057	0.064789	-0.184806
Zn9	Zn	-1.485131	-0.064816	-0.184774
O10	O	-1.476661	0.049168	-0.367541
C11	C	-1.255556	-0.000012	-0.191960
C12	C	-1.116113	-0.000011	-0.188269
N13	N	-1.485016	0.153242	-0.184826
C14	C	-0.854154	-0.107263	-0.181286
C15	C	-0.919703	-0.160885	-0.183009
C16	C	-1.050720	-0.160883	-0.186486
C17	C	-1.116193	-0.107255	-0.188237
C18	C	-1.050644	-0.053634	-0.186514
C19	C	-0.919623	-0.053641	-0.183040
C20	C	-1.050564	0.053610	-0.186546
C21	C	-0.919545	0.053610	-0.183078
C22	C	-1.116037	0.107238	-0.188298
C23	C	-1.050487	0.160861	-0.186584
C24	C	-0.919461	0.160858	-0.183107
C25	C	-0.853997	0.107232	-0.181355
C26	C	-1.492265	-0.000010	0.044748
C27	C	-1.488574	-0.000011	0.184191
C28	C	-0.714631	-0.000015	-0.177623
C29	C	-0.854073	-0.000018	-0.181327
C30	C	-1.408260	0.438085	-0.107898
C31	C	-1.408249	0.376165	-0.107902
O32	O	-1.342941	0.344142	-0.042492
N33	N	-1.485064	0.345194	-0.184792
C34	C	-1.561905	0.376146	-0.261672
O35	O	-1.627242	0.344117	-0.327072
C36	C	-1.561921	0.438065	-0.261660
C37	C	-1.485092	0.469033	-0.184775
C38	C	-1.331438	0.469053	-0.031018
C39	C	-1.331447	0.530969	-0.031016
C40	C	-1.408279	0.561916	-0.107893
C41	C	-1.485101	0.530948	-0.184773
C42	C	-1.638768	0.469016	-0.338533
C43	C	-1.638778	0.530939	-0.338513
C44	C	-1.561949	0.561907	-0.261629
C45	C	-1.561942	0.623812	-0.261648
N46	N	-1.485127	0.654783	-0.184759
C47	C	-1.408295	0.623835	-0.107881
C48	C	-1.561866	0.246112	-0.261689
C49	C	-1.561843	0.184195	-0.261709
C50	C	-1.408189	0.184218	-0.107937
C51	C	-1.408206	0.246137	-0.107925
C52	C	-1.485050	0.277084	-0.184800
C53	C	-1.408320	0.753862	-0.107883
C54	C	-1.408333	0.815784	-0.107891
C55	C	-1.561991	0.815755	-0.261658
C56	C	-1.561974	0.753839	-0.261655
C57	C	-1.485135	0.722894	-0.184757
O58	O	-1.627221	0.655874	-0.327021
O59	O	-1.342982	0.655872	-0.042480
N60	N	-1.485164	0.846731	-0.184769
C61	C	-1.477923	-0.000018	-0.414327
C62	C	-1.481614	-0.000021	-0.553771
C63	C	-1.717139	-0.000005	0.212164
C64	C	-1.829682	-0.000001	0.291659
C65	C	-1.826207	-0.000003	0.422677
C66	C	-1.710176	-0.000011	0.474201
C67	C	-1.597632	-0.000015	0.394706
C68	C	-1.601120	-0.000011	0.263687
C69	C	-1.369070	-0.000025	0.366734
C70	C	-1.372543	-0.000019	0.235716
C71	C	-1.253039	-0.000033	0.418259
C72	C	-1.140493	-0.000033	0.338763
C73	C	-1.143974	-0.000031	0.207738
C74	C	-1.260000	-0.000023	0.156221
H75	H	-0.866381	-0.204548	-0.181578
H76	H	-1.268872	0.443862	0.031591
O77	O	-1.333547	0.276125	-0.033117
C78	C	-1.181083	0.269598	0.119341
C79	C	-1.265595	0.235567	0.034698
H80	H	-1.126102	0.236821	0.174171
H81	H	-1.242198	0.298553	0.188227
H82	H	-1.112314	0.298621	0.058209
H83	H	-1.334377	0.206512	0.095729
H84	H	-1.204400	0.206649	-0.034195
O85	O	-1.249433	-0.000063	0.545500
C86	C	-1.119019	-0.000039	0.718166
C87	C	-1.122927	-0.000020	0.574044
H88	H	-1.016749	0.000008	0.741289
H89	H	-1.168681	-0.041214	0.759999
H90	H	-1.168753	0.041120	0.759910
H91	H	-1.073179	-0.041152	0.532192
H92	H	-1.073305	0.041182	0.532302
H93	H	-1.052326	-0.000037	0.143019
O94	O	-1.114199	-0.213023	-0.188216
C95	C	-1.100475	-0.319398	-0.187752
C96	C	-1.028427	-0.260395	-0.185815
H97	H	-1.031163	-0.357714	-0.185785
H98	H	-1.151040	-0.322117	-0.277140
H99	H	-1.172588	-0.322042	-0.101667
H100	H	-0.956253	-0.257712	-0.271838
H101	H	-0.977948	-0.257701	-0.096371
H102	H	-1.624543	0.840964	-0.324252
H103	H	-1.345628	0.159009	-0.045340
H104	H	-0.747470	-0.107270	-0.178471
H105	H	-1.701333	0.443812	-0.401138
H106	H	-1.046030	-0.000043	0.380726
H107	H	-1.222876	-0.107259	-0.191053
O108	O	-1.113898	0.213003	-0.188220
C109	C	-1.099996	0.319377	-0.187965
C110	C	-1.028026	0.260369	-0.186077
H111	H	-1.030597	0.357689	-0.186260
H112	H	-1.172027	0.322102	-0.101827
H113	H	-1.150647	0.322023	-0.277304
H114	H	-0.977299	0.257684	-0.096795
H115	H	-0.956067	0.257669	-0.272275
H116	H	-1.719980	0.000004	0.105483
H117	H	-0.866098	0.204523	-0.181709
H118	H	-1.222719	0.107235	-0.191121
H119	H	-1.924153	0.000011	0.249693
H120	H	-1.262845	-0.000018	0.049541
O121	O	-1.333666	0.845774	-0.033083
C122	C	-1.181205	0.839255	0.119380
C123	C	-1.265719	0.805219	0.034746
H124	H	-1.126228	0.806481	0.174222
H125	H	-1.242319	0.868215	0.188256
H126	H	-1.112432	0.868273	0.058241
H127	H	-1.334504	0.776169	0.095784
H128	H	-1.204526	0.776296	-0.034137
O129	O	-1.333859	0.723781	-0.033052
C130	C	-1.325080	0.653849	0.136549
C131	C	-1.409564	0.687889	0.051922
H132	H	-1.386250	0.624812	0.205254
H133	H	-1.270203	0.686599	0.191582
H134	H	-1.256219	0.624902	0.075389
H135	H	-1.478496	0.716836	0.112988
H136	H	-1.464352	0.655107	-0.003119
H137	H	-0.747314	0.107224	-0.178532
H138	H	-1.268889	0.556177	0.031596
O139	O	-1.636582	0.154208	-0.336440
C140	C	-1.788929	0.160737	-0.489015
C141	C	-1.704362	0.194768	-0.404425
H142	H	-1.843731	0.193515	-0.544023
H143	H	-1.857841	0.131752	-0.427954
H144	H	-1.727743	0.131745	-0.557759
H145	H	-1.765446	0.223792	-0.335668
H146	H	-1.635443	0.223715	-0.465565
O147	O	-1.636649	0.276198	-0.336198
C148	C	-1.806264	0.346093	-0.345049
C149	C	-1.721678	0.312053	-0.260524
H150	H	-1.875013	0.375100	-0.283903
H151	H	-1.861248	0.313343	-0.399973
H152	H	-1.745080	0.375070	-0.413866
H153	H	-1.782769	0.283076	-0.191634
H154	H	-1.666685	0.344836	-0.205688
H155	H	-1.701358	0.556132	-0.401114
O156	O	-1.636711	0.723845	-0.336384
C157	C	-1.789057	0.730364	-0.488961
C158	C	-1.704491	0.764400	-0.404380
H159	H	-1.843859	0.763138	-0.543978
H160	H	-1.857969	0.701382	-0.427894
H161	H	-1.727871	0.701368	-0.557698
H162	H	-1.765576	0.793428	-0.335630
H163	H	-1.635572	0.793345	-0.465526
H164	H	-1.917849	-0.000004	0.487402
H165	H	-1.707356	-0.000019	0.580884
