data_functionalizedCrystal
_audit_creation_method	'MofGen! by Chris Wilmer'
_symmetry_space_group_name_H-M	'P1'
_symmetry_Int_Tables_number	1
_symmetry_cell_setting	triclinic
loop_
_symmetry_equiv_pos_as_xyz
  x,y,z
_cell_length_a	17.699097
_cell_length_b	27.732048
_cell_length_c	16.776229
_cell_angle_alpha	90.008366
_cell_angle_beta	90.009351
_cell_angle_gamma	82.965542
loop_
_atom_site_label
_atom_site_type_symbol
_atom_site_fract_x
_atom_site_fract_y
_atom_site_fract_z
O1	O	1.003532	0.061155	0.066363
O2	O	0.783085	0.069101	0.066351
O3	O	0.900155	-0.005244	0.066342
O4	O	0.886462	0.135500	0.066372
O5	O	0.900142	-0.005244	-0.066234
O6	O	0.783072	0.069101	-0.066225
O7	O	1.003519	0.061155	-0.066213
Zn8	Zn	0.893293	0.065128	-0.087269
Zn9	Zn	0.893310	0.065128	0.087407
O10	O	0.886449	0.135500	-0.066205
C11	C	0.754884	0.068815	0.000061
C12	C	0.670874	0.067958	0.000056
C13	C	0.899861	-0.023252	0.000052
C14	C	0.898995	-0.076910	0.000045
C15	C	0.155209	0.062702	0.072355
C16	C	0.234146	0.063505	0.072351
C17	C	0.273601	0.063907	0.000080
C18	C	0.234117	0.063501	-0.072191
C19	C	0.155182	0.062695	-0.072187
C20	C	0.552452	0.066750	-0.072212
C21	C	0.631392	0.067557	-0.072211
C22	C	0.631417	0.067560	0.072326
C23	C	0.552482	0.066754	0.072331
C24	C	0.513004	0.066346	0.000060
C25	C	0.427412	0.065475	0.000064
C26	C	0.359192	0.064781	0.000074
C27	C	0.962727	-0.415494	0.000090
C28	C	0.959516	-0.617165	0.000101
O29	O	1.017794	-0.648209	0.000139
N30	N	0.890098	-0.636540	0.000096
C31	C	0.821478	-0.605495	0.000094
O32	O	0.762361	-0.626602	0.000099
C33	C	0.824691	-0.403824	0.000089
C34	C	0.894113	-0.384452	0.000085
C35	C	1.032144	-0.396121	0.000087
C36	C	1.032946	-0.345706	0.000080
C37	C	0.964331	-0.314664	0.000075
C38	C	0.894915	-0.334037	0.000078
C39	C	0.756072	-0.372780	0.000093
C40	C	0.756881	-0.322359	0.000093
C41	C	0.826303	-0.302987	0.000090
C42	C	0.827102	-0.252580	0.000067
N43	N	0.896520	-0.233205	0.000071
C44	C	0.965135	-0.264247	0.000076
C45	C	0.819797	-0.711375	0.000095
C46	C	0.818994	-0.761792	0.000095
C47	C	0.957031	-0.773459	0.000103
C48	C	0.957834	-0.723041	0.000097
C49	C	0.889215	-0.691999	0.000100
C50	C	0.966814	-0.158371	0.000060
C51	C	0.967610	-0.107952	0.000050
C52	C	0.829572	-0.096289	0.000046
C53	C	0.828776	-0.146705	0.000052
C54	C	0.897403	-0.177745	0.000062
O55	O	0.768855	-0.221508	0.000038
O56	O	1.024244	-0.243130	0.000089
C57	C	0.961925	-0.465909	0.000097
C58	C	0.892509	-0.485282	0.000099
C59	C	0.823894	-0.454240	0.000095
C60	C	0.891705	-0.535699	0.000099
C61	C	0.960320	-0.566741	0.000104
C62	C	1.029738	-0.547365	0.000108
C63	C	1.030540	-0.496950	0.000101
C64	C	0.754476	-0.473615	0.000091
C65	C	0.753680	-0.524031	0.000097
C66	C	0.822294	-0.555072	0.000101
C67	C	1.031720	0.061441	0.000078
C68	C	1.115730	0.062298	0.000089
C69	C	0.886743	0.153508	0.000088
C70	C	0.887608	0.207166	0.000100
N71	N	0.893287	0.065128	-0.206480
C72	C	0.938843	0.094410	-0.248184
C73	C	0.938852	0.094408	-0.331637
C74	C	0.893299	0.065126	-0.373383
C75	C	0.847741	0.035840	-0.331673
C76	C	0.847737	0.035840	-0.248222
C77	C	0.847756	0.035841	-0.668220
C78	C	0.847762	0.035845	-0.751676
C79	C	0.938871	0.094409	-0.751635
C80	C	0.938867	0.094409	-0.668184
C81	C	0.893312	0.065121	-0.626481
C82	C	0.893305	0.065123	-0.535992
C83	C	0.893302	0.065127	-0.463870
N84	N	0.893323	0.065125	0.206618
H85	H	0.123090	0.062379	0.131206
N86	N	0.276730	0.063934	0.150294
H87	H	0.239758	0.063559	0.196078
H88	H	0.303002	0.094219	0.153450
N89	N	0.798635	0.004254	-0.796702
H90	H	0.831874	-0.019425	-0.831326
H91	H	0.761348	0.025360	-0.831282
N92	N	0.509930	0.066315	0.150280
H93	H	0.453935	0.065743	0.139317
H94	H	0.517246	0.096407	0.181849
H95	H	0.663569	0.067890	0.131173
H96	H	0.810663	0.011993	-0.634275
H97	H	1.014364	-0.707271	0.000095
N98	N	0.798613	0.004253	-0.376694
H99	H	0.805526	0.008697	-0.435889
H100	H	0.743457	0.013844	-0.362116
N101	N	0.798605	0.004254	-0.203236
H102	H	0.769747	-0.014296	-0.242344
H103	H	0.761357	0.025356	-0.168612
H104	H	0.698601	-0.448345	0.000089
N105	N	0.276673	0.063937	-0.150139
H106	H	0.256440	0.093748	-0.181726
H107	H	0.269405	0.033824	-0.181677
N108	N	1.042493	-0.087061	0.000048
H109	H	1.045910	-0.066396	0.049190
H110	H	1.045855	-0.066435	-0.049135
H111	H	0.663514	0.067885	-0.131066
H112	H	0.123037	0.062371	-0.131033
H113	H	0.520321	0.066411	-0.131059
N114	N	0.987980	0.125989	-0.203158
H115	H	0.954751	0.149675	-0.168535
H116	H	1.016837	0.144506	-0.242292
H117	H	1.022697	-0.183639	0.000071
H118	H	1.089477	-0.329938	0.000080
N119	N	1.106156	-0.429597	0.000091
H120	H	1.150246	-0.409666	0.000088
H121	H	1.108826	-0.450772	-0.049060
N122	N	1.031039	-0.806944	0.000106
H123	H	1.019989	-0.841822	0.000106
H124	H	1.061320	-0.800678	0.049258
H125	H	0.975966	0.118255	-0.785599
H126	H	0.762463	-0.777560	0.000084
H127	H	0.763915	-0.686105	0.000097
H128	H	0.701001	-0.297087	0.000096
N129	N	0.681194	-0.393666	0.000086
H130	H	0.637856	-0.366344	0.000085
H131	H	0.677852	-0.414326	0.049234
H132	H	0.772247	-0.162478	0.000033
N133	N	0.755569	-0.062804	0.000020
H134	H	0.766618	-0.027926	0.000012
H135	H	0.725286	-0.069056	0.049163
H136	H	1.087070	-0.481182	0.000098
N137	N	1.103745	-0.580851	0.000106
H138	H	1.092694	-0.615728	0.000109
H139	H	1.134031	-0.574584	0.049254
H140	H	0.697144	-0.539798	0.000093
N141	N	0.988025	0.125968	-0.376619
H142	H	1.016890	0.144512	-0.337510
H143	H	0.954783	0.149629	-0.411267
N144	N	0.987998	0.125991	-0.623157
H145	H	1.016863	0.144541	-0.662241
H146	H	1.025241	0.104884	-0.588533
