data_functionalizedCrystal
_audit_creation_method	'MofGen! by Chris Wilmer'
_symmetry_space_group_name_H-M	'P1'
_symmetry_Int_Tables_number	1
_symmetry_cell_setting	triclinic
loop_
_symmetry_equiv_pos_as_xyz
  x,y,z
_cell_length_a	16.120490
_cell_length_b	17.077402
_cell_length_c	17.077396
_cell_angle_alpha	89.970962
_cell_angle_beta	87.084783
_cell_angle_gamma	87.117553
loop_
_atom_site_label
_atom_site_type_symbol
_atom_site_fract_x
_atom_site_fract_y
_atom_site_fract_z
Zn1	Zn	1.274539	-0.373507	-0.504589
Zn2	Zn	1.274434	-0.504777	-0.373317
Zn3	Zn	1.135122	-0.366862	-0.366692
Zn4	Zn	1.135082	-0.498060	-0.497898
O5	O	1.204794	-0.435802	-0.435624
O6	O	1.391191	-0.396512	-0.492748
O7	O	1.255927	-0.486512	-0.262590
O8	O	1.153676	-0.257899	-0.385012
O9	O	1.391114	-0.492956	-0.396303
O10	O	1.256105	-0.262782	-0.486324
O11	O	1.153575	-0.385186	-0.257722
O12	O	1.018450	-0.378673	-0.378524
O13	O	1.153608	-0.481508	-0.608634
O14	O	1.018421	-0.475065	-0.474921
O15	O	1.256066	-0.390000	-0.613550
O16	O	1.255889	-0.613730	-0.389815
O17	O	1.153507	-0.608796	-0.481345
C18	C	0.988185	-0.425420	-0.425278
C19	C	0.895519	-0.420997	-0.420870
C20	C	1.204705	-0.639745	-0.435591
C21	C	1.204743	-0.726997	-0.435607
C22	C	1.258220	-1.105297	-0.488473
C23	C	1.258183	-1.023314	-0.488453
C24	C	1.204875	-0.979852	-0.435660
C25	C	1.151606	-1.018376	-0.382878
C26	C	1.151649	-1.100357	-0.382895
C27	C	1.151520	-0.847502	-0.382847
C28	C	1.151477	-0.765515	-0.382831
C29	C	1.258055	-0.770459	-0.488405
C30	C	1.258097	-0.852440	-0.488422
C31	C	1.204827	-0.890959	-0.435641
C32	C	0.684577	-0.458736	-0.458487
C33	C	0.725863	-0.412930	-0.412822
C34	C	0.820268	-0.417420	-0.417302
C35	C	0.590162	-0.454247	-0.454009
C36	C	1.422249	-0.446224	-0.446011
C37	C	1.514915	-0.450666	-0.450437
C38	C	1.204845	-0.435746	-0.640371
C39	C	1.204866	-0.435723	-0.727622
C40	C	1.204906	-0.231063	-0.435675
C41	C	1.204954	-0.143815	-0.435697
C42	C	1.258218	-0.388070	-0.771173
C43	C	1.258228	-0.388044	-0.853154
C44	C	1.204890	-0.435676	-0.891582
C45	C	1.151532	-0.483331	-0.848025
C46	C	1.151518	-0.483352	-0.766045
C47	C	1.151565	-0.483285	-1.018897
C48	C	1.151580	-0.483265	-1.100882
C49	C	1.258275	-0.387978	-1.106005
C50	C	1.258262	-0.387999	-1.024025
C51	C	1.204905	-0.435654	-0.980474
C52	C	1.204792	-0.435802	-0.231676
C53	C	1.204932	-0.435613	-0.144433
H54	H	1.301622	-1.140678	-0.531471
C55	C	0.732602	-0.516271	-0.515840
C56	C	0.828373	-0.520736	-0.520288
C57	C	0.876410	-0.578272	-0.577638
C58	C	0.828676	-0.631343	-0.630540
C59	C	0.732899	-0.626879	-0.626094
C60	C	0.684862	-0.569343	-0.568744
H61	H	0.863714	-0.481448	-0.481126
H62	H	0.947311	-0.581575	-0.580929
H63	H	0.864236	-0.673934	-0.672994
H64	H	0.697559	-0.666167	-0.665256
H65	H	0.613962	-0.566040	-0.565453
H66	H	1.301655	-0.349285	-0.739890
C67	C	1.316918	-0.335623	-0.901056
C68	C	1.411689	-0.346579	-0.894317
C69	C	1.470380	-0.294153	-0.942218
C70	C	1.434300	-0.230771	-0.996857
C71	C	1.339524	-0.219813	-1.003598
C72	C	1.280833	-0.272239	-0.955698
H73	H	1.438401	-0.393500	-0.853868
H74	H	1.540539	-0.302265	-0.937227
H75	H	1.477747	-0.191962	-1.032316
H76	H	1.312811	-0.172892	-1.044048
H77	H	1.210674	-0.264127	-0.960689
C78	C	1.092881	-0.535720	-0.970995
C79	C	1.128978	-0.599094	-0.916357
C80	C	1.070303	-0.651536	-0.868459
C81	C	0.975530	-0.640604	-0.875198
C82	C	0.939428	-0.577228	-0.929838
C83	C	0.998104	-0.524786	-0.977737
H84	H	1.199139	-0.607188	-0.911366
H85	H	1.097028	-0.698452	-0.828010
H86	H	0.932095	-0.679425	-0.839740
H87	H	0.869267	-0.569133	-0.934829
H88	H	0.971378	-0.477870	-1.018185
C89	C	1.316651	-0.728093	-0.546468
C90	C	1.375279	-0.775898	-0.604548
C91	C	1.433866	-0.733528	-0.662614
C92	C	1.433825	-0.643352	-0.662599
C93	C	1.375195	-0.595542	-0.604517
C94	C	1.316607	-0.637912	-0.546451
H95	H	1.375311	-0.842656	-0.604561
H96	H	1.477269	-0.768921	-0.705610
H97	H	1.477195	-0.611987	-0.705583
H98	H	1.375162	-0.528784	-0.604505
H99	H	1.273205	-0.602519	-0.503455
C100	C	1.316968	-0.335553	-1.153907
C101	C	1.316984	-0.335522	-1.244082
C102	C	1.375678	-0.283104	-1.291988
C103	C	1.434356	-0.230716	-1.249720
C104	C	1.434342	-0.230745	-1.159541
C105	C	1.375647	-0.283163	-1.111634
H106	H	1.273546	-0.374304	-1.275376
H107	H	1.375689	-0.283082	-1.358745
H108	H	1.477805	-0.191913	-1.285183
H109	H	1.477780	-0.191963	-1.128247
H110	H	1.375637	-0.283185	-1.044877
H111	H	0.690307	-0.370343	-0.370363
C112	C	1.092922	-0.889872	-0.324788
C113	C	1.027478	-0.943132	-0.355641
C114	C	0.968878	-0.985501	-0.297587
C115	C	0.975721	-0.974611	-0.208680
C116	C	1.041167	-0.921349	-0.177822
C117	C	1.099767	-0.878979	-0.235876
H118	H	1.022410	-0.951196	-0.421460
H119	H	0.920430	-1.024930	-0.320430
H120	H	0.932341	-1.005975	-0.165704
H121	H	1.046234	-0.913285	-0.112004
H122	H	1.148215	-0.839551	-0.213033
H123	H	1.108065	-0.522147	-0.730586
C124	C	1.093055	-1.142732	-0.324841
C125	C	1.099906	-1.131841	-0.235935
C126	C	1.041314	-1.174215	-0.177876
C127	C	0.975872	-1.227480	-0.208723
C128	C	0.969019	-1.238373	-0.297634
C129	C	1.027610	-1.195999	-0.355693
H130	H	1.148352	-1.092409	-0.213096
H131	H	1.046388	-1.166152	-0.112058
H132	H	0.932499	-1.258848	-0.165745
H133	H	0.920572	-1.277805	-0.320473
H134	H	1.022536	-1.204063	-0.421511
H135	H	1.301699	-0.349217	-0.992739
C136	C	1.092937	-0.535688	-1.143157
C137	C	1.034264	-0.588125	-1.095257
C138	C	0.975637	-0.640565	-1.137533
C139	C	0.975683	-0.640567	-1.227709
C140	C	1.034358	-0.588129	-1.275614
C141	C	1.092986	-0.535689	-1.233338
H142	H	1.034228	-0.588125	-1.028499
H143	H	0.932201	-0.679383	-1.102070
H144	H	0.932284	-0.679386	-1.259005
H145	H	1.034395	-0.588129	-1.342372
H146	H	1.136421	-0.496871	-1.268801
H147	H	1.108100	-0.522110	-0.879320
H148	H	1.301503	-0.887825	-0.531413
C149	C	1.316774	-0.980949	-0.546514
C150	C	1.382230	-0.927694	-0.515673
C151	C	1.440825	-0.885332	-0.573738
C152	C	1.433965	-0.896223	-0.662643
C153	C	1.368507	-0.949480	-0.693488
C154	C	1.309912	-0.991843	-0.635423
H155	H	1.387310	-0.919630	-0.449857
H156	H	1.489282	-0.845908	-0.550904
H157	H	1.477341	-0.864864	-0.705626
H158	H	1.363427	-0.957545	-0.759305
H159	H	1.261455	-1.031267	-0.658257
H160	H	1.108205	-0.982984	-0.339888
H161	H	1.108068	-0.730132	-0.339840
