data_functionalizedCrystal
_audit_creation_method	'MofGen! by Chris Wilmer'
_symmetry_space_group_name_H-M	'P1'
_symmetry_Int_Tables_number	1
_symmetry_cell_setting	triclinic
loop_
_symmetry_equiv_pos_as_xyz
  x,y,z
_cell_length_a	12.594516
_cell_length_b	12.594517
_cell_length_c	12.594509
_cell_angle_alpha	89.974182
_cell_angle_beta	90.026199
_cell_angle_gamma	89.989009
loop_
_atom_site_label
_atom_site_type_symbol
_atom_site_fract_x
_atom_site_fract_y
_atom_site_fract_z
Zn1	Zn	-0.423854	-1.627267	0.602003
Zn2	Zn	-0.601864	-1.627158	0.424030
Zn3	Zn	-0.423884	-1.449271	0.424017
Zn4	Zn	-0.601775	-1.449253	0.601946
O5	O	-0.512844	-1.538237	0.512999
O6	O	-0.447492	-1.776198	0.578423
O7	O	-0.578305	-1.603523	0.275083
O8	O	-0.274934	-1.472936	0.447646
O9	O	-0.578275	-1.776118	0.447668
O10	O	-0.274912	-1.603709	0.578411
O11	O	-0.447544	-1.472830	0.275073
O12	O	-0.447457	-1.300323	0.447591
O13	O	-0.578123	-1.472905	0.750900
O14	O	-0.578153	-1.300310	0.578315
O15	O	-0.447405	-1.603691	0.750941
O16	O	-0.750798	-1.603505	0.447613
O17	O	-0.750732	-1.472799	0.578327
C18	C	-0.512799	-1.261696	0.512946
C19	C	-0.512806	-1.143391	0.512949
C20	C	-0.789385	-1.538167	0.512989
C21	C	-0.907691	-1.538235	0.513020
C22	C	-0.441618	-1.074114	0.441978
C23	C	-0.538700	-1.003303	0.415796
C24	C	-0.415753	-1.003403	0.539132
C25	C	-0.609940	-1.074138	0.486716
C26	C	-0.486927	-1.074244	0.610097
C27	C	-0.584077	-1.003465	0.583952
C28	C	-0.976947	-1.467137	0.584065
C29	C	-1.047810	-1.441204	0.486940
C30	C	-1.047626	-1.564265	0.610162
C31	C	-0.976995	-1.512250	0.415843
C32	C	-0.976806	-1.635357	0.539130
C33	C	-1.047637	-1.609461	0.441938
C34	C	-0.235223	-1.538336	0.513033
C35	C	-0.116918	-1.538378	0.513047
C36	C	-0.512751	-1.538308	0.790620
C37	C	-0.512711	-1.538339	0.908926
C38	C	-0.512869	-0.815858	0.513033
C39	C	-0.512825	-0.934163	0.512998
C40	C	-0.512860	-1.538227	0.236458
C41	C	-0.512600	-1.538403	0.118153
C42	C	-0.583768	-1.467227	0.978157
C43	C	-0.609783	-1.564347	1.048956
C44	C	-0.486632	-1.441294	1.048926
C45	C	-0.538777	-1.635510	0.978167
C46	C	-0.415581	-1.512392	0.978131
C47	C	-0.441559	-1.609579	1.048898
H48	H	-0.381482	-1.105135	0.381894
H49	H	-0.333679	-0.972276	0.561222
O50	O	-0.939517	-1.733271	0.565313
C51	C	-0.877956	-1.773528	0.480961
H52	H	-0.902223	-1.732826	0.403810
H53	H	-0.891518	-1.862714	0.473607
H54	H	-0.790350	-1.757598	0.497256
O55	O	-0.460824	-1.111636	0.708001
C56	C	-0.462112	-1.223570	0.706809
H57	H	-0.515242	-1.252372	0.639419
H58	H	-0.494137	-1.254250	0.785712
H59	H	-0.378000	-1.254601	0.694333
O60	O	-0.655917	-0.966811	0.655710
C61	C	-0.629318	-1.004535	0.757731
H62	H	-0.579096	-1.079454	0.750099
H63	H	-0.705023	-1.023525	0.803540
H64	H	-0.582331	-0.941132	0.802050
H65	H	-0.945907	-1.406905	0.644059
H66	H	-0.643952	-1.407136	0.947096
H67	H	-1.079022	-1.359136	0.464878
H68	H	-0.946098	-1.490197	0.333680
H69	H	-0.381421	-1.669813	1.079763
O70	O	-0.707902	-1.110915	0.460052
C71	C	-0.735184	-1.073913	0.357947
H72	H	-0.687698	-0.999162	0.339256
H73	H	-0.823642	-1.054877	0.355340
H74	H	-0.716273	-1.137776	0.296683
O75	O	-0.317707	-1.485951	0.941026
C76	C	-0.290565	-1.383503	0.977036
H77	H	-0.365972	-1.337563	0.996919
H78	H	-0.244890	-1.339842	0.912231
H79	H	-0.238886	-1.390261	1.051072
O80	O	-0.565187	-1.733404	0.941073
C81	C	-0.564945	-1.732182	0.829131
H82	H	-0.576783	-1.647350	0.799818
H83	H	-0.632114	-1.784393	0.798232
H84	H	-0.485748	-1.763816	0.798822
O85	O	-0.707646	-1.590745	1.086137
C86	C	-0.700270	-1.683966	1.147732
H87	H	-0.626411	-1.730358	1.123564
H88	H	-0.773766	-1.735000	1.134098
H89	H	-0.694671	-1.661921	1.235339
H90	H	-0.464621	-1.359198	1.080009
H91	H	-1.078480	-1.669647	0.381800
H92	H	-1.078652	-1.586224	0.692302
H93	H	-0.560604	-0.972144	0.333660
