data_functionalizedCrystal
_audit_creation_method	'MofGen! by Chris Wilmer'
_symmetry_space_group_name_H-M	'P1'
_symmetry_Int_Tables_number	1
_symmetry_cell_setting	triclinic
loop_
_symmetry_equiv_pos_as_xyz
  x,y,z
_cell_length_a	26.210047
_cell_length_b	9.065218
_cell_length_c	9.065218
_cell_angle_alpha	94.984115
_cell_angle_beta	89.990192
_cell_angle_gamma	89.992214
loop_
_atom_site_label
_atom_site_type_symbol
_atom_site_fract_x
_atom_site_fract_y
_atom_site_fract_z
O1	O	-0.042428	-1.960374	0.216374
O2	O	-0.042429	-1.531089	0.234121
O3	O	-0.042427	-1.754604	0.010605
O4	O	-0.042429	-1.736858	0.439890
O5	O	0.042431	-1.754641	0.010563
O6	O	0.042429	-1.531125	0.234079
O7	O	0.042430	-1.960410	0.216332
Cu8	Cu	0.050178	-1.745771	0.225202
Cu9	Cu	-0.050177	-1.745728	0.225251
O10	O	0.042429	-1.736894	0.439848
C11	C	0.000000	-1.476120	0.232394
C12	C	0.000000	-1.312277	0.227294
N13	N	-0.120760	-1.745699	0.225275
C14	C	0.000001	-1.752917	-0.044403
C15	C	-0.000001	-1.747817	-0.208245
C16	C	-0.473274	-1.844948	0.126467
C17	C	-0.686933	-1.844970	0.126436
O18	O	-0.714554	-1.929348	0.042481
N19	N	-0.713654	-1.745803	0.225195
C20	C	-0.686958	-1.646631	0.323975
O21	O	-0.714589	-1.562295	0.407985
C22	C	-0.473301	-1.646618	0.324012
C23	C	-0.446582	-1.745781	0.225236
C24	C	-0.446555	-1.944104	0.027701
C25	C	-0.393143	-1.944092	0.027704
C26	C	-0.366451	-1.844925	0.126474
C27	C	-0.393170	-1.745769	0.225240
C28	C	-0.446606	-1.547454	0.422798
C29	C	-0.393188	-1.547462	0.422801
C30	C	-0.366469	-1.646625	0.324026
C31	C	-0.313066	-1.646590	0.324012
N32	N	-0.286345	-1.745756	0.225254
C33	C	-0.313037	-1.844924	0.126484
C34	C	-0.799132	-1.646643	0.323946
C35	C	-0.852546	-1.646644	0.323936
C36	C	-0.852516	-1.844985	0.126398
C37	C	-0.799101	-1.844975	0.126403
C38	C	-0.772410	-1.745809	0.225188
C39	C	-0.200869	-1.844891	0.126498
C40	C	-0.147453	-1.844866	0.126506
C41	C	-0.147487	-1.646531	0.324047
C42	C	-0.200898	-1.646550	0.324035
C43	C	-0.227588	-1.745742	0.225255
O44	O	-0.285412	-1.562267	0.407935
O45	O	-0.285397	-1.929270	0.042509
C46	C	-0.526685	-1.844960	0.126464
C47	C	-0.553404	-1.745804	0.225230
C48	C	-0.526712	-1.646637	0.323999
C49	C	-0.606819	-1.745806	0.225219
C50	C	-0.633511	-1.844973	0.126450
C51	C	-0.606789	-1.944139	0.027691
C52	C	-0.553378	-1.944128	0.027694
C53	C	-0.553434	-1.547471	0.422758
C54	C	-0.606845	-1.547489	0.422746
C55	C	-0.633538	-1.646657	0.323976
N56	N	0.120762	-1.745812	0.225166
C57	C	-0.000000	-2.015378	0.218059
C58	C	-0.000003	-2.179221	0.223158
C59	C	-0.000001	-1.738582	0.494855
C60	C	-0.000002	-1.743681	0.658698
H61	H	-0.125700	-1.925616	0.046066
H62	H	-0.371458	-1.466711	0.503248
C63	C	-0.524152	-1.438571	0.531789
C64	C	-0.531515	-1.270504	0.527122
C65	C	-0.502272	-1.161685	0.636339
C66	C	-0.465665	-1.220933	0.750223
C67	C	-0.458301	-1.389008	0.754895
C68	C	-0.487544	-1.497827	0.645678
H69	H	-0.558615	-1.226638	0.442814
H70	H	-0.507724	-1.037265	0.632880
H71	H	-0.444018	-1.140379	0.831072
H72	H	-0.431201	-1.432874	0.839203
H73	H	-0.482092	-1.622247	0.649138
H74	H	-0.371392	-2.024843	-0.052723
H75	H	-0.125746	-1.565786	0.404460
H76	H	-0.468353	-1.466708	0.503230
C77	C	-0.230222	-1.953994	0.017832
C78	C	-0.222859	-1.949581	-0.150264
C79	C	-0.252212	-2.058675	-0.258937
C80	C	-0.288927	-2.172181	-0.199513
C81	C	-0.296292	-2.176598	-0.031409
C82	C	-0.266939	-2.067505	0.077264
H83	H	-0.195679	-1.865553	-0.194261
H84	H	-0.246760	-2.055404	-0.383380
H85	H	-0.310656	-2.252939	-0.279960
H86	H	-0.323472	-2.260627	0.012588
H87	H	-0.272391	-2.070775	0.201707
H88	H	-0.468283	-2.024865	-0.052729
H89	H	-0.628531	-2.024881	-0.052737
H90	H	-0.777350	-1.925723	0.045973
H91	H	-0.874297	-1.565881	0.404352
H92	H	-0.777403	-1.565886	0.404391
C93	C	-0.881885	-1.954079	0.017758
C94	C	-0.940638	-1.954216	0.017913
C95	C	-0.970009	-2.063311	-0.090712
C96	C	-0.940627	-2.172270	-0.199491
C97	C	-0.881871	-2.172137	-0.199650
C98	C	-0.852499	-2.063042	-0.091026
H99	H	-0.962391	-1.873554	0.098442
H100	H	-1.013505	-2.063409	-0.090593
H101	H	-0.962370	-2.253029	-0.279902
H102	H	-0.860117	-2.252799	-0.280179
H103	H	-0.809004	-2.062944	-0.091144
H104	H	-0.222653	-1.565788	0.404452
H105	H	-0.531627	-2.024876	-0.052737
H106	H	-0.628597	-1.466726	0.503177
