data_functionalizedCrystal
_audit_creation_method	'MofGen! by Chris Wilmer'
_symmetry_space_group_name_H-M	'P1'
_symmetry_Int_Tables_number	1
_symmetry_cell_setting	triclinic
loop_
_symmetry_equiv_pos_as_xyz
  x,y,z
_cell_length_a	23.096457
_cell_length_b	15.698487
_cell_length_c	23.096457
_cell_angle_alpha	59.998775
_cell_angle_beta	90.003973
_cell_angle_gamma	59.999186
loop_
_atom_site_label
_atom_site_type_symbol
_atom_site_fract_x
_atom_site_fract_y
_atom_site_fract_z
Zr1	Zr	0.557750	0.932431	-0.075994
O2	O	0.465285	1.110162	-0.168445
O3	O	0.586096	0.754714	-0.047654
O4	O	0.586074	0.932454	-0.168452
O5	O	0.465324	0.932398	0.047642
O6	O	0.681354	0.932457	-0.168455
O7	O	0.465307	0.932421	-0.047647
O8	O	0.681394	0.614511	0.047629
O9	O	0.465284	1.250343	-0.168442
O10	O	0.669291	0.827808	-0.035568
O11	O	0.598198	0.827788	0.035548
O12	O	0.598172	1.037055	-0.106676
O13	O	0.527078	1.037036	-0.035560
Zr14	Zr	0.709739	0.932397	0.075976
Zr15	Zr	0.709711	0.932434	-0.075999
Zr16	Zr	0.557778	0.932393	0.075982
Zr17	Zr	0.557750	1.156004	-0.075990
Zr18	Zr	0.709739	0.708824	0.075973
O19	O	0.681393	1.110114	0.047637
O20	O	0.681354	1.110167	-0.168453
O21	O	0.465324	1.110108	0.047645
O22	O	0.802204	0.754665	0.168427
O23	O	0.802165	0.754719	-0.047662
O24	O	0.586135	0.754660	0.168435
O25	O	0.802165	0.932430	-0.047660
O26	O	0.681415	0.932373	0.168434
O27	O	0.586135	0.932370	0.168438
O28	O	0.802182	0.932406	0.047630
O29	O	0.586073	1.250346	-0.168447
O30	O	0.681416	0.614481	0.168429
O31	O	0.802204	0.614484	0.168425
O32	O	0.802182	0.614514	0.047625
O33	O	0.465306	1.250313	-0.047642
O34	O	0.586095	1.250316	-0.047647
O35	O	0.669317	0.827772	0.106658
O36	O	0.740411	0.827792	0.035542
O37	O	0.669291	1.037039	-0.035565
O38	O	0.598198	1.037020	0.035551
C39	C	0.633745	0.652758	-0.000013
C40	C	0.633745	0.557845	-0.000015
C41	C	0.443664	0.932409	-0.000002
C42	C	0.379153	0.932407	0.000001
C43	C	0.633743	0.384063	-0.000002
C44	C	0.633742	0.480767	-0.000007
C45	C	0.385971	0.823186	0.037111
C46	C	0.325355	0.823184	0.037114
C47	C	0.257922	0.932410	-0.000007
C48	C	0.251106	1.041646	-0.037119
C49	C	0.311722	1.041645	-0.037116
N50	N	0.135115	1.013721	-0.060422
N51	N	0.077536	1.013715	-0.060424
C52	C	0.075289	0.932421	-0.000020
N53	N	0.132804	0.851115	0.060386
N54	N	0.190390	0.851117	0.060387
C55	C	0.192191	0.932424	-0.000015
C56	C	0.016384	0.823190	0.037098
C57	C	-0.044234	0.823193	0.037103
C58	C	-0.118483	1.041658	-0.037138
C59	C	-0.057865	1.041652	-0.037136
C60	C	0.009566	0.932415	-0.000020
C61	C	0.823825	0.932418	-0.000016
C62	C	0.888336	0.932420	-0.000018
C63	C	0.633710	0.932461	-0.190107
C64	C	0.633698	0.932477	-0.254624
C65	C	0.633744	1.212069	-0.000004
C66	C	0.633744	1.306982	-0.000003
C67	C	0.686191	0.932480	-0.284920
C68	C	0.686207	0.932456	-0.345528
C69	C	0.633719	0.932452	-0.375846
C70	C	0.581222	0.932442	-0.345540
C71	C	0.581211	0.932455	-0.284930
N72	N	0.571482	1.000636	-0.494201
N73	N	0.571495	1.000627	-0.551779
C74	C	0.633748	0.932412	-0.558461
N75	N	0.695992	0.864223	-0.505394
N76	N	0.695979	0.864237	-0.447813
C77	C	0.633725	0.932438	-0.441567
C78	C	0.686262	0.932388	-0.654474
C79	C	0.686278	0.932356	-0.715080
C80	C	0.581288	0.932354	-0.715096
C81	C	0.581277	0.932374	-0.654487
C82	C	0.633764	0.932396	-0.624181
C83	C	0.633779	0.932366	0.190089
C84	C	0.633791	0.932350	0.254607
C85	C	0.823825	0.652763	-0.000020
C86	C	0.888337	0.557852	-0.000024
C87	C	0.633779	0.652711	0.190085
C88	C	0.633791	0.557782	0.254601
C89	C	0.823860	0.652715	0.190078
C90	C	0.888383	0.557788	0.254592
C91	C	0.443629	1.212112	-0.190095
C92	C	0.379106	1.307039	-0.254609
C93	C	0.443664	1.212065	0.000003
C94	C	0.379152	1.306976	0.000006
C95	C	0.633710	1.212117	-0.190102
C96	C	0.633698	1.307045	-0.254619
C97	C	0.881508	0.513289	-0.037151
C98	C	0.942118	0.424122	-0.037169
C99	C	1.009555	0.379514	-0.000055
C100	C	1.016382	0.424086	0.037073
C101	C	0.955773	0.513257	0.037087
C102	C	0.670920	0.513194	0.322024
C103	C	0.670929	0.424011	0.382649
C104	C	0.633812	0.379411	0.375850
C105	C	0.596678	0.424008	0.308420
C106	C	0.596666	0.513195	0.247796
C107	C	0.955800	0.513220	0.247766
C108	C	1.016433	0.424038	0.308378
C109	C	1.009646	0.379420	0.375814
C110	C	0.942222	0.423998	0.382638
C111	C	0.881591	0.513184	0.322027
C112	C	0.311689	1.351618	-0.247784
C113	C	0.251056	1.440828	-0.308395
C114	C	0.257843	1.485450	-0.375832
C115	C	0.325267	1.440867	-0.382656
C116	C	0.385898	1.351665	-0.322045
C117	C	0.385981	1.351548	0.037127
C118	C	0.325371	1.440739	0.037128
C119	C	0.257934	1.485350	0.000012
C120	C	0.251107	1.440774	-0.037113
C121	C	0.311716	1.351591	-0.037118
C122	C	0.670822	1.351617	-0.247797
C123	C	0.670825	1.440800	-0.308411
C124	C	0.633699	1.485417	-0.375846
C125	C	0.596573	1.440837	-0.382666
C126	C	0.596575	1.351649	-0.322053
H127	H	0.440872	0.734236	0.067330
O128	O	0.963137	0.561336	0.175038
H129	H	0.937305	0.544217	0.145640
H130	H	0.633703	1.558040	-0.425195
H131	H	0.440791	1.315369	-0.327611
H132	H	0.208588	1.557969	0.000022
H133	H	1.071327	0.387752	0.302809
H134	H	0.826603	0.549608	-0.067382
O135	O	-0.191208	1.159470	-0.077175
H136	H	-0.197377	1.211859	-0.134225
H137	H	0.936706	0.387657	0.437553
O138	O	0.808876	0.561227	0.329392
H139	H	0.814350	0.515198	0.386470
O140	O	0.192445	1.581659	-0.441204
H141	H	0.192477	1.662931	-0.473207
O142	O	0.304362	1.303499	-0.175052
H143	H	0.274942	1.378357	-0.168881
H144	H	0.633827	0.306789	0.425220
O145	O	0.710959	0.561282	0.329372
H146	H	0.704725	0.630785	0.275894
H147	H	0.440886	1.315232	0.067356
O148	O	0.178366	1.488899	-0.077141
H149	H	0.183791	1.442934	-0.102962
O150	O	0.556545	1.488925	-0.455396
H151	H	0.499494	1.529552	-0.461573
O152	O	0.178343	1.488880	-0.301017
H153	H	0.148942	1.587255	-0.326835
H154	H	0.566458	0.387681	0.302895
O155	O	0.332742	1.488793	0.077182
H156	H	0.389819	1.442765	0.103001
H157	H	0.701170	0.387711	0.437548
O158	O	0.710868	1.488871	-0.301041
H159	H	0.704643	1.558374	-0.354514
H160	H	0.729028	0.932351	-0.739745
O161	O	0.963142	0.561301	0.077145
H162	H	1.020219	0.515283	0.102955
H163	H	0.538554	0.932344	-0.739778
H164	H	0.566341	1.315369	-0.327617
H165	H	0.330785	1.477210	-0.437570
O166	O	0.304347	1.303507	-0.077150
H167	H	0.247270	1.349509	-0.102949
H168	H	1.059021	0.306799	0.425162
O169	O	0.710877	1.303490	-0.175067
H170	H	0.736698	1.349465	-0.180518
O171	O	0.556731	0.561116	0.175076
H172	H	0.530972	0.515047	0.180541
H173	H	0.538486	0.932436	-0.370227
H174	H	0.936545	0.387843	-0.067403
H175	H	0.330907	0.734240	0.067335
O176	O	0.178378	1.159458	-0.077158
H177	H	0.172212	1.211848	-0.134207
H178	H	0.306165	1.130589	-0.067334
H179	H	0.071290	0.734242	0.067335
O180	O	1.089123	0.375962	0.077100
H181	H	1.083698	0.421930	0.102919
O182	O	-0.036878	0.705379	0.077126
H183	H	-0.007427	0.652973	0.134178
O184	O	-0.065213	1.159456	-0.077174
H185	H	-0.122285	1.235410	-0.102993
H186	H	0.728930	0.932494	-0.260246
H187	H	0.538465	0.932452	-0.260262
O188	O	0.742819	0.932478	-0.378221
H189	H	0.779310	0.932506	-0.346969
O190	O	0.742876	0.932389	-0.621773
H191	H	0.779389	0.932365	-0.653016
H192	H	0.538530	0.932378	-0.629821
H193	H	1.058901	0.306904	-0.000071
