data_functionalizedCrystal
_audit_creation_method	'MofGen! by Chris Wilmer'
_symmetry_space_group_name_H-M	'P1'
_symmetry_Int_Tables_number	1
_symmetry_cell_setting	triclinic
loop_
_symmetry_equiv_pos_as_xyz
  x,y,z
_cell_length_a	16.109301
_cell_length_b	17.019294
_cell_length_c	15.186229
_cell_angle_alpha	86.117288
_cell_angle_beta	89.999006
_cell_angle_gamma	83.427995
loop_
_atom_site_label
_atom_site_type_symbol
_atom_site_fract_x
_atom_site_fract_y
_atom_site_fract_z
O1	O	1.103039	0.101396	-0.080867
O2	O	0.860966	0.114014	-0.081837
O3	O	0.988756	-0.007130	-0.072640
O4	O	0.975249	0.222539	-0.090064
O5	O	0.988747	-0.007131	0.073818
O6	O	0.860957	0.114012	0.064621
O7	O	1.103031	0.101394	0.065590
Zn8	Zn	0.981993	0.107703	0.088359
Zn9	Zn	0.982004	0.107705	-0.104605
O10	O	0.975241	0.222537	0.056393
C11	C	0.829987	0.113502	-0.008571
C12	C	0.737693	0.111969	-0.008459
C13	C	0.428635	0.178844	-0.013517
C14	C	0.515354	0.180291	-0.013632
C15	C	0.535356	0.036558	-0.002739
C16	C	0.448639	0.035112	-0.002631
C17	C	0.395280	0.106257	-0.008015
C18	C	0.568716	0.109151	-0.008239
C19	C	0.662741	0.110719	-0.008363
C20	C	0.301249	0.104689	-0.007893
C21	C	0.988239	-0.036520	0.002817
C22	C	0.986703	-0.124090	0.009455
C23	C	0.985988	-0.165225	-0.067260
C24	C	0.984539	-0.247505	-0.061021
C25	C	0.983811	-0.288650	0.021935
C26	C	0.984524	-0.247509	0.098655
C27	C	0.985967	-0.165229	0.092415
C28	C	0.979449	-0.537082	0.044771
C29	C	0.978009	-0.619368	0.051006
C30	C	0.978022	-0.619358	-0.108671
C31	C	0.979470	-0.537077	-0.114904
C32	C	0.980178	-0.495943	-0.038183
C33	C	0.982333	-0.372754	0.028315
C34	C	0.981651	-0.411839	-0.044564
C35	C	1.134009	0.101906	-0.007678
C36	C	1.226303	0.103438	-0.007795
C37	C	0.975757	0.251927	-0.019065
C38	C	0.977294	0.339497	-0.025709
N39	N	0.981991	0.107701	0.220052
N40	N	0.982012	0.107701	-0.236298
C41	C	1.038596	0.054076	0.449845
C42	C	1.038598	0.054075	0.542035
C43	C	0.925401	0.161328	0.533902
C44	C	0.925396	0.161325	0.441714
C45	C	0.981997	0.107700	0.399688
C46	C	0.982006	0.107701	0.584066
C47	C	0.982008	0.107699	0.684022
C48	C	0.981994	0.107701	0.299726
H49	H	0.542506	0.239398	-0.018113
H50	H	0.977412	-0.652865	0.118562
H51	H	0.578811	-0.021365	0.001647
H52	H	0.385192	0.236775	-0.017902
H53	H	0.879302	0.204993	0.400873
H54	H	1.084685	0.010408	0.582871
H55	H	0.421482	-0.024000	0.001847
H56	H	0.986585	-0.131731	-0.134812
H57	H	0.983960	-0.280994	-0.123490
H58	H	0.980064	-0.503583	-0.182455
H59	H	0.980042	-0.503602	0.107243
H60	H	0.977444	-0.652859	-0.171132
H61	H	0.983926	-0.281015	0.166200
H62	H	0.986537	-0.131736	0.154884
H63	H	0.982237	-0.378335	-0.112106
H64	H	0.981743	-0.406264	0.095857
H65	H	0.879319	0.204989	0.568129
H66	H	1.084683	0.010411	0.415630
