data_functionalizedCrystal
_audit_creation_method	'MofGen! by Chris Wilmer'
_symmetry_space_group_name_H-M	'P1'
_symmetry_Int_Tables_number	1
_symmetry_cell_setting	triclinic
loop_
_symmetry_equiv_pos_as_xyz
  x,y,z
_cell_length_a	15.995343
_cell_length_b	15.538191
_cell_length_c	14.185569
_cell_angle_alpha	97.872928
_cell_angle_beta	103.158392
_cell_angle_gamma	114.619361
loop_
_atom_site_label
_atom_site_type_symbol
_atom_site_fract_x
_atom_site_fract_y
_atom_site_fract_z
O1	O	1.048645	-0.142720	-0.083312
O2	O	0.800302	-0.157728	-0.083335
O3	O	0.972814	-0.013093	-0.083324
O4	O	0.876133	-0.287355	-0.083323
O5	O	1.023774	0.029629	0.083514
O6	O	0.851262	-0.115006	0.083503
O7	O	1.099605	-0.099998	0.083526
Cu8	Cu	0.980087	-0.103601	0.098748
Cu9	Cu	0.919821	-0.154125	-0.098557
O10	O	0.927093	-0.244633	0.083515
C11	C	0.794775	-0.135749	0.000081
C12	C	0.702385	-0.133896	0.000072
C13	C	0.533226	-0.130524	0.000085
C14	C	0.541611	-0.026122	0.000085
C15	C	0.445647	-0.024060	0.000469
C16	C	0.366678	-0.127204	0.000097
C17	C	0.408859	-0.155351	0.095181
C18	C	0.505297	-0.156570	0.095254
C19	C	0.446790	-0.206683	-0.094478
C20	C	0.351086	-0.203148	-0.095722
C21	C	0.272551	-0.125332	0.000107
C22	C	0.627354	-0.132397	0.000082
C23	C	1.008409	0.043363	0.000093
C24	C	1.038537	0.147936	0.000086
C25	C	1.105132	-0.121978	0.000108
C26	C	1.197520	-0.123832	0.000111
C27	C	0.891498	-0.301090	0.000096
C28	C	0.861368	-0.405664	0.000097
N29	N	1.022481	-0.068065	0.237522
C30	C	0.739197	0.435716	0.000079
C31	C	0.767532	0.533983	0.000084
C32	C	0.926904	0.556435	0.000099
C33	C	0.898581	0.458166	0.000089
C34	C	0.804727	0.397814	0.000080
C35	C	0.964111	0.420264	0.000090
C36	C	0.935792	0.322004	0.000085
C37	C	0.841943	0.261647	0.000080
C38	C	0.776408	0.299554	0.000076
C39	C	1.057967	0.480620	0.000106
C40	C	1.123497	0.442718	0.000107
C41	C	1.095176	0.344455	0.000095
C42	C	1.001327	0.284097	0.000089
C43	C	1.160711	0.306548	0.000099
C44	C	1.132391	0.208288	0.000094
C45	C	0.973007	0.185838	0.000085
N46	N	0.877435	-0.189653	-0.237331
C47	C	0.752893	-0.294017	0.605154
C48	C	0.785010	-0.267105	0.710178
C49	C	0.937778	-0.139079	0.710149
C50	C	0.905672	-0.165977	0.605123
C51	C	0.813229	-0.243447	0.552634
C52	C	0.966008	-0.115407	0.552603
C53	C	0.933906	-0.142307	0.447586
C54	C	0.841468	-0.219776	0.395090
C55	C	0.781127	-0.270347	0.447617
C56	C	1.058453	-0.037941	0.605094
C57	C	1.118789	0.012628	0.552574
C58	C	1.086685	-0.014266	0.447555
C59	C	0.994247	-0.091736	0.395059
C60	C	1.147026	0.036305	0.395028
C61	C	1.114924	0.009405	0.290011
C62	C	0.962145	-0.118635	0.290042
H63	H	0.460581	0.034396	0.069028
H64	H	0.735869	-0.308294	0.752935
H65	H	1.081019	0.560626	0.000100
F66	F	0.697780	0.574318	0.000089
F67	F	1.202140	0.167951	0.000110
H68	H	0.818888	0.181640	0.000082
F69	F	0.583068	-0.085728	0.188509
F70	F	0.682733	-0.352792	0.391752
F71	F	1.223383	0.506960	0.000123
H72	H	1.013048	-0.076004	0.752898
H73	H	0.293434	-0.279884	-0.101758
F74	F	0.676514	0.235315	0.000057
F75	F	1.179143	0.063227	0.234115
F76	F	0.654499	-0.376463	0.549289
H77	H	1.084588	-0.016046	0.690605
F78	F	0.495556	-0.255281	0.100559
H79	H	0.886865	-0.181713	0.247304
H80	H	0.354961	-0.230355	0.098450
F81	F	0.425266	-0.084500	0.188023
H82	H	0.896580	0.136693	0.000070
H83	H	1.194059	0.075704	0.595323
H84	H	1.237130	0.355703	0.000116
H85	H	0.418302	-0.000417	-0.067676
F86	F	0.567075	0.003957	-0.089025
H87	H	0.463050	-0.192205	-0.166571
F88	F	0.313960	-0.176709	-0.187668
F89	F	0.807306	-0.248408	0.283320
H90	H	1.222297	0.099376	0.437778
H91	H	0.437168	-0.283764	-0.095395
F92	F	0.622488	0.048700	0.089075
H93	H	0.662770	0.386571	0.000065
F94	F	1.026790	0.620677	0.000115
