data_functionalizedCrystal
_audit_creation_method	'MofGen! by Chris Wilmer'
_symmetry_space_group_name_H-M	'P1'
_symmetry_Int_Tables_number	1
_symmetry_cell_setting	triclinic
loop_
_symmetry_equiv_pos_as_xyz
  x,y,z
_cell_length_a	19.805407
_cell_length_b	19.805405
_cell_length_c	19.805399
_cell_angle_alpha	90.029301
_cell_angle_beta	90.019573
_cell_angle_gamma	90.026410
loop_
_atom_site_label
_atom_site_type_symbol
_atom_site_fract_x
_atom_site_fract_y
_atom_site_fract_z
Zn1	Zn	1.034736	-0.269479	0.382712
Zn2	Zn	1.534736	0.230521	0.882712
Zn3	Zn	1.034651	-0.382667	0.269520
Zn4	Zn	1.534651	0.117333	0.769520
Zn5	Zn	0.921550	-0.269498	0.269536
Zn6	Zn	1.421550	0.230502	0.769536
Zn7	Zn	0.921514	-0.382631	0.382667
Zn8	Zn	1.421514	0.117369	0.882667
O9	O	0.978113	-0.326069	0.326109
O10	O	1.478113	0.173931	0.826109
O11	O	1.129441	-0.284501	0.367708
O12	O	1.629441	0.215499	0.867708
O13	O	1.019627	-0.367678	0.174805
O14	O	1.519627	0.132322	0.674805
O15	O	0.936616	-0.174778	0.284575
O16	O	1.436616	0.325222	0.784575
O17	O	1.129378	-0.367660	0.284547
O18	O	1.629378	0.132340	0.784547
O19	O	1.019772	-0.174765	0.367724
O20	O	1.519772	0.325235	0.867724
O21	O	0.936533	-0.284533	0.174817
O22	O	1.436533	0.215467	0.674817
O23	O	0.826829	-0.284498	0.284531
O24	O	1.326829	0.215502	0.784531
O25	O	0.936553	-0.367598	0.477389
O26	O	1.436553	0.132402	0.977389
O27	O	0.826802	-0.367617	0.367648
O28	O	1.326802	0.132383	0.867648
O29	O	1.019737	-0.284466	0.477422
O30	O	1.519737	0.215534	0.977422
O31	O	1.019592	-0.477379	0.284503
O32	O	1.519592	0.022621	0.784503
O33	O	0.936471	-0.477353	0.367632
O34	O	1.436471	0.022647	0.867632
C35	C	0.802257	-0.326056	0.326087
C36	C	1.302257	0.173944	0.826087
C37	C	0.727025	-0.326067	0.326093
C38	C	1.227025	0.173933	0.826093
C39	C	0.978036	-0.501925	0.326076
C40	C	1.478036	-0.001925	0.826076
C41	C	0.978066	-0.577157	0.326084
C42	C	1.478066	-0.077157	0.826084
C43	C	0.691684	-0.369412	0.369302
C44	C	1.191684	0.130588	0.869302
C45	C	0.620996	-0.369413	0.369312
C46	C	1.120996	0.130587	0.869312
C47	C	0.585649	-0.326072	0.326109
C48	C	1.085649	0.173928	0.826109
C49	C	0.620994	-0.282722	0.282898
C50	C	1.120994	0.217278	0.782898
C51	C	0.691681	-0.282718	0.282892
C52	C	1.191681	0.217282	0.782892
C53	C	0.335921	-0.282737	0.282920
C54	C	0.835921	0.217263	0.782920
C55	C	0.265229	-0.282746	0.282928
C56	C	0.765229	0.217254	0.782928
C57	C	0.265235	-0.369432	0.369340
C58	C	0.765235	0.130568	0.869340
C59	C	0.335922	-0.369428	0.369334
C60	C	0.835922	0.130572	0.869334
C61	C	0.371262	-0.326076	0.326126
C62	C	0.871262	0.173924	0.826126
C63	C	0.447910	-0.326074	0.326117
C64	C	0.947910	0.173926	0.826117
C65	C	0.509002	-0.326076	0.326114
C66	C	1.009002	0.173924	0.826114
C67	C	1.021389	-0.612492	0.282845
C68	C	1.521389	-0.112492	0.782845
C69	C	1.021418	-0.683181	0.282860
C70	C	1.521418	-0.183181	0.782860
C71	C	0.978119	-0.718532	0.326111
C72	C	1.478119	-0.218532	0.826111
C73	C	0.934794	-0.683192	0.369356
C74	C	1.434794	-0.183192	0.869356
C75	C	0.934769	-0.612505	0.369344
C76	C	1.434769	-0.112505	0.869344
C77	C	0.934894	-0.968265	0.369406
C78	C	1.434894	-0.468265	0.869406
C79	C	0.934921	-1.038957	0.369413
C80	C	1.434921	-0.538957	0.869413
C81	C	1.021542	-1.038941	0.282922
C82	C	1.521542	-0.538941	0.782922
C83	C	1.021517	-0.968254	0.282910
C84	C	1.521517	-0.468254	0.782910
C85	C	0.978195	-0.932920	0.326157
C86	C	1.478195	-0.432920	0.826157
C87	C	0.978166	-0.856271	0.326141
C88	C	1.478166	-0.356271	0.826141
C89	C	0.978145	-0.795179	0.326124
C90	C	1.478145	-0.295179	0.826124
C91	C	1.154655	-0.326082	0.326131
C92	C	1.654655	0.173918	0.826131
C93	C	1.229887	-0.326088	0.326140
C94	C	1.729887	0.173912	0.826140
C95	C	0.978151	-0.326026	0.502651
C96	C	1.478151	0.173974	1.002651
C97	C	0.978167	-0.326008	0.577883
C98	C	1.478167	0.173992	1.077883
C99	C	0.978207	-0.149526	0.326156
C100	C	1.478207	0.350474	0.826156
C101	C	0.978248	-0.074294	0.326177
C102	C	1.478248	0.425706	0.826177
C103	C	0.978114	-0.326062	0.150253
C104	C	1.478114	0.173938	0.650253
C105	C	0.978229	-0.325890	0.075021
C106	C	1.478229	0.174110	0.575021
C107	C	1.021481	-0.282719	0.613246
C108	C	1.521481	0.217281	1.113246
C109	C	1.021488	-0.282699	0.683934
C110	C	1.521488	0.217301	1.183934
C111	C	0.978184	-0.325973	0.719259
C112	C	1.478184	0.174027	1.219259
C113	C	0.934864	-0.369264	0.683892
C114	C	1.434864	0.130736	1.183892
C115	C	0.934854	-0.369279	0.613204
C116	C	1.434854	0.130721	1.113204
C117	C	0.934902	-0.369201	0.968965
C118	C	1.434902	0.130799	1.468965
C119	C	0.934917	-0.369183	1.039657
C120	C	1.434917	0.130817	1.539657
C121	C	1.021536	-0.282620	1.039695
C122	C	1.521536	0.217380	1.539695
C123	C	1.021527	-0.282636	0.969008
C124	C	1.521527	0.217364	1.469008
C125	C	0.978205	-0.325924	0.933647
C126	C	1.478205	0.174076	1.433647
C127	C	0.978197	-0.325944	0.856998
C128	C	1.478197	0.174056	1.356998
C129	C	0.978194	-0.325957	0.795906
C130	C	1.478194	0.174043	1.295906
H131	H	0.720458	-0.404707	0.404481
H132	H	1.220458	0.095293	0.904481
F133	F	0.888786	-0.930669	0.415432
F134	F	1.388786	-0.430669	0.915432
F135	F	0.888835	-1.076580	0.415451
F136	F	1.388835	-0.576580	0.915451
F137	F	0.888823	-0.415243	1.077251
F138	F	1.388823	0.084757	1.577251
F139	F	0.227619	-0.415571	0.415326
F140	F	0.727619	0.084429	0.915326
H141	H	0.899543	-0.711981	0.404575
H142	H	1.399543	-0.211981	0.904575
H143	H	0.899492	-0.583735	0.404555
H144	H	1.399492	-0.083735	0.904555
H145	H	1.056747	-0.247482	0.584489
H146	H	1.556747	0.252518	1.084489
H147	H	1.056761	-0.247450	0.712723
H148	H	1.556761	0.252550	1.212723
F149	F	0.583387	-0.415547	0.415301
F150	F	1.083387	0.084453	0.915301
H151	H	1.056695	-0.711948	0.247649
H152	H	1.556695	-0.211948	0.747649
H153	H	1.056792	-0.247400	0.940250
H154	H	1.556792	0.252600	1.440250
H155	H	0.899602	-0.404495	0.712659
H156	H	1.399602	0.095505	1.212659
F157	F	1.067642	-0.236546	1.077334
F158	F	1.567642	0.263454	1.577334
H159	H	0.364698	-0.404723	0.404512
H160	H	0.864698	0.095277	0.904512
F161	F	0.888796	-0.415272	0.931340
F162	F	1.388796	0.084728	1.431340
F163	F	0.888751	-0.415352	0.575570
F164	F	1.388751	0.084648	1.075570
F165	F	0.227612	-0.236613	0.236944
F166	F	0.727612	0.263387	0.736944
H167	H	0.592209	-0.247430	0.247724
H168	H	1.092209	0.252570	0.747724
F169	F	0.373523	-0.236596	0.236936
F170	F	0.873523	0.263404	0.736936
H171	H	1.056820	-1.067719	0.247711
H172	H	1.556820	-0.567719	0.747711
F173	F	0.729293	-0.236583	0.236905
F174	F	1.229293	0.263417	0.736905
F175	F	1.067470	-0.574875	0.236805
F176	F	1.567470	-0.074875	0.736805
H177	H	1.056773	-0.939473	0.247688
H178	H	1.556773	-0.439473	0.747688
