data_functionalizedCrystal
_audit_creation_method	'MofGen! by Chris Wilmer'
_symmetry_space_group_name_H-M	'P1'
_symmetry_Int_Tables_number	1
_symmetry_cell_setting	triclinic
loop_
_symmetry_equiv_pos_as_xyz
  x,y,z
_cell_length_a	9.065218
_cell_length_b	23.532407
_cell_length_c	8.140239
_cell_angle_alpha	89.991844
_cell_angle_beta	89.997198
_cell_angle_gamma	83.932281
loop_
_atom_site_label
_atom_site_type_symbol
_atom_site_fract_x
_atom_site_fract_y
_atom_site_fract_z
O1	O	1.956283	0.083497	-0.136637
O2	O	1.526661	0.090346	-0.136641
O3	O	1.754427	0.004085	-0.136609
O4	O	1.728517	0.169758	-0.136670
O5	O	1.754415	0.004084	0.136618
O6	O	1.526649	0.090345	0.136586
O7	O	1.956271	0.083496	0.136590
Zn8	Zn	1.741458	0.086921	0.179968
Zn9	Zn	1.741474	0.086922	-0.180020
O10	O	1.728504	0.169757	0.136558
C11	C	1.471701	0.089687	-0.000028
C12	C	1.307955	0.087719	-0.000028
C13	C	1.753761	-0.017136	0.000009
C14	C	1.751778	-0.080368	0.000021
C15	C	1.874123	-0.478573	-0.000068
C16	C	1.872280	-0.537986	-0.000080
O17	O	1.985695	-0.573898	-0.000140
N18	N	1.736873	-0.561607	-0.000080
C19	C	1.603300	-0.525810	-0.000085
O20	O	1.487956	-0.551356	-0.000087
C21	C	1.605144	-0.466397	-0.000084
C22	C	1.740560	-0.442780	-0.000067
C23	C	2.009527	-0.454955	-0.000053
C24	C	2.011370	-0.395546	-0.000037
C25	C	1.877807	-0.359753	-0.000037
C26	C	1.742402	-0.383371	-0.000052
C27	C	1.471573	-0.430601	-0.000100
C28	C	1.473429	-0.371185	-0.000100
C29	C	1.608845	-0.347568	-0.000084
C30	C	1.610682	-0.288169	-0.000035
N31	N	1.746089	-0.264548	-0.000035
C32	C	1.879651	-0.300341	-0.000036
C33	C	1.599437	-0.650581	-0.000089
C34	C	1.597591	-0.709992	-0.000078
C35	C	1.866571	-0.722165	-0.000077
C36	C	1.868416	-0.662752	-0.000076
C37	C	1.734844	-0.626960	-0.000089
C38	C	1.883510	-0.175576	-0.000002
C39	C	1.885340	-0.116160	0.000021
C40	C	1.616360	-0.103993	0.000011
C41	C	1.614529	-0.163403	-0.000003
C42	C	1.748116	-0.199194	-0.000015
O43	O	1.497326	-0.252222	0.000018
O44	O	1.994976	-0.274786	-0.000055
C45	C	2.011231	0.084155	-0.000027
C46	C	2.174977	0.086123	-0.000038
C47	C	1.729170	0.190979	-0.000064
C48	C	1.731154	0.254210	-0.000087
N49	N	1.741457	0.086919	0.425651
N50	N	1.741486	0.086919	-0.425703
H51	H	1.995617	-0.096935	0.000038
H52	H	1.490659	-0.621442	-0.000085
O53	O	2.139379	-0.489660	-0.000267
C54	C	2.368702	-0.518244	-0.141836
C55	C	2.221704	-0.478905	-0.141796
H56	H	2.435289	-0.509572	-0.256268
H57	H	2.435465	-0.509555	-0.027562
H58	H	2.344122	-0.564764	-0.141755
H59	H	2.246149	-0.432372	-0.141936
H60	H	2.154984	-0.487644	-0.256061
H61	H	1.487322	-0.729215	-0.000063
O62	O	2.013409	-0.210255	0.000066
C63	C	2.280393	-0.216042	-0.000009
C64	C	2.133395	-0.176703	-0.000060
H65	H	2.377439	-0.188931	-0.000145
H66	H	2.286358	-0.244158	0.114359
H67	H	2.286197	-0.244166	-0.114331
H68	H	2.127492	-0.148543	0.114185
H69	H	2.127491	-0.148625	-0.114503
O70	O	1.340068	-0.453562	0.000157
C71	C	1.181858	-0.513602	0.141594
C72	C	1.330832	-0.487628	0.141537
H73	H	1.174356	-0.541159	0.255870
H74	H	1.086667	-0.477831	0.141686
H75	H	1.174306	-0.541079	0.027185
H76	H	1.338529	-0.460157	0.255926
H77	H	1.425952	-0.523427	0.141360
O78	O	1.486488	-0.069300	0.000072
C79	C	1.219501	-0.063480	-0.000087
C80	C	1.366471	-0.102837	-0.000096
H81	H	1.122428	-0.090578	-0.000258
H82	H	1.213522	-0.035375	0.114282
H83	H	1.213756	-0.035345	-0.114409
H84	H	1.372314	-0.131007	0.114148
H85	H	1.372388	-0.130903	-0.114540
O86	O	1.343712	-0.336394	-0.000399
C87	C	1.189730	-0.262218	-0.141897
C88	C	1.336668	-0.301594	-0.141787
H89	H	1.184001	-0.234064	-0.256178
H90	H	1.092581	-0.289279	-0.142015
H91	H	1.183873	-0.234133	-0.027494
H92	H	1.342670	-0.329687	-0.256170
H93	H	1.433748	-0.274499	-0.141583
H94	H	1.978683	-0.643528	-0.000064
O95	O	2.142874	-0.372580	0.000247
C96	C	2.301054	-0.312556	0.141725
C97	C	2.152082	-0.338532	0.141638
H98	H	2.308535	-0.285013	0.256010
H99	H	2.396248	-0.348326	0.141820
H100	H	2.308624	-0.285064	0.027325
H101	H	2.144369	-0.366017	0.256019
H102	H	2.056960	-0.302734	0.141457
O103	O	1.996281	-0.756962	-0.000387
C104	C	2.150238	-0.831125	-0.141922
C105	C	2.003315	-0.791740	-0.141792
H106	H	2.155959	-0.859261	-0.256218
H107	H	2.247401	-0.804071	-0.142027
H108	H	2.156077	-0.859228	-0.027533
H109	H	1.997331	-0.763629	-0.256161
H110	H	1.906221	-0.818828	-0.141601
H111	H	1.504263	-0.182633	0.000029
