data_functionalizedCrystal
_audit_creation_method	'MofGen! by Chris Wilmer'
_symmetry_space_group_name_H-M	'P1'
_symmetry_Int_Tables_number	1
_symmetry_cell_setting	triclinic
loop_
_symmetry_equiv_pos_as_xyz
  x,y,z
_cell_length_a	21.395364
_cell_length_b	19.120786
_cell_length_c	19.120904
_cell_angle_alpha	89.866497
_cell_angle_beta	92.422135
_cell_angle_gamma	92.480057
loop_
_atom_site_label
_atom_site_type_symbol
_atom_site_fract_x
_atom_site_fract_y
_atom_site_fract_z
Zn1	Zn	0.931946	-0.295776	-0.384484
Zn2	Zn	0.932254	-0.408020	-0.262244
Zn3	Zn	0.831825	-0.290824	-0.267262
Zn4	Zn	0.822871	-0.413014	-0.379439
O5	O	0.879724	-0.351908	-0.323357
O6	O	1.019665	-0.310648	-0.368281
O7	O	0.922807	-0.388311	-0.164805
O8	O	0.848725	-0.193369	-0.287023
O9	O	1.019891	-0.393113	-0.278471
O10	O	0.922284	-0.197007	-0.373146
O11	O	0.849023	-0.302208	-0.168491
O12	O	0.742959	-0.307050	-0.282131
O13	O	0.833464	-0.401625	-0.478213
O14	O	0.736381	-0.396823	-0.364547
O15	O	0.913601	-0.315490	-0.481920
O16	O	0.914125	-0.506794	-0.273578
O17	O	0.833762	-0.510463	-0.359681
C18	C	0.716936	-0.351942	-0.323336
C19	C	0.647293	-0.351974	-0.323343
C20	C	0.614479	-0.309110	-0.370173
C21	C	0.549045	-0.309092	-0.370176
C22	C	0.516425	-0.351949	-0.323357
C23	C	0.549247	-0.394815	-0.276518
C24	C	0.614681	-0.394827	-0.276511
C25	C	0.410630	-0.414850	-0.315025
C26	C	0.345197	-0.414839	-0.315037
C27	C	0.314605	-0.351911	-0.323374
C28	C	0.349454	-0.288993	-0.331714
C29	C	0.414888	-0.289005	-0.331707
C30	C	0.445473	-0.351941	-0.323359
C31	C	0.210840	-0.309024	-0.370210
C32	C	0.145404	-0.309004	-0.370209
C33	C	0.145607	-0.394734	-0.276554
C34	C	0.211042	-0.394748	-0.276552
C35	C	0.243654	-0.351894	-0.323384
C36	C	0.873021	-0.534069	-0.315553
C37	C	0.870210	-0.611998	-0.312238
C38	C	0.907157	-0.650445	-0.355556
C39	C	0.904513	-0.723669	-0.352442
C40	C	0.864926	-0.758444	-0.306006
C41	C	0.827975	-0.719992	-0.262686
C42	C	0.830616	-0.646770	-0.265803
C43	C	0.855034	-0.979435	-0.294350
C44	C	0.852398	-1.052662	-0.291234
C45	C	0.928934	-1.056334	-0.380992
C46	C	0.931575	-0.983111	-0.384103
C47	C	0.894622	-0.944665	-0.340785
C48	C	0.862224	-0.833290	-0.302820
C49	C	0.897321	-0.869821	-0.343975
C50	C	1.043148	-0.351876	-0.323379
C51	C	1.112789	-0.351862	-0.323388
C52	C	0.872500	-0.359667	-0.506215
C53	C	0.869421	-0.362973	-0.584138
C54	C	0.886469	-0.169038	-0.331207
C55	C	0.889344	-0.091109	-0.334553
C56	C	0.909696	-0.319683	-0.622678
C57	C	0.906795	-0.322787	-0.695895
C58	C	0.863623	-0.369185	-0.730571
C59	C	0.823344	-0.412477	-0.692026
C60	C	0.826242	-0.409369	-0.618810
C61	C	0.852784	-0.380810	-0.951538
C62	C	0.849891	-0.383916	-1.024759
C63	C	0.933342	-0.294224	-1.028623
C64	C	0.936238	-0.291123	-0.955405
C65	C	0.895957	-0.334413	-0.916867
C66	C	0.860659	-0.372361	-0.805410
C67	C	0.898918	-0.331233	-0.842029
C68	C	0.886958	-0.344129	-0.141213
C69	C	0.890165	-0.340626	-0.063299
H70	H	0.237759	-0.429655	-0.238420
Cl71	Cl	0.990514	-0.232792	-0.911818
Cl72	Cl	0.507784	-0.255202	-0.429052
H73	H	0.939593	-0.287537	-0.727271
Cl74	Cl	0.963976	-0.261354	-0.579092
H75	H	0.316828	-0.466071	-0.308249
H76	H	0.819993	-0.416069	-0.920169
Cl77	Cl	0.947082	-0.826103	-0.402353
H78	H	0.118688	-0.274096	-0.408343
H79	H	0.934603	-0.754969	-0.387711
Cl80	Cl	0.953184	-0.272899	-0.798435
H81	H	0.824947	-0.948138	-0.259078
H82	H	0.825511	-0.410142	-0.833652
H83	H	0.829994	-0.861612	-0.265010
H84	H	0.788190	-0.450253	-0.720265
Cl85	Cl	0.975383	-1.104670	-0.435448
Cl86	Cl	0.251841	-0.255147	-0.429078
H87	H	0.939395	-0.622137	-0.393366
H88	H	0.119049	-0.429630	-0.238432
H89	H	0.966136	-0.258980	-1.060008
Cl90	Cl	0.775606	-0.463792	-0.570361
H91	H	0.795740	-0.748311	-0.224879
H92	H	0.800530	-0.615467	-0.230530
Cl93	Cl	0.981342	-0.939399	-0.442483
Cl94	Cl	0.655474	-0.255235	-0.429046
Cl95	Cl	0.458695	-0.209912	-0.342187
H96	H	0.814733	-0.421701	-1.052990
Cl97	Cl	0.311003	-0.209879	-0.342194
Cl98	Cl	0.449082	-0.493965	-0.304534
H99	H	0.522684	-0.429710	-0.238396
H100	H	0.641398	-0.429733	-0.238375
H101	H	0.820158	-1.080974	-0.253419
