data_functionalizedCrystal
_audit_creation_method	'MofGen! by Chris Wilmer'
_symmetry_space_group_name_H-M	'P1'
_symmetry_Int_Tables_number	1
_symmetry_cell_setting	triclinic
loop_
_symmetry_equiv_pos_as_xyz
  x,y,z
_cell_length_a	19.188931
_cell_length_b	19.188930
_cell_length_c	17.666332
_cell_angle_alpha	90.011603
_cell_angle_beta	89.992176
_cell_angle_gamma	96.855219
loop_
_atom_site_label
_atom_site_type_symbol
_atom_site_fract_x
_atom_site_fract_y
_atom_site_fract_z
O1	O	0.926150	-0.087169	-0.062930
O2	O	0.722838	-0.098903	-0.062938
O3	O	0.830361	0.008620	-0.062919
O4	O	0.818627	-0.194692	-0.062949
O5	O	0.830342	0.008625	0.062978
O6	O	0.722819	-0.098897	0.062959
O7	O	0.926131	-0.087163	0.062967
Cu8	Cu	0.824473	-0.093030	0.074458
Cu9	Cu	0.824496	-0.093036	-0.074429
O10	O	0.818608	-0.194686	0.062948
C11	C	0.696818	-0.098520	0.000009
C12	C	0.619313	-0.097380	0.000007
C13	C	0.829972	0.034634	0.000032
C14	C	0.828831	0.112138	0.000038
C15	C	0.952151	-0.087546	0.000018
C16	C	1.029656	-0.088687	0.000016
C17	C	1.074580	-0.025596	0.000019
C18	C	1.147403	-0.026667	0.000023
C19	C	1.175300	-0.090834	0.000009
C20	C	1.130366	-0.153933	0.000011
C21	C	1.057544	-0.152859	0.000014
N22	N	1.283301	-0.139883	-0.042856
N23	N	1.352480	-0.140898	-0.042860
C24	C	1.394709	-0.094072	0.000001
N25	N	1.365147	-0.046181	0.042858
N26	N	1.295962	-0.045163	0.042859
C27	C	1.254262	-0.092005	0.000006
C28	C	1.518597	-0.032139	0.000010
C29	C	1.591422	-0.033213	0.000019
C30	C	1.574383	-0.160480	-0.000001
C31	C	1.501560	-0.159404	-0.000002
C32	C	1.473671	-0.095231	-0.000000
C33	C	0.818997	-0.220700	-0.000004
C34	C	0.820138	-0.298204	-0.000016
N35	N	0.824463	-0.093025	0.179178
C36	C	0.891922	0.157062	0.000044
C37	C	0.890850	0.229886	0.000032
C38	C	0.826684	0.257782	0.000029
C39	C	0.763585	0.212849	0.000018
C40	C	0.764658	0.140026	0.000023
N41	N	0.777630	0.365789	0.042872
N42	N	0.776615	0.434968	0.042869
C43	C	0.823446	0.477191	0.000014
N44	N	0.871341	0.447624	-0.042830
N45	N	0.872359	0.378439	-0.042824
C46	C	0.825513	0.336745	0.000024
C47	C	0.885379	0.601079	0.000006
C48	C	0.884305	0.673904	-0.000011
C49	C	0.757038	0.656865	-0.000017
C50	C	0.758114	0.584042	-0.000008
C51	C	0.822286	0.556154	0.000007
N52	N	0.824512	-0.093036	-0.179149
C53	C	0.872089	-0.045437	0.218796
C54	C	0.872093	-0.045433	0.298044
C55	C	0.824478	-0.093030	0.337670
C56	C	0.776842	-0.140621	0.298042
C57	C	0.776835	-0.140619	0.218796
N58	N	0.815401	-0.154837	0.462079
N59	N	0.815413	-0.154837	0.537360
C60	C	0.824496	-0.093040	0.576434
N61	N	0.833582	-0.031239	0.537384
N62	N	0.833574	-0.031240	0.462096
C63	C	0.824480	-0.093038	0.423599
C64	C	0.872129	-0.045444	0.701981
C65	C	0.872129	-0.045440	0.781231
C66	C	0.776881	-0.140634	0.781227
C67	C	0.776878	-0.140632	0.701980
C68	C	0.824506	-0.093038	0.662362
H69	H	1.183987	0.024710	0.000023
C70	C	1.640842	0.036189	0.000022
H71	H	1.688207	0.026360	0.000029
H72	H	1.632413	0.062504	-0.043879
H73	H	1.632402	0.062515	0.043932
C74	C	0.953708	0.723321	-0.000003
H75	H	0.992078	0.696279	0.000014
H76	H	0.955948	0.752074	-0.043908
H77	H	0.955922	0.752092	0.043904
C78	C	0.960251	0.279314	0.000044
H79	H	0.950419	0.326678	0.000036
H80	H	0.986561	0.270889	0.043952
H81	H	0.986583	0.270874	-0.043859
C82	C	0.962507	0.126385	0.000058
H83	H	0.954112	0.076580	0.000067
H84	H	0.988487	0.141810	-0.043841
H85	H	0.988463	0.141830	0.043971
H86	H	0.706738	0.547464	-0.000009
C87	C	0.924522	0.006908	0.824811
H88	H	0.952889	0.035247	0.789863
H89	H	0.899505	0.035915	0.855739
H90	H	0.953507	-0.018146	0.855710
H91	H	0.738109	-0.179385	0.813490
C92	C	0.924486	0.006911	0.341637
H93	H	0.917665	0.000094	0.394507
H94	H	0.971055	-0.000560	0.328635
H95	H	0.917049	0.053496	0.328668
H96	H	0.910909	-0.006688	0.669723
H97	H	0.704792	0.679578	-0.000024
H98	H	0.738072	-0.179374	0.330310
H99	H	0.711340	0.235567	0.000014
H100	H	1.051878	0.026658	0.000023
H101	H	0.713280	0.103449	0.000018
H102	H	1.495889	0.020115	0.000015
C103	C	1.008123	-0.222260	0.000005
H104	H	0.960758	-0.212430	0.000011
H105	H	1.016563	-0.248585	-0.043901
H106	H	1.016550	-0.248578	0.043910
C107	C	0.955964	0.570399	0.000014
H108	H	0.993387	0.607587	0.000004
H109	H	0.959023	0.542357	0.043920
H110	H	0.959033	0.542334	-0.043892
H111	H	0.738099	-0.179386	0.669720
H112	H	1.153084	-0.206177	0.000002
C113	C	0.724449	-0.192973	0.175214
H114	H	0.696092	-0.221323	0.210161
H115	H	0.695463	-0.167929	0.144310
H116	H	0.749478	-0.221977	0.144291
H117	H	1.464981	-0.210779	-0.000009
C118	C	1.605057	-0.231063	-0.000012
H119	H	1.567868	-0.268486	-0.000010
H120	H	1.633117	-0.234132	-0.043914
H121	H	1.633104	-0.234123	0.043898
C122	C	0.924470	0.006922	0.175220
H123	H	0.952831	0.035269	0.210170
H124	H	0.953452	-0.018118	0.144288
H125	H	0.899437	0.035930	0.144325
