data_functionalizedCrystal
_audit_creation_method	'MofGen! by Chris Wilmer'
_symmetry_space_group_name_H-M	'P1'
_symmetry_Int_Tables_number	1
_symmetry_cell_setting	triclinic
loop_
_symmetry_equiv_pos_as_xyz
  x,y,z
_cell_length_a	10.654546
_cell_length_b	12.996460
_cell_length_c	10.654550
_cell_angle_alpha	90.004964
_cell_angle_beta	95.515787
_cell_angle_gamma	89.986837
loop_
_atom_site_label
_atom_site_type_symbol
_atom_site_fract_x
_atom_site_fract_y
_atom_site_fract_z
O1	O	-1.667845	0.085746	0.176381
O2	O	-1.302366	0.085708	0.193191
O3	O	-1.493509	0.085724	0.002047
O4	O	-1.476703	0.085730	0.367525
O5	O	-1.493489	-0.085410	0.002036
O6	O	-1.302346	-0.085426	0.193181
O7	O	-1.667825	-0.085388	0.176370
Cu8	Cu	-1.485084	-0.101033	0.184774
Cu9	Cu	-1.485108	0.101353	0.184787
O10	O	-1.476683	-0.085404	0.367515
C11	C	-1.255558	0.000136	0.191953
C12	C	-1.116115	0.000122	0.188262
C13	C	-1.036629	0.000134	0.300805
C14	C	-0.905608	0.000144	0.297330
C15	C	-0.933571	0.000134	0.068760
C16	C	-1.064590	0.000116	0.072236
C17	C	-1.020483	0.000145	0.432768
C18	C	-0.889462	0.000155	0.429293
N19	N	-1.485076	-0.243380	0.184765
C20	C	-1.485106	-0.663194	0.184788
C21	C	-1.485094	-0.546389	0.184786
C22	C	-1.485092	-0.453291	0.184777
C23	C	-1.485079	-0.336478	0.184773
C24	C	-0.714633	0.000171	0.177612
C25	C	-0.854075	0.000149	0.181311
C26	C	-1.492265	0.000158	-0.044757
C27	C	-1.488573	0.000161	-0.184200
N28	N	-1.485125	0.243700	0.184787
C29	C	-1.601115	0.000170	-0.263687
C30	C	-1.597638	0.000177	-0.394708
C31	C	-1.369068	0.000162	-0.366741
C32	C	-1.372546	0.000163	-0.235723
C33	C	-1.733078	0.000174	-0.279834
C34	C	-1.729601	0.000181	-0.410855
C35	C	-1.477927	0.000164	0.414318
C36	C	-1.481619	0.000168	0.553761
H37	H	-0.891603	0.000145	-0.025705
H38	H	-1.775091	-0.073714	-0.244212
H39	H	-1.049806	-0.071476	0.484374
H40	H	-1.280904	0.000170	-0.171008
H41	H	-1.056148	0.074033	0.474791
H42	H	-0.843782	-0.073730	0.469170
H43	H	-0.847738	0.071778	0.479020
O44	O	-1.243927	0.000148	-0.422311
H45	H	-1.260414	0.000141	-0.526771
H46	H	-1.784702	0.071794	-0.250472
H47	H	-1.129304	0.000091	-0.019407
H48	H	-1.769491	0.074076	-0.456494
H49	H	-1.779315	-0.071432	-0.452620
