data_functionalizedCrystal
_audit_creation_method	'MofGen! by Chris Wilmer'
_symmetry_space_group_name_H-M	'P1'
_symmetry_Int_Tables_number	1
_symmetry_cell_setting	triclinic
loop_
_symmetry_equiv_pos_as_xyz
  x,y,z
_cell_length_a	19.805407
_cell_length_b	18.101397
_cell_length_c	19.805399
_cell_angle_alpha	89.970675
_cell_angle_beta	89.979591
_cell_angle_gamma	90.022406
loop_
_atom_site_label
_atom_site_type_symbol
_atom_site_fract_x
_atom_site_fract_y
_atom_site_fract_z
Zn1	Zn	1.034764	-0.294808	-0.382727
Zn2	Zn	1.034690	-0.418652	-0.269535
Zn3	Zn	0.921578	-0.294833	-0.269550
Zn4	Zn	0.921554	-0.418617	-0.382680
O5	O	0.978146	-0.356728	-0.326123
O6	O	1.129470	-0.311241	-0.367725
O7	O	1.019665	-0.402252	-0.174820
O8	O	0.936634	-0.191197	-0.284588
O9	O	1.129417	-0.402228	-0.284563
O10	O	1.019790	-0.191179	-0.367739
O11	O	0.936562	-0.311283	-0.174831
O12	O	0.826858	-0.311249	-0.284543
O13	O	0.936591	-0.402168	-0.477403
O14	O	0.826840	-0.402192	-0.367660
O15	O	1.019766	-0.311207	-0.477437
O16	O	1.019641	-0.522280	-0.284518
O17	O	0.936520	-0.522254	-0.367645
C18	C	0.802290	-0.356720	-0.326098
C19	C	0.727058	-0.356734	-0.326104
C20	C	0.265299	-0.309439	-0.369517
C21	C	0.335987	-0.309440	-0.369512
C22	C	0.371297	-0.356739	-0.326145
C23	C	0.335914	-0.404044	-0.282784
C24	C	0.265227	-0.404046	-0.282792
C25	C	0.620987	-0.404039	-0.282748
C26	C	0.691679	-0.404031	-0.282741
C27	C	0.691748	-0.309433	-0.369468
C28	C	0.621061	-0.309435	-0.369477
C29	C	0.585684	-0.356743	-0.326118
C30	C	0.509036	-0.356742	-0.326125
C31	C	0.447944	-0.356737	-0.326134
C32	C	0.978089	-0.549138	-0.326090
C33	C	0.978126	-0.631452	-0.326099
C34	C	0.978212	-0.930543	-0.326160
C35	C	1.030364	-0.899203	-0.273719
C36	C	1.030544	-0.813585	-0.273855
C37	C	0.978169	-0.782161	-0.326129
C38	C	0.997504	-0.813169	-0.397474
C39	C	0.997908	-0.898814	-0.397189
C40	C	0.906586	-0.899054	-0.307874
C41	C	0.906940	-0.813405	-0.306282
C42	C	0.978144	-0.698301	-0.326116
C43	C	0.978239	-1.014403	-0.326178
C44	C	1.154689	-0.356736	-0.326148
C45	C	1.229921	-0.356739	-0.326158
C46	C	0.978184	-0.356681	-0.502666
C47	C	0.978201	-0.356661	-0.577898
C48	C	0.978223	-0.163566	-0.326170
C49	C	0.978256	-0.081252	-0.326191
C50	C	1.021511	-0.309295	-0.613261
C51	C	1.021518	-0.309274	-0.683949
C52	C	0.978217	-0.356622	-0.719273
C53	C	0.934902	-0.403990	-0.683905
C54	C	0.934893	-0.404008	-0.613218
C55	C	0.934941	-0.403921	-0.968979
C56	C	0.934955	-0.403902	-1.039671
C57	C	1.021566	-0.309187	-1.039710
C58	C	1.021556	-0.309204	-0.969023
C59	C	0.978239	-0.356569	-0.933661
C60	C	0.978231	-0.356591	-0.857012
C61	C	0.978228	-0.356605	-0.795920
C62	C	0.978148	-0.356721	-0.150267
C63	C	0.978263	-0.356532	-0.075035
H64	H	0.364789	-0.270926	-0.404822
H65	H	0.720560	-0.270915	-0.404774
H66	H	0.960681	-0.792812	-0.437598
H67	H	1.056787	-0.270705	-0.712739
F68	F	0.888866	-0.454299	-1.077264
H69	H	0.364668	-0.442558	-0.247475
F70	F	1.014698	-0.786183	-0.204717
F71	F	0.883593	-0.927366	-0.241053
H72	H	0.961587	-0.919543	-0.437608
H73	H	0.720426	-0.442551	-0.247424
F74	F	0.583346	-0.454371	-0.236587
F75	F	1.014748	-0.926188	-0.204364
F76	F	0.855797	-0.925547	-0.357796
H77	H	1.049274	-0.791660	-0.413225
F78	F	1.067666	-0.258774	-1.077350
H79	H	0.899644	-0.442540	-0.712672
F80	F	0.227575	-0.454394	-0.236648
H81	H	1.083130	-0.920670	-0.285679
H82	H	0.899679	-0.442500	-0.940196
F83	F	1.067644	-0.258812	-0.931432
F84	F	0.888794	-0.454419	-0.575582
H85	H	1.050263	-0.918731	-0.412678
F86	F	0.227726	-0.259093	-0.415673
F87	F	0.887879	-0.786921	-0.237656
H88	H	0.865993	-0.792022	-0.341680
F89	F	1.099893	-0.786727	-0.289672
H90	H	0.592315	-0.270917	-0.404789
F91	F	1.067601	-0.258903	-0.575672
