data_functionalizedCrystal
_audit_creation_method	'MofGen! by Chris Wilmer'
_symmetry_space_group_name_H-M	'P1'
_symmetry_Int_Tables_number	1
_symmetry_cell_setting	triclinic
loop_
_symmetry_equiv_pos_as_xyz
  x,y,z
_cell_length_a	14.853567
_cell_length_b	16.109301
_cell_length_c	15.186229
_cell_angle_alpha	90.000638
_cell_angle_beta	90.000050
_cell_angle_gamma	96.451795
loop_
_atom_site_label
_atom_site_type_symbol
_atom_site_fract_x
_atom_site_fract_y
_atom_site_fract_z
O1	O	0.115881	-1.103293	-0.073165
O2	O	0.130302	-0.861252	-0.073178
O3	O	-0.008149	-0.988738	-0.073174
O4	O	0.254332	-0.975807	-0.073170
O5	O	-0.008151	-0.988729	0.073283
O6	O	0.130300	-0.861243	0.073279
O7	O	0.115879	-1.103285	0.073292
Zn8	Zn	0.123089	-0.982263	0.096539
Zn9	Zn	0.123092	-0.982274	-0.096425
O10	O	0.254330	-0.975799	0.073288
C11	C	-0.041738	-0.988148	0.000052
C12	C	-0.141819	-0.986392	0.000044
C13	C	0.129717	-0.830272	0.000048
C14	C	0.127965	-0.737974	0.000043
N15	N	0.123087	-0.982261	0.228231
C16	C	-0.554215	-0.903241	0.000056
C17	C	-0.575746	-1.054697	0.000064
C18	C	-0.481715	-1.056348	0.000059
C19	C	-0.423930	-0.981444	0.000054
C20	C	-0.460175	-0.904889	0.000054
C21	C	-0.445463	-1.132901	0.000068
C22	C	-0.351426	-1.134555	0.000064
C23	C	-0.293639	-1.059650	0.000053
C24	C	-0.329890	-0.983093	0.000052
C25	C	-0.272104	-0.908189	0.000046
C26	C	-0.308353	-0.831630	0.000039
C27	C	-0.402388	-0.829984	0.000042
C28	C	-0.199604	-1.061296	0.000049
C29	C	-0.178064	-0.909837	0.000044
C30	C	0.287918	-0.976389	0.000060
C31	C	0.387999	-0.978145	0.000062
C32	C	0.116464	-1.134265	0.000063
C33	C	0.118215	-1.226563	0.000063
C34	C	0.206047	-0.515811	0.000055
C35	C	0.204395	-0.429089	0.000060
C36	C	0.040127	-0.448732	0.000054
C37	C	0.041781	-0.535453	0.000054
C38	C	0.124743	-0.568990	0.000050
C39	C	0.121437	-0.395546	0.000055
C40	C	0.119645	-0.301518	0.000061
C41	C	0.126536	-0.663025	0.000046
N42	N	0.123087	-0.982282	-0.228118
C43	C	0.061801	-1.038731	0.453956
C44	C	0.061799	-1.038734	0.546146
C45	C	0.184375	-0.925806	0.546151
C46	C	0.184372	-0.925800	0.453963
C47	C	0.123086	-0.982267	0.407868
C48	C	0.123087	-0.982276	0.592246
C49	C	0.123085	-0.982278	0.692202
C50	C	0.123087	-0.982264	0.307905
H51	H	-0.131020	-0.848840	0.000036
H52	H	0.273601	-0.543114	0.000058
H53	H	-0.024431	-0.578754	0.000053
Br54	Br	-0.229919	-0.729979	0.000043
H55	H	0.270600	-0.385793	0.000066
H56	H	-0.431911	-0.767654	0.000037
Br57	Br	-0.072460	-0.403212	0.000056
Br58	Br	0.267548	-0.849176	0.608712
H59	H	0.234278	-0.879816	0.416436
H60	H	-0.583733	-0.840908	0.000047
Br61	Br	-0.021381	-1.115362	0.608692
Br62	Br	-0.654169	-1.156348	0.000090
H63	H	-0.170094	-1.123629	0.000061
Br64	Br	-0.523888	-1.234550	0.000100
Br65	Br	-0.302239	-1.238453	0.000061
H66	H	0.011897	-1.084709	0.416427
