data_functionalizedCrystal
_audit_creation_method	'MofGen! by Chris Wilmer'
_symmetry_space_group_name_H-M	'P1'
_symmetry_Int_Tables_number	1
_symmetry_cell_setting	triclinic
loop_
_symmetry_equiv_pos_as_xyz
  x,y,z
_cell_length_a	18.101395
_cell_length_b	18.101398
_cell_length_c	12.759393
_cell_angle_alpha	90.031871
_cell_angle_beta	89.967630
_cell_angle_gamma	89.973721
loop_
_atom_site_label
_atom_site_type_symbol
_atom_site_fract_x
_atom_site_fract_y
_atom_site_fract_z
Zn1	Zn	-0.294889	-1.132148	-0.594313
Zn2	Zn	-0.418748	-1.132036	-0.418627
Zn3	Zn	-0.294915	-1.008299	-0.418614
Zn4	Zn	-0.418683	-1.008258	-0.594231
O5	O	-0.356809	-1.070186	-0.506446
O6	O	-0.311336	-1.235766	-0.571047
O7	O	-0.402360	-1.115593	-0.271604
O8	O	-0.191278	-1.024792	-0.441950
O9	O	-0.402335	-1.235684	-0.441972
O10	O	-0.191259	-1.115784	-0.571035
O11	O	-0.311380	-1.024683	-0.271595
O12	O	-0.311316	-0.904661	-0.441871
O13	O	-0.402223	-1.024722	-0.741263
O14	O	-0.402248	-0.904631	-0.570895
O15	O	-0.311272	-1.115744	-0.741323
O16	O	-0.522372	-1.115553	-0.441892
O17	O	-0.522324	-1.024613	-0.570908
C18	C	-0.356778	-0.877775	-0.506373
C19	C	-0.356783	-0.795461	-0.506367
C20	C	-0.356792	-0.644752	-0.506402
C21	C	-0.299496	-0.613393	-0.425356
C22	C	-0.299277	-0.527775	-0.425615
C23	C	-0.356800	-0.496370	-0.506434
C24	C	-0.335961	-0.527515	-0.617284
C25	C	-0.335540	-0.613160	-0.616797
C26	C	-0.435073	-0.613147	-0.477573
C27	C	-0.434656	-0.527496	-0.475150
C28	C	-0.356806	-0.412510	-0.506460
C29	C	-0.356784	-0.728612	-0.506384
C30	C	-0.549219	-1.070086	-0.506415
C31	C	-0.631533	-1.070112	-0.506437
C32	C	-0.930624	-1.070274	-0.506494
C33	C	-0.899300	-1.013190	-0.587868
C34	C	-0.813682	-1.012919	-0.587614
C35	C	-0.782242	-1.070194	-0.506467
C36	C	-0.813398	-1.049059	-0.395735
C37	C	-0.899043	-1.048691	-0.396222
C38	C	-0.898973	-1.148617	-0.534876
C39	C	-0.813322	-1.148157	-0.537304
C40	C	-0.698382	-1.070149	-0.506445
C41	C	-1.014484	-1.070317	-0.506509
C42	C	-0.163647	-1.070305	-0.506500
C43	C	-0.081333	-1.070356	-0.506523
C44	C	-0.356738	-1.070241	-0.780480
C45	C	-0.356707	-1.070265	-0.897257
C46	C	-0.356829	-0.263347	-0.506499
C47	C	-0.356808	-0.345661	-0.506469
C48	C	-0.309342	-1.117663	-0.952152
C49	C	-0.309310	-1.117676	-1.061876
C50	C	-0.404015	-1.022889	-1.061800
C51	C	-0.404043	-1.022873	-0.952078
C52	C	-0.356826	-1.070173	-0.233479
C53	C	-0.356648	-1.070293	-0.116703
H54	H	-0.312352	-0.633930	-0.342906
H55	H	-0.442556	-0.984306	-1.106449
H56	H	-0.279380	-0.506096	-0.642078
H57	H	-0.442613	-0.984271	-0.907381
N58	N	-0.926008	-1.172784	-0.634442
N59	N	-0.968938	-1.132554	-0.685697
H60	H	-0.988034	-1.149614	-0.756019
N61	N	-0.458937	-0.640190	-0.377864
N62	N	-0.418535	-0.683092	-0.326836
H63	H	-0.435381	-0.702191	-0.256412
H64	H	-0.241820	-0.634941	-0.444250
H65	H	-0.270796	-1.156250	-0.907519
H66	H	-0.312279	-0.506714	-0.343435
N67	N	-0.260928	-1.166084	-1.117966
N68	N	-0.213715	-1.140066	-1.179189
H69	H	-0.179542	-1.174255	-1.218804
H70	H	-0.241274	-0.507314	-0.444751
H71	H	-0.278328	-0.633166	-0.641164
N72	N	-0.385644	-0.639183	-0.695165
N73	N	-0.420806	-0.594090	-0.750049
H74	H	-0.456189	-0.612465	-0.805400
N75	N	-0.787233	-1.029504	-0.690606
N76	N	-0.719324	-1.032140	-0.708038
H77	H	-0.700646	-1.043854	-0.780780
N78	N	-0.386717	-0.502013	-0.695135
N79	N	-0.453890	-0.517041	-0.687397
H80	H	-0.489738	-0.499030	-0.742378
N81	N	-0.454377	-0.501940	-0.372816
N82	N	-0.411292	-0.460954	-0.323049
H83	H	-0.425219	-0.442897	-0.250778
N84	N	-0.491041	-0.500671	-0.543762
N85	N	-0.474688	-0.457990	-0.617167
H86	H	-0.514507	-0.439045	-0.665633
H87	H	-0.477756	-0.633424	-0.536603
H88	H	-0.919843	-1.026282	-0.670240
H89	H	-0.793255	-0.954850	-0.568812
N90	N	-0.926382	-0.940789	-0.564577
N91	N	-0.968652	-0.931048	-0.488306
H92	H	-0.987782	-0.879916	-0.471853
H93	H	-0.919083	-0.991423	-0.372182
N94	N	-0.925036	-1.098570	-0.317545
N95	N	-0.879922	-1.133538	-0.262447
H96	H	-0.898275	-1.168757	-0.206870
H97	H	-0.792955	-1.164094	-0.618797
H98	H	-0.793035	-1.089328	-0.333451
N99	N	-0.786563	-0.977978	-0.365043
N100	N	-0.744501	-0.942763	-0.424529
H101	H	-0.725548	-0.892560	-0.402858
N102	N	-0.786466	-1.204337	-0.468380
N103	N	-0.718586	-1.215878	-0.460901
H104	H	-0.699619	-1.255553	-0.412213
N105	N	-0.924384	-1.201963	-0.460516
N106	N	-0.965623	-1.182470	-0.386908
H107	H	-0.983573	-1.220139	-0.334386
