data_functionalizedCrystal
_audit_creation_method	'MofGen! by Chris Wilmer'
_symmetry_space_group_name_H-M	'P1'
_symmetry_Int_Tables_number	1
_symmetry_cell_setting	triclinic
loop_
_symmetry_equiv_pos_as_xyz
  x,y,z
_cell_length_a	18.050591
_cell_length_b	18.050590
_cell_length_c	16.959447
_cell_angle_alpha	90.031775
_cell_angle_beta	90.020296
_cell_angle_gamma	90.015000
loop_
_atom_site_label
_atom_site_type_symbol
_atom_site_fract_x
_atom_site_fract_y
_atom_site_fract_z
Zn1	Zn	1.135346	-0.295715	0.447027
Zn2	Zn	1.635346	0.204285	0.947027
Zn3	Zn	1.135277	-0.419917	0.314845
Zn4	Zn	1.635277	0.080083	0.814845
Zn5	Zn	1.011164	-0.295737	0.314850
Zn6	Zn	1.511164	0.204263	0.814850
Zn7	Zn	1.011135	-0.419860	0.446970
Zn8	Zn	1.511135	0.080140	0.946970
O9	O	1.073231	-0.357807	0.380923
O10	O	1.573231	0.142193	0.880923
O11	O	1.239262	-0.312205	0.429514
O12	O	1.739262	0.187795	0.929514
O13	O	1.118796	-0.403477	0.204235
O14	O	1.618796	0.096523	0.704235
O15	O	1.027679	-0.191810	0.332410
O16	O	1.527679	0.308190	0.832410
O17	O	1.239211	-0.403455	0.332401
O18	O	1.739211	0.096545	0.832401
O19	O	1.118915	-0.191793	0.429519
O20	O	1.618915	0.308207	0.929519
O21	O	1.027612	-0.312243	0.204239
O22	O	1.527612	0.187757	0.704239
O23	O	0.907236	-0.312188	0.332355
O24	O	1.407236	0.187812	0.832355
O25	O	1.027628	-0.403359	0.557588
O26	O	1.527628	0.096641	1.057588
O27	O	0.907214	-0.403381	0.429422
O28	O	1.407214	0.096619	0.929422
O29	O	1.118886	-0.312150	0.557630
O30	O	1.618886	0.187850	1.057630
O31	O	1.118767	-0.523834	0.332345
O32	O	1.618767	-0.023834	0.832345
O33	O	1.027561	-0.523792	0.429417
O34	O	1.527561	-0.023792	0.929417
C35	C	0.880278	-0.357781	0.380883
C36	C	1.380278	0.142219	0.880883
C37	C	0.797733	-0.357788	0.380885
C38	C	1.297733	0.142212	0.880885
C39	C	0.548897	-0.308146	0.328225
C40	C	1.048897	0.191854	0.828225
C41	C	0.598327	-0.290055	0.400362
C42	C	1.098327	0.209945	0.900362
C43	C	0.500612	-0.357826	0.380950
C44	C	1.000612	0.142174	0.880950
C45	C	0.598264	-0.375863	0.308785
C46	C	1.098264	0.124137	0.808785
C47	C	0.646597	-0.357805	0.380914
C48	C	1.146597	0.142195	0.880914
C49	C	0.548955	-0.339700	0.453125
C50	C	1.048955	0.160300	0.953125
C51	C	0.548888	-0.425539	0.361500
C52	C	1.048888	0.074461	0.861500
C53	C	0.598295	-0.407474	0.433687
C54	C	1.098295	0.092526	0.933687
C55	C	0.416514	-0.357836	0.380969
C56	C	0.916514	0.142164	0.880969
C57	C	0.730694	-0.357796	0.380903
C58	C	1.230694	0.142204	0.880903
C59	C	1.073173	-0.550759	0.380891
C60	C	1.573173	-0.050759	0.880891
C61	C	1.073217	-0.633305	0.380904
C62	C	1.573217	-0.133305	0.880904
C63	C	1.122918	-0.832751	0.328190
C64	C	1.622918	-0.332751	0.828190
C65	C	1.141055	-0.882081	0.400333
C66	C	1.641055	-0.382081	0.900333
C67	C	1.073259	-0.784436	0.380936
C68	C	1.573259	-0.284436	0.880936
C69	C	1.055199	-0.882187	0.308826
C70	C	1.555199	-0.382187	0.808826
C71	C	1.073301	-0.930421	0.380960
C72	C	1.573301	-0.430421	0.880960
C73	C	1.091430	-0.832678	0.453116
C74	C	1.591430	-0.332678	0.953116
C75	C	1.005543	-0.832780	0.361560
C76	C	1.505543	-0.332780	0.861560
C77	C	1.023653	-0.882087	0.433753
C78	C	1.523653	-0.382087	0.933753
C79	C	1.073237	-0.700337	0.380921
C80	C	1.573237	-0.200337	0.880921
C81	C	1.073323	-1.014517	0.380983
C82	C	1.573323	-0.514517	0.880983
C83	C	1.266936	-0.357834	0.380963
C84	C	1.766936	0.142166	0.880963
C85	C	1.349482	-0.357846	0.380980
C86	C	1.849482	0.142154	0.880980
C87	C	1.073261	-0.357746	0.587091
C88	C	1.573261	0.142254	1.087091
C89	C	1.073275	-0.357720	0.674948
C90	C	1.573275	0.142280	1.174948
C91	C	1.073308	-0.164102	0.380972
C92	C	1.573308	0.335898	0.880972
C93	C	1.073341	-0.081556	0.380993
C94	C	1.573341	0.418444	0.880993
C95	C	1.073242	-0.357815	0.175557
C96	C	1.573242	0.142185	0.675557
C97	C	1.073373	-0.357632	0.087700
C98	C	1.573373	0.142368	0.587700
C99	C	1.025849	-0.405130	1.046404
C100	C	1.525849	0.094870	1.546404
C101	C	1.120877	-0.310153	1.046443
C102	C	1.620877	0.189847	1.546443
C103	C	1.120857	-0.310169	0.963897
C104	C	1.620857	0.189831	1.463897
C105	C	1.073334	-0.357666	0.922601
C106	C	1.573334	0.142334	1.422601
C107	C	1.025830	-0.405148	0.963851
C108	C	1.525830	0.094852	1.463851
C109	C	1.168366	-0.262693	0.922641
C110	C	1.668366	0.237307	1.422641
C111	C	1.168348	-0.262708	0.840090
C112	C	1.668348	0.237292	1.340090
C113	C	1.120820	-0.310202	0.798793
C114	C	1.620820	0.189798	1.298793
C115	C	1.073314	-0.357685	0.840047
C116	C	1.573314	0.142315	1.340047
C117	C	1.025790	-0.405183	0.798751
C118	C	1.525790	0.094817	1.298751
C119	C	0.978280	-0.452663	0.840005
C120	C	1.478280	0.047337	1.340005
C121	C	0.978302	-0.452643	0.922553
C122	C	1.478302	0.047357	1.422553
C123	C	1.120798	-0.310222	0.716244
C124	C	1.620798	0.189778	1.216244
C125	C	1.025771	-0.405202	0.716198
C126	C	1.525771	0.094798	1.216198
H127	H	0.619846	-0.449478	0.478311
H128	H	1.119846	0.050522	0.978311
H129	H	0.527210	-0.266111	0.283707
H130	H	1.027210	0.233889	0.783707
H131	H	1.159483	-0.271567	0.682659
H132	H	1.659483	0.228433	1.182659
H133	H	1.207062	-0.224028	0.956271
H134	H	1.707062	0.275972	1.456271
H135	H	0.620030	-0.232780	0.416812
H136	H	1.120030	0.267220	0.916812
H137	H	0.939624	-0.491301	0.956149
H138	H	1.439624	0.008699	1.456149
H139	H	1.164928	-0.811088	0.283632
H140	H	1.664928	-0.311088	0.783632
H141	H	0.527156	-0.482796	0.345038
H142	H	1.027156	0.017204	0.845038
H143	H	0.527384	-0.324368	0.514156
H144	H	1.027384	0.175632	1.014156
H145	H	1.198339	-0.903739	0.416737
H146	H	1.698339	-0.403739	0.916737
H147	H	0.948275	-0.811106	0.345135
H148	H	1.448275	-0.311106	0.845135
H149	H	0.619926	-0.391127	0.247771
H150	H	1.119926	0.108873	0.747771
H151	H	1.106666	-0.811024	0.514162
H152	H	1.606666	-0.311024	1.014162
H153	H	1.207034	-0.224046	0.806509
H154	H	1.707034	0.275954	1.306509
H155	H	1.039906	-0.903934	0.247833
H156	H	1.539906	-0.403934	0.747833
H157	H	0.981676	-0.903613	0.478420
H158	H	1.481676	-0.403613	0.978420
H159	H	0.939589	-0.491339	0.806370
H160	H	1.439589	0.008661	1.306370
H161	H	0.987064	-0.443874	0.682580
H162	H	1.487064	0.056126	1.182580
H163	H	0.987165	-0.443784	1.079996
H164	H	1.487165	0.056216	1.579996
H165	H	1.159573	-0.271487	1.080071
H166	H	1.659573	0.228513	1.580071
