data_functionalizedCrystal
_audit_creation_method	'MofGen! by Chris Wilmer'
_symmetry_space_group_name_H-M	'P1'
_symmetry_Int_Tables_number	1
_symmetry_cell_setting	triclinic
loop_
_symmetry_equiv_pos_as_xyz
  x,y,z
_cell_length_a	12.645331
_cell_length_b	18.101395
_cell_length_c	12.645323
_cell_angle_alpha	89.969759
_cell_angle_beta	89.978061
_cell_angle_gamma	90.031318
loop_
_atom_site_label
_atom_site_type_symbol
_atom_site_fract_x
_atom_site_fract_y
_atom_site_fract_z
Zn1	Zn	1.620623	-0.294805	-0.599425
Zn2	Zn	1.620466	-0.418660	-0.422155
Zn3	Zn	1.443341	-0.294837	-0.422169
Zn4	Zn	1.443278	-0.418610	-0.599370
O5	O	1.531927	-0.356728	-0.510780
O6	O	1.768950	-0.311242	-0.575927
O7	O	1.596930	-0.402269	-0.273809
O8	O	1.466949	-0.191200	-0.445712
O9	O	1.768834	-0.402238	-0.445687
O10	O	1.597198	-0.191176	-0.575941
O11	O	1.466797	-0.311297	-0.273820
O12	O	1.294985	-0.311248	-0.445658
O13	O	1.466843	-0.402153	-0.747725
O14	O	1.294939	-0.402184	-0.575847
O15	O	1.597138	-0.311194	-0.747765
O16	O	1.596870	-0.522286	-0.445634
O17	O	1.466691	-0.522249	-0.575833
C18	C	1.256497	-0.356714	-0.510749
C19	C	1.138667	-0.356727	-0.510760
C20	C	1.093779	-0.299430	-0.428992
C21	C	0.971219	-0.299218	-0.429272
C22	C	0.970843	-0.335911	-0.622670
C23	C	1.093441	-0.335483	-0.622159
C24	C	1.093426	-0.435009	-0.481675
C25	C	0.970819	-0.434600	-0.479249
C26	C	1.531785	-0.549139	-0.510749
C27	C	1.531821	-0.631453	-0.510771
C28	C	1.532054	-0.930543	-0.510828
C29	C	1.450339	-0.899226	-0.592949
C30	C	1.449950	-0.813608	-0.592692
C31	C	1.531939	-0.782161	-0.510800
C32	C	1.501688	-0.813316	-0.399075
C33	C	1.501161	-0.898962	-0.399566
C34	C	1.644199	-0.898886	-0.539449
C35	C	1.643540	-0.813235	-0.541899
C36	C	1.531875	-0.698302	-0.510778
C37	C	1.532115	-1.014403	-0.510843
C38	C	1.808432	-0.356742	-0.510812
C39	C	1.926262	-0.356748	-0.510826
C40	C	1.532001	-0.356664	-0.787285
C41	C	1.532032	-0.356637	-0.905115
C42	C	1.532098	-0.163566	-0.510834
C43	C	1.532171	-0.081252	-0.510858
C44	C	1.450069	-0.413847	-0.949972
C45	C	1.449780	-0.413632	-1.072532
C46	C	1.502189	-0.278467	-1.073024
C47	C	1.501562	-0.278844	-0.950426
C48	C	1.644114	-0.376817	-0.950305
C49	C	1.643545	-0.378492	-1.072911
C50	C	1.531914	-0.356738	-0.235350
C51	C	1.532088	-0.356557	-0.117521
H52	H	0.940205	-0.479555	-0.534429
H53	H	0.940182	-0.279334	-0.647694
H54	H	1.558686	-0.234748	-0.920752
C55	C	0.931637	-0.220870	-0.455377
H56	H	0.856511	-0.220471	-0.455631
H57	H	0.957104	-0.206570	-0.523045
H58	H	0.956866	-0.187230	-0.403546
C59	C	1.730139	-0.784327	-0.466977
H60	H	1.699227	-0.752790	-0.415516
H61	H	1.781265	-0.757524	-0.506506
H62	H	1.763336	-0.824841	-0.432659
C63	C	1.392766	-0.254969	-1.114491
H64	H	1.365156	-0.292637	-1.158908
H65	H	1.399365	-0.210404	-1.153650
H66	H	1.346259	-0.247384	-1.056490
C67	C	1.132133	-0.258195	-0.655361
H68	H	1.072925	-0.227353	-0.669029
H69	H	1.174016	-0.262141	-0.717478
H70	H	1.173313	-0.237401	-0.600043
H71	H	1.705080	-0.919138	-0.479637
H72	H	1.367720	-0.920813	-0.574229
C73	C	1.132658	-0.492677	-0.562107
H74	H	1.176396	-0.469202	-0.613169
H75	H	1.073729	-0.514688	-0.596418
H76	H	1.172078	-0.529711	-0.526353
H77	H	1.124286	-0.454034	-0.401474
C78	C	1.579548	-0.785801	-0.314153
H79	H	1.559797	-0.805296	-0.247227
H80	H	1.577874	-0.733370	-0.311518
H81	H	1.649011	-0.801777	-0.331321
H82	H	1.366826	-0.793186	-0.573734
C83	C	1.392114	-0.784441	-0.365730
H84	H	1.374511	-0.803600	-0.298011
H85	H	1.340695	-0.799894	-0.415810
H86	H	1.393542	-0.732009	-0.362781
H87	H	1.468496	-0.471949	-0.920491
C88	C	1.680960	-0.452472	-0.908549
H89	H	1.628325	-0.472461	-0.863160
H90	H	1.745093	-0.446606	-0.870365
H91	H	1.692166	-0.485033	-0.966368
H92	H	1.558097	-0.919681	-0.336293
C93	C	1.390417	-0.926044	-0.366825
H94	H	1.346172	-0.884703	-0.353354
H95	H	1.395841	-0.955298	-0.304677
H96	H	1.360906	-0.954826	-0.422261
C97	C	1.133570	-0.389426	-0.707311
H98	H	1.074942	-0.411500	-0.742069
H99	H	1.175274	-0.426766	-0.674981
H100	H	1.175235	-0.363279	-0.757436
H101	H	1.671778	-0.920431	-0.619531
C102	C	0.931445	-0.455840	-0.368058
H103	H	0.888027	-0.417430	-0.340985
H104	H	0.990330	-0.462906	-0.322547
H105	H	0.891661	-0.500285	-0.372050
H106	H	1.468444	-0.471530	-1.102617
H107	H	0.941729	-0.376374	-0.685286
H108	H	1.366745	-0.400233	-1.101859
H109	H	1.560076	-0.234651	-1.102165
C110	C	1.726613	-0.320535	-0.911117
H111	H	1.794175	-0.333015	-0.938690
H112	H	1.729056	-0.321395	-0.836046
H113	H	1.707505	-0.272470	-0.934455
C114	C	1.475481	-0.785144	-0.704612
H115	H	1.486182	-0.825924	-0.750646
H116	H	1.537783	-0.755840	-0.702457
H117	H	1.418200	-0.756119	-0.729792
C118	C	1.338509	-0.395995	-0.908364
H119	H	1.341666	-0.353826	-0.863777
H120	H	1.312233	-0.436944	-0.869355
H121	H	1.292807	-0.386186	-0.966297
C122	C	1.674372	-0.785713	-0.652967
H123	H	1.619471	-0.755408	-0.680278
H124	H	1.684713	-0.826844	-0.698427
H125	H	1.737949	-0.757890	-0.648709
C126	C	1.730438	-0.326299	-1.114263
H127	H	1.699742	-0.290282	-1.159472
H128	H	1.781453	-0.353997	-1.152555
H129	H	1.763713	-0.302398	-1.056264
H130	H	1.469078	-0.919771	-0.676061
C131	C	1.390900	-0.255788	-0.911788
H132	H	1.346749	-0.246284	-0.971017
H133	H	1.396502	-0.212395	-0.869944
H134	H	1.361166	-0.294476	-0.870580
C135	C	1.674034	-0.456122	-1.112212
H136	H	1.741530	-0.469076	-1.084961
H137	H	1.676435	-0.456256	-1.187296
H138	H	1.622950	-0.490928	-1.088614
C139	C	0.930487	-0.316772	-0.317259
H140	H	0.988868	-0.324093	-0.271171
H141	H	0.888588	-0.360323	-0.319177
H142	H	0.888893	-0.276712	-0.292312
H143	H	1.124624	-0.241753	-0.448055
C144	C	1.133528	-0.316767	-0.316602
H145	H	1.177862	-0.359100	-0.318535
H146	H	1.074837	-0.326099	-0.271618
H147	H	1.172436	-0.275795	-0.290322
