data_functionalizedCrystal
_audit_creation_method	'MofGen! by Chris Wilmer'
_symmetry_space_group_name_H-M	'P1'
_symmetry_Int_Tables_number	1
_symmetry_cell_setting	triclinic
loop_
_symmetry_equiv_pos_as_xyz
  x,y,z
_cell_length_a	18.215407
_cell_length_b	19.121063
_cell_length_c	18.215399
_cell_angle_alpha	92.409843
_cell_angle_beta	89.980167
_cell_angle_gamma	92.469446
loop_
_atom_site_label
_atom_site_type_symbol
_atom_site_fract_x
_atom_site_fract_y
_atom_site_fract_z
Zn1	Zn	1.112559	-0.279613	-0.428596
Zn2	Zn	1.107212	-0.397068	-0.310772
Zn3	Zn	0.989491	-0.279636	-0.305544
Zn4	Zn	0.984203	-0.397029	-0.433795
O5	O	1.048366	-0.338336	-0.369677
O6	O	1.214834	-0.295200	-0.412978
O7	O	1.091570	-0.381516	-0.207095
O8	O	1.010267	-0.181348	-0.317504
O9	O	1.210905	-0.381494	-0.326414
O10	O	1.100685	-0.181331	-0.407909
O11	O	1.005081	-0.295240	-0.203255
O12	O	0.885805	-0.295202	-0.322545
O13	O	1.001255	-0.381427	-0.536089
O14	O	0.881921	-0.381450	-0.416771
O15	O	1.095558	-0.295162	-0.532269
O16	O	1.086443	-0.495348	-0.331455
O17	O	0.996070	-0.495319	-0.421840
C18	C	0.857160	-0.338324	-0.369655
C19	C	0.775361	-0.338336	-0.369664
C20	C	0.585160	-0.383316	-0.418671
C21	C	0.508302	-0.383318	-0.418681
C22	C	0.512323	-0.293369	-0.320699
C23	C	0.589181	-0.293364	-0.320694
C24	C	0.625597	-0.338342	-0.369679
C25	C	0.471881	-0.338349	-0.369694
C26	C	0.388547	-0.338351	-0.369703
C27	C	0.708936	-0.338339	-0.369671
C28	C	1.040122	-0.520817	-0.377795
C29	C	1.036663	-0.598883	-0.381293
C30	C	1.082127	-0.635551	-0.335916
C31	C	1.078878	-0.708902	-0.339210
C32	C	1.030161	-0.745585	-0.387877
C33	C	0.984695	-0.708912	-0.433258
C34	C	0.987948	-0.635562	-0.429968
C35	C	1.017985	-0.967055	-0.400168
C36	C	1.014733	-1.040410	-0.403454
C37	C	1.108918	-1.040394	-0.309406
C38	C	1.112164	-0.967043	-0.306117
C39	C	1.066701	-0.930377	-0.351501
C40	C	1.026837	-0.820561	-0.391243
C41	C	1.070029	-0.855401	-0.348138
C42	C	1.240319	-0.338349	-0.369699
C43	C	1.322117	-0.338354	-0.369709
C44	C	1.048413	-0.338288	-0.561628
C45	C	1.048433	-0.338267	-0.643426
C46	C	1.056662	-0.155143	-0.361543
C47	C	1.060197	-0.077077	-0.358077
C48	C	1.097555	-0.293307	-0.829630
C49	C	1.097565	-0.293287	-0.906488
C50	C	0.999368	-0.383119	-0.910455
C51	C	0.999355	-0.383135	-0.833598
C52	C	1.048453	-0.338231	-0.793188
C53	C	1.048476	-0.338194	-0.946902
C54	C	1.048486	-0.338172	-1.030235
C55	C	1.048442	-0.338251	-0.709850
C56	C	1.048364	-0.338334	-0.178471
C57	C	1.048495	-0.338157	-0.096664
H58	H	0.475381	-0.419940	-0.458576
H59	H	1.145933	-1.070256	-0.272458
C60	C	1.151581	-0.243872	-0.946574
C61	C	1.207988	-0.274296	-1.000775
C62	C	1.262006	-0.224878	-1.040860
C63	C	1.259617	-0.145036	-1.026744
C64	C	1.203208	-0.114608	-0.972540
C65	C	1.149190	-0.164026	-0.932455
H66	H	1.209759	-0.333403	-1.011227
H67	H	1.303764	-0.247403	-1.080985
H68	H	1.299604	-0.108454	-1.056417
H69	H	1.201437	-0.055501	-0.962088
H70	H	1.107432	-0.141501	-0.892330
C71	C	0.472263	-0.243902	-0.266811
C72	C	0.387723	-0.243908	-0.266810
C73	C	0.347664	-0.194442	-0.212919
C74	C	0.392146	-0.144969	-0.159029
C75	C	0.476691	-0.144961	-0.159028
C76	C	0.516750	-0.194428	-0.212919
H77	H	0.354790	-0.280533	-0.306705
H78	H	0.285078	-0.194448	-0.212921
H79	H	0.362493	-0.108351	-0.119136
H80	H	0.509624	-0.108337	-0.119134
H81	H	0.579336	-0.194421	-0.212918
C82	C	1.128894	-0.749232	-0.289295
C83	C	1.123381	-0.739208	-0.205178
C84	C	1.173404	-0.779536	-0.155263
C85	C	1.228938	-0.829886	-0.189465
C86	C	1.234453	-0.839911	-0.273587
C87	C	1.184431	-0.799584	-0.323502
H88	H	1.082269	-0.701934	-0.179856
H89	H	1.169321	-0.772114	-0.092991
H90	H	1.265968	-0.859739	-0.152515
H91	H	1.275565	-0.877186	-0.298909
H92	H	1.188514	-0.807006	-0.385774
H93	H	0.622106	-0.256736	-0.280798
H94	H	1.151834	-0.937177	-0.266488
H95	H	0.945031	-0.738785	-0.472887
C96	C	0.625219	-0.432784	-0.472560
C97	C	0.679452	-0.402414	-0.529033
C98	C	0.719508	-0.451881	-0.582925
C99	C	0.705332	-0.531719	-0.580344
C100	C	0.651096	-0.562093	-0.523869
C101	C	0.611040	-0.512626	-0.469977
H102	H	0.689949	-0.343310	-0.530945
H103	H	0.759657	-0.429396	-0.624731
H104	H	0.734984	-0.568338	-0.620238
H105	H	0.640600	-0.621197	-0.521956
H106	H	0.570891	-0.535111	-0.428170
H107	H	1.121795	-0.605688	-0.296283
C108	C	0.961142	-1.080763	-0.456992
C109	C	0.911134	-1.040434	-0.506913
C110	C	0.857544	-1.080787	-0.560446
C111	C	0.853963	-1.161469	-0.564058
C112	C	0.903972	-1.201803	-0.514135
C113	C	0.957562	-1.161449	-0.460602
H114	H	0.913784	-0.980704	-0.504242
H115	H	0.820524	-1.050929	-0.597403
H116	H	0.814292	-1.191341	-0.603686
H117	H	0.901323	-1.261533	-0.516806
H118	H	0.994583	-1.191307	-0.423645
C119	C	0.967974	-0.926733	-0.450091
C120	C	0.883865	-0.936890	-0.444468
C121	C	0.833852	-0.896567	-0.494396
C122	C	0.867948	-0.846087	-0.549947
C123	C	0.952061	-0.835927	-0.555573
C124	C	1.002074	-0.876250	-0.505645
H125	H	0.858622	-0.974261	-0.403343
H126	H	0.771586	-0.904089	-0.490231
H127	H	0.830925	-0.816237	-0.586907
H128	H	0.977305	-0.798556	-0.596698
H129	H	1.064340	-0.868729	-0.509810
C130	C	0.937935	-0.595224	-0.479879
C131	C	0.853826	-0.605376	-0.474251
C132	C	0.803813	-0.565038	-0.524167
C133	C	0.837910	-0.514550	-0.579710
C134	C	0.922023	-0.504396	-0.585340
C135	C	0.972036	-0.544734	-0.535425
H136	H	0.828581	-0.642752	-0.433133
H137	H	0.741547	-0.572555	-0.519999
H138	H	0.800888	-0.484690	-0.616661
H139	H	0.947268	-0.467020	-0.626459
H140	H	1.034302	-0.537217	-0.539593
H141	H	1.109698	-0.825532	-0.308516
H142	H	0.987169	-0.850437	-0.430866
H143	H	1.137532	-0.256741	-0.796730
C144	C	0.945368	-0.432518	-0.954908
C145	C	0.945382	-0.432506	-1.039447
C146	C	0.891382	-0.481908	-1.083899
C147	C	0.837369	-0.531322	-1.043811
C148	C	0.837353	-0.531336	-0.959267
C149	C	0.891353	-0.481934	-0.914815
H150	H	0.985368	-0.395925	-1.069127
H151	H	0.891394	-0.481897	-1.146484
H152	H	0.797395	-0.567892	-1.076717
H153	H	0.797367	-0.567917	-0.929587
H154	H	0.891340	-0.481944	-0.852230
H155	H	0.959365	-0.419717	-0.803926
