data_functionalizedCrystal
_audit_creation_method	'MofGen! by Chris Wilmer'
_symmetry_space_group_name_H-M	'P1'
_symmetry_Int_Tables_number	1
_symmetry_cell_setting	triclinic
loop_
_symmetry_equiv_pos_as_xyz
  x,y,z
_cell_length_a	20.875641
_cell_length_b	20.875492
_cell_length_c	20.875652
_cell_angle_alpha	55.987722
_cell_angle_beta	89.843328
_cell_angle_gamma	55.998966
loop_
_atom_site_label
_atom_site_type_symbol
_atom_site_fract_x
_atom_site_fract_y
_atom_site_fract_z
Zr1	Zr	0.599730	0.702144	-0.102511
O2	O	0.480253	0.861806	-0.222015
O3	O	0.641890	0.554452	-0.060327
O4	O	0.627984	0.708128	-0.208081
O5	O	0.498834	0.699235	0.035979
O6	O	0.738222	0.699232	-0.203403
O7	O	0.494159	0.708130	-0.074260
O8	O	0.763097	0.424334	0.060903
O9	O	0.473959	0.974133	-0.228327
O10	O	0.735454	0.604127	-0.045549
O11	O	0.656674	0.604128	0.033229
O12	O	0.640301	0.785061	-0.140732
O13	O	0.561521	0.785062	-0.061954
Zr14	Zr	0.783002	0.673768	0.080769
Zr15	Zr	0.775547	0.687955	-0.095049
Zr16	Zr	0.607186	0.687957	0.073307
Zr17	Zr	0.589691	0.881292	-0.112578
Zr18	Zr	0.793042	0.494619	0.090837
O19	O	0.740843	0.821459	0.038585
O20	O	0.730242	0.841631	-0.211406
O21	O	0.490854	0.841634	0.027976
O22	O	0.902479	0.514106	0.200273
O23	O	0.891879	0.534278	-0.049718
O24	O	0.652490	0.534281	0.189664
O25	O	0.883899	0.676677	-0.057720
O26	O	0.754749	0.667784	0.186339
O27	O	0.644511	0.676680	0.181661
O28	O	0.888574	0.667782	0.052518
O29	O	0.613710	0.962854	-0.222396
O30	O	0.769023	0.413057	0.200655
O31	O	0.908774	0.401779	0.206585
O32	O	0.902848	0.413055	0.066834
O33	O	0.479885	0.962856	-0.088575
O34	O	0.619636	0.951578	-0.082645
O35	O	0.742431	0.590850	0.118991
O36	O	0.821212	0.590849	0.040212
O37	O	0.726059	0.771784	-0.054971
O38	O	0.647278	0.771785	0.023807
C39	C	0.703924	0.463868	0.001723
C40	C	0.708186	0.387815	0.005997
C41	C	0.643410	0.423791	-0.058796
C42	C	0.647415	0.352346	-0.054809
C43	C	0.716193	0.244926	0.013974
C44	C	0.780975	0.208949	0.078770
C45	C	0.776973	0.280393	0.074779
C46	C	0.735327	0.023564	0.033067
C47	C	0.739323	-0.047879	0.037054
C48	C	0.605763	0.095523	-0.096527
C49	C	0.601764	0.166962	-0.100508
C50	C	0.666548	0.130980	-0.035715
N51	N	0.720287	0.171896	0.018052
N52	N	0.662457	0.204009	-0.039797
C53	C	0.471446	0.705704	-0.020204
C54	C	0.396807	0.711727	-0.023371
C55	C	0.411408	0.620114	0.024821
C56	C	0.341274	0.625780	0.021842
C57	C	0.256539	0.723060	-0.029334
C58	C	0.241940	0.814681	-0.077527
C59	C	0.312073	0.809013	-0.074544
C60	C	0.041459	0.750137	-0.043581
C61	C	-0.028676	0.755798	-0.046563
C62	C	0.070664	0.566896	0.052809
C63	C	0.140794	0.561238	0.055784
C64	C	0.126189	0.652857	0.007594
N65	N	0.184849	0.728854	-0.032381
N66	N	0.197878	0.647062	0.010647
C67	C	0.911286	0.670208	-0.001538
C68	C	0.985925	0.664184	0.001630
C69	C	0.682041	0.705701	-0.230792
C70	C	0.678876	0.711724	-0.305432
C71	C	0.678809	0.912044	-0.023464
C72	C	0.674547	0.988097	-0.027739
C73	C	0.655677	0.755801	-0.730925
C74	C	0.658657	0.750134	-0.660790
C75	C	0.709822	0.652853	-0.576039
C76	C	0.758003	0.561233	-0.561425
C77	C	0.755018	0.566901	-0.631560
C78	C	0.724072	0.625772	-0.360953
C79	C	0.727055	0.620111	-0.290816
C80	C	0.627708	0.809013	-0.390186
C81	C	0.624731	0.814672	-0.460318
C82	C	0.672909	0.723053	-0.445698
N83	N	0.712871	0.647057	-0.504348
N84	N	0.669854	0.728849	-0.517389
C85	C	0.700692	0.670211	0.209050
C86	C	0.703857	0.664188	0.283690
C87	C	0.923844	0.446120	0.011055
C88	C	1.002744	0.364043	0.018497
C89	C	0.713249	0.446123	0.221644
C90	C	0.720676	0.364047	0.300557
C91	C	0.933169	0.428375	0.230977
C92	C	1.015235	0.340275	0.313058
C93	C	0.449563	0.947537	-0.252719
C94	C	0.367498	1.035636	-0.334800
C95	C	0.458889	0.929792	-0.032797
C96	C	0.379988	1.011869	-0.040239
C97	C	0.669484	0.929789	-0.243386
C98	C	0.662057	1.011865	-0.322299
C99	C	0.995032	0.332430	-0.022782
C100	C	1.069160	0.255322	-0.015807
C101	C	1.150999	0.209823	0.032452
C102	C	1.158710	0.241443	0.073732
C103	C	1.084583	0.318555	0.066752
C104	C	0.768929	0.318572	0.382390
C105	C	0.775904	0.241462	0.456543
C106	C	0.734630	0.209824	0.448863
C107	C	0.686372	0.255308	0.367022
C108	C	0.679392	0.332421	0.292870
C109	C	1.094904	0.298902	0.310483
C110	C	1.172019	0.216133	0.387599
C111	C	1.169464	0.174734	0.467291
C112	C	1.089786	0.216116	0.469863
C113	C	1.012673	0.298888	0.392747
C114	C	0.287828	1.077019	-0.332225
C115	C	0.210712	1.159810	-0.409343
C116	C	0.213267	1.201212	-0.489034
C117	C	0.292945	1.159826	-0.491607
C118	C	0.370059	1.077041	-0.414490
C119	C	0.387700	1.043489	0.001032
C120	C	0.313571	1.120619	-0.005963
C121	C	0.231731	1.166121	-0.054225
C122	C	0.224020	1.134497	-0.095502
C123	C	0.298149	1.057374	-0.088511
C124	C	0.703341	1.043477	-0.314591
C125	C	0.696379	1.120585	-0.388731
C126	C	0.648128	1.166084	-0.470578
C127	C	0.606843	1.134464	-0.478284
C128	C	0.613810	1.057353	-0.404145
H129	H	0.594667	0.381649	-0.107570
H130	H	0.836979	0.121480	0.134771
H131	H	0.740320	0.147033	0.509249
Br132	Br	0.630363	0.212358	0.356613
Br133	Br	0.292256	0.933350	-0.139944
Br134	Br	0.498759	0.981756	0.066534
H135	H	1.062865	0.229588	-0.049423
Br136	Br	0.613904	0.394124	0.181814
Br137	Br	0.586244	0.887832	-0.845941
H138	H	0.947806	0.332564	0.394856
Br139	Br	0.864892	0.231565	0.162711
Br140	Br	0.102590	1.215957	-0.405831
H141	H	0.580187	1.031623	-0.410433
Br142	Br	-0.143678	0.887831	-0.116033
Br143	Br	0.324055	1.163517	0.050063
Br144	Br	0.752411	1.163484	-0.378252
H145	H	0.291858	1.031632	-0.122117
H146	H	0.587395	0.511256	-0.114799
Br147	Br	0.112945	1.196258	-0.160995
H148	H	0.480400	0.540897	0.066497
Br149	Br	1.098396	0.355072	0.202340
H150	H	0.172942	0.893888	-0.119191
Br151	Br	1.280141	0.159988	0.384087
H152	H	0.742631	1.006443	-0.247954
H153	H	0.928400	0.369476	-0.062090
Br154	Br	1.274128	0.062399	0.571942
Br155	Br	0.478179	1.020885	-0.418000
H156	H	0.029556	0.824742	-0.082835
Br157	Br	0.131135	1.270788	-0.063704
H158	H	0.285732	1.043314	-0.267343
Br159	Br	1.251593	0.105170	0.041917
Br160	Br	0.108602	1.313564	-0.593687
Br161	Br	0.255790	0.429209	0.125237
H162	H	0.642462	1.228873	-0.530940
Br163	Br	0.508411	0.312747	-0.193853
Br164	Br	1.086333	0.159920	0.578024
Br165	Br	0.296398	1.216025	-0.599767
H166	H	0.553020	0.124809	-0.149279
Br167	Br	0.832672	-0.193671	0.130409
H168	H	0.567557	1.171522	-0.544934
H169	H	1.225354	0.204386	0.113025
H170	H	0.353170	0.551178	0.061087
H171	H	1.090875	0.344283	0.100372
Br172	Br	0.796532	0.488074	-0.175792
H173	H	0.788079	-0.005746	0.085826
Br174	Br	0.841402	0.179750	0.567602
Br175	Br	0.593231	0.874475	-0.680631
Br176	Br	0.090479	0.442562	0.118209
H177	H	0.583069	0.893889	-0.529323
H178	H	0.588483	0.883604	-0.402079
Br179	Br	0.827434	0.429207	-0.446407
Br180	Br	0.789454	0.501431	-0.341103
H181	H	0.802540	0.344322	0.388660
Br182	Br	0.820401	0.442565	-0.611724
