data_functionalizedCrystal
_audit_creation_method	'MofGen! by Chris Wilmer'
_symmetry_space_group_name_H-M	'P1'
_symmetry_Int_Tables_number	1
_symmetry_cell_setting	triclinic
loop_
_symmetry_equiv_pos_as_xyz
  x,y,z
_cell_length_a	23.532355
_cell_length_b	23.532407
_cell_length_c	11.295483
_cell_angle_alpha	94.064566
_cell_angle_beta	85.927191
_cell_angle_gamma	82.838088
loop_
_atom_site_label
_atom_site_type_symbol
_atom_site_fract_x
_atom_site_fract_y
_atom_site_fract_z
O1	O	0.759131	0.065142	-0.098873
O2	O	0.593265	0.075175	-0.098913
O3	O	0.681199	-0.012773	-0.098870
O4	O	0.671197	0.153090	-0.098916
O5	O	0.673475	-0.005060	0.099177
O6	O	0.585541	0.082888	0.099134
O7	O	0.751407	0.072855	0.099174
Cu8	Cu	0.667769	0.078576	0.117237
Cu9	Cu	0.676903	0.069454	-0.116977
O10	O	0.663474	0.160803	0.099131
C11	C	0.568187	0.078780	0.000106
C12	C	0.504969	0.078026	0.000092
C13	C	0.108743	0.077494	0.108098
C14	C	0.049343	0.076776	0.108103
O15	O	0.015044	0.079962	0.199914
N16	N	0.023845	0.072216	0.000148
C17	C	0.057750	0.068368	-0.107819
O18	O	0.030607	0.064423	-0.199642
C19	C	0.117149	0.069081	-0.107822
C20	C	0.142643	0.073647	0.000140
C21	C	0.134238	0.082059	0.216051
C22	C	0.193633	0.082777	0.216046
C23	C	0.227533	0.078930	0.108088
C24	C	0.202039	0.074365	0.000134
C25	C	0.151054	0.065228	-0.215788
C26	C	0.210456	0.065941	-0.215782
C27	C	0.235951	0.070507	-0.107820
C28	C	0.295335	0.071237	-0.107829
N29	N	0.320833	0.075797	0.000126
C30	C	0.286933	0.079643	0.108084
C31	C	-0.066992	0.066869	-0.107803
C32	C	-0.126391	0.066160	-0.107801
C33	C	-0.134793	0.074568	0.108121
C34	C	-0.075394	0.075281	0.108118
C35	C	-0.041494	0.071429	0.000152
C36	C	0.411667	0.081152	0.108065
C37	C	0.471068	0.081872	0.108050
C38	C	0.479466	0.073462	-0.107871
C39	C	0.420070	0.072744	-0.107857
C40	C	0.386172	0.076588	0.000120
O41	O	0.329670	0.068051	-0.199593
O42	O	0.314084	0.083580	0.199892
C43	C	0.677082	-0.030133	0.000156
C44	C	0.676316	-0.093349	0.000165
C45	C	0.723553	-0.492463	0.000111
C46	C	0.722841	-0.551864	0.000102
O47	O	0.766630	-0.588618	0.000068
N48	N	0.670564	-0.574481	0.000090
C49	C	0.618995	-0.537694	0.000076
O50	O	0.574464	-0.562386	0.000064
C51	C	0.619707	-0.478295	0.000077
C52	C	0.671987	-0.455681	0.000100
C53	C	0.775828	-0.469849	0.000134
C54	C	0.776539	-0.410452	0.000145
C55	C	0.724974	-0.373670	0.000134
C56	C	0.672698	-0.396285	0.000112
C57	C	0.568139	-0.441510	0.000054
C58	C	0.568856	-0.382107	0.000053
C59	C	0.621136	-0.359494	0.000077
C60	C	0.621844	-0.300106	0.000112
N61	N	0.674121	-0.277489	0.000124
C62	C	0.725686	-0.314271	0.000135
C63	C	0.617504	-0.662436	0.000072
C64	C	0.616791	-0.721834	0.000080
C65	C	0.720638	-0.736000	0.000104
C66	C	0.721350	-0.676601	0.000105
C67	C	0.669781	-0.639819	0.000084
C68	C	0.727175	-0.189534	0.000160
C69	C	0.727881	-0.130131	0.000176
C70	C	0.624035	-0.115971	0.000146
C71	C	0.623328	-0.175368	0.000136
C72	C	0.674903	-0.212149	0.000139
O73	O	0.578079	-0.263318	0.000141
O74	O	0.770211	-0.289572	0.000131
C75	C	0.776486	0.069249	0.000152
C76	C	0.839704	0.070004	0.000158
C77	C	0.667590	0.178162	0.000102
C78	C	0.668357	0.241379	0.000085
N79	N	0.661349	0.084991	0.281970
N80	N	0.683327	0.063035	-0.281710
C81	C	0.729543	0.016824	0.531293
C82	C	0.724695	0.021675	0.655954
C83	C	0.646804	0.099543	0.655956
C84	C	0.651651	0.094691	0.531295
C85	C	0.693023	0.053331	0.468968
C86	C	0.697873	0.048482	0.344304
C87	C	0.619979	0.126347	0.344309
C88	C	0.615132	0.131199	0.468970
H89	H	0.130307	0.061509	-0.303702
H90	H	0.754432	-0.008053	0.706696
N91	N	-0.152419	0.061496	-0.218093
N92	N	-0.137481	0.018611	-0.290365
H93	H	-0.155861	0.015313	-0.368264
N94	N	0.582682	0.163642	0.280626
N95	N	0.587020	0.159311	0.169322
H96	H	0.560682	0.185652	0.124344
H97	H	0.384074	0.084287	0.195991
N98	N	0.569927	-0.198473	0.000156
N99	N	0.531990	-0.183856	0.083641
H100	H	0.494274	-0.200172	0.083652
H101	H	0.507078	0.070332	-0.195768
H102	H	0.525568	-0.459911	0.000027
H103	H	0.491822	0.085593	0.195969
H104	H	0.613116	0.133215	0.706720
H105	H	0.581446	0.164872	0.519731
N106	N	-0.169428	0.078507	0.218405
N107	N	-0.208990	0.119198	0.242477
H108	H	-0.233452	0.121983	0.320361
H109	H	0.574219	-0.740239	0.000081
H110	H	0.238056	0.062805	-0.303703
H111	H	0.526862	-0.352162	0.000035
H112	H	0.763233	-0.016850	0.480545
H113	H	0.214385	0.086492	0.303960
N114	N	-0.032375	0.062937	-0.218106
N115	N	-0.055154	0.058865	-0.314479
H116	H	-0.030708	0.056086	-0.392382
H117	H	0.582052	-0.086012	0.000141
N118	N	0.773318	-0.773571	0.000090
N119	N	0.819994	-0.753379	0.000095
H120	H	0.857198	-0.779914	0.000084
N121	N	0.828511	-0.507408	0.000137
N122	N	0.875178	-0.487197	0.000152
H123	H	0.912389	-0.513719	0.000161
H124	H	0.106642	0.085190	0.303969
N125	N	-0.049365	0.079953	0.218408
N126	N	-0.079648	0.083395	0.314786
H127	H	-0.061269	0.086696	0.392684
H128	H	0.399310	0.069036	-0.195769
N129	N	0.829939	-0.387349	0.000146
N130	N	0.830577	-0.334315	0.000145
H131	H	0.868293	-0.318001	0.000143
H132	H	0.731561	0.014806	0.293558
H133	H	0.770455	-0.111723	0.000199
H134	H	0.769172	-0.219475	0.000158
N135	N	0.774751	-0.653502	0.000146
N136	N	0.806178	-0.661636	0.083643
H137	H	0.843895	-0.645325	0.083673
N138	N	0.564819	-0.624875	0.000055
N139	N	0.518150	-0.645082	0.000043
H140	H	0.480941	-0.618558	0.000028
