data_functionalizedCrystal
_audit_creation_method	'MofGen! by Chris Wilmer'
_symmetry_space_group_name_H-M	'P1'
_symmetry_Int_Tables_number	1
_symmetry_cell_setting	triclinic
loop_
_symmetry_equiv_pos_as_xyz
  x,y,z
_cell_length_a	10.685976
_cell_length_b	10.685594
_cell_length_c	10.686551
_cell_angle_alpha	89.698963
_cell_angle_beta	90.348485
_cell_angle_gamma	89.687869
loop_
_atom_site_label
_atom_site_type_symbol
_atom_site_fract_x
_atom_site_fract_y
_atom_site_fract_z
Zn1	Zn	1.929799	-0.603124	0.611389
Zn2	Zn	2.429799	-0.103124	1.111389
Zn3	Zn	1.897870	-0.826417	0.419963
Zn4	Zn	2.397870	-0.326417	0.919963
Zn5	Zn	1.704092	-0.600782	0.417572
Zn6	Zn	2.204092	-0.100782	0.917572
Zn7	Zn	1.706550	-0.794539	0.643173
Zn8	Zn	2.206550	-0.294539	1.143173
O9	O	1.809578	-0.706215	0.523024
O10	O	2.309578	-0.206215	1.023024
O11	O	2.100091	-0.647065	0.573694
O12	O	2.600091	-0.147065	1.073694
O13	O	1.857774	-0.808846	0.245118
O14	O	2.357774	-0.308846	0.745118
O15	O	1.746365	-0.426556	0.428979
O16	O	2.246365	0.073444	0.928979
O17	O	2.076633	-0.811117	0.433055
O18	O	2.576633	-0.311117	0.933055
O19	O	1.912192	-0.428276	0.571376
O20	O	2.412192	0.071724	1.071376
O21	O	1.715406	-0.643073	0.243361
O22	O	2.215406	-0.143073	0.743361
O23	O	1.529890	-0.612163	0.459799
O24	O	2.029890	-0.112163	0.959799
O25	O	1.750555	-0.756787	0.813484
O26	O	2.250555	-0.256787	1.313484
O27	O	1.531696	-0.754516	0.625548
O28	O	2.031696	-0.254516	1.125548
O29	O	1.914576	-0.616155	0.790132
O30	O	2.414576	-0.116155	1.290132
O31	O	1.860158	-0.996725	0.463875
O32	O	2.360158	-0.496725	0.963875
O33	O	1.719596	-0.973305	0.627867
O34	O	2.219596	-0.473305	1.127867
C35	C	1.485540	-0.679627	0.545864
C36	C	1.985540	-0.179627	1.045864
C37	C	1.346916	-0.668281	0.555667
C38	C	1.846916	-0.168281	1.055667
C39	C	1.786715	-1.030271	0.549604
C40	C	2.286715	-0.530271	1.049604
C41	C	1.777052	-1.168910	0.561009
C42	C	2.277052	-0.668910	1.061009
C43	C	2.134881	-0.732908	0.500096
C44	C	2.634881	-0.232908	1.000096
C45	C	2.273505	-0.744283	0.490325
C46	C	2.773505	-0.244283	0.990325
C47	C	1.836401	-0.683177	0.848327
C48	C	2.336401	-0.183177	1.348327
C49	C	1.847832	-0.673359	0.986951
C50	C	2.347832	-0.173359	1.486951
C51	C	1.832566	-0.380895	0.496365
C52	C	2.332566	0.119105	0.996365
C53	C	1.842362	-0.242263	0.485005
C54	C	2.342362	0.257737	0.985005
C55	C	1.782937	-0.729080	0.198974
C56	C	2.282937	-0.229080	0.698974
C57	C	1.771772	-0.738567	0.060305
C58	C	2.271772	-0.238567	0.560305
H59	H	1.316713	-0.818046	0.426883
H60	H	1.816713	-0.318046	0.926883
H61	H	1.905677	-1.199002	0.411214
H62	H	2.405677	-0.699002	0.911214
H63	H	1.713744	-1.212178	0.634813
H64	H	2.213744	-0.712178	1.134813
H65	H	1.921704	-0.610023	1.030208
H66	H	2.421704	-0.110023	1.530208
H67	H	1.303714	-0.594533	0.619117
H68	H	1.803714	-0.094533	1.119117
F69	F	1.675230	-0.821362	1.003775
F70	F	2.175230	-0.321362	1.503775
