data_functionalizedCrystal
_audit_creation_method	'MofGen! by Chris Wilmer'
_symmetry_space_group_name_H-M	'P1'
_symmetry_Int_Tables_number	1
_symmetry_cell_setting	triclinic
loop_
_symmetry_equiv_pos_as_xyz
  x,y,z
_cell_length_a	8.497374
_cell_length_b	8.497365
_cell_length_c	12.827893
_cell_angle_alpha	89.967592
_cell_angle_beta	89.998937
_cell_angle_gamma	90.037770
loop_
_atom_site_label
_atom_site_type_symbol
_atom_site_fract_x
_atom_site_fract_y
_atom_site_fract_z
Zn1	Zn	0.627661	-0.892101	1.597909
Zn2	Zn	0.891605	-0.628366	1.597807
Zn3	Zn	0.627832	-0.628329	1.423110
Zn4	Zn	0.891393	-0.892099	1.423179
O5	O	0.759623	-0.760224	1.510501
O6	O	0.662691	-0.857133	1.744131
O7	O	0.856775	-0.407599	1.574561
O8	O	0.407047	-0.663304	1.446312
O9	O	0.856609	-0.663368	1.744056
O10	O	0.406922	-0.857096	1.574735
O11	O	0.662983	-0.407571	1.446212
O12	O	0.662777	-0.663302	1.276883
O13	O	0.856248	-1.112862	1.446429
O14	O	0.856414	-0.857093	1.276934
O15	O	0.662485	-1.112864	1.574802
O16	O	1.112339	-0.663366	1.574628
O17	O	1.112183	-0.857129	1.446330
C18	C	0.759592	-0.760194	1.238991
C19	C	0.759617	-0.760218	1.122838
C20	C	0.855585	-0.855964	1.071106
C21	C	0.855613	-0.855992	0.951056
C22	C	1.169503	-0.760247	1.510488
C23	C	1.348147	-0.760221	1.510516
C24	C	0.759795	-0.350344	1.510426
C25	C	0.759471	-0.171700	1.510575
C26	C	0.759654	-0.760255	1.783071
C27	C	0.759668	-0.760268	1.899224
H28	H	0.937720	-0.937921	1.115693
H29	H	0.677508	-0.678287	0.943706
Cl30	Cl	0.982479	-0.982548	0.882375
Cl31	Cl	0.632783	-0.633694	1.054008
