data_functionalizedCrystal
_audit_creation_method	'MofGen! by Chris Wilmer'
_symmetry_space_group_name_H-M	'P1'
_symmetry_Int_Tables_number	1
_symmetry_cell_setting	triclinic
loop_
_symmetry_equiv_pos_as_xyz
  x,y,z
_cell_length_a	10.489741
_cell_length_b	15.944551
_cell_length_c	8.965430
_cell_angle_alpha	89.999468
_cell_angle_beta	89.998843
_cell_angle_gamma	84.018956
loop_
_atom_site_label
_atom_site_type_symbol
_atom_site_fract_x
_atom_site_fract_y
_atom_site_fract_z
O1	O	1.692411	0.118500	-0.123951
O2	O	1.321061	0.129624	-0.123974
O3	O	1.516876	0.001848	-0.123948
O4	O	1.496595	0.246276	-0.123977
O5	O	1.516860	0.001857	0.124130
O6	O	1.321044	0.129633	0.124105
O7	O	1.692394	0.118509	0.124128
Cu8	Cu	1.506718	0.124071	0.146768
Cu9	Cu	1.506737	0.124061	-0.146614
O10	O	1.496578	0.246285	0.124102
C11	C	1.273532	0.128788	0.000062
C12	C	1.131938	0.126275	0.000054
C13	C	1.064925	0.044975	0.000077
C14	C	0.972274	0.083376	-0.122240
C15	C	0.972291	0.083403	0.122346
C16	C	1.041152	0.164709	-0.122364
C17	C	1.041179	0.164726	0.122332
C18	C	0.948554	0.203186	-0.000015
C19	C	1.516026	-0.029446	0.000091
C20	C	1.513502	-0.122708	0.000092
C21	C	1.386093	-0.338330	0.000063
C22	C	1.445249	-0.398988	0.122385
C23	C	1.508935	-0.293461	0.000080
C24	C	1.445294	-0.398979	-0.122201
C25	C	1.504515	-0.458400	0.000062
C26	C	1.568126	-0.352890	0.122503
C27	C	1.568154	-0.352875	-0.122193
C28	C	1.627399	-0.413515	0.000158
C29	C	1.511478	-0.198443	0.000092
C30	C	1.501982	-0.553417	0.000061
C31	C	1.739922	0.119345	0.000088
C32	C	1.881517	0.121858	0.000087
C33	C	1.497429	0.277579	0.000059
C34	C	1.499953	0.370841	0.000049
N35	N	1.506713	0.124078	0.353117
N36	N	1.506752	0.124048	-0.352963
C37	C	1.416127	0.183150	0.450411
C38	C	1.531388	0.200146	0.549830
C39	C	1.391501	0.107089	0.549826
C40	C	1.622032	0.141112	0.450347
C41	C	1.482069	0.048022	0.450334
C42	C	1.597413	0.064986	0.549708
H43	H	0.941783	0.048992	0.225756
C44	C	1.643229	-0.061360	0.694176
C45	C	1.700953	-0.002476	0.608206
H46	H	1.707153	-0.103008	0.730282
H47	H	1.599619	-0.033557	0.776037
H48	H	1.583781	-0.087461	0.634501
H49	H	1.760394	0.023630	0.667884
H50	H	1.744584	-0.030283	0.526334
C51	C	1.458929	-0.481546	-0.346699
C52	C	1.375144	-0.426526	-0.261803
H53	H	1.415610	-0.498553	-0.432872
H54	H	1.530602	-0.453654	-0.376095
H55	H	1.487380	-0.529754	-0.288707
H56	H	1.346700	-0.378315	-0.319792
H57	H	1.303448	-0.454418	-0.232409
C58	C	1.640851	-0.237657	-0.259543
C59	C	1.638246	-0.325272	-0.261789
H60	H	1.684122	-0.220617	-0.345729
H61	H	1.555617	-0.210882	-0.258679
H62	H	1.684601	-0.222057	-0.172706
H63	H	1.594487	-0.340872	-0.348621
H64	H	1.723495	-0.352057	-0.262668
C65	C	1.338964	0.330227	0.441758
C66	C	1.312813	0.250646	0.391529
H67	H	1.275190	0.371896	0.405395
H68	H	1.338770	0.331016	0.547691
H69	H	1.420661	0.341745	0.406228
H70	H	1.231119	0.239126	0.427068
H71	H	1.312994	0.249855	0.285574
H72	H	1.552259	0.264453	0.593533
C73	C	1.165232	0.149657	0.558668
C74	C	1.259950	0.087697	0.608804
H75	H	1.084017	0.137684	0.595068
H76	H	1.183371	0.203262	0.594209
H77	H	1.164060	0.150033	0.452722
H78	H	1.261129	0.087325	0.714751
H79	H	1.241807	0.034078	0.573271
H80	H	1.115541	-0.021859	-0.000068
C81	C	1.184419	-0.317306	0.128462
C82	C	1.248450	-0.294185	0.000213
H83	H	1.099451	-0.290047	0.128561
H84	H	1.181874	-0.376676	0.129338
H85	H	1.228501	-0.300861	0.214466
H86	H	1.204374	-0.310636	-0.085792
H87	H	1.250989	-0.234802	-0.000677
H88	H	1.071741	0.199101	0.225741
C89	C	0.973817	0.237331	-0.348103
C90	C	1.082121	0.211103	-0.262131
H91	H	0.999114	0.265974	-0.434382
H92	H	0.932830	0.189549	-0.377319
H93	H	0.916066	0.274269	-0.290914
H94	H	1.139868	0.174159	-0.319317
H95	H	1.123128	0.258891	-0.232917
C96	C	1.738451	0.234000	0.304807
C97	C	1.753606	0.160655	0.391673
H98	H	1.819676	0.246083	0.268607
H99	H	1.683523	0.225877	0.223008
H100	H	1.701896	0.279785	0.363909
H101	H	1.790152	0.114868	0.332568
H102	H	1.808554	0.168772	0.473484
H103	H	0.898203	0.270090	-0.000090
C104	C	1.333064	-0.056408	0.441397
C105	C	1.453847	-0.038759	0.391270
H106	H	1.315630	-0.109980	0.404921
H107	H	1.332097	-0.056904	0.547328
H108	H	1.269549	-0.014314	0.405911
H109	H	1.517363	-0.080851	0.426765
H110	H	1.454825	-0.038271	0.285316
H111	H	1.620032	-0.332584	0.226030
C112	C	0.990365	-0.045907	-0.261600
C113	C	0.931042	0.036935	-0.261827
H114	H	0.964906	-0.074580	-0.347767
H115	H	1.080773	-0.045088	-0.262158
H116	H	0.965628	-0.074238	-0.174729
H117	H	0.955787	0.065269	-0.348693
H118	H	0.840615	0.036121	-0.261283
C119	C	1.374517	-0.514336	0.261151
C120	C	1.375106	-0.426560	0.261977
H121	H	1.331214	-0.531354	0.347330
H122	H	1.331708	-0.530872	0.174299
H123	H	1.460234	-0.540312	0.261287
H124	H	1.289388	-0.400584	0.261829
H125	H	1.417912	-0.410016	0.348851
H126	H	1.729454	-0.446060	0.000234
