data_functionalizedCrystal
_audit_creation_method	'MofGen! by Chris Wilmer'
_symmetry_space_group_name_H-M	'P1'
_symmetry_Int_Tables_number	1
_symmetry_cell_setting	triclinic
loop_
_symmetry_equiv_pos_as_xyz
  x,y,z
_cell_length_a	15.944551
_cell_length_b	15.944551
_cell_length_c	14.421503
_cell_angle_alpha	90.003340
_cell_angle_beta	89.996859
_cell_angle_gamma	83.498738
loop_
_atom_site_label
_atom_site_type_symbol
_atom_site_fract_x
_atom_site_fract_y
_atom_site_fract_z
O1	O	1.114529	0.108320	-0.077017
O2	O	0.869980	0.121677	-0.077040
O3	O	0.998933	-0.007276	-0.077020
O4	O	0.985576	0.237273	-0.077038
O5	O	0.998911	-0.007257	0.077204
O6	O	0.869958	0.121696	0.077183
O7	O	1.114508	0.108340	0.077206
Cu8	Cu	0.992231	0.115020	0.091277
Cu9	Cu	0.992256	0.114997	-0.091110
O10	O	0.985555	0.237293	0.077186
C11	C	0.838675	0.121132	0.000069
C12	C	0.745429	0.119470	0.000060
C13	C	0.530572	0.035565	0.000084
C14	C	0.469563	0.074518	-0.075959
C15	C	0.574703	0.116462	0.000071
C16	C	0.469564	0.074556	0.076093
C17	C	0.409790	0.113551	0.000086
C18	C	0.514922	0.155437	-0.076035
C19	C	0.514929	0.155464	0.076086
C20	C	0.453937	0.194476	0.000024
C21	C	0.669705	0.118137	0.000062
C22	C	0.314789	0.111883	0.000089
C23	C	0.998367	-0.038561	0.000092
C24	C	0.996705	-0.131807	0.000093
C25	C	0.912801	-0.346663	0.000072
C26	C	0.951753	-0.407671	0.076117
C27	C	0.993698	-0.302533	0.000085
C28	C	0.951793	-0.407674	-0.075935
C29	C	0.990787	-0.467445	0.000074
C30	C	1.032672	-0.362312	0.076193
C31	C	1.032701	-0.362308	-0.075927
C32	C	1.071711	-0.423298	0.000136
C33	C	0.995372	-0.207530	0.000092
C34	C	0.989119	-0.562446	0.000073
C35	C	1.145813	0.108885	0.000096
C36	C	1.239059	0.110547	0.000098
C37	C	0.986120	0.268577	0.000072
C38	C	0.987782	0.361823	0.000066
N39	N	0.992219	0.115035	0.219558
N40	N	0.992275	0.114975	-0.219392
C41	C	0.932581	0.174636	0.469202
C42	C	1.008481	0.190943	0.531011
C43	C	0.992240	0.115015	0.408719
C44	C	0.916359	0.098727	0.531005
C45	C	0.992253	0.114997	0.591441
C46	C	1.068178	0.131360	0.469167
C47	C	0.976007	0.039111	0.469156
C48	C	1.051961	0.055386	0.530936
C49	C	0.992231	0.115027	0.303458
C50	C	0.992270	0.114985	0.696700
H51	H	0.845652	-0.313356	0.000141
H52	H	0.449461	0.040294	-0.140243
H53	H	0.962240	-0.025051	0.441965
H54	H	0.917575	-0.427758	-0.140230
H55	H	1.138919	-0.456457	0.000186
C56	C	1.162494	-0.054054	0.492278
C57	C	1.120148	-0.012691	0.567308
H58	H	1.204593	-0.096074	0.514736
H59	H	1.123349	-0.079808	0.455199
H60	H	1.188268	-0.014330	0.456022
H61	H	1.094368	-0.052413	0.603560
H62	H	1.159299	0.013064	0.604402
C63	C	0.806071	0.204627	0.379172
C64	C	0.864544	0.242749	0.432598
H65	H	0.764070	0.246679	0.356578
H66	H	0.834200	0.175801	0.328382
H67	H	0.780279	0.165557	0.416331
H68	H	0.890341	0.281815	0.395437
H69	H	0.836412	0.271589	0.483395
C70	C	0.359133	0.298075	0.079612
C71	C	0.409165	0.285199	-0.000035
H72	H	0.331496	0.354085	0.079573
H73	H	0.318185	0.259201	0.080144
H74	H	0.393792	0.289686	0.133135
H75	H	0.374505	0.293582	-0.053558
H76	H	0.450118	0.324085	-0.000575
H77	H	1.066897	-0.342186	-0.140214
C78	C	0.519479	0.159148	0.242427
C79	C	0.542109	0.201624	0.162868
H80	H	0.536267	0.187639	0.296007
H81	H	0.460058	0.157988	0.243361
H82	H	0.546779	0.103014	0.241873
H83	H	0.514804	0.257756	0.163418
H84	H	0.601542	0.202794	0.161934
H85	H	0.449469	0.040333	0.140379
H86	H	1.066850	-0.342314	0.140554
H87	H	0.852183	0.084959	0.558170
H88	H	0.563905	-0.031573	-0.000005
H89	H	0.917527	-0.427771	0.140401
C90	C	0.964478	0.339936	0.536545
C91	C	1.027033	0.277583	0.567699
H92	H	0.975926	0.393423	0.559198
H93	H	0.964101	0.340725	0.470690
H94	H	0.910983	0.327953	0.558633
H95	H	1.080528	0.289563	0.545605
H96	H	1.027419	0.276797	0.633568
C97	C	1.144851	0.223542	0.378692
C98	C	1.154827	0.150109	0.432694
H99	H	1.198343	0.235135	0.356189
H100	H	1.108682	0.215746	0.327838
H101	H	1.120776	0.269549	0.415433
H102	H	1.178898	0.104100	0.395951
H103	H	1.191010	0.157900	0.483555
C104	C	0.629594	0.202677	-0.162164
C105	C	0.541909	0.201576	-0.162924
H106	H	0.646255	0.231154	-0.215809
H107	H	0.645478	0.231226	-0.108242
H108	H	0.656516	0.146393	-0.161941
H109	H	0.514987	0.257860	-0.163140
H110	H	0.526018	0.173027	-0.216860
