data_functionalizedCrystal
_audit_creation_method	'MofGen! by Chris Wilmer'
_symmetry_space_group_name_H-M	'P1'
_symmetry_Int_Tables_number	1
_symmetry_cell_setting	triclinic
loop_
_symmetry_equiv_pos_as_xyz
  x,y,z
_cell_length_a	12.594517
_cell_length_b	12.594516
_cell_length_c	12.594509
_cell_angle_alpha	89.973801
_cell_angle_beta	90.021327
_cell_angle_gamma	89.984147
loop_
_atom_site_label
_atom_site_type_symbol
_atom_site_fract_x
_atom_site_fract_y
_atom_site_fract_z
Zn1	Zn	1.627267	0.423716	0.601875
Zn2	Zn	1.627158	0.601726	0.423903
Zn3	Zn	1.449271	0.423761	0.423904
Zn4	Zn	1.449253	0.601652	0.601833
O5	O	1.538237	0.512714	0.512879
O6	O	1.776198	0.447341	0.578284
O7	O	1.603522	0.578169	0.274957
O8	O	1.472936	0.274809	0.447530
O9	O	1.776118	0.578124	0.447528
O10	O	1.603709	0.274776	0.578285
O11	O	1.472830	0.447419	0.274958
O12	O	1.300323	0.447347	0.447489
O13	O	1.472905	0.577998	0.750784
O14	O	1.300310	0.578042	0.578213
O15	O	1.603691	0.447269	0.750815
O16	O	1.603505	0.750662	0.447488
O17	O	1.472799	0.750608	0.578212
C18	C	1.261696	0.512692	0.512847
C19	C	1.143391	0.512709	0.512859
C20	C	1.538167	0.789255	0.512868
C21	C	1.538235	0.907560	0.512899
C22	C	1.074114	0.441526	0.441894
C23	C	1.003303	0.538615	0.415718
C24	C	1.003403	0.415668	0.539054
C25	C	1.074138	0.609849	0.486632
C26	C	1.074244	0.486836	0.610013
C27	C	1.003465	0.583991	0.583874
C28	C	1.538308	0.512620	0.790500
C29	C	1.538339	0.512581	0.908805
C30	C	1.815858	0.512736	0.512911
C31	C	1.934163	0.512745	0.512924
C32	C	1.538336	0.235093	0.512912
C33	C	1.538378	0.116787	0.512927
C34	C	1.467137	0.976822	0.583950
C35	C	1.441204	1.047688	0.486827
C36	C	1.564265	1.047494	0.610039
C37	C	1.512250	0.976867	0.415725
C38	C	1.635357	0.976667	0.539002
C39	C	1.609460	1.047500	0.441812
C40	C	1.538227	0.512730	0.236338
C41	C	1.538403	0.512470	0.118033
C42	C	1.467227	0.583644	0.978042
C43	C	1.564347	0.609650	1.048833
C44	C	1.441294	0.486510	1.048813
C45	C	1.635510	0.538638	0.978038
C46	C	1.512391	0.415453	0.978012
C47	C	1.609579	0.441422	1.048772
H48	H	1.105135	0.381389	0.381807
F49	F	1.742602	0.935863	0.567891
F50	F	1.388684	0.662312	0.937446
H51	H	1.105429	0.464899	0.692122
H52	H	1.586224	1.078518	0.692178
F53	F	1.483427	0.936489	0.308332
H54	H	0.972144	0.560522	0.333584
H55	H	0.972276	0.333597	0.561146
H56	H	1.359198	0.464506	1.079902
F57	F	1.593080	0.716948	1.089495
F58	F	1.742846	0.567531	0.937578
H59	H	1.669647	1.078338	0.381669
F60	F	1.114576	0.717167	0.457584
F61	F	0.963171	0.662781	0.662352
H62	H	1.406905	0.945788	0.643949
H63	H	1.359136	1.078906	0.464772
F64	F	1.688307	0.362811	1.089114
H65	H	1.490382	0.333385	0.946881
