data_functionalizedCrystal
_audit_creation_method	'MofGen! by Chris Wilmer'
_symmetry_space_group_name_H-M	'P1'
_symmetry_Int_Tables_number	1
_symmetry_cell_setting	triclinic
loop_
_symmetry_equiv_pos_as_xyz
  x,y,z
_cell_length_a	17.077404
_cell_length_b	17.637651
_cell_length_c	17.077396
_cell_angle_alpha	78.755281
_cell_angle_beta	89.980223
_cell_angle_gamma	101.214193
loop_
_atom_site_label
_atom_site_type_symbol
_atom_site_fract_x
_atom_site_fract_y
_atom_site_fract_z
Zn1	Zn	1.136891	-0.314855	-0.380571
Zn2	Zn	1.636891	0.185145	0.119429
Zn3	Zn	1.110274	-0.447075	-0.222732
Zn4	Zn	1.610274	0.052925	0.277268
Zn5	Zn	1.005620	-0.314872	-0.249315
Zn6	Zn	1.505620	0.185128	0.250685
Zn7	Zn	0.979078	-0.447017	-0.353967
Zn8	Zn	1.479078	0.052983	0.146033
O9	O	1.057966	-0.380955	-0.301646
O10	O	1.557966	0.119045	0.198354
O11	O	1.243204	-0.332412	-0.359642
O12	O	1.743204	0.167588	0.140358
O13	O	1.096360	-0.429569	-0.116405
O14	O	1.596360	0.070431	0.383595
O15	O	1.045281	-0.204232	-0.288985
O16	O	1.545281	0.295768	0.211015
O17	O	1.223648	-0.429553	-0.243679
O18	O	1.723648	0.070447	0.256321
O19	O	1.141725	-0.204220	-0.385418
O20	O	1.641725	0.295780	0.114582
O21	O	1.019471	-0.332440	-0.135936
O22	O	1.519471	0.167560	0.364064
O23	O	0.892256	-0.332384	-0.263188
O24	O	1.392256	0.167616	0.236812
O25	O	1.000044	-0.429454	-0.467349
O26	O	1.500044	0.070546	0.032651
O27	O	0.872756	-0.429470	-0.340076
O28	O	1.372756	0.070530	0.159924
O29	O	1.115989	-0.332355	-0.486895
O30	O	1.615989	0.167645	0.013105
O31	O	1.070623	-0.557705	-0.217882
O32	O	1.570623	-0.057705	0.282118
O33	O	0.974234	-0.557662	-0.314300
O34	O	1.474234	-0.057662	0.185700
C35	C	0.854024	-0.380923	-0.301630
C36	C	1.354024	0.119077	0.198370
C37	C	0.766774	-0.380928	-0.301638
C38	C	1.266774	0.119072	0.198362
C39	C	0.380798	-0.431621	-0.341603
C40	C	0.880798	0.068379	0.158397
C41	C	0.462781	-0.431610	-0.341593
C42	C	0.962781	0.068390	0.158407
C43	C	0.513915	-0.380976	-0.301655
C44	C	1.013915	0.119024	0.198345
C45	C	0.483062	-0.330353	-0.261717
C46	C	0.983062	0.169647	0.238283
C47	C	0.401081	-0.330368	-0.261723
C48	C	0.901081	0.169632	0.238277
C49	C	0.653938	-0.330325	-0.261710
C50	C	1.153938	0.169675	0.238290
C51	C	0.735926	-0.330309	-0.261706
C52	C	1.235926	0.169691	0.238294
C53	C	0.715638	-0.431567	-0.341580
C54	C	1.215638	0.068433	0.158420
C55	C	0.633656	-0.431582	-0.341585
C56	C	1.133656	0.068418	0.158415
C57	C	0.602810	-0.380958	-0.301649
C58	C	1.102810	0.119042	0.198351
C59	C	1.016682	-0.586371	-0.260337
C60	C	1.516682	-0.086371	0.239663
C61	C	0.999092	-0.674248	-0.242690
C62	C	1.499092	-0.174248	0.257310
C63	C	1.192104	-0.962941	-0.435950
C64	C	1.692104	-0.462941	0.064050
C65	C	1.175550	-1.045516	-0.419355
C66	C	1.675550	-0.545516	0.080645
C67	C	1.075190	-1.045636	-0.318842
C68	C	1.575190	-0.545636	0.181158
C69	C	1.091737	-0.963060	-0.335426
C70	C	1.591737	-0.463060	0.164574
C71	C	1.150194	-0.921719	-0.393982
C72	C	1.650194	-0.421719	0.106018
C73	C	1.049828	-0.921837	-0.293458
C74	C	1.549828	-0.421837	0.206542
C75	C	1.066371	-0.839268	-0.310043
C76	C	1.566371	-0.339268	0.189957
C77	C	1.124824	-0.797922	-0.368598
C78	C	1.624824	-0.297922	0.131402
C79	C	1.166738	-0.839150	-0.410567
C80	C	1.666738	-0.339150	0.089433
C81	C	0.991367	-0.963180	-0.234906
C82	C	1.491367	-0.463180	0.265094
C83	C	0.949457	-0.921957	-0.192938
C84	C	1.449457	-0.421957	0.307062
C85	C	0.966005	-0.839387	-0.209519
C86	C	1.466005	-0.339387	0.290481
C87	C	1.024458	-0.798040	-0.268073
C88	C	1.524458	-0.298040	0.231927
C89	C	0.924091	-0.798158	-0.167549
C90	C	1.424091	-0.298158	0.332451
C91	C	0.940634	-0.715589	-0.184135
C92	C	1.440634	-0.215589	0.315865
C93	C	1.041001	-0.715471	-0.284659
C94	C	1.541001	-0.215471	0.215341
C95	C	1.262704	-0.380987	-0.301663
C96	C	1.762704	0.119013	0.198337
C97	C	1.349951	-0.381001	-0.301670
C98	C	1.849951	0.118999	0.198330
C99	C	1.058025	-0.380896	-0.506403
C100	C	1.558025	0.119104	-0.006403
C101	C	1.058050	-0.380872	-0.593657
C102	C	1.558050	0.119128	-0.093657
C103	C	1.099433	-0.174736	-0.343135
C104	C	1.599433	0.325264	0.156865
C105	C	1.117104	-0.086859	-0.360815
C106	C	1.617104	0.413141	0.139185
C107	C	1.118425	-0.330308	-0.644827
C108	C	1.618425	0.169692	-0.144827
C109	C	1.118440	-0.330282	-0.726813
C110	C	1.618440	0.169718	-0.226813
C111	C	1.058082	-0.380823	-0.757627
C112	C	1.558082	0.119177	-0.257627
C113	C	0.997701	-0.431389	-0.706451
C114	C	1.497701	0.068611	-0.206451
C115	C	0.997684	-0.431411	-0.624467
C116	C	1.497684	0.068589	-0.124467
C117	C	0.997742	-0.431342	-0.877330
C118	C	1.497742	0.068658	-0.377330
C119	C	0.997760	-0.431321	-0.959319
C120	C	1.497760	0.068679	-0.459319
C121	C	1.118498	-0.330212	-0.979676
C122	C	1.618498	0.169788	-0.479676
C123	C	1.118481	-0.330234	-0.897693
C124	C	1.618481	0.169766	-0.397693
C125	C	1.058101	-0.380801	-0.846522
C126	C	1.558101	0.119199	-0.346522
C127	C	1.057964	-0.380956	-0.097698
C128	C	1.557964	0.119044	0.402302
C129	C	1.058135	-0.380758	-0.010489
C130	C	1.558135	0.119242	0.489511
H131	H	0.375967	-0.289146	-0.229208
H132	H	0.875967	0.210854	0.270792
Cl133	Cl	1.194371	-0.266748	-0.791131
Cl134	Cl	1.694371	0.233252	-0.291131
Cl135	Cl	0.316523	-0.495276	-0.391818
Cl136	Cl	0.816523	0.004724	0.108182
Cl137	Cl	1.001698	-1.097615	-0.245238
Cl138	Cl	1.501698	-0.597615	0.254762
H139	H	1.167633	-0.289083	-0.872606
H140	H	1.667633	0.210917	-0.372606
H141	H	1.088609	-0.681810	-0.332335
H142	H	1.588609	-0.181810	0.167665
H143	H	0.948514	-0.472577	-0.582806
H144	H	1.448514	0.027423	-0.082806
Cl145	Cl	0.547346	-0.266700	-0.211506
Cl146	Cl	1.047346	0.233300	0.288494
H147	H	0.948564	-0.472506	-0.835671
H148	H	1.448564	0.027494	-0.335671
Cl149	Cl	0.970687	-1.066982	-0.213938
Cl150	Cl	1.470687	-0.566982	0.286062
Cl151	Cl	0.875965	-0.973936	-0.119334
Cl152	Cl	1.375965	-0.473936	0.380666
H153	H	0.948610	-0.472475	-0.984405
H154	H	1.448610	0.027525	-0.484405
Cl155	Cl	0.501556	-0.495252	-0.391794
Cl156	Cl	1.001556	0.004748	0.108206
H157	H	0.876490	-0.831830	-0.119879
H158	H	1.376490	-0.331830	0.380121
Cl159	Cl	0.921820	-0.494925	-0.745188
Cl160	Cl	1.421820	0.005075	-0.245188
H161	H	0.592025	-0.472809	-0.374111
H162	H	1.092025	0.027191	0.125889
Cl163	Cl	1.194406	-0.266643	-1.044004
Cl164	Cl	1.694406	0.233357	-0.544004
H165	H	0.740758	-0.472784	-0.374100
H166	H	1.240758	0.027216	0.125900
H167	H	0.628827	-0.289100	-0.229192
H168	H	1.128827	0.210900	0.270808
Cl169	Cl	0.800208	-0.266660	-0.211488
Cl170	Cl	1.300208	0.233340	0.288512
H171	H	1.138293	-0.730689	-0.382100
H172	H	1.638293	-0.230689	0.117900
Cl173	Cl	1.265604	-0.910964	-0.509555
Cl174	Cl	1.765604	-0.410964	-0.009555
Cl175	Cl	1.240238	-0.787172	-0.484172
Cl176	Cl	1.740238	-0.287172	0.015828
Cl177	Cl	0.887951	-0.663763	-0.131371
Cl178	Cl	1.387951	-0.163763	0.368629
Cl179	Cl	1.194312	-0.266770	-0.606098
Cl180	Cl	1.694312	0.233230	-0.106098
Cl181	Cl	1.228249	-1.097336	-0.472118
Cl182	Cl	1.728249	-0.597336	0.027882
