data_functionalizedCrystal
_audit_creation_method	'MofGen! by Chris Wilmer'
_symmetry_space_group_name_H-M	'P1'
_symmetry_Int_Tables_number	1
_symmetry_cell_setting	triclinic
loop_
_symmetry_equiv_pos_as_xyz
  x,y,z
_cell_length_a	19.851628
_cell_length_b	14.446369
_cell_length_c	14.446369
_cell_angle_alpha	60.000250
_cell_angle_beta	90.005090
_cell_angle_gamma	59.999397
loop_
_atom_site_label
_atom_site_type_symbol
_atom_site_fract_x
_atom_site_fract_y
_atom_site_fract_z
Zr1	Zr	0.648984	1.013130	-0.121411
O2	O	0.541418	1.206259	-0.269240
O3	O	0.681958	0.820008	-0.076088
O4	O	0.681959	1.013117	-0.269207
O5	O	0.541417	1.013159	0.076208
O6	O	0.792821	1.013099	-0.269189
O7	O	0.541417	1.013150	-0.076120
O8	O	0.792818	0.667663	0.076266
O9	O	0.541419	1.358594	-0.269247
O10	O	0.778756	0.899426	-0.056752
O11	O	0.696021	0.899446	0.056916
O12	O	0.696023	1.126806	-0.170457
O13	O	0.613288	1.126826	-0.056790
Zr14	Zr	0.825795	1.013115	0.121565
Zr15	Zr	0.825796	1.013102	-0.121382
Zr16	Zr	0.648984	1.013144	0.121535
Zr17	Zr	0.648985	1.256088	-0.121423
Zr18	Zr	0.825794	0.770157	0.121576
O19	O	0.792822	1.206237	0.076241
O20	O	0.792822	1.206218	-0.269198
O21	O	0.541418	1.206278	0.076199
O22	O	0.933361	0.819987	0.269393
O23	O	0.933361	0.819968	-0.076046
O24	O	0.681957	0.820027	0.269351
O25	O	0.933362	1.013087	-0.076055
O26	O	0.792820	1.013129	0.269361
O27	O	0.681958	1.013146	0.269342
O28	O	0.933362	1.013095	0.076274
O29	O	0.681961	1.358572	-0.269223
O30	O	0.792818	0.667674	0.269376
O31	O	0.933360	0.667651	0.269400
O32	O	0.933360	0.667640	0.076290
O33	O	0.541419	1.358605	-0.076136
O34	O	0.681961	1.358582	-0.076113
O35	O	0.778756	0.899439	0.170611
O36	O	0.861491	0.899419	0.056943
O37	O	0.778758	1.126799	-0.056762
O38	O	0.696023	1.126819	0.056905
C39	C	0.737388	0.709219	0.000091
C40	C	0.737387	0.606077	0.000095
C41	C	0.685456	0.459080	0.072114
C42	C	0.685174	0.566700	0.071823
C43	C	0.699322	0.655073	-0.123446
C44	C	0.698931	0.547840	-0.123072
C45	C	0.827420	0.372608	0.050555
C46	C	0.827288	0.478759	0.053076
C47	C	0.516225	1.013158	0.000040
C48	C	0.441164	1.013171	0.000027
C49	C	0.214709	1.137119	-0.061932
C50	C	0.192347	1.075142	-0.106847
C51	C	0.303757	1.013137	0.000060
C52	C	0.192378	1.075121	0.044954
C53	C	0.171025	1.013113	0.000091
C54	C	0.282384	0.951159	-0.044918
C55	C	0.282412	0.951156	0.106942
C56	C	0.260104	0.889089	0.062054
C57	C	0.380219	1.013154	0.000039
C58	C	0.094568	1.013086	0.000109
C59	C	0.958554	1.013087	0.000114
C60	C	1.033615	1.013075	0.000126
C61	C	0.737390	1.013106	-0.303813
C62	C	0.737390	1.013100	-0.406950
C63	C	0.737392	1.317026	0.000063
C64	C	0.737392	1.420168	0.000058
C65	C	0.789830	0.869707	-0.481917
C66	C	0.789603	0.869610	-0.374589
C67	C	0.647493	1.084343	-0.481528
C68	C	0.647780	1.083432	-0.588387
C69	C	0.774121	1.086365	-0.589939
C70	C	0.775940	1.083662	-0.481267
C71	C	0.737389	1.013139	0.303966
C72	C	0.737389	1.013145	0.407103
C73	C	0.958552	0.709184	0.000128
C74	C	1.033613	0.606030	0.000145
C75	C	0.737387	0.709236	0.303980
C76	C	0.737387	0.606100	0.407122
C77	C	0.958552	0.709200	0.304017
C78	C	1.033612	0.606052	0.407171
C79	C	0.516227	1.317045	-0.303864
C80	C	0.441167	1.420194	-0.407018
C81	C	0.516227	1.317062	0.000026
C82	C	0.441166	1.420216	0.000009
C83	C	0.737392	1.317009	-0.303827
C84	C	0.737393	1.420146	-0.406969
C85	C	1.025675	0.557591	-0.059205
C86	C	1.096196	0.460680	-0.059211
C87	C	1.174653	0.412203	0.000139
C88	C	1.182589	0.460651	0.059491
C89	C	1.112069	0.557567	0.059490
C90	C	1.112056	0.557602	0.396281
C91	C	1.182590	0.460697	0.493196
C92	C	1.174679	0.412236	0.601001
C93	C	1.096227	0.460696	0.611890
C94	C	1.025695	0.557606	0.514975
C95	C	0.362723	1.468655	-0.396127
C96	C	0.292189	1.565591	-0.493043
C97	C	0.300101	1.614056	-0.600848
C98	C	0.378552	1.565591	-0.611736
C99	C	0.449085	1.468663	-0.514822
C100	C	0.449104	1.468665	0.059348
C101	C	0.378583	1.565602	0.059328
C102	C	0.300126	1.614083	-0.000026
C103	C	0.292190	1.565630	-0.059373
C104	C	0.362710	1.468701	-0.059359
C105	C	0.684953	0.459794	0.482102
C106	C	0.685175	0.566714	0.374769
C107	C	0.827285	0.479232	0.481696
C108	C	0.827003	0.371857	0.588560
C109	C	0.700663	0.546851	0.590117
C110	C	0.698839	0.655321	0.481440
H111	H	0.632683	0.588547	-0.163496
H112	H	0.856409	0.281099	0.588295
H113	H	0.869244	0.500251	0.006054
N114	N	0.140944	1.144533	-0.226558
H115	H	0.123177	1.238189	-0.273340
H116	H	0.090571	1.143167	-0.225499
N117	N	1.087696	0.408419	0.728165
H118	H	1.115036	0.425278	0.771021
H119	H	1.115030	0.311150	0.770921
N120	N	0.207579	1.617837	-0.481292
H121	H	0.176386	1.715118	-0.518842
H122	H	0.213341	1.572319	-0.398271
H123	H	1.232117	0.333325	0.679906
H124	H	0.738679	0.522058	0.668339
H125	H	0.735333	0.683849	-0.179455
N126	N	0.333632	0.881793	-0.095334
H127	H	0.384336	0.882264	-0.095066
H128	H	0.299913	0.928296	-0.175805
N129	N	0.190288	1.275968	-0.131470
H130	H	0.212713	1.291318	-0.081796
H131	H	0.128150	1.338877	-0.163594
N132	N	0.387079	1.617869	-0.728015
H133	H	0.330490	1.686619	-0.787747
H134	H	0.418255	1.543857	-0.736992
N135	N	1.250706	0.307672	0.000130
H136	H	1.250727	0.227267	0.033899
H137	H	1.301577	0.284412	0.046714
N138	N	0.941089	0.609852	0.526730
H139	H	0.946788	0.564437	0.609732
H140	H	0.909949	0.592975	0.489116
N141	N	1.120641	0.609800	0.123510
H142	H	1.093313	0.707082	0.069084
H143	H	1.181063	0.564280	0.161097
H144	H	0.242662	1.692980	-0.679752
H145	H	0.512981	1.429199	0.107689
N146	N	0.597217	0.684366	0.025423
H147	H	0.584425	0.702374	0.084625
H148	H	0.558529	0.666371	0.005064
H149	H	0.868054	0.501474	0.508933
H150	H	1.089718	0.421245	-0.107542
H151	H	1.118513	0.597044	0.308509
H152	H	1.246478	0.421167	0.107811
N153	N	0.387149	1.617868	0.123324
H154	H	0.359807	1.601038	0.183033
H155	H	0.359833	1.715131	0.068798
H156	H	0.606581	1.188671	-0.666978
H157	H	0.856898	0.440667	0.430096
H158	H	0.764127	0.813366	-0.320804
N159	N	0.354179	1.416388	-0.279860
H160	H	0.293777	1.461812	-0.287684
H161	H	0.381565	1.433243	-0.237059
N162	N	0.140995	1.144544	0.095253
H163	H	0.090580	1.143287	0.095576
H164	H	0.123295	1.238161	0.048318
N165	N	0.877304	0.795522	-0.302698
H166	H	0.909488	0.702425	-0.279585
H167	H	0.877298	0.795364	-0.232708
N168	N	0.614303	0.599285	0.595562
H169	H	0.598116	0.541458	0.600006
H170	H	0.574635	0.691259	0.525368
H171	H	0.512955	1.429207	-0.523703
N172	N	0.863666	1.014855	-0.413126
H173	H	0.869103	1.077995	-0.407679
H174	H	0.902241	0.982164	-0.451632
N175	N	0.224069	1.718628	-0.000036
H176	H	0.241010	1.741953	0.046568
H177	H	0.190153	1.684837	0.033709
N178	N	0.744165	0.697892	0.515241
H179	H	0.718037	0.728988	0.562857
H180	H	0.740941	0.771570	0.444892
H181	H	1.246462	0.421251	0.484310
H182	H	0.228301	1.605118	-0.107697
N183	N	0.333833	0.881828	0.226617
H184	H	0.300457	0.928768	0.260458
H185	H	0.384768	0.881648	0.225640
N186	N	0.354143	1.416450	-0.123364
H187	H	0.293738	1.461875	-0.160960
H188	H	0.381514	1.319166	-0.068869
H189	H	0.618976	0.656073	0.320486
H190	H	0.618584	0.497044	0.479755
N191	N	0.718386	0.341028	0.480723
H192	H	0.767355	0.261685	0.551673
H193	H	0.736081	0.355773	0.411915
H194	H	0.710655	0.529241	0.320989
H195	H	0.734316	0.525863	-0.179676
N196	N	0.877746	0.795112	-0.478790
H197	H	0.884437	0.853568	-0.549283
H198	H	0.891243	0.715913	-0.475360
H199	H	0.868201	0.341898	0.667148
H200	H	0.632610	0.745823	0.430005
H201	H	0.710707	0.529991	0.162794
H202	H	0.710854	0.370213	0.163311
H203	H	0.633707	0.747389	-0.164146
N204	N	0.598018	0.506426	0.026150
H205	H	0.572036	0.585353	-0.055261
H206	H	0.565139	0.531150	0.072986
H207	H	0.278709	0.784171	0.114479
H208	H	0.859223	0.278861	0.140127
H209	H	0.866298	0.346624	-0.001677
N210	N	0.864986	0.426346	0.173607
H211	H	0.824007	0.484815	0.193821
H212	H	0.916373	0.424341	0.180929
H213	H	0.618374	1.032818	-0.588120
N214	N	0.756397	0.795513	-0.480556
H215	H	0.697150	0.841224	-0.483061
H216	H	0.790483	0.703486	-0.408989
H217	H	0.606724	1.189847	-0.508770
N218	N	0.941060	0.609863	-0.123224
H219	H	0.909875	0.592994	-0.068803
H220	H	0.946818	0.564436	-0.160815
N221	N	0.608257	1.018827	-0.413190
H222	H	0.648563	0.943014	-0.333939
H223	H	0.592939	0.985592	-0.450578
H224	H	0.741716	1.188344	-0.506793
N225	N	0.860487	1.025551	-0.595364
H226	H	0.882874	1.074015	-0.593349
H227	H	0.859275	1.031196	-0.667974
N228	N	0.723771	1.226334	-0.693550
H229	H	0.677397	1.242296	-0.742195
H230	H	0.760253	1.242803	-0.738456
