data_functionalizedCrystal
_audit_creation_method	'MofGen! by Chris Wilmer'
_symmetry_space_group_name_H-M	'P1'
_symmetry_Int_Tables_number	1
_symmetry_cell_setting	triclinic
loop_
_symmetry_equiv_pos_as_xyz
  x,y,z
_cell_length_a	11.169417
_cell_length_b	12.759399
_cell_length_c	11.169409
_cell_angle_alpha	89.966788
_cell_angle_beta	89.980176
_cell_angle_gamma	90.016642
loop_
_atom_site_label
_atom_site_type_symbol
_atom_site_fract_x
_atom_site_fract_y
_atom_site_fract_z
Zn1	Zn	1.834917	-0.418157	-0.678535
Zn2	Zn	1.834787	-0.593882	-0.477849
Zn3	Zn	1.634203	-0.418221	-0.477870
Zn4	Zn	1.634191	-0.593797	-0.678494
O5	O	1.734525	-0.506014	-0.578187
O6	O	2.002850	-0.441476	-0.651923
O7	O	1.808130	-0.570643	-0.309902
O8	O	1.660887	-0.271191	-0.504514
O9	O	2.002754	-0.570581	-0.504479
O10	O	1.808351	-0.271144	-0.651943
O11	O	1.660761	-0.441585	-0.309917
O12	O	1.466252	-0.441502	-0.504474
O13	O	1.660868	-0.570435	-0.846449
O14	O	1.466243	-0.570497	-0.651872
O15	O	1.808340	-0.441393	-0.846480
O16	O	1.808119	-0.740892	-0.504439
O17	O	1.660742	-0.740829	-0.651852
C18	C	1.422700	-0.505998	-0.578172
C19	C	1.289300	-0.506017	-0.578194
C20	C	1.734448	-0.778981	-0.578165
C21	C	1.734524	-0.895758	-0.578196
C22	C	1.657930	-1.060463	-0.501421
C23	C	1.657848	-0.950739	-0.501393
C24	C	1.811280	-0.950507	-0.655040
C25	C	1.811355	-1.060229	-0.655072
C26	C	1.516223	-0.800931	-0.458347
C27	C	1.439482	-0.746186	-0.381493
C28	C	1.421139	-0.781897	-0.264380
C29	C	1.479555	-0.872351	-0.224098
C30	C	1.556305	-0.927090	-0.300945
C31	C	1.574625	-0.891381	-0.418074
C32	C	1.952981	-1.210039	-0.698107
C33	C	2.029738	-1.264780	-0.774949
C34	C	2.048093	-1.229071	-0.892064
C35	C	1.989698	-1.138614	-0.932342
C36	C	1.912941	-1.083872	-0.855500
C37	C	1.894584	-1.119589	-0.738386
C38	C	2.047567	-0.506031	-0.578203
C39	C	2.180967	-0.506038	-0.578210
C40	C	1.734617	-0.505897	-0.891230
C41	C	1.734656	-0.505848	-1.024630
C42	C	1.734635	-0.231981	-0.578235
C43	C	1.734682	-0.115204	-0.578256
C44	C	1.734502	-0.506054	-0.266362
C45	C	1.734695	-0.505808	-0.132963
H46	H	1.603869	-1.000735	-0.268147
H47	H	1.938027	-1.239132	-0.602747
O48	O	1.346416	-0.728790	-0.189837
C49	C	1.145995	-0.665877	-0.155154
C50	C	1.230487	-0.726066	-0.239659
H51	H	1.052254	-0.663636	-0.195415
H52	H	1.142812	-0.706930	-0.064524
H53	H	1.180400	-0.582433	-0.142996
H54	H	1.196145	-0.809514	-0.251917
H55	H	1.233662	-0.684931	-0.330239
O56	O	2.007641	-1.104071	-1.046150
C57	C	2.108258	-1.132411	-1.234234
C58	C	2.087997	-1.171670	-1.105393
H59	H	2.173245	-1.187034	-1.282161
H60	H	2.019285	-1.131196	-1.284200
H61	H	2.147308	-1.049883	-1.231693
H62	H	2.048986	-1.254210	-1.107824
H63	H	2.177000	-1.172807	-1.055479
O64	O	1.461571	-0.906917	-0.110307
C65	C	1.361149	-0.878460	0.077858
C66	C	1.381391	-0.839209	-0.050989
H67	H	1.296343	-0.823725	0.125862
H68	H	1.321988	-0.960954	0.075469
H69	H	1.450212	-0.879726	0.127658
H70	H	1.292375	-0.837877	-0.100864
H71	H	1.420606	-0.756739	-0.048513
O72	O	1.382865	-0.658219	-0.420501
C73	C	1.352199	-0.472897	-0.392672
C74	C	1.416412	-0.572433	-0.348400
H75	H	1.379278	-0.403518	-0.334383
H76	H	1.378492	-0.456692	-0.489564
H77	H	1.251209	-0.484815	-0.386798
H78	H	1.517413	-0.560591	-0.354194
H79	H	1.390021	-0.588608	-0.251529
O80	O	2.086610	-1.352639	-0.735996
C81	C	2.222567	-1.492908	-0.784638
C82	C	2.158255	-1.393416	-0.828896
H83	H	2.280487	-1.525918	-0.859732
H84	H	2.281482	-1.472648	-0.704596
H85	H	2.153264	-1.553859	-0.756835
H86	H	2.227474	-1.332420	-0.856764
H87	H	2.099318	-1.413757	-0.908893
O88	O	1.583272	-1.113820	-0.426941
C89	C	1.379172	-1.147539	-0.368478
C90	C	1.463590	-1.087072	-0.452917
H91	H	1.282393	-1.125919	-0.389433
H92	H	1.392303	-1.235377	-0.381699
H93	H	1.400341	-1.126031	-0.271722
H94	H	1.442474	-1.108492	-0.549706
H95	H	1.450444	-0.999248	-0.439593
O96	O	1.885725	-0.896939	-0.729534
C97	C	1.953566	-0.727804	-0.797623
C98	C	1.869210	-0.788335	-0.713180
H99	H	1.940225	-0.639987	-0.784449
H100	H	2.050393	-0.749242	-0.776634
H101	H	1.932470	-0.749384	-0.894375
H102	H	1.890198	-0.766788	-0.616400
H103	H	1.772409	-0.766892	-0.734274
O104	O	1.856256	-0.996052	-0.894835
C105	C	1.824675	-0.876655	-1.059038
C106	C	1.888926	-0.976135	-1.014655
H107	H	1.851083	-0.860509	-1.155909
H108	H	1.723667	-0.888497	-1.053243
H109	H	1.851773	-0.807264	-1.000777
H110	H	1.861926	-1.045574	-1.072881
H111	H	1.989920	-0.964204	-1.020424
H112	H	1.531137	-0.771854	-0.553714
H113	H	2.110606	-1.273646	-0.954624
