data_functionalizedCrystal
_audit_creation_method	'MofGen! by Chris Wilmer'
_symmetry_space_group_name_H-M	'P1'
_symmetry_Int_Tables_number	1
_symmetry_cell_setting	triclinic
loop_
_symmetry_equiv_pos_as_xyz
  x,y,z
_cell_length_a	10.654550
_cell_length_b	17.699083
_cell_length_c	9.130313
_cell_angle_alpha	90.003887
_cell_angle_beta	90.000488
_cell_angle_gamma	83.883973
loop_
_atom_site_label
_atom_site_type_symbol
_atom_site_fract_x
_atom_site_fract_y
_atom_site_fract_z
O1	O	1.665979	0.106301	0.121693
O2	O	1.300324	0.116429	0.121721
O3	O	1.493482	0.001241	0.121693
O4	O	1.472821	0.221488	0.121721
O5	O	1.493468	0.001241	-0.121906
O6	O	1.300309	0.116429	-0.121878
O7	O	1.665965	0.106301	-0.121906
Cu8	Cu	1.483136	0.111365	-0.144134
Cu9	Cu	1.483153	0.111365	0.143949
O10	O	1.472806	0.221488	-0.121878
C11	C	1.253531	0.115685	-0.000076
C12	C	1.114127	0.113460	-0.000066
C13	C	1.492735	-0.026960	-0.000106
C14	C	1.490514	-0.110993	-0.000107
C15	C	1.033454	0.181281	-0.000061
C16	C	0.902470	0.179186	-0.000087
C17	C	0.932844	0.041444	-0.000115
C18	C	1.063826	0.043539	-0.000100
C19	C	1.603894	-0.158893	-0.000117
C20	C	1.601799	-0.237849	-0.000104
C21	C	1.486323	-0.268904	-0.000091
C22	C	1.372935	-0.220998	-0.000076
C23	C	1.375030	-0.142043	-0.000079
C24	C	1.364481	-0.539415	-0.000064
C25	C	1.362394	-0.618376	-0.000065
C26	C	1.591249	-0.635221	-0.000089
C27	C	1.593345	-0.556266	-0.000092
C28	C	1.479957	-0.508367	-0.000069
C29	C	1.482229	-0.422753	-0.000080
C30	C	1.484050	-0.354516	-0.000090
C31	C	1.712757	0.107045	-0.000106
C32	C	1.852161	0.109269	-0.000107
C33	C	1.473554	0.249690	-0.000075
C34	C	1.475775	0.333722	-0.000065
N35	N	1.483133	0.111364	-0.346757
C36	C	1.559153	0.157696	-0.423404
C37	C	1.559173	0.157691	-0.576740
C38	C	1.407142	0.065023	-0.576771
C39	C	1.407130	0.065024	-0.423437
N40	N	1.483166	0.111359	0.346572
H41	H	0.836791	0.234412	-0.000087
H42	H	1.621040	0.195429	-0.360975
H43	H	1.278912	-0.246289	-0.000056
N44	N	1.252743	-0.090375	-0.000059
H45	H	1.179271	-0.122028	-0.000052
H46	H	1.248618	-0.057250	-0.090361
N47	N	1.641198	0.207644	-0.659411
H48	H	1.689350	0.236992	-0.587563
H49	H	1.586362	0.244339	-0.723055
N50	N	0.878590	-0.033968	-0.000160
H51	H	0.783372	-0.025006	-0.000168
H52	H	0.908110	-0.063681	0.090138
N53	N	1.087701	0.256695	-0.000027
H54	H	1.058274	0.286439	-0.090328
H55	H	1.182910	0.247673	0.000043
H56	H	1.129514	-0.011692	-0.000108
N57	N	1.728444	-0.125400	-0.000145
H58	H	1.799950	-0.167729	-0.000148
H59	H	1.734306	-0.093004	0.090157
N60	N	1.325128	0.015048	-0.340767
H61	H	1.263557	0.047654	-0.277147
H62	H	1.380006	-0.021682	-0.277236
H63	H	1.683575	-0.674231	-0.000100
N64	N	1.237840	-0.651874	-0.000060
H65	H	1.166325	-0.609549	-0.000045
H66	H	1.231997	-0.684267	0.090242
N67	N	1.325172	0.015048	-0.659487
H68	H	1.263608	0.047655	-0.723106
H69	H	1.277095	-0.014298	-0.587573
N70	N	1.724086	-0.289515	-0.000129
H71	H	1.774494	-0.279452	0.090159
H72	H	1.774359	-0.279435	-0.090505
N73	N	1.717892	-0.522771	-0.000118
H74	H	1.789403	-0.565097	-0.000120
H75	H	1.723751	-0.490375	0.090186
N76	N	1.242187	-0.487760	-0.000043
H77	H	1.237944	-0.454624	-0.090339
H78	H	1.238039	-0.454676	0.090326
