data_functionalizedCrystal
_audit_creation_method	'MofGen! by Chris Wilmer'
_symmetry_space_group_name_H-M	'P1'
_symmetry_Int_Tables_number	1
_symmetry_cell_setting	triclinic
loop_
_symmetry_equiv_pos_as_xyz
  x,y,z
_cell_length_a	18.215407
_cell_length_b	16.120531
_cell_length_c	18.215399
_cell_angle_alpha	87.136265
_cell_angle_beta	89.985640
_cell_angle_gamma	87.070360
loop_
_atom_site_label
_atom_site_type_symbol
_atom_site_fract_x
_atom_site_fract_y
_atom_site_fract_z
Zn1	Zn	1.110153	0.331952	-0.430896
Zn2	Zn	1.103811	0.471379	-0.314058
Zn3	Zn	0.987091	0.331978	-0.307850
Zn4	Zn	0.980797	0.471319	-0.437086
O5	O	1.045463	0.401657	-0.372473
O6	O	1.212296	0.350461	-0.415405
O7	O	1.088308	0.452923	-0.210252
O8	O	1.008704	0.215309	-0.318984
O9	O	1.207636	0.452898	-0.329565
O10	O	1.099117	0.215290	-0.409385
O11	O	1.002554	0.350505	-0.205691
O12	O	0.883273	0.350448	-0.324986
O13	O	0.997977	0.452796	-0.539248
O14	O	0.878649	0.452821	-0.419935
O15	O	1.093014	0.350404	-0.534700
O16	O	1.082205	0.588036	-0.335567
O17	O	0.991827	0.587992	-0.425955
C18	C	0.854258	0.401631	-0.372459
C19	C	0.772459	0.401640	-0.372471
C20	C	1.035665	0.618264	-0.382122
C21	C	1.031540	0.710930	-0.386275
C22	C	0.586685	0.348412	-0.417247
C23	C	0.509826	0.348419	-0.417250
C24	C	0.504992	0.454926	-0.327712
C25	C	0.581850	0.454914	-0.327706
C26	C	0.622695	0.401658	-0.372478
C27	C	0.468978	0.401677	-0.372487
C28	C	0.385644	0.401685	-0.372489
C29	C	0.706034	0.401648	-0.372474
C30	C	1.024015	0.880591	-0.393872
C31	C	1.066939	0.921882	-0.351032
C32	C	1.062752	1.016288	-0.355259
C33	C	1.028201	0.786177	-0.389646
C34	C	1.237415	0.401683	-0.372487
C35	C	1.319213	0.401694	-0.372493
C36	C	1.045501	0.401590	-0.564423
C37	C	1.045517	0.401562	-0.646220
C38	C	1.055294	1.184204	-0.362788
C39	C	1.059416	1.091538	-0.358627
C40	C	1.000906	0.348197	-0.832039
C41	C	1.000920	0.348180	-0.908897
C42	C	1.090220	0.454827	-0.913636
C43	C	1.090202	0.454847	-0.836779
C44	C	1.045547	0.401528	-0.795982
C45	C	1.045578	0.401491	-0.949697
C46	C	1.045593	0.401473	-1.033030
C47	C	1.045530	0.401547	-0.712644
C48	C	1.045471	0.401663	-0.181267
C49	C	1.045608	0.401457	-0.099459
H50	H	0.619939	0.305045	-0.453701
C51	C	0.470219	0.289846	-0.466502
N52	N	0.440388	0.245726	-0.503602
H53	H	0.964569	0.304754	-0.938250
C54	C	0.970115	0.928615	-0.447697
N55	N	0.929516	0.964797	-0.488235
C56	C	0.460056	0.513509	-0.278471
N57	N	0.426211	0.557638	-0.241383
C58	C	1.139327	0.513503	-0.797114
N59	N	1.176329	0.557676	-0.767239
H60	H	0.964545	0.304781	-0.798824
H61	H	1.106833	0.886332	-0.311181
H62	H	0.611169	0.498274	-0.291245
C63	C	1.139169	0.513658	-0.958527
N64	N	1.175977	0.558036	-0.992341
