data_functionalizedCrystal
_audit_creation_method	'MofGen! by Chris Wilmer'
_symmetry_space_group_name_H-M	'P1'
_symmetry_Int_Tables_number	1
_symmetry_cell_setting	triclinic
loop_
_symmetry_equiv_pos_as_xyz
  x,y,z
_cell_length_a	11.169417
_cell_length_b	11.169416
_cell_length_c	11.169406
_cell_angle_alpha	89.954551
_cell_angle_beta	89.967219
_cell_angle_gamma	90.002460
loop_
_atom_site_label
_atom_site_type_symbol
_atom_site_fract_x
_atom_site_fract_y
_atom_site_fract_z
Zn1	Zn	-1.835145	0.477578	0.678625
Zn2	Zn	-1.335145	0.977578	1.178625
Zn3	Zn	-1.835017	0.678374	0.477952
Zn4	Zn	-1.335017	1.178374	0.977952
Zn5	Zn	-1.634392	0.477698	0.477953
Zn6	Zn	-1.134392	0.977698	0.977953
Zn7	Zn	-1.634460	0.678212	0.678590
Zn8	Zn	-1.134460	1.178212	1.178590
O9	O	-1.734753	0.577965	0.578280
O10	O	-1.234753	1.077965	1.078280
O11	O	-2.003078	0.504232	0.652019
O12	O	-1.503078	1.004232	1.152019
O13	O	-1.808321	0.651872	0.310002
O14	O	-1.308321	1.151872	0.810002
O15	O	-1.661048	0.309732	0.504588
O16	O	-1.161048	0.809732	1.004588
O17	O	-2.002984	0.651756	0.504586
O18	O	-1.502984	1.151756	1.004586
O19	O	-1.808540	0.309644	0.652020
O20	O	-1.308540	0.809644	1.152020
O21	O	-1.660923	0.504436	0.310003
O22	O	-1.160923	1.004436	0.810003
O23	O	-1.466451	0.504278	0.504554
O24	O	-0.966451	1.004278	1.004554
O25	O	-1.661163	0.651479	0.846545
O26	O	-1.161163	1.151479	1.346545
O27	O	-1.466501	0.651595	0.651961
O28	O	-0.966501	1.151595	1.151961
O29	O	-1.808606	0.504074	0.846570
O30	O	-1.308606	1.004074	1.346570
O31	O	-1.808387	0.846303	0.504552
O32	O	-1.308387	1.346303	1.004552
O33	O	-1.661039	0.846183	0.651960
O34	O	-1.161039	1.346183	1.151960
C35	C	-1.422929	0.577933	0.578255
C36	C	-0.922929	1.077933	1.078255
C37	C	-1.289529	0.577948	0.578272
C38	C	-0.789529	1.077948	1.078272
C39	C	-1.734801	0.264923	0.578308
C40	C	-1.234801	0.764923	1.078308
C41	C	-1.734821	0.131523	0.578320
C42	C	-1.234821	0.631523	1.078320
C43	C	-1.047796	0.577987	0.578298
C44	C	-0.547796	1.077987	1.078298
C45	C	-1.181196	0.577967	0.578285
C46	C	-0.681196	1.077967	1.078285
C47	C	-1.734739	0.889790	0.578278
C48	C	-1.234739	1.389790	1.078278
C49	C	-1.734843	1.023190	0.578318
C50	C	-1.234843	1.523190	1.078318
C51	C	-1.734670	0.578098	0.266455
C52	C	-1.234670	1.078098	0.766455
C53	C	-1.734837	0.577854	0.133056
C54	C	-1.234837	1.077854	0.633056
C55	C	-1.734906	0.577745	0.891323
C56	C	-1.234906	1.077745	1.391323
C57	C	-1.734972	0.577651	1.024723
C58	C	-1.234972	1.077651	1.524723
