data_functionalizedCrystal
_audit_creation_method	'MofGen! by Chris Wilmer'
_symmetry_space_group_name_H-M	'P1'
_symmetry_Int_Tables_number	1
_symmetry_cell_setting	triclinic
loop_
_symmetry_equiv_pos_as_xyz
  x,y,z
_cell_length_a	6.817900
_cell_length_b	14.858565
_cell_length_c	16.305550
_cell_angle_alpha	95.065908
_cell_angle_beta	103.455250
_cell_angle_gamma	104.523916
loop_
_atom_site_label
_atom_site_type_symbol
_atom_site_fract_x
_atom_site_fract_y
_atom_site_fract_z
V1	V	-4.031556	-0.129456	-0.263268
V2	V	-3.698223	0.203878	0.070065
V3	V	-3.364889	0.537211	0.403399
O4	O	-4.013619	0.005413	-0.258014
O5	O	-3.680286	0.338747	0.075319
O6	O	-3.346952	0.672080	0.408652
O7	O	-3.988195	-0.255912	-0.261700
O8	O	-3.654861	0.077422	0.071633
O9	O	-3.321528	0.410755	0.404966
O10	O	-3.982895	-0.127819	-0.377982
O11	O	-3.649562	0.205515	-0.044649
O12	O	-3.316228	0.538848	0.288685
O13	O	-4.018955	-0.123567	-0.140928
O14	O	-3.685622	0.209767	0.192406
O15	O	-3.352289	0.543100	0.525739
V16	V	-4.514565	-0.113282	-0.248607
V17	V	-4.181232	0.220052	0.084726
V18	V	-3.847898	0.553385	0.418060
O19	O	-4.293942	-0.164934	-0.295429
O20	O	-3.960609	0.168399	0.037905
O21	O	-3.627276	0.501733	0.371238
O22	O	-4.702376	-0.077803	-0.216446
O23	O	-4.369043	0.255530	0.116887
O24	O	-4.035710	0.588863	0.450220
O25	O	-4.334720	0.013174	-0.250175
O26	O	-4.001387	0.346508	0.083159
O27	O	-3.668053	0.679841	0.416492
O28	O	-4.649899	-0.248151	-0.253860
O29	O	-4.316566	0.085183	0.079473
O30	O	-3.983232	0.418516	0.412806
O31	O	-4.644563	-0.119171	-0.370947
O32	O	-4.311229	0.214163	-0.037614
O33	O	-3.977896	0.547496	0.295719
O34	O	-4.340020	-0.114919	-0.133893
O35	O	-4.006686	0.218415	0.199441
O36	O	-3.673353	0.551748	0.532774
C37	C	-3.834429	-0.286728	-0.257607
C38	C	-3.501096	0.046605	0.075726
C39	C	-3.167763	0.379939	0.409060
C40	C	-3.880261	-0.390110	-0.257090
C41	C	-3.546928	-0.056777	0.076243
C42	C	-3.213595	0.276557	0.409577
C43	C	-4.048011	-0.768675	-0.255208
C44	C	-3.714678	-0.435342	0.078125
C45	C	-3.381344	-0.102009	0.411459
C46	C	-4.001329	-0.663347	-0.255731
C47	C	-3.667996	-0.330013	0.077602
C48	C	-3.334663	0.003320	0.410936
C49	C	-3.964137	-0.579396	-0.256148
C50	C	-3.630804	-0.246063	0.077185
C51	C	-3.297470	0.087271	0.410519
C52	C	-3.917454	-0.474061	-0.256673
C53	C	-3.584120	-0.140727	0.076660
C54	C	-3.250787	0.192606	0.409994
C55	C	-3.827668	-0.123331	-0.405935
C56	C	-3.494335	0.210002	-0.072602
C57	C	-3.161002	0.543335	0.260732
C58	C	-3.869199	-0.122830	-0.499716
C59	C	-3.535866	0.210504	-0.166383
C60	C	-3.202533	0.543837	0.166951
C61	C	-4.020207	-0.120886	-0.840458
C62	C	-3.686873	0.212447	-0.507125
C63	C	-3.353540	0.545781	-0.173791
C64	C	-3.783922	-0.115115	-0.799519
C65	C	-3.450589	0.218218	-0.466185
C66	C	-3.117255	0.551551	-0.132852
C67	C	-3.740766	-0.116022	-0.702026
C68	C	-3.407432	0.217311	-0.368692
C69	C	-3.074099	0.550645	-0.035359
C70	C	-3.945289	-0.121850	-0.671412
C71	C	-3.611955	0.211484	-0.338078
C72	C	-3.278622	0.544817	-0.004745
C73	C	-4.116090	-0.213696	-0.722206
C74	C	-3.782756	0.119637	-0.388873
C75	C	-3.449423	0.452971	-0.055540
C76	C	-4.157932	-0.213177	-0.819755
C77	C	-3.824598	0.120157	-0.486421
C78	C	-3.491265	0.453490	-0.153088
C79	C	-4.071461	-0.035544	-0.794459
C80	C	-3.738128	0.297789	-0.461125
C81	C	-3.404794	0.631122	-0.127792
C82	C	-4.023502	-0.034817	-0.696615
C83	C	-3.690168	0.298516	-0.363281
C84	C	-3.356835	0.631849	-0.029948
C85	C	-3.902961	-0.122398	-0.575875
C86	C	-3.569628	0.210936	-0.242541
C87	C	-3.236295	0.544269	0.090792
C88	C	-4.062543	-0.120344	-0.935996
C89	C	-3.729210	0.212989	-0.602663
C90	C	-3.395877	0.546322	-0.269329
C91	C	-4.151827	0.043986	-0.254265
C92	C	-3.818494	0.377319	0.079068
C93	C	-3.485161	0.710653	0.412401
C94	C	-4.085234	0.147367	-0.254788
C95	C	-3.751900	0.480700	0.078545
C96	C	-3.418567	0.814034	0.411879
C97	C	-4.158588	-0.119409	-0.105935
C98	C	-3.825255	0.213924	0.227398
C99	C	-3.491922	0.547258	0.560731
C100	C	-4.096296	-0.119906	-0.012154
C101	C	-3.762962	0.213427	0.321180
C102	C	-3.429629	0.546761	0.654513
H103	H	-3.611559	-0.049985	-0.666881
H104	H	-3.278226	0.283348	-0.333548
H105	H	-2.944893	0.616682	-0.000215
H106	H	-3.676884	-0.178044	-0.685845
H107	H	-3.343550	0.155289	-0.352512
H108	H	-3.010217	0.488623	-0.019179
F109	F	-3.641637	-0.028319	-0.815407
F110	F	-3.308303	0.305014	-0.482074
F111	F	-2.974970	0.638347	-0.148740
F112	F	-3.728268	-0.195259	-0.840849
F113	F	-3.394934	0.138074	-0.507516
F114	F	-3.061601	0.471408	-0.174183
H115	H	-4.124437	-0.277783	-0.850254
H116	H	-3.791104	0.055551	-0.516921
H117	H	-3.457770	0.388884	-0.183588
H118	H	-4.170743	-0.033674	-0.675265
H119	H	-3.837409	0.299659	-0.341931
H120	H	-3.504076	0.632992	-0.008598
F121	F	-4.385570	-0.223688	-0.856362
F122	F	-4.052237	0.109645	-0.523028
F123	F	-3.718903	0.442979	-0.189695
F124	F	-4.296541	-0.039998	-0.829519
F125	F	-3.963208	0.293335	-0.496186
F126	F	-3.629874	0.626668	-0.162852
F127	F	-4.316688	-0.223614	-0.697508
F128	F	-3.983355	0.109720	-0.364175
F129	F	-3.650022	0.443053	-0.030842
H130	H	-4.063307	-0.278319	-0.705512
H131	H	-3.729973	0.055014	-0.372178
H132	H	-3.396640	0.388347	-0.038845
F133	F	-3.948268	0.055417	-0.811767
F134	F	-3.614935	0.388751	-0.478433
F135	F	-3.281602	0.722084	-0.145100
H136	H	-3.899668	0.033118	-0.662112
H137	H	-3.566335	0.366451	-0.328779
H138	H	-3.233002	0.699784	0.004555
