data_functionalizedCrystal
_audit_creation_method	'MofGen! by Chris Wilmer'
_symmetry_space_group_name_H-M	'P1'
_symmetry_Int_Tables_number	1
_symmetry_cell_setting	triclinic
loop_
_symmetry_equiv_pos_as_xyz
  x,y,z
_cell_length_a	9.065218
_cell_length_b	9.198806
_cell_length_c	9.065218
_cell_angle_alpha	89.998069
_cell_angle_beta	94.984115
_cell_angle_gamma	90.003776
loop_
_atom_site_label
_atom_site_type_symbol
_atom_site_fract_x
_atom_site_fract_y
_atom_site_fract_z
O1	O	1.960400	0.120891	-0.216354
O2	O	1.531115	0.120893	-0.234101
O3	O	1.754631	0.120888	-0.010585
O4	O	1.736884	0.120896	-0.439870
O5	O	1.754614	-0.120898	-0.010583
O6	O	1.531099	-0.120892	-0.234099
O7	O	1.960383	-0.120894	-0.216352
Cu8	Cu	1.745739	-0.142970	-0.225225
Cu9	Cu	1.745759	0.142969	-0.225228
O10	O	1.736868	-0.120889	-0.439868
C11	C	1.476120	0.000000	-0.232394
C12	C	1.312277	0.000001	-0.227294
N13	N	1.745736	-0.344084	-0.225223
C14	C	1.651909	-0.416314	-0.319484
C15	C	1.651928	-0.583727	-0.319482
C16	C	2.015378	0.000001	-0.218059
C17	C	2.179221	0.000010	-0.223158
N18	N	1.745774	0.344083	-0.225218
C19	C	1.738582	0.000005	-0.494855
C20	C	1.743681	0.000008	-0.658698
C21	C	1.752917	-0.000003	0.044403
C22	C	1.747817	0.000003	0.208245
H23	H	1.571569	-0.354217	-0.400192
H24	H	1.826102	-0.593812	-0.144508
H25	H	1.826086	-0.406184	-0.144527
C26	C	1.397873	-0.630915	-0.403204
C27	C	1.543476	-0.667571	-0.428426
H28	H	1.330919	-0.682688	-0.470458
H29	H	1.383643	-0.529424	-0.417508
H30	H	1.380307	-0.655798	-0.304543
H31	H	1.561046	-0.642679	-0.527084
H32	H	1.557712	-0.769085	-0.414134
