data_functionalizedCrystal
_audit_creation_method	'MofGen! by Chris Wilmer'
_symmetry_space_group_name_H-M	'P1'
_symmetry_Int_Tables_number	1
_symmetry_cell_setting	triclinic
loop_
_symmetry_equiv_pos_as_xyz
  x,y,z
_cell_length_a	14.044220
_cell_length_b	10.654550
_cell_length_c	9.130313
_cell_angle_alpha	90.001310
_cell_angle_beta	90.001543
_cell_angle_gamma	88.836890
loop_
_atom_site_label
_atom_site_type_symbol
_atom_site_fract_x
_atom_site_fract_y
_atom_site_fract_z
O1	O	-1.259697	-0.302977	0.121637
O2	O	-0.983656	-0.292044	0.121674
O3	O	-1.128023	-0.115409	0.121649
O4	O	-1.115330	-0.479612	0.121662
O5	O	-1.128013	-0.115420	-0.121950
O6	O	-0.983646	-0.292054	-0.121925
O7	O	-1.259687	-0.302988	-0.121962
Cu8	Cu	-1.121666	-0.297522	-0.144186
Cu9	Cu	-1.121677	-0.297510	0.143898
O10	O	-1.115320	-0.479623	-0.121937
C11	C	-0.948305	-0.287263	-0.000121
C12	C	-0.842986	-0.272988	-0.000106
C13	C	-1.127086	-0.068523	-0.000149
C14	C	-1.124298	0.071201	-0.000143
C15	C	-1.295038	-0.307769	-0.000164
C16	C	-1.400358	-0.322044	-0.000169
C17	C	-0.650153	-0.246889	-0.000136
C18	C	-0.593185	-0.348137	-0.000139
C19	C	-0.485886	-0.333615	-0.000156
C20	C	-0.757461	-0.261409	-0.000120
C21	C	-1.116257	-0.526509	-0.000136
C22	C	-1.119045	-0.666233	-0.000132
N23	N	-1.121664	-0.297531	-0.346809
C24	C	-1.209299	0.142144	-0.000159
C25	C	-1.206673	0.273429	-0.000148
C26	C	-1.034038	0.262814	-0.000112
C27	C	-1.036664	0.131532	-0.000112
C28	C	-1.296932	0.081813	-0.000190
C29	C	-1.381941	0.152758	-0.000207
C30	C	-1.379315	0.284043	-0.000197
C31	C	-1.291681	0.344383	-0.000169
C32	C	-1.179693	-0.380237	-0.423480
C33	C	-1.179706	-0.380215	-0.576817
C34	C	-1.063656	-0.214777	-0.576797
C35	C	-1.063648	-0.214794	-0.423463
C36	C	-1.237709	-0.462974	-0.346825
C37	C	-1.295741	-0.545688	-0.423497
C38	C	-1.295755	-0.545666	-0.576834
C39	C	-1.237737	-0.462930	-0.653499
N40	N	-1.121686	-0.297492	0.346520
H41	H	-0.624998	-0.445725	-0.000129
N42	N	-0.610237	-0.124481	-0.000151
N43	N	-0.521864	-0.112713	-0.000163
H44	H	-0.493662	-0.026263	-0.000169
N45	N	-1.355014	-0.630196	-0.345216
N46	N	-1.406829	-0.704026	-0.413696
H47	H	-1.448697	-0.763708	-0.358414
N48	N	-1.299633	-0.052288	-0.000214
N49	N	-1.377878	-0.106144	-0.000248
H50	H	-1.379786	-0.200854	-0.000269
H51	H	-1.289550	0.451284	-0.000144
H52	H	-1.343015	-0.613007	-0.639256
H53	H	-1.453289	0.103620	-0.000194
H54	H	-1.448532	0.341802	-0.000196
H55	H	-1.237762	-0.462908	-0.778356
N56	N	-0.944536	0.324466	-0.000081
N57	N	-0.942204	0.441682	-0.000080
H58	H	-0.878992	0.485225	-0.000061
H59	H	-1.237702	-0.463004	-0.221971
H60	H	-0.967449	0.073767	-0.000101
N61	N	-1.004402	-0.130278	-0.655127
N62	N	-1.004418	-0.130275	-0.792031
H63	H	-0.962568	-0.070598	-0.847353
N64	N	-1.004399	-0.130268	-0.345158
N65	N	-0.952616	-0.056388	-0.413613
H66	H	-0.910782	0.003327	-0.358310
