data_functionalizedCrystal
_audit_creation_method	'MofGen! by Chris Wilmer'
_symmetry_space_group_name_H-M	'P1'
_symmetry_Int_Tables_number	1
_symmetry_cell_setting	triclinic
loop_
_symmetry_equiv_pos_as_xyz
  x,y,z
_cell_length_a	17.077404
_cell_length_b	17.639999
_cell_length_c	17.077396
_cell_angle_alpha	101.226563
_cell_angle_beta	89.981638
_cell_angle_gamma	101.196076
loop_
_atom_site_label
_atom_site_type_symbol
_atom_site_fract_x
_atom_site_fract_y
_atom_site_fract_z
Zn1	Zn	1.263267	0.314709	-0.380706
Zn2	Zn	1.763267	0.814709	0.119294
Zn3	Zn	1.289725	0.446890	-0.222931
Zn4	Zn	1.789725	0.946890	0.277069
Zn5	Zn	1.132004	0.314731	-0.249452
Zn6	Zn	1.632004	0.814731	0.250548
Zn7	Zn	1.158507	0.446838	-0.354168
Zn8	Zn	1.658507	0.946838	0.145832
O9	O	1.210876	0.380792	-0.301814
O10	O	1.710876	0.880792	0.198186
O11	O	1.376626	0.332255	-0.359784
O12	O	1.876626	0.832255	0.140216
O13	O	1.268783	0.429390	-0.116596
O14	O	1.768783	0.929390	0.383404
O15	O	1.127252	0.204123	-0.289068
O16	O	1.627252	0.704123	0.210932
O17	O	1.396064	0.429368	-0.243868
O18	O	1.896064	0.929368	0.256132
O19	O	1.223691	0.204106	-0.385499
O20	O	1.723691	0.704106	0.114501
O21	O	1.152906	0.332294	-0.136080
O22	O	1.652906	0.832294	0.363920
O23	O	1.025670	0.332243	-0.263335
O24	O	1.525670	0.832243	0.236665
O25	O	1.172423	0.429280	-0.467541
O26	O	1.672423	0.929280	0.032459
O27	O	1.045142	0.429302	-0.340270
O28	O	1.545142	0.929302	0.159730
O29	O	1.249390	0.332205	-0.487039
O30	O	1.749390	0.832205	0.012961
O31	O	1.294482	0.557489	-0.218135
O32	O	1.794482	1.057489	0.281865
O33	O	1.198077	0.557451	-0.314554
O34	O	1.698077	1.057451	0.185446
C35	C	1.006923	0.380770	-0.301801
C36	C	1.506923	0.880770	0.198199
C37	C	0.919675	0.380779	-0.301810
C38	C	1.419675	0.880779	0.198190
C39	C	0.868583	0.330302	-0.362226
C40	C	1.368583	0.830302	0.137774
C41	C	0.786603	0.330307	-0.362229
C42	C	1.286603	0.830307	0.137771
C43	C	0.755719	0.380794	-0.301818
C44	C	1.255719	0.880794	0.198182
C45	C	0.806818	0.431273	-0.241396
C46	C	1.306818	0.931273	0.258604
C47	C	0.888795	0.431263	-0.241391
C48	C	1.388795	0.931263	0.258609
C49	C	0.635951	0.431291	-0.241412
C50	C	1.135951	0.931291	0.258588
C51	C	0.553969	0.431302	-0.241417
C52	C	1.053969	0.931302	0.258583
C53	C	0.533760	0.330335	-0.362250
C54	C	1.033760	0.830335	0.137750
C55	C	0.615737	0.330325	-0.362245
C56	C	1.115737	0.830325	0.137755
C57	C	0.666830	0.380806	-0.301823
C58	C	1.166830	0.880806	0.198177
C59	C	1.252048	0.586148	-0.260604
C60	C	1.752048	1.086148	0.239396
C61	C	1.269733	0.674001	-0.243001
C62	C	1.769733	1.174001	0.256999
C63	C	1.076720	0.962973	-0.435814
C64	C	1.576720	1.462973	0.064186
C65	C	1.093340	1.045524	-0.419248
C66	C	1.593340	1.545524	0.080752
C67	C	1.193789	1.045498	-0.318948
C68	C	1.693789	1.545498	0.181052
C69	C	1.177180	0.962946	-0.335509
C70	C	1.677180	1.462946	0.164491
C71	C	1.118645	0.921690	-0.393942
C72	C	1.618645	1.421690	0.106058
C73	C	1.219105	0.921663	-0.293637
C74	C	1.719105	1.421663	0.206363
C75	C	1.202494	0.839118	-0.310193
C76	C	1.702494	1.339118	0.189807
C77	C	1.143959	0.797856	-0.368622
C78	C	1.643959	1.297856	0.131378
C79	C	1.102034	0.839145	-0.410498
C80	C	1.602034	1.339145	0.089502
C81	C	1.277636	0.962921	-0.235200
C82	C	1.777636	1.462921	0.264800
C83	C	1.319560	0.921637	-0.193328
C84	C	1.819560	1.421637	0.306672
C85	C	1.302954	0.839091	-0.209888
C86	C	1.802954	1.339091	0.290112
C87	C	1.244420	0.797829	-0.268316
C88	C	1.744420	1.297829	0.231684
C89	C	1.344880	0.797802	-0.168011
C90	C	1.844880	1.297802	0.331989
C91	C	1.328269	0.715257	-0.184568
C92	C	1.828269	1.215257	0.315432
C93	C	1.227809	0.715284	-0.284873
C94	C	1.727809	1.215284	0.215127
C95	C	1.415624	0.380815	-0.301828
C96	C	1.915624	0.880815	0.198172
C97	C	1.502876	0.380825	-0.301833
C98	C	2.002876	0.880825	0.198167
C99	C	1.169539	1.174634	-0.343199
C100	C	1.669539	1.674634	0.156801
C101	C	1.151861	1.086782	-0.360825
C102	C	1.651861	1.586782	0.139175
C103	C	1.210911	0.380734	-0.506570
C104	C	1.710911	0.880734	-0.006570
C105	C	1.210927	0.380709	-0.593825
C106	C	1.710927	0.880709	-0.093825
C107	C	1.251004	0.330158	-0.644969
C108	C	1.751004	0.830158	-0.144969
C109	C	1.251009	0.330132	-0.726955
C110	C	1.751009	0.830132	-0.226955
C111	C	1.210939	0.380661	-0.757794
C112	C	1.710939	0.880661	-0.257794
C113	C	1.170856	0.431214	-0.706643
C114	C	1.670856	0.931214	-0.206643
C115	C	1.170848	0.431236	-0.624660
C116	C	1.670848	0.931236	-0.124660
C117	C	1.170878	0.431167	-0.877523
C118	C	1.670878	0.931167	-0.377523
C119	C	1.170888	0.431146	-0.959512
C120	C	1.670888	0.931146	-0.459512
C121	C	1.251039	0.330063	-0.979818
C122	C	1.751039	0.830063	-0.479818
C123	C	1.251031	0.330084	-0.897835
C124	C	1.751031	0.830084	-0.397835
C125	C	1.210949	0.380639	-0.846690
C126	C	1.710949	0.880639	-0.346690
C127	C	1.210874	0.380793	-0.097866
C128	C	1.710874	0.880793	0.402134
C129	C	1.210966	0.380595	-0.010656
C130	C	1.710966	0.880595	0.489344
H131	H	0.781665	0.472376	-0.192205
H132	H	1.281665	0.972376	0.307795
H133	H	0.930394	0.472366	-0.192193
H134	H	1.430394	0.972366	0.307807
C135	C	0.649707	0.274786	-0.428699
C136	C	1.149707	0.774786	0.071301
N137	N	0.675293	0.232950	-0.478751
N138	N	1.175293	0.732950	0.021249
C139	C	1.295129	0.274451	-1.036080
C140	C	1.795129	0.774451	-0.536080
N141	N	1.328339	0.232569	-1.078459
N142	N	1.828339	0.732569	-0.578459
C143	C	1.126789	0.486783	-0.821264
C144	C	1.626789	0.986783	-0.321264
N145	N	1.093587	0.528675	-0.778889
N146	N	1.593587	1.028675	-0.278889
C147	C	0.692153	0.486825	-0.174946
C148	C	1.192153	0.986825	0.325054
N149	N	0.734485	0.528655	-0.124888
N150	N	1.234485	1.028655	0.375112
H151	H	0.492155	0.289231	-0.411446
H152	H	0.992155	0.789231	0.088554
C153	C	0.519998	0.486838	-0.174961
C154	C	1.019998	0.986838	0.325039
N155	N	0.494411	0.528669	-0.124905
N156	N	0.994411	1.028669	0.375095
C157	C	1.037631	0.793759	-0.474768
C158	C	1.537631	1.293759	0.025232
N159	N	0.989119	0.759574	-0.523167
N160	N	1.489119	1.259574	-0.023167
C161	C	1.163406	0.669898	-0.349142
C162	C	1.663406	1.169898	0.150858
N163	N	1.114894	0.635713	-0.397541
N164	N	1.614894	1.135713	0.102459
H165	H	1.291160	1.030134	-0.221724
H166	H	1.791160	1.530134	0.278276
C167	C	1.258173	1.090889	-0.254671
C168	C	1.758173	1.590889	0.245329
N169	N	1.306669	1.125077	-0.206256
N170	N	1.806669	1.625077	0.293744
C171	C	1.012317	0.917587	-0.500083
C172	C	1.512317	1.417587	-0.000083
N173	N	0.963805	0.883402	-0.548482
N174	N	1.463805	1.383402	-0.048482
H175	H	1.130431	0.730643	-0.382095
H176	H	1.630431	1.230643	0.117905
H177	H	1.138203	0.472392	-0.583020
H178	H	1.638203	0.972392	-0.083020
C179	C	1.409259	0.843195	-0.103729
C180	C	1.909259	1.343195	0.396271
N181	N	1.457749	0.877384	-0.055309
N182	N	1.957749	1.377384	0.444691
H183	H	1.283637	0.289014	-0.619867
H184	H	1.783637	0.789014	-0.119867
H185	H	0.893722	0.289192	-0.411422
H186	H	1.393722	0.789192	0.088578
C187	C	1.047219	1.090933	-0.465320
C188	C	1.547219	1.590933	0.034680
N189	N	1.012481	1.125135	-0.500021
N190	N	1.512481	1.625135	-0.000021
H191	H	1.367218	0.955239	-0.145749
H192	H	1.867218	1.455239	0.354251
H193	H	1.138228	0.472353	-0.731759
H194	H	1.638228	0.972353	-0.231759
C195	C	1.374395	0.669842	-0.138512
C196	C	1.874395	1.169842	0.361488
N197	N	1.409138	0.635636	-0.103823
N198	N	1.909138	1.135636	0.396177
C199	C	1.295099	0.274523	-0.783211
C200	C	1.795099	0.774523	-0.283211
N201	N	1.328310	0.232636	-0.825583
N202	N	1.828310	0.732636	-0.325583
H203	H	1.283664	0.288943	-0.872728
H204	H	1.783664	0.788943	-0.372728
H205	H	1.138258	0.472290	-0.984618
H206	H	1.638258	0.972290	-0.484618
H207	H	0.745006	0.289206	-0.411427
H208	H	1.245006	0.789206	0.088573
