data_functionalizedCrystal
_audit_creation_method	'MofGen! by Chris Wilmer'
_symmetry_space_group_name_H-M	'P1'
_symmetry_Int_Tables_number	1
_symmetry_cell_setting	triclinic
loop_
_symmetry_equiv_pos_as_xyz
  x,y,z
_cell_length_a	12.594517
_cell_length_b	12.594516
_cell_length_c	19.805407
_cell_angle_alpha	90.007334
_cell_angle_beta	89.992240
_cell_angle_gamma	90.011939
loop_
_atom_site_label
_atom_site_type_symbol
_atom_site_fract_x
_atom_site_fract_y
_atom_site_fract_z
Zn1	Zn	1.627065	-0.424025	0.382562
Zn2	Zn	1.627015	-0.601977	0.269387
Zn3	Zn	1.449128	-0.424000	0.269407
Zn4	Zn	1.449051	-0.601949	0.382555
O5	O	1.538065	-0.512988	0.325978
O6	O	1.776004	-0.447653	0.367544
O7	O	1.603430	-0.578369	0.174673
O8	O	1.472785	-0.275057	0.284429
O9	O	1.775968	-0.578393	0.284395
O10	O	1.603514	-0.275076	0.367563
O11	O	1.472737	-0.447610	0.174688
O12	O	1.300172	-0.447583	0.284422
O13	O	1.472653	-0.578346	0.477272
O14	O	1.300115	-0.578322	0.367551
O15	O	1.603439	-0.447626	0.477278
O16	O	1.603355	-0.750919	0.284388
O17	O	1.472605	-0.750899	0.367531
C18	C	1.261524	-0.512947	0.325988
C19	C	1.143219	-0.512956	0.326009
C20	C	1.073965	-0.584204	0.371135
C21	C	1.003148	-0.487167	0.387780
C22	C	1.003237	-0.610073	0.309349
C23	C	1.073959	-0.415867	0.342686
C24	C	1.074055	-0.538839	0.264226
C25	C	1.003269	-0.441735	0.280847
C26	C	1.537995	-0.789529	0.325971
C27	C	1.538063	-0.907834	0.325991
C28	C	1.466941	-0.977115	0.371181
C29	C	1.441040	-1.047946	0.309422
C30	C	1.564060	-1.047802	0.387761
C31	C	1.512111	-0.977107	0.264199
C32	C	1.635176	-0.976956	0.342579
C33	C	1.609312	-1.047756	0.280778
C34	C	1.815686	-0.513029	0.325968
C35	C	1.933991	-0.513046	0.325964
C36	C	1.538043	-0.512986	0.502521
C37	C	1.538034	-0.512985	0.577753
C38	C	1.538164	-0.235367	0.325999
C39	C	1.538206	-0.117061	0.326008
C40	C	1.606121	-0.581086	1.039533
C41	C	1.606112	-0.581086	0.968845
C42	C	1.538064	-0.513007	0.933514
C43	C	1.470014	-0.444929	0.968876
C44	C	1.470018	-0.444935	1.039563
C45	C	1.469992	-0.444907	0.683802
C46	C	1.469995	-0.444905	0.613110
C47	C	1.606086	-0.581059	0.613084
C48	C	1.606091	-0.581064	0.683772
C49	C	1.538037	-0.512991	0.719127
C50	C	1.538046	-0.512993	0.795775
C51	C	1.538059	-0.512999	0.856867
C52	C	1.538076	-0.513013	1.150122
C53	C	1.538078	-0.513011	1.074890
H54	H	0.972423	-0.381452	0.242666
N55	N	1.679514	-0.654512	1.077643
H56	H	1.755569	-0.637995	1.065334
H57	H	1.662862	-0.730529	1.065321
N58	N	1.593114	-1.088946	0.456941
H59	H	1.539283	-1.063251	0.491030
H60	H	1.665909	-1.062007	0.469758
H61	H	1.490085	-0.946183	0.211954
H62	H	1.104896	-0.333750	0.356817
N63	N	1.387147	-0.936010	0.421732
H64	H	1.350513	-0.997836	0.444369
H65	H	1.332737	-0.890811	0.397726
H66	H	1.414579	-0.389463	0.584346
N67	N	1.689063	-1.088586	0.230111
H68	H	1.651594	-1.133798	0.195375
H69	H	1.744382	-1.132634	0.254142
N70	N	1.679475	-0.654499	0.721881
H71	H	1.728818	-0.611256	0.751209
H72	H	1.722507	-0.697615	0.688715
H73	H	1.414577	-0.389479	0.712580
N74	N	1.396612	-0.371504	0.930773
H75	H	1.406935	-0.381826	0.880627
H76	H	1.413205	-0.295491	0.943137
N77	N	1.743851	-0.935620	0.361179
H78	H	1.763372	-0.961288	0.407865
H79	H	1.743077	-0.855440	0.360557
N80	N	1.115358	-0.567836	0.195067
H81	H	1.159484	-0.507413	0.176703
H82	H	1.053568	-0.581752	0.163794
N83	N	0.962086	-0.718810	0.290701
H84	H	0.987805	-0.772533	0.324838
H85	H	0.989000	-0.738780	0.244371
N86	N	0.961878	-0.458206	0.456957
H87	H	1.023631	-0.445702	0.488503
H88	H	0.916599	-0.518100	0.474877
N89	N	1.679497	-0.654511	0.930708
H90	H	1.722611	-0.697637	0.963814
H91	H	1.728763	-0.611188	0.901376
N92	N	1.332339	-1.089242	0.290831
H93	H	1.278609	-1.063551	0.324984
H94	H	1.333464	-1.169423	0.290531
N95	N	1.679488	-0.654485	0.574951
H96	H	1.669058	-0.644259	0.524810
H97	H	1.662996	-0.730494	0.587370
N98	N	1.396622	-0.371520	1.077702
H99	H	1.413170	-0.295468	1.065414
H100	H	1.406985	-0.381955	1.127830
N101	N	1.115086	-0.663871	0.421742
H102	H	1.089289	-0.644210	0.468383
H103	H	1.195269	-0.663722	0.421040
