data_functionalizedCrystal
_audit_creation_method	'MofGen! by Chris Wilmer'
_symmetry_space_group_name_H-M	'P1'
_symmetry_Int_Tables_number	1
_symmetry_cell_setting	triclinic
loop_
_symmetry_equiv_pos_as_xyz
  x,y,z
_cell_length_a	11.026607
_cell_length_b	11.026607
_cell_length_c	8.140239
_cell_angle_alpha	89.998310
_cell_angle_beta	89.997756
_cell_angle_gamma	108.586017
loop_
_atom_site_label
_atom_site_type_symbol
_atom_site_fract_x
_atom_site_fract_y
_atom_site_fract_z
O1	O	1.726730	0.533621	-0.136609
O2	O	2.060063	0.866954	0.196724
O3	O	2.393397	1.200288	0.530057
O4	O	1.360150	0.472857	-0.136612
O5	O	1.693483	0.806191	0.196721
O6	O	2.026817	1.139524	0.530055
O7	O	1.513058	0.319949	-0.136605
O8	O	1.846391	0.653283	0.196728
O9	O	2.179725	0.986616	0.530062
O10	O	1.573822	0.686529	-0.136616
O11	O	1.907155	1.019863	0.196717
O12	O	2.240488	1.353196	0.530050
O13	O	1.513047	0.319945	0.136622
O14	O	1.846380	0.653278	0.469955
O15	O	2.179714	0.986611	0.803289
O16	O	1.360139	0.472853	0.136615
O17	O	1.693472	0.806186	0.469948
O18	O	2.026805	1.139520	0.803282
O19	O	1.726719	0.533616	0.136618
O20	O	2.060052	0.866950	0.469951
O21	O	2.393385	1.200283	0.803284
Zn22	Zn	1.543427	0.503234	0.179997
Zn23	Zn	1.876760	0.836567	0.513330
Zn24	Zn	2.210094	1.169901	0.846664
Zn25	Zn	1.543442	0.503240	-0.179991
Zn26	Zn	1.876775	0.836573	0.153342
Zn27	Zn	2.210108	1.169907	0.486675
O28	O	1.573810	0.686525	0.136611
O29	O	1.907144	1.019858	0.469944
O30	O	2.240477	1.353191	0.803277
C31	C	1.312485	0.461645	0.000001
C32	C	1.645818	0.794979	0.333334
C33	C	1.979151	1.128312	0.666668
C34	C	1.170471	0.428228	0.000000
C35	C	1.503804	0.761562	0.333333
C36	C	1.837137	1.094895	0.666667
C37	C	1.501843	0.272287	0.000007
C38	C	1.835176	0.605621	0.333340
C39	C	2.168509	0.938954	0.666673
C40	C	1.468426	0.130273	0.000000
C41	C	1.801759	0.463607	0.333334
C42	C	2.135092	0.796940	0.666667
C43	C	1.116821	0.520498	-0.000004
C44	C	1.450155	0.853831	0.333329
C45	C	1.783488	1.187165	0.666663
C46	C	0.970043	0.485962	-0.000005
C47	C	1.303376	0.819296	0.333328
C48	C	1.636709	1.152629	0.666662
C49	C	1.560695	0.076624	-0.000001
C50	C	1.894029	0.409957	0.333332
C51	C	2.227362	0.743291	0.666665
C52	C	1.526160	-0.070155	-0.000008
C53	C	1.859493	0.263179	0.333326
C54	C	2.192826	0.596512	0.666659
C55	C	1.774384	0.544828	0.000001
C56	C	2.107717	0.878162	0.333334
C57	C	2.441051	1.211495	0.666668
C58	C	1.916398	0.578245	-0.000009
C59	C	2.249731	0.911579	0.333324
C60	C	2.583064	1.244912	0.666658
C61	C	1.585026	0.734187	-0.000005
C62	C	1.918359	1.067520	0.333329
C63	C	2.251693	1.400853	0.666662
C64	C	1.618443	0.876200	-0.000009
C65	C	1.951776	1.209534	0.333324
C66	C	2.285109	1.542867	0.666657
N67	N	1.543426	0.503231	0.425680
N68	N	1.876759	0.836564	0.759013
N69	N	2.210093	1.169898	1.092346
N70	N	1.543451	0.503235	-0.425674
N71	N	1.876784	0.836568	-0.092341
N72	N	2.210117	1.169902	0.240993
H73	H	0.907314	0.381393	-0.000044
H74	H	1.240647	0.714726	0.333290
H75	H	1.573980	1.048059	0.666623
N76	N	0.999472	0.716763	0.000003
N77	N	1.332806	1.050097	0.333336
N78	N	1.666139	1.383430	0.666670
H79	H	1.092550	0.721804	0.000006
H80	H	1.425884	1.055137	0.333340
H81	H	1.759217	1.388471	0.666673
H82	H	0.980663	0.760569	-0.101287
H83	H	1.313997	1.093902	0.232046
H84	H	1.647330	1.427235	0.565379
H85	H	1.107738	0.323666	-0.000039
H86	H	1.441071	0.656999	0.333295
H87	H	1.774404	0.990332	0.666628
N88	N	1.699206	0.159705	0.000019
N89	N	2.032539	0.493039	0.333353
N90	N	2.365872	0.826372	0.666686
H91	H	1.704243	0.252783	0.000032
H92	H	2.037576	0.586116	0.333365
H93	H	2.370910	0.919449	0.666698
H94	H	1.742986	0.140876	0.101318
H95	H	2.076319	0.474209	0.434651
H96	H	2.409652	0.807543	0.767985
H97	H	1.421590	-0.132884	-0.000019
H98	H	1.754923	0.200450	0.333314
H99	H	2.088257	0.533783	0.666648
N100	N	1.199899	0.659009	-0.000019
N101	N	1.533232	0.992343	0.333314
N102	N	1.866566	1.325676	0.666648
H103	H	1.181188	0.702893	0.101263
H104	H	1.514521	1.036226	0.434596
H105	H	1.847855	1.369559	0.767930
H106	H	1.292944	0.663941	-0.000081
H107	H	1.626278	0.997275	0.333252
H108	H	1.959611	1.330608	0.666585
H109	H	1.723013	-0.061072	-0.000132
H110	H	2.056346	0.272261	0.333201
H111	H	2.389680	0.605595	0.666535
H112	H	1.363863	0.067540	-0.000011
H113	H	1.697196	0.400874	0.333322
H114	H	2.030530	0.734207	0.666656
