data_functionalizedCrystal
_audit_creation_method	'MofGen! by Chris Wilmer'
_symmetry_space_group_name_H-M	'P1'
_symmetry_Int_Tables_number	1
_symmetry_cell_setting	triclinic
loop_
_symmetry_equiv_pos_as_xyz
  x,y,z
_cell_length_a	17.019383
_cell_length_b	11.026607
_cell_length_c	9.482900
_cell_angle_alpha	78.599815
_cell_angle_beta	76.912931
_cell_angle_gamma	84.035808
loop_
_atom_site_label
_atom_site_type_symbol
_atom_site_fract_x
_atom_site_fract_y
_atom_site_fract_z
O1	O	1.089031	-0.114215	-0.257095
O2	O	0.859890	-0.138413	-0.228439
O3	O	0.955469	0.049934	-0.240387
O4	O	0.993452	-0.302561	-0.245148
O5	O	0.936077	0.011525	0.003830
O6	O	0.840498	-0.176821	0.015777
O7	O	1.069638	-0.152624	-0.012879
Cu8	Cu	0.953297	-0.168230	0.023748
Cu9	Cu	0.976231	-0.122807	-0.265066
O10	O	0.974059	-0.340970	-0.000931
C11	C	0.820403	-0.157453	-0.102606
C12	C	0.731634	-0.156950	-0.091504
C13	C	0.700493	-0.135782	-0.219400
C14	C	0.617084	-0.135333	-0.208948
C15	C	0.564817	-0.156043	-0.070598
C16	C	0.595963	-0.177216	0.057307
C17	C	0.679371	-0.177674	0.046854
C18	C	0.312450	-0.155715	-0.032375
C19	C	0.229037	-0.155252	-0.021931
C20	C	0.250164	-0.113371	-0.288188
C21	C	0.333572	-0.113823	-0.298629
C22	C	0.364711	-0.135003	-0.170723
C23	C	0.479559	-0.155580	-0.059911
C24	C	0.449968	-0.135474	-0.181412
C25	C	0.938766	0.075791	-0.117404
C26	C	0.917878	0.210061	-0.114797
C27	C	1.109126	-0.133583	-0.138716
C28	C	1.197896	-0.134084	-0.149827
C29	C	0.990763	-0.366827	-0.123917
C30	C	1.011651	-0.501095	-0.126534
N31	N	0.937173	-0.200177	0.226884
C32	C	0.975554	0.285096	-0.122012
C33	C	0.953967	0.423871	-0.119318
N34	N	0.992361	-0.090850	-0.468203
C35	C	0.971469	-0.132223	0.294796
C36	C	0.958060	-0.158813	0.463890
H37	H	0.591733	-0.118095	-0.313095
F38	F	0.712513	-0.200209	0.182979
F39	F	1.060987	0.234783	-0.132705
H40	H	1.031649	-0.012978	0.464762
H41	H	0.888604	0.462366	-0.111153
H42	H	1.077024	0.460431	-0.134818
F43	F	0.832448	0.260377	-0.104127
H44	H	0.897880	-0.278035	0.293926
H45	H	1.010754	-0.054356	0.227757
H46	H	0.743044	-0.118914	-0.332060
F47	F	0.217015	-0.090820	-0.424304
F48	F	0.389193	-0.091775	-0.445880
H49	H	0.918765	-0.236677	0.530926
F50	F	0.505596	-0.113438	-0.328649
F51	F	0.173410	-0.177276	0.125327
H52	H	0.436994	-0.172439	0.052734
F53	F	0.345580	-0.178256	0.103755
F54	F	0.540335	-0.199267	0.204551
