data_functionalizedCrystal
_audit_creation_method	'MofGen! by Chris Wilmer'
_symmetry_space_group_name_H-M	'P1'
_symmetry_Int_Tables_number	1
_symmetry_cell_setting	triclinic
loop_
_symmetry_equiv_pos_as_xyz
  x,y,z
_cell_length_a	16.120297
_cell_length_b	16.625548
_cell_length_c	16.625546
_cell_angle_alpha	90.022327
_cell_angle_beta	87.129618
_cell_angle_gamma	87.123486
loop_
_atom_site_label
_atom_site_type_symbol
_atom_site_fract_x
_atom_site_fract_y
_atom_site_fract_z
Zn1	Zn	-0.471412	-1.209555	0.344143
Zn2	Zn	-0.331998	-1.216298	0.472143
Zn3	Zn	-0.332012	-1.081555	0.337329
Zn4	Zn	-0.471359	-1.074690	0.478935
O5	O	-0.401695	-1.145525	0.408137
O6	O	-0.452935	-1.323281	0.361133
O7	O	-0.215337	-1.204118	0.448565
O8	O	-0.350532	-1.098586	0.225402
O9	O	-0.350508	-1.328235	0.455173
O10	O	-0.452949	-1.192627	0.230408
O11	O	-0.215348	-1.105124	0.349518
O12	O	-0.350480	-0.967813	0.356103
O13	O	-0.588028	-1.086886	0.466749
O14	O	-0.452857	-0.962769	0.460141
O15	O	-0.588068	-1.185971	0.367718
O16	O	-0.350456	-1.197462	0.585875
O17	O	-0.452843	-1.093423	0.590865
C18	C	-0.401665	-0.936035	0.408120
C19	C	-0.401672	-0.846414	0.408133
C20	C	-0.401697	-0.518237	0.408133
C21	C	-0.401688	-0.609546	0.408130
C22	C	-0.401684	-0.682323	0.408133
C23	C	-0.401676	-0.773637	0.408130
C24	C	-0.619143	-1.134910	0.418751
C25	C	-0.711806	-1.130387	0.423274
C26	C	-0.881463	-1.122099	0.431514
C27	C	-0.922779	-1.169109	0.384519
C28	C	-1.017182	-1.164498	0.389104
C29	C	-0.787052	-1.126710	0.426930
C30	C	-0.185093	-1.156144	0.397507
C31	C	-0.092431	-1.160824	0.392757
C32	C	-0.401660	-1.145450	0.617627
C33	C	-0.401673	-1.145491	0.707248
C34	C	-0.401718	-0.355832	0.408150
C35	C	-0.401707	-0.445454	0.408141
C36	C	-0.401748	-1.145621	0.197831
C37	C	-0.401771	-1.145662	0.108211
C38	C	-0.401760	-1.145627	1.035428
C39	C	-0.401738	-1.145586	0.944119
C40	C	-0.401716	-1.145558	0.871341
C41	C	-0.401695	-1.145519	0.780026
H42	H	-0.887252	-1.212818	0.340842
O43	O	-0.923968	-1.070030	0.483602
C44	C	-1.010126	-1.076957	0.476630
H45	H	-1.021931	-1.138628	0.450782
H46	H	-1.034832	-1.027965	0.434868
C47	C	-1.040424	-0.991653	0.592089
C48	C	-1.054923	-1.067400	0.560349
H49	H	-1.068058	-0.985754	0.643730
H50	H	-0.982377	-0.986982	0.596786
H51	H	-1.061012	-0.950835	0.557280
H52	H	-1.034325	-1.108217	0.595153
H53	H	-1.112967	-1.072077	0.555661
