data_functionalizedCrystal
_audit_creation_method	'MofGen! by Chris Wilmer'
_symmetry_space_group_name_H-M	'P1'
_symmetry_Int_Tables_number	1
_symmetry_cell_setting	triclinic
loop_
_symmetry_equiv_pos_as_xyz
  x,y,z
_cell_length_a	16.109318
_cell_length_b	12.811415
_cell_length_c	14.586319
_cell_angle_alpha	84.565349
_cell_angle_beta	90.000075
_cell_angle_gamma	83.757608
loop_
_atom_site_label
_atom_site_type_symbol
_atom_site_fract_x
_atom_site_fract_y
_atom_site_fract_z
O1	O	1.103618	0.134999	-0.087386
O2	O	1.436951	0.468332	0.245947
O3	O	1.770285	0.801666	0.579280
O4	O	0.861620	0.151769	-0.088799
O5	O	1.194953	0.485103	0.244534
O6	O	1.528286	0.818436	0.577868
O7	O	0.988707	-0.009410	-0.075385
O8	O	1.322040	0.323923	0.257949
O9	O	1.655373	0.657257	0.591282
O10	O	0.976531	0.296178	-0.100801
O11	O	1.309864	0.629512	0.232533
O12	O	1.643197	0.962845	0.565866
O13	O	0.988698	-0.009412	0.077096
O14	O	1.322031	0.323921	0.410430
O15	O	1.655365	0.657254	0.743763
O16	O	0.861611	0.151767	0.063682
O17	O	1.194944	0.485100	0.397015
O18	O	1.528277	0.818434	0.730349
O19	O	1.103609	0.134996	0.065095
O20	O	1.436942	0.468330	0.398428
O21	O	1.770276	0.801663	0.731761
Cu22	Cu	0.982609	0.143382	0.078311
Cu23	Cu	1.315942	0.476715	0.411644
Cu24	Cu	1.649276	0.810048	0.744978
Cu25	Cu	0.982620	0.143384	-0.102015
Cu26	Cu	1.315953	0.476718	0.231318
Cu27	Cu	1.649286	0.810051	0.564651
O28	O	0.976522	0.296176	0.051680
O29	O	1.309855	0.629509	0.385014
O30	O	1.643189	0.962843	0.718347
C31	C	0.830638	0.151086	-0.012504
C32	C	1.163971	0.484419	0.320829
C33	C	1.497305	0.817752	0.654163
C34	C	0.738336	0.149040	-0.012341
C35	C	1.071669	0.482373	0.320992
C36	C	1.405003	0.815706	0.654326
C37	C	0.439243	0.142432	-0.094892
C38	C	0.772576	0.475765	0.238441
C39	C	1.105909	0.809099	0.571774
C40	C	0.525971	0.144348	-0.095057
C41	C	0.859304	0.477681	0.238276
C42	C	1.192638	0.811014	0.571609
C43	C	0.525980	0.144331	0.071187
C44	C	0.859314	0.477664	0.404520
C45	C	1.192647	0.810997	0.737854
C46	C	0.439254	0.142408	0.071352
C47	C	0.772588	0.475741	0.404685
C48	C	1.105921	0.809074	0.738018
C49	C	0.395887	0.141464	-0.011691
C50	C	0.729221	0.474797	0.321642
C51	C	1.062554	0.808130	0.654975
C52	C	0.569342	0.145302	-0.012021
C53	C	0.902675	0.478636	0.321312
C54	C	1.236008	0.811969	0.654646
C55	C	0.663376	0.147379	-0.012199
C56	C	0.996710	0.480713	0.321134
C57	C	1.330043	0.814046	0.654468
C58	C	0.301847	0.139384	-0.011513
C59	C	0.635180	0.472718	0.321820
C60	C	0.968513	0.806051	0.655153
C61	C	0.988020	-0.048515	0.004106
C62	C	1.321353	0.284818	0.337439
C63	C	1.654687	0.618152	0.670773
C64	C	0.985977	-0.165033	0.013791
C65	C	1.319310	0.168301	0.347124
C66	C	1.652643	0.501634	0.680457
C67	C	0.982131	-0.383968	-0.134265
C68	C	1.315465	-0.050634	0.199068
C69	C	1.648798	0.282699	0.532402
C70	C	0.980211	-0.493446	-0.125170
C71	C	1.313545	-0.160113	0.208163
C72	C	1.646878	0.173220	0.541497
C73	C	0.980211	-0.493470	0.041075
C74	C	1.313544	-0.160136	0.374408
C75	C	1.646877	0.173197	0.707742
C76	C	0.982131	-0.383991	0.031980
C77	C	1.315464	-0.050658	0.365313
C78	C	1.648797	0.282676	0.698647
C79	C	0.983092	-0.329244	-0.055693
C80	C	1.316426	0.004089	0.277640
C81	C	1.649759	0.337423	0.610974
C82	C	0.985018	-0.219764	-0.064787
C83	C	1.318352	0.113569	0.268546
C84	C	1.651685	0.446902	0.601880
C85	C	0.985011	-0.219789	0.101457
C86	C	1.318345	0.113544	0.434790
C87	C	1.651678	0.446878	0.768124
C88	C	0.983091	-0.329268	0.110552
C89	C	1.316425	0.004066	0.443885
C90	C	1.649758	0.337399	0.777219
C91	C	1.134591	0.135680	-0.011202
C92	C	1.467924	0.469014	0.322131
C93	C	1.801257	0.802347	0.655465
C94	C	1.226893	0.137726	-0.011371
C95	C	1.560226	0.471060	0.321962
C96	C	1.893559	0.804393	0.655295
C97	C	0.977209	0.335281	-0.027812
C98	C	1.310542	0.668614	0.305521
C99	C	1.643875	1.001948	0.638854
C100	C	0.979252	0.451799	-0.037503
C101	C	1.312586	0.785132	0.295831
C102	C	1.645919	1.118465	0.629164
N103	N	0.982608	0.143379	0.205143
N104	N	1.315941	0.476712	0.538476
N105	N	1.649274	0.810046	0.871810
N106	N	0.982628	0.143379	-0.228847
N107	N	1.315961	0.476712	0.104487
N108	N	1.649294	0.810045	0.437820
C109	C	1.038901	0.072033	0.446087
C110	C	1.372234	0.405366	0.779421
C111	C	1.705567	0.738699	1.112754
C112	C	1.038903	0.072030	0.542069
C113	C	1.372237	0.405363	0.875402
C114	C	1.705570	0.738697	1.208736
C115	C	0.926329	0.214728	0.530202
C116	C	1.259662	0.548062	0.863535
C117	C	1.592995	0.881395	1.196869
C118	C	0.926323	0.214725	0.434223
C119	C	1.259656	0.548058	0.767556
C120	C	1.592989	0.881392	1.100890
C121	C	0.982614	0.143378	0.392168
C122	C	1.315947	0.476712	0.725501
C123	C	1.649280	0.810045	1.058835
C124	C	0.982622	0.143379	0.584129
C125	C	1.315955	0.476713	0.917462
C126	C	1.649288	0.810046	1.250795
C127	C	0.982624	0.143377	0.688196
C128	C	1.315957	0.476710	1.021529
C129	C	1.649291	0.810044	1.354863
C130	C	0.982611	0.143379	0.288094
C131	C	1.315944	0.476712	0.621427
C132	C	1.649277	0.810046	0.954761
H133	H	0.403936	0.141662	-0.162511
H134	H	0.737269	0.474995	0.170822
H135	H	1.070603	0.808329	0.504155
F136	F	0.986045	-0.161500	-0.158095
F137	F	1.319378	0.171833	0.175238
F138	F	1.652711	0.505166	0.508572
F139	F	0.983166	-0.325701	-0.227571
F140	F	1.316499	0.007632	0.105762
F141	F	1.649833	0.340966	0.439096
F142	F	1.098810	-0.003908	0.599451
F143	F	1.432143	0.329426	0.932785
F144	F	1.765476	0.662759	1.266118
H145	H	0.880483	0.272824	0.390318
H146	H	1.213816	0.606157	0.723652
H147	H	1.547150	0.939491	1.056985
H148	H	0.403953	0.141618	0.139108
H149	H	0.737287	0.474951	0.472441
H150	H	1.070620	0.808285	0.805775
H151	H	0.880499	0.272819	0.564453
H152	H	1.213832	0.606152	0.897786
H153	H	1.547166	0.939485	1.231120
H154	H	0.561268	0.145135	-0.162808
H155	H	0.894601	0.478468	0.170525
H156	H	1.227934	0.811801	0.503859
F157	F	0.572141	0.145344	0.159561
F158	F	0.905474	0.478677	0.492895
F159	F	1.238808	0.812010	0.826228
H160	H	0.979426	-0.537997	-0.189152
H161	H	1.312759	-0.204664	0.144182
H162	H	1.646093	0.128669	0.477515
F163	F	0.979167	-0.551749	0.134375
F164	F	1.312500	-0.218416	0.467708
F165	F	1.645833	0.114917	0.801041
H166	H	0.982305	-0.373857	0.181933
H167	H	1.315639	-0.040524	0.515266
H168	H	1.648972	0.292810	0.848599
H169	H	0.985797	-0.175222	0.165436
H170	H	1.319130	0.158111	0.498769
H171	H	1.652463	0.491445	0.832103
F172	F	1.098809	-0.003904	0.401333
F173	F	1.432142	0.329430	0.734667
F174	F	1.765475	0.662763	1.068000
