data_functionalizedCrystal
_audit_creation_method	'MofGen! by Chris Wilmer'
_symmetry_space_group_name_H-M	'P1'
_symmetry_Int_Tables_number	1
_symmetry_cell_setting	triclinic
loop_
_symmetry_equiv_pos_as_xyz
  x,y,z
_cell_length_a	10.540535
_cell_length_b	16.109301
_cell_length_c	15.186229
_cell_angle_alpha	90.005167
_cell_angle_beta	89.999024
_cell_angle_gamma	96.007438
loop_
_atom_site_label
_atom_site_type_symbol
_atom_site_fract_x
_atom_site_fract_y
_atom_site_fract_z
O1	O	1.684219	-0.117147	-0.073184
O2	O	2.184219	0.382853	0.426816
O3	O	1.314647	-0.128191	-0.073196
O4	O	1.814647	0.371809	0.426804
O5	O	1.509586	-0.001700	-0.073181
O6	O	2.009586	0.498300	0.426819
O7	O	1.489281	-0.243638	-0.073199
O8	O	1.989281	0.256362	0.426801
O9	O	1.509573	-0.001698	0.073277
O10	O	2.009573	0.498302	0.573277
O11	O	1.314634	-0.128189	0.073261
O12	O	1.814634	0.371811	0.573261
O13	O	1.684206	-0.117146	0.073274
O14	O	2.184206	0.382854	0.573274
Zn15	Zn	1.499418	-0.122667	0.096521
Zn16	Zn	1.999418	0.377333	0.596521
Zn17	Zn	1.499435	-0.122669	-0.096443
Zn18	Zn	1.999435	0.377331	0.403557
O19	O	1.489268	-0.243636	0.073258
O20	O	1.989268	0.256364	0.573258
C21	C	1.267350	-0.127362	0.000031
C22	C	1.767350	0.372638	0.500031
C23	C	1.126437	-0.124887	0.000026
C24	C	1.626437	0.375113	0.500026
C25	C	1.091083	-0.032533	0.000037
C26	C	1.591083	0.467467	0.500037
C27	C	0.944519	-0.029928	0.000378
C28	C	1.444519	0.470072	0.500378
C29	C	0.916492	-0.167044	0.083505
C30	C	1.416492	0.332956	0.583505
C31	C	1.063230	-0.169009	0.083566
C32	C	1.563230	0.330991	0.583566
C33	C	1.063109	-0.170355	-0.082989
C34	C	1.563109	0.329645	0.417011
C35	C	0.916824	-0.166083	-0.084077
C36	C	1.416824	0.333917	0.415923
C37	C	1.508757	0.029281	0.000048
C38	C	2.008757	0.529281	0.500048
C39	C	1.506291	0.121591	0.000050
C40	C	2.006291	0.621591	0.500050
C41	C	1.731503	-0.117974	0.000045
C42	C	2.231503	0.382026	0.500045
C43	C	1.872416	-0.120449	0.000043
C44	C	2.372416	0.379551	0.500043
C45	C	1.490097	-0.274617	0.000027
C46	C	1.990097	0.225383	0.500027
C47	C	1.492563	-0.366927	0.000020
C48	C	1.992563	0.133073	0.500020
N49	N	1.499416	-0.122665	0.228213
N50	N	1.999416	0.377335	0.728213
C51	C	1.616229	0.343192	0.000039
C52	C	2.116229	0.843192	0.500039
C53	C	1.613902	0.429927	0.000032
C54	C	2.113902	0.929927	0.500032
C55	C	1.382615	0.411465	0.000028
C56	C	1.882615	0.911465	0.500028
C57	C	1.384943	0.324732	0.000029
C58	C	1.884943	0.824732	0.500029
C59	C	1.501754	0.290598	0.000039
C60	C	2.001754	0.790598	0.500039
C61	C	1.497099	0.464066	0.000031
C62	C	1.997099	0.964066	0.500031
C63	C	1.494575	0.558107	0.000023
C64	C	1.994575	1.058107	0.500023
C65	C	1.504279	0.196551	0.000045
C66	C	2.004279	0.696551	0.500045
N67	N	1.499448	-0.122665	-0.228136
N68	N	1.999448	0.377335	0.271864
C69	C	1.585764	-0.066674	0.453943
C70	C	2.085764	0.433326	0.953943
C71	C	1.585768	-0.066672	0.546133
C72	C	2.085768	0.433328	1.046133
C73	C	1.413090	-0.178658	0.546128
C74	C	1.913090	0.321342	1.046128
C75	C	1.413081	-0.178656	0.453940
C76	C	1.913081	0.321344	0.953940
C77	C	1.499425	-0.122664	0.407850
C78	C	1.999425	0.377336	0.907850
C79	C	1.499438	-0.122665	0.592228
C80	C	1.999438	0.377335	1.092228
C81	C	1.499442	-0.122664	0.692184
C82	C	1.999442	0.377336	1.192184
C83	C	1.499420	-0.122665	0.307887
C84	C	1.999420	0.377335	0.807887
H85	H	1.133562	0.002930	-0.059806
H86	H	1.633562	0.502930	0.440194
H87	H	1.287512	0.439267	0.000021
H88	H	1.787512	0.939267	0.500021
H89	H	0.916578	0.006334	0.060566
H90	H	1.416578	0.506334	0.560566
O91	O	1.149280	0.013666	0.079209
O92	O	1.649280	0.513666	0.579209
H93	H	1.203273	-0.028864	0.118553
H94	H	1.703273	0.471136	0.618553
O95	O	1.092467	-0.258685	0.088277
O96	O	1.592467	0.241315	0.588277
H97	H	1.148993	-0.267849	0.148511
H98	H	1.648993	0.232151	0.648511
H99	H	1.342793	-0.224246	0.583664
H100	H	1.842793	0.275754	1.083664
O101	O	1.742217	0.306380	0.000042
O102	O	2.242217	0.806380	0.500042
H103	H	1.724609	0.237232	0.000050
H104	H	2.224609	0.737232	0.500050
O105	O	1.678909	-0.006290	0.595843
O106	O	2.178909	0.493710	1.095843
H107	H	1.662784	0.058627	0.578151
H108	H	2.162784	0.558627	1.078151
O109	O	1.737371	0.486657	0.000044
O110	O	2.237371	0.986657	0.500044
H111	H	1.818982	0.448347	0.000060
H112	H	2.318982	0.948347	0.500060
H113	H	1.342768	-0.224250	0.416408
H114	H	1.842768	0.275750	0.916408
H115	H	1.291718	0.281907	0.000026
H116	H	1.791718	0.781907	0.500026
O117	O	1.117040	-0.127323	0.166528
O118	O	1.617040	0.372677	0.666528
H119	H	1.166642	-0.172541	0.205385
H120	H	1.666642	0.327459	0.705385
H121	H	0.868185	-0.233692	0.086369
H122	H	1.368185	0.266308	0.586369
H123	H	1.656068	-0.021081	0.416419
H124	H	2.156068	0.478919	0.916419
H125	H	0.915706	0.006512	-0.059438
H126	H	1.415706	0.506512	0.440562
O127	O	0.876188	-0.124683	0.166104
O128	O	1.376188	0.375317	0.666104
H129	H	0.770739	-0.125734	0.167060
H130	H	1.270739	0.374266	0.667060
O131	O	1.119879	-0.132181	-0.166821
O132	O	1.619879	0.367819	0.333179
H133	H	1.193873	-0.080370	-0.150250
H134	H	1.693873	0.419630	0.349750
O135	O	0.879574	-0.121185	-0.165876
O136	O	1.379574	0.378815	0.334124
H137	H	0.830352	-0.066290	-0.146699
H138	H	1.330352	0.433710	0.353301
O139	O	0.850655	-0.253608	-0.091095
O140	O	1.350655	0.246392	0.408905
H141	H	0.784796	-0.266007	-0.034480
H142	H	1.284796	0.233993	0.465520
H143	H	1.084325	-0.238304	-0.083801
H144	H	1.584325	0.261696	0.416199
