data_functionalizedCrystal
_audit_creation_method	'MofGen! by Chris Wilmer'
_symmetry_space_group_name_H-M	'P1'
_symmetry_Int_Tables_number	1
_symmetry_cell_setting	triclinic
loop_
_symmetry_equiv_pos_as_xyz
  x,y,z
_cell_length_a	16.704494
_cell_length_b	14.560438
_cell_length_c	14.560438
_cell_angle_alpha	60.004742
_cell_angle_beta	90.000002
_cell_angle_gamma	56.637615
loop_
_atom_site_label
_atom_site_type_symbol
_atom_site_fract_x
_atom_site_fract_y
_atom_site_fract_z
Zr1	Zr	0.815338	0.909105	-0.072364
O2	O	0.680254	1.116585	-0.226936
O3	O	0.856728	0.712659	-0.025000
O4	O	0.856760	0.904225	-0.216571
O5	O	0.680220	0.925020	0.115773
O6	O	0.996014	0.887825	-0.208371
O7	O	0.680222	0.925018	-0.035365
O8	O	0.995957	0.545148	0.134315
O9	O	0.680277	1.267698	-0.226913
O10	O	0.978329	0.777135	0.001345
O11	O	0.874403	0.789375	0.108019
O12	O	0.874441	1.014920	-0.117532
O13	O	0.770516	1.027161	-0.010859
Zr14	Zr	1.037428	0.882953	0.181763
Zr15	Zr	1.037432	0.882949	-0.059285
Zr16	Zr	0.815334	0.909109	0.168685
Zr17	Zr	0.815375	1.150113	-0.072326
Zr18	Zr	1.037392	0.641945	0.181725
O19	O	0.996038	1.079400	0.134399
O20	O	0.996043	1.079395	-0.208341
O21	O	0.680249	1.116590	0.115803
O22	O	1.172512	0.675474	0.336335
O23	O	1.172517	0.675469	-0.006404
O24	O	0.856723	0.712664	0.317740
O25	O	1.172546	0.867038	-0.006374
O26	O	0.996006	0.887833	0.325970
O27	O	0.856752	0.904233	0.317770
O28	O	1.172544	0.867040	0.144764
O29	O	0.856812	1.246907	-0.216517
O30	O	0.995954	0.545151	0.325916
O31	O	1.172489	0.524360	0.336312
O32	O	1.172492	0.524358	0.144710
O33	O	0.680274	1.267701	-0.035311
O34	O	0.856809	1.246910	-0.024916
O35	O	0.978325	0.777138	0.226931
O36	O	1.082251	0.764897	0.120258
O37	O	0.978363	1.002683	0.001381
O38	O	0.874438	1.014923	0.108054
C39	C	0.926337	0.594565	0.054652
C40	C	0.926322	0.492250	0.054636
C41	C	0.872108	0.450523	0.110355
C42	C	0.872166	0.354304	0.110416
C43	C	0.980660	0.341545	-0.000963
C44	C	0.980595	0.437769	-0.001030
C45	C	0.809473	0.457884	0.174663
C46	C	0.809531	0.361666	0.174723
C47	C	0.648577	0.928746	0.038341
C48	C	0.554293	0.939850	0.032789
C49	C	0.485589	0.712445	0.146491
C50	C	0.397002	0.722871	0.141277
C51	C	0.288533	0.971128	0.017155
C52	C	0.377119	0.960701	0.022369
C53	C	0.475646	0.831355	0.087038
C54	C	0.564233	0.820930	0.092244
C55	C	0.455763	1.069186	-0.031871
C56	C	0.367177	1.079612	-0.037085
C57	C	1.204189	0.863312	0.071058
C58	C	1.298474	0.852208	0.076610
C59	C	0.926387	0.896025	-0.246815
C60	C	0.926389	0.896023	-0.349146
C61	C	0.926429	1.197493	0.054747
C62	C	0.926445	1.299808	0.054763
C63	C	0.849661	0.905071	-0.497896
C64	C	0.849668	0.905060	-0.401739
C65	C	1.003113	0.886982	-0.392709
C66	C	1.003109	0.886983	-0.488859
C67	C	0.761068	0.915514	-0.503112
C68	C	0.761075	0.915504	-0.406955
C69	C	0.926379	0.896033	0.356214
C70	C	0.926377	0.896035	0.458546
C71	C	1.204143	0.561848	0.071011
C72	C	1.298412	0.448430	0.076547
C73	C	0.926333	0.594569	0.356167
C74	C	0.926316	0.492256	0.458482
C75	C	1.204139	0.561852	0.372526
C76	C	1.298407	0.448436	0.480393
C77	C	0.648628	1.230206	-0.263127
C78	C	0.554360	1.343622	-0.370994
C79	C	0.648623	1.230210	0.038388
C80	C	0.554354	1.343628	0.032852
C81	C	0.926433	1.197489	-0.246768
C82	C	0.926450	1.299802	-0.349083
C83	C	1.288436	0.401555	0.017066
C84	C	1.377003	0.295001	0.022244
C85	C	1.475546	0.235317	0.086911
C86	C	1.485521	0.282202	0.146395
C87	C	1.396954	0.388760	0.141209
C88	C	1.396933	0.388784	0.475367
C89	C	1.485516	0.282229	0.576711
C90	C	1.475570	0.235322	0.683080
C91	C	1.377034	0.294985	0.688103
C92	C	1.288453	0.401544	0.586761
C93	C	0.455833	1.403286	-0.365968
C94	C	0.367250	1.509870	-0.467312
C95	C	0.377196	1.556782	-0.573681
C96	C	0.475733	1.497113	-0.578704
C97	C	0.564314	1.390538	-0.477361
C98	C	0.564330	1.390513	0.092324
C99	C	0.475763	1.497093	0.087118
C100	C	0.377220	1.556781	0.022448
C101	C	0.367246	1.509892	-0.037031
C102	C	0.455812	1.403320	-0.031832
C103	C	0.980556	0.437797	0.568621
C104	C	0.980532	0.341669	0.664753
C105	C	0.872026	0.354465	0.540593
C106	C	0.872045	0.450598	0.444463
C107	C	1.043204	0.430404	0.640306
C108	C	1.043180	0.334276	0.736437
H109	H	0.726518	0.557622	0.131949
O110	O	0.997063	0.555065	0.637607
H111	H	0.974447	0.539863	0.712518
H112	H	1.405051	0.426959	0.388766
O113	O	1.591813	0.217816	0.216138
H114	H	1.583884	0.268311	0.256629
H115	H	1.123403	0.384830	0.636294
O116	O	1.039194	0.282777	-0.060999
H117	H	1.076875	0.327970	-0.099763
H118	H	1.565741	0.233662	0.572600
O119	O	0.988442	0.388541	0.800692
H120	H	0.922277	0.387979	0.802391
O121	O	1.039055	0.482796	-0.061141
H122	H	1.076809	0.428736	-0.099829
H123	H	0.287026	1.558436	-0.463199
H124	H	0.685428	1.014797	-0.430497
O125	O	0.667766	1.050029	-0.609876
H126	H	0.618300	1.121341	-0.588719
O127	O	0.445030	1.197454	-0.096019
H128	H	0.523181	1.168479	-0.081535
O129	O	1.571070	0.120376	0.092511
H130	H	1.547566	0.097806	0.040291
H131	H	1.126113	0.234500	0.793505
O132	O	0.670607	1.326173	0.162063
H133	H	0.679612	1.281338	0.253078
H134	H	0.729352	0.407154	0.125177
H135	H	0.844386	0.267584	0.266811
H136	H	1.368862	0.256842	-0.026195
H137	H	0.287000	1.558506	-0.089685
O138	O	1.085871	0.877207	-0.335962
H139	H	1.082130	0.965670	-0.398634
O140	O	0.813614	0.509375	0.325621
H141	H	0.868460	0.484440	0.282310
H142	H	0.447675	1.365151	-0.080258
O143	O	1.182184	0.465871	0.592186
H144	H	1.139231	0.452471	0.548667
O145	O	0.771220	0.794559	-0.477218
H146	H	0.776198	0.735336	-0.388285
H147	H	0.850777	0.416973	0.264114
O148	O	0.486444	1.547718	-0.693439
H149	H	0.529458	1.586466	-0.700702
H150	H	0.776542	0.820419	-0.329599
O151	O	0.670502	0.681428	0.161984
H152	H	0.713459	0.670748	0.229577
H153	H	0.827840	0.320537	0.529192
H154	H	1.547707	0.148554	0.765591
O155	O	0.591860	0.572947	0.216231
H156	H	0.583892	0.492009	0.256701
H157	H	0.405106	0.626042	0.189692
O158	O	0.486534	1.547633	0.151294
H159	H	0.529583	1.586329	0.119833
H160	H	0.208301	1.076435	-0.035479
O161	O	0.445082	1.352714	-0.251254
H162	H	0.482810	1.242228	-0.202428
H163	H	1.208205	0.450149	-0.035607
O164	O	1.407719	0.439296	0.205387
H165	H	1.491124	0.379872	0.251233
H166	H	1.065586	0.879608	-0.524314
O167	O	0.281645	1.671748	-0.682979
H168	H	0.234858	1.640362	-0.685673
H169	H	1.368951	0.256778	0.774723
H170	H	0.286947	1.184922	-0.089732
H171	H	0.305112	1.643558	0.018224
O172	O	0.670582	1.326171	-0.482788
H173	H	0.662605	1.376693	-0.573782
