data_functionalizedCrystal
_audit_creation_method	'MofGen! by Chris Wilmer'
_symmetry_space_group_name_H-M	'P1'
_symmetry_Int_Tables_number	1
_symmetry_cell_setting	triclinic
loop_
_symmetry_equiv_pos_as_xyz
  x,y,z
_cell_length_a	19.077236
_cell_length_b	12.759400
_cell_length_c	19.076919
_cell_angle_alpha	87.723750
_cell_angle_beta	90.112677
_cell_angle_gamma	92.307411
loop_
_atom_site_label
_atom_site_type_symbol
_atom_site_fract_x
_atom_site_fract_y
_atom_site_fract_z
Zn1	Zn	1.058335	-0.381376	0.440563
Zn2	Zn	1.558335	0.118624	0.940563
Zn3	Zn	1.062995	-0.549745	0.323065
Zn4	Zn	1.562995	-0.049745	0.823065
Zn5	Zn	0.945551	-0.380825	0.318343
Zn6	Zn	1.445551	0.119175	0.818343
Zn7	Zn	0.940815	-0.563761	0.435804
Zn8	Zn	1.440815	-0.063761	0.935804
O9	O	1.001924	-0.468927	0.379444
O10	O	1.501924	0.031073	0.879444
O11	O	1.157286	-0.398075	0.428944
O12	O	1.657286	0.101925	0.928944
O13	O	1.051347	-0.521241	0.224108
O14	O	1.551347	-0.021241	0.724108
O15	O	0.960544	-0.233876	0.334570
O16	O	1.460544	0.266124	0.834570
O17	O	1.160710	-0.521775	0.342619
O18	O	1.660710	-0.021775	0.842619
O19	O	1.043406	-0.234281	0.424365
O20	O	1.543406	0.265719	0.924365
O21	O	0.965062	-0.397136	0.220638
O22	O	1.465062	0.102864	0.720638
O23	O	0.846589	-0.410727	0.329956
O24	O	1.346589	0.089273	0.829956
O25	O	0.952473	-0.545664	0.534766
O26	O	1.452473	-0.045664	1.034766
O27	O	0.843110	-0.545130	0.416255
O28	O	1.343110	-0.045130	0.916255
O29	O	1.038814	-0.411666	0.538263
O30	O	1.538814	0.088334	1.038263
O31	O	1.046755	-0.698626	0.338005
O32	O	1.546755	-0.198626	0.838005
O33	O	0.956991	-0.708924	0.420834
O34	O	1.456991	-0.208924	0.920834
C35	C	0.819353	-0.479390	0.372077
C36	C	1.319353	0.020610	0.872077
C37	C	0.741248	-0.483893	0.368942
C38	C	1.241248	0.016107	0.868942
C39	C	0.702770	-0.421716	0.412483
C40	C	1.202770	0.078284	0.912483
C41	C	0.629382	-0.425941	0.409531
C42	C	1.129382	0.074059	0.909531
C43	C	0.594474	-0.492350	0.363042
C44	C	1.094474	0.007650	0.863042
C45	C	0.632957	-0.554530	0.319497
C46	C	1.132957	-0.054530	0.819497
C47	C	0.706344	-0.550298	0.322445
C48	C	1.206344	-0.050298	0.822445
C49	C	0.375182	-0.511895	0.349394
C50	C	0.875182	-0.011895	0.849394
C51	C	0.301790	-0.516124	0.346450
C52	C	0.801790	-0.016124	0.846450
C53	C	0.298220	-0.387534	0.436484
C54	C	0.798220	0.112466	0.936484
C55	C	0.371608	-0.383312	0.439432
C56	C	0.871608	0.116688	0.939432
C57	C	0.410086	-0.445488	0.395884
C58	C	0.910086	0.054512	0.895884
N59	N	0.519459	-0.496673	0.360026
N60	N	1.019459	0.003327	0.860026
N61	N	0.485099	-0.441159	0.398897
N62	N	0.985099	0.058841	0.898897
C63	C	1.001883	-0.741896	0.379432
C64	C	1.501883	-0.241896	0.879432
C65	C	1.001929	-0.858671	0.379453
C66	C	1.501929	-0.358671	0.879453
C67	C	0.955217	-1.028655	0.422560
C68	C	1.455217	-0.528655	0.922560
C69	C	0.955179	-0.918933	0.422547
C70	C	1.455179	-0.418933	0.922547
C71	C	1.048726	-0.908137	0.336374
C72	C	1.548726	-0.408137	0.836374
C73	C	1.048767	-1.017858	0.336392
C74	C	1.548767	-0.517858	0.836392
C75	C	0.908459	-1.088911	0.465652
C76	C	1.408459	-0.588911	0.965652
C77	C	0.861663	-1.039453	0.508731
C78	C	1.361663	-0.539453	1.008731
C79	C	0.861625	-0.929730	0.508718
C80	C	1.361625	-0.429730	1.008718
C81	C	0.908383	-0.869466	0.465625
C82	C	1.408383	-0.369466	0.965625
C83	C	1.185208	-0.458423	0.386839
C84	C	1.685208	0.041577	0.886839
C85	C	1.263312	-0.453947	0.389991
C86	C	1.763312	0.046053	0.889991
C87	C	0.994596	-0.480290	0.562724
C88	C	1.494596	0.019710	1.062724
C89	C	0.991473	-0.485132	0.640827
C90	C	1.491473	0.014868	1.140827
C91	C	1.001983	-0.194892	0.379472
C92	C	1.501983	0.305108	0.879472
C93	C	1.002008	-0.078114	0.379484
C94	C	1.502008	0.421886	0.879484
C95	C	1.009264	-0.457530	0.196878
C96	C	1.509264	0.042470	0.696878
C97	C	1.012523	-0.452384	0.118781
C98	C	1.512523	0.047616	0.618781
C99	C	1.034957	-0.417645	0.679341
C100	C	1.534957	0.082355	1.179341
C101	C	1.032014	-0.422191	0.752726
C102	C	1.532014	0.077809	1.252726
C103	C	0.985590	-0.494231	0.787597
C104	C	1.485590	0.005769	1.287597
C105	C	0.942102	-0.561721	0.749077
C106	C	1.442102	-0.061721	1.249077
C107	C	0.945041	-0.557169	0.675693
C108	C	1.445041	-0.057169	1.175693
C109	C	0.971974	-0.515321	1.006877
C110	C	1.471974	-0.015321	1.506877
C111	C	0.969039	-0.519871	1.080267
C112	C	1.469039	-0.019871	1.580267
C113	C	1.058951	-0.380339	1.083911
C114	C	1.558951	0.119661	1.583911
C115	C	1.061890	-0.375798	1.010525
C116	C	1.561890	0.124202	1.510525
C117	C	1.018398	-0.443284	0.972012
C118	C	1.518398	0.056716	1.472012
N119	N	0.982583	-0.498882	0.862609
N120	N	1.482583	0.001118	1.362609
N121	N	1.021403	-0.438627	0.897001
N122	N	1.521403	0.061373	1.397001
H123	H	0.266884	-0.336912	0.471938
H124	H	0.766884	0.163088	0.971938
Br125	Br	1.117970	-0.288754	1.136182
Br126	Br	1.617970	0.211246	1.636182
Br127	Br	1.112178	-0.826352	0.277894
Br128	Br	1.612178	-0.326352	0.777894
Br129	Br	0.798218	-1.121235	0.567221
Br130	Br	1.298218	-0.621235	1.067221
Br131	Br	1.097969	-0.319880	0.632024
Br132	Br	1.597969	0.180120	1.132024
H133	H	0.931233	-0.578536	1.108656
H134	H	1.431233	-0.078536	1.608656
H135	H	0.406502	-0.562524	0.313935
H136	H	0.906502	-0.062524	0.813935
Br137	Br	0.750138	-0.331592	0.475583
Br138	Br	1.250138	0.168408	0.975583
H139	H	0.908352	-0.780123	0.465622
H140	H	1.408352	-0.280123	0.965622
Br141	Br	1.112274	-1.084988	0.277934
Br142	Br	1.612274	-0.584988	0.777934
H143	H	1.067425	-0.367239	0.784082
H144	H	1.567425	0.132761	1.284082
H145	H	0.904300	-0.620373	0.777474
H146	H	1.404300	-0.120373	1.277474
Br147	Br	0.758566	-0.634684	0.263351
Br148	Br	1.258566	-0.134684	0.763351
H149	H	0.604529	-0.608596	0.281641
H150	H	1.104529	-0.108596	0.781641
H151	H	0.936571	-0.570288	0.975529
H152	H	1.436571	-0.070288	1.475529
H153	H	0.823527	-0.889462	0.543800
H154	H	1.323527	-0.389462	1.043800
H155	H	0.598056	-0.375312	0.444988
H156	H	1.098056	0.124688	0.944988
H157	H	1.099695	-0.317139	0.982139
H158	H	1.599695	0.182861	1.482139
H159	H	0.400025	-0.329239	0.477290
H160	H	0.900025	0.170761	0.977290
Br161	Br	0.254414	-0.606288	0.283374
Br162	Br	0.754414	-0.106288	0.783374
Br163	Br	0.908536	-1.237820	0.465703
Br164	Br	1.408536	-0.737820	0.965703
Br165	Br	0.886021	-0.648756	0.623422
Br166	Br	1.386021	-0.148756	1.123422
