data_functionalizedCrystal
_audit_creation_method	'MofGen! by Chris Wilmer'
_symmetry_space_group_name_H-M	'P1'
_symmetry_Int_Tables_number	1
_symmetry_cell_setting	triclinic
loop_
_symmetry_equiv_pos_as_xyz
  x,y,z
_cell_length_a	31.640172
_cell_length_b	14.446369
_cell_length_c	14.446369
_cell_angle_alpha	59.995508
_cell_angle_beta	90.002632
_cell_angle_gamma	59.999358
loop_
_atom_site_label
_atom_site_type_symbol
_atom_site_fract_x
_atom_site_fract_y
_atom_site_fract_z
Zr1	Zr	0.407186	1.013134	-0.121407
O2	O	0.339698	1.206277	-0.269243
O3	O	0.427875	0.820007	-0.076081
O4	O	0.427876	1.013134	-0.269209
O5	O	0.339696	1.013145	0.076221
O6	O	0.497433	1.013115	-0.269189
O7	O	0.339697	1.013151	-0.076115
O8	O	0.497431	0.667647	0.076282
O9	O	0.339698	1.358613	-0.269250
O10	O	0.488608	0.899423	-0.056742
O11	O	0.436698	0.899433	0.056929
O12	O	0.436700	1.126814	-0.170454
O13	O	0.384790	1.126824	-0.056783
Zr14	Zr	0.518121	1.013094	0.121584
Zr15	Zr	0.518122	1.013103	-0.121374
Zr16	Zr	0.407186	1.013125	0.121551
Zr17	Zr	0.407187	1.256092	-0.121418
Zr18	Zr	0.518120	0.770136	0.121595
O19	O	0.497433	1.206221	0.076258
O20	O	0.497434	1.206234	-0.269197
O21	O	0.339697	1.206264	0.076212
O22	O	0.585610	0.819951	0.269420
O23	O	0.585611	0.819964	-0.076035
O24	O	0.427874	0.819994	0.269374
O25	O	0.585611	1.013083	-0.076044
O26	O	0.497432	1.013094	0.269386
O27	O	0.427875	1.013113	0.269366
O28	O	0.585611	1.013077	0.076292
O29	O	0.427877	1.358589	-0.269225
O30	O	0.497430	0.667639	0.269402
O31	O	0.585609	0.667615	0.269427
O32	O	0.585610	0.667622	0.076308
O33	O	0.339698	1.358606	-0.076131
O34	O	0.427877	1.358581	-0.076105
O35	O	0.488608	0.899414	0.170631
O36	O	0.540518	0.899404	0.056960
O37	O	0.488609	1.126795	-0.056752
O38	O	0.436699	1.126805	0.056919
C39	C	0.462653	0.709211	0.000102
C40	C	0.462652	0.606069	0.000107
C41	C	0.430069	0.459065	0.072128
C42	C	0.429892	0.566685	0.071837
C43	C	0.438769	0.655076	-0.123440
C44	C	0.438525	0.547843	-0.123067
C45	C	0.519141	0.372593	0.050571
C46	C	0.519058	0.478744	0.053092
C47	C	0.323891	1.013152	0.000048
C48	C	0.276796	1.013165	0.000034
C49	C	0.011885	0.894406	0.059468
C50	C	-0.165100	0.894383	0.059490
O51	O	-0.164942	0.793436	0.110012
N52	N	-0.214325	1.013078	0.000132
C53	C	-0.219304	1.131787	-0.059229
O54	O	-0.265234	1.232744	-0.109707
C55	C	-0.042319	1.131809	-0.059245
C56	C	0.006906	1.013106	0.000108
C57	C	0.061108	0.775712	0.118817
C58	C	0.105351	0.775719	0.118805
C59	C	0.100372	0.894419	0.059445
C60	C	0.051149	1.013113	0.000097
C61	C	-0.047298	1.250517	-0.118599
C62	C	-0.003047	1.250511	-0.118595
C63	C	0.046178	1.131808	-0.059243
C64	C	0.090413	1.131820	-0.059275
N65	N	0.139639	1.013124	0.000084
C66	C	0.144618	0.894424	0.059444
C67	C	-0.312221	1.131768	-0.059219
C68	C	-0.356467	1.131763	-0.059217
C69	C	-0.302260	0.894358	0.059505
C70	C	-0.258014	0.894364	0.059495
C71	C	-0.262996	1.013073	0.000139
C72	C	0.237530	0.894448	0.059415
C73	C	0.281775	0.894465	0.059394
C74	C	0.227564	1.131869	-0.059322
C75	C	0.183323	1.131853	-0.059307
C76	C	0.188310	1.013131	0.000070
O77	O	0.090294	1.232714	-0.109760
O78	O	0.190552	0.793482	0.109934
C79	C	-0.032358	0.894399	0.059479
C80	C	-0.081581	1.013092	0.000130
C81	C	-0.086560	1.131792	-0.059230
C82	C	-0.125827	1.013087	0.000132
C83	C	-0.120848	0.894387	0.059492
C84	C	-0.071622	0.775692	0.118850
C85	C	-0.027379	0.775699	0.118839
C86	C	-0.135786	1.250487	-0.118588
C87	C	-0.180027	1.250471	-0.118573
C88	C	-0.175047	1.131771	-0.059213
C89	C	0.601417	1.013076	0.000129
C90	C	0.648512	1.013063	0.000143
C91	C	0.462655	1.013126	-0.303815
C92	C	0.462655	1.013130	-0.406957
C93	C	0.462655	1.317017	0.000075
C94	C	0.462656	1.420159	0.000070
C95	C	0.429911	1.156560	-0.517969
C96	C	0.429735	1.156611	-0.625275
C97	C	0.438945	0.941464	-0.518086
C98	C	0.438698	0.942418	-0.411249
C99	C	0.519125	0.940291	-0.410074
C100	C	0.519038	0.942955	-0.518727
C101	C	0.462653	1.013102	0.303992
C102	C	0.462653	1.013098	0.407134
C103	C	0.601416	0.709172	0.000143
C104	C	0.648510	0.606017	0.000161
C105	C	0.462652	0.709199	0.304006
C106	C	0.462651	0.606053	0.407153
C107	C	0.601415	0.709161	0.304046
C108	C	0.648510	0.606002	0.407207
C109	C	0.323892	1.317067	-0.303869
C110	C	0.276798	1.420226	-0.407030
C111	C	0.323892	1.317056	0.000034
C112	C	0.276797	1.420211	0.000016
C113	C	0.462656	1.317029	-0.303829
C114	C	0.462656	1.420175	-0.406976
C115	C	0.643530	0.557584	-0.059191
C116	C	0.687777	0.460673	-0.059197
C117	C	0.737002	0.412189	0.000158
C118	C	0.741981	0.460632	0.059512
C119	C	0.697736	0.557548	0.059511
C120	C	0.697727	0.557552	0.396317
C121	C	0.741981	0.460637	0.493238
C122	C	0.737017	0.412166	0.601048
C123	C	0.687795	0.460626	0.611936
C124	C	0.643542	0.557546	0.515016
C125	C	0.227581	1.468688	-0.396140
C126	C	0.183327	1.565633	-0.493061
C127	C	0.188291	1.614109	-0.600871
C128	C	0.237513	1.565643	-0.611759
C129	C	0.281766	1.468706	-0.514839
C130	C	0.281777	1.468654	0.059358
C131	C	0.237531	1.565592	0.059337
C132	C	0.188305	1.614079	-0.000021
C133	C	0.183326	1.565632	-0.059371
C134	C	0.227572	1.468702	-0.059356
C135	C	0.429753	0.459741	0.482136
C136	C	0.429893	0.566671	0.374797
C137	C	0.519056	0.479178	0.481732
C138	C	0.518878	0.371793	0.588601
C139	C	0.439610	0.546787	0.590156
C140	C	0.438466	0.655267	0.481474
H141	H	0.388650	0.494840	0.037409
C142	C	0.469293	0.693957	-0.199112
N143	N	0.492284	0.723241	-0.256105
C144	C	0.373605	0.686687	0.024509
N145	N	0.331207	0.777078	-0.011147
H146	H	0.321840	1.429249	-0.523719
H147	H	0.683712	0.421243	-0.107530
C148	C	0.468518	0.518154	-0.199535
N149	N	0.491109	0.495798	-0.257133
C150	C	0.796135	0.407276	0.124807
N151	N	0.836924	0.367078	0.173995
C152	C	0.129187	1.618925	-0.481059
N153	N	0.088411	1.659062	-0.472016
C154	C	0.129173	1.618964	-0.124642
N155	N	0.088384	1.659126	-0.173793
H156	H	0.223529	1.429224	-0.308364
H157	H	0.539095	0.278838	0.140147
C158	C	0.159495	0.645135	0.184109
N159	N	0.200275	0.546772	0.233304
C160	C	-0.008533	1.381104	-0.183899
N161	N	-0.012665	1.479466	-0.233089
C162	C	0.785669	0.305569	0.000158
N163	N	0.822323	0.225257	0.000158
C164	C	0.373959	1.231834	-0.519245
N165	N	0.331813	1.288517	-0.520216
C166	C	0.243023	0.763848	0.124723
N167	N	0.247160	0.665480	0.173906
H168	H	-0.087372	1.347178	-0.166929
C169	C	0.543172	0.425267	0.176036
N170	N	0.561338	0.385009	0.268631
C171	C	0.703223	0.610801	0.124820
N172	N	0.707359	0.650905	0.174016
C173	C	0.382368	0.602814	-0.177622
N174	N	0.340068	0.644216	-0.218693
C175	C	0.066597	0.645121	0.184111
N176	N	0.070736	0.546751	0.233284
C177	C	-0.317711	1.262365	-0.124536
N178	N	-0.321848	1.360733	-0.173741
C179	C	0.335922	1.415343	0.124655
N180	N	0.376702	1.375201	0.173834
C181	C	0.335923	0.763877	0.124693
N182	N	0.376705	0.665521	0.173877
C183	C	0.785702	0.305541	0.707653
N184	N	0.822374	0.225226	0.787943
H185	H	0.701778	0.597002	0.308541
H186	H	0.241595	1.605021	0.107671
C187	C	0.796120	0.407337	0.481236
N188	N	0.836897	0.367192	0.472193
H189	H	0.683761	0.421147	0.699728
C190	C	0.139639	1.720700	-0.000021
N191	N	0.102985	1.801002	-0.000013
C192	C	0.222085	1.415410	-0.124626
N193	N	0.217949	1.375274	-0.173790
C194	C	0.589404	0.610827	0.527014
N195	N	0.548627	0.650956	0.536060
H196	H	0.388358	0.656036	0.320511
H197	H	0.388112	0.496992	0.479787
H198	H	0.545382	0.500241	0.006069
C199	C	0.139605	1.720732	-0.707476
N200	N	0.102933	1.801036	-0.787766
C201	C	0.451144	0.338600	0.480750
N202	N	0.467257	0.247352	0.479712
C203	C	0.451492	0.516055	0.302138
N204	N	0.467763	0.477925	0.247412
H205	H	0.463462	0.521987	0.668382
H206	H	0.241548	1.605124	-0.699549
H207	H	0.537328	0.281034	0.588336
C208	C	0.553801	0.331297	0.694776
N209	N	0.580108	0.300793	0.774743
C210	C	-0.203869	0.763783	0.124795
N211	N	-0.163088	0.665424	0.173986
H212	H	0.143241	1.228510	-0.107652
C213	C	0.384346	0.600263	0.595698
N214	N	0.342720	0.640537	0.599865
H215	H	0.543534	0.346614	-0.001664
C216	C	0.451592	0.338994	0.195338
N217	N	0.467804	0.248547	0.288142
H218	H	0.544635	0.501417	0.508971
H219	H	0.388078	1.212550	-0.678930
C220	C	0.383156	0.779810	-0.178438
N221	N	0.341269	0.873761	-0.219860
H222	H	0.537635	0.440617	0.430130
C223	C	0.467480	0.698647	0.515973
N224	N	0.489339	0.731310	0.541964
C225	C	-0.410612	1.262345	-0.124522
N226	N	-0.451393	1.360705	-0.173707
H227	H	0.396912	0.745776	0.430036
H228	H	0.445912	0.529967	0.162813
H229	H	-0.298213	0.797707	0.107831
H230	H	0.223519	1.228512	-0.107656
C231	C	-0.066153	0.645121	0.184149
N232	N	-0.062038	0.546781	0.233335
C233	C	-0.234173	1.381063	-0.183872
N234	N	-0.274955	1.479423	-0.233046
H235	H	-0.139848	1.347149	-0.166929
C236	C	0.383352	1.007877	-0.587611
N237	N	0.341478	1.057906	-0.639980
C238	C	0.545903	1.002748	-0.404756
N239	N	0.566067	1.049805	-0.400757
C240	C	0.542972	1.013513	-0.588420
N241	N	0.560998	1.066656	-0.640921
C242	C	0.382567	1.010415	-0.411447
N243	N	0.340288	1.061638	-0.411604
H244	H	0.445625	1.212782	-0.679706
C245	C	0.554750	0.801536	-0.484192
N246	N	0.581646	0.695012	-0.458174
H247	H	0.012699	0.679038	0.167173
H248	H	0.445715	1.213166	-0.520480
H249	H	0.461016	0.837167	-0.332626
H250	H	0.461659	0.835930	-0.490802
H251	H	0.603452	0.597059	-0.107539
C252	C	0.552235	0.797554	-0.304361
N253	N	0.577170	0.690049	-0.224734
