data_functionalizedCrystal
_audit_creation_method	'MofGen! by Chris Wilmer'
_symmetry_space_group_name_H-M	'P1'
_symmetry_Int_Tables_number	1
_symmetry_cell_setting	triclinic
loop_
_symmetry_equiv_pos_as_xyz
  x,y,z
_cell_length_a	17.640112
_cell_length_b	21.295417
_cell_length_c	17.640968
_cell_angle_alpha	101.231877
_cell_angle_beta	92.139080
_cell_angle_gamma	78.747054
loop_
_atom_site_label
_atom_site_type_symbol
_atom_site_fract_x
_atom_site_fract_y
_atom_site_fract_z
Zn1	Zn	1.247776	0.018087	-0.195080
Zn2	Zn	1.747776	0.518087	0.304920
Zn3	Zn	1.221991	0.147963	-0.068096
Zn4	Zn	1.721991	0.647963	0.431904
Zn5	Zn	1.095103	0.059036	-0.093725
Zn6	Zn	1.595103	0.559036	0.406275
Zn7	Zn	1.120733	0.139677	-0.220678
Zn8	Zn	1.620733	0.639677	0.279322
O9	O	1.171401	0.091191	-0.144395
O10	O	1.671401	0.591191	0.355605
O11	O	1.350627	0.021646	-0.156796
O12	O	1.850627	0.521646	0.343204
O13	O	1.183642	0.156772	0.034777
O14	O	1.683642	0.656772	0.534777
O15	O	1.115421	-0.034498	-0.107183
O16	O	1.615421	0.465502	0.392817
O17	O	1.331683	0.117065	-0.063502
O18	O	1.831683	0.617065	0.436498
O19	O	1.227589	-0.064583	-0.181648
O20	O	1.727589	0.435417	0.318352
O21	O	1.090418	0.091437	0.015948
O22	O	1.590418	0.591437	0.515948
O23	O	0.992232	0.083403	-0.132005
O24	O	1.492232	0.583403	0.367995
O25	O	1.159103	0.102943	-0.323556
O26	O	1.659103	0.602943	0.176444
O27	O	1.011063	0.142649	-0.225277
O28	O	1.511063	0.642649	0.274723
O29	O	1.252441	0.013611	-0.304749
O30	O	1.752441	0.513611	0.195251
O31	O	1.208494	0.234966	-0.088323
O32	O	1.708494	0.734966	0.411677
O33	O	1.134101	0.228878	-0.200425
O34	O	1.634101	0.728878	0.299575
C35	C	0.974093	0.116570	-0.184200
C36	C	1.474093	0.616570	0.315800
C37	C	0.889687	0.127440	-0.201247
C38	C	1.389687	0.627440	0.298753
C39	C	0.563038	0.008606	-0.014898
C40	C	1.063038	0.508606	0.485102
C41	C	0.483728	0.018831	-0.030926
C42	C	0.983728	0.518831	0.469074
C43	C	0.503356	0.080667	-0.127883
C44	C	1.003356	0.580667	0.372117
C45	C	0.582670	0.070446	-0.111865
C46	C	1.082670	0.570446	0.388135
C47	C	0.612504	0.034415	-0.055371
C48	C	1.112504	0.534415	0.444629
C49	C	0.632136	0.096254	-0.152338
C50	C	1.132136	0.596254	0.347662
C51	C	0.711442	0.086036	-0.136319
C52	C	1.211442	0.586036	0.363681
C53	C	0.741283	0.050010	-0.079826
C54	C	1.241283	0.550010	0.420174
C55	C	0.691810	0.024197	-0.039352
C56	C	1.191810	0.524197	0.460648
C57	C	0.602300	0.132288	-0.208828
C58	C	1.102300	0.632288	0.291172
C59	C	0.651766	0.158097	-0.249301
C60	C	1.151766	0.658097	0.250699
C61	C	0.731075	0.147876	-0.233286
C62	C	1.231075	0.647876	0.266714
C63	C	0.760915	0.111849	-0.176793
C64	C	1.260915	0.611849	0.323207
C65	C	0.780547	0.173688	-0.273760
C66	C	1.280547	0.673688	0.226240
C67	C	0.859853	0.163470	-0.257741
C68	C	1.359853	0.663470	0.242259
C69	C	0.840221	0.101631	-0.160774
C70	C	1.340221	0.601631	0.339226
C71	C	1.171305	0.254760	-0.144383
C72	C	1.671305	0.754760	0.355617
C73	C	1.171338	0.324722	-0.144390
C74	C	1.671338	0.824722	0.355610
C75	C	1.210344	0.827266	-0.086139
C76	C	1.710344	1.327266	0.413861
C77	C	1.210311	0.761531	-0.086124
C78	C	1.710311	1.261531	0.413876
C79	C	1.171518	0.725522	-0.144452
C80	C	1.671518	1.225522	0.355548
C81	C	1.132737	0.755257	-0.202788
C82	C	1.632737	1.255257	0.297212
C83	C	1.132764	0.820993	-0.202797
C84	C	1.632764	1.320993	0.297203
N85	N	1.179054	0.610161	-0.212096
N86	N	1.679054	1.110161	0.287904
N87	N	1.179032	0.547715	-0.212085
N88	N	1.679032	1.047715	0.287915
C89	C	1.171432	0.527465	-0.144428
C90	C	1.671432	1.027465	0.355572
N91	N	1.163870	0.572018	-0.076779
N92	N	1.663870	1.072018	0.423221
N93	N	1.163896	0.634469	-0.076791
N94	N	1.663896	1.134469	0.423209
C95	C	1.171484	0.654243	-0.144449
C96	C	1.671484	1.154243	0.355551
C97	C	1.210171	0.426461	-0.086077
C98	C	1.710171	0.926461	0.413923
C99	C	1.210133	0.360726	-0.086062
C100	C	1.710133	0.860726	0.413938
C101	C	1.132564	0.354452	-0.202732
C102	C	1.632564	0.854452	0.297268
C103	C	1.132597	0.420187	-0.202741
C104	C	1.632597	0.920187	0.297259
C105	C	1.171404	0.456187	-0.144414
C106	C	1.671404	0.956187	0.355586
C107	C	1.369480	0.065712	-0.104435
C108	C	1.869480	0.565712	0.395565
C109	C	1.453889	0.054855	-0.087406
C110	C	1.953889	0.554855	0.412594
C111	C	1.211507	0.052785	-0.342478
C112	C	1.711507	0.552785	0.157522
C113	C	1.228598	0.036419	-0.426889
C114	C	1.728598	0.536419	0.073111
C115	C	1.171522	0.926976	-0.144429
C116	C	1.671522	1.426976	0.355571
C117	C	1.171572	0.856993	-0.144470
C118	C	1.671572	1.356993	0.355530
C119	C	1.041856	0.215144	-0.753461
C120	C	1.541856	0.715144	-0.253461
C121	C	1.057931	0.199755	-0.832775
C122	C	1.557931	0.699755	-0.332775
C123	C	1.155116	0.106742	-0.813182
C124	C	1.655116	0.606742	-0.313182
C125	C	1.139046	0.122121	-0.733865
C126	C	1.639046	0.622121	-0.233865
C127	C	1.082416	0.176323	-0.704011
C128	C	1.582416	0.676323	-0.204011
C129	C	1.179606	0.083301	-0.684416
C130	C	1.679606	0.583301	-0.184416
C131	C	1.163540	0.098681	-0.605106
C132	C	1.663540	0.598681	-0.105106
C133	C	1.106914	0.152881	-0.575245
C134	C	1.606914	0.652881	-0.075245
C135	C	1.066350	0.191703	-0.624701
C136	C	1.566350	0.691703	-0.124701
C137	C	1.236239	0.029102	-0.714271
C138	C	1.736239	0.529102	-0.214271
C139	C	1.276799	-0.009719	-0.664821
C140	C	1.776799	0.490281	-0.164821
C141	C	1.260730	0.005659	-0.585510
C142	C	1.760730	0.505659	-0.085510
C143	C	1.204104	0.059859	-0.555649
C144	C	1.704104	0.559859	-0.055649
C145	C	1.301294	-0.033163	-0.536054
C146	C	1.801294	0.466837	-0.036054
C147	C	1.285228	-0.017783	-0.456744
C148	C	1.785228	0.482217	0.043256
C149	C	1.188038	0.075239	-0.476339
C150	C	1.688038	0.575239	0.023661
C151	C	1.131495	0.129396	0.052927
C152	C	1.631495	0.629396	0.552927
C153	C	1.114551	0.145566	0.137367
C154	C	1.614551	0.645566	0.637367
H155	H	0.443455	-0.002194	0.002031
H156	H	0.943455	0.497806	0.502031
C157	C	1.252085	0.328451	-0.022656
C158	C	1.752085	0.828451	0.477344
C159	C	1.199247	0.305750	0.017416
C160	C	1.699247	0.805750	0.517416
C161	C	1.237863	0.276023	0.075837
C162	C	1.737863	0.776023	0.575837
H163	H	1.291019	0.292845	-0.044971
H164	H	1.791019	0.792845	0.455029
H165	H	1.275177	0.359300	0.012118
H166	H	1.775177	0.859300	0.512118
H167	H	1.176166	0.274904	-0.017353
H168	H	1.676166	0.774904	0.482647
H169	H	1.160310	0.341344	0.039748
H170	H	1.660310	0.841344	0.539748
H171	H	1.260955	0.306871	0.110611
H172	H	1.760955	0.806871	0.610611
H173	H	1.276796	0.240419	0.053515
H174	H	1.776796	0.740419	0.553515
H175	H	1.202017	0.260622	0.103038
H176	H	1.702017	0.760622	0.603038
C177	C	1.362833	-0.092015	-0.568319
C178	C	1.862833	0.407985	-0.068319
C179	C	1.394929	-0.122713	-0.508034
C180	C	1.894929	0.377287	-0.008034
C181	C	1.451629	-0.176925	-0.537724
C182	C	1.951629	0.323075	-0.037724
H183	H	1.340159	-0.121776	-0.605114
H184	H	1.840159	0.378224	-0.105114
H185	H	1.402210	-0.078200	-0.592548
H186	H	1.902210	0.421800	-0.092548
H187	H	1.355560	-0.136530	-0.483818
H188	H	1.855560	0.363470	0.016182
H189	H	1.417619	-0.092971	-0.471234
H190	H	1.917619	0.407029	0.028766
H191	H	1.491005	-0.163110	-0.561953
H192	H	1.991005	0.336890	-0.061953
H193	H	1.428948	-0.206680	-0.574519
H194	H	1.928948	0.293320	-0.074519
H195	H	1.473418	-0.197757	-0.496825
H196	H	1.973418	0.302243	0.003175
H197	H	1.318255	-0.049396	-0.416480
H198	H	1.818255	0.450604	0.083520
C199	C	1.216542	0.047904	-0.845753
C200	C	1.716542	0.547904	-0.345753
C201	C	1.221920	0.042734	-0.925797
C202	C	1.721920	0.542734	-0.425797
C203	C	1.278490	-0.011466	-0.955827
C204	C	1.778490	0.488534	-0.455827
H205	H	1.264976	0.053011	-0.822540
H206	H	1.764976	0.553011	-0.322540
H207	H	1.202823	0.009533	-0.835051
H208	H	1.702823	0.509533	-0.335051
H209	H	1.235644	0.081096	-0.936492
H210	H	1.735644	0.581096	-0.436492
H211	H	1.173501	0.037617	-0.949031
H212	H	1.673501	0.537617	-0.449031
H213	H	1.264771	-0.049838	-0.945125
H214	H	1.764771	0.450162	-0.445125
H215	H	1.326919	-0.006354	-0.932607
H216	H	1.826919	0.493646	-0.432607
H217	H	1.282142	-0.014985	-1.010139
H218	H	1.782142	0.485015	-0.510139
H219	H	1.241769	0.455774	-0.038582
H220	H	1.741769	0.955774	0.461418
C221	C	0.470819	0.119737	-0.189217
C222	C	0.970819	0.619737	0.310783
C223	C	0.390780	0.123150	-0.194598
C224	C	0.890780	0.623150	0.305402
C225	C	0.360784	0.159127	-0.251100
C226	C	0.860784	0.659127	0.248900
H227	H	0.481451	0.162546	-0.175461
H228	H	0.981451	0.662546	0.324539
H229	H	0.494125	0.099008	-0.237659
H230	H	0.994125	0.599008	0.262341
H231	H	0.367481	0.143880	-0.146166
H232	H	0.867481	0.643880	0.353834
H233	H	0.380126	0.080351	-0.208363
H234	H	0.880126	0.580351	0.291637
H235	H	0.384091	0.138398	-0.299542
H236	H	0.884091	0.638398	0.200458
H237	H	0.371422	0.201933	-0.237339
H238	H	0.871422	0.701933	0.262661
H239	H	0.306477	0.161442	-0.254763
H240	H	0.806477	0.661442	0.245237
C241	C	1.090520	0.315246	-0.266015
C242	C	1.590520	0.815246	0.233985
C243	C	1.098808	0.251310	-0.253534
C244	C	1.598808	0.751310	0.246466
C245	C	1.060093	0.215171	-0.311820
C246	C	1.560093	0.715171	0.188180
H247	H	1.037229	0.334705	-0.265206
H248	H	1.537229	0.834705	0.234794
H249	H	1.111940	0.314633	-0.314834
H250	H	1.611940	0.814633	0.185166
H251	H	1.077385	0.251926	-0.204728
H252	H	1.577385	0.751926	0.295272
H253	H	1.152090	0.231833	-0.254351
H254	H	1.652090	0.731833	0.245649
H255	H	1.081513	0.214558	-0.360639
H256	H	1.581513	0.714558	0.139361
H257	H	1.006804	0.234635	-0.311006
H258	H	1.506804	0.734635	0.188994
H259	H	1.065717	0.171785	-0.303363
H260	H	1.565717	0.671785	0.196637
H261	H	0.900130	0.184485	-0.290699
H262	H	1.400130	0.684485	0.209301
H263	H	0.864515	0.072280	-0.114782
H264	H	1.364515	0.572280	0.385218
H265	H	1.101149	0.725936	-0.250279
H266	H	1.601149	1.225936	0.249721
H267	H	1.024898	0.231372	-0.873035
H268	H	1.524898	0.731372	-0.373035
C269	C	0.827385	0.039051	-0.062420
C270	C	1.327385	0.539051	0.437580
C271	C	0.849656	0.099361	-0.037639
C272	C	1.349656	0.599361	0.462361
C273	C	0.928968	0.089293	-0.021605
C274	C	1.428968	0.589293	0.478395
H275	H	0.838164	0.013933	-0.022962
H276	H	1.338164	0.513933	0.477038
H277	H	0.855303	0.016436	-0.107824
H278	H	1.355303	0.516436	0.392176
H279	H	0.821747	0.121967	0.007759
H280	H	1.321747	0.621967	0.507759
H281	H	0.838897	0.124488	-0.077087
H282	H	1.338897	0.624488	0.422913
H283	H	0.956886	0.066678	-0.067008
H284	H	1.456886	0.566678	0.432992
H285	H	0.939739	0.064173	0.017852
H286	H	1.439739	0.564173	0.517852
H287	H	0.944090	0.130211	-0.004796
H288	H	1.444090	0.630211	0.495204
C289	C	1.004980	0.250643	-0.592287
C290	C	1.504980	0.750643	-0.092287
C291	C	1.025401	0.307065	-0.608214
C292	C	1.525401	0.807065	-0.108214
C293	C	0.968902	0.361373	-0.578350
C294	C	1.468902	0.861373	-0.078350
H295	H	0.956551	0.245580	-0.615542
H296	H	1.456551	0.745580	-0.115542
H297	H	1.001242	0.254279	-0.537961
H298	H	1.501242	0.754279	-0.037961
H299	H	1.029130	0.303429	-0.662529
H300	H	1.529130	0.803429	-0.162529
H301	H	1.073820	0.312149	-0.584959
H302	H	1.573820	0.812149	-0.084959
H303	H	0.965164	0.365010	-0.524024
H304	H	1.465164	0.865010	-0.024024
H305	H	0.920477	0.356304	-0.601607
H306	H	1.420477	0.856304	-0.101607
H307	H	0.982753	0.399662	-0.589146
H308	H	1.482753	0.899662	-0.089146
H309	H	0.716105	-0.005153	0.006640
H310	H	1.216105	0.494847	0.506640
C311	C	1.090659	0.853145	-0.266224
C312	C	1.590659	1.353145	0.233776
C313	C	1.056690	0.807540	-0.317314
C314	C	1.556690	1.307540	0.182686
C315	C	1.017907	0.837133	-0.375759
C316	C	1.517907	1.337133	0.124241
H317	H	1.051670	0.888710	-0.243917
H318	H	1.551670	1.388710	0.256083
H319	H	1.126391	0.868580	-0.293532
H320	H	1.626391	1.368580	0.206468
H321	H	1.020962	0.792114	-0.290010
H322	H	1.520962	1.292114	0.209990
H323	H	1.095662	0.771973	-0.339639
H324	H	1.595662	1.271973	0.160361
H325	H	1.053639	0.852568	-0.403066
H326	H	1.553639	1.352568	0.096934
H327	H	0.978922	0.872697	-0.353445
H328	H	1.478922	1.372697	0.146555
H329	H	0.994861	0.806193	-0.410434
H330	H	1.494861	1.306193	0.089566
C331	C	0.980486	0.274083	-0.721047
C332	C	1.480486	0.774083	-0.221047
C333	C	1.000907	0.330505	-0.736974
C334	C	1.500907	0.830505	-0.236974
C335	C	0.944408	0.384814	-0.707110
C336	C	1.444408	0.884814	-0.207110
H337	H	0.932057	0.269020	-0.744302
H338	H	1.432057	0.769020	-0.244302
H339	H	0.976748	0.277720	-0.666721
H340	H	1.476748	0.777720	-0.166721
H341	H	1.004636	0.326869	-0.791289
H342	H	1.504636	0.826869	-0.291289
H343	H	1.049326	0.335589	-0.713719
H344	H	1.549326	0.835589	-0.213719
H345	H	0.940670	0.388450	-0.652784
H346	H	1.440670	0.888450	-0.152784
H347	H	0.895983	0.379744	-0.730367
H348	H	1.395983	0.879744	-0.230367
H349	H	0.958259	0.423103	-0.717906
H350	H	1.458259	0.923103	-0.217906
H351	H	0.587333	-0.020744	0.031094
H352	H	1.087333	0.479256	0.531094
C353	C	1.090496	0.452339	-0.266168
C354	C	1.590496	0.952339	0.233832
C355	C	1.056531	0.406732	-0.317258
C356	C	1.556531	0.906732	0.182742
C357	C	1.017746	0.436324	-0.375703
C358	C	1.517746	0.936324	0.124297
H359	H	1.051505	0.487902	-0.243861
H360	H	1.551505	0.987902	0.256139
H361	H	1.126226	0.467777	-0.293474
H362	H	1.626226	0.967777	0.206526
H363	H	1.020804	0.391304	-0.289955
H364	H	1.520804	0.891304	0.210045
H365	H	1.095505	0.371167	-0.339584
H366	H	1.595505	0.871167	0.160416
H367	H	1.053476	0.451762	-0.403010
H368	H	1.553476	0.951762	0.096990
H369	H	0.978759	0.471887	-0.353390
H370	H	1.478759	0.971887	0.146610
H371	H	0.994702	0.405384	-0.410379
H372	H	1.494702	0.905384	0.089621
H373	H	1.249320	0.016583	-0.778851
H374	H	1.749320	0.516583	-0.278851
H375	H	1.141906	0.119363	-0.452034
H376	H	1.641906	0.619363	0.047966
H377	H	0.756242	0.203029	-0.319752
H378	H	1.256242	0.703029	0.180248
C379	C	0.619515	0.197250	-0.310646
C380	C	1.119515	0.697250	0.189354
C381	C	0.679812	0.217674	-0.342653
C382	C	1.179812	0.717674	0.157347
C383	C	0.650134	0.253745	-0.399164
C384	C	1.150134	0.753745	0.100836
H385	H	0.595316	0.170822	-0.350094
H386	H	1.095316	0.670822	0.149906
H387	H	0.582687	0.234305	-0.287811
H388	H	1.082687	0.734305	0.212189
H389	H	0.716626	0.180625	-0.365488
H390	H	1.216626	0.680625	0.134512
H391	H	0.704017	0.244111	-0.303224
H392	H	1.204017	0.744111	0.196776
H393	H	0.613305	0.290800	-0.376330
H394	H	1.113305	0.790800	0.123670
H395	H	0.625935	0.227312	-0.438608
H396	H	1.125935	0.727312	0.061392
H397	H	0.691038	0.267612	-0.420884
H398	H	1.191038	0.767612	0.079116
H399	H	0.537723	0.140607	-0.221869
H400	H	1.037723	0.640607	0.278131
H401	H	1.322910	-0.053848	-0.689140
H402	H	1.822910	0.446152	-0.189140
C403	C	1.252481	0.866251	-0.022720
C404	C	1.752481	1.366251	0.477280
C405	C	1.286411	0.826147	0.028379
C406	C	1.786411	1.326147	0.528379
C407	C	1.325223	0.862042	0.086817
C408	C	1.825223	1.362042	0.586817
H409	H	1.291492	0.881982	-0.045032
H410	H	1.791492	1.381982	0.454968
H411	H	1.216772	0.902071	0.004582
H412	H	1.716772	1.402071	0.504582
H413	H	1.322117	0.790339	0.001081
H414	H	1.822117	1.290339	0.501081
H415	H	1.247417	0.810415	0.050711
H416	H	1.747417	1.310415	0.550711
H417	H	1.289515	0.897862	0.114119
H418	H	1.789515	1.397862	0.614119
H419	H	1.364231	0.877772	0.064498
H420	H	1.864231	1.377772	0.564498
H421	H	1.348244	0.834839	0.121499
H422	H	1.848244	1.334839	0.621499
H423	H	1.241885	0.737323	-0.038623
H424	H	1.741885	1.237323	0.461377
H425	H	1.093837	0.165405	-0.510664
H426	H	1.593837	0.665405	-0.010664
