data_functionalizedCrystal
_audit_creation_method	'MofGen! by Chris Wilmer'
_symmetry_space_group_name_H-M	'P1'
_symmetry_Int_Tables_number	1
_symmetry_cell_setting	triclinic
loop_
_symmetry_equiv_pos_as_xyz
  x,y,z
_cell_length_a	17.640112
_cell_length_b	29.839131
_cell_length_c	17.640968
_cell_angle_alpha	78.759880
_cell_angle_beta	92.139080
_cell_angle_gamma	101.262129
loop_
_atom_site_label
_atom_site_type_symbol
_atom_site_fract_x
_atom_site_fract_y
_atom_site_fract_z
Zn1	Zn	1.247773	-0.012909	-0.195077
Zn2	Zn	1.747773	0.487091	0.304923
Zn3	Zn	1.221962	-0.105604	-0.068070
Zn4	Zn	1.721962	0.394396	0.431930
Zn5	Zn	1.095092	-0.042135	-0.093715
Zn6	Zn	1.595092	0.457865	0.406285
Zn7	Zn	1.120706	-0.099690	-0.220653
Zn8	Zn	1.620706	0.400310	0.279347
O9	O	1.171383	-0.065084	-0.144379
O10	O	1.671383	0.434916	0.355621
O11	O	1.350622	-0.015449	-0.156792
O12	O	1.850622	0.484551	0.343208
O13	O	1.183611	-0.111891	0.034805
O14	O	1.683611	0.388109	0.534805
O15	O	1.115428	0.024622	-0.107189
O16	O	1.615428	0.524622	0.392811
O17	O	1.331660	-0.083552	-0.063481
O18	O	1.831660	0.416448	0.436519
O19	O	1.227601	0.046094	-0.181659
O20	O	1.727601	0.546094	0.318341
O21	O	1.090400	-0.065260	0.015964
O22	O	1.590400	0.434740	0.515964
O23	O	0.992216	-0.059526	-0.131990
O24	O	1.492216	0.440474	0.368010
O25	O	1.159083	-0.073472	-0.323538
O26	O	1.659083	0.426528	0.176462
O27	O	1.011034	-0.101811	-0.225251
O28	O	1.511034	0.398189	0.274749
O29	O	1.252438	-0.009715	-0.304746
O30	O	1.752438	0.490285	0.195254
O31	O	1.208448	-0.167699	-0.088282
O32	O	1.708448	0.332301	0.411718
O33	O	1.134055	-0.163354	-0.200384
O34	O	1.634055	0.336646	0.299616
C35	C	0.974070	-0.083198	-0.184179
C36	C	1.474070	0.416802	0.315821
C37	C	0.889662	-0.090956	-0.201224
C38	C	1.389662	0.409044	0.298776
C39	C	1.171254	-0.181827	-0.144338
C40	C	1.671254	0.318173	0.355662
C41	C	1.171274	-0.231759	-0.144332
C42	C	1.671274	0.268241	0.355668
C43	C	0.563036	-0.006143	-0.014896
C44	C	1.063036	0.493857	0.485104
C45	C	0.483724	-0.013440	-0.030923
C46	C	0.983724	0.486560	0.469077
C47	C	0.503340	-0.057573	-0.127868
C48	C	1.003340	0.442427	0.372132
C49	C	0.582656	-0.050278	-0.111852
C50	C	1.082656	0.449722	0.388148
C51	C	0.612497	-0.024563	-0.055365
C52	C	1.112497	0.475437	0.444635
C53	C	0.632117	-0.068698	-0.152321
C54	C	1.132117	0.431302	0.347679
C55	C	0.711425	-0.061406	-0.136304
C56	C	1.211425	0.438594	0.363696
C57	C	0.741273	-0.035693	-0.079817
C58	C	1.241273	0.464307	0.420183
C59	C	0.691806	-0.017270	-0.039348
C60	C	1.191806	0.482730	0.460652
C61	C	0.602274	-0.094416	-0.208804
C62	C	1.102274	0.405584	0.291196
C63	C	0.651735	-0.112837	-0.249273
C64	C	1.151735	0.387163	0.250727
C65	C	0.731045	-0.105541	-0.233260
C66	C	1.231045	0.394459	0.266740
C67	C	0.760893	-0.079828	-0.176773
C68	C	1.260893	0.420172	0.323227
C69	C	0.780512	-0.123964	-0.273729
C70	C	1.280512	0.376036	0.226271
C71	C	0.859821	-0.116671	-0.257712
C72	C	1.359821	0.383329	0.242288
C73	C	0.840201	-0.072536	-0.160756
C74	C	1.340201	0.427464	0.339244
C75	C	1.229795	-0.530161	-0.183227
C76	C	1.729795	-0.030161	0.316773
C77	C	1.229887	-0.717820	-0.183256
C78	C	1.729887	-0.217820	0.316744
O79	O	1.279521	-0.732543	-0.216300
O80	O	1.779521	-0.232543	0.283700
N81	N	1.171529	-0.752503	-0.144437
N82	N	1.671529	-0.252503	0.355563
C83	C	1.113141	-0.740269	-0.105613
C84	C	1.613141	-0.240269	0.394387
O85	O	1.063502	-0.774075	-0.072602
O86	O	1.563502	-0.274075	0.427398
C87	C	1.113047	-0.552610	-0.105589
C88	C	1.613047	-0.052610	0.394411
C89	C	1.171413	-0.517929	-0.144403
C90	C	1.671413	-0.017929	0.355597
C91	C	1.288156	-0.495481	-0.222039
C92	C	1.788156	0.004519	0.277961
C93	C	1.288135	-0.448569	-0.222028
C94	C	1.788135	0.051431	0.277972
C95	C	1.229753	-0.436337	-0.183204
C96	C	1.729753	0.063663	0.316796
C97	C	1.171392	-0.471018	-0.144392
C98	C	1.671392	0.028982	0.355608
C99	C	1.054657	-0.540377	-0.066769
C100	C	1.554657	-0.040377	0.433231
C101	C	1.054638	-0.493458	-0.066768
C102	C	1.554638	0.006542	0.433232
C103	C	1.113004	-0.458777	-0.105583
C104	C	1.613004	0.041223	0.394417
C105	C	1.112989	-0.411874	-0.105558
C106	C	1.612989	0.088126	0.394442
N107	N	1.171347	-0.377191	-0.144376
N108	N	1.671347	0.122809	0.355624
C109	C	1.229729	-0.389423	-0.183200
C110	C	1.729729	0.110577	0.316800
C111	C	1.113196	-0.838792	-0.105627
C112	C	1.613196	-0.338792	0.394373
C113	C	1.113220	-0.885706	-0.105631
C114	C	1.613220	-0.385706	0.394369
C115	C	1.229965	-0.863254	-0.183276
C116	C	1.729965	-0.363254	0.316724
C117	C	1.229943	-0.816339	-0.183266
C118	C	1.729943	-0.316339	0.316734
C119	C	1.171554	-0.804109	-0.144445
C120	C	1.671554	-0.304109	0.355555
C121	C	1.229680	-0.290906	-0.183173
C122	C	1.729680	0.209094	0.316827
C123	C	1.229656	-0.243991	-0.183155
C124	C	1.729656	0.256009	0.316845
C125	C	1.112909	-0.266447	-0.105515
C126	C	1.612909	0.233553	0.394485
C127	C	1.112935	-0.313358	-0.105528
C128	C	1.612935	0.186642	0.394472
C129	C	1.171325	-0.325585	-0.144363
C130	C	1.671325	0.174415	0.355637
O131	O	1.063376	-0.397117	-0.072537
O132	O	1.563376	0.102883	0.427463
O133	O	1.279351	-0.355610	-0.216219
O134	O	1.779351	0.144390	0.283781
C135	C	1.229817	-0.577073	-0.183238
C136	C	1.729817	-0.077073	0.316762
C137	C	1.171456	-0.611753	-0.144426
C138	C	1.671456	-0.111753	0.355574
C139	C	1.113074	-0.599521	-0.105602
C140	C	1.613074	-0.099521	0.394398
C141	C	1.171480	-0.658667	-0.144430
C142	C	1.671480	-0.158667	0.355570
C143	C	1.229862	-0.670899	-0.183254
C144	C	1.729862	-0.170899	0.316746
C145	C	1.288220	-0.636216	-0.222072
C146	C	1.788220	-0.136216	0.277928
C147	C	1.288199	-0.589304	-0.222061
C148	C	1.788199	-0.089304	0.277939
C149	C	1.054716	-0.634204	-0.066784
C150	C	1.554716	-0.134204	0.433216
C151	C	1.054742	-0.681115	-0.066797
C152	C	1.554742	-0.181115	0.433203
C153	C	1.113124	-0.693347	-0.105621
C154	C	1.613124	-0.193347	0.394379
C155	C	1.369467	-0.046900	-0.104423
C156	C	1.869467	0.453100	0.395577
C157	C	1.453879	-0.039151	-0.087396
C158	C	1.953879	0.460849	0.412604
C159	C	1.211497	-0.037673	-0.342469
C160	C	1.711497	0.462327	0.157531
C161	C	1.228591	-0.025993	-0.426883
C162	C	1.728591	0.474007	0.073117
C163	C	1.171536	0.052118	-0.144432
C164	C	1.671536	0.552118	0.355568
C165	C	1.171602	0.102062	-0.144455
C166	C	1.671602	0.602062	0.355545
C167	C	1.041813	-0.153552	-0.753423
C168	C	1.541813	0.346448	-0.253423
C169	C	1.057892	-0.142569	-0.832739
C170	C	1.557892	0.357431	-0.332739
C171	C	1.155095	-0.076184	-0.813163
C172	C	1.655095	0.423816	-0.313163
C173	C	1.139022	-0.087160	-0.733844
C174	C	1.639022	0.412840	-0.233844
C175	C	1.082381	-0.125845	-0.703980
C176	C	1.582381	0.374155	-0.203980
C177	C	1.179589	-0.059453	-0.684401
C178	C	1.679589	0.440547	-0.184401
C179	C	1.163520	-0.070430	-0.605088
C180	C	1.663520	0.429570	-0.105088
C181	C	1.106884	-0.109114	-0.575218
C182	C	1.606884	0.390886	-0.075218
C183	C	1.066312	-0.136822	-0.624667
C184	C	1.566312	0.363178	-0.124667
C185	C	1.236234	-0.020771	-0.714266
C186	C	1.736234	0.479229	-0.214266
C187	C	1.276801	0.006936	-0.664823
C188	C	1.776801	0.506936	-0.164823
C189	C	1.260729	-0.004039	-0.585509
C190	C	1.760729	0.495961	-0.085509
C191	C	1.204092	-0.042722	-0.555639
C192	C	1.704092	0.457278	-0.055639
C193	C	1.301300	0.023669	-0.536060
C194	C	1.801300	0.523669	-0.036060
C195	C	1.285231	0.012692	-0.456747
C196	C	1.785231	0.512692	0.043253
C197	C	1.188023	-0.053699	-0.476326
C198	C	1.688023	0.446301	0.023674
C199	C	1.131469	-0.092352	0.052950
C200	C	1.631469	0.407648	0.552950
C201	C	1.114523	-0.103893	0.137393
C202	C	1.614523	0.396107	0.637393
H203	H	0.864501	-0.051587	-0.114769
H204	H	1.364501	0.448413	0.385231
H205	H	1.201214	-0.044688	-0.837489
H206	H	1.701214	0.455312	-0.337489
H207	H	1.065646	-0.828839	-0.074012
H208	H	1.565646	-0.328839	0.425988
H209	H	1.007173	-0.624250	-0.035170
H210	H	1.507173	-0.124250	0.464830
H211	H	0.587337	0.014806	0.031090
H212	H	1.087337	0.514806	0.531090
H213	H	0.443455	0.001566	0.002030
H214	H	0.943455	0.501566	0.502030
H215	H	0.805851	-0.029757	-0.066775
H216	H	1.305851	0.470243	0.433225
H217	H	1.141882	-0.085191	-0.452013
H218	H	1.641882	0.414809	0.047987
H219	H	1.093804	-0.118052	-0.510635
H220	H	1.593804	0.381948	-0.010635
C221	C	0.724636	0.011020	0.022789
C222	C	1.224636	0.511020	0.522789
N223	N	0.749363	0.032327	0.069589
N224	N	1.249363	0.532327	0.569589
H225	H	1.020171	-0.168314	-0.600354
H226	H	1.520171	0.331686	-0.100354
H227	H	1.065376	-0.256481	-0.073902
H228	H	1.565376	0.243519	0.426098
C229	C	0.470506	-0.085859	-0.190004
C230	C	0.970506	0.414141	0.309996
N231	N	0.445776	-0.107162	-0.236808
N232	N	0.945776	0.392838	0.263192
H233	H	1.007213	-0.709351	-0.035182
H234	H	1.507213	-0.209351	0.464818
H235	H	1.347422	0.055164	-0.560387
H236	H	1.847422	0.555164	-0.060387
C237	C	0.618900	-0.141122	-0.311409
C238	C	1.118900	0.358878	0.188591
N239	N	0.594170	-0.162425	-0.358213
N240	N	1.094170	0.337575	0.141787
H241	H	1.335660	-0.420333	-0.253636
H242	H	1.835660	0.079667	0.246364
H243	H	0.756202	-0.144905	-0.319716
H244	H	1.256202	0.355095	0.180284
H245	H	1.249317	-0.011835	-0.778848
H246	H	1.749317	0.488165	-0.278848
H247	H	0.995673	-0.185044	-0.729110
H248	H	1.495673	0.314956	-0.229110
H249	H	0.900094	-0.131670	-0.290666
H250	H	1.400094	0.368330	0.209334
C251	C	1.329856	0.043172	-0.402357
C252	C	1.829856	0.543172	0.097643
N253	N	1.363471	0.066129	-0.361390
N254	N	1.863471	0.566129	0.138610
C255	C	1.293868	-0.205843	-0.225854
C256	C	1.793868	0.294157	0.274146
N257	N	1.342230	-0.177112	-0.258013
N258	N	1.842230	0.322888	0.241987
H259	H	1.277223	-0.300854	-0.214802
H260	H	1.777223	0.199146	0.285198
H261	H	0.537695	-0.100353	-0.221844
H262	H	1.037695	0.399647	0.278156
H263	H	1.335699	-0.505433	-0.253658
H264	H	1.835699	-0.005433	0.246342
C265	C	1.294147	-0.778193	-0.225968
C266	C	1.794147	-0.278193	0.274032
N267	N	1.342508	-0.749463	-0.258135
N268	N	1.842508	-0.249463	0.241865
C269	C	1.339098	0.049492	-0.697684
C270	C	1.839098	0.549492	-0.197684
N271	N	1.386017	0.081547	-0.722435
N272	N	1.886017	0.581547	-0.222435
C273	C	1.294182	-0.876717	-0.225987
C274	C	1.794182	-0.376717	0.274013
N275	N	1.342545	-0.886860	-0.258161
N276	N	1.842545	-0.386860	0.241839
C277	C	1.013258	-0.173051	-0.887126
C278	C	1.513258	0.326949	-0.387126
N279	N	0.979640	-0.196010	-0.928089
N280	N	1.479640	0.303990	-0.428089
H281	H	1.065699	-0.913941	-0.074015
H282	H	1.565699	-0.413941	0.425985
H283	H	1.007087	-0.483504	-0.035157
H284	H	1.507087	0.016496	0.464843
C285	C	0.990444	-0.578517	-0.024076
C286	C	1.490444	-0.078517	0.475924
N287	N	0.942073	-0.607243	0.008081
N288	N	1.442073	-0.107243	0.508081
C289	C	1.352407	-0.551160	-0.264760
C290	C	1.852407	-0.051160	0.235240
N291	N	1.400773	-0.522432	-0.296922
N292	N	1.900773	-0.022432	0.203078
C293	C	1.048733	-0.351509	-0.062826
C294	C	1.548733	0.148491	0.437174
N295	N	1.000371	-0.380241	-0.030667
N296	N	1.500371	0.119759	0.469333
H297	H	1.335759	-0.646183	-0.253680
H298	H	1.835759	-0.146183	0.246320
