data_functionalizedCrystal
_audit_creation_method	'MofGen! by Chris Wilmer'
_symmetry_space_group_name_H-M	'P1'
_symmetry_Int_Tables_number	1
_symmetry_cell_setting	triclinic
loop_
_symmetry_equiv_pos_as_xyz
  x,y,z
_cell_length_a	18.101398
_cell_length_b	21.295417
_cell_length_c	18.101390
_cell_angle_alpha	90.036014
_cell_angle_beta	90.010099
_cell_angle_gamma	90.025259
loop_
_atom_site_label
_atom_site_type_symbol
_atom_site_fract_x
_atom_site_fract_y
_atom_site_fract_z
Zn1	Zn	1.132131	-0.250660	0.418535
Zn2	Zn	1.465464	0.082673	0.751868
Zn3	Zn	1.798797	0.416007	1.085201
Zn4	Zn	1.132029	-0.355940	0.294686
Zn5	Zn	1.465362	-0.022607	0.628020
Zn6	Zn	1.798696	0.310727	0.961353
Zn7	Zn	1.008289	-0.250680	0.294727
Zn8	Zn	1.341622	0.082653	0.628061
Zn9	Zn	1.674956	0.415986	0.961394
Zn10	Zn	1.008243	-0.355887	0.418507
Zn11	Zn	1.341577	-0.022554	0.751840
Zn12	Zn	1.674910	0.310780	1.085173
O13	O	1.070173	-0.303292	0.356614
O14	O	1.403506	0.030041	0.689947
O15	O	1.736840	0.363375	1.023280
O16	O	1.235750	-0.264639	0.402101
O17	O	1.569083	0.068694	0.735434
O18	O	1.902417	0.402028	1.068767
O19	O	1.115591	-0.342008	0.191059
O20	O	1.448924	-0.008675	0.524392
O21	O	1.782258	0.324659	0.857726
O22	O	1.024778	-0.162588	0.311179
O23	O	1.358112	0.170745	0.644513
O24	O	1.691445	0.504078	0.977846
O25	O	1.235675	-0.341988	0.311110
O26	O	1.569009	-0.008655	0.644443
O27	O	1.902342	0.324679	0.977776
O28	O	1.115765	-0.162573	0.402140
O29	O	1.449098	0.170760	0.735474
O30	O	1.782431	0.504093	1.068807
O31	O	1.024680	-0.264674	0.191089
O32	O	1.358013	0.068659	0.524422
O33	O	1.691346	0.401992	0.857756
O34	O	0.904650	-0.264623	0.311152
O35	O	1.237983	0.068711	0.644486
O36	O	1.571317	0.402044	0.977819
O37	O	1.024701	-0.341898	0.522143
O38	O	1.358034	-0.008564	0.855477
O39	O	1.691368	0.324769	1.188810
O40	O	0.904617	-0.341918	0.402092
O41	O	1.237950	-0.008584	0.735426
O42	O	1.571283	0.324749	1.068759
O43	O	1.115720	-0.264588	0.522164
O44	O	1.449054	0.068746	0.855497
O45	O	1.782387	0.402079	1.188831
O46	O	1.115547	-0.444022	0.311083
O47	O	1.448880	-0.110689	0.644416
O48	O	1.782213	0.222644	0.977749
O49	O	1.024602	-0.443983	0.402053
O50	O	1.357936	-0.110650	0.735386
O51	O	1.691269	0.222683	1.068719
C52	C	0.877762	-0.303267	0.356624
C53	C	1.211096	0.030066	0.689957
C54	C	1.544429	0.363400	1.023291
C55	C	0.795448	-0.303272	0.356646
C56	C	1.128782	0.030062	0.689979
C57	C	1.462115	0.363395	1.023313
C58	C	0.496357	-0.303309	0.356615
C59	C	0.829691	0.030025	0.689948
C60	C	1.163024	0.363358	1.023282
C61	C	0.527686	-0.352176	0.413550
C62	C	0.861020	-0.018842	0.746883
C63	C	1.194353	0.314491	1.080216
C64	C	0.613305	-0.352023	0.413784
C65	C	0.946638	-0.018689	0.747117
C66	C	1.279971	0.314644	1.080450
C67	C	0.644740	-0.303291	0.356630
C68	C	0.978073	0.030042	0.689964
C69	C	1.311407	0.363376	1.023297
C70	C	0.613684	-0.236986	0.377962
C71	C	0.947017	0.096347	0.711296
C72	C	1.280350	0.429680	1.044629
C73	C	0.528039	-0.237280	0.378367
C74	C	0.861372	0.096053	0.711701
C75	C	1.194705	0.429387	1.045034
C76	C	0.527905	-0.320162	0.278211
C77	C	0.861238	0.013172	0.611545
C78	C	1.194571	0.346505	0.944878
C79	C	0.613555	-0.321616	0.278630
C80	C	0.946888	0.011717	0.611963
C81	C	1.280221	0.345050	0.945297
C82	C	0.728599	-0.303277	0.356638
C83	C	1.061933	0.030057	0.689971
C84	C	1.395266	0.363390	1.023305
C85	C	0.412498	-0.303318	0.356610
C86	C	0.745831	0.030015	0.689943
C87	C	1.079165	0.363348	1.023276
C88	C	1.070079	-0.466843	0.356576
C89	C	1.403412	-0.133510	0.689910
C90	C	1.736745	0.199823	1.023243
C91	C	1.070106	-0.536812	0.356585
C92	C	1.403439	-0.203478	0.689918
C93	C	1.736773	0.129855	1.023252
C94	C	1.117455	-0.569613	0.403982
C95	C	1.450789	-0.236280	0.737315
C96	C	1.784122	0.097054	1.070649
C97	C	1.117481	-0.635356	0.404000
C98	C	1.450815	-0.302022	0.737334
C99	C	1.784148	0.031311	1.070667
C100	C	1.070166	-0.668294	0.356608
C101	C	1.403499	-0.334961	0.689942
C102	C	1.736833	-0.001627	1.023275
C103	C	1.022807	-0.635485	0.309208
C104	C	1.356141	-0.302151	0.642541
C105	C	1.689474	0.031182	0.975875
C106	C	1.022777	-0.569743	0.309196
C107	C	1.356111	-0.236410	0.642530
C108	C	1.689444	0.096923	0.975863
N109	N	1.064573	-0.771561	0.291797
N110	N	1.397906	-0.438228	0.625131
N111	N	1.731239	-0.104894	0.958464
N112	N	1.064605	-0.834012	0.291810
N113	N	1.397939	-0.500679	0.625144
N114	N	1.731272	-0.167346	0.958477
C115	C	1.070253	-0.866369	0.356642
C116	C	1.403586	-0.533035	0.689975
C117	C	1.736919	-0.199702	1.023308
N118	N	1.075880	-0.833915	0.421461
N119	N	1.409213	-0.500581	0.754794
N120	N	1.742547	-0.167248	1.088127
N121	N	1.075851	-0.771457	0.421447
N122	N	1.409184	-0.438124	0.754780
N123	N	1.742518	-0.104791	1.088113
C124	C	1.070193	-0.739579	0.356616
C125	C	1.403526	-0.406246	0.689949
C126	C	1.736860	-0.072913	1.023283
C127	C	1.117633	-0.970456	0.404063
C128	C	1.450966	-0.637123	0.737396
C129	C	1.784299	-0.303789	1.070729
C130	C	1.117654	-1.036200	0.404082
C131	C	1.450987	-0.702866	0.737415
C132	C	1.784320	-0.369533	1.070749
C133	C	1.022984	-1.036327	0.309283
C134	C	1.356317	-0.702994	0.642616
C135	C	1.689650	-0.369661	0.975950
C136	C	1.022959	-0.970585	0.309270
C137	C	1.356292	-0.637251	0.642603
C138	C	1.689625	-0.303918	0.975937
C139	C	1.070287	-0.937653	0.356659
C140	C	1.403621	-0.604320	0.689992
C141	C	1.736954	-0.270986	1.023326
C142	C	1.263335	-0.303317	0.356604
C143	C	1.596668	0.030016	0.689937
C144	C	1.930002	0.363350	1.023270
C145	C	1.345649	-0.303328	0.356600
C146	C	1.678982	0.030005	0.689933
C147	C	2.012316	0.363339	1.023266
C148	C	1.070217	-0.303234	0.549776
C149	C	1.403550	0.030099	0.883109
C150	C	1.736884	0.363432	1.216442
C151	C	1.070236	-0.303210	0.632090
C152	C	1.403569	0.030123	0.965423
C153	C	1.736902	0.363457	1.298757
C154	C	1.070288	-0.139102	0.356668
C155	C	1.403621	0.194232	0.690001
C156	C	1.736955	0.527565	1.023334
C157	C	1.070337	-0.069133	0.356690
C158	C	1.403670	0.264200	0.690024
C159	C	1.737004	0.597533	1.023357
C160	C	1.070172	-0.303304	0.164203
C161	C	1.403505	0.030030	0.497537
C162	C	1.736838	0.363363	0.830870
C163	C	1.070297	-0.303151	0.081890
C164	C	1.403630	0.030182	0.415223
C165	C	1.736963	0.363516	0.748556
C166	C	1.070276	-0.303171	0.931181
C167	C	1.403609	0.030163	1.264514
C168	C	1.736942	0.363496	1.597848
C169	C	1.127731	-0.254701	0.899869
C170	C	1.461065	0.078633	1.233202
C171	C	1.794398	0.411966	1.566535
C172	C	1.127552	-0.254521	0.814250
C173	C	1.460885	0.078813	1.147584
C174	C	1.794219	0.412146	1.480917
C175	C	1.070257	-0.303190	0.782798
C176	C	1.403590	0.030143	1.116132
C177	C	1.736923	0.363477	1.449465
C178	C	0.992239	-0.285162	0.813886
C179	C	1.325573	0.048171	1.147219
C180	C	1.658906	0.381505	1.480553
C181	C	0.992583	-0.284799	0.899531
C182	C	1.325917	0.048535	1.232864
C183	C	1.659250	0.381868	1.566198
C184	C	1.090150	-0.369794	0.899586
C185	C	1.423484	-0.036460	1.232919
C186	C	1.756817	0.296873	1.566252
C187	C	1.091863	-0.369454	0.813935
C188	C	1.425196	-0.036121	1.147269
C189	C	1.758529	0.297213	1.480602
C190	C	1.070241	-0.303202	0.698939
C191	C	1.403574	0.030131	1.032272
C192	C	1.736908	0.363464	1.365606
C193	C	1.070286	-0.303157	1.015041
C194	C	1.403620	0.030176	1.348374
C195	C	1.736953	0.363510	1.681707
H196	H	0.508077	-0.222986	0.435684
H197	H	0.841411	0.110347	0.769017
H198	H	1.174744	0.443680	1.102351
H199	H	1.156033	-0.662068	0.442605
H200	H	1.489366	-0.328735	0.775939
H201	H	1.822699	0.004599	1.109272
H202	H	0.506176	-0.341166	0.471306
H203	H	0.839509	-0.007833	0.804639
H204	H	1.172843	0.325500	1.137972
H205	H	0.984281	-0.662307	0.270623
H206	H	1.317615	-0.328974	0.603956
H207	H	1.650948	0.004359	0.937289
H208	H	0.634954	-0.288609	0.233931
H209	H	0.968287	0.044724	0.567264
H210	H	1.301620	0.378058	0.900598
Cl211	Cl	0.496623	-0.265210	0.212715
Cl212	Cl	0.829957	0.068124	0.546048
Cl213	Cl	1.163290	0.401457	0.879381
Cl214	Cl	0.963247	-0.528505	0.249607
Cl215	Cl	1.296580	-0.195172	0.582940
Cl216	Cl	1.629914	0.138162	0.916273
H217	H	0.975084	-0.237002	0.792454
H218	H	1.308418	0.096331	1.125787
H219	H	1.641751	0.429665	1.459120
Cl220	Cl	1.177127	-0.929053	0.463639
Cl221	Cl	1.510460	-0.595720	0.796972
Cl222	Cl	1.843793	-0.262386	1.130306
Cl223	Cl	1.177175	-1.077437	0.463682
Cl224	Cl	1.510509	-0.744103	0.797015
Cl225	Cl	1.843842	-0.410770	1.130349
Cl226	Cl	0.963498	-1.077729	0.249706
Cl227	Cl	1.296832	-0.744396	0.583039
Cl228	Cl	1.630165	-0.411063	0.916372
H229	H	0.634301	-0.401191	0.400413
H230	H	0.967634	-0.067858	0.733747
H231	H	1.300968	0.265476	1.067080
Cl232	Cl	0.963431	-0.929346	0.249681
Cl233	Cl	1.296764	-0.596013	0.583015
Cl234	Cl	1.630097	-0.262679	0.916348
H235	H	1.185404	-0.265811	0.793232
H236	H	1.518737	0.067522	1.126565
H237	H	1.852070	0.400856	1.459899
H238	H	0.948269	-0.319378	0.793512
H239	H	1.281602	0.013955	1.126845
H240	H	1.614935	0.347289	1.460179
H241	H	1.155991	-0.542802	0.442571
H242	H	1.489324	-0.209469	0.775904
H243	H	1.822658	0.123865	1.109237
Cl244	Cl	0.496040	-0.179161	0.317139
Cl245	Cl	0.829373	0.154172	0.650473
Cl246	Cl	1.162706	0.487506	0.983806
H247	H	0.633860	-0.370407	0.262542
H248	H	0.967194	-0.037073	0.595875
H249	H	1.300527	0.296260	0.929208
Cl250	Cl	1.217345	-0.271911	0.931664
Cl251	Cl	1.550678	0.061422	1.264998
Cl252	Cl	1.884011	0.394755	1.598331
Cl253	Cl	1.107681	-0.178923	0.933128
Cl254	Cl	1.441014	0.154410	1.266461
Cl255	Cl	1.774348	0.487744	1.599794
Cl256	Cl	1.107239	-0.178320	0.782645
Cl257	Cl	1.440573	0.155014	1.115978
Cl258	Cl	1.773906	0.488347	1.449312
H259	H	0.975735	-0.236098	0.919528
H260	H	1.309068	0.097236	1.252861
H261	H	1.642402	0.430569	1.586195
Cl262	Cl	0.495855	-0.428338	0.393146
Cl263	Cl	0.829188	-0.095004	0.726479
Cl264	Cl	1.162521	0.238329	1.059812
H265	H	0.633807	-0.340871	0.471876
H266	H	0.967140	-0.007538	0.805209
H267	H	1.300474	0.325795	1.138542
Cl268	Cl	0.924233	-0.336921	0.931514
Cl269	Cl	1.257566	-0.003588	1.264847
Cl270	Cl	1.590900	0.329746	1.598181
Cl271	Cl	1.176479	-0.395109	0.932926
Cl272	Cl	1.509813	-0.061776	1.266259
Cl273	Cl	1.843146	0.271557	1.599592
Cl274	Cl	0.645124	-0.179245	0.315941
Cl275	Cl	0.978457	0.154088	0.649274
Cl276	Cl	1.311791	0.487422	0.982608
H277	H	1.149276	-0.383048	0.793615
H278	H	1.482609	-0.049715	1.126948
H279	H	1.815943	0.283618	1.460282
H280	H	1.053058	-0.407509	0.792522
H281	H	1.386391	-0.074175	1.125855
H282	H	1.719725	0.259158	1.459189
H283	H	0.635148	-0.222435	0.434656
H284	H	0.968482	0.110899	0.767989
H285	H	1.301815	0.444232	1.101323
Cl286	Cl	0.494526	-0.393527	0.248275
Cl287	Cl	0.827860	-0.060194	0.581608
Cl288	Cl	1.161193	0.273139	0.914942
H289	H	1.048306	-0.405909	0.919840
H290	H	1.381640	-0.072576	1.253174
H291	H	1.714973	0.260758	1.586507
