data_functionalizedCrystal
_audit_creation_method	'MofGen! by Chris Wilmer'
_symmetry_space_group_name_H-M	'P1'
_symmetry_Int_Tables_number	1
_symmetry_cell_setting	triclinic
loop_
_symmetry_equiv_pos_as_xyz
  x,y,z
_cell_length_a	14.519710
_cell_length_b	15.538191
_cell_length_c	14.185569
_cell_angle_alpha	97.872928
_cell_angle_beta	103.180116
_cell_angle_gamma	114.523881
loop_
_atom_site_label
_atom_site_type_symbol
_atom_site_fract_x
_atom_site_fract_y
_atom_site_fract_z
O1	O	1.154314	-0.144716	-0.083386
O2	O	0.880946	-0.159251	-0.083392
O3	O	1.070842	-0.014945	-0.083392
O4	O	0.964418	-0.289023	-0.083385
O5	O	1.126937	0.027680	0.083442
O6	O	0.937041	-0.116626	0.083443
O7	O	1.210409	-0.102091	0.083449
Cu8	Cu	1.078847	-0.105467	0.098679
Cu9	Cu	1.012508	-0.155876	-0.098622
O10	O	1.020513	-0.246398	0.083449
C11	C	0.874862	-0.137262	0.000025
C12	C	0.773162	-0.135233	0.000022
C13	C	1.216493	-0.124081	0.000030
C14	C	1.318190	-0.126112	0.000026
C15	C	1.110023	0.041444	0.000022
C16	C	1.143187	0.145959	0.000012
C17	C	1.690572	-0.133584	0.000026
C18	C	1.586962	-0.131509	0.000025
C19	C	1.504384	-0.129849	0.000025
C20	C	1.400768	-0.127773	0.000027
C21	C	0.981331	-0.302787	0.000033
C22	C	0.948165	-0.407304	0.000036
N23	N	1.125513	-0.070012	0.237450
C24	C	0.813684	0.434308	0.000027
C25	C	0.844874	0.532522	0.000030
C26	C	1.020305	0.554671	0.000033
C27	C	0.989129	0.456455	0.000025
C28	C	0.885817	0.396282	0.000023
C29	C	1.061262	0.418429	0.000022
C30	C	1.030089	0.320223	0.000019
C31	C	0.926783	0.260044	0.000020
C32	C	0.854644	0.298076	0.000021
C33	C	1.164575	0.478606	0.000031
C34	C	1.236708	0.440579	0.000027
C35	C	1.205533	0.342370	0.000018
C36	C	1.102227	0.282191	0.000019
C37	C	1.277672	0.304338	0.000017
C38	C	1.246499	0.206133	0.000014
C39	C	1.071054	0.183986	0.000016
N40	N	0.965852	-0.191324	-0.237393
C41	C	0.828760	-0.295450	0.605101
C42	C	0.864113	-0.268600	0.710122
C43	C	1.032275	-0.140864	0.710083
C44	C	0.996934	-0.167701	0.605059
C45	C	0.895176	-0.244995	0.552576
C46	C	1.063350	-0.117246	0.552535
C47	C	1.028013	-0.144084	0.447520
C48	C	0.926260	-0.221378	0.395030
C49	C	0.859839	-0.271834	0.447562
C50	C	1.165110	-0.039956	0.605019
C51	C	1.231526	0.010499	0.552495
C52	C	1.196187	-0.016335	0.447479
C53	C	1.094434	-0.093628	0.394989
C54	C	1.262608	0.034121	0.394947
C55	C	1.227271	0.007283	0.289932
C56	C	1.059097	-0.120467	0.289974
H57	H	0.986925	0.134986	0.000007
Cl58	Cl	1.160197	-0.043699	0.776068
Cl59	Cl	1.390534	0.131279	0.460935
Cl60	Cl	0.700826	-0.392614	0.539119
H61	H	0.897492	-0.243231	0.309521
H62	H	1.320826	0.489586	0.000033
Cl63	Cl	1.407550	0.380000	0.000039
H64	H	1.193879	-0.018111	0.690529
H65	H	0.810020	-0.309694	0.752883
H66	H	0.770515	0.249077	0.000012
H67	H	0.776973	-0.334768	0.404829
Cl68	Cl	0.931163	-0.217630	0.223992
H69	H	1.314380	0.073431	0.595238
Cl70	Cl	1.337187	0.158328	0.000029
Cl71	Cl	0.887594	0.136586	0.000026
Cl72	Cl	0.683800	0.358651	0.000014
H73	H	1.281355	0.048368	0.247167
H74	H	1.189950	0.558568	0.000024
Cl75	Cl	0.754182	0.580325	0.000041
H76	H	1.104423	0.603678	0.000039
