data_functionalizedCrystal
_audit_creation_method	'MofGen! by Chris Wilmer'
_symmetry_space_group_name_H-M	'P1'
_symmetry_Int_Tables_number	1
_symmetry_cell_setting	triclinic
loop_
_symmetry_equiv_pos_as_xyz
  x,y,z
_cell_length_a	19.288859
_cell_length_b	15.538191
_cell_length_c	18.366186
_cell_angle_alpha	89.995484
_cell_angle_beta	89.990083
_cell_angle_gamma	65.202910
loop_
_atom_site_label
_atom_site_type_symbol
_atom_site_fract_x
_atom_site_fract_y
_atom_site_fract_z
O1	O	0.891975	0.117612	-0.060557
O2	O	0.685747	0.133487	-0.060554
O3	O	0.829005	-0.011751	-0.060559
O4	O	0.748717	0.262851	-0.060551
O5	O	0.828988	-0.011758	0.060540
O6	O	0.685731	0.133480	0.060546
O7	O	0.891958	0.117605	0.060543
Zn8	Zn	0.788842	0.125541	0.079771
Zn9	Zn	0.788864	0.125551	-0.079782
O10	O	0.748701	0.262843	0.060548
C11	C	0.659990	0.132974	-0.000004
C12	C	0.583269	0.131443	-0.000003
C13	C	0.000526	0.206309	-0.000002
C14	C	0.072611	0.207756	-0.000006
C15	C	0.138606	0.122536	-0.000007
C16	C	0.132513	0.035864	-0.000023
C17	C	0.060428	0.034420	-0.000027
C18	C	0.275748	0.058978	0.042420
C19	C	0.347830	0.060425	0.042428
C20	C	0.360941	0.126986	0.000001
C21	C	0.301955	0.192116	-0.042426
C22	C	0.229870	0.190672	-0.042429
C23	C	0.216773	0.124092	-0.000004
C24	C	0.445190	0.215221	0.000007
C25	C	0.517278	0.216664	-0.000001
C26	C	0.577180	0.044770	-0.000011
C27	C	0.505092	0.043329	-0.000010
C28	C	0.439101	0.128558	0.000003
C29	C	0.837397	-0.046886	-0.000012
C30	C	0.862418	-0.151567	-0.000020
C31	C	0.613837	-0.438295	-0.000001
C32	C	0.637366	-0.536662	0.000001
C33	C	0.769711	-0.559670	-0.000001
C34	C	0.746193	-0.461304	-0.000006
C35	C	0.668255	-0.400624	-0.000005
C36	C	0.800611	-0.423632	-0.000011
C37	C	0.777095	-0.325274	-0.000012
C38	C	0.699160	-0.264588	-0.000008
C39	C	0.644739	-0.302266	-0.000006
C40	C	0.878549	-0.484314	-0.000007
C41	C	0.932967	-0.446642	-0.000011
C42	C	0.909451	-0.348283	-0.000017
C43	C	0.831516	-0.287597	-0.000014
C44	C	0.963873	-0.310605	-0.000020
C45	C	0.940356	-0.212247	-0.000021
C46	C	0.808000	-0.189239	-0.000015
C47	C	0.917716	0.118118	-0.000009
C48	C	0.994437	0.119649	-0.000014
C49	C	0.740309	0.297978	-0.000001
C50	C	0.715287	0.402659	0.000002
N51	N	0.788833	0.125534	0.188662
N52	N	0.788880	0.125550	-0.188673
C53	C	0.852275	0.061254	0.226760
C54	C	0.852280	0.061250	0.302988
C55	C	0.788846	0.125542	0.341115
C56	C	0.725394	0.189827	0.303008
C57	C	0.725387	0.189823	0.226782
C58	C	0.758083	0.211466	0.461878
C59	C	0.758094	0.211471	0.538103
C60	C	0.788863	0.125554	0.576223
C61	C	0.819636	0.039628	0.538108
C62	C	0.819629	0.039624	0.461882
C63	C	0.788846	0.125553	0.423770
C64	C	0.852315	0.061264	0.696976
C65	C	0.852316	0.061258	0.773205
C66	C	0.725431	0.189844	0.773223
C67	C	0.725429	0.189841	0.696995
C68	C	0.788874	0.125552	0.658876
H69	H	0.055476	-0.036152	-0.000036
H70	H	0.391456	0.284619	0.000016
H71	H	0.673724	0.242169	0.195761
H72	H	0.680015	-0.184499	-0.000005
H73	H	0.744535	-0.139829	-0.000020
O74	O	0.263138	-0.005722	0.083703
C75	C	0.330657	-0.062904	0.121140
H76	H	0.368628	-0.023388	0.126269
H77	H	0.362328	-0.131608	0.089677
C78	C	0.263701	-0.134471	0.191306
C79	C	0.310335	-0.085934	0.197611
H80	H	0.251167	-0.148682	0.238475
H81	H	0.218213	-0.095950	0.166082
H82	H	0.290100	-0.191719	0.165083
H83	H	0.283933	-0.028682	0.223825
H84	H	0.355819	-0.124446	0.222841
H85	H	0.581274	-0.252856	-0.000011
O86	O	0.196673	-0.046856	-0.000120
C87	C	0.240164	-0.051164	-0.062844
H88	H	0.224962	0.023675	-0.083747
H89	H	0.227173	-0.094127	-0.106768
C90	C	0.344430	-0.190849	-0.018118
C91	C	0.325762	-0.098929	-0.043787
H92	H	0.397231	-0.220316	-0.006364
H93	H	0.315128	-0.187949	0.024140
H94	H	0.333597	-0.226639	-0.054725
H95	H	0.336585	-0.063138	-0.007177
H96	H	0.355068	-0.101824	-0.086039
O97	O	0.913894	-0.001455	0.189876
C98	C	0.925999	-0.094669	0.208688
H99	H	0.870378	-0.094762	0.229589
H100	H	0.971411	-0.122415	0.253025
C101	C	1.021327	-0.158769	0.115438
C102	C	0.953010	-0.158884	0.141103
H103	H	1.037992	-0.198382	0.073751
H104	H	1.013174	-0.095970	0.102766
H105	H	1.059162	-0.181889	0.152393
H106	H	0.915174	-0.135754	0.104153
H107	H	0.961157	-0.221681	0.153768
O108	O	0.078629	0.291884	0.000110
C109	C	0.118507	0.297849	0.062844
H110	H	0.155306	0.223438	0.083740
H111	H	0.075940	0.339690	0.106766
C112	C	0.124665	0.439753	0.018146
C113	C	0.169867	0.348360	0.043807
H114	H	0.156344	0.470915	0.006405
H115	H	0.097796	0.435738	-0.024118
H116	H	0.089195	0.474609	0.054752
H117	H	0.205330	0.313502	0.007197
H118	H	0.196744	0.352371	0.086065
H119	H	0.550372	-0.388885	-0.000005
O120	O	0.314601	0.256897	-0.083570
C121	C	0.264724	0.349085	-0.061355
H122	H	0.245547	0.346860	-0.002941
H123	H	0.212712	0.377427	-0.098668
C124	C	0.329959	0.417243	-0.137334
C125	C	0.306411	0.414510	-0.065588
H126	H	0.355671	0.457602	-0.139948
H127	H	0.363560	0.355134	-0.152303
H128	H	0.286610	0.440858	-0.168421
H129	H	0.349760	0.390884	-0.034504
H130	H	0.272818	0.476617	-0.050613
H131	H	0.522229	0.287236	0.000003
H132	H	0.630913	-0.024618	-0.000017
H133	H	0.673744	0.242174	0.334055
H134	H	0.903944	0.008903	0.334013
H135	H	0.500138	-0.027239	-0.000015
H136	H	0.844690	-0.030334	0.569143
O137	O	1.039599	-0.369460	-0.000115
C138	C	1.074120	-0.352450	-0.062845
H139	H	1.038235	-0.277767	-0.083760
H140	H	1.078187	-0.406217	-0.106758
C141	C	1.198886	-0.453853	-0.018108
C142	C	1.154815	-0.362122	-0.043792
H143	H	1.248663	-0.459823	-0.006357
H144	H	1.175629	-0.465316	0.024154
H145	H	1.202266	-0.498648	-0.054706
H146	H	1.151427	-0.317330	-0.007191
H147	H	1.178073	-0.350652	-0.086048
O148	O	0.849512	-0.043923	0.424970
C149	C	0.876692	-0.119760	0.474953
H150	H	0.846138	-0.095400	0.529298
H151	H	0.940744	-0.144089	0.483040
C152	C	0.898655	-0.232562	0.378468
C153	C	0.861124	-0.202645	0.445214
H154	H	0.889056	-0.283692	0.360123
H155	H	0.880347	-0.181470	0.344793
H156	H	0.952029	-0.252830	0.385216
H157	H	0.807751	-0.182367	0.438463
H158	H	0.879423	-0.253736	0.478887
H159	H	0.593046	-0.567328	0.000015
O160	O	0.913987	-0.001281	0.660054
C161	C	0.969991	-0.058011	0.710031
H162	H	0.941762	-0.058976	0.764375
H163	H	1.013913	-0.027572	0.718124
C164	C	1.044639	-0.158609	0.613534
C165	C	1.009966	-0.159800	0.680279
H166	H	1.069301	-0.221396	0.595181
H167	H	1.006910	-0.120387	0.579863
H168	H	1.081235	-0.133238	0.620287
H169	H	0.973364	-0.185159	0.673523
H170	H	1.047690	-0.198029	0.713948
H171	H	0.833168	-0.609089	0.000001
O172	O	0.913875	-0.001281	0.810247
C173	C	0.891324	-0.059323	0.854364
H174	H	0.836904	-0.060733	0.831408
H175	H	0.880242	-0.029798	0.912136
C176	C	1.022014	-0.158973	0.883722
C177	C	0.955177	-0.160711	0.855523
H178	H	1.061402	-0.221513	0.884439
H179	H	1.037207	-0.119868	0.854001
H180	H	1.012768	-0.134364	0.931862
H181	H	0.964421	-0.185308	0.807381
H182	H	0.939987	-0.199823	0.885235
O183	O	0.663885	0.252260	0.810363
C184	C	0.677484	0.238462	0.885813
H185	H	0.741640	0.203027	0.896212
H186	H	0.650067	0.191298	0.907456
C187	C	0.563912	0.378490	0.912176
C188	C	0.642710	0.334975	0.924948
H189	H	0.542459	0.438022	0.936318
H190	H	0.554748	0.387784	0.861344
H191	H	0.541075	0.339177	0.930212
H192	H	0.665547	0.374282	0.906904
H193	H	0.651877	0.325689	0.975778
O194	O	0.663755	0.252383	0.660096
C195	C	0.607758	0.309113	0.710090
H196	H	0.635994	0.310082	0.764419
H197	H	0.563838	0.278673	0.718213
C198	C	0.533095	0.409705	0.613611
C199	C	0.567776	0.410901	0.680337
H200	H	0.508429	0.472492	0.595257
H201	H	0.570819	0.371483	0.579928
H202	H	0.496500	0.384334	0.620389
H203	H	0.604376	0.436261	0.673556
H204	H	0.530057	0.449130	0.714018
H205	H	0.897693	-0.564402	-0.000013
O206	O	0.172637	0.253834	-0.083757
C207	C	0.194606	0.241771	-0.157614
H208	H	0.240639	0.166965	-0.166366
H209	H	0.218001	0.295535	-0.173210
C210	C	0.068278	0.348896	-0.194653
C211	C	0.124813	0.257016	-0.205403
H212	H	0.025227	0.358304	-0.224132
H213	H	0.053478	0.357027	-0.144894
H214	H	0.087784	0.393689	-0.207649
H215	H	0.105310	0.212225	-0.192399
H216	H	0.139609	0.248878	-0.255161
H217	H	0.996424	-0.496061	-0.000009
O218	O	0.728144	0.295018	0.575011
C219	C	0.700993	0.370850	0.525023
H220	H	0.688466	0.344830	0.470694
H221	H	0.746116	0.399370	0.516896
C222	C	0.642686	0.482269	0.621513
C223	C	0.627294	0.450312	0.554787
H224	H	0.597227	0.531287	0.639873
H225	H	0.660980	0.431181	0.655191
H226	H	0.680291	0.506029	0.614731
H227	H	0.589697	0.426542	0.561571
H228	H	0.608991	0.501398	0.521110
H229	H	-0.053203	0.275709	0.000004
O230	O	0.405113	-0.002711	0.083724
C231	C	0.429899	0.046656	0.134307
H232	H	0.382368	0.120262	0.143822
H233	H	0.482502	0.053582	0.112047
C234	C	0.508498	-0.098608	0.195089
C235	C	0.450118	-0.008207	0.206781
H236	H	0.520973	-0.132451	0.239793
H237	H	0.491802	-0.131869	0.161009
H238	H	0.552327	-0.092823	0.176537
H239	H	0.406287	-0.013993	0.225323
H240	H	0.466807	0.025051	0.240866
O241	O	0.728308	0.294873	0.424769
C242	C	0.785405	0.302274	0.380673
H243	H	0.831763	0.228425	0.369256
H244	H	0.811491	0.346258	0.410035
C245	C	0.692974	0.441402	0.322289
C246	C	0.749909	0.350698	0.308261
H247	H	0.671079	0.471276	0.277623
H248	H	0.654507	0.436419	0.351999
H249	H	0.714721	0.478044	0.346759
H250	H	0.728160	0.314055	0.283800
H251	H	0.788372	0.355677	0.278545
H252	H	0.984669	-0.181575	-0.000023
