data_functionalizedCrystal
_audit_creation_method	'MofGen! by Chris Wilmer'
_symmetry_space_group_name_H-M	'P1'
_symmetry_Int_Tables_number	1
_symmetry_cell_setting	triclinic
loop_
_symmetry_equiv_pos_as_xyz
  x,y,z
_cell_length_a	10.654559
_cell_length_b	10.268362
_cell_length_c	10.654550
_cell_angle_alpha	90.003899
_cell_angle_beta	95.513206
_cell_angle_gamma	89.994532
loop_
_atom_site_label
_atom_site_type_symbol
_atom_site_fract_x
_atom_site_fract_y
_atom_site_fract_z
O1	O	1.667836	-0.108304	-0.176454
O2	O	1.302359	-0.108305	-0.193248
O3	O	1.493500	-0.108299	-0.002112
O4	O	1.476694	-0.108309	-0.367590
O5	O	1.493481	0.108301	-0.002105
O6	O	1.302339	0.108296	-0.193241
O7	O	1.667816	0.108297	-0.176447
Cu8	Cu	1.485076	0.128074	-0.184844
Cu9	Cu	1.485099	-0.128082	-0.184852
O10	O	1.476675	0.108292	-0.367583
C11	C	1.255551	-0.000004	-0.192009
C12	C	1.116109	-0.000005	-0.188313
N13	N	1.485069	0.308240	-0.184837
C14	C	1.064569	0.000002	-0.072301
C15	C	0.933547	-0.000008	-0.068835
C16	C	0.905614	-0.000025	-0.297404
C17	C	1.036634	-0.000025	-0.300869
C18	C	1.080694	0.000017	0.059662
C19	C	0.949672	0.000008	0.063128
C20	C	1.485084	0.573910	-0.184853
C21	C	1.485072	0.426072	-0.184848
C22	C	1.714624	-0.000006	-0.177686
C23	C	1.854067	-0.000015	-0.181383
C24	C	1.492257	-0.000001	0.044689
C25	C	1.488565	-0.000005	0.184132
N26	N	1.485104	0.691753	-0.184853
C27	C	1.477919	-0.000010	-0.414385
C28	C	1.481610	-0.000014	-0.553828
C29	C	1.601106	-0.000001	0.263614
C30	C	1.597629	-0.000010	0.394635
C31	C	1.369061	-0.000022	0.366679
C32	C	1.372539	-0.000022	0.235661
C33	C	1.733068	0.000012	0.279756
C34	C	1.729592	0.000002	0.410777
H35	H	0.840891	-0.000041	-0.389043
H36	H	1.122450	-0.090623	0.109389
O37	O	1.135183	0.111654	0.107019
C38	C	1.259965	0.300180	0.066990
C39	C	1.198293	0.173804	0.013194
H40	H	1.311026	0.350451	-0.008833
H41	H	1.184171	0.367790	0.098603
H42	H	1.330432	0.275803	0.151071
H43	H	1.127836	0.198059	-0.070924
H44	H	1.274157	0.106230	-0.018333
O45	O	1.794656	-0.108028	0.244503
C46	C	1.867747	-0.230405	0.072776
C47	C	1.798008	-0.107985	0.112530
H48	H	1.870457	-0.230425	-0.033928
H49	H	1.968158	-0.230437	0.120631
H50	H	1.816173	-0.321042	0.102199
H51	H	1.849476	-0.017283	0.083114
H52	H	1.697594	-0.108069	0.064686
O53	O	1.783198	0.111663	0.237436
C54	C	1.964097	0.253328	0.245734
C55	C	1.907632	0.126731	0.293672
H56	H	2.064701	0.265565	0.291199
H57	H	1.964750	0.248431	0.138902
H58	H	1.904594	0.339766	0.271676
H59	H	1.967088	0.040227	0.267819
H60	H	1.906956	0.131741	0.400495
H61	H	1.769481	-0.093520	0.456415
H62	H	1.779305	0.090648	0.452538
O63	O	0.914402	0.108055	0.124697
C64	C	0.742656	0.230429	0.197756
C65	C	0.782429	0.108003	0.128038
H66	H	0.635951	0.230442	0.200457
H67	H	0.790503	0.230476	0.298169
H68	H	0.772073	0.321062	0.146171
H69	H	0.753018	0.017305	0.179518
H70	H	0.734592	0.108071	0.027622
O71	O	1.086541	-0.000223	-0.413645
C72	C	1.102791	-0.112528	-0.610016
C73	C	1.046174	-0.112443	-0.482344
H74	H	1.070198	-0.203262	-0.665584
H75	H	1.070093	-0.021955	-0.665789
H76	H	1.210085	-0.112467	-0.593148
H77	H	0.938878	-0.112551	-0.499097
H78	H	1.078971	-0.203008	-0.426612
O79	O	1.256282	0.000139	0.416589
C80	C	1.059876	0.112377	0.432855
C81	C	1.187544	0.112341	0.376231
H82	H	1.004277	0.203096	0.400269
H83	H	1.004131	0.021790	0.400155
H84	H	1.076749	0.112309	0.540148
H85	H	1.170786	0.112455	0.268935
H86	H	1.243248	0.202921	0.409030
H87	H	0.914051	-0.093515	0.105156
H88	H	1.280897	-0.000044	0.170950
