data_functionalizedCrystal
_audit_creation_method	'MofGen! by Chris Wilmer'
_symmetry_space_group_name_H-M	'P1'
_symmetry_Int_Tables_number	1
_symmetry_cell_setting	triclinic
loop_
_symmetry_equiv_pos_as_xyz
  x,y,z
_cell_length_a	25.639242
_cell_length_b	12.759400
_cell_length_c	12.759393
_cell_angle_alpha	90.031564
_cell_angle_beta	89.969545
_cell_angle_gamma	89.989788
loop_
_atom_site_label
_atom_site_type_symbol
_atom_site_fract_x
_atom_site_fract_y
_atom_site_fract_z
Zn1	Zn	0.799355	0.418330	-0.594317
Zn2	Zn	1.299355	0.918330	-0.094317
Zn3	Zn	0.799303	0.594048	-0.418637
Zn4	Zn	1.299303	1.094048	0.081363
Zn5	Zn	0.711919	0.418370	-0.418619
Zn6	Zn	1.211919	0.918370	0.081381
Zn7	Zn	0.711913	0.593953	-0.594241
Zn8	Zn	1.211913	1.093953	-0.094241
O9	O	0.755622	0.506175	-0.506453
O10	O	1.255622	1.006175	-0.006453
O11	O	0.872513	0.441662	-0.571051
O12	O	1.372513	0.941662	-0.071051
O13	O	0.787691	0.570801	-0.271613
O14	O	1.287691	1.070801	0.228387
O15	O	0.723542	0.271344	-0.441950
O16	O	1.223542	0.771344	0.058050
O17	O	0.872475	0.570762	-0.441980
O18	O	1.372475	1.070762	0.058020
O19	O	0.787781	0.271314	-0.571034
O20	O	1.287781	0.771314	-0.071034
O21	O	0.723491	0.441731	-0.271600
O22	O	1.223491	0.941731	0.228400
O23	O	0.638753	0.441639	-0.441877
O24	O	1.138753	0.941639	0.058123
O25	O	0.723532	0.570600	-0.741273
O26	O	1.223532	1.070600	-0.241273
O27	O	0.638749	0.570639	-0.570906
O28	O	1.138749	1.070639	-0.070906
O29	O	0.787775	0.441570	-0.741328
O30	O	1.287775	0.941570	-0.241328
O31	O	0.787686	0.741057	-0.441907
O32	O	1.287686	1.241057	0.058093
O33	O	0.723481	0.740987	-0.570923
O34	O	1.223481	1.240987	-0.070923
C35	C	0.755591	0.779143	-0.506432
C36	C	1.255591	1.279143	-0.006432
C37	C	0.755626	0.895919	-0.506457
C38	C	1.255626	1.395919	-0.006457
C39	C	0.619780	0.506134	-0.506382
C40	C	1.119780	1.006134	-0.006382
C41	C	0.561666	0.506142	-0.506377
C42	C	1.061666	1.006142	-0.006377
C43	C	0.755659	0.506069	-0.780487
C44	C	1.255659	1.006069	-0.280487
C45	C	0.755675	0.506024	-0.897264
C46	C	1.255675	1.006024	-0.397264
C47	C	0.201309	0.573458	-0.573575
C48	C	0.701309	1.073458	-0.073575
C49	C	0.146705	0.573464	-0.573592
C50	C	0.646705	1.073464	-0.073592
O51	O	0.118474	0.630648	-0.630666
O52	O	0.618474	1.130648	-0.130666
N53	N	0.119383	0.506204	-0.506522
N54	N	0.619383	1.006204	-0.006522
C55	C	0.146669	0.438926	-0.439439
C56	C	0.646669	0.938926	0.060561
O57	O	0.118415	0.381716	-0.382393
O58	O	0.618415	0.881716	0.117607
C59	C	0.201272	0.438915	-0.439428
C60	C	0.701272	0.938915	0.060572
C61	C	0.228591	0.506187	-0.506495
C62	C	0.728591	1.006187	-0.006495
C63	C	0.228629	0.640724	-0.640637
C64	C	0.728629	1.140724	-0.140637
C65	C	0.283229	0.640718	-0.640619
C66	C	0.783229	1.140718	-0.140619
C67	C	0.310511	0.573447	-0.573539
C68	C	0.810511	1.073447	-0.073539
C69	C	0.283191	0.506182	-0.506477
C70	C	0.783191	1.006182	-0.006477
C71	C	0.228556	0.371632	-0.372351
C72	C	0.728556	0.871632	0.127649
C73	C	0.283163	0.371626	-0.372347
C74	C	0.783163	0.871626	0.127653
C75	C	0.310482	0.438898	-0.439414
C76	C	0.810482	0.938898	0.060586
C77	C	0.365074	0.438905	-0.439378
C78	C	0.865074	0.938905	0.060622
N79	N	0.392395	0.506165	-0.506448
N80	N	0.892395	1.006165	-0.006448
C81	C	0.365114	0.573436	-0.573528
C82	C	0.865114	1.073436	-0.073528
C83	C	0.031998	0.438953	-0.439467
C84	C	0.531998	0.938953	0.060533
C85	C	-0.022604	0.438968	-0.439472
C86	C	0.477396	0.938968	0.060528
C87	C	-0.022564	0.573506	-0.573626
C88	C	0.477436	1.073506	-0.073626
C89	C	0.032039	0.573495	-0.573616
C90	C	0.532039	1.073495	-0.073616
C91	C	0.059320	0.506213	-0.506537
C92	C	0.559320	1.006213	-0.006537
C93	C	0.479779	0.573421	-0.573484
C94	C	0.979779	1.073421	-0.073484
C95	C	0.534384	0.573413	-0.573457
C96	C	1.034384	1.073413	-0.073457
C97	C	0.534339	0.438872	-0.439307
C98	C	1.034339	0.938872	0.060693
C99	C	0.479739	0.438883	-0.439330
C100	C	0.979739	0.938883	0.060670
C101	C	0.452460	0.506161	-0.506427
C102	C	0.952460	1.006161	-0.006427
O103	O	0.393339	0.381748	-0.382336
O104	O	0.893339	0.881748	0.117664
O105	O	0.393374	0.630627	-0.630574
O106	O	0.893374	1.130627	-0.130574
C107	C	0.891995	0.506218	-0.506526
C108	C	1.391995	1.006218	-0.006526
C109	C	0.950109	0.506236	-0.506556
C110	C	1.450109	1.006236	-0.006556
C111	C	0.755668	0.232142	-0.506498
C112	C	1.255668	0.732142	-0.006498
C113	C	0.755687	0.115365	-0.506518
C114	C	1.255687	0.615365	-0.006518
C115	C	0.789094	0.950783	-0.439353
C116	C	1.289094	1.450783	0.060647
C117	C	0.789126	1.060507	-0.439385
C118	C	1.289126	1.560507	0.060615
C119	C	0.722217	1.060494	-0.573629
C120	C	1.222217	1.560494	-0.073629
C121	C	0.722188	0.950772	-0.573602
C122	C	1.222188	1.450772	-0.073602
C123	C	0.822532	0.895930	-0.372209
C124	C	1.322532	1.395930	0.127791
C125	C	0.856003	0.950794	-0.305098
C126	C	1.356003	1.450794	0.194902
C127	C	0.856035	1.060518	-0.305130
C128	C	1.356035	1.560518	0.194870
C129	C	0.822596	1.115378	-0.372274
C130	C	1.322596	1.615378	0.127726
C131	C	0.789131	0.438832	-0.952156
C132	C	1.289131	0.938832	-0.452156
C133	C	0.789143	0.438794	-1.061880
C134	C	1.289143	0.938794	-0.561880
C135	C	0.722242	0.573150	-1.061810
C136	C	1.222242	1.073150	-0.561810
C137	C	0.722227	0.573182	-0.952088
C138	C	1.222227	1.073182	-0.452088
C139	C	0.822578	0.371675	-0.897332
C140	C	1.322578	0.871675	-0.397332
C141	C	0.856037	0.304478	-0.952225
C142	C	1.356037	0.804478	-0.452225
C143	C	0.856050	0.304440	-1.061949
C144	C	1.356050	0.804440	-0.561949
C145	C	0.822603	0.371599	-1.116780
C146	C	1.322603	0.871599	-0.616780
C147	C	0.755616	0.506205	-0.233486
C148	C	1.255616	1.006205	0.266514
C149	C	0.755702	0.505954	-0.116710
C150	C	1.255702	1.005954	0.383290
H151	H	0.556625	0.628198	-0.628071
H152	H	1.056625	1.128198	-0.128071
F153	F	0.891625	0.232993	-0.893868
F154	F	1.391625	0.732993	-0.393868
H155	H	0.694936	0.906102	-0.628245
H156	H	1.194936	1.406102	-0.128245
H157	H	0.695011	0.627827	-1.106462
H158	H	1.195011	1.127827	-0.606462
H159	H	0.305372	0.316830	-0.317729
H160	H	0.805372	0.816830	0.182271
H161	H	0.883292	1.105185	-0.250493
H162	H	1.383292	1.605185	0.249507
H163	H	0.883231	0.906121	-0.250438
H164	H	1.383231	1.406121	0.249562
H165	H	0.206422	0.695504	-0.695267
H166	H	0.706422	1.195504	-0.195267
F167	F	-0.051609	0.645094	-0.645028
F168	F	0.448391	1.145094	-0.145028
F169	F	0.822611	0.371542	-1.233560
F170	F	1.322611	0.871542	-0.733560
F171	F	0.822463	1.232157	-0.371965
F172	F	1.322463	1.732157	0.128035
H173	H	0.054206	0.384165	-0.384836
H174	H	0.554206	0.884165	0.115164
F175	F	0.312297	0.712315	-0.712005
F176	F	0.812297	1.212315	-0.212005
F177	F	0.450754	0.645026	-0.644897
F178	F	0.950754	1.145026	-0.144897
F179	F	0.061109	0.645093	-0.644998
F180	F	0.561109	1.145093	-0.144998
F181	F	0.686631	1.118884	-0.645081
F182	F	1.186631	1.618884	-0.145081
H183	H	0.883290	0.249717	-1.106639
H184	H	1.383290	0.749717	-0.606639
H185	H	-0.044843	0.384199	-0.384849
H186	H	0.455157	0.884199	0.115151
F187	F	0.199493	0.300025	-0.300974
F188	F	0.699493	0.800025	0.199026
F189	F	0.686619	0.644694	-0.893664
F190	F	1.186619	1.144694	-0.393664
F191	F	0.450663	0.367301	-0.367935
F192	F	0.950663	0.867301	0.132065
H193	H	0.556562	0.384105	-0.384689
H194	H	1.056562	0.884105	0.115311
H195	H	0.822508	0.806587	-0.372172
H196	H	1.322508	1.306587	0.127828
F197	F	0.822569	0.371713	-0.780555
F198	F	1.322569	0.871713	-0.280555
