data_functionalizedCrystal
_audit_creation_method	'MofGen! by Chris Wilmer'
_symmetry_space_group_name_H-M	'P1'
_symmetry_Int_Tables_number	1
_symmetry_cell_setting	triclinic
loop_
_symmetry_equiv_pos_as_xyz
  x,y,z
_cell_length_a	14.971486
_cell_length_b	10.654550
_cell_length_c	13.448316
_cell_angle_alpha	89.994587
_cell_angle_beta	89.998199
_cell_angle_gamma	84.049516
loop_
_atom_site_label
_atom_site_type_symbol
_atom_site_fract_x
_atom_site_fract_y
_atom_site_fract_z
O1	O	1.187838	0.163659	-0.082575
O2	O	0.927544	0.183258	-0.082602
O3	O	1.063676	-0.009345	-0.082584
O4	O	1.051707	0.356262	-0.082593
O5	O	1.063659	-0.009357	0.082800
O6	O	0.927527	0.183246	0.082782
O7	O	1.187821	0.163647	0.082809
Cu8	Cu	1.057672	0.173445	0.097896
Cu9	Cu	1.057693	0.173460	-0.097689
O10	O	1.051689	0.356250	0.082791
C11	C	0.894206	0.182375	0.000087
C12	C	0.794895	0.179749	0.000077
C13	C	0.738285	0.292898	0.000075
C14	C	0.644972	0.290422	0.000090
C15	C	0.608271	0.174797	0.000099
C16	C	0.664888	0.061639	0.000104
C17	C	0.758199	0.064116	0.000096
C18	C	0.470397	0.056485	0.000117
C19	C	0.377080	0.054007	0.000123
C20	C	0.357171	0.282791	0.000112
C21	C	0.450482	0.285268	0.000104
C22	C	0.507092	0.172110	0.000106
C23	C	1.062788	-0.056139	0.000107
C24	C	1.060159	-0.195555	0.000103
C25	C	1.140311	-0.275900	0.000114
C26	C	1.137835	-0.406894	0.000107
C27	C	0.975048	-0.377185	0.000081
C28	C	0.977525	-0.246193	0.000082
C29	C	1.222945	-0.225262	0.000136
C30	C	1.303104	-0.305609	0.000148
C31	C	1.300628	-0.436603	0.000141
C32	C	1.217993	-0.487250	0.000121
C33	C	1.221159	0.164530	0.000118
C34	C	1.320470	0.167156	0.000122
C35	C	1.052577	0.403044	0.000098
C36	C	1.055206	0.542460	0.000096
N37	N	1.057664	0.173435	0.235461
N38	N	1.057708	0.173460	-0.235253
C39	C	1.117962	0.088185	0.287509
C40	C	1.117968	0.088184	0.391612
C41	C	1.057679	0.173440	0.443665
C42	C	0.997375	0.258693	0.391610
C43	C	0.997365	0.258687	0.287509
C44	C	0.997400	0.258702	0.608590
C45	C	0.997410	0.258710	0.712698
C46	C	1.118002	0.088199	0.712694
C47	C	1.117993	0.088193	0.608592
C48	C	1.057689	0.173448	0.556544
H49	H	0.311074	0.374929	0.000114
H50	H	0.347201	-0.040145	0.000132
O51	O	1.215474	-0.614478	0.000242
C52	C	1.170012	-0.650116	0.085901
H53	H	1.123909	-0.565962	0.114457
H54	H	1.128346	-0.730446	0.066628
H55	H	1.221018	-0.682757	0.145883
H56	H	0.912258	-0.180773	0.000074
H57	H	0.768160	0.387053	0.000067
H58	H	1.370382	-0.264362	0.000139
H59	H	0.907771	-0.418433	0.000067
O60	O	1.176545	0.005206	0.763135
C61	C	1.161232	-0.119152	0.737728
H62	H	1.126747	-0.119081	0.662150
H63	H	1.228087	-0.180831	0.734157
H64	H	1.116484	-0.158102	0.796329
H65	H	0.598884	0.382560	0.000088
O66	O	1.378572	-0.514473	0.000192
C67	C	1.452033	-0.441683	0.000184
H68	H	1.429930	-0.343957	0.031493
H69	H	1.508235	-0.489925	0.048208
H70	H	1.477336	-0.432306	-0.079154
H71	H	0.948315	0.328132	0.755075
H72	H	1.167067	0.018767	0.433989
O73	O	1.176562	0.005246	0.237103
C74	C	1.229797	-0.069977	0.305371
H75	H	1.193122	-0.071474	0.379583
H76	H	1.242821	-0.170241	0.275304
H77	H	1.296492	-0.029044	0.316429
O78	O	0.938790	0.341642	0.558183
C79	C	0.885567	0.416876	0.626446
H80	H	0.922251	0.418380	0.700649
H81	H	0.872542	0.517137	0.596359
H82	H	0.818870	0.375950	0.637530
O83	O	0.938771	0.341337	0.442283
C84	C	0.883171	0.273952	0.502500
H85	H	0.918192	0.175765	0.518099
H86	H	0.869354	0.326341	0.575701
H87	H	0.817010	0.265263	0.462394
O88	O	0.938761	0.341623	0.237100
C89	C	0.885536	0.416854	0.305363
H90	H	0.922222	0.418366	0.379564
H91	H	0.872504	0.517114	0.275274
H92	H	0.818843	0.375920	0.316451
H93	H	0.480361	0.379420	0.000087
O94	O	0.525262	-0.053553	0.000070
C95	C	0.472861	-0.156139	0.000098
H96	H	0.403424	-0.124365	-0.031201
H97	H	0.506782	-0.235418	-0.047925
H98	H	0.466007	-0.191590	0.079441
H99	H	0.804290	-0.028022	0.000096
H100	H	1.167089	0.018778	0.566211
H101	H	0.634998	-0.032505	0.000125
H102	H	1.224970	-0.118601	0.000145
