data_functionalizedCrystal
_audit_creation_method	'MofGen! by Chris Wilmer'
_symmetry_space_group_name_H-M	'P1'
_symmetry_Int_Tables_number	1
_symmetry_cell_setting	triclinic
loop_
_symmetry_equiv_pos_as_xyz
  x,y,z
_cell_length_a	15.995292
_cell_length_b	14.472310
_cell_length_c	15.995292
_cell_angle_alpha	90.002121
_cell_angle_beta	96.531384
_cell_angle_gamma	90.014199
loop_
_atom_site_label
_atom_site_type_symbol
_atom_site_fract_x
_atom_site_fract_y
_atom_site_fract_z
O1	O	1.111004	0.076859	-0.107692
O2	O	0.867220	0.076855	-0.121071
O3	O	0.995801	0.076859	0.007511
O4	O	0.982423	0.076856	-0.236274
O5	O	0.995768	-0.076823	0.007504
O6	O	0.867187	-0.076827	-0.121078
O7	O	1.110971	-0.076823	-0.107699
Cu8	Cu	0.989076	-0.090857	-0.114389
Cu9	Cu	0.989115	0.090889	-0.114381
O10	O	0.982390	-0.076826	-0.236281
C11	C	0.836008	0.000013	-0.120530
C12	C	0.743055	0.000012	-0.118898
C13	C	0.405318	0.000022	-0.112896
C14	C	0.428611	0.000364	-0.205703
C15	C	0.525286	0.000014	-0.207467
C16	C	0.572873	0.000018	-0.115874
C17	C	0.543762	-0.087738	-0.069479
C18	C	0.446972	-0.087808	-0.068362
C19	C	0.447154	0.086957	-0.066458
C20	C	0.543646	0.088113	-0.069898
C21	C	0.667569	0.000012	-0.117552
C22	C	0.310622	0.000022	-0.111215
N23	N	0.989055	-0.218688	-0.114395
C24	C	0.989114	-0.592779	-0.114377
C25	C	0.920082	-0.553616	-0.182948
C26	C	0.920241	-0.446527	-0.183198
C27	C	0.989084	-0.407188	-0.114386
C28	C	1.076447	-0.446024	-0.133450
C29	C	1.076059	-0.553146	-0.133938
C30	C	0.971563	-0.553308	-0.026539
C31	C	0.969559	-0.446181	-0.027125
C32	C	0.989072	-0.302300	-0.114390
C33	C	0.989131	-0.697668	-0.114376
C34	C	1.142183	0.000021	-0.108240
C35	C	1.235136	0.000028	-0.109873
C36	C	0.995240	0.000020	0.038703
C37	C	0.993608	0.000027	0.131655
N38	N	0.989143	0.218720	-0.114368
C39	C	0.982951	0.000014	-0.267473
C40	C	0.984583	0.000013	-0.360426
C41	C	0.987607	0.000018	0.469393
C42	C	1.080413	-0.000323	0.446100
C43	C	1.082177	0.000026	0.349424
C44	C	0.990584	0.000022	0.301837
C45	C	0.944204	0.087778	0.330933
C46	C	0.943087	0.087848	0.427723
C47	C	0.941154	-0.086917	0.427571
C48	C	0.944593	-0.088073	0.331080
C49	C	0.992263	0.000027	0.207141
C50	C	0.985926	0.000019	0.564088
H51	H	0.433176	0.087553	0.001854
C52	C	0.851163	0.093271	0.447353
C53	C	0.822218	0.174915	0.498687
C54	C	0.730295	0.180360	0.518306
C55	C	0.667316	0.104161	0.486590
C56	C	0.696260	0.022511	0.435252
C57	C	0.788183	0.017066	0.415634
H58	H	0.868839	0.231328	0.522168
H59	H	0.708869	0.240804	0.556309
H60	H	0.599269	0.108192	0.501112
H61	H	0.649639	-0.033901	0.411772
H62	H	0.809609	-0.043377	0.377631
C63	C	0.586834	-0.092159	0.021572
C64	C	0.533287	-0.091799	0.095721
C65	C	0.576361	-0.096219	0.186772
C66	C	0.672982	-0.100999	0.203674
C67	C	0.726534	-0.101358	0.129523
C68	C	0.683461	-0.096938	0.038472
H69	H	0.461757	-0.088261	0.083211
H70	H	0.536717	-0.095953	0.241663
H71	H	0.704868	-0.104271	0.271075
H72	H	0.798064	-0.104897	0.142033
H73	H	0.723104	-0.097205	-0.016419
C74	C	1.131254	-0.084952	0.323727
C75	C	1.087546	-0.156712	0.262460
C76	C	1.136630	-0.241691	0.236770
C77	C	1.229422	-0.254910	0.272347
C78	C	1.273135	-0.183147	0.333617
C79	C	1.224052	-0.098168	0.359307
H80	H	1.018851	-0.146928	0.236121
H81	H	1.104270	-0.294814	0.191414
H82	H	1.265757	-0.317816	0.253330
H83	H	1.341830	-0.192931	0.359956
H84	H	1.256412	-0.045045	0.404663
C85	C	0.887352	-0.589836	-0.001782
C86	C	0.857045	-0.560214	0.082198
C87	C	0.772830	-0.596742	0.106943
C88	C	0.718923	-0.662893	0.047708
C89	C	0.749229	-0.692519	-0.036277
C90	C	0.833444	-0.655990	-0.061022
H91	H	0.896951	-0.511243	0.126051
H92	H	0.750396	-0.574811	0.169114
H93	H	0.656582	-0.689933	0.066026
H94	H	0.709323	-0.741490	-0.080130
H95	H	0.855879	-0.677922	-0.123193
H96	H	0.563800	-0.153049	-0.101704
C97	C	0.832509	-0.411051	-0.167878
C98	C	0.761813	-0.480193	-0.155328
C99	C	0.674075	-0.444721	-0.140015
C100	C	0.657032	-0.340108	-0.137252
C101	C	0.727730	-0.270959	-0.149802
C102	C	0.815468	-0.306431	-0.165115
H103	H	0.774427	-0.557639	-0.157373
H104	H	0.621740	-0.495910	-0.130724
H105	H	0.592083	-0.313850	-0.125916
H106	H	0.715116	-0.193513	-0.147757
H107	H	0.867803	-0.255242	-0.174405
C108	C	0.588207	0.095272	0.020419
C109	C	0.536155	0.095562	0.095702
C110	C	0.580719	0.102709	0.186022
C111	C	0.677336	0.109566	0.201057
C112	C	0.729395	0.109277	0.125771
C113	C	0.684830	0.102130	0.035452
H114	H	0.464628	0.090485	0.084574
H115	H	0.542181	0.102923	0.241753
H116	H	0.710326	0.114857	0.267917
H117	H	0.800922	0.114353	0.136900
H118	H	0.723368	0.101916	-0.020279
C119	C	0.935381	-0.411892	-0.271256
C120	C	1.016842	-0.438209	-0.308367
C121	C	1.031985	-0.403575	-0.396429
C122	C	0.965667	-0.342624	-0.447380
C123	C	0.884200	-0.316304	-0.410270
C124	C	0.869057	-0.350938	-0.322208
H125	H	1.065939	-0.483331	-0.270649
H126	H	1.092292	-0.423060	-0.423900
H127	H	0.976876	-0.316987	-0.512569
H128	H	0.835103	-0.271182	-0.447988
H129	H	0.808750	-0.331453	-0.294737
H130	H	0.970367	-0.153436	0.455663
C131	C	0.832080	-0.588462	-0.167825
C132	C	0.779581	-0.645862	-0.235866
C133	C	0.691583	-0.680717	-0.220719
C134	C	0.656084	-0.658173	-0.137530
C135	C	0.708583	-0.600771	-0.069483
C136	C	0.796581	-0.565915	-0.084630
H137	H	0.805859	-0.662553	-0.297453
H138	H	0.652720	-0.723211	-0.271092
H139	H	0.590943	-0.683975	-0.126317
H140	H	0.682305	-0.584079	-0.007896
H141	H	0.835444	-0.523422	-0.034257
C142	C	0.848869	-0.087729	0.446453
C143	C	0.789674	-0.166328	0.412247
C144	C	0.697393	-0.167131	0.431134
C145	C	0.664307	-0.089335	0.484228
C146	C	0.723503	-0.010730	0.518438
C147	C	0.815785	-0.009927	0.499551
H148	H	0.814165	-0.223923	0.372940
H149	H	0.653572	-0.225320	0.405809
H150	H	0.595995	-0.089930	0.498209
H151	H	0.699012	0.046864	0.557744
H152	H	0.859605	0.048262	0.524875
C153	C	0.551003	0.084989	-0.256559
C154	C	0.483510	0.153643	-0.294428
C155	C	0.509222	0.238618	-0.343527
C156	C	0.602426	0.254939	-0.354759
C157	C	0.669925	0.186283	-0.316890
C158	C	0.644213	0.101308	-0.267790
H159	H	0.414510	0.141564	-0.286114
H160	H	0.459254	0.289442	-0.371561
H161	H	0.621459	0.317843	-0.391105
H162	H	0.738925	0.198363	-0.325203
H163	H	0.694181	0.050484	-0.239756
C164	C	1.128729	-0.085335	0.483939
C165	C	1.097204	-0.183263	0.459409
C166	C	1.145519	-0.268276	0.497260
C167	C	1.225359	-0.255361	0.559640
C168	C	1.256888	-0.157429	0.584174
C169	C	1.208573	-0.072416	0.546323
H170	H	1.038099	-0.192827	0.413229
H171	H	1.122179	-0.340772	0.479098
H172	H	1.261125	-0.318293	0.587659
H173	H	1.315994	-0.147865	0.630354
H174	H	1.231913	0.000080	0.564485
H175	H	0.562223	0.153035	-0.103678
C176	C	0.427330	-0.093200	0.023561
C177	C	0.376879	-0.015444	0.060312
C178	C	0.357243	-0.020844	0.152233
C179	C	0.388058	-0.103999	0.207403
C180	C	0.438512	-0.181761	0.170653
C181	C	0.458148	-0.176361	0.078732
H182	H	0.354065	0.046117	0.019471
H183	H	0.319893	0.036720	0.179438
H184	H	0.373522	-0.107997	0.275448
H185	H	0.461326	-0.243323	0.211493
H186	H	0.495497	-0.233926	0.051527
C187	C	0.390796	0.085380	-0.254034
C188	C	0.405471	0.100244	-0.346573
C189	C	0.367650	0.185263	-0.394905
C190	C	0.315155	0.255418	-0.350697
C191	C	0.300477	0.240556	-0.258152
C192	C	0.338298	0.155537	-0.209821
H193	H	0.444334	0.048309	-0.379303
H194	H	0.378516	0.196264	-0.463413
H195	H	0.287158	0.318354	-0.386475
H196	H	0.261614	0.292492	-0.225422
H197	H	0.327432	0.144536	-0.141313
C198	C	1.096951	-0.586896	-0.220477
C199	C	1.033413	-0.647090	-0.275867
C200	C	1.054304	-0.680835	-0.362409
C201	C	1.138732	-0.654386	-0.393561
C202	C	1.202276	-0.594189	-0.338170
C203	C	1.181385	-0.560444	-0.251628
H204	H	0.970909	-0.666672	-0.252807
H205	H	1.007264	-0.725397	-0.403412
H206	H	1.154197	-0.679366	-0.457624
H207	H	1.264780	-0.574607	-0.361230
H208	H	1.228424	-0.515882	-0.210624
H209	H	0.931133	-0.580526	-0.247765
H210	H	0.399571	-0.062217	-0.241280
H211	H	0.543668	-0.063001	-0.244027
C212	C	1.147540	-0.588150	-0.069040
C213	C	1.204795	-0.518628	-0.016940
C214	C	1.276279	-0.553627	0.047951
C215	C	1.290507	-0.658148	0.060741
C216	C	1.233250	-0.727676	0.008639
C217	C	1.161766	-0.692677	-0.056252
H218	H	1.194264	-0.441249	-0.026406
H219	H	1.318664	-0.502157	0.086520
H220	H	1.343424	-0.684056	0.108777
H221	H	1.243782	-0.805055	0.018106
H222	H	1.119381	-0.744147	-0.094821
H223	H	0.420134	-0.153410	-0.100499
H224	H	1.129043	-0.420539	-0.084835
C225	C	1.039561	-0.587525	0.042403
C226	C	1.051516	-0.691832	0.058602
C227	C	1.119515	-0.726055	0.127537
C228	C	1.175560	-0.655970	0.180273
C229	C	1.163607	-0.551657	0.164075
C230	C	1.095608	-0.517434	0.095140
H231	H	1.010027	-0.743718	0.019563
H232	H	1.128363	-0.803275	0.139527
H233	H	1.225897	-0.681304	0.231302
H234	H	1.205096	-0.499770	0.203115
H235	H	1.086760	-0.440214	0.083150
H236	H	1.116000	0.062259	0.475128
C237	C	0.986524	0.176466	0.463971
C238	C	1.065241	0.169767	0.528741
C239	C	1.108682	0.258385	0.564984
C240	C	1.073406	0.353703	0.536457
C241	C	0.994685	0.360407	0.471684
C242	C	0.951244	0.271788	0.435440
H243	H	1.091359	0.099203	0.549862
H244	H	1.166957	0.253423	0.612934
H245	H	1.105564	0.419304	0.563287
H246	H	0.968567	0.430970	0.450563
H247	H	0.892969	0.276751	0.387491
C248	C	0.987751	0.176014	0.303857
C249	C	1.080782	0.194284	0.335735
C250	C	1.124334	0.282516	0.308661
C251	C	1.074855	0.352479	0.249710
C252	C	0.981819	0.334211	0.217828
C253	C	0.938267	0.245978	0.244902
H254	H	1.117413	0.142492	0.379377
H255	H	1.193205	0.296039	0.332263
H256	H	1.107095	0.417794	0.229668
H257	H	0.945188	0.386003	0.174186
H258	H	0.869396	0.232455	0.221301
H259	H	0.418836	0.153472	-0.095463
H260	H	1.092286	-0.419187	-0.196779
C261	C	0.990201	-0.175773	0.305967
C262	C	0.942962	-0.247292	0.246922
C263	C	0.988568	-0.334985	0.221787
C264	C	1.081413	-0.351160	0.255697
C265	C	1.128657	-0.279639	0.314744
C266	C	1.083051	-0.191946	0.339879
H267	H	0.874228	-0.235321	0.221818
H268	H	0.953594	-0.387930	0.178076
H269	H	1.115173	-0.416076	0.237090
H270	H	1.197391	-0.291611	0.339849
H271	H	1.118025	-0.139002	0.383591
H272	H	0.877738	-0.093376	0.298096
H273	H	0.905294	-0.420799	-0.012657
H274	H	1.118744	0.063045	0.331030
H275	H	1.016574	-0.419405	0.026292
H276	H	0.876805	0.091038	0.299051
