data_functionalizedCrystal
_audit_creation_method	'MofGen! by Chris Wilmer'
_symmetry_space_group_name_H-M	'P1'
_symmetry_Int_Tables_number	1
_symmetry_cell_setting	triclinic
loop_
_symmetry_equiv_pos_as_xyz
  x,y,z
_cell_length_a	27.732048
_cell_length_b	11.792241
_cell_length_c	10.268362
_cell_angle_alpha	90.005428
_cell_angle_beta	89.999089
_cell_angle_gamma	83.418035
loop_
_atom_site_label
_atom_site_type_symbol
_atom_site_fract_x
_atom_site_fract_y
_atom_site_fract_z
O1	O	-0.641711	-0.135041	-0.108133
O2	O	-0.141711	0.364959	0.391867
O3	O	-0.501036	-0.155574	-0.108173
O4	O	-0.001036	0.344426	0.391827
O5	O	-0.574787	0.019972	-0.108143
O6	O	-0.074787	0.519972	0.391857
O7	O	-0.567960	-0.310587	-0.108163
O8	O	-0.067960	0.189413	0.391837
O9	O	-0.574781	0.019979	0.108458
O10	O	-0.074781	0.519979	0.608458
O11	O	-0.501030	-0.155567	0.108428
O12	O	-0.001030	0.344433	0.608428
O13	O	-0.641704	-0.135034	0.108467
O14	O	-0.141704	0.364966	0.608467
Cu15	Cu	-0.571366	-0.145300	0.128225
Cu16	Cu	-0.071366	0.354700	0.628225
Cu17	Cu	-0.571374	-0.145308	-0.127930
Cu18	Cu	-0.071374	0.354692	0.372070
O19	O	-0.567953	-0.310580	0.108438
O20	O	-0.067953	0.189420	0.608438
C21	C	-0.483024	-0.155140	0.000123
C22	C	0.016976	0.344860	0.500123
C23	C	-0.429361	-0.153842	0.000108
C24	C	0.070639	0.346158	0.500108
C25	C	-0.574355	0.062253	0.000157
C26	C	-0.074355	0.562253	0.500157
C27	C	-0.573071	0.188226	0.000155
C28	C	-0.073071	0.688226	0.500155
C29	C	-0.659717	-0.135469	0.000169
C30	C	-0.159717	0.364531	0.500169
C31	C	-0.713379	-0.136766	0.000175
C32	C	-0.213379	0.363234	0.500175
C33	C	-0.091101	-0.249407	0.000158
C34	C	0.408899	0.250593	0.500158
C35	C	0.110587	-0.244592	0.000170
C36	C	0.610587	0.255408	0.500170
O37	O	0.141335	-0.331980	0.000221
O38	O	0.641335	0.168020	0.500221
N39	N	0.130315	-0.140500	0.000174
N40	N	0.630315	0.359500	0.500174
C41	C	0.099617	-0.037605	0.000184
C42	C	0.599617	0.462395	0.500184
O43	O	0.121024	0.051042	0.000201
O44	O	0.621024	0.551042	0.500201
C45	C	-0.102070	-0.042422	0.000181
C46	C	0.397930	0.457578	0.500181
C47	C	-0.121794	-0.146520	0.000164
C48	C	0.378206	0.353480	0.500164
C49	C	-0.110826	-0.353497	0.000143
C50	C	0.389174	0.146503	0.500143
C51	C	-0.161245	-0.354700	0.000133
C52	C	0.338755	0.145300	0.500133
C53	C	-0.191939	-0.251813	0.000138
C54	C	0.308061	0.248187	0.500138
C55	C	-0.172213	-0.147723	0.000154
C56	C	0.327787	0.352277	0.500154
C57	C	-0.132766	0.060472	0.000200
C58	C	0.367234	0.560472	0.500200
C59	C	-0.183191	0.059259	0.000203
C60	C	0.316809	0.559259	0.500203
C61	C	-0.202915	-0.044840	0.000186
C62	C	0.297085	0.455160	0.500186
C63	C	-0.253326	-0.046038	0.000150
C64	C	0.246674	0.453962	0.500150
N65	N	-0.273054	-0.150130	0.000146
N66	N	0.226946	0.349870	0.500146
C67	C	-0.242360	-0.253017	0.000140
C68	C	0.257640	0.246983	0.500140
C69	C	0.205506	-0.035084	0.000183
C70	C	0.705506	0.464916	0.500183
C71	C	0.255927	-0.033879	0.000181
C72	C	0.755927	0.466121	0.500181
C73	C	0.266894	-0.240866	0.000170
C74	C	0.766894	0.259134	0.500170
C75	C	0.216471	-0.242070	0.000162
C76	C	0.716471	0.257930	0.500162
C77	C	0.185778	-0.139175	0.000179
C78	C	0.685778	0.360825	0.500179
C79	C	-0.348244	-0.255535	0.000118
C80	C	0.151756	0.244465	0.500118
C81	C	-0.398668	-0.256729	0.000102
C82	C	0.101332	0.243271	0.500102
C83	C	-0.409630	-0.049742	0.000120
C84	C	0.090370	0.450258	0.500120
C85	C	-0.359210	-0.048548	0.000129
C86	C	0.140790	0.451452	0.500129
C87	C	-0.328518	-0.151454	0.000132
C88	C	0.171482	0.348546	0.500132
O89	O	-0.284103	0.041303	0.000113
O90	O	0.215897	0.541303	0.500113
O91	O	-0.263777	-0.341651	0.000152
O92	O	0.236223	0.158349	0.500152
C93	C	-0.040682	-0.248205	0.000169
C94	C	0.459318	0.251795	0.500169
C95	C	-0.020957	-0.144115	0.000184
C96	C	0.479043	0.355885	0.500184
C97	C	-0.051650	-0.041227	0.000190
C98	C	0.448350	0.458773	0.500190
C99	C	0.029465	-0.142910	0.000183
C100	C	0.529465	0.357090	0.500183
C101	C	0.060159	-0.245797	0.000177
C102	C	0.560159	0.254203	0.500177
C103	C	0.040431	-0.349889	0.000173
C104	C	0.540431	0.150111	0.500173
C105	C	-0.009988	-0.351092	0.000163
C106	C	0.490012	0.148908	0.500163
C107	C	-0.031923	0.062864	0.000194
C108	C	0.468077	0.562864	0.500194
C109	C	0.018497	0.064058	0.000203
C110	C	0.518497	0.564058	0.500203
C111	C	0.049191	-0.038829	0.000197
C112	C	0.549191	0.461171	0.500197
C113	C	-0.568385	-0.352861	0.000135
C114	C	-0.068385	0.147139	0.500135
C115	C	-0.569669	-0.478834	0.000128
C116	C	-0.069669	0.021166	0.500128
N117	N	-0.571365	-0.145293	0.308391
N118	N	-0.071365	0.354707	0.808391
C119	C	-0.570711	0.418862	0.000133
C120	C	-0.070711	0.918862	0.500133
C121	C	-0.572023	0.290519	0.000145
C122	C	-0.072023	0.790519	0.500145
N123	N	-0.571380	-0.145306	-0.308096
N124	N	-0.071380	0.354694	0.191904
C125	C	-0.571372	-0.145306	0.574062
C126	C	-0.071372	0.354694	1.074062
C127	C	-0.571366	-0.145302	0.426224
C128	C	-0.071366	0.354698	0.926224
H129	H	-0.323260	-0.339331	0.000124
H130	H	0.176740	0.160669	0.500124
H131	H	0.200415	-0.326836	0.000156
H132	H	0.700415	0.173164	0.500156
N133	N	-0.216292	0.170245	0.000226
N134	N	0.283708	0.670245	0.500226
H135	H	-0.209912	0.215700	-0.080060
H136	H	0.290088	0.715700	0.419940
H137	H	-0.251215	0.153605	0.000271
H138	H	0.248785	0.653605	0.500271
N139	N	-0.337939	0.063734	0.000149
N140	N	0.162061	0.563734	0.500149
H141	H	-0.317270	0.068848	0.080456
H142	H	0.182730	0.568848	0.580456
H143	H	-0.317282	0.068793	-0.080185
H144	H	0.182718	0.568793	0.419815
H145	H	0.034551	0.148834	0.000206
H146	H	0.534551	0.648834	0.500206
H147	H	0.291893	-0.324641	0.000166
H148	H	0.791893	0.175359	0.500166
N149	N	0.073550	-0.460849	0.000200
N150	N	0.573550	0.039151	0.500200
H151	H	0.067172	-0.506287	0.080501
H152	H	0.567172	-0.006287	0.580501
H153	H	0.067174	-0.506244	-0.080140
H154	H	0.567174	-0.006244	0.419860
H155	H	-0.177300	-0.439467	0.000118
H156	H	0.322700	0.060533	0.500118
H157	H	-0.085840	-0.437285	0.000143
H158	H	0.414160	0.062715	0.500143
N159	N	0.277199	0.078397	0.000176
N160	N	0.777199	0.578397	0.500176
H161	H	0.250099	0.143387	0.000183
H162	H	0.750099	0.643387	0.500183
H163	H	0.297879	0.083412	0.080474
H164	H	0.797879	0.583412	0.580474
N165	N	-0.065024	0.173841	0.000210
N166	N	0.434976	0.673841	0.500210
H167	H	-0.044871	0.239957	0.000216
H168	H	0.455129	0.739957	0.500216
H169	H	-0.086181	0.177855	-0.080090
H170	H	0.413819	0.677855	0.419910
H171	H	-0.434629	0.034026	0.000120
H172	H	0.065371	0.534026	0.500120
N173	N	-0.031253	-0.463377	0.000156
N174	N	0.468747	0.036623	0.500156
H175	H	-0.051929	-0.468498	0.080448
H176	H	0.448071	0.031502	0.580448
H177	H	-0.051901	-0.468439	-0.080193
H178	H	0.448099	0.031561	0.419807
N179	N	-0.419937	-0.369016	0.000075
N180	N	0.080063	0.130984	0.500075
H181	H	-0.408766	-0.414049	0.080367
H182	H	0.091234	0.085951	0.580367
H183	H	-0.456533	-0.354086	0.000016
H184	H	0.043467	0.145914	0.500016
N185	N	0.172409	0.075910	0.000185
N186	N	0.672409	0.575910	0.500185
H187	H	0.151245	0.080028	-0.080109
H188	H	0.651245	0.580028	0.419891
H189	H	0.151275	0.079979	0.080532
H190	H	0.651275	0.579979	0.580532
N191	N	-0.111500	0.172751	0.000225
N192	N	0.388500	0.672751	0.500225
H193	H	-0.138602	0.237736	0.000239
H194	H	0.361398	0.737736	0.500239
H195	H	-0.090822	0.177759	0.080528
H196	H	0.409178	0.677759	0.580528
