data_functionalizedCrystal
_audit_creation_method	'MofGen! by Chris Wilmer'
_symmetry_space_group_name_H-M	'P1'
_symmetry_Int_Tables_number	1
_symmetry_cell_setting	triclinic
loop_
_symmetry_equiv_pos_as_xyz
  x,y,z
_cell_length_a	6.817900
_cell_length_b	19.551136
_cell_length_c	16.306216
_cell_angle_alpha	95.888180
_cell_angle_beta	103.467292
_cell_angle_gamma	101.650842
loop_
_atom_site_label
_atom_site_type_symbol
_atom_site_fract_x
_atom_site_fract_y
_atom_site_fract_z
V1	V	-4.017338	-0.097224	-0.263444
O2	O	-4.014322	0.004110	-0.258001
O3	O	-3.959984	-0.192238	-0.262053
O4	O	-3.968905	-0.095975	-0.378153
O5	O	-4.005340	-0.092820	-0.141098
V6	V	-4.502131	-0.085074	-0.248760
O7	O	-4.275812	-0.123876	-0.295653
O8	O	-4.693855	-0.058423	-0.216551
O9	O	-4.336279	0.009940	-0.250151
O10	O	-4.622544	-0.186408	-0.254203
O11	O	-4.631527	-0.089479	-0.371106
O12	O	-4.327358	-0.086323	-0.134051
C13	C	-3.802807	-0.215393	-0.258003
C14	C	-3.837200	-0.293069	-0.257631
C15	C	-3.814162	-0.319399	-0.180148
C16	C	-3.846549	-0.392382	-0.179772
C17	C	-3.901934	-0.439034	-0.256883
C18	C	-3.924984	-0.412697	-0.334376
C19	C	-3.892617	-0.339715	-0.334750
C20	C	-3.866429	-0.560161	-0.312794
C21	C	-3.898781	-0.633141	-0.312417
C22	C	-4.001775	-0.664135	-0.255733
C23	C	-4.072380	-0.622138	-0.199411
C24	C	-4.040013	-0.549156	-0.199785
C25	C	-3.937036	-0.518172	-0.256486
C26	C	-4.013855	-0.769601	-0.177837
C27	C	-4.046256	-0.842587	-0.177464
C28	C	-4.124672	-0.862900	-0.332071
C29	C	-4.092291	-0.789916	-0.332441
C30	C	-4.036873	-0.743270	-0.255322
C31	C	-3.814186	-0.092599	-0.406099
C32	C	-3.855811	-0.092207	-0.499877
C33	C	-4.006900	-0.090799	-0.840623
C34	C	-4.210885	-0.095434	-0.810195
C35	C	-4.167602	-0.095574	-0.712604
C36	C	-3.931944	-0.091498	-0.671575
C37	C	-3.802721	-0.022193	-0.691484
C38	C	-3.847389	-0.021762	-0.789080
C39	C	-3.914285	-0.155222	-0.814783
C40	C	-3.875591	-0.156590	-0.717472
C41	C	-3.889570	-0.091890	-0.576036
C42	C	-4.049265	-0.090402	-0.936162
C43	C	-4.156797	0.033091	-0.254198
C44	C	-4.101643	0.110767	-0.254576
C45	C	-4.145419	-0.089701	-0.106100
C46	C	-4.083033	-0.090090	-0.012321
H47	H	-3.911386	-0.318280	-0.397849
C48	C	-4.117598	-0.760947	-0.417674
C49	C	-4.279279	-0.716945	-0.443218
C50	C	-4.304592	-0.687976	-0.528454
C51	C	-4.168225	-0.703009	-0.588146
C52	C	-4.006533	-0.747013	-0.562603
C53	C	-3.981219	-0.775982	-0.477367
H54	H	-4.380236	-0.705815	-0.399029
H55	H	-4.424288	-0.655401	-0.547363
H56	H	-4.186964	-0.681565	-0.651243
H57	H	-3.905576	-0.758144	-0.606792
H58	H	-3.861523	-0.808557	-0.458458
H59	H	-3.827784	-0.413824	-0.116674
H60	H	-3.706605	-0.157660	-0.690066
C61	C	-3.753113	-0.526070	-0.375147
C62	C	-3.675413	-0.572258	-0.437083
C63	C	-3.562098	-0.538168	-0.499432
C64	C	-3.526484	-0.457891	-0.499844
C65	C	-3.604186	-0.411698	-0.437905
C66	C	-3.717500	-0.445788	-0.375556
H67	H	-3.701775	-0.631689	-0.436781
H68	H	-3.504578	-0.572363	-0.545283
H69	H	-3.442602	-0.432655	-0.545998
H70	H	-3.577823	-0.352268	-0.438208
H71	H	-3.775020	-0.411593	-0.329705
H72	H	-3.970084	-0.450685	-0.397161
C73	C	-4.060699	-0.225580	-0.863503
C74	C	-4.266250	-0.225432	-0.927386
C75	C	-4.412683	-0.295785	-0.976109
C76	C	-4.353565	-0.366287	-0.960949
C77	C	-4.148005	-0.366437	-0.897064
C78	C	-4.001572	-0.296084	-0.848341
H79	H	-4.310021	-0.173240	-0.938610
H80	H	-4.564852	-0.295673	-1.023401
H81	H	-4.461964	-0.418366	-0.997017
H82	H	-4.104234	-0.418629	-0.885840
H83	H	-3.849402	-0.296196	-0.801049
C84	C	-4.185689	-0.656222	-0.137056
C85	C	-4.221324	-0.736500	-0.136647
C86	C	-4.334626	-0.770587	-0.074293
C87	C	-4.412293	-0.724395	-0.012348
C88	C	-4.376660	-0.644112	-0.012754
C89	C	-4.263358	-0.610025	-0.075108
H90	H	-4.163828	-0.770698	-0.182504
H91	H	-4.361003	-0.830018	-0.073992
H92	H	-4.496167	-0.749628	0.033811
H93	H	-4.434156	-0.609914	0.033103
H94	H	-4.236981	-0.550594	-0.075409
H95	H	-3.840977	0.026155	-0.659239
H96	H	-3.762684	-0.152377	-0.833931
C97	C	-4.303593	-0.162872	-0.695507
C98	C	-4.541572	-0.177155	-0.726289
C99	C	-4.677579	-0.244456	-0.709201
C100	C	-4.575607	-0.297473	-0.661331
C101	C	-4.337615	-0.283191	-0.630546
C102	C	-4.201608	-0.215891	-0.647634
H103	H	-4.617069	-0.137908	-0.761728
H104	H	-4.853756	-0.255028	-0.731990
H105	H	-4.676287	-0.347293	-0.648681
H106	H	-4.262118	-0.322439	-0.595107
H107	H	-4.025431	-0.205319	-0.624845
C108	C	-3.753230	-0.268090	-0.095319
C109	C	-3.727905	-0.297059	-0.010087
C110	C	-3.666978	-0.245748	0.074742
C111	C	-3.631376	-0.165470	0.074338
C112	C	-3.656701	-0.136498	-0.010897
C113	C	-3.717628	-0.187808	-0.095726
H114	H	-3.754260	-0.356489	-0.009785
H115	H	-3.648231	-0.267196	0.137839
H116	H	-3.586274	-0.127487	0.137134
H117	H	-3.630346	-0.077067	-0.011199
H118	H	-3.736374	-0.166360	-0.158822
H119	H	-3.841283	-0.667329	-0.358275
C120	C	-3.952923	-0.718286	-0.093010
C121	C	-3.927616	-0.747252	-0.007776
C122	C	-3.866687	-0.695940	0.077051
C123	C	-3.831065	-0.615661	0.076644
C124	C	-3.856372	-0.586691	-0.008593
C125	C	-3.917301	-0.638004	-0.093420
H126	H	-3.953986	-0.806683	-0.007472
H127	H	-3.847954	-0.717386	0.140148
H128	H	-3.785962	-0.577677	0.139438
H129	H	-3.830002	-0.527261	-0.008897
H130	H	-3.936034	-0.616558	-0.156518
H131	H	-4.097507	-0.514965	-0.153928
C132	C	-4.020914	-0.871550	-0.092226
C133	C	-4.205534	-0.922302	-0.074723
C134	C	-4.180190	-0.951265	0.010517
C135	C	-3.970227	-0.929476	0.078255
C136	C	-3.785593	-0.878721	0.060754
C137	C	-3.810936	-0.849758	-0.024486
H138	H	-4.360974	-0.938434	-0.124868
H139	H	-4.316870	-0.988837	0.023472
H140	H	-3.951466	-0.950916	0.141355
H141	H	-3.630153	-0.862588	0.110899
H142	H	-3.674257	-0.812185	-0.037441
C143	C	-4.185597	-0.914208	-0.416895
C144	C	-4.221206	-0.994486	-0.416490
C145	C	-4.282144	-1.045798	-0.501317
C146	C	-4.307473	-1.016832	-0.586551
C147	C	-4.271864	-0.936549	-0.586960
C148	C	-4.210926	-0.885237	-0.502132
H149	H	-4.202457	-1.015932	-0.353392
H150	H	-4.308505	-1.105228	-0.501014
H151	H	-4.352583	-1.054816	-0.649345
H152	H	-4.290613	-0.915103	-0.650058
H153	H	-4.184565	-0.825807	-0.502435
C154	C	-3.641606	-0.013321	-0.815019
C155	C	-3.463257	0.052041	-0.774711
C156	C	-3.257472	0.060488	-0.800642
C157	C	-3.230036	0.003574	-0.866881
C158	C	-3.408390	-0.061792	-0.907193
C159	C	-3.614175	-0.070239	-0.881262
H160	H	-3.483562	0.094176	-0.725674
H161	H	-3.125443	0.108877	-0.770800
H162	H	-3.077702	0.009827	-0.886077
H163	H	-3.388085	-0.103927	-0.956231
H164	H	-3.746204	-0.118628	-0.911104
C165	C	-4.004975	-0.225808	-0.701653
C166	C	-4.243465	-0.242343	-0.731210
C167	C	-4.372846	-0.311559	-0.715381
C168	C	-4.263736	-0.364241	-0.669996
C169	C	-4.025233	-0.347708	-0.640437
C170	C	-3.895852	-0.278492	-0.656266
H171	H	-4.324246	-0.203343	-0.764809
H172	H	-4.549402	-0.323797	-0.737263
H173	H	-4.359512	-0.415479	-0.658279
H174	H	-3.944452	-0.386707	-0.606838
H175	H	-3.719296	-0.266253	-0.634384
H176	H	-3.629508	-0.016689	-0.663971
H177	H	-4.333227	-0.145085	-0.844970
H178	H	-4.282007	-0.049160	-0.827547
H179	H	-3.908234	0.026970	-0.804031
H180	H	-4.217650	-0.049172	-0.682039
