data_functionalizedCrystal
_audit_creation_method	'MofGen! by Chris Wilmer'
_symmetry_space_group_name_H-M	'P1'
_symmetry_Int_Tables_number	1
_symmetry_cell_setting	triclinic
loop_
_symmetry_equiv_pos_as_xyz
  x,y,z
_cell_length_a	17.019383
_cell_length_b	17.038272
_cell_length_c	14.472310
_cell_angle_alpha	89.999298
_cell_angle_beta	86.111005
_cell_angle_gamma	87.246883
loop_
_atom_site_label
_atom_site_type_symbol
_atom_site_fract_x
_atom_site_fract_y
_atom_site_fract_z
O1	O	1.053375	0.099648	-0.160578
O2	O	1.553375	0.599648	0.339422
O3	O	0.824562	0.112337	-0.142391
O4	O	1.324562	0.612337	0.357609
O5	O	0.937609	-0.007822	-0.151369
O6	O	1.437609	0.492178	0.348631
O7	O	0.940328	0.219807	-0.151600
O8	O	1.440328	0.719807	0.348400
O9	O	0.937578	-0.007815	0.002315
O10	O	1.437578	0.492185	0.502315
O11	O	0.824531	0.112344	0.011293
O12	O	1.324531	0.612344	0.511293
O13	O	1.053344	0.099655	-0.006894
O14	O	1.553344	0.599655	0.493106
Cu15	Cu	0.938935	0.106000	0.016232
Cu16	Cu	1.438935	0.606000	0.516232
Cu17	Cu	0.938971	0.105992	-0.165517
Cu18	Cu	1.438971	0.605992	0.334483
O19	O	0.940298	0.219814	0.002084
O20	O	1.440298	0.719814	0.502084
C21	C	0.795125	0.111858	-0.063210
C22	C	1.295125	0.611858	0.436790
C23	C	0.707458	0.110409	-0.056242
C24	C	1.207458	0.610409	0.443758
C25	C	0.935120	-0.036944	-0.074331
C26	C	1.435120	0.463056	0.425669
C27	C	0.927739	-0.123731	-0.073744
C28	C	1.427739	0.376269	0.426256
C29	C	0.666281	0.109727	-0.136735
C30	C	1.166281	0.609727	0.363265
C31	C	0.583908	0.108378	-0.130174
C32	C	1.083908	0.608378	0.369826
C33	C	0.542713	0.107706	-0.043119
C34	C	1.042713	0.607706	0.456881
C35	C	0.583895	0.108391	0.037380
C36	C	1.083895	0.608391	0.537380
C37	C	0.666267	0.109745	0.030818
C38	C	1.166267	0.609745	0.530818
C39	C	0.294003	0.103622	-0.019115
C40	C	0.794003	0.603622	0.480885
C41	C	0.211625	0.102266	-0.012559
C42	C	0.711625	0.602266	0.487441
C43	C	0.211643	0.102254	-0.180113
C44	C	0.711643	0.602254	0.319887
C45	C	0.294017	0.103604	-0.186667
C46	C	0.794017	0.603604	0.313333
C47	C	0.335192	0.104293	-0.106169
C48	C	0.835192	0.604293	0.393831
C49	C	0.458514	0.106325	-0.036410
C50	C	0.958514	0.606325	0.463590
C51	C	0.419389	0.105679	-0.112878
C52	C	0.919389	0.605679	0.387122
C53	C	0.995499	-0.173900	-0.079129
C54	C	1.495499	0.326100	0.420871
C55	C	0.988560	-0.255445	-0.078587
C56	C	1.488560	0.244555	0.421413
C57	C	0.913860	-0.286820	-0.072652
C58	C	1.413860	0.213180	0.427348
C59	C	0.846095	-0.236644	-0.067270
C60	C	1.346095	0.263356	0.432730
C61	C	0.853035	-0.155101	-0.067819
C62	C	1.353035	0.344899	0.432181
C63	C	0.889342	-0.532558	-0.070716
C64	C	1.389342	-0.032558	0.429284
C65	C	0.882407	-0.614108	-0.070164
C66	C	1.382407	-0.114108	0.429836
C67	C	1.024873	-0.632903	-0.081483
C68	C	1.524873	-0.132903	0.418517
C69	C	1.031807	-0.551357	-0.082026
C70	C	1.531807	-0.051357	0.417974
C71	C	0.964041	-0.501189	-0.076649
C72	C	1.464041	-0.001189	0.423351
C73	C	0.906765	-0.370171	-0.072094
C74	C	1.406765	0.129829	0.427906
C75	C	0.971137	-0.417839	-0.077213
C76	C	1.471137	0.082161	0.422787
C77	C	1.082781	0.100134	-0.086077
C78	C	1.582781	0.600134	0.413923
C79	C	1.170449	0.101583	-0.093051
C80	C	1.670449	0.601583	0.406949
C81	C	0.942787	0.248937	-0.074957
C82	C	1.442787	0.748937	0.425043
C83	C	0.950167	0.335723	-0.075549
C84	C	1.450167	0.835723	0.424451
N85	N	0.938915	0.106005	0.144065
N86	N	1.438915	0.606005	0.644065
N87	N	0.938997	0.105980	-0.293350
N88	N	1.438997	0.605980	0.206650
C89	C	0.938970	0.105989	0.518152
C90	C	1.438970	0.605989	1.018152
C91	C	0.878249	0.170068	0.483808
C92	C	1.378249	0.670068	0.983808
C93	C	0.878415	0.170302	0.376707
C94	C	1.378415	0.670302	0.876707
C95	C	0.938942	0.105997	0.332563
C96	C	1.438942	0.605997	0.832563
C97	C	1.022440	0.123726	0.364762
C98	C	1.522440	0.623726	0.864762
C99	C	1.022105	0.124181	0.471910
C100	C	1.522105	0.624181	0.971910
C101	C	0.916915	0.023990	0.480439
C102	C	1.416915	0.523990	0.980439
C103	C	0.915064	0.024539	0.373459
C104	C	1.415064	0.524539	0.873459
C105	C	0.938932	0.106000	0.227675
C106	C	1.438932	0.606000	0.727675
C107	C	0.938986	0.105987	0.623038
C108	C	1.438986	0.605987	1.123038
H109	H	0.699816	0.110271	-0.207624
H110	H	1.199816	0.610271	0.292376
H111	H	0.327518	0.104178	0.046433
H112	H	0.827518	0.604178	0.546433
N113	N	0.779943	-0.100997	-0.061995
N114	N	1.279943	0.399003	0.438005
H115	H	0.779637	-0.066749	-0.004997
H116	H	1.279637	0.433251	0.495003
H117	H	0.779692	-0.066792	-0.118979
H118	H	1.279692	0.433208	0.381021
N119	N	0.167196	0.101538	0.081343
N120	N	0.667196	0.601538	0.581343
H121	H	0.205816	0.101639	0.131335
H122	H	0.705816	0.601639	0.631335
H123	H	0.130266	0.149690	0.088205
H124	H	0.630266	0.649690	0.588205
N125	N	0.897617	0.250962	0.341209
N126	N	1.397617	0.750962	0.841209
H127	H	0.906034	0.286498	0.395152
H128	H	1.406034	0.786498	0.895152
H129	H	0.947139	0.246901	0.298556
H130	H	1.447139	0.746901	0.798556
H131	H	1.040704	0.183980	0.495403
H132	H	1.540704	0.683980	0.995403
N133	N	1.061643	-0.309558	-0.084386
N134	N	1.561643	0.190442	0.415614
H135	H	1.094011	-0.299474	-0.143922
H136	H	1.594011	0.200526	0.356078
H137	H	1.093912	-0.299450	-0.029937
H138	H	1.593912	0.200550	0.470063
H139	H	1.041341	0.182842	0.336418
H140	H	1.541341	0.682842	0.836418
N141	N	0.796439	0.156331	0.348435
N142	N	1.296439	0.656331	0.848435
H143	H	0.759869	0.149966	0.405595
H144	H	1.259869	0.649966	0.905595
H145	H	0.776878	0.202610	0.311327
H146	H	1.276878	0.702610	0.811327
N147	N	0.463819	0.106394	-0.206769
N148	N	0.963819	0.606394	0.293231
H149	H	0.425238	0.105752	-0.256772
H150	H	0.925238	0.605752	0.243228
H151	H	0.494858	0.155396	-0.212898
H152	H	0.994858	0.655396	0.287102
H153	H	0.955997	-0.025374	0.343434
H154	H	1.455997	0.474626	0.843434
N155	N	1.076071	-0.140067	-0.085521
N156	N	1.576071	0.359933	0.414479
H157	H	1.106018	-0.158364	-0.144872
H158	H	1.606018	0.341636	0.355128
H159	H	1.070121	-0.080802	-0.085008
H160	H	1.570121	0.419198	0.414992
N161	N	0.796020	0.156335	0.524502
N162	N	1.296020	0.656335	1.024502
H163	H	0.797327	0.108444	0.565598
H164	H	1.297327	0.608444	1.065598
H165	H	0.775411	0.203719	0.562246
H166	H	1.275411	0.703719	1.062246
N167	N	0.167231	0.101525	-0.266930
N168	N	0.667231	0.601525	0.233070
H169	H	0.205827	0.102158	-0.323073
H170	H	0.705827	0.602158	0.176927
H171	H	0.136193	0.052522	-0.268108
H172	H	0.636193	0.552522	0.231892
H173	H	1.031958	-0.392290	-0.082065
H174	H	1.531958	0.107710	0.417935
N175	N	0.897463	0.250221	0.517888
N176	N	1.397463	0.750221	1.017888
H177	H	0.894738	0.250539	0.587820
H178	H	1.394738	0.750539	1.087820
H179	H	0.952336	0.262724	0.493087
H180	H	1.452336	0.762724	0.993087
H181	H	1.068991	0.079344	0.494092
H182	H	1.568991	0.579344	0.994092
N183	N	0.975480	-0.039178	0.509331
N184	N	1.475480	0.460822	1.009331
H185	H	1.016104	-0.014843	0.546665
H186	H	1.516104	0.485157	1.046665
H187	H	0.946952	-0.079517	0.548229
H188	H	1.446952	0.420483	1.048229
N189	N	0.414078	0.105596	0.057481
N190	N	0.914078	0.605596	0.557481
H191	H	0.382210	0.057122	0.063210
H192	H	0.882210	0.557122	0.563210
H193	H	0.452766	0.105196	0.107417
H194	H	0.952766	0.605196	0.607417
H195	H	1.068931	0.078292	0.335586
H196	H	1.568931	0.578292	0.835586
N197	N	1.112378	-0.517522	-0.088459
N198	N	1.612378	-0.017522	0.411541
H199	H	1.106492	-0.458252	-0.087995
H200	H	1.606492	0.041748	0.412005
H201	H	1.142272	-0.535876	-0.033870
H202	H	1.642272	-0.035876	0.466130
H203	H	1.080044	-0.673758	-0.085863
H204	H	1.580044	-0.173758	0.414137
N205	N	0.826199	-0.404018	-0.065683
N206	N	1.326199	0.095982	0.434317
H207	H	0.796255	-0.385722	-0.006331
H208	H	1.296255	0.114278	0.493669
H209	H	0.796336	-0.385710	-0.120315
H210	H	1.296336	0.114290	0.379685
N211	N	0.837611	0.001386	0.522567
N212	N	1.337611	0.501386	1.022567
H213	H	0.815176	0.044077	0.566533
H214	H	1.315176	0.544077	1.066533
H215	H	0.800613	-0.005497	0.471796
H216	H	1.300613	0.494503	0.971796
N217	N	0.539495	0.107635	-0.216990
N218	N	1.039495	0.607635	0.283010
H219	H	0.578091	0.108259	-0.273134
H220	H	1.078091	0.608259	0.226866
H221	H	0.508459	0.058631	-0.218154
H222	H	1.008459	0.558631	0.281846
N223	N	0.833642	0.006736	0.346377
N224	N	1.333642	0.506736	0.846377
H225	H	0.812309	0.051241	0.307769
H226	H	1.312309	0.551241	0.807769
H227	H	0.836549	-0.043634	0.309250
H228	H	1.336549	0.456366	0.809250
N229	N	0.338448	0.104317	-0.280562
N230	N	0.838448	0.604317	0.219438
H231	H	0.299863	0.103677	-0.330560
H232	H	0.799863	0.603677	0.169440
H233	H	0.369490	0.153316	-0.286696
H234	H	0.869490	0.653316	0.213304
N235	N	0.539462	0.107670	0.131273
N236	N	1.039462	0.607670	0.631273
H237	H	0.507598	0.059195	0.137011
H238	H	1.007598	0.559195	0.637011
H239	H	0.578156	0.107275	0.181204
H240	H	1.078156	0.607275	0.681204
N241	N	0.801834	-0.647950	-0.063764
N242	N	1.301834	-0.147950	0.436236
H243	H	0.759957	-0.603795	-0.060444
H244	H	1.259957	-0.103795	0.439556
H245	H	0.795871	-0.681375	-0.120262
H246	H	1.295871	-0.181375	0.379738
H247	H	0.699792	0.110304	0.096364
H248	H	1.199792	0.610304	0.596364
H249	H	0.834162	-0.491720	-0.066337
H250	H	1.334162	0.008280	0.433663
H251	H	0.785272	-0.262196	-0.062443
H252	H	1.285272	0.237804	0.437557
