data_functionalizedCrystal
_audit_creation_method	'MofGen! by Chris Wilmer'
_symmetry_space_group_name_H-M	'P1'
_symmetry_Int_Tables_number	1
_symmetry_cell_setting	triclinic
loop_
_symmetry_equiv_pos_as_xyz
  x,y,z
_cell_length_a	15.995350
_cell_length_b	15.072220
_cell_length_c	27.732046
_cell_angle_alpha	90.007484
_cell_angle_beta	83.067177
_cell_angle_gamma	90.008851
loop_
_atom_site_label
_atom_site_type_symbol
_atom_site_fract_x
_atom_site_fract_y
_atom_site_fract_z
O1	O	-1.110189	-0.073720	-0.062301
O2	O	-0.866314	-0.073740	-0.069995
O3	O	-0.995827	-0.073709	0.004216
O4	O	-0.980677	-0.073750	-0.136512
O5	O	-0.995795	0.073856	0.004212
O6	O	-0.866282	0.073825	-0.069999
O7	O	-1.110157	0.073845	-0.062306
Zn8	Zn	-0.988215	0.097264	-0.066153
Zn9	Zn	-0.988257	-0.097159	-0.066148
O10	O	-0.980645	0.073815	-0.136517
C11	C	-0.835108	0.000041	-0.069679
C12	C	-0.742170	0.000034	-0.068726
C13	C	-0.995493	0.000076	0.022222
C14	C	-0.994536	0.000086	0.075881
N15	N	-0.988192	0.229953	-0.066156
C16	C	-1.141364	0.000063	-0.062622
C17	C	-1.234302	0.000064	-0.063575
C18	C	-0.404466	0.000053	-0.065301
C19	C	-0.452585	0.000398	-0.012449
C20	C	-0.549263	0.000059	-0.013403
C21	C	-0.572005	0.000044	-0.067000
C22	C	-0.530598	-0.084227	-0.093066
C23	C	-0.433980	-0.084291	-0.091738
C24	C	-0.433591	0.083518	-0.092835
C25	C	-0.530536	0.084626	-0.092822
C26	C	-0.666690	0.000036	-0.067963
C27	C	-0.309781	0.000056	-0.064340
N28	N	-0.988286	-0.229848	-0.066140
C29	C	-0.988255	0.589155	-0.066146
C30	C	-0.918726	0.551532	-0.105721
C31	C	-0.918883	0.448706	-0.105866
C32	C	-0.988223	0.410951	-0.066151
C33	C	-1.075445	0.448245	-0.077167
C34	C	-1.075055	0.551103	-0.077448
C35	C	-0.971342	0.551268	-0.015437
C36	C	-0.969333	0.448405	-0.015775
C37	C	-0.988211	0.310237	-0.066153
C38	C	-0.988273	0.689868	-0.066145
C39	C	-1.065044	0.000061	0.414392
C40	C	-1.061494	0.000057	0.616068
O41	O	-1.125966	0.000025	0.647045
N42	N	-0.984699	0.000052	0.635522
C43	C	-0.908786	0.000043	0.604555
O44	O	-0.843386	0.000030	0.625730
C45	C	-0.912338	0.000041	0.402881
C46	C	-0.989138	0.000054	0.383429
C47	C	-1.141838	0.000073	0.394940
C48	C	-1.142725	0.000079	0.344524
C49	C	-1.066818	0.000072	0.313561
C50	C	-0.990024	0.000060	0.333013
C51	C	-0.836426	0.000025	0.371915
C52	C	-0.837321	0.000022	0.321493
C53	C	-0.914120	0.000036	0.302042
C54	C	-0.915004	0.000059	0.251634
N55	N	-0.991799	0.000064	0.232179
C56	C	-1.067706	0.000070	0.263143
C57	C	-0.906927	0.000046	0.710437
C58	C	-0.906039	0.000048	0.760856
C59	C	-1.058747	0.000060	0.772365
C60	C	-1.059634	0.000065	0.721945
C61	C	-0.983722	0.000051	0.690982
C62	C	-1.069563	0.000083	0.157265
C63	C	-1.070443	0.000093	0.106844
C64	C	-0.917735	0.000076	0.095340
C65	C	-0.916855	0.000071	0.145756
C66	C	-0.992775	0.000072	0.176718
O67	O	-0.850567	0.000081	0.220628
O68	O	-1.133097	0.000064	0.241958
C69	C	-1.064157	0.000055	0.464808
C70	C	-0.987364	0.000043	0.484261
C71	C	-0.911457	0.000036	0.453297
C72	C	-0.986476	0.000045	0.534679
C73	C	-1.062383	0.000051	0.565642
C74	C	-1.139177	0.000056	0.546187
C75	C	-1.140064	0.000062	0.495772
C76	C	-0.834662	0.000031	0.472752
C77	C	-0.833782	0.000027	0.523169
C78	C	-0.909688	0.000033	0.554132
C79	C	-0.980981	0.000038	0.845477
C80	C	-0.981946	0.000055	0.791819
H81	H	-0.577944	0.060469	0.007086
C82	C	-0.832372	0.000062	0.167154
N83	N	-0.768737	0.000046	0.183267
H84	H	-1.022054	0.575599	0.014014
C85	C	-1.096217	0.413432	-0.126561
N86	N	-1.111856	0.387216	-0.163767
C87	C	-1.225349	0.000090	0.428993
N88	N	-1.288255	0.000112	0.454638
C89	C	-0.830824	0.584999	-0.097010
N90	N	-0.764615	0.610219	-0.090450
H91	H	-0.558086	0.146969	-0.073794
C92	C	-1.154932	0.000105	0.085451
N93	N	-1.218568	0.000112	0.069339
C94	C	-1.222675	0.000062	0.580257
N95	N	-1.285562	0.000060	0.605920
C96	C	-0.389734	-0.089490	-0.144157
N97	N	-0.356412	-0.093416	-0.183639
H98	H	-1.131384	0.000080	0.182469
H99	H	-1.122171	0.000075	0.706111
H100	H	-0.771237	0.000023	0.539001
C101	C	-0.550622	0.091499	-0.145621
N102	N	-0.565756	0.096673	-0.185391
H103	H	-0.855934	0.000074	0.070121
C104	C	-0.751154	0.000023	0.438699
N105	N	-0.688250	0.000019	0.413051
H106	H	-0.401324	0.084077	-0.131802
C107	C	-0.548996	-0.088481	-0.146260
N108	N	-0.562856	-0.091684	-0.186326
C109	C	-0.933017	0.586423	-0.156273
N110	N	-0.943784	0.612704	-0.194347
H111	H	-0.843501	0.000053	0.776689
H112	H	-0.854028	0.423492	-0.099303
C113	C	-0.933386	0.415436	-0.156702
N114	N	-0.944315	0.390378	-0.194993
H115	H	-1.205263	0.000086	0.328691
C116	C	-0.409596	-0.169374	-0.066049
N117	N	-0.391235	-0.233459	-0.046697
C118	C	-1.033384	0.413709	0.025875
N119	N	-1.081640	0.387585	0.057244
C120	C	-1.146978	0.415204	-0.039263
N121	N	-1.200855	0.390315	-0.010713
C122	C	-0.887313	0.586345	-0.001137
N123	N	-0.824018	0.612765	0.009627
C124	C	-1.142245	0.000061	0.806434
N125	N	-1.205132	0.000053	0.832097
C126	C	-1.095307	0.583490	-0.127411
N127	N	-1.110555	0.607880	-0.165047
H128	H	-1.128375	0.575989	-0.049759
H129	H	-0.775502	0.000009	0.296285
H130	H	-0.905175	0.424030	-0.007416
H131	H	-0.845107	0.000035	0.685231
H132	H	-0.433276	-0.059691	0.008581
C133	C	-0.427906	0.082041	0.016090
N134	N	-0.409310	0.143536	0.037586
H135	H	-0.577401	-0.060444	0.007228
C136	C	-0.406141	0.169811	-0.069491
N137	N	-0.385467	0.234802	-0.051903
H138	H	-1.202603	0.000072	0.479939
C139	C	-0.569259	-0.168941	-0.068601
N140	N	-0.598376	-0.232747	-0.050171
H141	H	-0.773887	0.000009	0.387743
