data_functionalizedCrystal
_audit_creation_method	'MofGen! by Chris Wilmer'
_symmetry_space_group_name_H-M	'P1'
_symmetry_Int_Tables_number	1
_symmetry_cell_setting	triclinic
loop_
_symmetry_equiv_pos_as_xyz
  x,y,z
_cell_length_a	14.519709
_cell_length_b	14.853567
_cell_length_c	13.330367
_cell_angle_alpha	90.004582
_cell_angle_beta	89.994415
_cell_angle_gamma	96.342462
loop_
_atom_site_label
_atom_site_type_symbol
_atom_site_fract_x
_atom_site_fract_y
_atom_site_fract_z
O1	O	0.120405	-1.196416	-0.083357
O2	O	0.620405	-0.696416	0.416643
O3	O	0.134748	-0.933962	-0.083374
O4	O	0.634748	-0.433962	0.416626
O5	O	-0.006665	-1.072147	-0.083356
O6	O	0.493335	-0.572147	0.416644
O7	O	0.261818	-1.058230	-0.083375
O8	O	0.761818	-0.558230	0.416625
O9	O	-0.006668	-1.072127	0.083491
O10	O	0.493332	-0.572127	0.583491
O11	O	0.134745	-0.933942	0.083473
O12	O	0.634745	-0.433942	0.583473
O13	O	0.120402	-1.196395	0.083491
O14	O	0.620402	-0.696395	0.583491
Cu15	Cu	0.127573	-1.065167	0.098716
Cu16	Cu	0.627573	-0.565167	0.598716
Cu17	Cu	0.127577	-1.065190	-0.098600
Cu18	Cu	0.627577	-0.565190	0.401400
O19	O	0.261814	-1.058210	0.083472
O20	O	0.761814	-0.558210	0.583472
C21	C	0.134096	-0.900363	0.000047
C22	C	0.634096	-0.400363	0.500047
C23	C	0.132149	-0.800278	0.000041
C24	C	0.632149	-0.300278	0.500041
C25	C	-0.041026	-1.071488	0.000068
C26	C	0.458974	-0.571488	0.500068
C27	C	-0.143407	-1.069545	0.000068
C28	C	0.356593	-0.569545	0.500068
C29	C	0.121053	-1.229994	0.000067
C30	C	0.621053	-0.729994	0.500067
C31	C	0.123001	-1.330079	0.000067
C32	C	0.623001	-0.830079	0.500067
C33	C	-0.518299	-1.062390	0.000042
C34	C	-0.018299	-0.562390	0.500042
C35	C	-0.413992	-1.064377	0.000050
C36	C	0.086008	-0.564377	0.500050
C37	C	-0.330856	-1.065967	0.000056
C38	C	0.169144	-0.565967	0.500056
C39	C	-0.226543	-1.067955	0.000062
C40	C	0.273457	-0.567955	0.500062
C41	C	0.296175	-1.058869	0.000046
C42	C	0.796175	-0.558869	0.500046
C43	C	0.398556	-1.060812	0.000039
C44	C	0.898556	-0.560812	0.500039
N45	N	0.127570	-1.065157	0.237498
N46	N	0.627570	-0.565157	0.737498
C47	C	0.039914	-0.387709	0.000070
C48	C	0.539914	0.112291	0.500070
C49	C	0.207916	-0.366493	0.000057
C50	C	0.707916	0.133507	0.500057
C51	C	0.209747	-0.460527	0.000054
C52	C	0.709747	0.039473	0.500054
C53	C	0.126660	-0.518157	0.000057
C54	C	0.626660	-0.018157	0.500057
C55	C	0.041743	-0.481752	0.000064
C56	C	0.541743	0.018248	0.500064
C57	C	0.294663	-0.496939	0.000037
C58	C	0.794663	0.003061	0.500037
C59	C	0.296498	-0.590979	0.000033
C60	C	0.796498	-0.090979	0.500033
C61	C	0.213410	-0.648610	0.000043
C62	C	0.713410	-0.148610	0.500043
C63	C	0.128489	-0.612200	0.000051
C64	C	0.628489	-0.112200	0.500051
C65	C	0.045403	-0.669830	0.000054
C66	C	0.545403	-0.169830	0.500054
C67	C	-0.039520	-0.633422	0.000069
C68	C	0.460480	-0.133422	0.500069
C69	C	-0.041345	-0.539383	0.000074
C70	C	0.458655	-0.039383	0.500074
C71	C	0.215235	-0.742649	0.000038
C72	C	0.715235	-0.242649	0.500038
C73	C	0.047231	-0.763873	0.000048
C74	C	0.547231	-0.263873	0.500048
N75	N	0.127572	-1.065208	-0.237381
N76	N	0.627572	-0.565208	0.262619
C77	C	0.190170	-1.003999	0.710113
C78	C	0.690170	-0.503999	1.210113
C79	C	0.064976	-1.126406	0.710097
C80	C	0.564976	-0.626406	1.210097
C81	C	0.064974	-1.126396	0.605078
C82	C	0.564974	-0.626396	1.105078
C83	C	0.127571	-1.065187	0.552572
C84	C	0.627571	-0.565187	1.052572
C85	C	0.190170	-1.003989	0.605085
C86	C	0.690170	-0.503989	1.105085
C87	C	0.002381	-1.187599	0.552558
C88	C	0.502381	-0.687599	1.052558
C89	C	0.002376	-1.187592	0.447534
C90	C	0.502376	-0.687592	0.947534
C91	C	0.064970	-1.126378	0.395026
C92	C	0.564970	-0.626378	0.895026
C93	C	0.127572	-1.065177	0.447544
C94	C	0.627572	-0.565177	0.947544
C95	C	0.190169	-1.003968	0.395038
C96	C	0.690169	-0.503968	0.895038
C97	C	0.252767	-0.942762	0.447555
C98	C	0.752767	-0.442762	0.947555
C99	C	0.252764	-0.942775	0.552577
C100	C	0.752764	-0.442775	1.052577
C101	C	0.064973	-1.126365	0.290004
C102	C	0.564973	-0.626365	0.790004
C103	C	0.190170	-1.003958	0.290010
C104	C	0.690170	-0.503958	0.790010
H105	H	-0.020429	-0.810790	0.000054
H106	H	0.479571	-0.310790	0.500054
H107	H	0.303738	-0.892929	0.404792
H108	H	0.803738	-0.392929	0.904792
H109	H	0.014016	-1.176245	0.752851
H110	H	0.514016	-0.676245	1.252851
Cl111	Cl	-0.076303	-1.264550	0.618563
Cl112	Cl	0.423697	-0.764550	1.118563
H113	H	-0.048595	-1.237428	0.404781
H114	H	0.451405	-0.737428	0.904781
H115	H	0.241134	-0.954163	0.752874
H116	H	0.741134	-0.454163	1.252874
H117	H	0.241141	-0.954111	0.247266
H118	H	0.741141	-0.454111	0.747266
Cl119	Cl	-0.143967	-0.705881	0.000065
Cl120	Cl	0.356033	-0.205881	0.500065
H121	H	-0.110484	-0.509731	0.000110
H122	H	0.389516	-0.009731	0.500110
H123	H	0.303730	-0.892944	0.595342
H124	H	0.803730	-0.392944	1.095342
H125	H	-0.029228	-0.358060	0.000086
H126	H	0.470772	0.141940	0.500086
Cl127	Cl	0.312361	-0.294044	0.000039
Cl128	Cl	0.812361	0.205956	0.500039
H129	H	0.014010	-1.176202	0.247250
H130	H	0.514010	-0.676202	0.747250
H131	H	0.362307	-0.450011	0.000024
H132	H	0.862307	0.049989	0.500024
Cl133	Cl	0.403254	-0.636741	0.000017
Cl134	Cl	0.903254	-0.136741	0.500017
Cl135	Cl	0.321985	-0.788416	0.000012
Cl136	Cl	0.821985	-0.288416	0.500012
