data_functionalizedCrystal
_audit_creation_method	'MofGen! by Chris Wilmer'
_symmetry_space_group_name_H-M	'P1'
_symmetry_Int_Tables_number	1
_symmetry_cell_setting	triclinic
loop_
_symmetry_equiv_pos_as_xyz
  x,y,z
_cell_length_a	19.805407
_cell_length_b	19.805405
_cell_length_c	19.805399
_cell_angle_alpha	90.028893
_cell_angle_beta	89.983114
_cell_angle_gamma	89.972273
loop_
_atom_site_label
_atom_site_type_symbol
_atom_site_fract_x
_atom_site_fract_y
_atom_site_fract_z
Zn1	Zn	1.034712	0.269469	-0.382720
Zn2	Zn	1.534712	0.769469	0.117280
Zn3	Zn	1.034629	0.382661	-0.269532
Zn4	Zn	1.534629	0.882661	0.230468
Zn5	Zn	0.921531	0.269491	-0.269545
Zn6	Zn	1.421531	0.769491	0.230455
Zn7	Zn	0.921487	0.382622	-0.382679
Zn8	Zn	1.421487	0.882622	0.117321
O9	O	0.978090	0.326061	-0.326119
O10	O	1.478090	0.826061	0.173881
O11	O	1.129417	0.284492	-0.367717
O12	O	1.629417	0.784492	0.132283
O13	O	1.019611	0.367674	-0.174817
O14	O	1.519611	0.867674	0.325183
O15	O	0.936598	0.174771	-0.284580
O16	O	1.436598	0.674771	0.215420
O17	O	1.129357	0.367653	-0.284559
O18	O	1.629357	0.867653	0.215441
O19	O	1.019751	0.174756	-0.367730
O20	O	1.519751	0.674756	0.132270
O21	O	0.936518	0.284528	-0.174826
O22	O	1.436518	0.784528	0.325174
O23	O	0.826809	0.284491	-0.284540
O24	O	1.326809	0.784491	0.215460
O25	O	0.936522	0.367587	-0.477401
O26	O	1.436522	0.867587	0.022599
O27	O	0.826776	0.367608	-0.367659
O28	O	1.326776	0.867608	0.132341
O29	O	1.019708	0.284454	-0.477431
O30	O	1.519708	0.784454	0.022569
O31	O	1.019567	0.477372	-0.284519
O32	O	1.519567	0.977372	0.215481
O33	O	0.936443	0.477344	-0.367647
O34	O	1.436443	0.977344	0.132353
C35	C	0.978010	0.501917	-0.326092
C36	C	1.478010	1.001917	0.173908
C37	C	0.978037	0.577149	-0.326103
C38	C	1.478037	1.077149	0.173897
C39	C	0.802234	0.326048	-0.326097
C40	C	1.302234	0.826048	0.173903
C41	C	0.727002	0.326059	-0.326104
C42	C	1.227002	0.826059	0.173896
C43	C	1.021362	0.612485	-0.282864
C44	C	1.521362	1.112485	0.217136
C45	C	1.021389	0.683174	-0.282881
C46	C	1.521389	1.183174	0.217119
C47	C	0.978088	0.718524	-0.326134
C48	C	1.478088	1.218524	0.173866
C49	C	0.934761	0.683183	-0.369378
C50	C	1.434761	1.183183	0.130622
C51	C	0.934738	0.612496	-0.369363
C52	C	1.434738	1.112496	0.130637
C53	C	0.934855	0.968256	-0.369437
C54	C	1.434855	1.468256	0.130563
C55	C	0.934880	1.038948	-0.369446
C56	C	1.434880	1.538948	0.130554
C57	C	1.021505	1.038934	-0.282955
C58	C	1.521505	1.538934	0.217045
C59	C	1.021482	0.968247	-0.282941
C60	C	1.521482	1.468247	0.217059
C61	C	0.978159	0.932912	-0.326186
C62	C	1.478159	1.432912	0.173814
C63	C	0.978131	0.856263	-0.326168
C64	C	1.478131	1.356263	0.173832
C65	C	0.978112	0.795171	-0.326150
C66	C	1.478112	1.295171	0.173850
C67	C	0.691658	0.369403	-0.369314
C68	C	1.191658	0.869403	0.130686
C69	C	0.620970	0.369404	-0.369323
C70	C	1.120970	0.869404	0.130677
C71	C	0.585626	0.326064	-0.326119
C72	C	1.085626	0.826064	0.173881
C73	C	0.620975	0.282715	-0.282907
C74	C	1.120975	0.782715	0.217093
C75	C	0.691662	0.282711	-0.282901
C76	C	1.191662	0.782711	0.217099
C77	C	0.335901	0.282730	-0.282929
C78	C	0.835901	0.782730	0.217071
C79	C	0.265209	0.282739	-0.282937
C80	C	0.765209	0.782739	0.217063
C81	C	0.265209	0.369423	-0.369351
C82	C	0.765209	0.869423	0.130649
C83	C	0.335897	0.369419	-0.369346
C84	C	0.835897	0.869419	0.130654
C85	C	0.371239	0.326068	-0.326137
C86	C	0.871239	0.826068	0.173863
C87	C	0.447887	0.326066	-0.326128
C88	C	0.947887	0.826066	0.173872
C89	C	0.508979	0.326068	-0.326124
C90	C	1.008979	0.826068	0.173876
C91	C	1.154632	0.326074	-0.326141
C92	C	1.654632	0.826074	0.173859
C93	C	1.229864	0.326080	-0.326151
C94	C	1.729864	0.826080	0.173849
C95	C	0.978119	0.326014	-0.502662
C96	C	1.478119	0.826014	-0.002662
C97	C	0.978132	0.325994	-0.577894
C98	C	1.478132	0.825994	-0.077894
C99	C	0.978183	1.149518	-0.326169
C100	C	1.478183	1.649518	0.173831
C101	C	0.978208	1.074286	-0.326211
C102	C	1.478208	1.574286	0.173789
C103	C	0.934878	0.282696	-0.613242
C104	C	1.434878	0.782696	-0.113242
C105	C	0.934888	0.282683	-0.683931
C106	C	1.434888	0.782683	-0.183931
C107	C	0.978155	0.325964	-0.719269
C108	C	1.478155	0.825964	-0.219269
C109	C	1.021410	0.369267	-0.683916
C110	C	1.521410	0.869267	-0.183916
C111	C	1.021397	0.369283	-0.613229
C112	C	1.521397	0.869283	-0.113229
C113	C	1.021464	0.369204	-0.968989
C114	C	1.521464	0.869204	-0.468989
C115	C	1.021475	0.369183	-1.039682
C116	C	1.521475	0.869183	-0.539682
C117	C	0.934955	0.282603	-1.039691
C118	C	1.434955	0.782603	-0.539691
C119	C	0.934941	0.282619	-0.969004
C120	C	1.434941	0.782619	-0.469004
C121	C	0.978194	0.325924	-0.933657
C122	C	1.478194	0.825924	-0.433657
C123	C	0.978183	0.325939	-0.857008
C124	C	1.478183	0.825939	-0.357008
C125	C	0.978170	0.325947	-0.795917
C126	C	1.478170	0.825947	-0.295917
C127	C	0.978099	0.326059	-0.150263
C128	C	1.478099	0.826059	0.349737
C129	C	0.978218	0.325888	-0.075031
C130	C	1.478218	0.825888	0.424969
H131	H	1.056619	0.583707	-0.247640
H132	H	1.556619	1.083707	0.252360
H133	H	0.236434	0.247442	-0.247754
H134	H	0.736434	0.747442	0.252246
H135	H	1.056667	0.711942	-0.247672
H136	H	1.556667	1.211942	0.252328
C137	C	0.887127	0.722071	-0.416954
C138	C	1.387127	1.222071	0.083046
N139	N	0.851245	0.751361	-0.452787
N140	N	1.351245	1.251361	0.047213
C141	C	0.374769	0.235047	-0.235394
C142	C	0.874769	0.735047	0.264606
N143	N	0.404046	0.199130	-0.199586
N144	N	0.904046	0.699130	0.300414
C145	C	0.887280	0.235082	-0.574376
C146	C	1.387280	0.735082	-0.074376
N147	N	0.851425	0.199220	-0.545104
N148	N	1.351425	0.699220	-0.045104
H149	H	0.899578	0.939492	-0.404647
H150	H	1.399578	1.439492	0.095353
H151	H	0.592196	0.404700	-0.404509
H152	H	1.092196	0.904700	0.095491
H153	H	0.364670	0.404713	-0.404525
H154	H	0.864670	0.904713	0.095475
H155	H	0.720437	0.247412	-0.247719
H156	H	1.220437	0.747412	0.252281
C157	C	0.582094	0.235039	-0.235383
C158	C	1.082094	0.735039	0.264617
N159	N	0.552810	0.199129	-0.199586
N160	N	1.052810	0.699129	0.300414
C161	C	0.887312	0.235045	-0.722811
C162	C	1.387312	0.735045	-0.222811
N163	N	0.851478	0.199159	-0.752095
N164	N	1.351478	0.699159	-0.252095
C165	C	0.887370	0.234972	-1.078580
C166	C	1.387370	0.734972	-0.578580
N167	N	0.851531	0.199096	-1.107869
N168	N	1.351531	0.699096	-0.607869
H169	H	1.056739	0.939467	-0.247718
H170	H	1.556739	1.439467	0.252282
C171	C	0.226327	0.417105	-0.416888
C172	C	0.726327	0.917105	0.083112
N173	N	0.197041	0.453019	-0.452692
N174	N	0.697041	0.953019	0.047308
C175	C	0.887078	0.573626	-0.416929
C176	C	1.387078	1.073626	0.083071
N177	N	0.851181	0.544350	-0.452760
N178	N	1.351181	1.044350	0.047240
C179	C	1.069166	1.077809	-0.235387
C180	C	1.569166	1.577809	0.264613
N181	N	1.105061	1.107089	-0.199558
N182	N	1.605061	1.607089	0.300442
C183	C	1.069071	0.416803	-1.078553
C184	C	1.569071	0.916803	-0.578553
N185	N	1.104917	0.452669	-1.107830
N186	N	1.604917	0.952669	-0.607830
C187	C	1.069082	0.416803	-0.930117
C188	C	1.569082	0.916803	-0.430117
N189	N	1.104963	0.452643	-0.900835
N190	N	1.604963	0.952643	-0.400835
C191	C	0.887246	1.077832	-0.417034
C192	C	1.387246	1.577832	0.082966
N193	N	0.851371	1.107120	-0.452875
N194	N	1.351371	1.607120	0.047125
H195	H	0.720430	0.404697	-0.404494
H196	H	1.220430	0.904697	0.095506
C197	C	1.068851	0.417031	-0.722791
C198	C	1.568851	0.917031	-0.222791
N199	N	1.104531	0.453061	-0.752071
N200	N	1.604531	0.953061	-0.252071
H201	H	0.899711	0.247373	-0.940235
H202	H	1.399711	0.747373	-0.440235
H203	H	1.056624	0.404536	-0.584449
H204	H	1.556624	0.904536	-0.084449
