data_functionalizedCrystal
_audit_creation_method	'MofGen! by Chris Wilmer'
_symmetry_space_group_name_H-M	'P1'
_symmetry_Int_Tables_number	1
_symmetry_cell_setting	triclinic
loop_
_symmetry_equiv_pos_as_xyz
  x,y,z
_cell_length_a	19.121275
_cell_length_b	19.121063
_cell_length_c	19.076919
_cell_angle_alpha	85.393653
_cell_angle_beta	85.183632
_cell_angle_gamma	89.926756
loop_
_atom_site_label
_atom_site_type_symbol
_atom_site_fract_x
_atom_site_fract_y
_atom_site_fract_z
Zn1	Zn	1.044451	-0.338911	0.367732
Zn2	Zn	1.544451	0.161089	0.867732
Zn3	Zn	1.044071	-0.451822	0.254874
Zn4	Zn	1.544071	0.048178	0.754874
Zn5	Zn	0.931949	-0.329592	0.254466
Zn6	Zn	1.431949	0.170408	0.754466
Zn7	Zn	0.921762	-0.451495	0.377748
Zn8	Zn	1.421762	0.048505	0.877748
O9	O	0.985558	-0.392955	0.313705
O10	O	1.485558	0.107045	0.813705
O11	O	1.142670	-0.357925	0.348740
O12	O	1.642670	0.142075	0.848740
O13	O	1.033302	-0.431845	0.155994
O14	O	1.533302	0.068155	0.655994
O15	O	0.951294	-0.232557	0.265129
O16	O	1.451294	0.267443	0.765129
O17	O	1.142391	-0.440881	0.265824
O18	O	1.642391	0.059119	0.765824
O19	O	1.033949	-0.239403	0.348345
O20	O	1.533949	0.260597	0.848345
O21	O	0.950926	-0.342043	0.155695
O22	O	1.450926	0.157957	0.655695
O23	O	0.832328	-0.341726	0.274841
O24	O	1.332328	0.158274	0.774841
O25	O	0.933932	-0.440324	0.475244
O26	O	1.433932	0.059676	0.975244
O27	O	0.824844	-0.431288	0.365415
O28	O	1.324844	0.068712	0.865415
O29	O	1.024071	-0.357608	0.467886
O30	O	1.524071	0.142392	0.967886
O31	O	1.023425	-0.550050	0.275535
O32	O	1.523425	-0.050050	0.775535
O33	O	0.933564	-0.549810	0.365810
O34	O	1.433564	-0.049810	0.865810
C35	C	0.803106	-0.385461	0.321171
C36	C	1.303106	0.114539	0.821171
C37	C	0.725050	-0.382272	0.324383
C38	C	1.225050	0.117728	0.824383
C39	C	0.688237	-0.423889	0.282651
C40	C	1.188237	0.076111	0.782651
C41	C	0.614896	-0.420894	0.285678
C42	C	1.114896	0.079106	0.785678
C43	C	0.578368	-0.376277	0.330433
C44	C	1.078368	0.123723	0.830433
C45	C	0.615186	-0.334658	0.372170
C46	C	1.115186	0.165342	0.872170
C47	C	0.688526	-0.337658	0.369146
C48	C	1.188526	0.162342	0.869146
C49	C	0.356935	-0.365067	0.341729
C50	C	0.856935	0.134933	0.841729
C51	C	0.283590	-0.362068	0.344748
C52	C	0.783590	0.137932	0.844748
C53	C	0.283305	-0.448305	0.258257
C54	C	0.783305	0.051695	0.758257
C55	C	0.356647	-0.451298	0.255234
C56	C	0.856647	0.048702	0.755234
C57	C	0.393458	-0.409682	0.296973
C58	C	0.893458	0.090318	0.796973
C59	C	0.503401	-0.373213	0.333526
C60	C	1.003401	0.126787	0.833526
C61	C	0.468423	-0.412750	0.293883
C62	C	0.968423	0.087250	0.793883
C63	C	0.977366	-0.575412	0.321818
C64	C	1.477366	-0.075412	0.821818
C65	C	0.973925	-0.653471	0.325310
C66	C	1.473925	-0.153471	0.825310
C67	C	1.019127	-0.690248	0.279985
C68	C	1.519127	-0.190248	0.779985
C69	C	1.015895	-0.763594	0.283273
C70	C	1.515895	-0.263594	0.783273
C71	C	0.967456	-0.800160	0.331883
C72	C	1.467456	-0.300160	0.831883
C73	C	0.922252	-0.763378	0.377213
C74	C	1.422252	-0.263378	0.877213
C75	C	0.925489	-0.690034	0.373928
C76	C	1.425489	-0.190034	0.873928
C77	C	0.955345	-1.021606	0.344155
C78	C	1.455345	-0.521606	0.844155
C79	C	0.952111	-1.094955	0.347435
C80	C	1.452111	-0.594955	0.847435
C81	C	1.045755	-1.095165	0.253496
C82	C	1.545755	-0.595165	0.753496
C83	C	1.048984	-1.021820	0.250212
C84	C	1.548984	-0.521820	0.750212
C85	C	1.003782	-0.985044	0.295544
C86	C	1.503782	-0.485044	0.795544
C87	C	0.964149	-0.875131	0.335244
C88	C	1.464149	-0.375131	0.835244
C89	C	1.007093	-0.910075	0.292187
C90	C	1.507093	-0.410075	0.792187
C91	C	1.168723	-0.400479	0.306210
C92	C	1.668723	0.099521	0.806210
C93	C	1.246777	-0.403686	0.303016
C94	C	1.746777	0.096314	0.803016
C95	C	0.977908	-0.399969	0.497906
C96	C	1.477908	0.100031	0.997906
C97	C	0.974648	-0.402958	0.576401
C98	C	1.474648	0.097042	1.076401
C99	C	0.993800	-0.209787	0.305575
C100	C	1.493800	0.290213	0.805575
C101	C	0.997313	-0.131732	0.302110
C102	C	1.497313	0.368268	0.802110
C103	C	0.993221	-0.385919	0.130217
C104	C	1.493221	0.114081	0.630217
C105	C	0.996626	-0.382738	0.051707
C106	C	1.496626	0.117262	0.551707
C107	C	1.020044	-0.361298	0.609449
C108	C	1.520044	0.138702	1.109449
C109	C	1.016973	-0.364104	0.683204
C110	C	1.516973	0.135896	1.183204
C111	C	0.968507	-0.408573	0.723910
C112	C	1.468507	0.091427	1.223910
C113	C	0.923106	-0.450234	0.690858
C114	C	1.423106	0.049766	1.190858
C115	C	0.926175	-0.447424	0.617104
C116	C	1.426175	0.052576	1.117104
C117	C	0.954294	-0.421590	0.944901
C118	C	1.454294	0.078410	1.444901
C119	C	0.951230	-0.424398	1.018660
C120	C	1.451230	0.075602	1.518660
C121	C	1.045096	-0.338266	1.011001
C122	C	1.545096	0.161734	1.511001
C123	C	1.048163	-0.335464	0.937246
C124	C	1.548163	0.164536	1.437246
C125	C	1.002760	-0.377122	0.904200
C126	C	1.502760	0.122878	1.404200
N127	N	0.965368	-0.411443	0.799300
N128	N	1.465368	0.088557	1.299300
N129	N	1.005896	-0.374248	0.828812
N130	N	1.505896	0.125752	1.328812
H131	H	0.717973	-0.460218	0.246203
H132	H	1.217973	0.039782	0.746203
O133	O	1.065939	-0.319176	0.718851
O134	O	1.565939	0.180824	1.218851
H135	H	1.100163	-0.287790	0.678155
H136	H	1.600163	0.212210	1.178155
H137	H	0.883642	-0.486439	0.724006
H138	H	1.383642	0.013561	1.224006
O139	O	0.876728	-0.650370	0.422813
O140	O	1.376728	-0.150370	0.922813
H141	H	0.908111	-0.619576	0.455992
H142	H	1.408111	-0.119576	0.955992
H143	H	0.253851	-0.325730	0.381191
H144	H	0.753851	0.174270	0.881191
O145	O	1.071382	-0.650810	0.227565
O146	O	1.571382	-0.150810	0.727565
H147	H	1.042956	-0.614778	0.191392
H148	H	1.542956	-0.114778	0.691392
O149	O	0.898943	-0.472354	1.062563
O150	O	1.398943	0.027646	1.562563
H151	H	0.904442	-0.467311	1.119400
H152	H	1.404442	0.032689	1.619400
H153	H	0.718498	-0.303768	0.403128
H154	H	1.218498	0.196232	0.903128
O155	O	0.877203	-0.492346	0.581454
O156	O	1.377203	0.007654	1.081454
H157	H	0.842986	-0.523741	0.622149
H158	H	1.342986	-0.023741	1.122149
H159	H	1.059512	-0.325089	0.576311
H160	H	1.559512	0.174911	1.076311
H161	H	1.087631	-0.299255	0.904108
H162	H	1.587631	0.200745	1.404108
O163	O	0.870007	-0.802812	0.429646
O164	O	1.370007	-0.302812	0.929646
H165	H	0.816028	-0.786053	0.419117
H166	H	1.316028	-0.286053	0.919117
H167	H	0.386382	-0.487628	0.218788
H168	H	0.886382	0.012372	0.718788
H169	H	0.917332	-0.455522	0.918004
H170	H	1.417332	0.044478	1.418004
H171	H	0.386898	-0.331181	0.375717
H172	H	0.886898	0.168819	0.875717
O173	O	1.064645	-0.803258	0.234380
O174	O	1.564645	-0.303258	0.734380
H175	H	1.097570	-0.839294	0.266046
H176	H	1.597570	-0.339294	0.766046
H177	H	1.082060	-0.304350	1.037915
H178	H	1.582060	0.195650	1.537915
H179	H	0.584926	-0.454783	0.251695
H180	H	1.084926	0.045217	0.751695
H181	H	0.253325	-0.482188	0.224276
H182	H	0.753325	0.017812	0.724276
H183	H	1.088426	-0.992049	0.210630
H184	H	1.588426	-0.492049	0.710630
H185	H	0.585439	-0.298334	0.408614
H186	H	1.085439	0.201666	0.908614
O187	O	0.507818	-0.460865	0.245606
O188	O	1.007818	0.039135	0.745606
H189	H	0.538333	-0.499209	0.277364
H190	H	1.038333	0.000791	0.777364
H191	H	1.082556	-1.125116	0.216590
H192	H	1.582556	-0.625116	0.716590
O193	O	0.464000	-0.325081	0.381786
O194	O	0.964000	0.174919	0.881786
H195	H	0.427689	-0.356565	0.420437
H196	H	0.927689	0.143435	0.920437
H197	H	0.912674	-1.124726	0.387031
H198	H	1.412674	-0.624726	0.887031
H199	H	0.918539	-0.991669	0.381065
H200	H	1.418539	-0.491669	0.881065
H201	H	1.046534	-0.880301	0.252611
H202	H	1.546534	-0.380301	0.752611
H203	H	0.924709	-0.904912	0.374821
H204	H	1.424709	-0.404912	0.874821
