data_functionalizedCrystal
_audit_creation_method	'MofGen! by Chris Wilmer'
_symmetry_space_group_name_H-M	'P1'
_symmetry_Int_Tables_number	1
_symmetry_cell_setting	triclinic
loop_
_symmetry_equiv_pos_as_xyz
  x,y,z
_cell_length_a	10.654562
_cell_length_b	14.044190
_cell_length_c	9.130313
_cell_angle_alpha	89.993628
_cell_angle_beta	89.996930
_cell_angle_gamma	88.840940
loop_
_atom_site_label
_atom_site_type_symbol
_atom_site_fract_x
_atom_site_fract_y
_atom_site_fract_z
O1	O	1.681223	0.133285	-0.121915
O2	O	2.181223	0.633285	0.378085
O3	O	1.317021	0.145966	-0.121899
O4	O	1.817021	0.645966	0.378101
O5	O	1.493651	0.001605	-0.121878
O6	O	1.993651	0.501605	0.378122
O7	O	1.504593	0.277647	-0.121936
O8	O	2.004593	0.777647	0.378064
O9	O	1.493649	0.001609	0.121721
O10	O	1.993649	0.501609	0.621721
O11	O	1.317019	0.145970	0.121700
O12	O	1.817019	0.645970	0.621700
O13	O	1.681221	0.133289	0.121684
O14	O	2.181221	0.633289	0.621684
Cu15	Cu	1.499120	0.139630	0.143935
Cu16	Cu	1.999120	0.639630	0.643935
Cu17	Cu	1.499122	0.139626	-0.144149
Cu18	Cu	1.999122	0.639626	0.355851
O19	O	1.504591	0.277651	0.121663
O20	O	2.004591	0.777651	0.621663
C21	C	1.270129	0.145035	-0.000097
C22	C	1.770129	0.645035	0.499903
C23	C	1.130405	0.142241	-0.000089
C24	C	1.630405	0.642241	0.499911
C25	C	1.064743	0.140941	0.132685
C26	C	1.564743	0.640941	0.632685
C27	C	0.933457	0.138324	0.132662
C28	C	1.433457	0.638324	0.632662
C29	C	0.933509	0.138312	-0.132923
C30	C	1.433509	0.638312	0.367077
C31	C	1.064792	0.140922	-0.132898
C32	C	1.564792	0.640922	0.367102
C33	C	1.064712	0.140951	0.286019
C34	C	1.564712	0.640951	0.786019
C35	C	0.933426	0.138334	0.285995
C36	C	1.433426	0.638334	0.785995
C37	C	1.488863	-0.033739	-0.000074
C38	C	1.988863	0.466261	0.499926
C39	C	1.474584	-0.139060	-0.000060
C40	C	1.974584	0.360940	0.499940
C41	C	1.549749	-0.388849	-0.000121
C42	C	2.049749	0.111151	0.499879
C43	C	1.448499	-0.331889	-0.000106
C44	C	1.948499	0.168111	0.499894
C45	C	1.463016	-0.224589	-0.000081
C46	C	1.963016	0.275411	0.499919
C47	C	1.535234	-0.496160	-0.000147
C48	C	2.035234	0.003840	0.499853
C49	C	1.728114	0.134221	-0.000121
C50	C	2.228114	0.634221	0.499879
C51	C	1.867837	0.137014	-0.000138
C52	C	2.367837	0.637014	0.499862
C53	C	1.509379	0.312995	-0.000144
C54	C	2.009379	0.812995	0.499856
C55	C	1.523659	0.418315	-0.000167
C56	C	2.023659	0.918315	0.499833
N57	N	1.499127	0.139633	0.346557
N58	N	1.999127	0.639633	0.846557
N59	N	1.499124	0.139615	-0.346772
N60	N	1.999124	0.639615	0.153228
C61	C	1.577363	0.075732	0.423218
C62	C	2.077363	0.575732	0.923218
C63	C	1.577359	0.075720	0.576555
C64	C	2.077359	0.575720	1.076555
C65	C	1.420879	0.203520	0.576556
C66	C	1.920879	0.703520	1.076556
C67	C	1.420878	0.203526	0.423222
C68	C	1.920878	0.703526	0.923222
C69	C	1.667709	0.001950	0.423219
C70	C	2.167709	0.501950	0.923219
C71	C	1.667705	0.001939	0.576556
C72	C	2.167705	0.501939	1.076556
H73	H	1.101240	0.210133	0.333581
H74	H	1.601240	0.710133	0.833581
Br75	Br	1.130843	0.031697	0.384186
Br76	Br	1.630843	0.531697	0.884186
H77	H	0.896884	0.069155	0.333589
H78	H	1.396884	0.569155	0.833589
Br79	Br	1.605290	-0.112890	0.655848
Br80	Br	2.105290	0.387110	1.155848
Br81	Br	1.712390	-0.335816	-0.000108
Br82	Br	2.212390	0.164184	0.499892
Br83	Br	1.314677	0.290234	0.319178
Br84	Br	1.814677	0.790234	0.819178
Br85	Br	1.285848	-0.384920	-0.000105
Br86	Br	1.785848	0.115080	0.499895
H87	H	1.765850	0.018195	0.618164
H88	H	2.265850	0.518195	1.118164
H89	H	1.118251	0.141967	-0.241016
H90	H	1.618251	0.641967	0.258984
Br91	Br	1.314686	0.290225	0.680609
Br92	Br	1.814686	0.790225	1.180609
H93	H	1.761215	0.025056	0.375651
H94	H	2.261215	0.525056	0.875651
H95	H	1.638937	-0.070961	0.381616
H96	H	2.138937	0.429039	0.881616
Br97	Br	0.867251	0.247594	0.384083
Br98	Br	1.367251	0.747594	0.884083
H99	H	0.880071	0.137239	-0.241051
H100	H	1.380071	0.637239	0.258949
