data_functionalizedCrystal
_audit_creation_method	'MofGen! by Chris Wilmer'
_symmetry_space_group_name_H-M	'P1'
_symmetry_Int_Tables_number	1
_symmetry_cell_setting	triclinic
loop_
_symmetry_equiv_pos_as_xyz
  x,y,z
_cell_length_a	27.440280
_cell_length_b	27.440280
_cell_length_c	27.440280
_cell_angle_alpha	90.007927
_cell_angle_beta	60.004534
_cell_angle_gamma	59.996946
loop_
_atom_site_label
_atom_site_type_symbol
_atom_site_fract_x
_atom_site_fract_y
_atom_site_fract_z
Zr1	Zr	0.533342	-0.063892	0.469562
O2	O	0.635022	-0.141720	0.391746
O3	O	0.431675	-0.040034	0.493408
O4	O	0.533349	-0.141708	0.493407
O5	O	0.533339	0.040157	0.391756
O6	O	0.533339	-0.141698	0.573610
O7	O	0.533349	-0.040046	0.391746
O8	O	0.351464	0.040177	0.573610
O9	O	0.715214	-0.141719	0.391756
O10	O	0.473480	-0.029851	0.563443
O11	O	0.473480	0.029996	0.503596
O12	O	0.593188	-0.089712	0.503596
O13	O	0.593188	-0.029865	0.443749
Zr14	Zr	0.533312	0.064038	0.597493
Zr15	Zr	0.533327	-0.063876	0.597476
Zr16	Zr	0.533327	0.064022	0.469579
Zr17	Zr	0.661240	-0.063890	0.469578
Zr18	Zr	0.405415	0.064037	0.597476
O19	O	0.634979	0.040181	0.573647
O20	O	0.635001	-0.141697	0.573623
O21	O	0.635001	0.040158	0.391770
O22	O	0.431632	0.141866	0.675309
O23	O	0.431654	-0.040012	0.675285
O24	O	0.431654	0.141843	0.493431
O25	O	0.533315	-0.040011	0.675298
O26	O	0.533306	0.141854	0.573647
O27	O	0.533315	0.141844	0.493444
O28	O	0.533306	0.040192	0.675309
O29	O	0.715203	-0.141706	0.493431
O30	O	0.351452	0.141852	0.573624
O31	O	0.351440	0.141865	0.675298
O32	O	0.351452	0.040190	0.675285
O33	O	0.715203	-0.040044	0.391769
O34	O	0.715191	-0.040031	0.493444
O35	O	0.473466	0.089858	0.563458
O36	O	0.473466	0.030011	0.623305
O37	O	0.593174	-0.029850	0.563458
O38	O	0.593174	0.029997	0.503612
C39	C	0.373347	0.000071	0.533507
C40	C	0.319051	0.000071	0.533500
C41	C	0.533346	0.000053	0.373526
C42	C	0.533352	0.000046	0.319223
C43	C	0.533308	0.160074	0.533548
C44	C	0.533302	0.214377	0.533555
C45	C	-0.017691	-0.031161	0.564783
C46	C	-0.068715	-0.031160	0.564789
O47	O	-0.095121	-0.057709	0.591375
N48	N	-0.094231	0.000079	0.533549
C49	C	-0.068726	0.031322	0.502306
O50	O	-0.095115	0.057894	0.475735
C51	C	-0.017706	0.031324	0.502305
C52	C	0.007812	0.000079	0.533542
C53	C	0.007827	-0.062403	0.596018
C54	C	0.058848	-0.062406	0.596012
C55	C	0.084351	-0.031166	0.564770
C56	C	0.058833	0.000076	0.533535
C57	C	0.007795	0.062571	0.471066
C58	C	0.058817	0.062570	0.471068
C59	C	0.084336	0.031325	0.502305
C60	C	0.135358	0.031314	0.502287
N61	N	0.160874	0.000075	0.533527
C62	C	0.135371	-0.031164	0.564769
C63	C	-0.175871	0.031318	0.502313
C64	C	-0.226886	0.031313	0.502311
C65	C	-0.226873	-0.031168	0.564794
C66	C	-0.175853	-0.031167	0.564792
C67	C	-0.150355	0.000079	0.533553
C68	C	0.242520	-0.031168	0.564752
C69	C	0.293547	-0.031169	0.564741
C70	C	0.293527	0.031314	0.502261
C71	C	0.242506	0.031314	0.502269
C72	C	0.217002	0.000072	0.533519
O73	O	0.161795	0.057852	0.475717
O74	O	0.161760	-0.057725	0.591342
C75	C	0.693308	0.000075	0.533548
C76	C	0.747604	0.000076	0.533555
C77	C	0.533346	-0.159928	0.533506
C78	C	0.533352	-0.214231	0.533499
C79	C	0.595825	0.519828	0.502271
C80	C	0.595828	0.570847	0.502266
O81	O	0.648970	0.570661	0.475680
N82	N	0.533343	0.627610	0.533506
C83	C	0.470850	0.633354	0.564748
O84	O	0.417701	0.686321	0.591319
C85	C	0.470847	0.582336	0.564750
C86	C	0.533336	0.525574	0.533513
C87	C	0.658309	0.463068	0.471036
C88	C	0.658305	0.412053	0.471043
C89	C	0.595816	0.417799	0.502284
C90	C	0.533332	0.474559	0.533519
C91	C	0.408354	0.588081	0.595988
C92	C	0.408356	0.537057	0.595987
C93	C	0.470846	0.480294	0.564750
C94	C	0.470840	0.429289	0.564767
N95	N	0.533325	0.372526	0.533527
C96	C	0.595813	0.366781	0.502286
C97	C	0.470861	0.740493	0.564741
C98	C	0.470863	0.791510	0.564744
C99	C	0.595842	0.728999	0.502260
C100	C	0.595839	0.677981	0.502262
C101	C	0.533346	0.683730	0.533502
C102	C	0.595800	0.259648	0.502302
C103	C	0.595791	0.208632	0.502314
C104	C	0.470812	0.271147	0.564794
C105	C	0.470821	0.322159	0.564786
C106	C	0.533321	0.316406	0.533535
O107	O	0.417725	0.429430	0.591338
O108	O	0.648953	0.313813	0.475713
C109	C	0.470830	0.031336	0.013765
C110	C	0.470826	0.031341	-0.037254
O111	O	0.417684	0.057934	-0.037074
N112	N	0.533311	0.000094	-0.094010
C113	C	0.595805	-0.031155	-0.099747
O114	O	0.648953	-0.057732	-0.152707
C115	C	0.595808	-0.031157	-0.048729
C116	C	0.533318	0.000088	0.008027
C117	C	0.408345	0.062578	0.070518
C118	C	0.408349	0.062572	0.121533
C119	C	0.470838	0.031323	0.115795
C120	C	0.533322	0.000081	0.059042
C121	C	0.658300	-0.062402	-0.054466
C122	C	0.658298	-0.062401	-0.003442
C123	C	0.595808	-0.031157	0.053313
C124	C	0.595815	-0.031174	0.104318
N125	N	0.533329	0.000073	0.161074
C126	C	0.470841	0.031322	0.166812
C127	C	0.595793	-0.031149	-0.206885
C128	C	0.595791	-0.031151	-0.257903
C129	C	0.470812	0.031346	-0.195406
C130	C	0.470815	0.031345	-0.144388
C131	C	0.533308	0.000098	-0.150129
C132	C	0.470854	0.031306	0.273945
C133	C	0.470864	0.031295	0.324961
C134	C	0.595842	-0.031200	0.262460
C135	C	0.595833	-0.031192	0.211448
C136	C	0.533334	0.000066	0.217194
O137	O	0.648930	-0.057750	0.104184
O138	O	0.417702	0.057901	0.219774
C139	C	0.533308	0.000093	0.693528
C140	C	0.533302	0.000100	0.747831
C141	C	0.373328	0.000091	0.693508
C142	C	0.319026	0.000097	0.747804
C143	C	0.373328	0.160072	0.533528
C144	C	0.319026	0.214375	0.533528
C145	C	0.373309	0.160092	0.693529
C146	C	0.319001	0.214402	0.747832
C147	C	0.693345	-0.159946	0.373526
C148	C	0.747654	-0.214255	0.319223
C149	C	0.693326	0.000055	0.373547
C150	C	0.747629	0.000049	0.319251
C151	C	0.693326	-0.159926	0.533527
C152	C	0.747629	-0.214228	0.533527
C153	C	0.293532	-0.031152	0.742054
C154	C	0.242516	-0.031158	0.793066
C155	C	0.216992	0.000089	0.849827
C156	C	0.242490	0.031340	0.855575
C157	C	0.293509	0.031342	0.804564
C158	C	0.293517	0.271128	0.564775
C159	C	0.242502	0.322156	0.564773
C160	C	0.216992	0.316429	0.533526
C161	C	0.242505	0.259669	0.502275
C162	C	0.293523	0.208643	0.502274
C163	C	0.293497	0.208666	0.804578
C164	C	0.242475	0.259690	0.855606
C165	C	0.216955	0.316449	0.849887
C166	C	0.242464	0.322184	0.793135
C167	C	0.293488	0.271160	0.742108
C168	C	0.773164	-0.208520	0.262477
C169	C	0.824201	-0.259544	0.211449
C170	C	0.849724	-0.316303	0.217168
C171	C	0.824212	-0.322037	0.273920
C172	C	0.773179	-0.271014	0.324947
C173	C	0.773128	0.031293	0.325000
C174	C	0.824157	0.031285	0.273989
C175	C	0.849684	0.000036	0.217228
C176	C	0.824183	-0.031212	0.211479
C177	C	0.773157	-0.031207	0.262491
C178	C	0.773122	-0.208482	0.564780
C179	C	0.824138	-0.259500	0.564791
C180	C	0.849663	-0.316264	0.533546
C181	C	0.824164	-0.322009	0.502293
C182	C	0.773146	-0.270992	0.502285
H183	H	0.221759	-0.056607	0.590200
H184	H	0.845000	-0.368257	0.278569
O185	O	0.161953	0.371467	0.533541
H186	H	0.148497	0.411891	0.560528
H187	H	0.314259	0.056793	0.809254
H188	H	0.752348	-0.162267	0.590223
O189	O	0.851643	0.065002	0.280199
H190	H	0.907924	0.033465	0.258467
O191	O	0.745640	-0.147305	0.256300
H192	H	0.755415	-0.122557	0.278065
H193	H	0.844894	-0.254810	0.590241
O194	O	0.851701	-0.253353	0.150242
H195	H	0.825364	-0.205312	0.154843
O196	O	-0.148335	-0.064862	0.598487
H197	H	-0.174647	-0.086581	0.620212
O198	O	0.214954	0.065040	0.916800
H199	H	0.241253	0.086770	0.912235
O200	O	-0.148359	0.065014	0.468616
H201	H	-0.125108	0.046950	0.420597
O202	O	0.321023	0.277315	0.598481
H203	H	0.377308	0.255554	0.566944
H204	H	0.221711	0.255011	0.901811
H205	H	0.419975	0.056740	0.371174
O206	O	0.904775	-0.371335	0.162129
H207	H	0.918221	-0.357805	0.121711
O208	O	0.321025	0.147450	0.810753
H209	H	0.294720	0.152044	0.858789
H210	H	0.752409	-0.275691	0.371150
H211	H	0.314314	-0.056605	0.695841
O212	O	0.745611	0.064990	0.386218
H213	H	0.771930	0.086703	0.381636
O214	O	0.321026	0.147432	0.468573
H215	H	0.360792	0.112906	0.473814
O216	O	0.214978	0.383371	0.598492
H217	H	0.241279	0.378776	0.620229
O218	O	0.663190	-0.064870	-0.213063
H219	H	0.693172	-0.046833	-0.237833
H220	H	0.221727	0.255015	0.476835
H221	H	0.314247	0.275838	0.695905
O222	O	0.403445	0.065016	0.280147
H223	H	0.400460	0.033475	0.258387
O224	O	0.403440	0.383397	0.598485
H225	H	0.373462	0.388608	0.580439
H226	H	-0.247648	-0.056604	0.590233
H227	H	0.079620	-0.087846	0.621449
O228	O	0.904699	0.000052	0.162209
H229	H	0.918127	0.027041	0.175749
H230	H	0.175407	0.357991	0.891441
H231	H	0.752395	-0.275679	0.476833
H232	H	0.221678	0.368404	0.788487
O233	O	0.725705	-0.096163	-0.009640
H234	H	0.715216	-0.090937	0.035369
O235	O	0.851717	-0.064916	0.150257
H236	H	0.891477	-0.059661	0.115757
H237	H	-0.012935	-0.087842	0.621461
H238	H	0.891206	-0.357800	0.533557
O239	O	0.321071	-0.064869	0.598435
H240	H	0.294756	-0.086586	0.620164
H241	H	0.752398	-0.056649	0.257801
O242	O	0.851704	-0.383234	0.468587
H243	H	0.891470	-0.417739	0.473840
O244	O	0.215017	-0.064863	0.786861
H245	H	0.191768	-0.046800	0.762092
O246	O	-0.254382	0.064987	0.468594
H247	H	-0.228066	0.086703	0.446866
H248	H	-0.012974	0.088015	0.445631
H249	H	0.079576	0.088014	0.445627
H250	H	0.357457	0.088028	0.075201
O251	O	0.214982	0.065007	0.468575
H252	H	0.191733	0.113029	0.486635
O253	O	0.321002	0.065044	0.468601
H254	H	0.360750	0.059809	0.473866
H255	H	0.175449	0.000083	0.891359
O256	O	0.663208	0.253441	0.468601
H257	H	0.706651	0.205397	0.446890
H258	H	0.646679	0.162413	0.476877
O259	O	0.725704	0.350833	0.437344
H260	H	0.769151	0.355419	0.415617
H261	H	0.709197	0.458380	0.445592
H262	H	0.646724	0.724329	0.476820
O263	O	0.663237	0.616760	0.468566
H264	H	0.706686	0.621343	0.446840
H265	H	0.419978	0.837725	0.590187
H266	H	0.357468	0.634292	0.621425
O267	O	0.403454	0.746695	0.598463
H268	H	0.360010	0.794738	0.620193
O269	O	0.340947	0.543265	0.629697
H270	H	0.310981	0.568042	0.611645
O271	O	0.403415	0.277340	0.598486
H272	H	0.413916	0.232325	0.593233
H273	H	0.419931	0.056792	-0.098178
O274	O	0.340950	0.096275	0.182745
H275	H	0.297504	0.118006	0.178154
H276	H	0.419930	0.056789	-0.190741
H277	H	0.709186	-0.087844	-0.100671
O278	O	0.663189	-0.064856	-0.319116
H279	H	0.706638	-0.086581	-0.314528
H280	H	0.646717	-0.056641	0.165234
H281	H	0.646719	-0.056644	0.257798
