data_functionalizedCrystal
_audit_creation_method	'MofGen! by Chris Wilmer'
_symmetry_space_group_name_H-M	'P1'
_symmetry_Int_Tables_number	1
_symmetry_cell_setting	triclinic
loop_
_symmetry_equiv_pos_as_xyz
  x,y,z
_cell_length_a	15.698487
_cell_length_b	21.606444
_cell_length_c	21.606444
_cell_angle_alpha	60.003871
_cell_angle_beta	59.999624
_cell_angle_gamma	90.000958
loop_
_atom_site_label
_atom_site_type_symbol
_atom_site_fract_x
_atom_site_fract_y
_atom_site_fract_z
Zr1	Zr	0.820601	-0.081206	0.677458
O2	O	0.684584	-0.180023	0.806570
O3	O	0.862298	-0.050917	0.548342
O4	O	0.862297	-0.180030	0.677455
O5	O	0.684586	0.050939	0.677462
O6	O	1.002478	-0.180031	0.677457
O7	O	0.684586	-0.050911	0.677457
O8	O	1.002481	0.050928	0.446498
O9	O	0.684583	-0.180020	0.908421
O10	O	0.984696	-0.037996	0.601453
O11	O	0.880080	0.038014	0.601454
O12	O	0.880078	-0.113999	0.753468
O13	O	0.775462	-0.037989	0.753470
Zr14	Zr	1.044173	0.081230	0.677469
Zr15	Zr	1.044173	-0.081209	0.677462
Zr16	Zr	0.820600	0.081232	0.677465
Zr17	Zr	0.820598	-0.081201	0.839899
Zr18	Zr	1.044175	0.081224	0.515029
O19	O	1.002475	0.050940	0.806586
O20	O	1.002476	-0.180027	0.806576
O21	O	0.684584	0.050943	0.806580
O22	O	1.180189	0.180046	0.548358
O23	O	1.180190	-0.050920	0.548348
O24	O	0.862298	0.180050	0.548352
O25	O	1.180188	-0.050916	0.677466
O26	O	1.002477	0.180053	0.677473
O27	O	0.862296	0.180054	0.677470
O28	O	1.180188	0.050934	0.677470
O29	O	0.862293	-0.180022	0.908424
O30	O	1.002480	0.180045	0.446504
O31	O	1.180191	0.180043	0.446507
O32	O	1.180191	0.050926	0.446501
O33	O	0.684583	-0.050903	0.908426
O34	O	0.862293	-0.050905	0.908430
O35	O	0.984696	0.114022	0.601460
O36	O	1.089311	0.038012	0.601458
O37	O	0.984694	-0.037991	0.753473
O38	O	0.880078	0.038019	0.753475
C39	C	0.652732	0.000015	0.677459
C40	C	0.557819	0.000016	0.677457
C41	C	0.932390	0.000005	0.474276
C42	C	0.932391	0.000003	0.405316
C43	C	0.932386	0.203197	0.677473
C44	C	0.932386	0.272157	0.677476
C45	C	0.384034	0.000009	0.677473
C46	C	0.480738	0.000011	0.677468
C47	C	1.212042	0.000008	0.677469
C48	C	1.306955	0.000007	0.677470
C49	C	0.932387	-0.203174	0.677455
C50	C	0.932387	-0.272134	0.677452
C51	C	0.877779	0.264883	0.756825
C52	C	0.877774	0.329681	0.756823
C53	C	0.932384	0.401751	0.677470
C54	C	0.986993	0.409023	0.598114
C55	C	0.986991	0.344226	0.598117
C56	C	0.987001	0.670341	0.598099
C57	C	0.987002	0.735139	0.598101
C58	C	0.877785	0.655795	0.756804
C59	C	0.877783	0.590999	0.756808
C60	C	0.932387	0.598276	0.677452
C61	C	0.932390	0.528015	0.677456
C62	C	0.932388	0.472011	0.677465
C63	C	0.986997	-0.039675	0.372917
C64	C	0.987001	-0.039670	0.308117
C65	C	0.932391	0.000009	0.275721
C66	C	0.877784	0.039692	0.308122
C67	C	0.877787	0.039691	0.372917
C68	C	0.877772	0.039698	0.046813
C69	C	0.877770	0.039694	-0.017984
C70	C	0.986985	-0.039662	-0.017986
C71	C	0.986988	-0.039664	0.046808
C72	C	0.932386	0.000022	0.079200
C73	C	0.932384	0.000017	0.149462
C74	C	0.932387	0.000010	0.205465
C75	C	0.932384	0.000018	0.880652
C76	C	0.932383	0.000020	0.949612
C77	C	1.212045	0.000002	0.474281
C78	C	1.306959	-0.000001	0.405322
C79	C	0.932389	0.203191	0.474285
C80	C	0.932390	0.272148	0.405327
C81	C	1.212045	0.203188	0.474289
C82	C	1.306958	0.272144	0.405334
C83	C	0.652729	-0.203165	0.880638
C84	C	0.557816	-0.272121	0.949594
C85	C	0.652729	0.000021	0.880647
C86	C	0.557815	0.000025	0.949605
C87	C	0.932384	-0.203168	0.880643
C88	C	0.932383	-0.272125	0.949600
C89	C	1.296923	-0.039685	0.372936
C90	C	1.386096	-0.039704	0.308151
C91	C	1.485303	-0.000033	0.275749
C92	C	1.495337	0.039652	0.308142
C93	C	1.406165	0.039665	0.372930
C94	C	0.986999	0.344213	0.372947
C95	C	0.986996	0.409012	0.308164
C96	C	0.932390	0.401744	0.275757
C97	C	0.877774	0.329671	0.308144
C98	C	0.877772	0.264874	0.372931
C99	C	1.406148	0.264850	0.372951
C100	C	1.495338	0.329635	0.308169
C101	C	1.485335	0.401714	0.275767
C102	C	1.386135	0.409007	0.308156
C103	C	1.296947	0.344222	0.372941
C104	C	0.458626	-0.264827	0.981985
C105	C	0.369436	-0.329612	1.046787
C106	C	0.379438	-0.401691	1.079192
C107	C	0.478639	-0.408983	1.046799
C108	C	0.567826	-0.344199	0.982002
C109	C	0.567851	0.039702	0.981999
C110	C	0.478678	0.039702	1.046801
C111	C	0.379471	0.000029	1.079205
C112	C	0.369437	-0.039653	1.046810
C113	C	0.458609	-0.039657	0.982012
C114	C	0.987000	-0.264832	0.981986
C115	C	0.987020	-0.329619	1.046770
C116	C	0.932416	-0.401697	1.079172
C117	C	0.877797	-0.408988	1.046779
C118	C	0.877784	-0.344202	0.981992
H119	H	0.833309	0.323752	0.821437
H120	H	1.031452	-0.071977	0.073186
H121	H	1.031450	-0.071974	-0.044370
C122	C	0.857702	0.160289	0.235153
C123	C	0.817854	0.083355	0.272425
H124	H	0.820732	0.187257	0.213088
H125	H	0.849831	0.165966	0.278390
H126	H	0.929565	0.179821	0.188695
H127	H	0.745992	0.063822	0.318888
H128	H	0.825715	0.077673	0.229185
H129	H	0.833304	-0.350151	0.955631
C130	C	0.769819	0.244752	0.314609
C131	C	0.817759	0.321689	0.272513
H132	H	0.732768	0.239827	0.292610
H133	H	0.821490	0.221128	0.303986
H134	H	0.722673	0.221125	0.375781
H135	H	0.864911	0.345314	0.211342
H136	H	0.766082	0.345322	0.283129
H137	H	0.833318	0.532318	0.821425
H138	H	0.833306	0.206198	0.399286
H139	H	0.486771	-0.467678	1.073192
C140	C	0.829871	-0.516104	1.224906
C141	C	0.932430	-0.472907	1.150391
H142	H	0.829883	-0.560066	1.268872
H143	H	0.800644	-0.486788	1.246133
H144	H	0.789537	-0.530765	1.210248
H145	H	0.972762	-0.458242	1.165048
H146	H	0.961671	-0.502229	1.129161
C147	C	0.205779	-0.356426	1.066732
C148	C	0.260401	-0.321587	1.082381
H149	H	0.138466	-0.351473	1.088710
H150	H	0.242840	-0.332811	1.005569
H151	H	0.198972	-0.408625	1.095317
H152	H	0.267215	-0.269386	1.053790
H153	H	0.223332	-0.345199	1.143556
C154	C	1.423113	0.527917	0.288183
C155	C	1.375159	0.488243	0.272524
H156	H	1.416345	0.576837	0.266175
H157	H	1.390573	0.501005	0.349349
H158	H	1.494947	0.532827	0.259630
H159	H	1.303322	0.483328	0.301083
H160	H	1.407696	0.515162	0.211346
H161	H	0.306870	0.000039	1.131967
H162	H	1.414312	0.206165	0.399323
C163	C	1.094960	0.429161	0.441241
C164	C	1.047022	0.352220	0.510894
H165	H	1.132023	0.434095	0.387392
H166	H	1.043287	0.452782	0.444539
H167	H	1.142095	0.452782	0.444547
H168	H	0.999881	0.328600	0.507591
H169	H	1.098701	0.328589	0.507593
C170	C	1.615935	0.054396	0.341068
C171	C	1.604390	0.083267	0.272512
H172	H	1.683264	0.081325	0.319063
H173	H	1.564277	0.060087	0.384282
H174	H	1.608112	0.002197	0.366343
H175	H	1.612206	0.135465	0.247240
H176	H	1.656064	0.077583	0.229282
H177	H	0.648589	-0.350147	0.955630
C178	C	0.281385	-0.516101	1.224930
C179	C	0.281395	-0.472900	1.150412
H180	H	0.220851	-0.560057	1.268896
H181	H	0.341880	-0.530765	1.210281
H182	H	0.281399	-0.486780	1.246160
H183	H	0.281390	-0.502219	1.129179
H184	H	0.220885	-0.458236	1.165062
C185	C	0.205793	-0.032742	1.066763
C186	C	0.260381	-0.083251	1.082427
H187	H	0.138468	-0.059655	1.088745
H188	H	0.199021	-0.009117	1.095327
H189	H	0.242864	0.004794	1.005588
H190	H	0.223315	-0.120784	1.143602
H191	H	0.267149	-0.106888	1.053865
C192	C	0.544340	0.160269	1.013805
C193	C	0.489725	0.083334	1.082391
H194	H	0.551156	0.187205	1.035776
H195	H	0.611631	0.165934	0.970584
H196	H	0.507259	0.179845	0.988549
H197	H	0.526810	0.063756	1.107642
H198	H	0.422423	0.077663	1.125627
H199	H	1.557966	0.454460	0.223014
H200	H	1.576103	0.323684	0.281804
H201	H	1.216186	0.350172	0.399299
H202	H	1.557904	-0.000049	0.222994
C203	C	0.341706	-0.192897	0.988520
C204	C	0.447612	-0.185602	0.946386
H205	H	0.334903	-0.143988	0.966553
H206	H	0.309190	-0.219811	0.977893
H207	H	0.309207	-0.219829	1.049690
H208	H	0.480109	-0.158674	0.885216
H209	H	0.480142	-0.158677	0.957006
C210	C	0.392935	-0.054359	0.909157
C211	C	0.447566	-0.083263	0.946399
H212	H	0.386118	-0.081279	0.887169
H213	H	0.325644	-0.060036	0.952389
H214	H	0.430004	-0.002162	0.862646
H215	H	0.410492	-0.135459	0.992914
H216	H	0.514869	-0.077593	0.903163
C217	C	0.769880	0.118195	-0.011530
C218	C	0.817785	0.083346	-0.053628
H219	H	0.732866	0.145153	-0.033548
H220	H	0.722716	0.080661	0.049631
H221	H	0.821575	0.152417	-0.022137
H222	H	0.766088	0.049120	-0.043016
H223	H	0.864953	0.120884	-0.114804
H224	H	0.833314	0.206204	0.821444
H225	H	1.414351	0.071985	0.399291
H226	H	0.833319	0.649876	0.821419
C227	C	0.977527	-0.138611	0.288147
C228	C	1.047023	-0.083283	0.272500
H229	H	1.014590	-0.165531	0.266150
H230	H	0.925863	-0.172855	0.349311
H231	H	0.945011	-0.114968	0.259576
H232	H	1.079534	-0.106927	0.301076
H233	H	1.098707	-0.049034	0.211324
H234	H	1.031465	-0.206149	0.955615
H235	H	0.833340	-0.467683	1.073170
C236	C	0.753059	0.074939	0.882672
C237	C	0.676894	0.083311	0.946391
H238	H	0.820375	0.101865	0.860693
H239	H	0.745235	0.022747	0.907943
H240	H	0.745231	0.094540	0.836159
H241	H	0.684717	0.063705	0.992908
H242	H	0.684722	0.135514	0.921121
H243	H	1.031472	0.793824	0.533479
H244	H	1.031495	-0.323668	1.073137
H245	H	1.031467	0.676277	0.533483
C246	C	1.035504	0.280128	0.472267
C247	C	1.047024	0.352215	0.408563
H248	H	1.072566	0.285075	0.494249
H249	H	0.963667	0.253211	0.518773
H250	H	1.062484	0.253216	0.446976
H251	H	1.020037	0.379126	0.433856
H252	H	1.118875	0.379144	0.362048
H253	H	1.031452	0.467708	0.533503
C254	C	0.711858	0.054411	0.445796
C255	C	0.817757	0.083300	0.408538
H256	H	0.674800	0.081335	0.467789
H257	H	0.704046	0.060095	0.402573
H258	H	0.684904	0.002213	0.492306
H259	H	0.844713	0.135497	0.362024
H260	H	0.825575	0.077624	0.451766
H261	H	1.031460	-0.071990	0.399294
C262	C	0.887235	0.138651	0.066765
C263	C	0.817742	0.083310	0.082424
H264	H	0.850171	0.165576	0.088750
H265	H	0.919752	0.115021	0.095330
H266	H	0.938903	0.172893	0.005591
H267	H	0.766079	0.049064	0.143598
H268	H	0.785209	0.106941	0.053861
H269	H	1.216151	-0.071999	0.399317
H270	H	1.031474	0.467691	0.281802
C271	C	1.269139	-0.118121	0.314660
C272	C	1.375049	-0.083319	0.272545
H273	H	1.262320	-0.145042	0.292674
H274	H	1.236626	-0.152361	0.375824
H275	H	1.236647	-0.080558	0.304031
H276	H	1.407540	-0.120883	0.283180
H277	H	1.407576	-0.049077	0.211368
H278	H	0.932400	0.454512	0.223004
