data_functionalizedCrystal
_audit_creation_method	'MofGen! by Chris Wilmer'
_symmetry_space_group_name_H-M	'P1'
_symmetry_Int_Tables_number	1
_symmetry_cell_setting	triclinic
loop_
_symmetry_equiv_pos_as_xyz
  x,y,z
_cell_length_a	10.654545
_cell_length_b	10.654550
_cell_length_c	9.130313
_cell_angle_alpha	90.001643
_cell_angle_beta	90.004301
_cell_angle_gamma	84.483991
loop_
_atom_site_label
_atom_site_type_symbol
_atom_site_fract_x
_atom_site_fract_y
_atom_site_fract_z
O1	O	1.667845	0.176368	0.121781
O2	O	1.302366	0.193180	0.121786
O3	O	1.493509	0.002035	0.121778
O4	O	1.476703	0.367514	0.121789
O5	O	1.493490	0.002036	-0.121821
O6	O	1.302348	0.193181	-0.121812
O7	O	1.667827	0.176369	-0.121818
Cu8	Cu	1.485086	0.184776	-0.144058
Cu9	Cu	1.485107	0.184774	0.144026
O10	O	1.476684	0.367515	-0.121810
C11	C	1.255559	0.191948	-0.000012
C12	C	1.116115	0.188258	-0.000010
C13	C	1.050601	0.186522	-0.132797
C14	C	0.919581	0.183034	-0.132797
C15	C	0.919602	0.183025	0.132788
C16	C	1.050620	0.186503	0.132787
C17	C	1.492266	-0.044762	-0.000020
C18	C	1.488574	-0.184206	-0.000014
C19	C	1.601115	-0.263693	-0.000021
C20	C	1.597639	-0.394714	-0.000010
C21	C	1.369069	-0.366747	0.000006
C22	C	1.372547	-0.235729	0.000006
C23	C	1.733079	-0.279841	-0.000036
C24	C	1.729602	-0.410862	-0.000026
C25	C	1.714634	0.177602	-0.000016
C26	C	1.854078	0.181292	-0.000009
C27	C	1.477927	0.414312	-0.000009
C28	C	1.481619	0.553755	-0.000004
N29	N	1.485080	0.184776	-0.346680
C30	C	1.400430	0.269377	-0.423366
C31	C	1.400455	0.269375	-0.576703
C32	C	1.569782	0.100159	-0.576655
C33	C	1.569762	0.100168	-0.423321
C34	C	1.302667	0.367069	-0.423395
C35	C	1.302691	0.367067	-0.576732
N36	N	1.485123	0.184764	0.346649
H37	H	1.280904	-0.171013	0.000032
N38	N	0.848919	0.181155	-0.276017
H39	H	0.910401	0.181909	-0.360133
H40	H	0.785651	0.257885	-0.282244
N41	N	1.795412	-0.466157	-0.135095
H42	H	1.734197	-0.511355	-0.195333
H43	H	1.868847	-0.527775	-0.104979
N44	N	1.121237	0.188411	-0.276025
H45	H	1.107942	0.110089	-0.334081
H46	H	1.214150	0.190930	-0.255764
H47	H	1.769491	-0.456506	0.105152
H48	H	0.866259	0.181597	0.240906
H49	H	1.211477	0.336485	-0.375858
N50	N	1.343121	0.487883	-0.639737
H51	H	1.362636	0.546263	-0.557400
H52	H	1.272881	0.529932	-0.702054
H53	H	1.206183	0.345552	-0.618372
N54	N	1.788610	-0.232619	-0.139416
H55	H	1.812902	-0.306171	-0.206750
H56	H	1.865858	-0.188630	-0.115215
N57	N	1.121296	0.188361	0.276013
H58	H	1.059925	0.186728	0.360139
H59	H	1.166153	0.267519	0.281807
N60	N	1.661077	0.008936	-0.340606
H61	H	1.714722	-0.044662	-0.412428
H62	H	1.612521	-0.047038	-0.276995
N63	N	1.243926	-0.422310	0.000021
H64	H	1.237396	-0.476042	0.090325
H65	H	1.237452	-0.475986	-0.090339
N66	N	1.801458	-0.240938	0.134982
H67	H	1.829457	-0.318080	0.195241
H68	H	1.743007	-0.181068	0.195131
N69	N	1.661118	0.008910	-0.659317
H70	H	1.648290	0.021743	-0.768091
H71	H	1.645841	-0.080323	-0.632521
H72	H	1.324101	0.463607	-0.381782
