data_functionalizedCrystal
_audit_creation_method	'MofGen! by Chris Wilmer'
_symmetry_space_group_name_H-M	'P1'
_symmetry_Int_Tables_number	1
_symmetry_cell_setting	triclinic
loop_
_symmetry_equiv_pos_as_xyz
  x,y,z
_cell_length_a	13.033293
_cell_length_b	13.032868
_cell_length_c	13.032328
_cell_angle_alpha	76.715225
_cell_angle_beta	89.079697
_cell_angle_gamma	74.808508
loop_
_atom_site_label
_atom_site_type_symbol
_atom_site_fract_x
_atom_site_fract_y
_atom_site_fract_z
Zn1	Zn	1.451096	0.335763	-0.818059
Zn2	Zn	1.951096	0.835763	-0.318059
Zn3	Zn	1.450962	0.490864	-0.662986
Zn4	Zn	1.950962	0.990864	-0.162986
Zn5	Zn	1.301761	0.330067	-0.623616
Zn6	Zn	1.801761	0.830067	-0.123616
Zn7	Zn	1.250866	0.535853	-0.817927
Zn8	Zn	1.750866	1.035853	-0.317927
O9	O	1.363672	0.423137	-0.730647
O10	O	1.863672	0.923137	-0.230647
O11	O	1.597317	0.339893	-0.814021
O12	O	2.097317	0.839893	-0.314021
O13	O	1.452414	0.448323	-0.511545
O14	O	1.952414	0.948323	-0.011545
O15	O	1.342926	0.179790	-0.632988
O16	O	1.842926	0.679790	-0.132988
O17	O	1.597218	0.453846	-0.700089
O18	O	2.097218	0.953846	-0.200089
O19	O	1.452642	0.183975	-0.775845
O20	O	1.952642	0.683975	-0.275845
O21	O	1.342797	0.330186	-0.482620
O22	O	1.842797	0.830186	0.017380
O23	O	1.148772	0.373809	-0.632859
O24	O	1.648772	0.873809	-0.132859
O25	O	1.256184	0.530522	-0.964163
O26	O	1.756184	1.030522	-0.464163
O27	O	1.111380	0.524999	-0.775619
O28	O	1.611380	1.024999	-0.275619
O29	O	1.403292	0.383517	-0.964260
O30	O	1.903292	0.883517	-0.464260
O31	O	1.403064	0.647865	-0.699961
O32	O	1.903064	1.147865	-0.199961
O33	O	1.256054	0.680918	-0.813795
O34	O	1.756054	1.180918	-0.313795
C35	C	1.092158	0.453669	-0.699953
C36	C	1.592158	0.953669	-0.199953
C37	C	0.975995	0.466760	-0.686850
C38	C	1.475995	0.966760	-0.186850
C39	C	0.924226	0.416332	-0.737489
C40	C	1.424226	0.916332	-0.237489
C41	C	0.804167	0.429861	-0.723947
C42	C	1.304167	0.929861	-0.223947
C43	C	1.324047	0.703552	-0.761162
C44	C	1.824047	1.203552	-0.261162
C45	C	1.307185	0.823510	-0.774262
C46	C	1.807185	1.323510	-0.274262
C47	C	1.372455	0.860603	-0.723833
C48	C	1.872455	1.360603	-0.223833
C49	C	1.355030	0.984584	-0.737371
C50	C	1.855030	1.484584	-0.237371
C51	C	1.636246	0.392486	-0.761461
C52	C	2.136246	0.892486	-0.261461
C53	C	1.752400	0.379425	-0.774593
C54	C	2.252400	0.879425	-0.274593
C55	C	1.324075	0.462673	-1.003184
C56	C	1.824075	0.962673	-0.503184
C57	C	1.307202	0.479521	-1.119324
C58	C	1.807202	0.979521	-0.619324
C59	C	1.403444	1.141629	-0.700024
C60	C	1.903444	1.641629	-0.200024
C61	C	1.420308	1.021672	-0.686935
C62	C	1.920308	1.521672	-0.186935
C63	C	1.355040	0.431714	-1.291189
C64	C	1.855040	0.931714	-0.791189
C65	C	1.372475	0.414293	-1.171151
C66	C	1.872475	0.914293	-0.671151
C67	C	1.403185	0.383670	-0.459168
C68	C	1.903185	0.883670	0.040832
C69	C	1.420304	0.366495	-0.343019
C70	C	1.920304	0.866495	0.156981
H71	H	0.968790	0.363137	-0.790863
H72	H	1.468790	0.863137	-0.290863
H73	H	0.759609	0.483052	-0.670562
H74	H	1.259609	0.983052	-0.170562
H75	H	1.286254	0.500446	-1.335682
H76	H	1.786254	1.000446	-0.835682
H77	H	1.286248	1.044612	-0.790576
H78	H	1.786248	1.544612	-0.290576
H79	H	1.441258	0.345550	-1.126661
H80	H	1.941258	0.845550	-0.626661
C81	C	1.465375	0.779521	-0.651968
C82	C	1.965375	1.279521	-0.151968
H83	H	1.504070	0.818870	-0.622090
H84	H	2.004070	1.318870	-0.122090
H85	H	1.438187	0.733492	-0.597133
H86	H	1.938187	1.233492	-0.097133
H87	H	1.511211	0.736190	-0.692354
H88	H	2.011211	1.236190	-0.192354
H89	H	1.238405	0.548251	-1.163809
H90	H	1.738405	1.048251	-0.663809
H91	H	1.489082	0.297757	-1.298525
H92	H	1.989082	0.797757	-0.798525
C93	C	0.812579	0.307560	-0.846707
C94	C	1.312579	0.807560	-0.346707
H95	H	0.764531	0.277671	-0.876714
H96	H	1.264531	0.777671	-0.376714
H97	H	0.842731	0.350744	-0.901440
H98	H	1.342731	0.850744	-0.401440
H99	H	0.867596	0.249914	-0.806445
H100	H	1.367596	0.749914	-0.306445
C101	C	0.915811	0.538617	-0.614736
C102	C	1.415811	1.038617	-0.114736
H103	H	0.963861	0.568496	-0.584717
H104	H	1.463861	1.068496	-0.084717
H105	H	0.860789	0.596256	-0.654987
H106	H	1.360789	1.096256	-0.154987
H107	H	0.885669	0.495420	-0.559998
H108	H	1.385669	0.995420	-0.059998
C109	C	1.513235	0.940595	-0.615066
C110	C	2.013235	1.440595	-0.115066
H111	H	1.551928	0.979947	-0.585191
H112	H	2.051928	1.479947	-0.085191
H113	H	1.486048	0.894566	-0.560231
H114	H	1.986048	1.394566	-0.060231
H115	H	1.559071	0.897265	-0.655453
H116	H	2.059071	1.397265	-0.155453
C117	C	1.214268	0.904592	-0.846131
C118	C	1.714268	1.404592	-0.346131
H119	H	1.175583	0.865243	-0.876020
H120	H	1.675583	1.365243	-0.376020
H121	H	1.168436	0.947932	-0.805758
H122	H	1.668436	1.447932	-0.305758
H123	H	1.241469	0.950612	-0.900972
H124	H	1.741469	1.450612	-0.400972
