data_functionalizedCrystal
_audit_creation_method	'MofGen! by Chris Wilmer'
_symmetry_space_group_name_H-M	'P1'
_symmetry_Int_Tables_number	1
_symmetry_cell_setting	triclinic
loop_
_symmetry_equiv_pos_as_xyz
  x,y,z
_cell_length_a	17.077404
_cell_length_b	17.077402
_cell_length_c	17.077396
_cell_angle_alpha	90.027528
_cell_angle_beta	90.018362
_cell_angle_gamma	90.021463
loop_
_atom_site_label
_atom_site_type_symbol
_atom_site_fract_x
_atom_site_fract_y
_atom_site_fract_z
Zn1	Zn	1.200051	-0.312551	0.443824
Zn2	Zn	1.199957	-0.443826	0.312560
Zn3	Zn	1.068783	-0.312573	0.312575
Zn4	Zn	1.068750	-0.443774	0.443786
O5	O	1.134385	-0.378181	0.378186
O6	O	1.309886	-0.329977	0.426421
O7	O	1.182531	-0.426446	0.202715
O8	O	1.086250	-0.202723	0.330007
O9	O	1.309816	-0.426424	0.329982
O10	O	1.182692	-0.202707	0.426435
O11	O	1.086158	-0.330015	0.202726
O12	O	0.958932	-0.329965	0.329970
O13	O	1.086193	-0.426336	0.553638
O14	O	0.958907	-0.426357	0.426371
O15	O	1.182659	-0.329927	0.553666
O16	O	1.182499	-0.553666	0.329946
O17	O	1.086101	-0.553628	0.426357
C18	C	0.930437	-0.378158	0.378169
C19	C	0.843188	-0.378168	0.378180
C20	C	0.802234	-0.328037	0.428472
C21	C	0.720254	-0.328042	0.428476
C22	C	0.679228	-0.378183	0.378190
C23	C	0.720187	-0.428315	0.327892
C24	C	0.802166	-0.428306	0.327885
C25	C	0.549317	-0.428333	0.327912
C26	C	0.467333	-0.428344	0.327920
C27	C	0.467405	-0.328070	0.428502
C28	C	0.549384	-0.328060	0.428495
C29	C	0.590337	-0.378194	0.378198
C30	C	1.134307	-0.582129	0.378163
C31	C	1.134346	-0.669378	0.378179
C32	C	1.184536	-0.710292	0.428430
C33	C	1.184569	-0.792273	0.428447
C34	C	1.134415	-0.833338	0.378208
C35	C	1.084220	-0.792418	0.327955
C36	C	1.084183	-0.710439	0.327943
C37	C	1.084300	-0.963288	0.327983
C38	C	1.084337	-1.045273	0.327994
C39	C	1.184686	-1.045122	0.428486
C40	C	1.184649	-0.963143	0.428474
C41	C	1.134455	-0.922229	0.378220
C42	C	1.339130	-0.378204	0.378204
C43	C	1.426379	-0.378213	0.378212
C44	C	1.134433	-0.378123	0.582931
C45	C	1.134453	-0.378098	0.670181
C46	C	1.134485	-0.173436	0.378227
C47	C	1.134527	-0.086187	0.378244
C48	C	1.134383	-0.378182	0.174238
C49	C	1.134515	-0.377985	0.086989
C50	C	1.184685	-0.327894	0.711186
C51	C	1.184694	-0.327868	0.793167
C52	C	1.134475	-0.378051	0.834140
C53	C	1.084238	-0.428257	0.793128
C54	C	1.084225	-0.428279	0.711149
C55	C	1.084269	-0.428210	0.963999
C56	C	1.084283	-0.428190	1.045983
C57	C	1.184739	-0.327799	1.046016
C58	C	1.184726	-0.327821	0.964037
C59	C	1.134489	-0.378028	0.923031
H60	H	0.582785	-0.287236	0.469447
H61	H	1.043380	-0.825860	0.287053
C62	C	0.341631	-0.472872	0.283273
C63	C	0.422234	-0.483451	0.272639
H64	H	0.313791	-0.506896	0.249146
H65	H	0.328212	-0.420121	0.271887
H66	H	0.328225	-0.484439	0.335996
H67	H	0.435641	-0.471878	0.219916
H68	H	0.435658	-0.536214	0.284019
C69	C	0.541015	-0.527466	0.228501
C70	C	0.594335	-0.483448	0.272631
H71	H	0.568809	-0.561496	0.194381
H72	H	0.509042	-0.493234	0.198532
H73	H	0.509042	-0.557532	0.262663
H74	H	0.626305	-0.453377	0.238469
H75	H	0.626321	-0.517684	0.302601
C76	C	0.927805	-0.472811	0.283212
C77	C	0.847186	-0.483411	0.272603
H78	H	0.955596	-0.506827	0.249075
H79	H	0.941255	-0.484369	0.335925
H80	H	0.941239	-0.420050	0.271815
H81	H	0.833752	-0.536171	0.284005
H82	H	0.833731	-0.471859	0.219878
C83	C	1.073314	-0.533813	0.871774
C84	C	1.029058	-0.483400	0.918913
H85	H	1.039232	-0.567882	0.843935
H86	H	1.107496	-0.563832	0.903758
H87	H	1.103220	-0.503913	0.835651
H88	H	0.999156	-0.513300	0.955040
H89	H	0.994862	-0.453378	0.886926
H90	H	1.043388	-0.469051	1.079341
C91	C	1.284042	-0.228571	1.037810
C92	C	1.239960	-0.272607	1.091085
H93	H	1.318137	-0.194506	1.065638
H94	H	1.249854	-0.198550	1.005837
H95	H	1.314042	-0.262797	1.005832
H96	H	1.209956	-0.238382	1.123059
H97	H	1.274153	-0.302631	1.123072
H98	H	1.225492	-0.929708	0.469378
C99	C	0.978671	-0.871191	0.316967
C100	C	1.029126	-0.918312	0.272744
H101	H	0.944609	-0.843428	0.282863
H102	H	1.008536	-0.835009	0.346880
H103	H	0.948640	-0.903184	0.351141
H104	H	1.059161	-0.886318	0.238574
H105	H	0.999257	-0.954498	0.242818
H106	H	1.225380	-0.676863	0.469336
C107	C	0.728560	-0.228933	0.527902
C108	C	0.675238	-0.272939	0.483761
H109	H	0.700767	-0.194916	0.562036
H110	H	0.760528	-0.198861	0.493753
H111	H	0.760537	-0.263180	0.557862
H112	H	0.643264	-0.238692	0.453796
H113	H	0.643256	-0.303013	0.517914
H114	H	0.434057	-0.287247	0.469455
H115	H	0.686778	-0.469137	0.286945
H116	H	1.043345	-0.469114	0.826495
H117	H	1.225445	-0.825581	0.469360
H118	H	1.225556	-1.078438	0.469406
C119	C	0.985125	-1.037192	0.228676
C120	C	1.029199	-1.090413	0.272780
H121	H	0.951082	-1.065062	0.194594
H122	H	1.019322	-1.005210	0.198669
H123	H	0.955072	-1.005218	0.262857
H124	H	1.059258	-1.122384	0.238599
H125	H	0.994999	-1.122408	0.302790
H126	H	1.043313	-0.469152	0.677764
H127	H	1.225582	-0.287032	0.677832
C128	C	0.894468	-0.317256	0.534079
C129	C	0.847326	-0.272922	0.483750
H130	H	0.922300	-0.283227	0.568207
H131	H	0.930590	-0.347103	0.504126
H132	H	0.862481	-0.351496	0.564044
H133	H	0.879314	-0.238686	0.453781
H134	H	0.811200	-0.243062	0.513706
H135	H	1.043312	-0.677128	0.287025
H136	H	1.225600	-0.286988	0.826550
H137	H	1.225623	-0.286962	0.930679
