data_functionalizedCrystal
_audit_creation_method	'MofGen! by Chris Wilmer'
_symmetry_space_group_name_H-M	'P1'
_symmetry_Int_Tables_number	1
_symmetry_cell_setting	triclinic
loop_
_symmetry_equiv_pos_as_xyz
  x,y,z
_cell_length_a	31.640172
_cell_length_b	14.446369
_cell_length_c	14.446369
_cell_angle_alpha	120.002637
_cell_angle_beta	89.995695
_cell_angle_gamma	59.995816
loop_
_atom_site_label
_atom_site_type_symbol
_atom_site_fract_x
_atom_site_fract_y
_atom_site_fract_z
Zr1	Zr	0.407158	1.013142	0.121354
O2	O	0.339660	1.206297	0.269186
O3	O	0.427853	0.820012	0.076037
O4	O	0.427843	1.013154	0.269162
O5	O	0.339675	1.013136	-0.076282
O6	O	0.497400	1.013135	0.269142
O7	O	0.339670	1.013155	0.076060
O8	O	0.497417	0.667638	-0.076324
O9	O	0.339657	1.358633	0.269184
O10	O	0.488585	0.899425	0.056693
O11	O	0.436679	0.899425	-0.056984
O12	O	0.436667	1.126826	0.170397
O13	O	0.384761	1.126826	0.056720
Zr14	Zr	0.518101	1.013081	-0.121647
Zr15	Zr	0.518094	1.013111	0.121321
Zr16	Zr	0.407166	1.013112	-0.121615
Zr17	Zr	0.407153	1.256099	0.121351
Zr18	Zr	0.518106	0.770124	-0.121644
O19	O	0.497407	1.206211	-0.076330
O20	O	0.497396	1.206254	0.269140
O21	O	0.339671	1.206254	-0.076284
O22	O	0.585599	0.819925	-0.269479
O23	O	0.585589	0.819968	0.075991
O24	O	0.427863	0.819969	-0.269433
O25	O	0.585585	1.013087	0.075988
O26	O	0.497416	1.013068	-0.269456
O27	O	0.427859	1.013088	-0.269435
O28	O	0.585589	1.013068	-0.076354
O29	O	0.427836	1.358608	0.269158
O30	O	0.497423	0.667614	-0.269452
O31	O	0.585602	0.667590	-0.269477
O32	O	0.585596	0.667614	-0.076350
O33	O	0.339663	1.358609	0.076056
O34	O	0.427842	1.358584	0.076031
O35	O	0.488592	0.899397	-0.170690
O36	O	0.540498	0.899397	-0.057014
O37	O	0.488581	1.126797	0.056690
O38	O	0.436674	1.126798	-0.056986
C39	C	0.462636	0.709209	-0.000143
C40	C	0.462638	0.606067	-0.000142
C41	C	0.495208	0.459751	0.071904
C42	C	0.495393	0.566676	0.071597
C43	C	0.486524	0.479188	-0.123684
C44	C	0.486762	0.371809	-0.123294
C45	C	0.406135	0.546828	0.050341
C46	C	0.406226	0.655302	0.052845
C47	C	0.323866	1.013150	-0.000106
C48	C	0.276771	1.013163	-0.000093
C49	C	0.011866	0.894398	-0.059522
C50	C	-0.165119	0.894375	-0.059544
O51	O	-0.164957	0.793424	-0.110063
N52	N	-0.214349	1.013075	-0.000191
C53	C	-0.219333	1.131789	0.059167
O54	O	-0.265267	1.232751	0.109641
C55	C	-0.042348	1.131811	0.059182
C56	C	0.006882	1.013103	-0.000166
C57	C	0.061093	0.775700	-0.118866
C58	C	0.105337	0.775707	-0.118855
C59	C	0.100352	0.894412	-0.059499
C60	C	0.051125	1.013110	-0.000155
C61	C	-0.047332	1.250523	0.118532
C62	C	-0.003080	1.250518	0.118528
C63	C	0.046149	1.131811	0.059180
C64	C	0.090384	1.131822	0.059212
N65	N	0.139614	1.013122	-0.000142
C66	C	0.144598	0.894417	-0.059498
C67	C	-0.312250	1.131770	0.059157
C68	C	-0.356496	1.131765	0.059155
C69	C	-0.302280	0.894350	-0.059559
C70	C	-0.258033	0.894357	-0.059549
C71	C	-0.263020	1.013070	-0.000197
C72	C	0.237511	0.894440	-0.059469
C73	C	0.281756	0.894458	-0.059448
C74	C	0.227535	1.131871	0.059260
C75	C	0.183294	1.131855	0.059245
C76	C	0.188285	1.013129	-0.000128
O77	O	0.090261	1.232720	0.109693
O78	O	0.190537	0.793471	-0.109985
C79	C	-0.032378	0.894391	-0.059533
C80	C	-0.081605	1.013089	-0.000189
C81	C	-0.086589	1.131794	0.059167
C82	C	-0.125851	1.013084	-0.000191
C83	C	-0.120867	0.894379	-0.059546
C84	C	-0.071637	0.775679	-0.118900
C85	C	-0.027393	0.775686	-0.118889
C86	C	-0.135819	1.250494	0.118521
C87	C	-0.180060	1.250478	0.118506
C88	C	-0.175076	1.131773	0.059150
C89	C	0.601393	1.013073	-0.000187
C90	C	0.648488	1.013060	-0.000201
C91	C	0.462620	1.013149	0.303770
C92	C	0.462617	1.013162	0.406916
C93	C	0.462624	1.317014	-0.000150
C94	C	0.462622	1.420156	-0.000152
C95	C	0.429712	1.156578	0.625301
C96	C	0.429853	1.156668	0.518065
C97	C	0.519024	0.941915	0.410224
C98	C	0.518845	0.942832	0.517997
C99	C	0.439576	0.939901	0.516656
C100	C	0.438433	0.942597	0.410684
C101	C	0.462633	1.013091	0.695945
C102	C	0.462620	1.013130	0.592825
C103	C	0.601399	0.709170	-0.000184
C104	C	0.648496	0.606016	-0.000196
C105	C	0.462645	0.709171	-0.304060
C106	C	0.462650	0.606017	-0.407205
C107	C	0.601408	0.709133	-0.304100
C108	C	0.648508	0.605965	-0.407259
C109	C	0.323851	1.317090	0.303807
C110	C	0.276751	1.420257	0.406966
C111	C	0.323860	1.317052	-0.000110
C112	C	0.276763	1.420207	-0.000097
C113	C	0.462614	1.317051	0.303766
C114	C	0.462609	1.420206	0.406911
C115	C	0.643515	0.557588	0.059162
C116	C	0.687764	0.460677	0.059173
C117	C	0.736992	0.412188	-0.000182
C118	C	0.741972	0.460625	-0.059542
C119	C	0.697724	0.557542	-0.059545
C120	C	0.697726	0.557517	-0.396366
C121	C	0.741986	0.460593	-0.493286
C122	C	0.737027	0.412114	-0.601097
C123	C	0.687804	0.460572	-0.611988
C124	C	0.643545	0.557500	-0.515070
C125	C	0.227533	1.468718	0.396072
C126	C	0.183273	1.565671	0.492992
C127	C	0.188232	1.614156	0.600804
C128	C	0.237455	1.565691	0.611695
C129	C	0.281714	1.468746	0.514776
C130	C	0.281744	1.468645	-0.059445
C131	C	0.237496	1.565583	-0.059429
C132	C	0.188267	1.614075	-0.000072
C133	C	0.183287	1.565633	0.059284
C134	C	0.227535	1.468703	0.059274
C135	C	0.429758	0.459698	-0.482183
C136	C	0.429891	0.566638	-0.374846
C137	C	0.519060	0.479135	-0.481780
C138	C	0.518889	0.371741	-0.588647
C139	C	0.439616	0.546735	-0.590212
C140	C	0.438466	0.655225	-0.481532
H141	H	0.536629	0.370075	0.037188
H142	H	0.445597	0.370028	-0.481151
H143	H	0.143198	1.605114	0.484102
O144	O	0.466913	0.697771	-0.515342
H145	H	0.439664	0.802519	-0.482075
O146	O	0.222178	1.416441	0.279795
H147	H	0.180515	1.466452	0.288522
O148	O	0.784713	0.307658	-0.000166
H149	H	0.819785	0.282076	-0.051402
O150	O	0.334804	1.416463	0.526509
H151	H	0.339302	1.372314	0.573565
H152	H	-0.220144	1.347151	0.166845
O153	O	0.543272	1.009908	0.584694
H154	H	0.583648	0.955837	0.531711
H155	H	0.537062	0.529194	0.036574
H156	H	0.445877	0.529174	-0.321060
H157	H	0.152242	1.693001	-0.000073
H158	H	0.223472	1.429268	0.107599
H159	H	0.537341	0.280983	-0.588377
H160	H	0.701787	0.596959	-0.107888
H161	H	0.241487	1.605180	0.699487
O162	O	0.374870	0.685004	-0.302905
H163	H	0.347926	0.666203	-0.344643
H164	H	0.463471	0.521928	-0.668441
O165	O	0.385391	1.000705	0.582936
H166	H	0.370010	0.947335	0.527373
O167	O	0.553138	0.332019	-0.692755
H168	H	0.553271	0.255093	-0.769790
O169	O	0.140494	1.718717	0.705336
H170	H	0.140518	1.807033	0.756501
O171	O	0.130197	1.259894	0.123271
H172	H	0.108736	1.265585	0.188867
H173	H	0.544696	0.837585	0.491336
O174	O	0.552918	0.802144	0.306544
H175	H	0.529865	0.781931	0.251422
H176	H	0.321825	1.429170	-0.107789
H177	H	0.223486	1.228518	0.107590
H178	H	0.388067	1.212886	0.679266
O179	O	0.450678	1.230801	0.698135
H180	H	0.484437	1.165965	0.711299
O181	O	0.543635	1.007451	0.407416
H182	H	0.515798	1.090751	0.403668
H183	H	0.782062	0.421148	-0.484398
O184	O	0.703081	0.609811	-0.280089
H185	H	0.744745	0.559839	-0.288816
H186	H	0.479375	0.656038	0.162569
H187	H	-0.139886	1.347160	0.166858
H188	H	0.388116	0.496949	-0.479836
O189	O	0.374833	1.230725	0.520224
H190	H	0.374879	1.230865	0.443462
O191	O	0.242872	1.617805	-0.123466
H192	H	0.284539	1.567774	-0.164760
H193	H	0.396909	0.745737	-0.430097
H194	H	0.396877	0.994546	0.411214
O195	O	0.130189	1.617940	0.123304
H196	H	0.100262	1.693468	0.113323
O197	O	0.451032	1.231145	0.521285
H198	H	0.461218	1.267228	0.599525
O199	O	-0.317641	1.259829	0.123207
H200	H	-0.298783	1.265505	0.188801
H201	H	0.544639	0.501372	-0.509021
H202	H	0.773070	0.333189	-0.680005
H203	H	0.241582	0.797762	-0.107816
H204	H	0.012688	0.679022	-0.167219
H205	H	0.537639	0.440579	-0.430174
O206	O	0.385426	0.599190	-0.595635
H207	H	0.386276	0.523759	-0.675461
O208	O	0.474092	0.509127	0.192727
H209	H	0.440149	0.505963	0.202715
H210	H	0.464560	0.341852	-0.179899
O211	O	0.682462	0.408254	-0.728278
H212	H	0.701333	0.426823	-0.775285
O213	O	0.541820	0.251573	-0.176814
H214	H	0.568026	0.270520	-0.202726
H215	H	0.683699	0.421251	0.107510
O216	O	0.590462	0.609736	-0.526835
H217	H	0.560514	0.685287	-0.441337
O218	O	0.795072	0.408315	-0.123554
H219	H	0.791109	0.458272	-0.164830
O220	O	0.373822	0.513992	-0.018838
H221	H	0.334004	0.603911	0.017330
H222	H	0.463933	0.501434	-0.179701
H223	H	0.527697	0.440614	-0.164389
O224	O	0.379706	0.599284	0.169031
H225	H	0.377699	0.523860	0.167175
H226	H	-0.087410	1.347188	0.166859
O227	O	0.382584	0.775202	0.173401
H228	H	0.406455	0.750326	0.224256
O229	O	0.371358	0.697822	-0.009461
H230	H	0.393792	0.684462	-0.079483
H231	H	0.145418	0.679043	-0.167178
O232	O	0.334855	0.766419	-0.123459
H233	H	0.339369	0.709492	-0.214678
O234	O	0.066474	0.647658	-0.182876
H235	H	0.108142	0.565135	-0.224125
O236	O	-0.204936	0.766326	-0.123561
H237	H	-0.200427	0.709400	-0.214778
O238	O	-0.296906	0.766313	-0.123589
H239	H	-0.335945	0.786265	-0.113622
O240	O	0.471168	0.799930	0.480305
H241	H	0.454660	0.748888	0.426566
O242	O	0.466894	0.803902	0.305833
H243	H	0.464667	0.805080	0.229715
H244	H	-0.007147	1.347191	0.166846
O245	O	-0.409592	1.259798	0.123175
H246	H	-0.405618	1.342334	0.164437
O247	O	-0.066263	0.647642	-0.182918
H248	H	-0.085117	0.641957	-0.248518
O249	O	0.590421	0.609889	0.123196
H250	H	0.594400	0.559934	0.164481
