data_functionalizedCrystal
_audit_creation_method	'MofGen! by Chris Wilmer'
_symmetry_space_group_name_H-M	'P1'
_symmetry_Int_Tables_number	1
_symmetry_cell_setting	triclinic
loop_
_symmetry_equiv_pos_as_xyz
  x,y,z
_cell_length_a	6.817900
_cell_length_b	12.840946
_cell_length_c	16.418038
_cell_angle_alpha	81.890745
_cell_angle_beta	75.793466
_cell_angle_gamma	88.344365
loop_
_atom_site_label
_atom_site_type_symbol
_atom_site_fract_x
_atom_site_fract_y
_atom_site_fract_z
V1	V	-3.899292	0.281758	0.117875
O2	O	-3.888289	0.320360	-0.003621
O3	O	-3.852588	0.237547	0.231761
O4	O	-3.794884	0.423934	0.116958
O5	O	-3.946393	0.132683	0.111976
V6	V	-4.389958	0.269065	0.103237
O7	O	-4.144883	0.309604	0.149985
O8	O	-4.594565	0.241219	0.071126
O9	O	-4.213455	0.313276	-0.010650
O10	O	-4.518358	0.230463	0.224733
O11	O	-4.460254	0.418140	0.109135
O12	O	-4.271160	0.126889	0.104153
C13	C	-3.699814	0.222192	0.259496
C14	C	-3.742541	0.186991	0.352606
C15	C	-3.942716	0.174086	0.400633
C16	C	-3.982891	0.141027	0.488122
C17	C	-3.822890	0.120866	0.527580
C18	C	-3.622699	0.133776	0.479546
C19	C	-3.582526	0.166842	0.392060
C20	C	-3.626218	0.459947	0.113050
C21	C	-3.622070	0.578078	0.113053
C22	C	-4.086195	-0.027264	0.108094
C23	C	-4.103196	0.090871	0.108076
V24	V	-3.882263	0.767917	0.117899
O25	O	-3.918759	0.921295	0.112011
O26	O	-3.787989	0.621074	0.116972
O27	O	-3.834022	0.767334	0.231786
O28	O	-3.872406	0.774022	-0.003597
V29	V	-4.370985	0.810757	0.103268
O30	O	-4.129789	0.740552	0.150010
O31	O	-4.572864	0.860806	0.071162
O32	O	-4.242446	0.946353	0.104192
O33	O	-4.451680	0.663294	0.109158
O34	O	-4.498032	0.810567	0.224766
O35	O	-4.196413	0.800093	-0.010621
C36	C	-4.029573	0.328627	-0.038380
C37	C	-3.966081	0.363834	-0.131489
C38	C	-3.680799	0.764646	0.259515
C39	C	-3.722193	0.767311	0.352624
C40	C	-4.013569	0.785816	-0.038359
C41	C	-3.951451	0.782115	-0.131470
C42	C	-3.997470	0.777322	0.571137
C43	C	-4.036348	0.779835	0.658621
C44	C	-3.676157	0.772107	0.650011
C45	C	-3.637281	0.769601	0.562527
C46	C	-3.797945	0.772203	0.523093
C47	C	-3.875699	0.777222	0.698061
C48	C	-3.917850	0.779947	0.792916
C49	C	-3.755792	0.769480	0.428232
C50	C	-4.110893	0.376741	-0.179516
C51	C	-4.051259	0.409806	-0.267004
C52	C	-3.846814	0.429969	-0.306462
C53	C	-3.701991	0.417056	-0.258429
C54	C	-3.761625	0.383985	-0.170943
H55	H	-4.128296	0.779441	0.539032
O56	O	-3.861669	0.088604	0.612540
C57	C	-3.773863	-0.010810	0.627504
H58	H	-3.644709	-0.022665	0.570616
H59	H	-3.712784	-0.015297	0.686610
H60	H	-3.893088	-0.074857	0.637385
H61	H	-3.492437	0.117357	0.511687
H62	H	-3.798284	0.456896	-0.377699
H63	H	-4.145907	0.130518	0.527219
O64	O	-4.230221	0.784616	0.705278
C65	C	-4.338994	0.695849	0.698422
H66	H	-4.229014	0.629636	0.680189
H67	H	-4.449179	0.668868	0.761907
H68	H	-4.426746	0.717263	0.647628
H69	H	-4.073022	0.190491	0.368518
O70	O	-3.387949	0.179267	0.345528
C71	C	-3.255366	0.154401	0.399127
H72	H	-3.335915	0.100333	0.458392
H73	H	-3.116409	0.112993	0.364182
H74	H	-3.206562	0.229768	0.418147
H75	H	-3.474797	0.765437	0.523407
O76	O	-3.621162	0.371555	-0.124184
C77	C	-3.666158	0.439029	-0.061423
H78	H	-3.833714	0.459711	-0.048060
H79	H	-3.629439	0.397894	-0.000771
H80	H	-3.571710	0.514042	-0.084688
O81	O	-3.520338	0.769531	0.688460
C82	C	-3.597429	0.772863	0.775975
H83	H	-3.760698	0.743440	0.795980
H84	H	-3.502072	0.720604	0.813155
H85	H	-3.591853	0.857236	0.789558
O86	O	-3.503496	0.436743	-0.296891
C87	C	-3.481943	0.468681	-0.384407
H88	H	-3.631572	0.501634	-0.395672
H89	H	-3.359545	0.531992	-0.408241
H90	H	-3.437284	0.398245	-0.420076
O91	O	-4.309568	0.357154	-0.141338
C92	C	-4.424569	0.375663	-0.202500
H93	H	-4.323164	0.368736	-0.267957
H94	H	-4.552158	0.315154	-0.186914
H95	H	-4.491376	0.458061	-0.202086
O96	O	-4.191838	0.422192	-0.313712
C97	C	-4.146822	0.354760	-0.376504
H98	H	-4.051033	0.286482	-0.356041
H99	H	-4.293571	0.322949	-0.385278
H100	H	-4.059465	0.400318	-0.438965
