data_functionalizedCrystal
_audit_creation_method	'MofGen! by Chris Wilmer'
_symmetry_space_group_name_H-M	'P1'
_symmetry_Int_Tables_number	1
_symmetry_cell_setting	triclinic
loop_
_symmetry_equiv_pos_as_xyz
  x,y,z
_cell_length_a	10.654546
_cell_length_b	9.130313
_cell_length_c	8.597304
_cell_angle_alpha	82.299719
_cell_angle_beta	84.908915
_cell_angle_gamma	89.998713
loop_
_atom_site_label
_atom_site_type_symbol
_atom_site_fract_x
_atom_site_fract_y
_atom_site_fract_z
O1	O	1.669007	-0.149641	0.220427
O2	O	1.303639	-0.152288	0.241437
O3	O	1.493514	-0.122141	0.002545
O4	O	1.479132	-0.179788	0.459319
O5	O	1.493511	0.121456	0.002556
O6	O	1.303636	0.091310	0.241448
O7	O	1.669004	0.093956	0.220438
Cu8	Cu	1.486320	0.114875	0.230944
Cu9	Cu	1.486323	-0.173207	0.230931
O10	O	1.479129	0.063809	0.459330
C11	C	1.256831	-0.030294	0.239901
C12	C	1.117363	-0.029710	0.235289
N13	N	1.486326	0.317497	0.230952
C14	C	1.051859	-0.162227	0.233101
C15	C	0.920815	-0.161690	0.228755
C16	C	0.920793	0.103892	0.228779
C17	C	1.051833	0.103352	0.233136
C18	C	1.117389	-0.295289	0.235254
C19	C	1.051884	-0.427816	0.233064
C20	C	0.920841	-0.427279	0.228718
C21	C	0.855301	-0.294216	0.226562
C22	C	1.570425	0.407493	0.125208
C23	C	1.570421	0.560832	0.125192
C24	C	1.402216	0.534163	0.336677
C25	C	1.402215	0.380828	0.336684
C26	C	1.654536	0.344162	0.019475
C27	C	1.738643	0.434159	-0.086276
C28	C	1.738639	0.587498	-0.086292
C29	C	1.654528	0.650840	0.019443
C30	C	1.715811	-0.028041	0.221974
C31	C	1.855279	-0.028634	0.226586
N32	N	1.486323	0.624171	0.230928
C33	C	1.491968	0.007036	-0.055937
C34	C	1.487352	0.029021	-0.230213
C35	C	1.480674	-0.065371	0.517813
C36	C	1.485291	-0.087366	0.692088
H37	H	1.105254	-0.536153	0.234833
C38	C	1.480668	0.178364	-0.481369
C39	C	1.484944	0.186270	-0.320390
H40	H	1.479185	0.275443	-0.537037
H41	H	1.406917	0.125741	-0.496940
H42	H	1.553016	0.128567	-0.519307
H43	H	1.412591	0.236058	-0.282449
H44	H	1.558703	0.238916	-0.304809
C45	C	1.317568	-0.206756	0.106793
C46	C	1.261433	-0.295883	0.240030
H47	H	1.406495	-0.207129	0.109738
H48	H	1.287917	-0.108561	0.105839
H49	H	1.296378	-0.244152	0.014443
H50	H	1.282616	-0.258481	0.332381
H51	H	1.291096	-0.394098	0.240999
C52	C	0.868052	-0.670493	0.362048
C53	C	0.848838	-0.572950	0.226317
H54	H	0.823608	-0.760429	0.360552
H55	H	0.838102	-0.627383	0.452696
H56	H	0.955478	-0.689838	0.364930
H57	H	0.761412	-0.553597	0.223441
H58	H	0.878781	-0.616068	0.135646
C59	C	0.655158	-0.238082	0.355096
C60	C	0.711251	-0.293578	0.221829
H61	H	0.566228	-0.237684	0.352181
H62	H	0.684831	-0.140140	0.356061
H63	H	0.676358	-0.298806	0.447427
H64	H	0.690058	-0.232848	0.129497
H65	H	0.681566	-0.391536	0.220849
C66	C	1.813266	0.210957	-0.180247
C67	C	1.831039	0.364548	-0.202563
H68	H	1.870299	0.167991	-0.252055
H69	H	1.729228	0.188132	-0.198206
H70	H	1.828240	0.172585	-0.075347
H71	H	1.816056	0.402922	-0.307460
H72	H	1.915096	0.387385	-0.184616
C73	C	1.104661	0.346548	0.099784
C74	C	1.123853	0.249013	0.235528
H75	H	1.149132	0.436469	0.101263
H76	H	1.017252	0.365919	0.096891
H77	H	1.134606	0.303410	0.009136
H78	H	1.093899	0.292147	0.326176
H79	H	1.211281	0.229644	0.238436
C80	C	1.491881	-0.236697	-0.056749
C81	C	1.487632	-0.244608	-0.217731
H82	H	1.493317	-0.333775	-0.001071
H83	H	1.419560	-0.186858	-0.018846
H84	H	1.565661	-0.184113	-0.041156
H85	H	1.413846	-0.297183	-0.233326
H86	H	1.559960	-0.294470	-0.255647
H87	H	1.654550	0.219307	0.019482
C88	C	1.904906	0.598449	-0.295325
C89	C	1.831083	0.686425	-0.202531
H90	H	1.961986	0.659522	-0.367078
H91	H	1.851941	0.545843	-0.352393
H92	H	1.950873	0.530331	-0.229434
H93	H	1.785108	0.754536	-0.268423
H94	H	1.884055	0.739055	-0.145460
C95	C	1.627370	0.889176	-0.128775
C96	C	1.654515	0.819394	0.019418
H97	H	1.627372	0.993232	-0.128788
H98	H	1.546845	0.857309	-0.151168
H99	H	1.689502	0.864329	-0.206870
H100	H	1.592378	0.844233	0.097512
H101	H	1.735052	0.851274	0.041829
H102	H	1.333738	0.585746	0.422764
H103	H	0.867420	0.212226	0.227022
H104	H	1.333733	0.307552	0.422789
