data_functionalizedCrystal
_audit_creation_method	'MofGen! by Chris Wilmer'
_symmetry_space_group_name_H-M	'P1'
_symmetry_Int_Tables_number	1
_symmetry_cell_setting	triclinic
loop_
_symmetry_equiv_pos_as_xyz
  x,y,z
_cell_length_a	10.654541
_cell_length_b	10.540539
_cell_length_c	9.130307
_cell_angle_alpha	89.998824
_cell_angle_beta	89.999822
_cell_angle_gamma	84.504710
loop_
_atom_site_label
_atom_site_type_symbol
_atom_site_fract_x
_atom_site_fract_y
_atom_site_fract_z
O1	O	1.667901	0.178284	-0.121747
O2	O	1.302428	0.195275	-0.121759
O3	O	1.493503	0.002070	-0.121751
O4	O	1.476827	0.371489	-0.121755
O5	O	1.493497	0.002068	0.121848
O6	O	1.302422	0.195273	0.121840
O7	O	1.667895	0.178282	0.121852
Cu8	Cu	1.485158	0.186777	0.144088
Cu9	Cu	1.485165	0.186779	-0.143996
O10	O	1.476821	0.371487	0.121844
C11	C	1.255627	0.194027	0.000039
C12	C	1.116182	0.190296	0.000034
C13	C	1.088292	0.421325	0.000013
C14	C	1.008838	0.535081	-0.000003
C15	C	0.877819	0.531569	-0.000005
C16	C	0.826252	0.414286	0.000015
C17	C	0.905707	0.300530	0.000031
C18	C	1.036727	0.304055	0.000028
C19	C	0.933596	0.069504	0.000062
C20	C	1.064615	0.073014	0.000053
C21	C	0.882029	-0.047778	0.000082
C22	C	0.961484	-0.161538	0.000088
C23	C	1.092511	-0.158020	0.000088
C24	C	1.144070	-0.040742	0.000070
C25	C	1.492249	-0.045234	0.000046
C26	C	1.488508	-0.186180	0.000038
C27	C	1.345136	-0.369555	-0.000514
C28	C	1.348929	-0.222938	0.000035
C29	C	1.555676	-0.247864	0.139147
C30	C	1.550912	-0.394407	0.139264
C31	C	1.553758	-0.394924	-0.137753
C32	C	1.555043	-0.247942	-0.139593
C33	C	1.714697	0.179530	0.000051
C34	C	1.854142	0.183260	0.000046
C35	C	1.478074	0.418790	0.000044
C36	C	1.481816	0.559737	0.000042
N37	N	1.485162	0.186775	0.346711
N38	N	1.485171	0.186772	-0.346618
C39	C	1.654428	0.015742	0.346709
C40	C	1.739070	-0.069770	0.423374
C41	C	1.739082	-0.069771	0.576707
C42	C	1.654442	0.015747	0.653379
C43	C	1.569800	0.101260	0.576714
C44	C	1.569799	0.101254	0.423377
C45	C	1.400530	0.272284	0.576716
C46	C	1.400521	0.272293	0.423383
C47	C	1.315889	0.357803	0.653388
C48	C	1.231252	0.443324	0.576723
C49	C	1.231244	0.443322	0.423380
C50	C	1.315880	0.357806	0.346718
H51	H	0.775346	-0.050630	0.000089
O52	O	1.064456	0.661575	-0.000014
H53	H	1.032616	0.716290	-0.099300
O54	O	1.493878	-0.191423	0.276279
H55	H	1.415337	-0.119459	0.245709
H56	H	1.658178	-0.225548	0.144323
H57	H	1.290221	-0.399743	0.098682
H58	H	0.813126	0.624199	-0.000008
H59	H	0.719568	0.411436	0.000031
H60	H	1.651295	-0.442412	0.145578
O61	O	1.485139	-0.431753	0.276988
H62	H	1.457022	-0.345181	0.342876
O63	O	1.493925	-0.436678	-0.277425
H64	H	1.412235	-0.490218	-0.250182
O65	O	1.139926	0.535539	0.340702
H66	H	1.154122	0.521166	0.221197
O67	O	0.905872	-0.288025	0.000114
H68	H	0.801418	-0.271356	0.000113
H69	H	1.807981	-0.139401	0.360934
O70	O	1.178209	-0.280715	0.000116
H71	H	1.159756	-0.336791	-0.099165
H72	H	1.505897	-0.207065	-0.242502
O73	O	1.229606	0.425114	0.000026
H74	H	1.270179	0.376169	-0.099254
H75	H	1.315885	0.357802	0.221865
H76	H	1.250751	-0.037867	0.000052
H77	H	1.296078	-0.180314	-0.099684
O78	O	1.689847	-0.215925	-0.150727
H79	H	1.711628	-0.155229	-0.056487
O80	O	1.272091	-0.407435	-0.132636
H81	H	1.321587	-0.381958	-0.233890
H82	H	1.295702	-0.181163	0.099917
O83	O	1.687304	-0.457519	-0.139013
H84	H	1.685718	-0.562594	-0.143202
H85	H	1.654437	0.015745	0.221856
H86	H	1.808000	-0.139407	0.639128
H87	H	1.654447	0.015731	0.778231
O88	O	1.139972	0.535559	0.659410
H89	H	1.154202	0.521192	0.778912
H90	H	1.315898	0.357793	0.778240
