data_functionalizedCrystal
_audit_creation_method	'MofGen! by Chris Wilmer'
_symmetry_space_group_name_H-M	'P1'
_symmetry_Int_Tables_number	1
_symmetry_cell_setting	triclinic
loop_
_symmetry_equiv_pos_as_xyz
  x,y,z
_cell_length_a	12.759395
_cell_length_b	13.897447
_cell_length_c	12.759387
_cell_angle_alpha	90.031440
_cell_angle_beta	90.019431
_cell_angle_gamma	90.019375
loop_
_atom_site_label
_atom_site_type_symbol
_atom_site_fract_x
_atom_site_fract_y
_atom_site_fract_z
Zn1	Zn	1.606233	-0.383968	0.593970
Zn2	Zn	1.606109	-0.545296	0.418289
Zn3	Zn	1.430532	-0.384016	0.418310
Zn4	Zn	1.430509	-0.545222	0.593931
O5	O	1.518346	-0.464625	0.506125
O6	O	1.753238	-0.405379	0.570673
O7	O	1.582776	-0.523952	0.271270
O8	O	1.453900	-0.249028	0.441637
O9	O	1.753147	-0.523906	0.441601
O10	O	1.582988	-0.248993	0.570694
O11	O	1.453780	-0.405461	0.271286
O12	O	1.283508	-0.405390	0.441600
O13	O	1.453862	-0.523781	0.740957
O14	O	1.283491	-0.523827	0.570627
O15	O	1.582966	-0.405308	0.740986
O16	O	1.582754	-0.680268	0.441563
O17	O	1.453741	-0.680214	0.570606
C18	C	1.245378	-0.464606	0.506112
C19	C	1.128602	-0.464621	0.506131
C20	C	1.128677	-0.341399	0.640752
C21	C	1.073854	-0.279799	0.708070
C22	C	0.964133	-0.279817	0.708083
C23	C	0.909232	-0.341438	0.640768
C24	C	0.964055	-0.403037	0.573450
C25	C	1.073779	-0.403016	0.573446
C26	C	0.963979	-0.526253	0.438826
C27	C	1.073700	-0.526243	0.438816
C28	C	0.909078	-0.587875	0.371511
C29	C	0.963901	-0.649480	0.304196
C30	C	1.073629	-0.649462	0.304187
C31	C	1.128523	-0.587842	0.371498
C32	C	1.518260	-0.715240	0.506101
C33	C	1.518320	-0.822454	0.506125
C34	C	1.518371	-0.909523	0.506149
C35	C	1.518444	-1.018756	0.506176
C36	C	1.792379	-0.464645	0.506139
C37	C	1.909156	-0.464654	0.506144
C38	C	1.518425	-0.464531	0.780159
C39	C	1.518459	-0.464491	0.896935
C40	C	1.518460	-0.213032	0.506172
C41	C	1.518509	-0.105819	0.506193
C42	C	1.518327	-0.464650	0.233158
C43	C	1.518497	-0.464419	0.116381
C44	C	1.652904	-0.341133	0.896985
C45	C	1.720141	-0.279440	0.951871
C46	C	1.720167	-0.279405	1.061593
C47	C	1.652946	-0.341067	1.116431
C48	C	1.585709	-0.402761	1.061545
C49	C	1.585692	-0.402791	0.951821
C50	C	1.451260	-0.526112	1.061496
C51	C	1.451238	-0.526153	0.951774
C52	C	1.384039	-0.587775	1.116334
C53	C	1.316805	-0.649474	1.061449
C54	C	1.316783	-0.649508	0.951720
C55	C	1.384001	-0.587847	0.896888
H56	H	0.919496	-0.229651	0.762894
H57	H	1.652900	-0.341165	0.807644
H58	H	0.819890	-0.341438	0.640777
C59	C	1.242869	-0.717296	1.121770
C60	C	1.242888	-0.717252	1.242460
C61	C	1.168951	-0.785076	1.302786
C62	C	1.094995	-0.852944	1.242421
C63	C	1.094973	-0.852990	1.121724
C64	C	1.168910	-0.785166	1.061399
H65	H	1.297637	-0.667010	1.287151
H66	H	1.168967	-0.785041	1.392134
H67	H	1.040262	-0.903151	1.287078
H68	H	1.040224	-0.903232	1.077033
H69	H	1.168893	-0.785201	0.972051
C70	C	0.903510	-0.717257	0.230157
C71	C	0.782820	-0.717271	0.230163
C72	C	0.722426	-0.785051	0.156124
C73	C	0.782721	-0.852816	0.082079
C74	C	0.903418	-0.852805	0.082070
C75	C	0.963813	-0.785025	0.156109
H76	H	0.738180	-0.667105	0.284978
H77	H	0.633078	-0.785059	0.156131
H78	H	0.738013	-0.902991	0.027271
H79	H	0.948058	-0.902971	0.027255
H80	H	1.053161	-0.785017	0.156102
H81	H	1.262019	-0.699735	0.907039
H82	H	1.774869	-0.229234	0.907209
H83	H	1.774910	-0.229163	1.106280
H84	H	1.218018	-0.341375	0.640743
H85	H	1.118567	-0.229627	0.762875
H86	H	1.652964	-0.341025	1.205772
H87	H	0.819737	-0.587882	0.371524
H88	H	1.384060	-0.587738	1.205675
H89	H	1.118259	-0.699620	0.249364
H90	H	1.217865	-0.587816	0.371492
H91	H	1.383994	-0.587872	0.807547
