data_functionalizedCrystal
_audit_creation_method	'MofGen! by Chris Wilmer'
_symmetry_space_group_name_H-M	'P1'
_symmetry_Int_Tables_number	1
_symmetry_cell_setting	triclinic
loop_
_symmetry_equiv_pos_as_xyz
  x,y,z
_cell_length_a	16.992695
_cell_length_b	16.109302
_cell_length_c	14.586319
_cell_angle_alpha	90.002225
_cell_angle_beta	90.006633
_cell_angle_gamma	87.065002
loop_
_atom_site_label
_atom_site_type_symbol
_atom_site_fract_x
_atom_site_fract_y
_atom_site_fract_z
O1	O	0.100790	1.109852	0.076283
O2	O	0.434123	1.443185	0.409616
O3	O	0.767456	1.776518	0.742949
O4	O	0.113331	0.868627	0.076276
O5	O	0.446665	1.201960	0.409609
O6	O	0.779998	1.535294	0.742942
O7	O	-0.007082	0.988272	0.076272
O8	O	0.326251	1.321606	0.409605
O9	O	0.659585	1.654939	0.742939
O10	O	0.221203	0.990206	0.076287
O11	O	0.554536	1.323540	0.409620
O12	O	0.887870	1.656873	0.742953
O13	O	-0.007090	0.988271	-0.076209
O14	O	0.326243	1.321605	0.257125
O15	O	0.659577	1.654938	0.590458
O16	O	0.113323	0.868626	-0.076205
O17	O	0.446657	1.201959	0.257128
O18	O	0.779990	1.535293	0.590462
O19	O	0.100782	1.109851	-0.076198
O20	O	0.434115	1.443184	0.257135
O21	O	0.767448	1.776518	0.590469
Cu22	Cu	0.107052	0.989238	-0.090124
Cu23	Cu	0.440385	1.322572	0.243209
Cu24	Cu	0.773718	1.655905	0.576542
Cu25	Cu	0.107061	0.989239	0.090202
Cu26	Cu	0.440395	1.322573	0.423535
Cu27	Cu	0.773728	1.655906	0.756869
O28	O	0.221195	0.990205	-0.076194
O29	O	0.554528	1.323539	0.257139
O30	O	0.887862	1.656872	0.590472
C31	C	0.112819	0.837618	0.000034
C32	C	0.446153	1.170951	0.333368
C33	C	0.779486	1.504284	0.666701
C34	C	0.111296	0.745221	0.000031
C35	C	0.444629	1.078554	0.333365
C36	C	0.777962	1.411887	0.666698
C37	C	0.107769	0.532644	-0.083077
C38	C	0.441102	0.865978	0.250256
C39	C	0.774436	1.199311	0.583590
C40	C	0.106329	0.445828	-0.083074
C41	C	0.439662	0.779161	0.250260
C42	C	0.772996	1.112495	0.583593
C43	C	0.106342	0.445840	0.083169
C44	C	0.439675	0.779173	0.416502
C45	C	0.773008	1.112506	0.749836
C46	C	0.107776	0.532655	0.083165
C47	C	0.441109	0.865988	0.416498
C48	C	0.774443	1.199321	0.749832
C49	C	0.108493	0.576054	0.000039
C50	C	0.441827	0.909388	0.333373
C51	C	0.775160	1.242721	0.666706
C52	C	0.105619	0.402423	0.000046
C53	C	0.438953	0.735757	0.333380
C54	C	0.772286	1.069090	0.666713
C55	C	0.104058	0.308293	0.000050
C56	C	0.437392	0.641627	0.333384
C57	C	0.770725	0.974960	0.666717
C58	C	0.110053	0.670190	0.000035
C59	C	0.443387	1.003524	0.333368
C60	C	0.776720	1.336857	0.666702
C61	C	-0.036298	0.985784	0.000032
C62	C	0.297035	1.319117	0.333365
C63	C	0.630369	1.652451	0.666698
C64	C	-0.123340	0.978360	0.000032
C65	C	0.209993	1.311694	0.333365
C66	C	0.543327	1.645027	0.666698
C67	C	-0.173599	1.049986	0.000033
C68	C	0.159735	1.383320	0.333366
C69	C	0.493068	1.716653	0.666699
C70	C	-0.255384	1.043006	0.000041
C71	C	0.077950	1.376340	0.333375
C72	C	0.411283	1.709673	0.666708
C73	C	-0.286908	0.964400	0.000042
C74	C	0.046425	1.297733	0.333375
C75	C	0.379758	1.631066	0.666709
C76	C	-0.236643	0.892768	0.000044
C77	C	0.096690	1.226102	0.333377
C78	C	0.430024	1.559435	0.666710
C79	C	-0.154860	0.899749	0.000042
C80	C	0.178473	1.233082	0.333375
C81	C	0.511807	1.566416	0.666708
C82	C	-0.530499	0.935467	0.000054
C83	C	-0.197165	1.268800	0.333387
C84	C	0.136168	1.602133	0.666721
C85	C	-0.612288	0.928491	0.000053
C86	C	-0.278955	1.261825	0.333386
C87	C	0.054378	1.595158	0.666720
C88	C	-0.631023	1.078730	0.000052
C89	C	-0.297690	1.412064	0.333386
C90	C	0.035644	1.745397	0.666719
C91	C	-0.549237	1.085704	0.000045
C92	C	-0.215904	1.419038	0.333378
C93	C	0.117429	1.752371	0.666712
C94	C	-0.498980	1.014073	0.000051
C95	C	-0.165646	1.347406	0.333385
C96	C	0.167687	1.680740	0.666718
N97	N	-0.370505	0.957263	0.000048
N98	N	-0.037172	1.290596	0.333381
N99	N	0.296161	1.623930	0.666715
N100	N	-0.415384	1.021210	0.000052
N101	N	-0.082051	1.354544	0.333385
N102	N	0.251283	1.687877	0.666719
C103	C	0.250411	0.992694	0.000048
C104	C	0.583744	1.326027	0.333382
C105	C	0.917077	1.659361	0.666715
C106	C	0.337453	1.000117	0.000054
C107	C	0.670786	1.333451	0.333387
C108	C	1.004120	1.666784	0.666721
C109	C	0.101294	1.140860	0.000045
C110	C	0.434627	1.474193	0.333379
C111	C	0.767960	1.807527	0.666712
C112	C	0.102817	1.233257	0.000054
C113	C	0.436150	1.566590	0.333388
C114	C	0.769484	1.899924	0.666721
N115	N	0.107062	0.989240	0.217034
N116	N	0.440395	1.322574	0.550367
N117	N	0.773729	1.655907	0.883700
C118	C	0.053847	1.042334	0.452039
C119	C	0.387181	1.375668	0.785372
C120	C	0.720514	1.709001	1.118705
C121	C	0.053846	1.042336	0.548020
C122	C	0.387179	1.375670	0.881353
C123	C	0.720512	1.709003	1.214686
C124	C	0.160268	0.936143	0.548032
C125	C	0.493601	1.269476	0.881366
C126	C	0.826935	1.602810	1.214699
C127	C	0.160273	0.936146	0.452053
C128	C	0.493606	1.269479	0.785386
C129	C	0.826939	1.602813	1.118720
C130	C	0.107058	0.989240	0.404058
C131	C	0.440391	1.322574	0.737392
C132	C	0.773725	1.655907	1.070725
C133	C	0.107052	0.989239	0.596019
C134	C	0.440385	1.322573	0.929353
C135	C	0.773718	1.655906	1.262686
C136	C	0.107050	0.989241	0.700086
C137	C	0.440384	1.322574	1.033420
C138	C	0.773717	1.655908	1.366753
C139	C	0.107060	0.989240	0.299985
C140	C	0.440393	1.322573	0.633318
C141	C	0.773727	1.655907	0.966651
N142	N	0.107047	0.989239	0.783044
N143	N	0.440381	1.322573	1.116377
N144	N	0.773714	1.655906	1.449711
H145	H	0.105739	0.410487	-0.150755
H146	H	0.439073	0.743821	0.182578
H147	H	0.772406	1.077154	0.515911
H148	H	-0.296301	1.101332	0.000040
H149	H	0.037032	1.434666	0.333373
H150	H	0.370365	1.767999	0.666707
H151	H	0.010517	1.085568	0.412964
H152	H	0.343851	1.418902	0.746297
H153	H	0.677184	1.752235	1.079630
Cl154	Cl	0.227161	0.869395	0.608373
Cl155	Cl	0.560494	1.202729	0.941706
Cl156	Cl	0.893827	1.536062	1.275039
Cl157	Cl	-0.013050	1.109088	0.608334
Cl158	Cl	0.320284	1.442421	0.941667
Cl159	Cl	0.653617	1.775755	1.275000
Cl160	Cl	-0.651917	0.829664	0.000049
Cl161	Cl	-0.318584	1.162997	0.333382
Cl162	Cl	0.014749	1.496331	0.666715
Cl163	Cl	0.105421	0.391276	0.187664
Cl164	Cl	0.438754	0.724609	0.520997
Cl165	Cl	0.772087	1.057942	0.854331
H166	H	0.203607	0.892910	0.412985
H167	H	0.536941	1.226244	0.746318
H168	H	0.870274	1.559577	1.079652
H169	H	0.108364	0.568000	0.150852
H170	H	0.441697	0.901334	0.484186
H171	H	0.775031	1.234667	0.817519
H172	H	-0.523577	1.149714	0.000044
H173	H	-0.190243	1.483047	0.333377
H174	H	0.143090	1.816381	0.666711
Cl175	Cl	0.108666	0.587201	-0.187577
Cl176	Cl	0.441999	0.920535	0.145756
Cl177	Cl	0.775333	1.253868	0.479089
H178	H	-0.147938	1.113997	0.000026
H179	H	0.185395	1.447330	0.333360
H180	H	0.518728	1.780663	0.666693
H181	H	-0.262317	0.828765	0.000050
H182	H	0.071016	1.162098	0.333383
H183	H	0.404350	1.495431	0.666717
Cl184	Cl	-0.694208	1.168775	0.000047
Cl185	Cl	-0.360875	1.502108	0.333380
Cl186	Cl	-0.027541	1.835442	0.666714
Cl187	Cl	-0.091677	0.809701	0.000044
Cl188	Cl	0.241656	1.143034	0.333377
Cl189	Cl	0.574990	1.476367	0.666710
H190	H	-0.489588	0.877139	0.000059
H191	H	-0.156255	1.210472	0.333392
H192	H	0.177079	1.543806	0.666725
