data_functionalizedCrystal
_audit_creation_method	'MofGen! by Chris Wilmer'
_symmetry_space_group_name_H-M	'P1'
_symmetry_Int_Tables_number	1
_symmetry_cell_setting	triclinic
loop_
_symmetry_equiv_pos_as_xyz
  x,y,z
_cell_length_a	6.817900
_cell_length_b	17.253796
_cell_length_c	9.514088
_cell_angle_alpha	94.845146
_cell_angle_beta	118.843545
_cell_angle_gamma	102.657420
loop_
_atom_site_label
_atom_site_type_symbol
_atom_site_fract_x
_atom_site_fract_y
_atom_site_fract_z
V1	V	-4.224326	-0.112765	-0.516192
O2	O	-4.201122	0.003951	-0.490670
O3	O	-4.181182	-0.222181	-0.527757
O4	O	-4.259038	-0.111674	-0.734433
O5	O	-4.122728	-0.107321	-0.282562
V6	V	-4.696503	-0.098728	-0.486414
O7	O	-4.510472	-0.143555	-0.581511
O8	O	-4.860555	-0.067937	-0.421094
O9	O	-4.516441	0.010689	-0.474849
O10	O	-4.837104	-0.215443	-0.511936
O11	O	-4.915499	-0.104171	-0.720043
O12	O	-4.438585	-0.099818	-0.268172
C13	C	-4.024773	-0.248835	-0.523509
C14	C	-4.071338	-0.338288	-0.534419
C15	C	-4.343975	-0.843098	-0.611775
C16	C	-4.300212	-0.759046	-0.601525
C17	C	-4.181327	-0.705108	-0.447689
C18	C	-4.106221	-0.735224	-0.304096
C19	C	-4.149999	-0.819275	-0.314349
C20	C	-4.040010	-0.452455	-0.401079
C21	C	-3.996231	-0.368400	-0.390837
C22	C	-4.190229	-0.392228	-0.688267
C23	C	-4.233986	-0.476278	-0.698506
C24	C	-4.158888	-0.506388	-0.554913
N25	N	-4.136586	-0.619193	-0.437207
N26	N	-4.203645	-0.592301	-0.565397
C27	C	-4.124083	-0.107871	-0.787143
C28	C	-4.233782	-0.107703	-0.965656
C29	C	-4.336191	0.037338	-0.479093
C30	C	-4.268867	0.126791	-0.468193
C31	C	-4.236879	-0.103624	-0.215454
C32	C	-4.106418	-0.103788	-0.036939
H33	H	-4.361356	-0.734534	-0.718444
N34	N	-3.958829	-0.484888	-0.246165
H35	H	-3.846556	-0.516417	-0.237991
H36	H	-4.098775	-0.521995	-0.249600
H37	H	-4.330794	-0.520191	-0.823775
H38	H	-4.440765	-0.887009	-0.737045
N39	N	-4.271216	-0.359752	-0.843134
H40	H	-4.225446	-0.298323	-0.813303
H41	H	-4.447317	-0.382441	-0.915697
H42	H	-3.913459	-0.100571	-0.961402
N43	N	-4.489405	-0.111976	-1.065711
H44	H	-4.534174	-0.111246	-1.183330
H45	H	-4.516150	-0.063607	-1.017812
H46	H	-4.009433	-0.691301	-0.178840
N47	N	-3.868038	-0.310220	-0.224909
H48	H	-3.827124	-0.342048	-0.135498
H49	H	-3.971776	-0.277631	-0.220043
N50	N	-4.069006	-0.851757	-0.159487
H51	H	-3.987048	-0.804835	-0.060475
H52	H	-3.956856	-0.883317	-0.151430
