data_functionalizedCrystal
_audit_creation_method	'MofGen! by Chris Wilmer'
_symmetry_space_group_name_H-M	'P1'
_symmetry_Int_Tables_number	1
_symmetry_cell_setting	triclinic
loop_
_symmetry_equiv_pos_as_xyz
  x,y,z
_cell_length_a	18.101398
_cell_length_b	25.639239
_cell_length_c	18.101389
_cell_angle_alpha	89.978997
_cell_angle_beta	89.975673
_cell_angle_gamma	90.034550
loop_
_atom_site_label
_atom_site_type_symbol
_atom_site_fract_x
_atom_site_fract_y
_atom_site_fract_z
Zn1	Zn	1.132079	-0.208272	-0.418825
Zn2	Zn	1.465412	0.125062	-0.085492
Zn3	Zn	1.798746	0.458395	0.247841
Zn4	Zn	1.131957	-0.295693	-0.294978
Zn5	Zn	1.465290	0.037640	0.038355
Zn6	Zn	1.798624	0.370974	0.371688
Zn7	Zn	1.008238	-0.208266	-0.294987
Zn8	Zn	1.341571	0.125067	0.038347
Zn9	Zn	1.674904	0.458400	0.371680
Zn10	Zn	1.008171	-0.295671	-0.418767
Zn11	Zn	1.341504	0.037663	-0.085434
Zn12	Zn	1.674838	0.370996	0.247900
O13	O	1.070111	-0.251975	-0.356889
O14	O	1.403444	0.081358	-0.023556
O15	O	1.736778	0.414691	0.309777
O16	O	1.235696	-0.219880	-0.402418
O17	O	1.569029	0.113453	-0.069085
O18	O	1.902362	0.446787	0.264249
O19	O	1.115522	-0.284103	-0.191346
O20	O	1.448856	0.049231	0.141987
O21	O	1.782189	0.382564	0.475320
O22	O	1.024745	-0.135102	-0.311442
O23	O	1.358078	0.198232	0.021891
O24	O	1.691411	0.531565	0.355225
O25	O	1.235606	-0.284108	-0.311428
O26	O	1.568939	0.049225	0.021905
O27	O	1.902273	0.382559	0.355239
O28	O	1.115730	-0.135106	-0.402426
O29	O	1.449063	0.198228	-0.069093
O30	O	1.782397	0.531561	0.264241
O31	O	1.024626	-0.219871	-0.191353
O32	O	1.357960	0.113463	0.141981
O33	O	1.691293	0.446796	0.475314
O34	O	0.904596	-0.219849	-0.311385
O35	O	1.237929	0.113484	0.021948
O36	O	1.571263	0.446818	0.355281
O37	O	1.024630	-0.284070	-0.522408
O38	O	1.357964	0.049263	-0.189074
O39	O	1.691297	0.382597	0.144259
O40	O	0.904547	-0.284065	-0.402326
O41	O	1.237880	0.049269	-0.068993
O42	O	1.571214	0.382602	0.264341
O43	O	1.115665	-0.219858	-0.522451
O44	O	1.448999	0.113475	-0.189117
O45	O	1.782332	0.446808	0.144216
O46	O	1.115458	-0.368855	-0.311371
O47	O	1.448791	-0.035522	0.021962
O48	O	1.782124	0.297811	0.355296
O49	O	1.024512	-0.368839	-0.402318
O50	O	1.357846	-0.035505	-0.068985
O51	O	1.691179	0.297828	0.264349
C52	C	0.877701	-0.251954	-0.356851
C53	C	1.211034	0.081379	-0.023517
C54	C	1.544367	0.414713	0.309816
C55	C	0.795387	-0.251958	-0.356852
C56	C	1.128720	0.081376	-0.023518
C57	C	1.462053	0.414709	0.309815
C58	C	1.069985	-0.387818	-0.356853
C59	C	1.403318	-0.054485	-0.023520
C60	C	1.736651	0.278849	0.309813
C61	C	1.069998	-0.445932	-0.356863
C62	C	1.403332	-0.112599	-0.023530
C63	C	1.736665	0.220735	0.309804
C64	C	0.496296	-0.251990	-0.356914
C65	C	0.829629	0.081343	-0.023581
C66	C	1.162962	0.414676	0.309753
C67	C	0.527627	-0.211386	-0.299976
C68	C	0.860960	0.121948	0.033358
C69	C	1.194294	0.455281	0.366691
C70	C	0.613245	-0.211495	-0.299733
C71	C	0.946578	0.121839	0.033601
C72	C	1.279912	0.455172	0.366934
C73	C	0.644678	-0.251974	-0.356883
C74	C	0.978011	0.081360	-0.023550
C75	C	1.311345	0.414693	0.309784
C76	C	0.613549	-0.307048	-0.335555
C77	C	0.946882	0.026286	-0.002222
C78	C	1.280215	0.359619	0.331112
C79	C	0.527904	-0.306822	-0.335159
C80	C	0.861237	0.026511	-0.001826
C81	C	1.194570	0.359845	0.331508
C82	C	0.527913	-0.238000	-0.435314
C83	C	0.861246	0.095333	-0.101981
C84	C	1.194580	0.428667	0.231352
C85	C	0.613564	-0.236773	-0.434886
C86	C	0.946897	0.096560	-0.101553
C87	C	1.280231	0.429893	0.231780
C88	C	0.728538	-0.251968	-0.356867
C89	C	1.061871	0.081366	-0.023533
C90	C	1.395204	0.414699	0.309800
C91	C	0.412436	-0.252000	-0.356928
C92	C	0.745769	0.081333	-0.023595
C93	C	1.079103	0.414667	0.309738
C94	C	1.022747	-0.697129	-0.404230
C95	C	1.356080	-0.363796	-0.070897
C96	C	1.689414	-0.030463	0.262436
C97	C	1.022720	-0.642525	-0.404222
C98	C	1.356053	-0.309192	-0.070888
C99	C	1.689386	0.024142	0.262445
O100	O	0.982423	-0.614292	-0.444470
O101	O	1.315757	-0.280958	-0.111137
O102	O	1.649090	0.052375	0.222196
N103	N	1.070091	-0.615206	-0.356902
N104	N	1.403425	-0.281873	-0.023568
N105	N	1.736758	0.051461	0.309765
C106	C	1.117499	-0.642494	-0.309593
C107	C	1.450832	-0.309161	0.023741
C108	C	1.784166	0.024173	0.357074
O109	O	1.157790	-0.614243	-0.269343
O110	O	1.491124	-0.280909	0.063990
O111	O	1.824457	0.052424	0.397324
C112	C	1.117530	-0.697097	-0.309605
C113	C	1.450863	-0.363764	0.023728
C114	C	1.784196	-0.030430	0.357061
C115	C	1.070149	-0.724413	-0.356923
C116	C	1.403483	-0.391080	-0.023590
C117	C	1.736816	-0.057747	0.309743
C118	C	0.975371	-0.724446	-0.451545
C119	C	1.308705	-0.391112	-0.118211
C120	C	1.642038	-0.057779	0.215122
C121	C	0.975398	-0.779046	-0.451552
C122	C	1.308731	-0.445713	-0.118219
C123	C	1.642065	-0.112380	0.215114
C124	C	1.022800	-0.806330	-0.404245
C125	C	1.356134	-0.472997	-0.070912
C126	C	1.689467	-0.139664	0.262422
C127	C	1.070176	-0.779014	-0.356931
C128	C	1.403509	-0.445681	-0.023597
C129	C	1.736843	-0.112347	0.309736
C130	C	1.164940	-0.724384	-0.262301
C131	C	1.498274	-0.391051	0.071033
C132	C	1.831607	-0.057717	0.404366
C133	C	1.164967	-0.778991	-0.262318
C134	C	1.498301	-0.445658	0.071015
C135	C	1.831634	-0.112324	0.404349
C136	C	1.117587	-0.806307	-0.309636
C137	C	1.450920	-0.472974	0.023698
C138	C	1.784254	-0.139641	0.357031
C139	C	1.117605	-0.860899	-0.309631
C140	C	1.450938	-0.527565	0.023702
C141	C	1.784272	-0.194232	0.357036
N142	N	1.070233	-0.888218	-0.356951
N143	N	1.403567	-0.554885	-0.023618
N144	N	1.736900	-0.221551	0.309716
C145	C	1.022831	-0.860934	-0.404258
C146	C	1.356164	-0.527600	-0.070925
C147	C	1.689498	-0.194267	0.262409
C148	C	1.117432	-0.527823	-0.309570
C149	C	1.450765	-0.194490	0.023763
C150	C	1.784099	0.138843	0.357097
C151	C	1.117398	-0.473221	-0.309553
C152	C	1.450732	-0.139888	0.023781
C153	C	1.784065	0.193446	0.357114
C154	C	1.022620	-0.473256	-0.404183
C155	C	1.355953	-0.139923	-0.070850
C156	C	1.689286	0.193411	0.262484
C157	C	1.022650	-0.527859	-0.404196
C158	C	1.355984	-0.194526	-0.070863
C159	C	1.689317	0.138808	0.262471
C160	C	1.070060	-0.555142	-0.356890
C161	C	1.403394	-0.221809	-0.023557
C162	C	1.736727	0.111524	0.309777
C163	C	1.022890	-0.975599	-0.404270
C164	C	1.356223	-0.642265	-0.070936
C165	C	1.689557	-0.308932	0.262397
C166	C	1.022919	-1.030204	-0.404271
C167	C	1.356252	-0.696871	-0.070937
C168	C	1.689585	-0.363537	0.262396
C169	C	1.117700	-1.030164	-0.309643
C170	C	1.451033	-0.696831	0.023690
C171	C	1.784366	-0.363498	0.357023
C172	C	1.117669	-0.975564	-0.309639
C173	C	1.451002	-0.642230	0.023694
C174	C	1.784335	-0.308897	0.357027
C175	C	1.070261	-0.948282	-0.356958
C176	C	1.403595	-0.614949	-0.023625
C177	C	1.736928	-0.281616	0.309708
O178	O	1.157883	-0.889167	-0.269405
O179	O	1.491216	-0.555833	0.063928
O180	O	1.824550	-0.222500	0.397262
O181	O	0.982553	-0.889191	-0.444508
O182	O	1.315887	-0.555858	-0.111174
O183	O	1.649220	-0.222525	0.222159
C184	C	1.263273	-0.251997	-0.356928
C185	C	1.596606	0.081336	-0.023595
C186	C	1.929940	0.414670	0.309738
C187	C	1.345587	-0.252006	-0.356945
C188	C	1.678920	0.081327	-0.023612
C189	C	2.012254	0.414660	0.309721
C190	C	1.070154	-0.251962	-0.550051
C191	C	1.403487	0.081371	-0.216718
C192	C	1.736821	0.414705	0.116615
C193	C	1.070172	-0.251957	-0.632365
C194	C	1.403506	0.081377	-0.299032
C195	C	1.736839	0.414710	0.034301
C196	C	1.070258	-0.115602	-0.356941
C197	C	1.403592	0.217731	-0.023608
C198	C	1.736925	0.551064	0.309725
C199	C	1.070321	-0.057488	-0.356964
C200	C	1.403654	0.275845	-0.023630
C201	C	1.736988	0.609178	0.309703
C202	C	1.070215	-0.251859	-0.931457
C203	C	1.403549	0.081475	-0.598123
C204	C	1.736882	0.414808	-0.264790
C205	C	1.012742	-0.292130	-0.900104
C206	C	1.346075	0.041203	-0.566771
C207	C	1.679408	0.374536	-0.233438
C208	C	1.012897	-0.292317	-0.814486
C209	C	1.346230	0.041016	-0.481153
C210	C	1.679564	0.374350	-0.147819
C211	C	1.070193	-0.251907	-0.783074
C212	C	1.403527	0.081426	-0.449741
C213	C	1.736860	0.414759	-0.116407
C214	C	1.148216	-0.266868	-0.814179
C215	C	1.481549	0.066466	-0.480845
C216	C	1.814882	0.399799	-0.147512
C217	C	1.147895	-0.267132	-0.899824
C218	C	1.481229	0.066201	-0.566490
C219	C	1.814562	0.399535	-0.233157
C220	C	1.050345	-0.196537	-0.899884
C221	C	1.383678	0.136797	-0.566551
C222	C	1.717012	0.470130	-0.233218
C223	C	1.048609	-0.196856	-0.814233
C224	C	1.381942	0.136477	-0.480900
C225	C	1.715276	0.469811	-0.147567
C226	C	1.070186	-0.251934	-0.699214
C227	C	1.403519	0.081400	-0.365881
C228	C	1.736852	0.414733	-0.032548
C229	C	1.070228	-0.251833	-1.015316
C230	C	1.403562	0.081500	-0.681983
C231	C	1.736895	0.414833	-0.348649
C232	C	1.070111	-0.251951	-0.164479
C233	C	1.403444	0.081383	0.168855
C234	C	1.736778	0.414716	0.502188
C235	C	1.070236	-0.251809	-0.082165
C236	C	1.403570	0.081524	0.251168
C237	C	1.736903	0.414857	0.584502
H238	H	0.634294	-0.170655	-0.313102
H239	H	0.967627	0.162679	0.020232
H240	H	1.300961	0.496012	0.353565
C241	C	1.171367	-0.320923	-0.785214
C242	C	1.504701	0.012410	-0.451880
C243	C	1.838034	0.345743	-0.118547
N244	N	1.188801	-0.361640	-0.763399
N245	N	1.522134	-0.028306	-0.430066
N246	N	1.855467	0.305027	-0.096732
H247	H	0.634964	-0.264193	-0.479583
H248	H	0.968297	0.069140	-0.146250
H249	H	1.301630	0.402473	0.187083
C250	C	0.499899	-0.349078	-0.388736
C251	C	0.833232	-0.015745	-0.055403
C252	C	1.166565	0.317588	0.277931
N253	N	0.478808	-0.380908	-0.429087
N254	N	0.812142	-0.047574	-0.095753
N255	N	1.145475	0.285759	0.237580
H256	H	1.164742	-0.307573	-0.919804
H257	H	1.498075	0.025760	-0.586471
H258	H	1.831408	0.359094	-0.253138
H259	H	1.156291	-1.052389	-0.271125
H260	H	1.489624	-0.719056	0.062209
H261	H	1.822958	-0.385722	0.395542
C262	C	0.970796	-1.060249	-0.456327
C263	C	1.304129	-0.726915	-0.122994
C264	C	1.637463	-0.393582	0.210339
N265	N	0.931539	-1.082877	-0.495537
N266	N	1.264873	-0.749543	-0.162204
N267	N	1.598206	-0.416210	0.171130
H268	H	1.155971	-0.450984	-0.271014
H269	H	1.489305	-0.117650	0.062319
H270	H	1.822638	0.215683	0.395653
H271	H	1.156038	-0.550034	-0.271041
H272	H	1.489371	-0.216701	0.062292
H273	H	1.822704	0.116633	0.395625
C274	C	0.641049	-0.182018	-0.456610
C275	C	0.974383	0.151315	-0.123276
C276	C	1.307716	0.484649	0.210057
N277	N	0.661753	-0.140775	-0.472968
N278	N	0.995086	0.192558	-0.139635
N279	N	1.328420	0.525892	0.193699
H280	H	0.507890	-0.318688	-0.277845
H281	H	0.841223	0.014646	0.055489
H282	H	1.174556	0.347979	0.388822
H283	H	1.203578	-0.801202	-0.223797
H284	H	1.536911	-0.467869	0.109536
H285	H	1.870244	-0.134536	0.442870
H286	H	1.203522	-0.702151	-0.223771
H287	H	1.536855	-0.368817	0.109563
H288	H	1.870189	-0.035484	0.442896
H289	H	0.507650	-0.267575	-0.477739
H290	H	0.840984	0.065758	-0.144405
H291	H	1.174317	0.399092	0.188928
C292	C	1.169792	-0.945515	-0.257591
C293	C	1.503125	-0.612182	0.075742
C294	C	1.836459	-0.278848	0.409076
N295	N	1.209060	-0.922886	-0.218395
N296	N	1.542394	-0.589553	0.114939
N297	N	1.875727	-0.256219	0.448272
H298	H	1.087417	-0.165258	-0.792851
H299	H	1.420750	0.168075	-0.459518
H300	H	1.754083	0.501408	-0.126185
C301	C	0.934735	-0.279667	-0.786071
C302	C	1.268068	0.053666	-0.452737
C303	C	1.601401	0.386999	-0.119404
N304	N	0.875859	-0.270141	-0.764672
N305	N	1.209192	0.063192	-0.431339
N306	N	1.542526	0.396525	-0.098006
H307	H	0.506349	-0.198540	-0.454705
H308	H	0.839682	0.134794	-0.121372
H309	H	1.173016	0.468127	0.211962
H310	H	0.634961	-0.319119	-0.278859
H311	H	0.968294	0.014214	0.054474
H312	H	1.301628	0.347547	0.387807
H313	H	0.507065	-0.170421	-0.313198
H314	H	0.840398	0.162912	0.020136
H315	H	1.173732	0.496246	0.353469
C316	C	0.934340	-0.279609	-0.927908
C317	C	1.267674	0.053724	-0.594575
C318	C	1.601007	0.387057	-0.261242
N319	N	0.875287	-0.270178	-0.948856
N320	N	1.208620	0.063156	-0.615523
N321	N	1.541953	0.396489	-0.282189
C322	C	1.106899	-0.156002	-0.927276
C323	C	1.440233	0.177331	-0.593943
C324	C	1.773566	0.510664	-0.260609
N325	N	1.149499	-0.125476	-0.947910
N326	N	1.482832	0.207857	-0.614577
N327	N	1.816166	0.541191	-0.281243
C328	C	0.641061	-0.349016	-0.389818
C329	C	0.974394	-0.015683	-0.056485
C330	C	1.307728	0.317650	0.276848
N331	N	0.661788	-0.380627	-0.430688
N332	N	0.995121	-0.047294	-0.097355
N333	N	1.328454	0.286040	0.235978
C334	C	0.970740	-0.945597	-0.456323
C335	C	1.304073	-0.612264	-0.122990
C336	C	1.637406	-0.278930	0.210344
N337	N	0.931457	-0.923000	-0.495527
N338	N	1.264791	-0.589667	-0.162194
N339	N	1.598124	-0.256333	0.171139
C340	C	0.974816	-0.178127	-0.929039
C341	C	1.308149	0.155207	-0.595706
C342	C	1.641483	0.488540	-0.262372
N343	N	0.917924	-0.164267	-0.950997
N344	N	1.251257	0.169067	-0.617664
N345	N	1.584590	0.502400	-0.284331
C346	C	1.207717	-0.229236	-0.927847
C347	C	1.541050	0.104098	-0.594514
C348	C	1.874383	0.437431	-0.261181
N349	N	1.252778	-0.200696	-0.948952
N350	N	1.586112	0.132637	-0.615618
N351	N	1.919445	0.465971	-0.282285
H352	H	0.936815	-0.801282	-0.490082
H353	H	1.270148	-0.467949	-0.156749
H354	H	1.603482	-0.134616	0.176585
H355	H	0.936771	-0.702236	-0.490071
H356	H	1.270104	-0.368902	-0.156738
H357	H	1.603437	-0.035569	0.176595
H358	H	1.192187	-0.238457	-0.793835
H359	H	1.525521	0.094876	-0.460501
H360	H	1.858854	0.428209	-0.127168
H361	H	0.984073	-0.550097	-0.442730
H362	H	1.317406	-0.216763	-0.109397
H363	H	1.650740	0.116570	0.223936
H364	H	0.991192	-0.185574	-0.793902
H365	H	1.324525	0.147759	-0.460569
H366	H	1.657858	0.481092	-0.127236
H367	H	0.506076	-0.220529	-0.242220
H368	H	0.839409	0.112804	0.091114
H369	H	1.172742	0.446138	0.424447
H370	H	0.984023	-0.451031	-0.442704
H371	H	1.317356	-0.117698	-0.109371
H372	H	1.650690	0.215635	0.223962
C373	C	0.640878	-0.223991	-0.221251
C374	C	0.974211	0.109342	0.112083
C375	C	1.307544	0.442675	0.445416
N376	N	0.661690	-0.233406	-0.162135
N377	N	0.995023	0.099927	0.171198
N378	N	1.328356	0.433261	0.504531
H379	H	1.025729	-0.332886	-0.921627
H380	H	1.359062	0.000447	-0.588294
H381	H	1.692396	0.333780	-0.254961
H382	H	1.026014	-0.333323	-0.794001
H383	H	1.359348	0.000010	-0.460668
H384	H	1.692681	0.333343	-0.127334
