data_functionalizedCrystal
_audit_creation_method	'MofGen! by Chris Wilmer'
_symmetry_space_group_name_H-M	'P1'
_symmetry_Int_Tables_number	1
_symmetry_cell_setting	triclinic
loop_
_symmetry_equiv_pos_as_xyz
  x,y,z
_cell_length_a	14.044220
_cell_length_b	14.044190
_cell_length_c	9.482900
_cell_angle_alpha	100.185237
_cell_angle_beta	79.855987
_cell_angle_gamma	93.190328
loop_
_atom_site_label
_atom_site_type_symbol
_atom_site_fract_x
_atom_site_fract_y
_atom_site_fract_z
O1	O	1.290775	0.216493	-0.120766
O2	O	1.014107	0.208183	-0.120802
O3	O	1.148282	0.074005	-0.120756
O4	O	1.156601	0.350671	-0.120812
O5	O	1.121038	0.101379	0.121027
O6	O	0.986864	0.235557	0.120981
O7	O	1.263531	0.243867	0.121017
Cu8	Cu	1.122710	0.242211	0.143076
Cu9	Cu	1.154929	0.209838	-0.142861
O10	O	1.129357	0.378045	0.120971
C11	C	0.964864	0.218234	0.000085
C12	C	0.858722	0.207388	0.000073
C13	C	0.664381	0.187565	0.000106
C14	C	0.613254	0.264479	0.000096
C15	C	0.505115	0.253449	0.000115
C16	C	0.772529	0.198593	0.000087
C17	C	1.131023	0.052070	0.000139
C18	C	1.120174	-0.054072	0.000150
C19	C	1.177280	-0.299536	0.000101
C20	C	1.100364	-0.248410	0.000101
C21	C	1.111389	-0.140270	0.000129
C22	C	1.166257	-0.407686	0.000073
C23	C	1.312775	0.233815	0.000126
C24	C	1.418918	0.244660	0.000129
C25	C	1.146616	0.399979	0.000072
C26	C	1.157466	0.506120	0.000051
N27	N	1.100056	0.264981	0.344188
N28	N	1.177590	0.187062	-0.343973
C29	C	1.148240	0.216549	0.416404
C30	C	1.129399	0.235501	0.583815
H31	H	0.650697	0.338610	0.000074
C32	C	0.613806	0.087425	0.000117
H33	H	0.546708	0.093055	0.000111
H34	H	0.622254	0.063258	0.084429
H35	H	0.641241	0.044184	-0.084212
H36	H	1.026234	-0.285856	0.000083
C37	C	1.054808	0.310462	0.667697
H38	H	1.027012	0.338381	0.600680
H39	H	1.085960	0.359720	0.727074
H40	H	1.005416	0.279516	0.727072
C41	C	1.277415	-0.248954	0.000147
H42	H	1.271779	-0.181853	0.000177
H43	H	1.320630	-0.276419	-0.084159
H44	H	1.301604	-0.257364	0.084482
C45	C	1.222810	0.141576	0.332509
H46	H	1.225695	0.138677	0.230996
H47	H	1.204093	0.079814	0.357398
H48	H	1.284659	0.159998	0.357364
H49	H	1.232790	0.131559	0.593921
C50	C	1.025468	0.339938	0.428076
H51	H	0.997672	0.367857	0.361059
H52	H	1.056621	0.389196	0.487453
H53	H	0.976076	0.308992	0.487451
