data_functionalizedCrystal
_audit_creation_method	'MofGen! by Chris Wilmer'
_symmetry_space_group_name_H-M	'P1'
_symmetry_Int_Tables_number	1
_symmetry_cell_setting	triclinic
loop_
_symmetry_equiv_pos_as_xyz
  x,y,z
_cell_length_a	23.532361
_cell_length_b	23.532407
_cell_length_c	22.010155
_cell_angle_alpha	90.002880
_cell_angle_beta	90.010098
_cell_angle_gamma	82.839173
loop_
_atom_site_label
_atom_site_type_symbol
_atom_site_fract_x
_atom_site_fract_y
_atom_site_fract_z
O1	O	0.755286	0.069002	0.050470
O2	O	1.005286	0.319002	0.300470
O3	O	1.255286	0.569002	0.550470
O4	O	1.505286	0.819002	0.800470
O5	O	0.589419	0.079033	0.050486
O6	O	0.839419	0.329033	0.300486
O7	O	1.089419	0.579033	0.550486
O8	O	1.339419	0.829033	0.800486
O9	O	0.677354	-0.008915	0.050466
O10	O	0.927354	0.241085	0.300466
O11	O	1.177354	0.491085	0.550466
O12	O	1.427354	0.741085	0.800466
O13	O	0.667350	0.156950	0.050490
O14	O	0.917350	0.406950	0.300490
O15	O	1.167350	0.656950	0.550490
O16	O	1.417350	0.906950	0.800490
O17	O	0.677328	-0.008905	-0.050584
O18	O	0.927328	0.241095	0.199416
O19	O	1.177328	0.491095	0.449416
O20	O	1.427328	0.741095	0.699416
O21	O	0.589393	0.079043	-0.050565
O22	O	0.839393	0.329043	0.199435
O23	O	1.089393	0.579043	0.449435
O24	O	1.339393	0.829043	0.699435
O25	O	0.755260	0.069012	-0.050580
O26	O	1.005260	0.319012	0.199420
O27	O	1.255260	0.569012	0.449420
O28	O	1.505260	0.819012	0.699420
Cu29	Cu	0.672324	0.074029	-0.059799
Cu30	Cu	0.922324	0.324029	0.190201
Cu31	Cu	1.172324	0.574029	0.440201
Cu32	Cu	1.422324	0.824029	0.690201
Cu33	Cu	0.672354	0.074017	0.059705
Cu34	Cu	0.922354	0.324017	0.309705
Cu35	Cu	1.172354	0.574017	0.559705
Cu36	Cu	1.422354	0.824017	0.809705
O37	O	0.667325	0.156960	-0.050561
O38	O	0.917325	0.406960	0.199439
O39	O	1.167325	0.656960	0.449439
O40	O	1.417325	0.906960	0.699439
C41	C	0.568189	0.078787	-0.000038
C42	C	0.818189	0.328787	0.249962
C43	C	1.068189	0.578787	0.499962
C44	C	1.318189	0.828787	0.749962
C45	C	0.504971	0.078032	-0.000032
C46	C	0.754971	0.328032	0.249968
C47	C	1.004971	0.578032	0.499968
C48	C	1.254971	0.828032	0.749968
C49	C	0.231741	0.074723	0.055046
C50	C	0.481741	0.324723	0.305046
C51	C	0.731741	0.574723	0.555046
C52	C	0.981741	0.824723	0.805046
C53	C	0.291141	0.075438	0.055048
C54	C	0.541141	0.325438	0.305048
C55	C	0.791141	0.575438	0.555048
C56	C	1.041141	0.825438	0.805048
O57	O	0.321878	0.075783	0.101892
O58	O	0.571878	0.325783	0.351892
O59	O	0.821878	0.575783	0.601892
O60	O	1.071878	0.825783	0.851892
N61	N	0.320832	0.075804	-0.000035
N62	N	0.570832	0.325804	0.249965
N63	N	0.820832	0.575804	0.499965
N64	N	1.070832	0.825804	0.749965
C65	C	0.291122	0.075450	-0.055123
C66	C	0.541122	0.325450	0.194877
C67	C	0.791122	0.575450	0.444877
C68	C	1.041122	0.825450	0.694877
O69	O	0.321832	0.075827	-0.101975
O70	O	0.571832	0.325827	0.148025
O71	O	0.821832	0.575827	0.398025
O72	O	1.071832	0.825827	0.648025
C73	C	0.231724	0.074731	-0.055124
C74	C	0.481724	0.324731	0.194876
C75	C	0.731724	0.574731	0.444876
C76	C	0.981724	0.824731	0.694876
C77	C	0.202035	0.074370	-0.000037
C78	C	0.452035	0.324370	0.249963
C79	C	0.702035	0.574370	0.499963
C80	C	0.952035	0.824370	0.749963
C81	C	0.202051	0.074361	0.110128
C82	C	0.452051	0.324361	0.360128
C83	C	0.702051	0.574361	0.610128
C84	C	0.952051	0.824361	0.860128
C85	C	0.142656	0.073647	0.110126
C86	C	0.392656	0.323647	0.360126
C87	C	0.642656	0.573647	0.610126
C88	C	0.892656	0.823647	0.860126
C89	C	0.112949	0.073295	0.055043
C90	C	0.362949	0.323295	0.305043
C91	C	0.612949	0.573295	0.555043
C92	C	0.862949	0.823295	0.805043
C93	C	0.142639	0.073657	-0.000039
C94	C	0.392639	0.323657	0.249961
C95	C	0.642639	0.573657	0.499961
C96	C	0.892639	0.823657	0.749961
C97	C	0.202015	0.074373	-0.110211
C98	C	0.452015	0.324373	0.139789
C99	C	0.702015	0.574373	0.389789
C100	C	0.952015	0.824373	0.639789
C101	C	0.142613	0.073654	-0.110207
C102	C	0.392613	0.323654	0.139793
C103	C	0.642613	0.573654	0.389793
C104	C	0.892613	0.823654	0.639793
C105	C	0.112924	0.073293	-0.055121
C106	C	0.362924	0.323293	0.194879
C107	C	0.612924	0.573293	0.444879
C108	C	0.862924	0.823293	0.694879
C109	C	0.053537	0.072590	-0.055125
C110	C	0.303537	0.322590	0.194875
C111	C	0.553537	0.572590	0.444875
C112	C	0.803537	0.822590	0.694875
N113	N	0.023845	0.072224	-0.000042
N114	N	0.273845	0.322224	0.249958
N115	N	0.523845	0.572224	0.499958
N116	N	0.773845	0.822224	0.749958
C117	C	0.053551	0.072576	0.055042
C118	C	0.303551	0.322576	0.305042
C119	C	0.553551	0.572576	0.555042
C120	C	0.803551	0.822576	0.805042
C121	C	0.415862	0.076959	-0.055117
C122	C	0.665862	0.326959	0.194883
C123	C	0.915862	0.576959	0.444883
C124	C	1.165862	0.826959	0.694883
C125	C	0.475259	0.077682	-0.055116
C126	C	0.725259	0.327682	0.194884
C127	C	0.975259	0.577682	0.444884
C128	C	1.225259	0.827682	0.694884
C129	C	0.475273	0.077668	0.055055
C130	C	0.725273	0.327668	0.305055
C131	C	0.975273	0.577668	0.555055
C132	C	1.225273	0.827668	0.805055
C133	C	0.415875	0.076949	0.055054
C134	C	0.665875	0.326949	0.305054
C135	C	0.915875	0.576949	0.555054
C136	C	1.165875	0.826949	0.805054
C137	C	0.386171	0.076593	-0.000034
C138	C	0.636171	0.326593	0.249966
C139	C	0.886171	0.576593	0.499966
C140	C	1.136171	0.826593	0.749966
C141	C	-0.071184	0.071077	0.055034
C142	C	0.178816	0.321077	0.305034
C143	C	0.428816	0.571077	0.555034
C144	C	0.678816	0.821077	0.805034
C145	C	-0.130586	0.070366	0.055027
C146	C	0.119414	0.320366	0.305027
C147	C	0.369414	0.570366	0.555027
C148	C	0.619414	0.820366	0.805027
C149	C	-0.130595	0.070377	-0.055144
C150	C	0.119405	0.320377	0.194856
C151	C	0.369405	0.570377	0.444856
C152	C	0.619405	0.820377	0.694856
C153	C	-0.071199	0.071091	-0.055137
C154	C	0.178801	0.321091	0.194863
C155	C	0.428801	0.571091	0.444863
C156	C	0.678801	0.821091	0.694863
C157	C	-0.041495	0.071440	-0.000044
C158	C	0.208505	0.321440	0.249956
C159	C	0.458505	0.571440	0.499956
C160	C	0.708505	0.821440	0.749956
O161	O	0.022762	0.072242	-0.101945
O162	O	0.272762	0.322242	0.148055
O163	O	0.522762	0.572242	0.398055
O164	O	0.772762	0.822242	0.648055
O165	O	0.022835	0.072191	0.101886
O166	O	0.272835	0.322191	0.351886
O167	O	0.522835	0.572191	0.601886
O168	O	0.772835	0.822191	0.851886
C169	C	0.677086	-0.030126	-0.000060
C170	C	0.927086	0.219874	0.249940
C171	C	1.177086	0.469874	0.499940
C172	C	1.427086	0.719874	0.749940
C173	C	0.676320	-0.093343	-0.000065
C174	C	0.926320	0.156657	0.249935
C175	C	1.176320	0.406657	0.499935
C176	C	1.426320	0.656657	0.749935
C177	C	0.723555	-0.492454	-0.000036
C178	C	0.973555	-0.242454	0.249964
C179	C	1.223555	0.007546	0.499964
C180	C	1.473555	0.257546	0.749964
C181	C	0.722844	-0.551854	-0.000031
C182	C	0.972844	-0.301854	0.249969
C183	C	1.222844	-0.051854	0.499969
C184	C	1.472844	0.198146	0.749969
O185	O	0.766630	-0.588606	-0.000013
O186	O	1.016630	-0.338606	0.249987
O187	O	1.266630	-0.088606	0.499987
O188	O	1.516630	0.161394	0.749987
N189	N	0.670566	-0.574471	-0.000027
N190	N	0.920566	-0.324471	0.249973
N191	N	1.170566	-0.074471	0.499973
N192	N	1.420566	0.175529	0.749973
C193	C	0.618997	-0.537685	-0.000021
C194	C	0.868997	-0.287685	0.249979
C195	C	1.118997	-0.037685	0.499979
C196	C	1.368997	0.212315	0.749979
O197	O	0.574465	-0.562377	-0.000016
O198	O	0.824465	-0.312377	0.249984
O199	O	1.074465	-0.062377	0.499984
O200	O	1.324465	0.187623	0.749984
C201	C	0.619709	-0.478286	-0.000021
C202	C	0.869709	-0.228286	0.249979
C203	C	1.119709	0.021714	0.499979
C204	C	1.369709	0.271714	0.749979
C205	C	0.671990	-0.455672	-0.000032
C206	C	0.921990	-0.205672	0.249968
C207	C	1.171990	0.044328	0.499968
C208	C	1.421990	0.294328	0.749968
C209	C	0.775832	-0.469839	-0.000046
C210	C	1.025832	-0.219839	0.249954
C211	C	1.275832	0.030161	0.499954
C212	C	1.525832	0.280161	0.749954
C213	C	0.776543	-0.410443	-0.000052
C214	C	1.026543	-0.160443	0.249948
C215	C	1.276543	0.089557	0.499948
C216	C	1.526543	0.339557	0.749948
C217	C	0.724977	-0.373662	-0.000048
C218	C	0.974977	-0.123662	0.249952
C219	C	1.224977	0.126338	0.499952
C220	C	1.474977	0.376338	0.749952
C221	C	0.672701	-0.396276	-0.000038
C222	C	0.922701	-0.146276	0.249962
C223	C	1.172701	0.103724	0.499962
C224	C	1.422701	0.353724	0.749962
C225	C	0.568140	-0.441501	-0.000011
C226	C	0.818140	-0.191501	0.249989
C227	C	1.068140	0.058499	0.499989
C228	C	1.318140	0.308499	0.749989
C229	C	0.568857	-0.382099	-0.000011
C230	C	0.818857	-0.132099	0.249989
C231	C	1.068857	0.117901	0.499989
C232	C	1.318857	0.367901	0.749989
C233	C	0.621137	-0.359485	-0.000021
C234	C	0.871137	-0.109485	0.249979
C235	C	1.121137	0.140515	0.499979
C236	C	1.371137	0.390515	0.749979
C237	C	0.621847	-0.300099	-0.000039
C238	C	0.871847	-0.050099	0.249961
C239	C	1.121847	0.199901	0.499961
C240	C	1.371847	0.449901	0.749961
N241	N	0.674124	-0.277481	-0.000044
N242	N	0.924124	-0.027481	0.249956
N243	N	1.174124	0.222519	0.499956
N244	N	1.424124	0.472519	0.749956
C245	C	0.725690	-0.314263	-0.000048
C246	C	0.975690	-0.064263	0.249952
C247	C	1.225690	0.185737	0.499952
C248	C	1.475690	0.435737	0.749952
C249	C	0.617505	-0.662427	-0.000019
C250	C	0.867505	-0.412427	0.249981
C251	C	1.117505	-0.162427	0.499981
C252	C	1.367505	0.087573	0.749981
C253	C	0.616793	-0.721825	-0.000023
C254	C	0.866793	-0.471825	0.249977
C255	C	1.116793	-0.221825	0.499977
C256	C	1.366793	0.028175	0.749977
C257	C	0.720640	-0.735990	-0.000032
C258	C	0.970640	-0.485990	0.249968
C259	C	1.220640	-0.235990	0.499968
C260	C	1.470640	0.014010	0.749968
C261	C	0.721352	-0.676591	-0.000033
C262	C	0.971352	-0.426591	0.249967
C263	C	1.221352	-0.176591	0.499967
C264	C	1.471352	0.073409	0.749967
C265	C	0.669783	-0.639810	-0.000024
C266	C	0.919783	-0.389810	0.249976
C267	C	1.169783	-0.139810	0.499976
C268	C	1.419783	0.110190	0.749976
C269	C	0.727179	-0.189526	-0.000061
C270	C	0.977179	0.060474	0.249939
C271	C	1.227179	0.310474	0.499939
C272	C	1.477179	0.560474	0.749939
C273	C	0.727886	-0.130124	-0.000069
C274	C	0.977886	0.119876	0.249931
C275	C	1.227886	0.369876	0.499931
C276	C	1.477886	0.619876	0.749931
C277	C	0.624039	-0.115965	-0.000057
C278	C	0.874039	0.134035	0.249943
C279	C	1.124039	0.384035	0.499943
C280	C	1.374039	0.634035	0.749943
C281	C	0.623332	-0.175361	-0.000051
C282	C	0.873332	0.074639	0.249949
C283	C	1.123332	0.324639	0.499949
C284	C	1.373332	0.574639	0.749949
C285	C	0.674907	-0.212141	-0.000051
C286	C	0.924907	0.037859	0.249949
C287	C	1.174907	0.287859	0.499949
C288	C	1.424907	0.537859	0.749949
O289	O	0.578083	-0.263312	-0.000055
O290	O	0.828083	-0.013312	0.249945
O291	O	1.078083	0.236688	0.499945
O292	O	1.328083	0.486688	0.749945
O293	O	0.770214	-0.289562	-0.000045
O294	O	1.020214	-0.039562	0.249955
O295	O	1.270214	0.210438	0.499955
O296	O	1.520214	0.460438	0.749955
C297	C	0.776489	0.069258	-0.000055
C298	C	1.026489	0.319258	0.249945
C299	C	1.276489	0.569258	0.499945
C300	C	1.526489	0.819258	0.749945
C301	C	0.839708	0.070014	-0.000057
C302	C	1.089708	0.320014	0.249943
C303	C	1.339708	0.570014	0.499943
C304	C	1.589708	0.820014	0.749943
C305	C	0.667592	0.178171	-0.000033
C306	C	0.917592	0.428171	0.249967
C307	C	1.167592	0.678171	0.499967
C308	C	1.417592	0.928171	0.749967
C309	C	0.668358	0.241388	-0.000024
C310	C	0.918358	0.491388	0.249976
C311	C	1.168358	0.741388	0.499976
C312	C	1.418358	0.991388	0.749976
N313	N	0.672307	0.074037	-0.143851
N314	N	0.922307	0.324037	0.106149
N315	N	1.172307	0.574037	0.356149
N316	N	1.422307	0.824037	0.606149
C317	C	0.637997	0.039651	-0.436458
C318	C	0.887997	0.289651	-0.186458
C319	C	1.137997	0.539651	0.063542
C320	C	1.387997	0.789651	0.313542
C321	C	0.637992	0.039654	-0.372851
C322	C	0.887992	0.289654	-0.122851
C323	C	1.137992	0.539654	0.127149
C324	C	1.387992	0.789654	0.377149
O325	O	0.608799	0.010419	-0.339955
O326	O	0.858799	0.260419	-0.089955
O327	O	1.108799	0.510419	0.160045
O328	O	1.358799	0.760419	0.410045
N329	N	0.672330	0.074019	-0.341036
N330	N	0.922330	0.324019	-0.091036
N331	N	1.172330	0.574019	0.158964
N332	N	1.422330	0.824019	0.408964
C333	C	0.706679	0.108380	-0.372832
C334	C	0.956679	0.358380	-0.122832
C335	C	1.206679	0.608380	0.127168
C336	C	1.456679	0.858380	0.377168
O337	O	0.735886	0.137610	-0.339930
O338	O	0.985886	0.387610	-0.089930
O339	O	1.235886	0.637610	0.160070
O340	O	1.485886	0.887610	0.410070
C341	C	0.706687	0.108374	-0.436438
C342	C	0.956687	0.358374	-0.186438
C343	C	1.206687	0.608374	0.063562
C344	C	1.456687	0.858374	0.313562
C345	C	0.672342	0.074011	-0.468250
C346	C	0.922342	0.324011	-0.218250
C347	C	1.172342	0.574011	0.031750
C348	C	1.422342	0.824011	0.281750
C349	C	0.603656	0.005290	-0.468270
C350	C	0.853656	0.255290	-0.218270
C351	C	1.103656	0.505290	0.031730
C352	C	1.353656	0.755290	0.281730
C353	C	0.603660	0.005288	-0.531873
C354	C	0.853660	0.255288	-0.281873
C355	C	1.103660	0.505288	-0.031873
C356	C	1.353660	0.755288	0.218127
C357	C	0.638006	0.039648	-0.563665
C358	C	0.888006	0.289648	-0.313665
C359	C	1.138006	0.539648	-0.063665
C360	C	1.388006	0.789648	0.186335
C361	C	0.672347	0.074009	-0.531853
C362	C	0.922347	0.324009	-0.281853
C363	C	1.172347	0.574009	-0.031853
C364	C	1.422347	0.824009	0.218147
C365	C	0.741039	0.142731	-0.468233
C366	C	0.991039	0.392731	-0.218233
C367	C	1.241039	0.642731	0.031767
C368	C	1.491039	0.892731	0.281767
C369	C	0.741044	0.142722	-0.531844
C370	C	0.991044	0.392722	-0.281844
C371	C	1.241044	0.642722	-0.031844
C372	C	1.491044	0.892722	0.218156
C373	C	0.706700	0.108358	-0.563655
C374	C	0.956700	0.358358	-0.313655
C375	C	1.206700	0.608358	-0.063655
C376	C	1.456700	0.858358	0.186345
C377	C	0.706697	0.108367	-0.627248
C378	C	0.956697	0.358367	-0.377248
C379	C	1.206697	0.608367	-0.127248
C380	C	1.456697	0.858367	0.122752
N381	N	0.672359	0.074001	-0.659063
N382	N	0.922359	0.324001	-0.409063
N383	N	1.172359	0.574001	-0.159063
N384	N	1.422359	0.824001	0.090937
C385	C	0.638014	0.039642	-0.627271
C386	C	0.888014	0.289642	-0.377271
C387	C	1.138014	0.539642	-0.127271
C388	C	1.388014	0.789642	0.122729
C389	C	0.706661	0.108389	-0.239254
C390	C	0.956661	0.358389	0.010746
C391	C	1.206661	0.608389	0.260746
C392	C	1.456661	0.858389	0.510746
C393	C	0.706651	0.108399	-0.175649
C394	C	0.956651	0.358399	0.074351
C395	C	1.206651	0.608399	0.324351
C396	C	1.456651	0.858399	0.574351
C397	C	0.637964	0.039672	-0.175672
C398	C	0.887964	0.289672	0.074328
C399	C	1.137964	0.539672	0.324328
C400	C	1.387964	0.789672	0.574328
C401	C	0.637972	0.039666	-0.239278
C402	C	0.887972	0.289666	0.010722
C403	C	1.137972	0.539666	0.260722
C404	C	1.387972	0.789666	0.510722
C405	C	0.672323	0.074024	-0.271069
C406	C	0.922323	0.324024	-0.021069
C407	C	1.172323	0.574024	0.228931
C408	C	1.422323	0.824024	0.478931
C409	C	0.638025	0.039641	-0.760842
C410	C	0.888025	0.289641	-0.510842
C411	C	1.138025	0.539641	-0.260842
C412	C	1.388025	0.789641	-0.010842
C413	C	0.638031	0.039644	-0.824451
C414	C	0.888031	0.289644	-0.574451
C415	C	1.138031	0.539644	-0.324451
C416	C	1.388031	0.789644	-0.074451
C417	C	0.706719	0.108369	-0.824422
C418	C	0.956719	0.358369	-0.574422
C419	C	1.206719	0.608369	-0.324422
C420	C	1.456719	0.858369	-0.074422
C421	C	0.706711	0.108368	-0.760819
C422	C	0.956711	0.358368	-0.510819
C423	C	1.206711	0.608368	-0.260819
C424	C	1.456711	0.858368	-0.010819
C425	C	0.672363	0.074000	-0.729031
C426	C	0.922363	0.324000	-0.479031
C427	C	1.172363	0.574000	-0.229031
C428	C	1.422363	0.824000	0.020969
O429	O	0.735877	0.137585	-0.660184
O430	O	0.985877	0.387585	-0.410184
O431	O	1.235877	0.637585	-0.160184
O432	O	1.485877	0.887585	0.089816
O433	O	0.608817	0.010411	-0.660180
O434	O	0.858817	0.260411	-0.410180
O435	O	1.108817	0.510411	-0.160180
O436	O	1.358817	0.760411	0.089820
N437	N	0.672376	0.074004	0.143757
N438	N	0.922376	0.324004	0.393757
N439	N	1.172376	0.574004	0.643757
N440	N	1.422376	0.824004	0.893757
H441	H	0.118488	0.073351	0.154983
H442	H	0.368488	0.323351	0.404983
H443	H	0.618488	0.573351	0.654983
H444	H	0.868488	0.823351	0.904983
Br445	Br	0.515542	0.078187	-0.129879
Br446	Br	0.765542	0.328187	0.120121
Br447	Br	1.015542	0.578187	0.370121
Br448	Br	1.265542	0.828187	0.620121
Br449	Br	0.375554	0.076482	-0.129886
Br450	Br	0.625554	0.326482	0.120114
Br451	Br	0.875554	0.576482	0.370114
Br452	Br	1.125554	0.826482	0.620114
Br453	Br	0.242293	0.074864	-0.184976
Br454	Br	0.492293	0.324864	0.065024
Br455	Br	0.742293	0.574864	0.315024
Br456	Br	0.992293	0.824864	0.565024
H457	H	0.610055	0.011655	-0.734968
H458	H	0.860055	0.261655	-0.484968
H459	H	1.110055	0.511655	-0.234968
H460	H	1.360055	0.761655	0.015032
Br461	Br	0.790622	-0.785919	-0.000035
Br462	Br	1.040622	-0.535919	0.249965
Br463	Br	1.290622	-0.285919	0.499965
Br464	Br	1.540622	-0.035919	0.749965
Br465	Br	0.753248	0.155051	-0.132484
Br466	Br	1.003248	0.405051	0.117516
Br467	Br	1.253248	0.655051	0.367516
Br468	Br	1.503248	0.905051	0.617516
H469	H	0.118430	0.073368	-0.155067
H470	H	0.368430	0.323368	0.094933
H471	H	0.618430	0.573368	0.344933
H472	H	0.868430	0.823368	0.594933
Br473	Br	0.787637	0.189386	-0.425076
Br474	Br	1.037637	0.439386	-0.175076
Br475	Br	1.287637	0.689386	0.074924
Br476	Br	1.537637	0.939386	0.324924
Br477	Br	-0.030906	0.071590	-0.129898
Br478	Br	0.219094	0.321590	0.120102
Br479	Br	0.469094	0.571590	0.370102
Br480	Br	0.719094	0.821590	0.620102
H481	H	0.770461	-0.111716	-0.000079
H482	H	1.020461	0.138284	0.249921
H483	H	1.270461	0.388284	0.499921
H484	H	1.520461	0.638284	0.749921
Br485	Br	0.787669	0.189351	-0.574984
Br486	Br	1.037669	0.439351	-0.324984
Br487	Br	1.287669	0.689351	-0.074984
Br488	Br	1.537669	0.939351	0.175016
H489	H	0.580761	-0.193774	-0.000060
H490	H	0.830761	0.056226	0.249940
H491	H	1.080761	0.306226	0.499940
H492	H	1.330761	0.556226	0.749940
H493	H	0.734632	0.136373	-0.265134
H494	H	0.984632	0.386373	-0.015134
H495	H	1.234632	0.636373	0.234866
H496	H	1.484632	0.886373	0.484866
Br497	Br	0.591414	-0.006992	-0.867620
Br498	Br	0.841414	0.243008	-0.617620
Br499	Br	1.091414	0.493008	-0.367620
Br500	Br	1.341414	0.743008	-0.117620
H501	H	0.734681	0.136345	-0.850319
H502	H	0.984681	0.386345	-0.600319
H503	H	1.234681	0.636345	-0.350319
H504	H	1.484681	0.886345	-0.100319
H505	H	0.769176	-0.219466	-0.000058
H506	H	1.019176	0.030534	0.249942
H507	H	1.269176	0.280534	0.499942
H508	H	1.519176	0.530534	0.749942
H509	H	0.582056	-0.086007	-0.000055
H510	H	0.832056	0.163993	0.249945
H511	H	1.082056	0.413993	0.499945
H512	H	1.332056	0.663993	0.749945
H513	H	0.819115	-0.392037	-0.000058
H514	H	1.069115	-0.142037	0.249942
H515	H	1.319115	0.107963	0.499942
H516	H	1.569115	0.357963	0.749942
Br517	Br	0.753329	0.154997	-0.717645
Br518	Br	1.003329	0.404997	-0.467645
Br519	Br	1.253329	0.654997	-0.217645
Br520	Br	1.503329	0.904997	0.032355
Br521	Br	0.845823	-0.519747	-0.000051
Br522	Br	1.095823	-0.269747	0.249949
Br523	Br	1.345823	-0.019747	0.499949
Br524	Br	1.595823	0.230253	0.749949
H525	H	0.391706	0.076656	0.099910
H526	H	0.641706	0.326656	0.349910
H527	H	0.891706	0.576656	0.599910
H528	H	1.141706	0.826656	0.849910
Br529	Br	0.591352	-0.006960	-0.132514
Br530	Br	0.841352	0.243040	0.117486
Br531	Br	1.091352	0.493040	0.367486
Br532	Br	1.341352	0.743040	0.617486
H533	H	0.763923	-0.658183	-0.000041
H534	H	1.013923	-0.408183	0.249959
H535	H	1.263923	-0.158183	0.499959
H536	H	1.513923	0.091817	0.749959
Br537	Br	0.515600	0.078150	0.129812
Br538	Br	0.765600	0.328150	0.379812
Br539	Br	1.015600	0.578150	0.629812
Br540	Br	1.265600	0.828150	0.879812
H541	H	0.610006	0.011684	-0.265175
H542	H	0.860006	0.261684	-0.015175
H543	H	1.110006	0.511684	0.234825
H544	H	1.360006	0.761684	0.484825
Br545	Br	0.547512	-0.612515	-0.000012
Br546	Br	0.797512	-0.362515	0.249988
Br547	Br	1.047512	-0.112515	0.499988
Br548	Br	1.297512	0.137485	0.749988
Br549	Br	-0.030881	0.071550	0.129804
Br550	Br	0.219119	0.321550	0.379804
Br551	Br	0.469119	0.571550	0.629804
Br552	Br	0.719119	0.821550	0.879804
Br553	Br	0.242356	0.074837	0.184895
Br554	Br	0.492356	0.324837	0.434895
Br555	Br	0.742356	0.574837	0.684895
Br556	Br	0.992356	0.824837	0.934895
Br557	Br	-0.170876	0.069879	0.129792
Br558	Br	0.079124	0.319879	0.379792
Br559	Br	0.329124	0.569879	0.629792
Br560	Br	0.579124	0.819879	0.879792
H561	H	-0.154793	0.070092	-0.099991
H562	H	0.095207	0.320092	0.150009
H563	H	0.345207	0.570092	0.400009
H564	H	0.595207	0.820092	0.650009
H565	H	0.575696	-0.022696	-0.557768
H566	H	0.825696	0.227304	-0.307768
H567	H	1.075696	0.477304	-0.057768
H568	H	1.325696	0.727304	0.192232
H569	H	0.574220	-0.740232	-0.000025
H570	H	0.824220	-0.490232	0.249975
H571	H	1.074220	-0.240232	0.499975
H572	H	1.324220	0.009768	0.749975
Br573	Br	0.557033	-0.041342	-0.425136
Br574	Br	0.807033	0.208658	-0.175136
Br575	Br	1.057033	0.458658	0.074864
Br576	Br	1.307033	0.708658	0.324864
Br577	Br	0.498866	-0.332184	0.000004
Br578	Br	0.748866	-0.082184	0.250004
Br579	Br	0.998866	0.167816	0.500004
Br580	Br	1.248866	0.417816	0.750004
Br581	Br	0.497183	-0.472176	0.000006
Br582	Br	0.747183	-0.222176	0.250006
Br583	Br	0.997183	0.027824	0.500006
Br584	Br	1.247183	0.277824	0.750006
