data_functionalizedCrystal
_audit_creation_method	'MofGen! by Chris Wilmer'
_symmetry_space_group_name_H-M	'P1'
_symmetry_Int_Tables_number	1
_symmetry_cell_setting	triclinic
loop_
_symmetry_equiv_pos_as_xyz
  x,y,z
_cell_length_a	12.759401
_cell_length_b	16.625539
_cell_length_c	12.759400
_cell_angle_alpha	89.976783
_cell_angle_beta	90.016169
_cell_angle_gamma	89.984732
loop_
_atom_site_label
_atom_site_type_symbol
_atom_site_fract_x
_atom_site_fract_y
_atom_site_fract_z
Zn1	Zn	1.606208	-0.455889	-0.418241
Zn2	Zn	1.606117	-0.321064	-0.593936
Zn3	Zn	1.430524	-0.321074	-0.418277
Zn4	Zn	1.430499	-0.455858	-0.593883
O5	O	1.518337	-0.388471	-0.506084
O6	O	1.753217	-0.438013	-0.441555
O7	O	1.582796	-0.208233	-0.570672
O8	O	1.453878	-0.338974	-0.271251
O9	O	1.753150	-0.338958	-0.570637
O10	O	1.582952	-0.438023	-0.271225
O11	O	1.453789	-0.208240	-0.441616
O12	O	1.283500	-0.338944	-0.441564
O13	O	1.453835	-0.568694	-0.570547
O14	O	1.283481	-0.437970	-0.570581
O15	O	1.582927	-0.568717	-0.441503
O16	O	1.582772	-0.338927	-0.740950
O17	O	1.453746	-0.437960	-0.740911
C18	C	1.245370	-0.388455	-0.506071
C19	C	1.128593	-0.388467	-0.506091
C20	C	1.073749	-0.439949	-0.573373
C21	C	0.964025	-0.439965	-0.573377
C22	C	0.963999	-0.337011	-0.438815
C23	C	1.073721	-0.337000	-0.438806
C24	C	0.814116	-0.535023	-0.611090
C25	C	0.759269	-0.586497	-0.678387
C26	C	0.794865	-0.598737	-0.780920
C27	C	0.885307	-0.559491	-0.816176
C28	C	0.940149	-0.508011	-0.748883
C29	C	0.904555	-0.495786	-0.646336
C30	C	1.223631	-0.241941	-0.401104
C31	C	1.278475	-0.190456	-0.333817
C32	C	1.242881	-0.178207	-0.231282
C33	C	1.152435	-0.217439	-0.196030
C34	C	1.097591	-0.268924	-0.263318
C35	C	1.133193	-0.281174	-0.365851
C36	C	1.518388	-0.598780	-0.506015
C37	C	1.518410	-0.688401	-0.505985
C38	C	1.518427	-0.761184	-0.505962
C39	C	1.518452	-0.852492	-0.505923
C40	C	1.518477	-0.925269	-0.505886
C41	C	1.518503	-1.016583	-0.505848
C42	C	1.792370	-0.388488	-0.506098
C43	C	1.909147	-0.388495	-0.506104
C44	C	1.518275	-0.388457	-0.779052
C45	C	1.518344	-0.388478	-0.895828
C46	C	1.518346	-0.178980	-0.506078
C47	C	1.518528	-0.089360	-0.505811
C48	C	1.585524	-0.440096	-0.950587
C49	C	1.585583	-0.440118	-1.060311
C50	C	1.451280	-0.336896	-1.060508
C51	C	1.451216	-0.336879	-0.950786
C52	C	1.623132	-0.535259	-1.210153
C53	C	1.690328	-0.586870	-1.264915
C54	C	1.792812	-0.599313	-1.229206
C55	C	1.828121	-0.560132	-1.138737
C56	C	1.760930	-0.508515	-1.083980
C57	C	1.658432	-0.496088	-1.119688
C58	C	1.413678	-0.241737	-0.800942
C59	C	1.346492	-0.190115	-0.746183
C60	C	1.244006	-0.177664	-0.781890
C61	C	1.208701	-0.216830	-0.872363
C62	C	1.275887	-0.268452	-0.927122
C63	C	1.378372	-0.280904	-0.891407
C64	C	1.518428	-0.388503	-0.232051
C65	C	1.518467	-0.388517	-0.115274
H66	H	1.023950	-0.300874	-0.234604
H67	H	1.640182	-0.482112	-0.905843
H68	H	1.287540	-0.136277	-0.176501
O69	O	0.779690	-0.523222	-0.511415
C70	C	0.857945	-0.547548	-0.440081
H71	H	0.912325	-0.592661	-0.479686
H72	H	0.819714	-0.576798	-0.368889
H73	H	0.905076	-0.492856	-0.413987
H74	H	0.914276	-0.569455	-0.899673
O75	O	1.366223	-0.152274	-0.368213
C76	C	1.340835	-0.103321	-0.454839
H77	H	1.266352	-0.126794	-0.493551
H78	H	1.407927	-0.104686	-0.513796
H79	H	1.327697	-0.038899	-0.427218
H80	H	1.252627	-0.251916	-0.484594
H81	H	0.750200	-0.640650	-0.835714
H82	H	1.789679	-0.476614	-1.010324
H83	H	1.911578	-0.570260	-1.109677
H84	H	1.847524	-0.641336	-1.273802
H85	H	0.685631	-0.618452	-0.649672
H86	H	1.661570	-0.618771	-1.338576
H87	H	0.919308	-0.295107	-0.384035
O88	O	1.118021	-0.205483	-0.096381
C89	C	1.185807	-0.151615	-0.044558
H90	H	1.265842	-0.152476	-0.084231
H91	H	1.194592	-0.170548	0.040877
H92	H	1.151803	-0.088264	-0.048415
O93	O	1.523553	-0.523324	-1.244866
C94	C	1.469604	-0.597315	-1.246335
H95	H	1.528495	-0.648743	-1.251390
H96	H	1.415280	-0.599332	-1.317234
H97	H	1.421411	-0.603702	-1.171570
H98	H	1.396628	-0.294885	-1.105268
H99	H	1.118423	-0.481859	-0.628158
O100	O	1.241487	-0.306595	-1.014896
C101	C	1.154683	-0.355342	-0.989630
H102	H	1.156631	-0.370550	-0.902524
H103	H	1.158066	-0.413225	-1.037381
H104	H	1.079161	-0.321672	-1.008555
H105	H	1.125250	-0.206690	-0.901438
O106	O	1.027997	-0.469970	-0.783276
C107	C	1.047634	-0.491783	-0.888223
H108	H	1.008462	-0.551928	-0.905659
H109	H	1.135746	-0.497336	-0.901115
H110	H	1.014575	-0.443725	-0.942758
O111	O	1.178863	-0.127516	-0.728550
C112	C	1.232005	-0.095589	-0.641060
H113	H	1.299336	-0.137232	-0.618507
H114	H	1.175290	-0.090090	-0.572413
H115	H	1.264361	-0.033631	-0.661512
O116	O	1.380913	-0.152028	-0.658375
C117	C	1.467686	-0.103235	-0.683595
H118	H	1.506414	-0.126748	-0.758034
H119	H	1.526573	-0.104751	-0.616412
H120	H	1.440240	-0.038752	-0.696733
H121	H	1.497125	-0.251882	-0.771850
