data_functionalizedCrystal
_audit_creation_method	'MofGen! by Chris Wilmer'
_symmetry_space_group_name_H-M	'P1'
_symmetry_Int_Tables_number	1
_symmetry_cell_setting	triclinic
loop_
_symmetry_equiv_pos_as_xyz
  x,y,z
_cell_length_a	19.805407
_cell_length_b	16.120444
_cell_length_c	19.805399
_cell_angle_alpha	87.128215
_cell_angle_beta	90.017803
_cell_angle_gamma	92.923874
loop_
_atom_site_label
_atom_site_type_symbol
_atom_site_fract_x
_atom_site_fract_y
_atom_site_fract_z
Zn1	Zn	1.021068	-0.331988	0.396351
Zn2	Zn	1.015243	-0.471406	0.288901
Zn3	Zn	0.907882	-0.332004	0.283180
Zn4	Zn	0.902108	-0.471356	0.402049
O5	O	0.961575	-0.401688	0.342621
O6	O	1.115011	-0.350496	0.382108
O7	O	1.000980	-0.452943	0.193427
O8	O	0.927750	-0.215336	0.293414
O9	O	1.110732	-0.452927	0.303164
O10	O	1.010908	-0.215324	0.376560
O11	O	0.922102	-0.350524	0.189224
O12	O	0.812400	-0.350475	0.298939
O13	O	0.917910	-0.452840	0.496009
O14	O	0.808158	-0.452856	0.386272
O15	O	1.005309	-0.350447	0.491823
O16	O	0.995381	-0.588066	0.308690
O17	O	0.912262	-0.588029	0.391819
C18	C	0.785720	-0.401662	0.342603
C19	C	0.710488	-0.401671	0.342612
C20	C	0.677369	-0.348430	0.383788
C21	C	0.606680	-0.348435	0.383791
C22	C	0.569112	-0.401685	0.342621
C23	C	0.602236	-0.454928	0.301441
C24	C	0.672923	-0.454919	0.301435
C25	C	0.317161	-0.454966	0.301463
C26	C	0.246468	-0.454973	0.301474
C27	C	0.250918	-0.348481	0.383819
C28	C	0.321605	-0.348472	0.383813
C29	C	0.354723	-0.401712	0.342631
C30	C	0.431372	-0.401706	0.342627
C31	C	0.492464	-0.401696	0.342628
C32	C	0.952581	-0.618298	0.351508
C33	C	0.948796	-0.710964	0.355333
C34	C	0.981379	-0.921905	0.322925
C35	C	0.941897	-0.880621	0.362323
C36	C	0.945736	-0.786215	0.358433
C37	C	0.977540	-1.016319	0.326815
C38	C	1.138117	-0.401715	0.342639
C39	C	1.213348	-0.401727	0.342646
C40	C	0.961615	-0.401636	0.519161
C41	C	0.961632	-0.401614	0.594392
C42	C	0.970623	-0.184234	0.333713
C43	C	0.974478	-0.091567	0.329917
C44	C	0.961577	-0.401681	0.166764
C45	C	0.961700	-0.401468	0.091524
C46	C	1.007142	-0.348295	0.627558
C47	C	1.007150	-0.348271	0.698245
C48	C	0.961651	-0.401570	0.735766
C49	C	0.916136	-0.454891	0.702596
C50	C	0.916126	-0.454910	0.631910
C51	C	0.916178	-0.454813	0.987666
C52	C	0.916193	-0.454792	1.058357
C53	C	1.007202	-0.348174	1.054002
C54	C	1.007192	-0.348193	0.983315
C55	C	0.961675	-0.401511	0.950151
C56	C	0.961666	-0.401535	0.873504
C57	C	0.961663	-0.401550	0.812413
H58	H	0.699888	-0.498273	0.267905
H59	H	0.344117	-0.498318	0.267931
O60	O	0.867060	-0.512375	0.743066
H61	H	0.835407	-0.549447	0.708126
H62	H	0.905210	-0.916177	0.398975
O63	O	0.717889	-0.290990	0.428188
H64	H	0.682981	-0.253962	0.456814
H65	H	1.018062	-0.886352	0.286275
O66	O	0.215198	-0.291049	0.428235
H67	H	0.231481	-0.225598	0.414031
O68	O	1.056217	-0.290808	0.587089
H69	H	1.087859	-0.253723	0.622029
H70	H	0.352190	-0.305113	0.417340
O71	O	1.056295	-0.290654	1.089766
H72	H	1.047409	-0.225227	1.073504
H73	H	0.879061	-0.498320	0.604907
O74	O	1.056239	-0.290768	0.734019
H75	H	1.087882	-0.253719	0.696054
O76	O	0.867108	-0.512271	1.098828
H77	H	0.875977	-0.577712	1.087941
O78	O	0.205944	-0.512399	0.257060
H79	H	0.240848	-0.549412	0.228415
O80	O	0.561721	-0.512363	0.257032
H81	H	0.507002	-0.503431	0.263958
H82	H	0.879125	-0.498240	0.960673
O83	O	0.570956	-0.291010	0.428200
H84	H	0.608955	-0.253987	0.456832
O85	O	1.056266	-0.290708	0.942844
H86	H	1.087910	-0.253622	0.977782
