data_functionalizedCrystal
_audit_creation_method	'MofGen! by Chris Wilmer'
_symmetry_space_group_name_H-M	'P1'
_symmetry_Int_Tables_number	1
_symmetry_cell_setting	triclinic
loop_
_symmetry_equiv_pos_as_xyz
  x,y,z
_cell_length_a	11.792254
_cell_length_b	8.559649
_cell_length_c	7.088929
_cell_angle_alpha	84.655815
_cell_angle_beta	96.246827
_cell_angle_gamma	76.988631
loop_
_atom_site_label
_atom_site_type_symbol
_atom_site_fract_x
_atom_site_fract_y
_atom_site_fract_z
O1	O	1.473788	0.235245	-0.158976
O2	O	1.141386	0.257778	-0.158979
O3	O	1.336872	0.014165	-0.158976
O4	O	1.278302	0.478858	-0.158980
O5	O	1.363003	-0.018465	0.159000
O6	O	1.167517	0.225148	0.158996
O7	O	1.499919	0.202615	0.158999
Cu8	Cu	1.336104	0.210902	0.188031
Cu9	Cu	1.305201	0.249491	-0.188012
O10	O	1.304433	0.446228	0.158996
C11	C	1.354375	-0.061641	0.000009
C12	C	1.367587	-0.238905	-0.000002
C13	C	1.112290	0.240044	0.000008
C14	C	0.986666	0.235795	0.000006
C15	C	0.884645	0.232344	-0.000002
C16	C	0.756653	0.228028	-0.000003
C17	C	1.529014	0.220350	0.000008
C18	C	1.654637	0.224599	-0.000003
C19	C	1.286928	0.522034	0.000007
C20	C	1.273716	0.699299	0.000005
N21	N	1.357848	0.183759	0.452520
N22	N	1.283467	0.276621	-0.452500
H23	H	1.183242	-0.217994	0.000010
H24	H	1.206380	0.372853	0.465852
H25	H	1.458068	-0.321623	0.000014
H26	H	1.434947	0.087532	0.534177
