data_functionalizedCrystal
_audit_creation_method	'MofGen! by Chris Wilmer'
_symmetry_space_group_name_H-M	'P1'
_symmetry_Int_Tables_number	1
_symmetry_cell_setting	triclinic
loop_
_symmetry_equiv_pos_as_xyz
  x,y,z
_cell_length_a	13.033915
_cell_length_b	12.759395
_cell_length_c	13.032268
_cell_angle_alpha	82.835934
_cell_angle_beta	89.129508
_cell_angle_gamma	82.827023
loop_
_atom_site_label
_atom_site_type_symbol
_atom_site_fract_x
_atom_site_fract_y
_atom_site_fract_z
Zn1	Zn	-0.483209	1.600349	0.529516
Zn2	Zn	-0.633368	1.644189	0.335727
Zn3	Zn	-0.461421	1.443836	0.357559
Zn4	Zn	-0.655131	1.449400	0.507660
O5	O	-0.558282	1.534443	0.432615
O6	O	-0.503138	1.753186	0.503819
O7	O	-0.592332	1.633630	0.194705
O8	O	-0.320401	1.443922	0.398654
O9	O	-0.613459	1.785395	0.361444
O10	O	-0.336408	1.558912	0.524989
O11	O	-0.466004	1.486432	0.210745
O12	O	-0.487106	1.297553	0.377461
O13	O	-0.650551	1.453405	0.654477
O14	O	-0.629424	1.301641	0.487738
O15	O	-0.524241	1.564307	0.670535
O16	O	-0.780165	1.639025	0.340251
O17	O	-0.796154	1.495915	0.466569
C18	C	-0.558263	1.261476	0.432597
C19	C	-0.558283	1.144700	0.432611
C20	C	-0.443672	0.891732	0.581083
C21	C	-0.386342	0.929832	0.655293
C22	C	-0.386322	1.039553	0.655278
C23	C	-0.443641	1.111179	0.581046
C24	C	-0.500972	1.073079	0.506836
C25	C	-0.500983	0.963353	0.506858
C26	C	-0.615614	1.106600	0.358401
C27	C	-0.615630	0.996879	0.358411
C28	C	-0.672934	1.178226	0.284170
C29	C	-0.730260	1.140126	0.209954
C30	C	-0.730277	1.030398	0.209972
C31	C	-0.672961	0.958779	0.284201
C32	C	-0.825477	1.572857	0.398691
C33	C	-0.939788	1.589383	0.384213
C34	C	-1.116837	1.542967	0.425233
C35	C	-0.998691	1.525891	0.440205
C36	C	-0.290047	1.495906	0.466695
C37	C	-0.175741	1.479484	0.481217
C38	C	-0.592254	1.504586	0.700866
C39	C	-0.606731	1.491863	0.815178
C40	C	-0.558302	1.808477	0.432634
C41	C	-0.558310	1.925254	0.432642
C42	C	-0.524368	1.564234	0.165418
C43	C	-0.509601	1.577120	0.051143
C44	C	-0.550689	1.541062	0.874087
C45	C	-0.565651	1.527913	0.992236
H46	H	-0.443631	1.200518	0.581048
H47	H	-1.138706	1.412488	0.540229
H48	H	-0.443658	0.802389	0.581084
Cl49	Cl	-0.802318	1.230171	0.116650
H50	H	-0.624703	1.476046	1.029266
H51	H	-0.339676	0.871503	0.715733
H52	H	-0.976818	1.656378	0.325191
H53	H	-0.776968	0.999385	0.149545
H54	H	-0.665780	1.439999	0.852213
H55	H	-0.491631	1.592914	0.837054
Cl56	Cl	-0.314253	1.087453	0.748574
H57	H	-0.450536	1.628973	1.014115
H58	H	-1.153872	1.609954	0.366213
Cl59	Cl	-0.672972	0.820841	0.284226
Cl60	Cl	-0.672916	1.316162	0.284155
H61	H	-0.961660	1.458891	0.499221
