data_functionalizedCrystal
_audit_creation_method	'MofGen! by Chris Wilmer'
_symmetry_space_group_name_H-M	'P1'
_symmetry_Int_Tables_number	1
_symmetry_cell_setting	triclinic
loop_
_symmetry_equiv_pos_as_xyz
  x,y,z
_cell_length_a	17.038272
_cell_length_b	14.853559
_cell_length_c	13.930277
_cell_angle_alpha	89.997639
_cell_angle_beta	89.998451
_cell_angle_gamma	87.371505
loop_
_atom_site_label
_atom_site_type_symbol
_atom_site_fract_x
_atom_site_fract_y
_atom_site_fract_z
O1	O	1.037622	0.195789	-0.079703
O2	O	0.809987	0.192680	-0.079731
O3	O	0.929888	0.063462	-0.079716
O4	O	0.917721	0.325007	-0.079719
O5	O	0.929872	0.063458	0.079946
O6	O	0.809971	0.192676	0.079930
O7	O	1.037605	0.195784	0.079959
Zn8	Zn	0.923785	0.194229	0.105294
Zn9	Zn	0.923807	0.194235	-0.105067
O10	O	0.917704	0.325002	0.079943
C11	C	0.929330	0.029829	0.000114
C12	C	0.927681	-0.070379	0.000108
C13	C	0.780847	0.189850	0.000096
C14	C	0.694043	0.181414	0.000085
C15	C	0.920697	-0.494078	-0.086925
C16	C	0.920678	-0.494077	0.087145
C17	C	0.922234	-0.399927	0.087146
C18	C	0.923020	-0.352847	0.000110
C19	C	0.922250	-0.399919	-0.086926
C20	C	0.922996	-0.352848	0.174181
C21	C	0.924550	-0.258692	0.174185
C22	C	0.925342	-0.211611	0.087149
C23	C	0.924573	-0.258688	0.000109
C24	C	0.925359	-0.211609	-0.086927
C25	C	0.924595	-0.258685	-0.173968
C26	C	0.923041	-0.352838	-0.173963
C27	C	0.926896	-0.117458	0.087144
C28	C	0.926912	-0.117450	-0.086929
C29	C	0.644029	0.258867	0.000085
C30	C	0.562468	0.250935	0.000098
C31	C	0.530923	0.165549	0.000105
C32	C	0.580944	0.088090	0.000108
C33	C	0.662503	0.096023	0.000101
C34	C	0.285129	0.137524	0.000131
C35	C	0.203564	0.129597	0.000134
C36	C	0.185093	0.292443	0.000126
C37	C	0.266655	0.300368	0.000114
C38	C	0.316668	0.222909	0.000122
C39	C	0.447555	0.157439	0.000115
C40	C	0.400035	0.231020	0.000118
C41	C	1.066745	0.198614	0.000129
C42	C	1.153549	0.207050	0.000134
C43	C	0.918262	0.358635	0.000112
C44	C	0.919911	0.458843	0.000111
N45	N	0.923776	0.194225	0.248860
N46	N	0.923823	0.194232	-0.248633
C47	C	0.870713	0.251428	0.701123
C48	C	0.976923	0.137036	0.701106
C49	C	0.976914	0.137032	0.600610
C50	C	0.923804	0.194229	0.550366
C51	C	0.870703	0.251429	0.600618
C52	C	1.030019	0.079840	0.550351
C53	C	1.030012	0.079835	0.449850
C54	C	0.976898	0.137027	0.399603
C55	C	0.923795	0.194229	0.449861
C56	C	0.870685	0.251425	0.399617
C57	C	0.817577	0.308623	0.449873
C58	C	0.817589	0.308621	0.550372
C59	C	0.976886	0.137029	0.299105
C60	C	0.870675	0.251425	0.299112
H61	H	0.925229	-0.220340	-0.244832
H62	H	0.922419	-0.391175	-0.244827
C63	C	0.919854	-0.545855	-0.182663
H64	H	0.918812	-0.608672	-0.170201
H65	H	0.965671	-0.533802	-0.218420
H66	H	0.874543	-0.527040	-0.218425
H67	H	0.177884	0.060062	0.000139
C68	C	0.922138	-0.404635	0.269910
H69	H	0.921116	-0.467452	0.257443
H70	H	0.876829	-0.385832	0.305672
H71	H	0.967958	-0.392584	0.305671
H72	H	0.521749	0.314006	0.000097
C73	C	0.130081	0.377643	0.000122
H74	H	0.160549	0.429630	0.000110
H75	H	0.097880	0.377936	0.055800
H76	H	0.097882	0.377933	-0.055562
C77	C	0.340134	0.052322	0.000133
H78	H	0.309663	0.000336	0.000128
H79	H	0.372335	0.052028	0.055809
H80	H	0.372333	0.052030	-0.055553
C81	C	0.546247	-0.005833	0.000114
H82	H	0.490510	0.000534	0.000107
H83	H	0.563409	-0.037990	0.055790
H84	H	0.563409	-0.037983	-0.055572
H85	H	0.920034	-0.532414	0.158005
C86	C	0.925400	-0.206918	0.269924
H87	H	0.924716	-0.248443	0.321758
H88	H	0.880449	-0.166799	0.273542
H89	H	0.971577	-0.173579	0.273543
C90	C	0.717519	0.010824	0.000092
H91	H	0.687053	-0.041165	0.000087
H92	H	0.749723	0.010530	0.055765
H93	H	0.749715	0.010538	-0.055597
H94	H	0.827424	0.297998	0.258209
C95	C	0.927733	-0.065679	0.182876
H96	H	0.927044	-0.107202	0.234710
H97	H	0.882779	-0.025563	0.186483
H98	H	0.973907	-0.032336	0.186503
C99	C	0.434728	0.324941	0.000108
H100	H	0.393262	0.369939	0.000112
H101	H	0.466161	0.331412	-0.055571
H102	H	0.466160	0.331419	0.055791
C103	C	0.759161	0.371536	0.394598
H104	H	0.766764	0.363339	0.327548
H105	H	0.767710	0.432368	0.411064
H106	H	0.706966	0.357699	0.411068
C107	C	0.759185	0.371539	0.605654
H108	H	0.766805	0.363354	0.672703
H109	H	0.706989	0.357715	0.589200
H110	H	0.767744	0.432372	0.589176
C111	C	0.678721	0.352793	0.000077
H112	H	0.637250	0.397784	0.000087
H113	H	0.710151	0.359276	-0.055603
H114	H	0.710153	0.359271	0.055759
H115	H	1.020167	0.090473	0.742018
C116	C	0.301348	0.394293	0.000120
H117	H	0.259879	0.439287	0.000133
H118	H	0.332782	0.400778	-0.055557
H119	H	0.332779	0.400764	0.055806
C120	C	0.812301	0.314344	0.756398
H121	H	0.819913	0.306158	0.823448
H122	H	0.760108	0.300517	0.739933
H123	H	0.820859	0.375178	0.739923
H124	H	0.421863	0.087917	0.000148
C125	C	1.088435	0.016932	0.605619
H126	H	1.080827	0.025118	0.672670
H127	H	1.140626	0.030762	0.589145
H128	H	1.079879	-0.043903	0.589152
H129	H	1.073254	0.033261	0.408937
C130	C	1.035296	0.074120	0.243827
H131	H	1.066926	0.040055	0.288145
H132	H	1.067869	0.109073	0.204611
H133	H	1.007124	0.034404	0.204634
H134	H	0.927555	-0.079125	-0.157805
