data_functionalizedCrystal
_audit_creation_method	'MofGen! by Chris Wilmer'
_symmetry_space_group_name_H-M	'P1'
_symmetry_Int_Tables_number	1
_symmetry_cell_setting	triclinic
loop_
_symmetry_equiv_pos_as_xyz
  x,y,z
_cell_length_a	11.169416
_cell_length_b	21.295420
_cell_length_c	11.169409
_cell_angle_alpha	89.975608
_cell_angle_beta	90.030874
_cell_angle_gamma	89.995618
loop_
_atom_site_label
_atom_site_type_symbol
_atom_site_fract_x
_atom_site_fract_y
_atom_site_fract_z
Zn1	Zn	-0.477901	-0.962435	0.678701
Zn2	Zn	0.022099	-0.462435	1.178701
Zn3	Zn	-0.678641	-0.962377	0.478023
Zn4	Zn	-0.178641	-0.462377	0.978023
Zn5	Zn	-0.477950	-0.857161	0.478019
Zn6	Zn	0.022050	-0.357161	0.978019
Zn7	Zn	-0.678520	-0.857165	0.678652
Zn8	Zn	-0.178520	-0.357165	1.178652
O9	O	-0.578253	-0.909784	0.578349
O10	O	-0.078253	-0.409784	1.078349
O11	O	-0.504560	-1.050517	0.652103
O12	O	-0.004560	-0.550517	1.152103
O13	O	-0.652091	-0.948394	0.310073
O14	O	-0.152091	-0.448394	0.810073
O15	O	-0.309994	-0.871148	0.504659
O16	O	0.190006	-0.371148	1.004659
O17	O	-0.652043	-1.050474	0.504666
O18	O	-0.152043	-0.550474	1.004666
O19	O	-0.309958	-0.948493	0.652099
O20	O	0.190042	-0.448493	1.152099
O21	O	-0.504644	-0.871092	0.310070
O22	O	-0.004644	-0.371092	0.810070
O23	O	-0.504526	-0.769072	0.504612
O24	O	-0.004526	-0.269072	1.004612
O25	O	-0.651836	-0.871155	0.846608
O26	O	-0.151836	-0.371155	1.346608
O27	O	-0.651883	-0.769075	0.652016
O28	O	-0.151883	-0.269075	1.152016
O29	O	-0.504442	-0.948497	0.846644
O30	O	-0.004442	-0.448497	1.346644
O31	O	-0.846575	-0.948398	0.504618
O32	O	-0.346575	-0.448398	1.004618
O33	O	-0.846485	-0.871099	0.652019
O34	O	-0.346485	-0.371099	1.152019
C35	C	-0.578197	-0.746233	0.578309
C36	C	-0.078197	-0.246233	1.078309
C37	C	-0.578203	-0.676265	0.578320
C38	C	-0.078203	-0.176265	1.078320
C39	C	-0.501597	-0.176828	0.655234
C40	C	-0.001597	0.323172	1.155234
C41	C	-0.501592	-0.242571	0.655236
C42	C	-0.001592	0.257429	1.155236
C43	C	-0.578253	-0.275425	0.578352
C44	C	-0.078253	0.224575	1.078352
C45	C	-0.654946	-0.242532	0.501482
C46	C	-0.154946	0.257468	1.001482
C47	C	-0.654958	-0.176791	0.501490
C48	C	-0.154958	0.323209	1.001490
N49	N	-0.587324	-0.378618	0.473268
N50	N	-0.087324	0.121382	0.973268
N51	N	-0.587306	-0.441070	0.473263
N52	N	-0.087306	0.058930	0.973263
C53	C	-0.578225	-0.473500	0.578325
C54	C	-0.078225	0.026500	1.078325
N55	N	-0.569138	-0.441120	0.683393
N56	N	-0.069138	0.058880	1.183393
N57	N	-0.569150	-0.378663	0.683396
N58	N	-0.069150	0.121337	1.183396
C59	C	-0.578249	-0.346711	0.578335
C60	C	-0.078249	0.153289	1.078335
C61	C	-0.501536	-0.577671	0.655199
C62	C	-0.001536	-0.077671	1.155199
C63	C	-0.501540	-0.643415	0.655203
C64	C	-0.001540	-0.143415	1.155203
C65	C	-0.654888	-0.643375	0.501438
C66	C	-0.154888	-0.143375	1.001438
C67	C	-0.654891	-0.577632	0.501444
C68	C	-0.154891	-0.077632	1.001444
C69	C	-0.578209	-0.544784	0.578323
C70	C	-0.078209	-0.044784	1.078323
C71	C	-0.890078	-0.909759	0.578340
C72	C	-0.390078	-0.409759	1.078340
C73	C	-1.023477	-0.909806	0.578376
C74	C	-0.523477	-0.409806	1.078376
C75	C	-0.265210	-0.909827	0.578384
C76	C	0.234790	-0.409827	1.078384
C77	C	-0.131810	-0.909845	0.578399
C78	C	0.368190	-0.409845	1.078399
C79	C	-0.578120	-0.909833	0.891392
C80	C	-0.078120	-0.409833	1.391392
C81	C	-0.578063	-0.909853	1.024792
C82	C	-0.078063	-0.409853	1.524792
C83	C	-0.578295	-0.073975	0.578380
C84	C	-0.078295	0.426025	1.078380
C85	C	-0.578275	-0.143943	0.578369
C86	C	-0.078275	0.356057	1.078369
C87	C	-0.578299	-0.909773	0.266524
C88	C	-0.078299	-0.409773	0.766524
C89	C	-0.578018	-0.909874	0.133125
C90	C	-0.078018	-0.409874	0.633125
H91	H	-0.439097	-0.550925	0.717798
H92	H	0.060903	-0.050925	1.217798
F93	F	-0.419975	-0.277577	0.737048
F94	F	0.080025	0.222423	1.237048
F95	F	-0.736489	-0.542631	0.419618
F96	F	-0.236489	-0.042631	0.919618
H97	H	-0.439161	-0.150088	0.717840
H98	H	0.060839	0.349912	1.217840
F99	F	-0.736569	-0.141790	0.419672
F100	F	-0.236569	0.358210	0.919672
F101	F	-0.736538	-0.277499	0.419660
F102	F	-0.236538	0.222501	0.919660
H103	H	-0.439102	-0.670189	0.717805
H104	H	0.060898	-0.170189	1.217805
H105	H	-0.717316	-0.670124	0.438847
H106	H	-0.217316	-0.170124	0.938847
