data_functionalizedCrystal
_audit_creation_method	'MofGen! by Chris Wilmer'
_symmetry_space_group_name_H-M	'P1'
_symmetry_Int_Tables_number	1
_symmetry_cell_setting	triclinic
loop_
_symmetry_equiv_pos_as_xyz
  x,y,z
_cell_length_a	14.044220
_cell_length_b	11.026607
_cell_length_c	9.482900
_cell_angle_alpha	101.401054
_cell_angle_beta	100.144013
_cell_angle_gamma	79.112553
loop_
_atom_site_label
_atom_site_type_symbol
_atom_site_fract_x
_atom_site_fract_y
_atom_site_fract_z
O1	O	-1.320298	0.280365	-0.120721
O2	O	-1.042497	0.269603	-0.120758
O3	O	-1.158374	0.095838	-0.120741
O4	O	-1.204422	0.454129	-0.120738
O5	O	-1.134863	0.131289	0.121048
O6	O	-1.018987	0.305054	0.121031
O7	O	-1.296788	0.315815	0.121068
Cu8	Cu	-1.155740	0.313671	0.143127
Cu9	Cu	-1.183545	0.271747	-0.142817
O10	O	-1.180911	0.489580	0.121051
C11	C	-0.994625	0.282619	0.000131
C12	C	-0.887004	0.268574	0.000117
C13	C	-1.138124	0.067433	0.000150
C14	C	-1.112801	-0.070024	0.000139
C15	C	-1.344661	0.302798	0.000175
C16	C	-1.452282	0.316843	0.000181
C17	C	-0.689959	0.242903	0.000145
C18	C	-0.649321	0.342508	0.000152
C19	C	-0.539678	0.328224	0.000168
C20	C	-0.799611	0.257184	0.000129
C21	C	-1.201162	0.517985	0.000157
C22	C	-1.226486	0.655441	0.000158
N23	N	-1.136191	0.343158	0.344244
C24	C	-1.156562	0.721676	0.000148
C25	C	-1.182734	0.863743	0.000149
N26	N	-1.203100	0.242251	-0.343934
C27	C	-1.177771	0.280437	0.416449
C28	C	-1.161514	0.304981	0.583864
H29	H	-0.696874	0.438510	0.000146
H30	H	-1.225399	0.208563	0.354329
H31	H	-0.642409	0.146908	0.000153
C32	C	-0.989939	0.744662	0.000108
C33	C	-1.049588	0.656256	0.000123
H34	H	-0.923898	0.704272	0.000082
H35	H	-0.994521	0.807183	0.084425
H36	H	-1.010936	0.782472	-0.084210
H37	H	-1.028595	0.618452	0.084447
H38	H	-1.045001	0.593712	-0.084202
C39	C	-1.294934	1.057234	0.000167
C40	C	-1.289714	0.929159	0.000166
H41	H	-1.360977	1.097618	0.000185
H42	H	-1.271892	1.068112	-0.084151
H43	H	-1.255484	1.092834	0.084484
H44	H	-1.329158	0.893557	-0.084157
H45	H	-1.312768	0.918273	0.084492
C46	C	-1.391587	0.668352	-0.124125
C47	C	-1.333461	0.720862	0.000165
H48	H	-1.457628	0.708746	-0.124123
H49	H	-1.388033	0.581476	-0.124109
H50	H	-1.368527	0.679244	-0.208436
H51	H	-1.356516	0.709962	0.084477
H52	H	-1.337019	0.807760	0.000163
C53	C	-1.002348	0.366829	0.631045
C54	C	-1.097203	0.402005	0.667712
H55	H	-0.962646	0.426723	0.682818
H56	H	-1.004843	0.363075	0.529552
H57	H	-0.975220	0.286840	0.655922
H58	H	-1.124334	0.481990	0.642825
H59	H	-1.094711	0.405773	0.769227
C60	C	-1.270693	0.139263	0.422607
C61	C	-1.267149	0.144930	0.572225
H62	H	-1.310162	0.079100	0.370850
H63	H	-1.206287	0.115708	0.397932
H64	H	-1.298050	0.219136	0.397567
H65	H	-1.239786	0.065059	0.597266
H66	H	-1.331568	0.168478	0.596910
H67	H	-1.033556	0.881511	0.000122
C68	C	-0.977028	0.405001	0.391430
C69	C	-1.071884	0.440177	0.428097
H70	H	-0.937326	0.464895	0.443204
H71	H	-0.979524	0.401247	0.289937
H72	H	-0.949900	0.325013	0.416307
H73	H	-1.099014	0.520162	0.403210
H74	H	-1.069392	0.443945	0.529612
