data_functionalizedCrystal
_audit_creation_method	'MofGen! by Chris Wilmer'
_symmetry_space_group_name_H-M	'P1'
_symmetry_Int_Tables_number	1
_symmetry_cell_setting	triclinic
loop_
_symmetry_equiv_pos_as_xyz
  x,y,z
_cell_length_a	12.970454
_cell_length_b	14.628931
_cell_length_c	12.970454
_cell_angle_alpha	89.999753
_cell_angle_beta	60.000396
_cell_angle_gamma	59.999940
loop_
_atom_site_label
_atom_site_type_symbol
_atom_site_fract_x
_atom_site_fract_y
_atom_site_fract_z
Zr1	Zr	1.128508	0.880623	-0.135288
O2	O	1.343596	0.734664	-0.299910
O3	O	0.913419	0.925367	-0.084824
O4	O	1.128507	0.925369	-0.299912
O5	O	1.128509	0.734661	0.084844
O6	O	1.128506	1.075801	-0.299912
O7	O	1.128508	0.734662	-0.084822
O8	O	0.743753	1.075798	0.084841
O9	O	1.513262	0.734665	-0.299909
O10	O	1.001888	1.056716	-0.063300
O11	O	1.001889	0.944450	0.063320
O12	O	1.255127	0.944452	-0.189918
O13	O	1.255128	0.832186	-0.063298
Zr14	Zr	1.128508	1.120544	0.135311
Zr15	Zr	1.128507	1.120545	-0.135288
Zr16	Zr	1.128509	0.880622	0.135310
Zr17	Zr	1.399105	0.880624	-0.135286
Zr18	Zr	0.857911	1.120543	0.135308
O19	O	1.343597	1.075800	0.084846
O20	O	1.343595	1.075802	-0.299910
O21	O	1.343598	0.734662	0.084846
O22	O	0.913420	1.266503	0.299933
O23	O	0.913418	1.266505	-0.084823
O24	O	0.913421	0.925365	0.299932
O25	O	1.128507	1.266506	-0.084822
O26	O	1.128509	1.075798	0.299934
O27	O	1.128510	0.925366	0.299934
O28	O	1.128508	1.266505	0.084845
O29	O	1.513262	0.925371	-0.299909
O30	O	0.743754	1.075796	0.299931
O31	O	0.743754	1.266502	0.299931
O32	O	0.743753	1.266504	0.084842
O33	O	1.513263	0.734663	-0.084819
O34	O	1.513263	0.925369	-0.084819
O35	O	1.001889	1.056715	0.189941
O36	O	1.001888	1.168981	0.063321
O37	O	1.255127	1.056717	-0.063298
O38	O	1.255128	0.944451	0.063322
C39	C	0.790032	1.000582	0.000008
C40	C	0.675156	1.000582	0.000007
C41	C	1.128509	0.700478	0.000011
C42	C	1.128509	0.598625	0.000011
C43	C	1.002886	0.608906	0.062822
C44	C	1.002883	0.503637	0.062823
C45	C	1.466984	1.000585	0.000014
C46	C	1.581860	1.000585	0.000015
C47	C	1.128506	1.000586	-0.338466
C48	C	1.128506	1.000586	-0.453342
C49	C	1.128507	1.300689	0.000012
C50	C	1.128507	1.402542	0.000012
C51	C	1.128510	1.000581	0.338489
C52	C	1.128510	1.000581	0.453365
C53	C	0.790031	1.300688	0.000009
C54	C	0.675155	1.402541	0.000008
C55	C	0.790033	1.000580	0.338486
C56	C	0.675158	1.000579	0.453361
C57	C	0.790033	1.300686	0.338486
C58	C	0.675157	1.402538	0.453362
C59	C	1.466984	0.700481	-0.338464
C60	C	1.581859	0.598629	-0.453339
C61	C	1.466985	0.700479	0.000014
C62	C	1.581862	0.598626	0.000014
C63	C	1.466983	1.000587	-0.338463
C64	C	1.581858	1.000588	-0.453339
C65	C	0.527723	1.450372	0.093483
C66	C	0.419770	1.546064	0.093486
C67	C	0.459251	1.593927	0.000019
C68	C	0.606697	1.546087	-0.093465
C69	C	0.714647	1.450393	-0.093473
C70	C	0.527726	1.450376	0.507307
C71	C	0.419771	1.546088	0.615232
C72	C	0.459251	1.593955	0.669216
C73	C	0.606697	1.546112	0.615261
C74	C	0.714648	1.450407	0.507332
C75	C	1.729290	0.550799	-0.507294
C76	C	1.837244	0.455109	-0.615243
C77	C	1.797764	0.407245	-0.669231
C78	C	1.650318	0.455084	-0.615271
C79	C	1.542367	0.550777	-0.507329
C80	C	1.542335	0.550793	0.093498
C81	C	1.650258	0.455101	0.093524
C82	C	1.797707	0.407239	0.000061
C83	C	1.837234	0.455081	-0.093427
C84	C	1.729311	0.550776	-0.093448
H85	H	0.895337	0.695642	0.116601
H86	H	0.299721	1.585003	0.169616
Br87	Br	0.660255	1.611057	-0.220307
Br88	Br	1.596583	0.390193	0.220410
Br89	Br	0.660253	1.611084	0.688545
Br90	Br	1.307783	0.388142	-0.089638
H91	H	1.422323	0.589709	-0.463402
H92	H	1.885570	0.329318	0.000091
H93	H	1.957300	0.416099	-0.169521
Br94	Br	0.312726	1.723800	0.000047
H95	H	0.895332	0.512265	0.116589
Br96	Br	0.474102	1.385435	0.220345
Br97	Br	1.782910	0.615735	-0.434050
H98	H	0.834691	1.411459	-0.169589
H99	H	0.834692	1.411461	0.463423
Br100	Br	2.037335	0.390203	-0.688449
H101	H	0.495553	1.411415	0.463368
Br102	Br	1.944290	0.277374	-0.815726
H103	H	1.236058	0.511889	-0.053761
Br104	Br	0.219681	1.610994	0.688436
H105	H	1.618193	0.416099	-0.659243
Br106	Br	1.342234	0.615726	0.220355
H107	H	1.761516	0.589711	-0.169579
H108	H	0.371336	1.671883	0.757099
