data_functionalizedCrystal
_audit_creation_method	'MofGen! by Chris Wilmer'
_symmetry_space_group_name_H-M	'P1'
_symmetry_Int_Tables_number	1
_symmetry_cell_setting	triclinic
loop_
_symmetry_equiv_pos_as_xyz
  x,y,z
_cell_length_a	27.732064
_cell_length_b	27.732048
_cell_length_c	16.098538
_cell_angle_alpha	92.695138
_cell_angle_beta	87.291500
_cell_angle_gamma	82.646040
loop_
_atom_site_label
_atom_site_type_symbol
_atom_site_fract_x
_atom_site_fract_y
_atom_site_fract_z
O1	O	0.643098	0.055383	-0.069116
O2	O	0.976431	0.388717	0.264218
O3	O	1.309765	0.722050	0.597551
O4	O	0.502307	0.064119	-0.069151
O5	O	0.835640	0.397453	0.264182
O6	O	1.168973	0.730786	0.597515
O7	O	0.577075	-0.010645	-0.069116
O8	O	0.910408	0.322689	0.264217
O9	O	1.243741	0.656022	0.597550
O10	O	0.568330	0.130147	-0.069150
O11	O	0.901664	0.463481	0.264183
O12	O	1.234997	0.796814	0.597516
O13	O	0.572707	-0.006294	0.069394
O14	O	0.906040	0.327039	0.402728
O15	O	1.239374	0.660372	0.736061
O16	O	0.497939	0.068470	0.069360
O17	O	0.831273	0.401803	0.402693
O18	O	1.164606	0.735136	0.736026
O19	O	0.638731	0.059734	0.069395
O20	O	0.972064	0.393067	0.402729
O21	O	1.305397	0.726400	0.736062
Zn22	Zn	0.567642	0.064792	0.091369
Zn23	Zn	0.900975	0.398126	0.424702
Zn24	Zn	1.234308	0.731459	0.758036
Zn25	Zn	0.573396	0.059061	-0.091125
Zn26	Zn	0.906729	0.392394	0.242208
Zn27	Zn	1.240063	0.725727	0.575542
O28	O	0.563963	0.134498	0.069360
O29	O	0.897296	0.467831	0.402694
O30	O	1.230629	0.801164	0.736027
C31	C	0.482116	0.066110	0.000100
C32	C	0.815450	0.399443	0.333433
C33	C	1.148783	0.732776	0.666767
C34	C	0.428462	0.065553	0.000087
C35	C	0.761796	0.398887	0.333420
C36	C	1.095129	0.732220	0.666754
C37	C	0.574707	-0.026476	0.000141
C38	C	0.908041	0.306857	0.333475
C39	C	1.241374	0.640190	0.666808
C40	C	0.574154	-0.080131	0.000148
C41	C	0.907488	0.253202	0.333481
C42	C	1.240821	0.586536	0.666815
C43	C	0.051388	0.017588	0.000146
C44	C	0.384721	0.350921	0.333479
C45	C	0.718054	0.684255	0.666813
C46	C	0.253049	0.019633	0.000124
C47	C	0.586382	0.352967	0.333457
C48	C	0.919715	0.686300	0.666791
O49	O	0.284300	-0.017586	0.000164
O50	O	0.617633	0.315747	0.333497
O51	O	0.950967	0.649080	0.666831
N52	N	0.272177	0.063967	0.000109
N53	N	0.605510	0.397301	0.333443
N54	N	0.938843	0.730634	0.666776
C55	C	0.240886	0.107793	0.000106
C56	C	0.574219	0.441126	0.333439
C57	C	0.907552	0.774460	0.666773
O58	O	0.261782	0.145549	0.000102
O59	O	0.595115	0.478882	0.333435
O60	O	0.928449	0.812216	0.666769
C61	C	0.039226	0.105747	0.000134
C62	C	0.372559	0.439081	0.333468
C63	C	0.705892	0.772414	0.666801
C64	C	0.020101	0.061410	0.000140
C65	C	0.353434	0.394744	0.333474
C66	C	0.686768	0.728077	0.666807
C67	C	0.032263	-0.026745	0.000153
C68	C	0.365596	0.306588	0.333486
C69	C	0.698929	0.639921	0.666820
C70	C	-0.018150	-0.027256	0.000154
C71	C	0.315184	0.306077	0.333487
C72	C	0.648517	0.639410	0.666821
C73	C	-0.049436	0.016566	0.000148
C74	C	0.283897	0.349899	0.333481
C75	C	0.617230	0.683233	0.666815
C76	C	-0.030311	0.060899	0.000141
C77	C	0.303022	0.394233	0.333475
C78	C	0.636355	0.727566	0.666808
C79	C	0.007935	0.149573	0.000137
C80	C	0.341269	0.482906	0.333470
C81	C	0.674602	0.816239	0.666803
C82	C	-0.042482	0.149057	0.000146
C83	C	0.290851	0.482391	0.333479
C84	C	0.624184	0.815724	0.666813
C85	C	-0.061607	0.104720	0.000152
C86	C	0.271726	0.438054	0.333485
C87	C	0.605060	0.771387	0.666819
C88	C	-0.112010	0.104210	0.000136
C89	C	0.221323	0.437544	0.333470
C90	C	0.554656	0.770877	0.666803
N91	N	-0.131138	0.059877	0.000151
N92	N	0.202195	0.393210	0.333484
N93	N	0.535528	0.726543	0.666817
C94	C	-0.099851	0.016054	0.000157
C95	C	0.233482	0.349388	0.333490
C96	C	0.566815	0.682721	0.666823
C97	C	0.346761	0.108864	0.000090
C98	C	0.680094	0.442197	0.333423
C99	C	1.013427	0.775531	0.666756
C100	C	0.397176	0.109376	0.000081
C101	C	0.730509	0.442709	0.333415
C102	C	1.063842	0.776042	0.666748
C103	C	0.409335	0.021216	0.000101
C104	C	0.742668	0.354549	0.333434
C105	C	1.076002	0.687882	0.666767
C106	C	0.358919	0.020705	0.000103
C107	C	0.692253	0.354038	0.333436
C108	C	1.025586	0.687371	0.666770
C109	C	0.327633	0.064530	0.000104
C110	C	0.660966	0.397863	0.333437
C111	C	0.994299	0.731197	0.666771
C112	C	-0.205721	0.014984	0.000158
C113	C	0.127612	0.348318	0.333491
C114	C	0.460946	0.681651	0.666825
C115	C	-0.256138	0.014477	0.000155
C116	C	0.077195	0.347810	0.333489
C117	C	0.410529	0.681144	0.666822
C118	C	-0.268293	0.102637	0.000141
C119	C	0.065040	0.435970	0.333474
C120	C	0.398373	0.769303	0.666807
C121	C	-0.217880	0.103144	0.000139
C122	C	0.115453	0.436477	0.333472
C123	C	0.448786	0.769811	0.666805
C124	C	-0.186595	0.059314	0.000150
C125	C	0.146738	0.392647	0.333483
C126	C	0.480072	0.725981	0.666817
O127	O	-0.143290	0.141411	0.000106
O128	O	0.190043	0.474744	0.333439
O129	O	0.523376	0.808077	0.666772
O130	O	-0.120758	-0.021695	0.000179
O131	O	0.212576	0.311638	0.333513
O132	O	0.545909	0.644971	0.666846
C133	C	0.101800	0.018099	0.000145
C134	C	0.435133	0.351432	0.333478
C135	C	0.768467	0.684766	0.666812
C136	C	0.120925	0.062432	0.000138
C137	C	0.454258	0.395766	0.333472
C138	C	0.787592	0.729099	0.666805
C139	C	0.089638	0.106255	0.000132
C140	C	0.422972	0.439588	0.333466
C141	C	0.756305	0.772921	0.666799
C142	C	0.171340	0.062944	0.000130
C143	C	0.504673	0.396277	0.333463
C144	C	0.838007	0.729611	0.666796
C145	C	0.202627	0.019122	0.000136
C146	C	0.535960	0.352455	0.333469
C147	C	0.869294	0.685788	0.666802
C148	C	0.183499	-0.025212	0.000150
C149	C	0.516832	0.308121	0.333483
C150	C	0.850166	0.641454	0.666817
C151	C	0.133087	-0.025723	0.000151
C152	C	0.466420	0.307610	0.333484
C153	C	0.799754	0.640943	0.666818
C154	C	0.108766	0.150588	0.000118
C155	C	0.442100	0.483922	0.333451
C156	C	0.775433	0.817255	0.666785
C157	C	0.159179	0.151096	0.000116
C158	C	0.492512	0.484429	0.333449
C159	C	0.825846	0.817763	0.666783
C160	C	0.190466	0.107274	0.000122
C161	C	0.523799	0.440607	0.333455
C162	C	0.857132	0.773940	0.666789
C163	C	0.614859	-0.418945	0.000115
C164	C	0.948192	-0.085611	0.333449
C165	C	1.281525	0.247722	0.666782
C166	C	0.612808	-0.620605	0.000103
C167	C	0.946141	-0.287272	0.333437
C168	C	1.279475	0.046062	0.666770
O169	O	0.650029	-0.651859	0.000076
O170	O	0.983363	-0.318526	0.333410
O171	O	1.316696	0.014808	0.666743
N172	N	0.568474	-0.639732	0.000093
N173	N	0.901807	-0.306398	0.333426
N174	N	1.235140	0.026935	0.666760
C175	C	0.524649	-0.608440	0.000080
C176	C	0.857982	-0.275107	0.333413
C177	C	1.191315	0.058227	0.666747
O178	O	0.486893	-0.629336	0.000062
O179	O	0.820226	-0.296003	0.333396
O180	O	1.153559	0.037331	0.666729
C181	C	0.526700	-0.406781	0.000086
C182	C	0.860033	-0.073448	0.333420
C183	C	1.193367	0.259886	0.666753
C184	C	0.571037	-0.387657	0.000105
C185	C	0.904370	-0.054324	0.333438
C186	C	1.237704	0.279010	0.666772
C187	C	0.659192	-0.399820	0.000133
C188	C	0.992526	-0.066487	0.333467
C189	C	1.325859	0.266846	0.666800
C190	C	0.659704	-0.349408	0.000141
C191	C	0.993038	-0.016075	0.333474
C192	C	1.326371	0.317259	0.666808
C193	C	0.615883	-0.318120	0.000131
C194	C	0.949216	0.015213	0.333464
C195	C	1.282549	0.348546	0.666797
C196	C	0.571549	-0.337245	0.000113
C197	C	0.904883	-0.003911	0.333446
C198	C	1.238216	0.329422	0.666779
C199	C	0.482876	-0.375491	0.000067
C200	C	0.816209	-0.042157	0.333401
C201	C	1.149543	0.291176	0.666734
C202	C	0.483393	-0.325073	0.000067
C203	C	0.816726	0.008260	0.333400
C204	C	1.150059	0.341593	0.666734
C205	C	0.527730	-0.305949	0.000086
C206	C	0.861063	0.027384	0.333419
C207	C	1.194397	0.360717	0.666752
C208	C	0.528240	-0.255545	0.000110
C209	C	0.861573	0.077788	0.333443
C210	C	1.194906	0.411122	0.666777
N211	N	0.572574	-0.236418	0.000120
N212	N	0.905908	0.096915	0.333454
N213	N	1.239241	0.430249	0.666787
C214	C	0.616396	-0.267706	0.000131
C215	C	0.949729	0.065627	0.333464
C216	C	1.283062	0.398961	0.666797
C217	C	0.523575	-0.714314	0.000078
C218	C	0.856908	-0.380981	0.333412
C219	C	1.190242	-0.047647	0.666745
C220	C	0.523062	-0.764729	0.000078
C221	C	0.856395	-0.431395	0.333412
C222	C	1.189729	-0.098062	0.666745
C223	C	0.611221	-0.776890	0.000100
C224	C	0.944555	-0.443557	0.333433
C225	C	1.277888	-0.110223	0.666767
C226	C	0.611734	-0.726475	0.000106
C227	C	0.945067	-0.393141	0.333439
C228	C	1.278400	-0.059808	0.666773
C229	C	0.567909	-0.695187	0.000089
C230	C	0.901243	-0.361854	0.333422
C231	C	1.234576	-0.028521	0.666756
C232	C	0.617468	-0.161836	0.000147
C233	C	0.950801	0.171497	0.333481
C234	C	1.284134	0.504831	0.666814
C235	C	0.617976	-0.111419	0.000158
C236	C	0.951309	0.221915	0.333492
C237	C	1.284642	0.555248	0.666825
C238	C	0.529817	-0.099262	0.000132
C239	C	0.863150	0.234071	0.333466
C240	C	1.196483	0.567405	0.666799
C241	C	0.529308	-0.149675	0.000126
C242	C	0.862641	0.183659	0.333459
C243	C	1.195975	0.516992	0.666792
C244	C	0.573138	-0.180961	0.000130
C245	C	0.906471	0.152372	0.333464
C246	C	1.239804	0.485706	0.666797
O247	O	0.491039	-0.224263	0.000128
O248	O	0.824372	0.109071	0.333461
O249	O	1.157705	0.442404	0.666794
O250	O	0.654147	-0.246801	0.000130
O251	O	0.987480	0.086532	0.333463
O252	O	1.320813	0.419866	0.666797
C253	C	0.614347	-0.469357	0.000108
C254	C	0.947680	-0.136024	0.333441
C255	C	1.281013	0.197310	0.666775
C256	C	0.570013	-0.488481	0.000090
C257	C	0.903346	-0.155148	0.333423
C258	C	1.236680	0.178185	0.666757
C259	C	0.526192	-0.457194	0.000080
C260	C	0.859525	-0.123860	0.333413
C261	C	1.192858	0.209473	0.666746
C262	C	0.569500	-0.538896	0.000090
C263	C	0.902833	-0.205563	0.333423
C264	C	1.236167	0.127771	0.666757
C265	C	0.613322	-0.570184	0.000100
C266	C	0.946655	-0.236850	0.333434
C267	C	1.279988	0.096483	0.666767
C268	C	0.657656	-0.551057	0.000111
C269	C	0.990989	-0.217724	0.333444
C270	C	1.324323	0.115610	0.666777
C271	C	0.658168	-0.500645	0.000118
C272	C	0.991501	-0.167311	0.333452
C273	C	1.324835	0.166022	0.666785
C274	C	0.481857	-0.476320	0.000069
C275	C	0.815190	-0.142987	0.333403
C276	C	1.148524	0.190346	0.666736
C277	C	0.481349	-0.526733	0.000063
C278	C	0.814682	-0.193400	0.333396
C279	C	1.148015	0.139934	0.666729
C280	C	0.525170	-0.558021	0.000073
C281	C	0.858503	-0.224688	0.333406
C282	C	1.191837	0.108646	0.666740
C283	C	0.658921	0.057743	0.000142
C284	C	0.992254	0.391076	0.333476
C285	C	1.325588	0.724410	0.666809
C286	C	0.712575	0.058299	0.000150
C287	C	1.045908	0.391633	0.333483
C288	C	1.379242	0.724966	0.666816
C289	C	0.566330	0.150329	0.000101
C290	C	0.899664	0.483662	0.333434
C291	C	1.232997	0.816996	0.666768
C292	C	0.566883	0.203984	0.000089
C293	C	0.900217	0.537317	0.333422
C294	C	1.233550	0.870650	0.666755
N295	N	0.563718	0.068704	0.215916
N296	N	0.897051	0.402037	0.549250
N297	N	1.230385	0.735370	0.882583
N298	N	0.577323	0.055145	-0.215672
N299	N	0.910657	0.388479	0.117661
N300	N	1.243990	0.721812	0.450994
C301	C	0.595464	0.036982	0.259516
C302	C	0.928797	0.370315	0.592850
C303	C	1.262130	0.703649	0.926183
C304	C	0.592723	0.039723	0.346704
C305	C	0.926057	0.373056	0.680037
C306	C	1.259390	0.706389	1.013371
C307	C	0.558239	0.074188	0.390290
C308	C	0.891573	0.407521	0.723624
C309	C	1.224906	0.740855	1.056957
C310	C	0.526490	0.105911	0.346684
C311	C	0.859823	0.439244	0.680018
C312	C	1.193157	0.772578	1.013351
C313	C	0.529228	0.103168	0.259498
C314	C	0.862562	0.436501	0.592832
C315	C	1.195895	0.769834	0.926165
C316	C	0.548312	0.084125	0.653536
C317	C	0.881646	0.417458	0.986869
C318	C	1.214979	0.750792	1.320202
C319	C	0.545577	0.086867	0.740728
C320	C	0.878911	0.420200	1.074061
C321	C	1.212244	0.753534	1.407394
C322	C	0.611811	0.020678	0.740741
C323	C	0.945144	0.354011	1.074075
C324	C	1.278477	0.687344	1.407408
C325	C	0.614548	0.017939	0.653554
C326	C	0.947881	0.351273	0.986887
C327	C	1.281215	0.684606	1.320220
C328	C	0.582797	0.049661	0.609955
C329	C	0.916130	0.382994	0.943289
C330	C	1.249464	0.716327	1.276622
C331	C	0.555438	0.076991	0.479410
C332	C	0.888772	0.410325	0.812743
C333	C	1.222105	0.743658	1.146077
C334	C	0.585596	0.046855	0.520837
C335	C	0.918929	0.380188	0.854170
C336	C	1.252262	0.713521	1.187504
H337	H	-0.271706	-0.021629	0.000158
H338	H	0.061627	0.311704	0.333491
H339	H	0.394961	0.645038	0.666825
C340	C	0.627635	0.004815	0.394660
C341	C	0.960969	0.338148	0.727993
C342	C	1.294302	0.671481	1.061326
N343	N	0.653928	-0.021484	0.430780
N344	N	0.987261	0.311849	0.764113
N345	N	1.320595	0.645182	1.097446
C346	C	0.666752	-0.090386	0.000177
C347	C	1.000085	0.242947	0.333510
C348	C	1.333419	0.576280	0.666843
N349	N	0.703490	-0.074546	0.000188
N350	N	1.036823	0.258787	0.333521
N351	N	1.370156	0.592120	0.666855
H352	H	0.517495	0.114935	0.776212
H353	H	0.850828	0.448268	1.109545
H354	H	1.184161	0.781601	1.442878
C355	C	0.633399	-0.000933	0.211579
C356	C	0.966733	0.332400	0.544913
C357	C	1.300066	0.665734	0.878246
N358	N	0.661972	-0.029493	0.175476
N359	N	0.995305	0.303840	0.508809
N360	N	1.328638	0.637174	0.842142
C361	C	0.708479	-0.328379	0.000153
C362	C	1.041813	0.004954	0.333486
C363	C	1.375146	0.338288	0.666820
N364	N	0.745219	-0.312544	0.000158
N365	N	1.078553	0.020790	0.333492
N366	N	1.411886	0.354123	0.666825
C367	C	-0.171314	-0.033231	0.000164
C368	C	0.162020	0.300102	0.333498
C369	C	0.495353	0.633435	0.666831
N370	N	-0.145398	-0.069547	0.000163
N371	N	0.187935	0.263786	0.333496
N372	N	0.521268	0.597119	0.666829
H373	H	-0.293776	0.138315	0.000132
H374	H	0.039558	0.471649	0.333465
H375	H	0.372891	0.804982	0.666798
C376	C	0.066671	-0.074958	0.000156
C377	C	0.400005	0.258375	0.333489
C378	C	0.733338	0.591709	0.666823
N379	N	0.092586	-0.111275	0.000151
N380	N	0.425919	0.222058	0.333484
N381	N	0.759252	0.555391	0.666818
C382	C	0.652481	-0.019978	0.605615
C383	C	0.985814	0.313356	0.938948
C384	C	1.319147	0.646689	1.272282
N385	N	0.681053	-0.048537	0.569508
N386	N	1.014386	0.284797	0.902841
N387	N	1.347719	0.618130	1.236175
H388	H	-0.202309	0.139247	0.000133
H389	H	0.131025	0.472580	0.333466
H390	H	0.464358	0.805913	0.666799
C391	C	0.217924	-0.073417	0.000161
C392	C	0.551258	0.259917	0.333495
C393	C	0.884591	0.593250	0.666828
N394	N	0.243855	-0.109722	0.000176
N395	N	0.577189	0.223611	0.333510
N396	N	0.910522	0.556945	0.666843
C397	C	0.513447	0.119082	0.605589
C398	C	0.846781	0.452415	0.938922
C399	C	1.180114	0.785749	1.272256
N400	N	0.487208	0.145436	0.569472
N401	N	0.820541	0.478769	0.902806
N402	N	1.153874	0.812102	1.236139
H403	H	0.321291	0.144554	0.000089
H404	H	0.654624	0.477887	0.333423
H405	H	0.987957	0.811221	0.666756
C406	C	0.180209	0.199874	0.000113
C407	C	0.513543	0.533207	0.333446
C408	C	0.846876	0.866540	0.666779
N409	N	0.196047	0.236612	0.000120
N410	N	0.529381	0.569946	0.333453
N411	N	0.862714	0.903279	0.666786
H412	H	0.613671	0.018791	0.485347
H413	H	0.947005	0.352125	0.818680
H414	H	1.280338	0.685458	1.152013
H415	H	0.446772	-0.391052	0.000047
H416	H	0.780105	-0.057719	0.333380
H417	H	1.113439	0.275615	0.666714
H418	H	0.434818	-0.014466	0.000102
H419	H	0.768151	0.318867	0.333436
H420	H	1.101484	0.652201	0.666769
C421	C	-0.076895	0.197270	0.000145
C422	C	0.256438	0.530604	0.333478
C423	C	0.589771	0.863937	0.666811
N424	N	-0.102814	0.233584	0.000140
N425	N	0.230520	0.566917	0.333474
N426	N	0.563853	0.900251	0.666807
H427	H	0.117521	-0.061827	0.000156
H428	H	0.450854	0.271506	0.333489
H429	H	0.784187	0.604840	0.666823
C430	C	0.418207	0.158149	0.000068
C431	C	0.751540	0.491483	0.333401
C432	C	1.084873	0.824816	0.666734
N433	N	0.434045	0.194888	0.000064
N434	N	0.767379	0.528221	0.333398
N435	N	1.100712	0.861554	0.666731
C436	C	0.433647	-0.441910	0.000056
C437	C	0.766980	-0.108577	0.333390
C438	C	1.100314	0.224757	0.666723
N439	N	0.397332	-0.415994	0.000050
N440	N	0.730665	-0.082660	0.333383
N441	N	1.063999	0.250673	0.666717
C442	C	-0.039180	-0.076030	0.000181
C443	C	0.294153	0.257303	0.333514
C444	C	0.627486	0.590636	0.666847
N445	N	-0.055017	-0.112769	0.000209
N446	N	0.278316	0.220564	0.333542
N447	N	0.611649	0.553897	0.666875
H448	H	0.498410	0.133972	0.382177
H449	H	0.831743	0.467305	0.715511
H450	H	1.165076	0.800639	1.048844
H451	H	0.637660	-0.005149	0.776247
H452	H	0.970994	0.328184	1.109580
H453	H	1.304327	0.661518	1.442914
H454	H	0.653158	-0.187304	0.000148
H455	H	0.986491	0.146029	0.333481
H456	H	1.319825	0.479362	0.666815
H457	H	0.694272	-0.485079	0.000133
H458	H	1.027605	-0.151746	0.333467
H459	H	1.360939	0.181588	0.666800
H460	H	0.647837	-0.710908	0.000121
H461	H	0.981170	-0.377574	0.333454
H462	H	1.314504	-0.044241	0.666787
H463	H	0.343352	-0.015398	0.000109
H464	H	0.676685	0.317935	0.333442
H465	H	1.010019	0.651268	0.666775
H466	H	0.693337	-0.576540	0.000123
H467	H	1.026670	-0.243207	0.333456
H468	H	1.360004	0.090126	0.666789
H469	H	0.023497	0.185676	0.000128
H470	H	0.356831	0.519010	0.333462
H471	H	0.690164	0.852343	0.666795
C472	C	0.494309	0.138068	0.211539
C473	C	0.827642	0.471401	0.544872
C474	C	1.160976	0.804735	0.878206
N475	N	0.468007	0.164356	0.175417
N476	N	0.801340	0.497690	0.508750
N477	N	1.134674	0.831023	0.842084
C478	C	0.074357	0.198799	0.000116
C479	C	0.407690	0.532133	0.333450
C480	C	0.741023	0.865466	0.666783
N481	N	0.048441	0.235115	0.000113
N482	N	0.381774	0.568449	0.333447
N483	N	0.715107	0.901782	0.666780
C484	C	0.707404	-0.434230	0.000154
C485	C	1.040737	-0.100896	0.333487
C486	C	1.374070	0.232437	0.666820
N487	N	0.743719	-0.460144	0.000178
N488	N	1.077053	-0.126810	0.333511
N489	N	1.410386	0.206523	0.666845
C490	C	0.475361	-0.679904	0.000060
C491	C	0.808695	-0.346570	0.333394
C492	C	1.142028	-0.013237	0.666727
N493	N	0.439046	-0.653988	0.000049
N494	N	0.772379	-0.320655	0.333382
N495	N	1.105713	0.012679	0.666715
C496	C	0.435181	-0.290660	0.000051
C497	C	0.768514	0.042674	0.333384
C498	C	1.101848	0.376007	0.666717
N499	N	0.398868	-0.264741	0.000042
N500	N	0.732201	0.068593	0.333375
N501	N	1.065534	0.401926	0.666709
C502	C	0.480535	-0.170711	0.000110
C503	C	0.813869	0.162622	0.333444
C504	C	1.147202	0.495955	0.666777
N505	N	0.443799	-0.186553	0.000090
N506	N	0.777132	0.146780	0.333423
N507	N	1.110465	0.480114	0.666756
H508	H	0.646903	-0.802373	0.000109
H509	H	0.980236	-0.469040	0.333442
H510	H	1.313569	-0.135707	0.666776
H511	H	0.494138	-0.073778	0.000127
H512	H	0.827472	0.259555	0.333460
H513	H	1.160805	0.592888	0.666793
C514	C	0.432571	-0.547763	0.000043
C515	C	0.765904	-0.214429	0.333376
C516	C	1.099237	0.118904	0.666709
N517	N	0.395832	-0.563601	0.000020
N518	N	0.729166	-0.230268	0.333353
N519	N	1.062499	0.103066	0.666686
H520	H	0.486958	-0.780294	0.000078
H521	H	0.820291	-0.446961	0.333411
H522	H	1.153624	-0.113627	0.666744
H523	H	0.527361	0.105054	0.514905
H524	H	0.860695	0.438388	0.848239
H525	H	1.194028	0.771721	1.181572
