data_functionalizedCrystal
_audit_creation_method	'MofGen! by Chris Wilmer'
_symmetry_space_group_name_H-M	'P1'
_symmetry_Int_Tables_number	1
_symmetry_cell_setting	triclinic
loop_
_symmetry_equiv_pos_as_xyz
  x,y,z
_cell_length_a	14.908571
_cell_length_b	12.594516
_cell_length_c	14.908308
_cell_angle_alpha	93.270535
_cell_angle_beta	89.824947
_cell_angle_gamma	93.276863
loop_
_atom_site_label
_atom_site_type_symbol
_atom_site_fract_x
_atom_site_fract_y
_atom_site_fract_z
Zn1	Zn	1.345242	0.555454	0.587610
Zn2	Zn	1.353806	0.723808	0.437258
Zn3	Zn	1.203559	0.535010	0.428606
Zn4	Zn	1.194834	0.722543	0.578910
O5	O	1.274360	0.634204	0.508096
O6	O	1.472203	0.586871	0.574927
O7	O	1.341111	0.690737	0.310286
O8	O	1.222421	0.388782	0.449719
O9	O	1.478495	0.710560	0.464464
O10	O	1.326515	0.403802	0.566538
O11	O	1.230726	0.552028	0.303929
O12	O	1.076577	0.550802	0.441283
O13	O	1.207550	0.708405	0.705889
O14	O	1.070166	0.688581	0.551710
O15	O	1.318054	0.585645	0.712281
O16	O	1.332651	0.872580	0.456029
O17	O	1.215855	0.871651	0.560100
C18	C	1.040747	0.617337	0.494614
C19	C	0.940804	0.610148	0.488868
C20	C	0.746384	0.740311	0.592903
C21	C	0.652479	0.733560	0.587507
C22	C	0.659088	0.589891	0.472685
C23	C	0.752992	0.596642	0.478081
C24	C	0.796637	0.671855	0.538191
C25	C	0.890544	0.678611	0.543582
C26	C	0.897151	0.534937	0.428765
C27	C	0.803246	0.528186	0.423369
C28	C	1.274259	0.910737	0.508080
C29	C	1.274296	1.029046	0.508108
C30	C	1.210756	1.097829	0.564668
C31	C	1.193576	1.161849	0.481360
C32	C	1.291523	1.175830	0.591432
C33	C	1.257075	1.091502	0.424754
C34	C	1.355057	1.105483	0.534883
C35	C	1.337912	1.169470	0.451520
C36	C	1.508887	0.651137	0.521631
C37	C	1.608828	0.658353	0.527399
C38	C	1.260874	0.649164	0.742622
C39	C	1.255127	0.655540	0.842563
C40	C	1.274447	1.356591	0.508130
C41	C	1.274382	1.238282	0.508135
C42	C	1.287846	0.619228	0.274485
C43	C	1.293768	0.612565	0.174555
C44	C	1.359392	0.539665	1.037020
C45	C	1.353995	0.545652	1.130924
C46	C	1.238931	0.673494	1.124276
C47	C	1.244328	0.667507	1.030372
C48	C	1.304562	0.600592	0.986748
C49	C	1.309963	0.594611	0.892843
C50	C	1.194895	0.722447	0.886196
C51	C	1.189498	0.728434	0.980100
H52	H	0.611566	0.789301	0.632061
C53	C	1.084989	0.716182	1.144394
C54	C	1.172718	0.747035	1.172232
H55	H	1.044111	0.761581	1.174003
H56	H	1.080367	0.721346	1.081281
H57	H	1.070990	0.644698	1.159032
H58	H	1.186720	0.818517	1.157587
H59	H	1.177343	0.741882	1.235358
C60	C	1.436990	0.581802	0.794219
C61	C	1.376166	0.521055	0.844886
H62	H	1.477862	0.536386	0.764620
H63	H	1.405110	0.617223	0.750841
H64	H	1.469261	0.632985	0.832840
H65	H	1.343890	0.469878	0.806265
H66	H	1.408050	0.485617	0.888269
H67	H	1.150250	0.772061	0.845254
H68	H	0.623535	0.528649	0.423752
H69	H	1.391686	1.200713	0.403641
H70	H	0.938077	0.479198	0.384212
C71	C	0.874576	0.819930	0.656546
C72	C	0.938521	0.761278	0.609659
H73	H	0.904195	0.870959	0.697345
H74	H	0.840189	0.855441	0.615212
H75	H	0.835986	0.773167	0.688893
H76	H	0.977108	0.808040	0.577307
H77	H	0.972923	0.725766	0.650999
C78	C	0.662229	0.454040	0.364117
C79	C	0.755266	0.445513	0.357299
H80	H	0.632612	0.403004	0.323323
H81	H	0.643392	0.441317	0.423662
H82	H	0.647587	0.523581	0.349973
H83	H	0.769908	0.375975	0.371449
H84	H	0.774110	0.458229	0.297740
C85	C	1.053652	1.083534	0.600887
C86	C	1.138126	1.055359	0.629133
H87	H	1.008814	1.057307	0.640679
H88	H	1.052832	1.158892	0.600943
H89	H	1.042017	1.053495	0.541886
H90	H	1.149764	1.085405	0.688132
H91	H	1.138948	0.979987	0.629086
C92	C	1.112041	1.252233	0.372957
C93	C	1.101431	1.195605	0.450794
H94	H	1.055152	1.273064	0.354090
H95	H	1.150828	1.313789	0.385241
H96	H	1.137325	1.208242	0.326747
H97	H	1.076153	1.239599	0.497006
H98	H	1.062629	1.134040	0.438514
C99	C	1.237428	0.930869	0.330465
C100	C	1.237335	1.041978	0.329608
H101	H	1.225233	0.900296	0.271729
H102	H	1.294575	0.911163	0.349553
H103	H	1.192525	0.905794	0.370686
H104	H	1.282242	1.067054	0.289393
H105	H	1.180180	1.061692	0.310509
H106	H	1.423297	1.080463	0.557547
H107	H	1.306061	1.212644	0.661888
H108	H	1.408441	0.485186	1.001501
H109	H	1.398642	0.496036	1.171852
C110	C	1.143967	0.907344	1.006466
C111	C	1.123293	0.801987	1.028055
H112	H	1.103091	0.952752	1.036068
H113	H	1.203483	0.928246	1.025345
H114	H	1.139334	0.912485	0.943344
H115	H	1.127933	0.796844	1.091177
H116	H	1.063763	0.781078	1.009182
H117	H	0.781921	0.801558	0.641843
