data_functionalizedCrystal
_audit_creation_method	'MofGen! by Chris Wilmer'
_symmetry_space_group_name_H-M	'P1'
_symmetry_Int_Tables_number	1
_symmetry_cell_setting	triclinic
loop_
_symmetry_equiv_pos_as_xyz
  x,y,z
_cell_length_a	12.594517
_cell_length_b	16.625546
_cell_length_c	12.594509
_cell_angle_alpha	90.033269
_cell_angle_beta	89.978673
_cell_angle_gamma	89.977732
loop_
_atom_site_label
_atom_site_type_symbol
_atom_site_fract_x
_atom_site_fract_y
_atom_site_fract_z
Zn1	Zn	1.627220	0.320982	-0.601823
Zn2	Zn	2.127220	0.820982	-0.101823
Zn3	Zn	1.627090	0.455832	-0.423829
Zn4	Zn	2.127090	0.955832	0.076171
Zn5	Zn	1.449223	0.321016	-0.423852
Zn6	Zn	1.949223	0.821016	0.076148
Zn7	Zn	1.449186	0.455775	-0.601759
Zn8	Zn	1.949186	0.955775	-0.101759
O9	O	1.538180	0.388401	-0.512815
O10	O	2.038180	0.888401	-0.012815
O11	O	1.776148	0.338879	-0.578229
O12	O	2.276148	0.838879	-0.078229
O13	O	1.603458	0.437986	-0.274886
O14	O	2.103458	0.937986	0.225114
O15	O	1.472905	0.208179	-0.447496
O16	O	1.972905	0.708179	0.052504
O17	O	1.776053	0.437952	-0.447457
O18	O	2.276053	0.937952	0.052543
O19	O	1.603678	0.208154	-0.578251
O20	O	2.103678	0.708154	-0.078251
O21	O	1.472780	0.338938	-0.274903
O22	O	1.972780	0.838938	0.225097
O23	O	1.300273	0.338883	-0.447434
O24	O	1.800273	0.838883	0.052566
O25	O	1.472840	0.437857	-0.750713
O26	O	1.972840	0.937857	-0.250713
O27	O	1.300245	0.437890	-0.578142
O28	O	1.800245	0.937890	-0.078142
O29	O	1.603641	0.338824	-0.750760
O30	O	2.103641	0.838824	-0.250760
O31	O	1.603421	0.568656	-0.447395
O32	O	2.103421	1.068656	0.052605
O33	O	1.472715	0.568615	-0.578119
O34	O	1.972715	1.068615	-0.078119
C35	C	1.261639	0.388385	-0.512784
C36	C	1.761639	0.888385	-0.012784
C37	C	1.143333	0.388398	-0.512796
C38	C	1.643333	0.888398	-0.012796
C39	C	1.538079	0.597892	-0.512771
C40	C	2.038079	1.097892	-0.012771
C41	C	1.538133	0.687513	-0.512787
C42	C	2.038133	1.187513	-0.012787
C43	C	1.538251	0.388331	-0.790436
C44	C	2.038251	0.888331	-0.290436
C45	C	1.538281	0.388300	-0.908742
C46	C	2.038281	0.888300	-0.408742
C47	C	1.074064	0.334474	-0.441840
C48	C	1.574064	0.834474	0.058160
C49	C	1.003243	0.408023	-0.415651
C50	C	1.503243	0.908023	0.084349
C51	C	1.003356	0.314885	-0.539003
C52	C	1.503356	0.814885	-0.039003
C53	C	1.074070	0.461985	-0.486557
C54	C	1.574070	0.961985	0.013443
C55	C	1.074190	0.368797	-0.609953
C56	C	1.574190	0.868797	-0.109953
C57	C	1.003400	0.442397	-0.583802
C58	C	1.503400	0.942397	-0.083802
C59	C	1.815801	0.388418	-0.512847
C60	C	2.315801	0.888418	-0.012847
C61	C	1.934106	0.388425	-0.512861
C62	C	2.434106	0.888425	-0.012861
C63	C	1.538310	0.178092	-0.512883
C64	C	2.038310	0.678092	-0.012883
C65	C	1.538365	0.088471	-0.512912
C66	C	2.038365	0.588471	-0.012912
C67	C	1.538319	1.015689	-0.512898
C68	C	2.038319	1.515689	-0.012898
C69	C	1.538264	0.924380	-0.512870
C70	C	2.038264	1.424380	-0.012870
C71	C	1.538225	0.851604	-0.512842
C72	C	2.038225	1.351604	-0.012842
C73	C	1.538172	0.760290	-0.512815
C74	C	2.038172	1.260290	-0.012815
C75	C	1.467161	0.442134	-0.977970
C76	C	1.967161	0.942134	-0.477970
C77	C	1.564279	0.461835	-1.048758
C78	C	2.064279	0.961835	-0.548758
C79	C	1.441240	0.368551	-1.048753
C80	C	1.941240	0.868551	-0.548753
C81	C	1.635450	0.408040	-0.977972
C82	C	2.135450	0.908040	-0.477972
C83	C	1.512345	0.314722	-0.977961
C84	C	2.012345	0.814722	-0.477961
C85	C	1.609530	0.334395	-1.048717
C86	C	2.109530	0.834395	-0.548717
C87	C	1.538170	0.388413	-0.236274
C88	C	2.038170	0.888413	0.263726
C89	C	1.538346	0.388216	-0.117970
C90	C	2.038346	0.888216	0.382030
H91	H	1.105092	0.288917	-0.381760
H92	H	1.605092	0.788917	0.118240
H93	H	1.717568	0.424780	-0.947011
H94	H	2.217568	0.924780	-0.447011
N95	N	1.115034	0.544370	-0.457086
N96	N	1.615034	1.044370	0.042914
H97	H	1.053141	0.581693	-0.443800
H98	H	1.553141	1.081693	0.056200
H99	H	1.159788	0.566168	-0.517074
H100	H	1.659788	1.066168	-0.017074
H101	H	0.972567	0.488063	-0.643835
H102	H	1.472567	0.988063	-0.143835
H103	H	1.586251	0.524022	-1.079855
H104	H	2.086251	1.024022	-0.579855
H105	H	1.359146	0.351882	-1.079845
H106	H	1.859146	0.851882	-0.579845
H107	H	1.490344	0.252552	-0.946840
H108	H	1.990344	0.752552	-0.446840
N109	N	0.961962	0.430013	-0.306858
N110	N	1.461962	0.930013	0.193142
H111	H	0.987155	0.388983	-0.253384
H112	H	1.487155	0.888983	0.246616
H113	H	0.881789	0.430838	-0.308116
H114	H	1.381789	0.930838	0.191884
N115	N	1.115500	0.346795	-0.718723
N116	N	1.615500	0.846795	-0.218723
H117	H	1.089824	0.291214	-0.738433
H118	H	1.589824	0.791214	-0.238433
H119	H	1.195680	0.347515	-0.717979
H120	H	1.695680	0.847515	-0.217979
H121	H	0.972239	0.252713	-0.561104
H122	H	1.472239	0.752713	-0.061104
H123	H	1.407064	0.487729	-0.946907
H124	H	1.907064	0.987729	-0.446907
N125	N	1.689324	0.274053	-1.089626
N126	N	2.189324	0.774053	-0.589626
H127	H	1.670378	0.218665	-1.062735
H128	H	2.170378	0.718665	-0.562735
H129	H	1.762551	0.289120	-1.063728
H130	H	2.262551	0.789120	-0.563728
