data_functionalizedCrystal
_audit_creation_method	'MofGen! by Chris Wilmer'
_symmetry_space_group_name_H-M	'P1'
_symmetry_Int_Tables_number	1
_symmetry_cell_setting	triclinic
loop_
_symmetry_equiv_pos_as_xyz
  x,y,z
_cell_length_a	16.120490
_cell_length_b	16.120484
_cell_length_c	12.827885
_cell_angle_alpha	87.136072
_cell_angle_beta	92.917123
_cell_angle_gamma	90.164100
loop_
_atom_site_label
_atom_site_type_symbol
_atom_site_fract_x
_atom_site_fract_y
_atom_site_fract_z
Zn1	Zn	1.254492	-0.395626	0.695598
Zn2	Zn	1.587825	-0.062293	1.028931
Zn3	Zn	1.921158	0.271040	1.362265
Zn4	Zn	1.247331	-0.534698	0.529224
Zn5	Zn	1.580664	-0.201364	0.862557
Zn6	Zn	1.913998	0.131969	1.195890
Zn7	Zn	1.115427	-0.388599	0.511596
Zn8	Zn	1.448760	-0.055266	0.844929
Zn9	Zn	1.782093	0.278068	1.178262
Zn10	Zn	1.108344	-0.527572	0.694646
Zn11	Zn	1.441677	-0.194238	1.027979
Zn12	Zn	1.775010	0.139095	1.361313
O13	O	1.181398	-0.461624	0.607766
O14	O	1.514732	-0.128290	0.941099
O15	O	1.848065	0.205043	1.274432
O16	O	1.369908	-0.419998	0.681304
O17	O	1.703241	-0.086665	1.014637
O18	O	2.036574	0.246669	1.347971
O19	O	1.229801	-0.515359	0.380650
O20	O	1.563134	-0.182025	0.713983
O21	O	1.896468	0.151308	1.047316
O22	O	1.139835	-0.273169	0.529025
O23	O	1.473169	0.060165	0.862358
O24	O	1.806502	0.393498	1.195692
O25	O	1.364647	-0.522173	0.559069
O26	O	1.697980	-0.188840	0.892403
O27	O	2.031313	0.144494	1.225736
O28	O	1.242006	-0.278332	0.664211
O29	O	1.575339	0.055001	0.997544
O30	O	1.908672	0.388335	1.330878
O31	O	1.132892	-0.408021	0.367698
O32	O	1.466225	-0.074687	0.701032
O33	O	1.799558	0.258646	1.034365
O34	O	0.998121	-0.401111	0.528102
O35	O	1.331455	-0.067777	0.861435
O36	O	1.664788	0.265556	1.194768
O37	O	1.127763	-0.510027	0.841008
O38	O	1.461097	-0.176694	1.174341
O39	O	1.794430	0.156639	1.507675
O40	O	0.992918	-0.503213	0.662588
O41	O	1.326251	-0.169880	0.995921
O42	O	1.659584	0.163453	1.329255
O43	O	1.235138	-0.413088	0.841707
O44	O	1.568471	-0.079755	1.175041
O45	O	1.901804	0.253579	1.508374
O46	O	1.222933	-0.650115	0.558146
O47	O	1.556266	-0.316781	0.891479
O48	O	1.889600	0.016552	1.224813
O49	O	1.120820	-0.644879	0.679681
O50	O	1.454153	-0.311546	1.013014
O51	O	1.787486	0.021787	1.346348
C52	C	0.965347	-0.450627	0.593329
C53	C	1.298680	-0.117293	0.926663
C54	C	1.632014	0.216040	1.259996
C55	C	0.872918	-0.445942	0.587179
C56	C	1.206252	-0.112609	0.920513
C57	C	1.539585	0.220725	1.253846
C58	C	0.659950	-0.485917	0.639668
C59	C	0.993283	-0.152583	0.973001
C60	C	1.326617	0.180750	1.306335
C61	C	0.703695	-0.437397	0.575950
C62	C	1.037028	-0.104064	0.909284
C63	C	1.370361	0.229270	1.242617
C64	C	0.797859	-0.442153	0.582200
C65	C	1.131193	-0.108820	0.915533
C66	C	1.464526	0.224514	1.248867
C67	C	0.565776	-0.481162	0.633420
C68	C	0.899110	-0.147828	0.966753
C69	C	1.232443	0.185505	1.300086
C70	C	1.170353	-0.677670	0.620747
C71	C	1.503687	-0.344336	0.954081
C72	C	1.837020	-0.011003	1.287414
C73	C	1.165704	-0.770099	0.626341
C74	C	1.499038	-0.436765	0.959674
C75	C	1.832371	-0.103432	1.293008
C76	C	1.157221	-0.939328	0.636575
C77	C	1.490554	-0.605995	0.969909
C78	C	1.823888	-0.272662	1.303242
C79	C	1.205725	-0.983086	0.578983
C80	C	1.539058	-0.649753	0.912317
C81	C	1.872391	-0.316419	1.245650
C82	C	1.201005	-1.077251	0.584678
C83	C	1.534338	-0.743918	0.918011
C84	C	1.867671	-0.410584	1.251345
C85	C	1.161940	-0.845155	0.630882
C86	C	1.495273	-0.511821	0.964215
C87	C	1.828607	-0.178488	1.297549
C88	C	1.398293	-0.472664	0.622259
C89	C	1.731627	-0.139331	0.955593
C90	C	2.064960	0.194002	1.288926
C91	C	1.490721	-0.477369	0.628435
C92	C	1.824054	-0.144036	0.961769
C93	C	2.157388	0.189298	1.295102
C94	C	1.181459	-0.461547	0.880335
C95	C	1.514792	-0.128213	1.213668
C96	C	1.848126	0.205120	1.547002
C97	C	1.181485	-0.461514	0.996488
C98	C	1.514818	-0.128181	1.329821
C99	C	1.848152	0.205153	1.663155
C100	C	1.192509	-0.244735	0.594758
C101	C	1.525843	0.088598	0.928091
C102	C	1.859176	0.421931	1.261425
C103	C	1.197244	-0.152310	0.589215
C104	C	1.530577	0.181023	0.922548
C105	C	1.863911	0.514356	1.255881
C106	C	1.181389	-0.461643	0.336257
C107	C	1.514722	-0.128309	0.669590
C108	C	1.848056	0.205024	1.002923
C109	C	1.181536	-0.461449	0.220101
C110	C	1.514869	-0.128116	0.553434
C111	C	1.848203	0.205217	0.886768
C112	C	1.234623	-0.413536	1.048619
C113	C	1.567956	-0.080202	1.381952
C114	C	1.901290	0.253131	1.715285
C115	C	1.234651	-0.413501	1.168669
C116	C	1.567984	-0.080167	1.502002
C117	C	1.901318	0.253166	1.835335
H118	H	0.693217	-0.531024	0.698907
H119	H	1.026550	-0.197691	1.032240
H120	H	1.359883	0.135642	1.365574
H121	H	1.250794	-0.949827	0.525400
H122	H	1.584127	-0.616494	0.858734
H123	H	1.917461	-0.283160	1.192067
O124	O	1.103470	-0.979127	0.700400
O125	O	1.436804	-0.645794	1.033734
O126	O	1.770137	-0.312461	1.367067
C127	C	1.110676	-1.065648	0.691951
C128	C	1.444009	-0.732315	1.025285
C129	C	1.777343	-0.398982	1.358618
H130	H	1.137376	-1.078816	0.613856
H131	H	1.470709	-0.745483	0.947190
H132	H	1.804043	-0.412150	1.280523
H133	H	1.046758	-1.095621	0.696764
H134	H	1.380091	-0.762287	1.030097
H135	H	1.713424	-0.428954	1.363431
H136	H	1.153719	-1.092472	0.758399
H137	H	1.487052	-0.759139	1.091733
H138	H	1.820386	-0.425805	1.425066
H139	H	1.280093	-0.372482	1.004373
H140	H	1.613426	-0.039149	1.337706
H141	H	1.946760	0.294184	1.671039
O142	O	1.288812	-0.364397	1.222173
O143	O	1.622146	-0.031064	1.555506
O144	O	1.955479	0.302269	1.888839
C145	C	1.244186	-0.308320	1.278944
C146	C	1.577519	0.025013	1.612277
C147	C	1.910852	0.358346	1.945611
H148	H	1.178972	-0.299841	1.241304
H149	H	1.512305	0.033493	1.574638
H150	H	1.845638	0.366826	1.907971
H151	H	1.277536	-0.245857	1.278457
H152	H	1.610869	0.087476	1.611791
H153	H	1.944202	0.420810	1.945124
H154	H	1.239963	-0.333916	1.362975
H155	H	1.573296	-0.000583	1.696308
H156	H	1.906630	0.332751	2.029641
H157	H	1.136043	-0.502531	1.175278
H158	H	1.469376	-0.169198	1.508612
H159	H	1.802710	0.164136	1.841945
H160	H	1.136007	-0.502558	1.040733
H161	H	1.469340	-0.169225	1.374066
H162	H	1.802674	0.164108	1.707399
H163	H	0.670426	-0.392286	0.516706
H164	H	1.003759	-0.058953	0.850039
H165	H	1.337092	0.274380	1.183372
