data_functionalizedCrystal
_audit_creation_method	'MofGen! by Chris Wilmer'
_symmetry_space_group_name_H-M	'P1'
_symmetry_Int_Tables_number	1
_symmetry_cell_setting	triclinic
loop_
_symmetry_equiv_pos_as_xyz
  x,y,z
_cell_length_a	18.215407
_cell_length_b	16.625546
_cell_length_c	18.215399
_cell_angle_alpha	89.970824
_cell_angle_beta	89.982632
_cell_angle_gamma	90.019912
loop_
_atom_site_label
_atom_site_type_symbol
_atom_site_fract_x
_atom_site_fract_y
_atom_site_fract_z
Zn1	Zn	1.125084	-0.321065	-0.416061
Zn2	Zn	1.124998	-0.455905	-0.292992
Zn3	Zn	1.002017	-0.321084	-0.293014
Zn4	Zn	1.001988	-0.455853	-0.416022
O5	O	1.063522	-0.388477	-0.354522
O6	O	1.228057	-0.338965	-0.399743
O7	O	1.108660	-0.438051	-0.190011
O8	O	1.018390	-0.208249	-0.309362
O9	O	1.227994	-0.438032	-0.309325
O10	O	1.108807	-0.208235	-0.399764
O11	O	1.018306	-0.338998	-0.190027
O12	O	0.899029	-0.338948	-0.309324
O13	O	1.018341	-0.437943	-0.519012
O14	O	0.899008	-0.437962	-0.399698
O15	O	1.108779	-0.338915	-0.519040
O16	O	1.108632	-0.568731	-0.309287
O17	O	1.018257	-0.568693	-0.399677
C18	C	0.872315	-0.388452	-0.354510
C19	C	0.790517	-0.388461	-0.354521
C20	C	0.602355	-0.336983	-0.401677
C21	C	0.525496	-0.336990	-0.401679
C22	C	0.525441	-0.439993	-0.307381
C23	C	0.602298	-0.439982	-0.307376
C24	C	0.640753	-0.388478	-0.354527
C25	C	0.487037	-0.388496	-0.354536
C26	C	0.403703	-0.388504	-0.354538
C27	C	0.724092	-0.388469	-0.354524
C28	C	1.063452	-0.597968	-0.354492
C29	C	1.063490	-0.687589	-0.354503
C30	C	1.063618	-1.015764	-0.354580
C31	C	1.063580	-0.924456	-0.354560
C32	C	1.063553	-0.851680	-0.354541
C33	C	1.063516	-0.760365	-0.354522
C34	C	1.255475	-0.388502	-0.354536
C35	C	1.337273	-0.388513	-0.354541
C36	C	1.063567	-0.388421	-0.546475
C37	C	1.063586	-0.388398	-0.628274
C38	C	1.063612	-0.178168	-0.354569
C39	C	1.063650	-0.088547	-0.354590
C40	C	1.110694	-0.336785	-0.816484
C41	C	1.110703	-0.336762	-0.893343
C42	C	1.016530	-0.439885	-0.893302
C43	C	1.016518	-0.439904	-0.816445
C44	C	1.063604	-0.388355	-0.778038
C45	C	1.063625	-0.388313	-0.931754
C46	C	1.063634	-0.388288	-1.015088
C47	C	1.063594	-0.388379	-0.694699
C48	C	1.063519	-0.388474	-0.163316
C49	C	1.063643	-0.388271	-0.081518
H50	H	0.633662	-0.295043	-0.440068
N51	N	0.486285	-0.284380	-0.449842
N52	N	0.520631	-0.238398	-0.491932
H53	H	0.492939	-0.201238	-0.525949
N54	N	0.641515	-0.492585	-0.259201
N55	N	0.607174	-0.538568	-0.217108
H56	H	0.634870	-0.575716	-0.183083
H57	H	0.978195	-0.481856	-0.924583
H58	H	0.494121	-0.481927	-0.268993
N59	N	1.158793	-0.284126	-0.777263
N60	N	1.200833	-0.238084	-0.811604
H61	H	1.234804	-0.200890	-0.783906
N62	N	1.158807	-0.284097	-0.932626
N63	N	1.158812	-0.284084	-1.001248
H64	H	1.192787	-0.246887	-1.028993
H65	H	0.978166	-0.481898	-0.785141
