data_functionalizedCrystal
_audit_creation_method	'MofGen! by Chris Wilmer'
_symmetry_space_group_name_H-M	'P1'
_symmetry_Int_Tables_number	1
_symmetry_cell_setting	triclinic
loop_
_symmetry_equiv_pos_as_xyz
  x,y,z
_cell_length_a	11.295483
_cell_length_b	9.065218
_cell_length_c	12.837942
_cell_angle_alpha	90.077587
_cell_angle_beta	94.530417
_cell_angle_gamma	94.166271
loop_
_atom_site_label
_atom_site_type_symbol
_atom_site_fract_x
_atom_site_fract_y
_atom_site_fract_z
O1	O	-0.099028	-1.987875	0.145301
O2	O	-0.099029	-1.560108	0.157785
O3	O	-0.099021	-1.764505	0.000551
O4	O	-0.099036	-1.783477	0.302534
O5	O	0.099029	-1.746550	0.014340
O6	O	0.099021	-1.542152	0.171573
O7	O	0.099022	-1.969919	0.159089
Cu8	Cu	0.117105	-1.754396	0.166590
Cu9	Cu	-0.117112	-1.775631	0.150284
O10	O	0.099014	-1.765521	0.316323
C11	C	-0.000004	-1.495997	0.163479
C12	C	-0.000005	-1.331718	0.159892
N13	N	0.281841	-1.739471	0.178059
N14	N	-0.281848	-1.790566	0.138807
C15	C	0.531137	-1.897994	0.056191
C16	C	0.655800	-1.886727	0.064866
C17	C	0.655833	-1.705663	0.204076
C18	C	0.531170	-1.716930	0.195402
C19	C	0.468826	-1.813100	0.121458
C20	C	0.344160	-1.824374	0.112789
C21	C	0.344196	-1.643304	0.251995
C22	C	0.468859	-1.632037	0.260669
C23	C	0.000003	-1.749119	-0.031235
C24	C	0.000001	-1.730006	-0.146492
C25	C	-0.000005	-2.034029	0.153395
C26	C	-0.000012	-2.198309	0.156982
C27	C	-0.000023	-1.959785	-0.385294
C28	C	-0.000025	-1.941833	-0.493589
C29	C	-0.000014	-1.676153	-0.471378
C30	C	-0.000011	-1.694105	-0.363084
C31	C	-0.000014	-1.835925	-0.320046
C32	C	-0.000004	-1.853874	-0.211749
C33	C	-0.000001	-1.588196	-0.189540
C34	C	-0.000003	-1.570245	-0.297835
C35	C	-0.000013	-1.780908	0.348109
C36	C	-0.000018	-1.800022	0.463365
H37	H	0.293401	-1.902685	0.052584
C38	C	0.723478	-1.600993	0.284212
C39	C	0.693200	-1.456200	0.263827
C40	C	0.755507	-1.359731	0.337612
H41	H	0.703114	-1.628406	0.352279
H42	H	0.806656	-1.606343	0.280011
H43	H	0.610041	-1.450855	0.268038
H44	H	0.713568	-1.428742	0.195774
H45	H	0.838685	-1.365081	0.333411
H46	H	0.735138	-1.387158	0.405674
H47	H	0.734981	-1.261477	0.323785
C48	C	-0.000270	-1.522179	-0.518082
C49	C	-0.102177	-1.455657	-0.492150
C50	C	-0.102466	-1.313826	-0.535169
H51	H	0.068714	-1.464093	-0.491015
H52	H	-0.000344	-1.529186	-0.591933
H53	H	-0.102092	-1.448643	-0.418314
H54	H	-0.171177	-1.513700	-0.519217
H55	H	-0.102540	-1.320832	-0.609020
H56	H	-0.033477	-1.255753	-0.508099
H57	H	-0.171613	-1.268678	-0.517589
H58	H	0.480376	-1.976310	-0.004010
H59	H	0.706530	-1.955853	0.011718
H60	H	-0.000002	-1.969351	-0.176709
H61	H	0.519633	-1.553732	0.320870
C62	C	-0.000240	-1.453782	-0.118666
C63	C	-0.102143	-1.465534	-0.062949
C64	C	-0.102408	-1.341732	0.002339
H65	H	0.068746	-1.448881	-0.071065
H66	H	-0.000303	-1.366724	-0.159782
H67	H	-0.102069	-1.552568	-0.021835
H68	H	-0.171146	-1.470415	-0.110523
H69	H	-0.102471	-1.254674	-0.038777
H70	H	-0.033417	-1.336842	0.049933
H71	H	-0.171553	-1.349683	0.040144
C72	C	0.276610	-1.551312	0.323038
C73	C	0.306916	-1.586903	0.427378
C74	C	0.244670	-1.502214	0.492854
H75	H	0.297005	-1.449247	0.312364
H76	H	0.193423	-1.571811	0.307359
H77	H	0.390084	-1.566394	0.443052
H78	H	0.286518	-1.688954	0.438085
H79	H	0.161483	-1.522712	0.477175
H80	H	0.265070	-1.400152	0.482172
H81	H	0.265216	-1.526360	0.563655
C82	C	0.000042	-2.113624	-0.338355
C83	C	0.000075	-2.102831	-0.229548
C84	C	0.000151	-2.244518	-0.186273
H85	H	-0.069002	-2.171657	-0.365352
H86	H	0.069136	-2.159018	-0.355799
H87	H	-0.069012	-2.057459	-0.212113
H88	H	0.069114	-2.044826	-0.202523
H89	H	0.069245	-2.289911	-0.203717
H90	H	-0.068894	-2.302539	-0.213278
H91	H	0.000185	-2.237213	-0.112443
H92	H	-0.000036	-2.042694	-0.546712
H93	H	-0.000005	-1.454779	-0.332892
