data_functionalizedCrystal
_audit_creation_method	'MofGen! by Chris Wilmer'
_symmetry_space_group_name_H-M	'P1'
_symmetry_Int_Tables_number	1
_symmetry_cell_setting	triclinic
loop_
_symmetry_equiv_pos_as_xyz
  x,y,z
_cell_length_a	12.759387
_cell_length_b	19.077105
_cell_length_c	19.076808
_cell_angle_alpha	90.072392
_cell_angle_beta	87.665428
_cell_angle_gamma	92.320263
loop_
_atom_site_label
_atom_site_type_symbol
_atom_site_fract_x
_atom_site_fract_y
_atom_site_fract_z
Zn1	Zn	-0.638332	-1.063030	-0.322955
Zn2	Zn	-0.455298	-1.058212	-0.440483
Zn3	Zn	-0.455904	-0.945514	-0.318262
Zn4	Zn	-0.624182	-0.940768	-0.435704
O5	O	-0.543429	-1.001881	-0.379351
O6	O	-0.619720	-1.160722	-0.342510
O7	O	-0.308353	-1.043233	-0.424306
O8	O	-0.486280	-0.965104	-0.220549
O9	O	-0.485246	-1.157183	-0.428857
O10	O	-0.620309	-1.051443	-0.223997
O11	O	-0.308799	-0.960433	-0.334511
O12	O	-0.472559	-0.846552	-0.329877
O13	O	-0.773084	-0.957016	-0.420712
O14	O	-0.596191	-0.843066	-0.416161
O15	O	-0.783480	-1.046841	-0.337876
O16	O	-0.471525	-1.038631	-0.538185
O17	O	-0.595603	-0.952345	-0.534674
C18	C	-0.532906	-0.819313	-0.371992
C19	C	-0.528428	-0.741208	-0.368860
C20	C	-0.817470	-1.001937	-0.379285
C21	C	-0.934250	-1.001960	-0.379256
C22	C	-0.531986	-0.994469	-0.561928
C23	C	-0.527130	-0.991363	-0.640038
C24	C	-0.945095	-1.095501	-0.293005
C25	C	-1.005380	-1.142282	-0.249869
C26	C	-1.115104	-1.142300	-0.249844
C27	C	-1.164546	-1.095531	-0.292958
C28	C	-1.104261	-1.048750	-0.336094
C29	C	-0.994535	-1.048739	-0.336116
C30	C	-1.093416	-0.955207	-0.422340
C31	C	-0.983691	-0.955191	-0.422370
C32	C	-1.142857	-0.908438	-0.465454
C33	C	-1.082572	-0.861660	-0.508595
C34	C	-0.972842	-0.861644	-0.508618
C35	C	-0.923407	-0.908411	-0.465506
C36	C	-0.270460	-1.001868	-0.379369
C37	C	-0.153701	-1.001988	-0.379205
C38	C	-0.553994	-1.185162	-0.386740
C39	C	-0.558496	-1.263266	-0.389889
C40	C	-0.590583	-0.702715	-0.412380
C41	C	-0.586381	-0.629328	-0.409428
C42	C	-0.520018	-0.594436	-0.362960
C43	C	-0.457860	-0.632934	-0.319435
C44	C	-0.462068	-0.706320	-0.322383
C45	C	-0.500547	-0.375150	-0.349313
C46	C	-0.496341	-0.301759	-0.346369
C47	C	-0.624864	-0.298158	-0.436362
C48	C	-0.629061	-0.371545	-0.439310
C49	C	-0.566908	-0.410037	-0.395782
N50	N	-0.515719	-0.519423	-0.359943
N51	N	-0.571213	-0.485049	-0.398796
C52	C	-0.594683	-1.034822	-0.678467
C53	C	-0.590121	-1.031900	-0.751859
C54	C	-0.518001	-0.985523	-0.786821
C55	C	-0.450446	-0.942059	-0.748386
C56	C	-0.455013	-0.944978	-0.674995
C57	C	-0.496858	-0.971974	-1.006130
C58	C	-0.492293	-0.969060	-1.079526
C59	C	-0.631971	-1.058901	-1.082995
C60	C	-0.636527	-1.061818	-1.009602
C61	C	-0.568976	-1.018352	-0.971174
N62	N	-0.513335	-0.982537	-0.861839
N63	N	-0.573648	-1.021335	-0.896156
C64	C	-0.554940	-1.009340	-0.196063
C65	C	-0.559846	-1.012519	-0.117956
H66	H	-0.855753	-1.095498	-0.293028
H67	H	-0.442307	-0.273352	-0.308520
H68	H	-0.636993	-0.597990	-0.444868
C69	C	-1.285239	-1.095548	-0.292926
H70	H	-1.314061	-1.130108	-0.261063
H71	H	-1.308204	-1.050701	-0.278939
H72	H	-1.307914	-1.105859	-0.338761
C73	C	-1.181424	-1.193756	-0.202398
H74	H	-1.253852	-1.187062	-0.208558
H75	H	-1.165525	-1.240547	-0.214592
H76	H	-1.165822	-1.185391	-0.154768
H77	H	-0.411461	-0.737660	-0.286941
H78	H	-0.449929	-0.406481	-0.313875
C79	C	-0.702068	-0.409922	-0.490421
H80	H	-0.738492	-0.376486	-0.515914
H81	H	-0.661530	-0.437297	-0.522157
H82	H	-0.751238	-0.439652	-0.464720
H83	H	-1.232201	-0.908454	-0.465428
C84	C	-0.693284	-0.255820	-0.484203
H85	H	-0.733420	-0.287112	-0.512294
H86	H	-0.739155	-0.228313	-0.456181
H87	H	-0.649498	-0.225923	-0.513654
H88	H	-0.433564	-0.931291	-1.107990
H89	H	-0.391728	-0.904295	-0.776857
C90	C	-1.136958	-0.810223	-0.556014
H91	H	-1.210939	-0.816934	-0.549822
H92	H	-1.116893	-0.763426	-0.543832
H93	H	-1.116608	-0.818586	-0.603652
H94	H	-0.403830	-0.604519	-0.281596
H95	H	-0.923764	-0.823542	-0.543737
H96	H	-0.441853	-0.936584	-0.974847
C97	C	-0.802713	-0.908392	-0.465531
H98	H	-0.773887	-0.873836	-0.497397
H99	H	-0.780045	-0.898090	-0.419697
H100	H	-0.779747	-0.953240	-0.479526
C101	C	-0.380704	-0.897174	-0.632722
H102	H	-0.337092	-0.869139	-0.664054
H103	H	-0.420874	-0.867682	-0.602867
H104	H	-0.338288	-0.925211	-0.605174
H105	H	-0.644620	-0.731119	-0.450223
H106	H	-0.653406	-1.072590	-0.650007
H107	H	-0.645122	-1.067294	-0.783146
C108	C	-0.715861	-1.112830	-0.971146
H109	H	-0.708899	-1.108347	-0.921933
H110	H	-0.785099	-1.102046	-0.982733
H111	H	-0.702511	-1.159574	-0.985041
C112	C	-0.706279	-1.106703	-1.125267
H113	H	-0.693239	-1.098320	-1.173983
H114	H	-0.694439	-1.154401	-1.115106
H115	H	-0.777015	-1.096865	-1.112797
H116	H	-0.965113	-1.180359	-0.214766
