data_functionalizedCrystal
_audit_creation_method	'MofGen! by Chris Wilmer'
_symmetry_space_group_name_H-M	'P1'
_symmetry_Int_Tables_number	1
_symmetry_cell_setting	triclinic
loop_
_symmetry_equiv_pos_as_xyz
  x,y,z
_cell_length_a	14.044220
_cell_length_b	14.971486
_cell_length_c	13.448316
_cell_angle_alpha	89.998199
_cell_angle_beta	90.007340
_cell_angle_gamma	91.598497
loop_
_atom_site_label
_atom_site_type_symbol
_atom_site_fract_x
_atom_site_fract_y
_atom_site_fract_z
O1	O	0.123538	-1.196679	0.082579
O2	O	0.138332	-0.937445	0.082607
O3	O	-0.007054	-1.063171	0.082584
O4	O	0.268924	-1.070953	0.082602
O5	O	-0.007063	-1.063153	-0.082800
O6	O	0.138323	-0.937427	-0.082777
O7	O	0.123529	-1.196661	-0.082804
Cu8	Cu	0.130925	-1.067042	-0.097892
Cu9	Cu	0.130936	-1.067064	0.097694
O10	O	0.268915	-1.070935	-0.082781
C11	C	0.137666	-0.904059	-0.000082
C12	C	0.135683	-0.804606	-0.000072
C13	C	-0.042377	-1.059755	-0.000108
C14	C	-0.147614	-1.049594	-0.000108
C15	C	0.124195	-1.230047	-0.000114
C16	C	0.126178	-1.329501	-0.000117
C17	C	-0.340297	-1.031018	-0.000092
C18	C	-0.397848	-1.103085	-0.000097
C19	C	-0.505063	-1.092748	-0.000088
C20	C	-0.233071	-1.041353	-0.000101
C21	C	0.304238	-1.074351	-0.000087
C22	C	0.409475	-1.084512	-0.000080
N23	N	0.130917	-1.067034	-0.235456
C24	C	0.221093	-0.754109	-0.000067
C25	C	0.219225	-0.660662	-0.000082
C26	C	0.131945	-0.617714	-0.000094
C27	C	0.046528	-0.668218	-0.000102
C28	C	0.048398	-0.761663	-0.000094
C29	C	0.042638	-0.473449	-0.000116
C30	C	0.040767	-0.379997	-0.000122
C31	C	0.213465	-0.372448	-0.000104
C32	C	0.215334	-0.465893	-0.000096
C33	C	0.129917	-0.516390	-0.000102
C34	C	0.066567	-1.122727	-0.287506
C35	C	0.066566	-1.122732	-0.391610
C36	C	0.130921	-1.067049	-0.443660
C37	C	0.195274	-1.011350	-0.391603
C38	C	0.195270	-1.011341	-0.287501
C39	C	0.195281	-1.011376	-0.608583
C40	C	0.195287	-1.011386	-0.712691
C41	C	0.066577	-1.122767	-0.712691
C42	C	0.066572	-1.122757	-0.608590
C43	C	0.130927	-1.067060	-0.556539
N44	N	0.130936	-1.067079	0.235258
H45	H	-0.371545	-0.961562	-0.000082
H46	H	0.292167	-0.789070	-0.000056
H47	H	0.014166	-1.168080	-0.433989
O48	O	0.311345	-0.606194	-0.000078
H49	H	0.372350	-0.651757	-0.000056
O50	O	-0.356467	-1.195099	-0.000124
H51	H	-0.277528	-1.188886	-0.000141
O52	O	0.264695	-0.951308	-0.552436
H53	H	0.309455	-0.912598	-0.606117
O54	O	-0.053371	-0.333676	-0.000148
H55	H	-0.058338	-0.291282	-0.067558
H56	H	0.286405	-0.500859	-0.000077
H57	H	-0.026919	-0.514561	-0.000122
O58	O	-0.043728	-0.816126	-0.000098
H59	H	-0.047010	-0.858873	-0.067510
O60	O	-0.002832	-1.182852	-0.768820
H61	H	-0.076756	-1.165577	-0.748845
O62	O	0.305598	-0.317992	-0.000109
H63	H	0.289639	-0.245798	-0.000131
H64	H	0.247669	-0.965989	-0.245123
H65	H	-0.024537	-0.633242	-0.000126
H66	H	0.014166	-1.168074	-0.245134
H67	H	0.247690	-0.966042	-0.755066
O68	O	-0.002839	-1.182810	-0.552443
H69	H	-0.047596	-1.221535	-0.606124
O70	O	0.264696	-0.951297	-0.447736
H71	H	0.224724	-0.904646	-0.495190
