data_functionalizedCrystal
_audit_creation_method	'MofGen! by Chris Wilmer'
_symmetry_space_group_name_H-M	'P1'
_symmetry_Int_Tables_number	1
_symmetry_cell_setting	triclinic
loop_
_symmetry_equiv_pos_as_xyz
  x,y,z
_cell_length_a	29.839131
_cell_length_b	29.839135
_cell_length_c	29.839126
_cell_angle_alpha	90.023409
_cell_angle_beta	89.975848
_cell_angle_gamma	89.956753
loop_
_atom_site_label
_atom_site_type_symbol
_atom_site_fract_x
_atom_site_fract_y
_atom_site_fract_z
Zn1	Zn	-0.178866	-0.686754	-0.254050
Zn2	Zn	0.154468	-0.353420	0.079283
Zn3	Zn	0.487801	-0.020087	0.412616
Zn4	Zn	-0.253986	-0.686676	-0.178920
Zn5	Zn	0.079347	-0.353342	0.154413
Zn6	Zn	0.412680	-0.020009	0.487746
Zn7	Zn	-0.178874	-0.611626	-0.178928
Zn8	Zn	0.154460	-0.278293	0.154405
Zn9	Zn	0.487793	0.055040	0.487739
Zn10	Zn	-0.253972	-0.611584	-0.254017
Zn11	Zn	0.079361	-0.278251	0.079316
Zn12	Zn	0.412695	0.055083	0.412650
O13	O	-0.216424	-0.649160	-0.216479
O14	O	0.116909	-0.315827	0.116854
O15	O	0.450242	0.017507	0.450188
O16	O	-0.188834	-0.749610	-0.244095
O17	O	0.144500	-0.416277	0.089238
O18	O	0.477833	-0.082944	0.422572
O19	O	-0.244032	-0.676705	-0.116054
O20	O	0.089302	-0.343372	0.217279
O21	O	0.422635	-0.010039	0.550612
O22	O	-0.116005	-0.621642	-0.188911
O23	O	0.217328	-0.288309	0.144423
O24	O	0.550661	0.045024	0.477756
O25	O	-0.244024	-0.749553	-0.188897
O26	O	0.089309	-0.416220	0.144436
O27	O	0.422642	-0.082886	0.477769
O28	O	-0.116000	-0.676838	-0.244103
O29	O	0.217334	-0.343505	0.089231
O30	O	0.550667	-0.010171	0.422564
O31	O	-0.188847	-0.621567	-0.116060
O32	O	0.144487	-0.288234	0.217273
O33	O	0.477820	0.045100	0.550607
O34	O	-0.188833	-0.548754	-0.188878
O35	O	0.144501	-0.215420	0.144455
O36	O	0.477834	0.117913	0.477789
O37	O	-0.244000	-0.621570	-0.316888
O38	O	0.089334	-0.288237	0.016445
O39	O	0.422667	0.045096	0.349778
O40	O	-0.244007	-0.548723	-0.244045
O41	O	0.089326	-0.215389	0.089288
O42	O	0.422659	0.117944	0.422621
O43	O	-0.188820	-0.676797	-0.316913
O44	O	0.144514	-0.343464	0.016420
O45	O	0.477847	-0.010130	0.349754
O46	O	-0.316852	-0.676664	-0.188865
O47	O	0.016482	-0.343331	0.144469
O48	O	0.349815	-0.009998	0.477802
O49	O	-0.316841	-0.621495	-0.244038
O50	O	0.016492	-0.288162	0.089295
O51	O	0.349826	0.045172	0.422629
C52	C	-0.216420	-0.532437	-0.216459
C53	C	0.116914	-0.199104	0.116874
C54	C	0.450247	0.134229	0.450207
C55	C	-0.216428	-0.482503	-0.216461
C56	C	0.116905	-0.149170	0.116872
C57	C	0.450238	0.184164	0.450205
C58	C	-0.187724	-0.172886	-0.245261
C59	C	0.145609	0.160447	0.088073
C60	C	0.478942	0.493780	0.421406
C61	C	-0.187725	0.014787	-0.245272
C62	C	0.145608	0.348120	0.088061
C63	C	0.478942	0.681453	0.421394
O64	O	-0.163313	0.039029	-0.269738
O65	O	0.170021	0.372362	0.063595
O66	O	0.503354	0.705695	0.396928
N67	N	-0.216416	0.038282	-0.216492
N68	N	0.116917	0.371615	0.116841
N69	N	0.450250	0.704949	0.450174
C70	C	-0.245108	0.014856	-0.187705
C71	C	0.088226	0.348190	0.145628
C72	C	0.421559	0.681523	0.478962
O73	O	-0.269508	0.039147	-0.163223
O74	O	0.063825	0.372480	0.170111
O75	O	0.397159	0.705814	0.503444
C76	C	-0.245104	-0.172816	-0.187691
C77	C	0.088229	0.160518	0.145642
C78	C	0.421563	0.493851	0.478976
C79	C	-0.216414	-0.196309	-0.216476
C80	C	0.116919	0.137025	0.116857
C81	C	0.450253	0.470358	0.450190
C82	C	-0.159036	-0.196379	-0.274043
C83	C	0.174297	0.136954	0.059290
C84	C	0.507630	0.470287	0.392624
C85	C	-0.159038	-0.243295	-0.274042
C86	C	0.174295	0.090038	0.059292
C87	C	0.507629	0.423372	0.392625
C88	C	-0.187728	-0.266717	-0.245257
C89	C	0.145605	0.066616	0.088076
C90	C	0.478939	0.399949	0.421409
C91	C	-0.216416	-0.243224	-0.216475
C92	C	0.116917	0.090109	0.116858
C93	C	0.450251	0.423442	0.450192
C94	C	-0.273793	-0.196241	-0.158902
C95	C	0.059541	0.137093	0.174431
C96	C	0.392874	0.470426	0.507765
C97	C	-0.273788	-0.243162	-0.158900
C98	C	0.059545	0.090172	0.174433
C99	C	0.392878	0.423505	0.507767
C100	C	-0.245098	-0.266655	-0.187685
C101	C	0.088235	0.066679	0.145648
C102	C	0.421568	0.400012	0.478981
C103	C	-0.245108	-0.313562	-0.187689
C104	C	0.088226	0.019771	0.145644
C105	C	0.421559	0.353105	0.478977
N106	N	-0.216416	-0.337058	-0.216469
N107	N	0.116917	-0.003724	0.116864
N108	N	0.450250	0.329609	0.450197
C109	C	-0.187726	-0.313635	-0.245254
C110	C	0.145607	0.019698	0.088080
C111	C	0.478940	0.353032	0.421413
C112	C	-0.245108	0.113387	-0.187715
C113	C	0.088225	0.446720	0.145618
C114	C	0.421559	0.780054	0.478952
C115	C	-0.245109	0.160305	-0.187719
C116	C	0.088224	0.493638	0.145615
C117	C	0.421557	0.826972	0.478948
C118	C	-0.187726	0.160232	-0.245286
C119	C	0.145607	0.493565	0.088047
C120	C	0.478940	0.826899	0.421381
C121	C	-0.187727	0.113313	-0.245284
C122	C	0.145606	0.446647	0.088049
C123	C	0.478939	0.779980	0.421383
C124	C	-0.216417	0.089892	-0.216495
C125	C	0.116917	0.423225	0.116838
C126	C	0.450250	0.756558	0.450172
C127	C	-0.187733	-0.412161	-0.245248
C128	C	0.145601	-0.078828	0.088085
C129	C	0.478934	0.254506	0.421418
C130	C	-0.187738	-0.459081	-0.245246
C131	C	0.145595	-0.125747	0.088088
C132	C	0.478928	0.207586	0.421421
C133	C	-0.245120	-0.459003	-0.187677
C134	C	0.088214	-0.125670	0.145656
C135	C	0.421547	0.207663	0.478990
C136	C	-0.245116	-0.412088	-0.187681
C137	C	0.088217	-0.078755	0.145652
C138	C	0.421551	0.254579	0.478985
C139	C	-0.216419	-0.388668	-0.216468
C140	C	0.116915	-0.055335	0.116865
C141	C	0.450248	0.277999	0.450198
O142	O	-0.269504	-0.337833	-0.163233
O143	O	0.063830	-0.004500	0.170101
O144	O	0.397163	0.328834	0.503434
O145	O	-0.163323	-0.337934	-0.269725
O146	O	0.170011	-0.004600	0.063608
O147	O	0.503344	0.328733	0.396941
C148	C	-0.187722	-0.125971	-0.245262
C149	C	0.145611	0.207362	0.088071
C150	C	0.478944	0.540696	0.421405
C151	C	-0.216411	-0.102478	-0.216480
C152	C	0.116923	0.230855	0.116854
C153	C	0.450256	0.564189	0.450187
C154	C	-0.245100	-0.125900	-0.187695
C155	C	0.088233	0.207433	0.145638
C156	C	0.421566	0.540766	0.478971
C157	C	-0.216412	-0.055560	-0.216483
C158	C	0.116921	0.277773	0.116850
C159	C	0.450255	0.611107	0.450183
C160	C	-0.187722	-0.032138	-0.245268
C161	C	0.145611	0.301196	0.088066
C162	C	0.478945	0.634529	0.421399
C163	C	-0.159031	-0.055633	-0.274048
C164	C	0.174303	0.277700	0.059286
C165	C	0.507636	0.611034	0.392619
C166	C	-0.159033	-0.102549	-0.274046
C167	C	0.174301	0.230785	0.059287
C168	C	0.507634	0.564118	0.392620
C169	C	-0.273792	-0.102405	-0.158915
C170	C	0.059542	0.230929	0.174418
C171	C	0.392875	0.564262	0.507752
C172	C	-0.273788	-0.055489	-0.158919
C173	C	0.059545	0.277844	0.174414
C174	C	0.392879	0.611177	0.507747
C175	C	-0.245098	-0.032067	-0.187704
C176	C	0.088235	0.301266	0.145630
C177	C	0.421569	0.634600	0.478963
C178	C	-0.333147	-0.649079	-0.216457
C179	C	0.000186	-0.315745	0.116877
C180	C	0.333520	0.017588	0.450210
C181	C	-0.383081	-0.649085	-0.216462
C182	C	-0.049748	-0.315752	0.116871
C183	C	0.283585	0.017581	0.450205
C184	C	-0.692718	-0.677939	-0.187792
C185	C	-0.359384	-0.344606	0.145541
C186	C	-0.026051	-0.011272	0.478874
C187	C	-0.880391	-0.677994	-0.187810
C188	C	-0.547057	-0.344661	0.145524
C189	C	-0.213724	-0.011328	0.478857
O190	O	-0.904649	-0.702462	-0.163416
O191	O	-0.571316	-0.369129	0.169917
O192	O	-0.237983	-0.035796	0.503250
N193	N	-0.903866	-0.649253	-0.216513
N194	N	-0.570533	-0.315920	0.116820
N195	N	-0.237200	0.017414	0.450154
C196	C	-0.880421	-0.620498	-0.245216
C197	C	-0.547088	-0.287165	0.088118
C198	C	-0.213754	0.046169	0.421451
O199	O	-0.904695	-0.596056	-0.269633
O200	O	-0.571362	-0.262723	0.063700
O201	O	-0.238028	0.070610	0.397034
C202	C	-0.692749	-0.620445	-0.245200
C203	C	-0.359416	-0.287112	0.088133
C204	C	-0.026082	0.046222	0.421466
C205	C	-0.669276	-0.649185	-0.216492
C206	C	-0.335942	-0.315852	0.116841
C207	C	-0.002609	0.017482	0.450175
C208	C	-0.669244	-0.706677	-0.159087
C209	C	-0.335911	-0.373344	0.174247
C210	C	-0.002578	-0.040010	0.507580
C211	C	-0.622329	-0.706661	-0.159081
C212	C	-0.288995	-0.373328	0.174252
C213	C	0.044338	-0.039994	0.507586
C214	C	-0.598887	-0.677907	-0.187781
C215	C	-0.265553	-0.344574	0.145553
C216	C	0.067780	-0.011240	0.478886
C217	C	-0.622360	-0.649169	-0.216486
C218	C	-0.289027	-0.315836	0.116847
C219	C	0.044307	0.017497	0.450180
C220	C	-0.669304	-0.591693	-0.273905
C221	C	-0.335971	-0.258359	0.059428
C222	C	-0.002638	0.074974	0.392762
C223	C	-0.622383	-0.591683	-0.273899
C224	C	-0.289050	-0.258349	0.059434
C225	C	0.044283	0.074984	0.392767
C226	C	-0.598910	-0.620423	-0.245191
C227	C	-0.265577	-0.287089	0.088142
C228	C	0.067757	0.046244	0.421475
C229	C	-0.552003	-0.620399	-0.245180
C230	C	-0.218669	-0.287066	0.088153
C231	C	0.114664	0.046267	0.421487
N232	N	-0.528527	-0.649141	-0.216477
N233	N	-0.195194	-0.315807	0.116856
N234	N	0.138140	0.017526	0.450190
C235	C	-0.551969	-0.677895	-0.187777
C236	C	-0.218636	-0.344561	0.145556
C237	C	0.114698	-0.011228	0.478889
C238	C	-0.978952	-0.620527	-0.245221
C239	C	-0.645618	-0.287194	0.088112
C240	C	-0.312285	0.046140	0.421445
C241	C	-1.025869	-0.620540	-0.245225
C242	C	-0.692536	-0.287206	0.088109
C243	C	-0.359203	0.046127	0.421442
C244	C	-1.025836	-0.678037	-0.187819
C245	C	-0.692503	-0.344703	0.145514
C246	C	-0.359169	-0.011370	0.478848
C247	C	-0.978917	-0.678022	-0.187814
C248	C	-0.645584	-0.344688	0.145520
C249	C	-0.312251	-0.011355	0.478853
C250	C	-0.955476	-0.649268	-0.216518
C251	C	-0.622143	-0.315935	0.116815
C252	C	-0.288809	0.017398	0.450149
C253	C	-0.453443	-0.677859	-0.187767
C254	C	-0.120110	-0.344525	0.145566
C255	C	0.213224	-0.011192	0.478900
C256	C	-0.406524	-0.677839	-0.187762
C257	C	-0.073190	-0.344506	0.145571
C258	C	0.260143	-0.011172	0.478904
C259	C	-0.406561	-0.620344	-0.245169
C260	C	-0.073228	-0.287010	0.088164
C261	C	0.260105	0.046323	0.421497
C262	C	-0.453477	-0.620362	-0.245173
C263	C	-0.120143	-0.287028	0.088161
C264	C	0.213190	0.046305	0.421494
C265	C	-0.476917	-0.649123	-0.216470
C266	C	-0.143583	-0.315789	0.116864
C267	C	0.189750	0.017544	0.450197
O268	O	-0.527715	-0.595948	-0.269564
O269	O	-0.194382	-0.262614	0.063769
O270	O	0.138952	0.070719	0.397102
O271	O	-0.527687	-0.702340	-0.163371
O272	O	-0.194354	-0.369006	0.169963
O273	O	0.138980	-0.035673	0.503296
C274	C	-0.739633	-0.677955	-0.187798
C275	C	-0.406300	-0.344621	0.145535
C276	C	-0.072966	-0.011288	0.478869
C277	C	-0.763106	-0.649217	-0.216504
C278	C	-0.429773	-0.315884	0.116830
C279	C	-0.096440	0.017450	0.450163
C280	C	-0.739664	-0.620463	-0.245203
C281	C	-0.406331	-0.287130	0.088130
C282	C	-0.072998	0.046204	0.421463
C283	C	-0.810024	-0.649229	-0.216507
C284	C	-0.476691	-0.315896	0.116826
C285	C	-0.143358	0.017437	0.450160
C286	C	-0.833466	-0.677983	-0.187807
C287	C	-0.500133	-0.344650	0.145526
C288	C	-0.166800	-0.011317	0.478859
C289	C	-0.809991	-0.706725	-0.159104
C290	C	-0.476657	-0.373391	0.174229
C291	C	-0.143324	-0.040058	0.507562
C292	C	-0.763075	-0.706709	-0.159098
C293	C	-0.429742	-0.373375	0.174235
C294	C	-0.096408	-0.040042	0.507568
C295	C	-0.763140	-0.591722	-0.273906
C296	C	-0.429807	-0.258388	0.059427
C297	C	-0.096473	0.074945	0.392760
C298	C	-0.810056	-0.591740	-0.273910
C299	C	-0.476722	-0.258406	0.059424
C300	C	-0.143389	0.074927	0.392757
C301	C	-0.833498	-0.620493	-0.245210
C302	C	-0.500164	-0.287160	0.088124
C303	C	-0.166831	0.046173	0.421457
C304	C	-0.099246	-0.649254	-0.216511
C305	C	0.234087	-0.315920	0.116822
C306	C	0.567421	0.017413	0.450156
C307	C	-0.049312	-0.649294	-0.216525
C308	C	0.284022	-0.315960	0.116808
C309	C	0.617355	0.017373	0.450142
C310	C	-0.216407	-0.649188	-0.333657
C311	C	0.116926	-0.315854	-0.000324
C312	C	0.450259	0.017479	0.333009
C313	C	-0.216400	-0.649200	-0.383592
C314	C	0.116933	-0.315866	-0.050258
C315	C	0.450267	0.017467	0.283075
C316	C	-0.216427	0.233662	-0.216498
C317	C	0.116907	0.566995	0.116835
C318	C	0.450240	0.900328	0.450169
C319	C	-0.216420	0.183727	-0.216503
C320	C	0.116914	0.517061	0.116830
C321	C	0.450247	0.850394	0.450164
C322	C	-0.187620	-0.620498	-0.693241
C323	C	0.145713	-0.287165	-0.359908
C324	C	0.479047	0.046169	-0.026574
C325	C	-0.187589	-0.620511	-0.880914
C326	C	0.145744	-0.287177	-0.547581
C327	C	0.479078	0.046156	-0.214248
O328	O	-0.163164	-0.596085	-0.905184
O329	O	0.170169	-0.262752	-0.571851
O330	O	0.503503	0.070582	-0.238517
N331	N	-0.216316	-0.649221	-0.904377
N332	N	0.117018	-0.315888	-0.571044
N333	N	0.450351	0.017446	-0.237710
C334	C	-0.245054	-0.677928	-0.880919
C335	C	0.088279	-0.344595	-0.547585
C336	C	0.421612	-0.011261	-0.214252
O337	O	-0.269491	-0.702345	-0.905182
O338	O	0.063843	-0.369011	-0.571848
O339	O	0.397176	-0.035678	-0.238515
C340	C	-0.245087	-0.677913	-0.693246
C341	C	0.088246	-0.344579	-0.359913
C342	C	0.421579	-0.011246	-0.026580
C343	C	-0.216356	-0.649204	-0.669786
C344	C	0.116978	-0.315870	-0.336453
C345	C	0.450311	0.017463	-0.003119
C346	C	-0.158891	-0.591791	-0.669781
C347	C	0.174442	-0.258458	-0.336447
C348	C	0.507776	0.074876	-0.003114
C349	C	-0.158897	-0.591790	-0.622865
C350	C	0.174436	-0.258457	-0.289532
C351	C	0.507769	0.074877	0.043801
C352	C	-0.187633	-0.620496	-0.599410
C353	C	0.145701	-0.287162	-0.266077
C354	C	0.479034	0.046171	0.067256
C355	C	-0.216362	-0.649203	-0.622871
C356	C	0.116971	-0.315869	-0.289537
C357	C	0.450305	0.017464	0.043796
C358	C	-0.273828	-0.706617	-0.669789
C359	C	0.059505	-0.373284	-0.336456
C360	C	0.392839	-0.039950	-0.003122
C361	C	-0.273834	-0.706610	-0.622868
C362	C	0.059499	-0.373276	-0.289535
C363	C	0.392832	-0.039943	0.043799
C364	C	-0.245103	-0.677901	-0.599408
C365	C	0.088231	-0.344568	-0.266074
C366	C	0.421564	-0.011234	0.067259
C367	C	-0.245104	-0.677907	-0.552500
C368	C	0.088230	-0.344574	-0.219167
C369	C	0.421563	-0.011240	0.114167
N370	N	-0.216377	-0.649197	-0.529037
N371	N	0.116956	-0.315864	-0.195704
N372	N	0.450290	0.017470	0.137629
C373	C	-0.187642	-0.620491	-0.552492
C374	C	0.145692	-0.287158	-0.219159
C375	C	0.479025	0.046175	0.114174
C376	C	-0.245034	-0.677935	-0.979449
C377	C	0.088299	-0.344601	-0.646116
C378	C	0.421633	-0.011268	-0.312783
C379	C	-0.245025	-0.677939	-1.026367
C380	C	0.088308	-0.344606	-0.693034
C381	C	0.421641	-0.011272	-0.359701
C382	C	-0.187561	-0.620521	-1.026360
C383	C	0.145773	-0.287188	-0.693026
C384	C	0.479106	0.046146	-0.359693
C385	C	-0.187567	-0.620519	-0.979441
C386	C	0.145766	-0.287186	-0.646107
C387	C	0.479099	0.046147	-0.312774
C388	C	-0.216307	-0.649224	-0.955987
C389	C	0.117026	-0.315891	-0.622653
C390	C	0.450359	0.017442	-0.289320
C391	C	-0.187657	-0.620491	-0.453966
C392	C	0.145677	-0.287158	-0.120633
C393	C	0.479010	0.046175	0.212700
C394	C	-0.187664	-0.620494	-0.407047
C395	C	0.145669	-0.287161	-0.073714
C396	C	0.479002	0.046173	0.259620
C397	C	-0.245131	-0.677910	-0.407059
C398	C	0.088203	-0.344577	-0.073725
C399	C	0.421536	-0.011243	0.259608
C400	C	-0.245122	-0.677909	-0.453974
C401	C	0.088212	-0.344576	-0.120641
C402	C	0.421545	-0.011242	0.212693
C403	C	-0.216383	-0.649196	-0.477427
C404	C	0.116950	-0.315863	-0.144094
C405	C	0.450283	0.017471	0.189240
O406	O	-0.269519	-0.702316	-0.528201
O407	O	0.063814	-0.368983	-0.194868
O408	O	0.397147	-0.035650	0.138465
O409	O	-0.163216	-0.596071	-0.528221
O410	O	0.170117	-0.262738	-0.194888
O411	O	0.503451	0.070596	0.138445
C412	C	-0.187614	-0.620499	-0.740157
C413	C	0.145720	-0.287166	-0.406823
C414	C	0.479053	0.046168	-0.073490
C415	C	-0.216343	-0.649206	-0.763617
C416	C	0.116991	-0.315873	-0.430284
C417	C	0.450324	0.017461	-0.096950
C418	C	-0.245078	-0.677912	-0.740162
C419	C	0.088255	-0.344578	-0.406829
C420	C	0.421588	-0.011245	-0.073495
C421	C	-0.216334	-0.649211	-0.810535
C422	C	0.116999	-0.315877	-0.477202
C423	C	0.450333	0.017456	-0.143868
C424	C	-0.187599	-0.620505	-0.833990
C425	C	0.145735	-0.287171	-0.500657
C426	C	0.479068	0.046162	-0.167323
C427	C	-0.158872	-0.591795	-0.810527
C428	C	0.174461	-0.258461	-0.477194
C429	C	0.507795	0.074872	-0.143860
C430	C	-0.158878	-0.591793	-0.763612
C431	C	0.174455	-0.258460	-0.430278
C432	C	0.507788	0.074873	-0.096945
C433	C	-0.273805	-0.706622	-0.763625
C434	C	0.059528	-0.373289	-0.430291
C435	C	0.392862	-0.039955	-0.096958
C436	C	-0.273796	-0.706621	-0.810540
C437	C	0.059537	-0.373288	-0.477207
C438	C	0.392871	-0.039954	-0.143874
C439	C	-0.245060	-0.677915	-0.833995
C440	C	0.088273	-0.344582	-0.500662
C441	C	0.421606	-0.011249	-0.167329
C442	C	-0.216409	-0.649158	-0.099756
C443	C	0.116924	-0.315825	0.233577
C444	C	0.450258	0.017509	0.566910
C445	C	-0.216290	-0.649233	-0.049822
C446	C	0.117043	-0.315900	0.283511
C447	C	0.450377	0.017433	0.616844
H448	H	-0.135672	-0.036554	-0.297486
H449	H	0.197661	0.296779	0.035847
H450	H	0.530995	0.630112	0.369180
H451	H	-0.164364	0.094188	-0.268722
H452	H	0.168969	0.427522	0.064611
H453	H	0.502302	0.760855	0.397944
H454	H	-0.268525	-0.701283	-0.387953
H455	H	0.064808	-0.367949	-0.054620
H456	H	0.398142	-0.034616	0.278714
H457	H	-0.135473	-0.568423	-0.829632
H458	H	0.197861	-0.235090	-0.496299
H459	H	0.531194	0.098244	-0.162966
Cl460	Cl	-0.839470	-0.742871	-0.123024
Cl461	Cl	-0.506136	-0.409538	0.210309
Cl462	Cl	-0.172803	-0.076204	0.543643
Cl463	Cl	-0.733573	-0.742843	-0.123008
Cl464	Cl	-0.400239	-0.409510	0.210325
Cl465	Cl	-0.066906	-0.076176	0.543659
H466	H	-0.268477	0.179429	-0.164284
H467	H	0.064857	0.512762	0.169049
H468	H	0.398190	0.846096	0.502383
H469	H	-0.268472	0.094322	-0.164270
H470	H	0.064862	0.427655	0.169063
H471	H	0.398195	0.760988	0.502396
Cl472	Cl	-0.281197	-0.382553	-0.151507
Cl473	Cl	0.052137	-0.049220	0.181827
Cl474	Cl	0.385470	0.284114	0.515160
H475	H	-0.744057	-0.568307	-0.297278
H476	H	-0.410724	-0.234974	0.036056
H477	H	-0.077391	0.098359	0.369389
Cl478	Cl	-0.309858	-0.025961	-0.122727
Cl479	Cl	0.023475	0.307372	0.210606
Cl480	Cl	0.356808	0.640706	0.543939
Cl481	Cl	-0.151656	-0.382726	-0.281439
Cl482	Cl	0.181677	-0.049393	0.051894
Cl483	Cl	0.515010	0.283941	0.385228
Cl484	Cl	-0.281185	-0.488457	-0.151493
Cl485	Cl	0.052148	-0.155124	0.181840
Cl486	Cl	0.385482	0.178209	0.515173
Cl487	Cl	-0.151447	-0.584426	-0.949953
Cl488	Cl	0.181886	-0.251092	-0.616619
Cl489	Cl	0.515219	0.082241	-0.283286
Cl490	Cl	-0.377017	-0.713972	-0.151670
Cl491	Cl	-0.043684	-0.380639	0.181664
Cl492	Cl	0.289650	-0.047305	0.514997
Cl493	Cl	-0.151437	-0.584433	-1.055854
Cl494	Cl	0.181897	-0.251100	-0.722521
Cl495	Cl	0.515230	0.082233	-0.389188
H496	H	-0.164265	-0.597116	-0.387948
H497	H	0.169068	-0.263782	-0.054614
H498	H	0.502401	0.069551	0.278719
Cl499	Cl	-0.151658	0.189686	-0.281470
Cl500	Cl	0.181676	0.523019	0.051863
Cl501	Cl	0.515009	0.856352	0.385197
H502	H	-0.829164	-0.568332	-0.297287
H503	H	-0.495830	-0.234999	0.036047
H504	H	-0.162497	0.098335	0.369380
H505	H	-0.135675	-0.262419	-0.297481
H506	H	0.197658	0.070915	0.035852
H507	H	0.530992	0.404248	0.369186
Cl508	Cl	-0.592826	-0.742800	-0.122995
Cl509	Cl	-0.259493	-0.409467	0.210338
Cl510	Cl	0.073840	-0.076133	0.543671
H511	H	-0.959808	-0.701424	-0.164437
H512	H	-0.626475	-0.368091	0.168896
H513	H	-0.293141	-0.034758	0.502229
Cl514	Cl	-0.151525	-0.584398	-0.483443
Cl515	Cl	0.181809	-0.251064	-0.150109
Cl516	Cl	0.515142	0.082269	0.183224
Cl517	Cl	-0.122963	-0.132076	-0.310235
Cl518	Cl	0.210371	0.201258	0.023098
Cl519	Cl	0.543704	0.534591	0.356431
H520	H	-1.044978	-0.597133	-0.268598
H521	H	-0.711644	-0.263799	0.064736
H522	H	-0.378311	0.069534	0.398069
Cl523	Cl	-1.055314	-0.714184	-0.151739
Cl524	Cl	-0.721981	-0.380850	0.181594
Cl525	Cl	-0.388648	-0.047517	0.514928
H526	H	-0.603300	-0.568269	-0.297275
H527	H	-0.269966	-0.234936	0.036058
H528	H	0.063367	0.098398	0.369391
H529	H	-0.135503	-0.568410	-0.603768
H530	H	0.197831	-0.235077	-0.270435
H531	H	0.531164	0.098256	0.062899
H532	H	-0.387467	-0.596931	-0.268535
H533	H	-0.054134	-0.263598	0.064798
H534	H	0.279199	0.069735	0.398132
Cl535	Cl	-0.482987	-0.584222	-0.281254
Cl536	Cl	-0.149654	-0.250889	0.052079
Cl537	Cl	0.183680	0.082445	0.385413
Cl538	Cl	-0.309858	-0.131843	-0.122721
Cl539	Cl	0.023475	0.201490	0.210612
Cl540	Cl	0.356808	0.534824	0.543946
H541	H	-0.135671	-0.177314	-0.297483
H542	H	0.197662	0.156019	0.035851
H543	H	0.530996	0.489353	0.369184
Cl544	Cl	-0.482903	-0.714015	-0.151682
Cl545	Cl	-0.149570	-0.380682	0.181651
Cl546	Cl	0.183764	-0.047349	0.514984
Cl547	Cl	-0.309968	-0.742698	-0.593385
Cl548	Cl	0.023365	-0.409364	-0.260052
Cl549	Cl	0.356698	-0.076031	0.073281
H550	H	-0.959869	-0.597112	-0.268596
H551	H	-0.626536	-0.263778	0.064737
H552	H	-0.293202	0.069555	0.398070
H553	H	-0.688326	-0.730094	-0.135716
H554	H	-0.354992	-0.396761	0.197617
H555	H	-0.021659	-0.063427	0.530951
Cl556	Cl	-0.309853	-0.166718	-0.122703
Cl557	Cl	0.023480	0.166615	0.210630
Cl558	Cl	0.356813	0.499949	0.543964
Cl559	Cl	-0.281166	-0.714027	-0.949971
Cl560	Cl	0.052167	-0.380694	-0.616637
Cl561	Cl	0.385501	-0.047361	-0.283304
Cl562	Cl	-0.309919	-0.742717	-0.840027
Cl563	Cl	0.023415	-0.409384	-0.506694
Cl564	Cl	0.356748	-0.076050	-0.173361
H565	H	-0.135491	-0.568413	-0.688873
H566	H	0.197843	-0.235080	-0.355540
H567	H	0.531176	0.098253	-0.022206
Cl568	Cl	-0.698802	-0.555565	-0.310003
Cl569	Cl	-0.365469	-0.222232	0.023330
Cl570	Cl	-0.032136	0.111101	0.356664
H571	H	-0.268417	-0.701322	-1.045465
H572	H	0.064917	-0.367988	-0.712131
H573	H	0.398250	-0.034655	-0.378798
H574	H	-0.297225	-0.729994	-0.688882
H575	H	0.036109	-0.396661	-0.355549
H576	H	0.369442	-0.063328	-0.022216
Cl577	Cl	-0.281234	-0.714008	-0.483468
Cl578	Cl	0.052099	-0.380675	-0.150135
Cl579	Cl	0.385432	-0.047342	0.183199
H580	H	-0.297207	-0.729996	-0.744532
H581	H	0.036126	-0.396663	-0.411199
H582	H	0.369460	-0.063330	-0.077866
Cl583	Cl	-0.122757	-0.555700	-0.734126
Cl584	Cl	0.210576	-0.222366	-0.400792
Cl585	Cl	0.543910	0.110967	-0.067459
Cl586	Cl	-0.151669	-0.488612	-0.281437
Cl587	Cl	0.181664	-0.155278	0.051897
Cl588	Cl	0.514997	0.178055	0.385230
Cl589	Cl	-0.309858	-0.272603	-0.122707
Cl590	Cl	0.023475	0.060730	0.210626
Cl591	Cl	0.356808	0.394064	0.543959
