data_functionalizedCrystal
_audit_creation_method	'MofGen! by Chris Wilmer'
_symmetry_space_group_name_H-M	'P1'
_symmetry_Int_Tables_number	1
_symmetry_cell_setting	triclinic
loop_
_symmetry_equiv_pos_as_xyz
  x,y,z
_cell_length_a	18.050591
_cell_length_b	18.050589
_cell_length_c	18.050583
_cell_angle_alpha	90.027890
_cell_angle_beta	89.975765
_cell_angle_gamma	89.969296
loop_
_atom_site_label
_atom_site_type_symbol
_atom_site_fract_x
_atom_site_fract_y
_atom_site_fract_z
Zn1	Zn	1.135283	0.295713	-0.420055
Zn2	Zn	1.135173	0.419918	-0.295875
Zn3	Zn	1.011095	0.295738	-0.295866
Zn4	Zn	1.011037	0.419857	-0.420010
O5	O	1.073147	0.357807	-0.357952
O6	O	1.239193	0.312204	-0.403605
O7	O	1.118692	0.403481	-0.191949
O8	O	1.027640	0.191810	-0.312355
O9	O	1.239112	0.403457	-0.312370
O10	O	1.118880	0.191792	-0.403596
O11	O	1.027533	0.312246	-0.191943
O12	O	0.907163	0.312187	-0.312312
O13	O	1.027540	0.403354	-0.523941
O14	O	0.907120	0.403377	-0.403520
O15	O	1.118823	0.312146	-0.523974
O16	O	1.118635	0.523835	-0.312327
O17	O	1.027433	0.523790	-0.403529
C18	C	0.880195	0.357779	-0.357911
C19	C	0.797649	0.357785	-0.357911
C20	C	0.598201	0.308138	-0.308426
C21	C	0.548772	0.375877	-0.290155
C22	C	0.646519	0.357807	-0.357944
C23	C	0.548866	0.290092	-0.376213
C24	C	0.500534	0.357823	-0.357975
C25	C	0.598178	0.425582	-0.339638
C26	C	0.598275	0.339751	-0.425727
C27	C	0.548869	0.407537	-0.407482
C28	C	0.730617	0.357797	-0.357924
C29	C	0.416437	0.357841	-0.357995
C30	C	1.073036	0.550759	-0.357940
C31	C	1.073056	0.633304	-0.357960
C32	C	1.023486	0.832758	-0.407539
C33	C	1.005379	0.882202	-0.339770
C34	C	1.073112	0.784435	-0.357970
C35	C	1.091239	0.882072	-0.425747
C36	C	1.073164	0.930420	-0.357986
C37	C	1.054969	0.832792	-0.290165
C38	C	1.140861	0.832658	-0.376188
C39	C	1.122779	0.882080	-0.308373
C40	C	1.073080	0.700337	-0.357962
C41	C	1.073197	1.014516	-0.357986
C42	C	1.266853	0.357835	-0.357993
C43	C	1.349398	0.357847	-0.358011
C44	C	1.073251	1.164101	-0.357980
C45	C	1.073222	1.081555	-0.357995
C46	C	1.073187	0.357740	-0.551657
C47	C	1.073205	0.357712	-0.634203
C48	C	1.122891	0.308063	-0.883047
C49	C	1.141005	0.375827	-0.833640
C50	C	1.073252	0.357665	-0.931324
C51	C	1.055150	0.289927	-0.833649
C52	C	1.073231	0.357684	-0.785338
C53	C	1.091402	0.425465	-0.883004
C54	C	1.005515	0.339519	-0.883017
C55	C	1.023603	0.407331	-0.833633
C56	C	1.073267	0.357652	-1.015422
C57	C	1.073216	0.357704	-0.701242
C58	C	1.073150	0.357819	-0.164999
C59	C	1.073276	0.357638	-0.082454
H60	H	0.527345	0.449596	-0.449372
H61	H	1.106787	0.482770	-0.904594
H62	H	1.164768	0.903599	-0.266412
H63	H	0.620036	0.324446	-0.483020
H64	H	1.198115	0.810881	-0.391616
H65	H	0.981616	0.449334	-0.812074
H66	H	0.948257	0.324138	-0.904724
H67	H	1.039591	0.811234	-0.232837
C68	C	0.475831	0.185298	-0.339232
C69	C	0.519624	0.212777	-0.397059
H70	H	0.457785	0.137565	-0.352096
H71	H	0.435249	0.217789	-0.330966
H72	H	0.504765	0.181895	-0.295417
H73	H	0.490688	0.216185	-0.440872
H74	H	0.560212	0.180278	-0.405333
C75	C	0.895879	0.828527	-0.444791
C76	C	0.966764	0.803512	-0.464046
H77	H	0.860862	0.810467	-0.479671
H78	H	0.895199	0.881143	-0.444875
H79	H	0.883500	0.810925	-0.396770
H80	H	0.979145	0.821119	-0.512064
H81	H	0.967446	0.750886	-0.463969
C82	C	1.086555	0.160732	-0.829334
C83	C	1.034484	0.212586	-0.804384
H84	H	1.073797	0.112984	-0.811272
H85	H	1.134320	0.173969	-0.811697
H86	H	1.086853	0.160069	-0.881956
H87	H	1.034190	0.213253	-0.751761
H88	H	0.986707	0.199346	-0.822017
C89	C	1.059842	0.886391	-0.554916
C90	C	1.111916	0.911293	-0.503115
H91	H	1.072606	0.904426	-0.602680
H92	H	1.012081	0.904088	-0.541641
H93	H	1.059532	0.833769	-0.555565
H94	H	1.112221	0.963916	-0.502462
H95	H	1.159689	0.893601	-0.516394
C96	C	0.670548	0.530797	-0.376742
C97	C	0.627291	0.502921	-0.318702
H98	H	0.688525	0.578539	-0.363812
H99	H	0.641277	0.534279	-0.420317
H100	H	0.711186	0.498481	-0.385449
H101	H	0.586650	0.535234	-0.309999
H102	H	0.656564	0.499443	-0.275114
C103	C	0.929103	0.989151	-0.318545
C104	C	0.928069	0.911586	-0.318968
H105	H	0.881374	1.007287	-0.305703
H106	H	0.942299	1.006742	-0.366344
H107	H	0.964329	1.006025	-0.283291
H108	H	0.892846	0.894712	-0.354226
H109	H	0.914864	0.893987	-0.271162
C110	C	1.250499	0.270695	-0.887418
C111	C	1.179611	0.251498	-0.912345
H112	H	1.285515	0.235778	-0.905511
H113	H	1.251190	0.270622	-0.834803
H114	H	1.262871	0.318700	-0.905046
H115	H	1.167236	0.203495	-0.894712
H116	H	1.178917	0.251562	-0.964971
C117	C	1.213299	0.461170	-0.761668
C118	C	1.218322	0.396573	-0.804361
H119	H	1.261033	0.473977	-0.743601
H120	H	1.180807	0.452934	-0.721100
H121	H	1.194660	0.500414	-0.791355
H122	H	1.236956	0.357328	-0.774672
H123	H	1.250826	0.404805	-0.844935
C124	C	0.567618	0.217041	-0.216495
C125	C	0.627448	0.251495	-0.251839
H126	H	0.585676	0.182078	-0.181557
H127	H	0.537977	0.192369	-0.252282
H128	H	0.538632	0.253310	-0.191664
H129	H	0.656431	0.215227	-0.276674
H130	H	0.657102	0.276167	-0.216046
C131	C	0.441813	0.396853	-0.213851
C132	C	0.519377	0.396450	-0.212790
H133	H	0.423659	0.409535	-0.166088
H134	H	0.424241	0.349091	-0.227212
H135	H	0.424936	0.432215	-0.248968
H136	H	0.536255	0.361083	-0.177677
H137	H	0.536956	0.444218	-0.199420
