data_functionalizedCrystal
_audit_creation_method	'MofGen! by Chris Wilmer'
_symmetry_space_group_name_H-M	'P1'
_symmetry_Int_Tables_number	1
_symmetry_cell_setting	triclinic
loop_
_symmetry_equiv_pos_as_xyz
  x,y,z
_cell_length_a	34.408637
_cell_length_b	34.407814
_cell_length_c	34.404193
_cell_angle_alpha	60.004510
_cell_angle_beta	60.009006
_cell_angle_gamma	59.994604
loop_
_atom_site_label
_atom_site_type_symbol
_atom_site_fract_x
_atom_site_fract_y
_atom_site_fract_z
O1	O	0.053973	-0.567860	0.474801
O2	O	0.553973	-0.067860	0.974801
O3	O	0.020377	-0.442124	0.382567
O4	O	0.520377	0.057876	0.882567
O5	O	0.100004	-0.521670	0.382483
O6	O	0.600004	-0.021670	0.882483
O7	O	-0.025653	-0.488314	0.474886
O8	O	0.474347	0.011686	0.974886
O9	O	0.126426	-0.495253	0.408816
O10	O	0.626426	0.004747	0.908816
O11	O	0.046800	-0.415707	0.408900
O12	O	0.546800	0.084293	0.908900
O13	O	0.080396	-0.541443	0.501134
O14	O	0.580396	-0.041443	1.001134
Zn15	Zn	0.067793	-0.474381	0.459198
Zn16	Zn	0.567793	0.025619	0.959198
Zn17	Zn	0.032980	-0.509186	0.424503
Zn18	Zn	0.532980	-0.009186	0.924503
O19	O	0.000769	-0.461897	0.501219
O20	O	0.500769	0.038103	1.001219
N21	N	0.091552	-0.450631	0.482879
N22	N	0.591552	0.049369	0.982879
N23	N	0.009225	-0.532940	0.400823
N24	N	0.509225	-0.032940	0.900823
C25	C	0.142848	-0.268847	0.534081
C26	C	0.642848	0.231153	1.034081
C27	C	0.142979	-0.399386	0.664559
C28	C	0.642979	0.100614	1.164559
C29	C	0.142862	-0.399365	0.534081
C30	C	0.642862	0.100635	1.034081
C31	C	0.273409	-0.399338	0.533986
C32	C	0.773409	0.100662	1.033986
C33	C	0.157225	-0.311914	0.548422
C34	C	0.657225	0.188086	1.048422
C35	C	0.157300	-0.385019	0.621491
C36	C	0.657300	0.114981	1.121491
C37	C	0.230339	-0.384991	0.548370
C38	C	0.730339	0.115009	1.048370
C39	C	0.157235	-0.385007	0.548422
C40	C	0.657235	0.114993	1.048422
C41	C	0.124548	-0.214028	0.515827
C42	C	0.624548	0.285972	1.015827
C43	C	0.124571	-0.417639	0.515827
C44	C	0.624571	0.082361	1.015827
C45	C	0.175526	-0.366733	0.566676
C46	C	0.675526	0.133267	1.066676
C47	C	0.353121	-0.385580	0.491988
C48	C	0.853121	0.114420	0.991988
C49	C	0.402952	-0.402180	0.475348
C50	C	0.902952	0.097820	0.975348
C51	C	0.402981	-0.482812	0.506096
C52	C	0.902981	0.017188	1.006096
C53	C	0.353151	-0.466211	0.522737
C54	C	0.853151	0.033789	1.022737
C55	C	0.136544	-0.189099	0.466839
C56	C	0.636544	0.310901	0.966839
C57	C	0.119905	-0.139265	0.450247
C58	C	0.619905	0.360735	0.950247
C59	C	0.079280	-0.139291	0.531632
C60	C	0.579280	0.360709	1.031632
C61	C	0.095918	-0.189125	0.548224
C62	C	0.595918	0.310875	1.048224
C63	C	0.075577	-0.405615	0.527900
C64	C	0.575577	0.094385	1.027900
C65	C	0.058953	-0.422228	0.511301
C66	C	0.558953	0.077772	1.011301
C67	C	0.140315	-0.462889	0.470566
C68	C	0.640315	0.037111	0.970566
C69	C	0.156941	-0.446276	0.487159
C70	C	0.656941	0.053724	0.987159
C71	C	0.075772	-0.405653	0.744326
C72	C	0.575772	0.094347	1.244326
C73	C	0.059206	-0.422280	0.794159
C74	C	0.559206	0.077720	1.294159
C75	C	0.140607	-0.462951	0.794094
C76	C	0.640607	0.037049	1.294094
C77	C	0.157172	-0.446325	0.744260
C78	C	0.657172	0.053675	1.244260
C79	C	0.124753	-0.417674	0.719377
C80	C	0.624753	0.082326	1.219377
C81	C	0.328223	-0.417595	0.515681
C82	C	0.828223	0.082405	1.015681
C83	C	-0.172390	-0.583988	0.349141
C84	C	0.327610	-0.083988	0.849141
C85	C	-0.041751	-0.584138	0.218783
C86	C	0.458249	-0.084138	0.718783
C87	C	-0.041941	-0.584130	0.349402
C88	C	0.458059	-0.084130	0.849402
C89	C	-0.041957	-0.714607	0.349338
C90	C	0.458043	-0.214607	0.849338
C91	C	-0.129326	-0.598388	0.334853
C92	C	0.370674	-0.098388	0.834853
C93	C	-0.056165	-0.598473	0.261852
C94	C	0.443835	-0.098473	0.761852
C95	C	-0.056282	-0.671535	0.334962
C96	C	0.443718	-0.171535	0.834962
C97	C	-0.056272	-0.598469	0.334999
C98	C	0.443728	-0.098469	0.834999
C99	C	-0.227205	-0.565659	0.367327
C100	C	0.272795	-0.065659	0.867327
C101	C	-0.023703	-0.565882	0.367734
C102	C	0.476297	-0.065882	0.867734
C103	C	-0.074511	-0.616717	0.316667
C104	C	0.425489	-0.116717	0.816667
C105	C	-0.055754	-0.794298	0.391257
C106	C	0.444246	-0.294298	0.891257
C107	C	-0.039181	-0.844132	0.407888
C108	C	0.460819	-0.344132	0.907888
C109	C	0.041447	-0.844215	0.377269
C110	C	0.541447	-0.344215	0.877269
C111	C	0.024873	-0.794381	0.360637
C112	C	0.524873	-0.294381	0.860637
C113	C	-0.252183	-0.577666	0.416302
C114	C	0.247817	-0.077666	0.916302
C115	C	-0.302014	-0.561001	0.432833
C116	C	0.197986	-0.061001	0.932833
C117	C	-0.301886	-0.520329	0.351410
C118	C	0.198114	-0.020329	0.851410
C119	C	-0.252055	-0.536994	0.334880
C120	C	0.247945	-0.036994	0.834880
C121	C	-0.035709	-0.516892	0.355682
C122	C	0.464291	-0.016892	0.855682
C123	C	-0.019129	-0.500308	0.372353
C124	C	0.480871	-0.000308	0.872353
C125	C	0.021465	-0.581700	0.413115
C126	C	0.521465	-0.081700	0.913115
C127	C	0.004884	-0.598286	0.396450
C128	C	0.504884	-0.098286	0.896450
C129	C	-0.035389	-0.516907	0.139026
C130	C	0.464611	-0.016907	0.639026
C131	C	-0.018707	-0.500324	0.089193
C132	C	0.481293	-0.000324	0.589193
C133	C	0.021949	-0.581721	0.089240
C134	C	0.521949	-0.081721	0.589240
C135	C	0.005268	-0.598303	0.139074
C136	C	0.505268	-0.098303	0.639074
C137	C	-0.023402	-0.565894	0.163965
C138	C	0.476598	-0.065894	0.663965
C139	C	-0.023728	-0.769425	0.367633
C140	C	0.476272	-0.269425	0.867633
N141	N	0.427173	-0.450553	0.482630
N142	N	0.927173	0.049447	0.982630
O143	O	0.589997	-0.458460	0.365361
O144	O	1.089997	0.041540	0.865361
O145	O	0.590185	-0.550997	0.490963
O146	O	1.090185	-0.050997	0.990963
O147	O	0.590104	-0.550786	0.411309
O148	O	1.090104	-0.050786	0.911309
O149	O	0.590077	-0.458671	0.445016
O150	O	1.090077	0.041329	0.945016
O151	O	0.510940	-0.524462	0.437777
O152	O	1.010940	-0.024462	0.937777
O153	O	0.511020	-0.524674	0.517432
O154	O	1.011020	-0.024674	1.017432
O155	O	0.510832	-0.432136	0.391830
O156	O	1.010832	0.067864	0.891830
Zn157	Zn	0.498357	-0.474225	0.458833
Zn158	Zn	0.998357	0.025775	0.958833
Zn159	Zn	0.602660	-0.508908	0.423960
Zn160	Zn	1.102660	-0.008908	0.923960
O161	O	0.510913	-0.432348	0.471484
O162	O	1.010913	0.067652	0.971484
N163	N	0.673844	-0.532580	0.400158
N164	N	1.173844	-0.032580	0.900158
N165	N	0.091520	-0.115070	0.482873
N166	N	0.591520	0.384930	0.982873
O167	O	-0.025663	0.047841	0.474857
O168	O	0.474337	0.547841	0.974857
O169	O	0.099940	0.047877	0.382299
O170	O	0.599940	0.547877	0.882299
O171	O	0.020247	0.047844	0.382560
O172	O	0.520247	0.547844	0.882560
O173	O	0.054030	0.047874	0.474596
O174	O	0.554030	0.547874	0.974596
O175	O	0.046674	-0.031326	0.408942
O176	O	0.546674	0.468674	0.908942
O177	O	0.126367	-0.031293	0.408680
O178	O	0.626367	0.468707	0.908680
O179	O	0.000764	-0.031329	0.501238
O180	O	0.500764	0.468671	1.001238
Zn181	Zn	0.067761	-0.043881	0.459148
Zn182	Zn	0.567761	0.456119	0.959148
Zn183	Zn	0.032943	0.060429	0.424389
Zn184	Zn	0.532943	0.560429	0.924389
O185	O	0.080457	-0.031296	0.500977
O186	O	0.580457	0.468704	1.000977
N187	N	0.009178	0.131618	0.400665
N188	N	0.509178	0.631618	0.900665
N189	N	0.091852	-0.450680	0.818332
N190	N	0.591852	0.049320	1.318332
O191	O	0.083862	-0.567845	0.981235
O192	O	0.583862	-0.067845	1.481235
O193	O	-0.008657	-0.442198	0.981276
O194	O	0.491343	0.057802	1.481276
O195	O	-0.008441	-0.521875	0.981252
O196	O	0.491559	-0.021875	1.481252
O197	O	0.083646	-0.488168	0.981258
O198	O	0.583646	0.011832	1.481258
O199	O	0.017919	-0.495468	0.902085
O200	O	0.517919	0.004532	1.402085
O201	O	0.017703	-0.415791	0.902109
O202	O	0.517703	0.084209	1.402109
O203	O	0.110222	-0.541438	0.902067
O204	O	0.610222	-0.041438	1.402067
Zn205	Zn	0.068148	-0.474422	0.889518
Zn206	Zn	0.568148	0.025578	1.389518
Zn207	Zn	0.033417	-0.509214	0.993825
Zn208	Zn	0.533417	-0.009214	1.493825
O209	O	0.110006	-0.461761	0.902091
O210	O	0.610006	0.038239	1.402091
N211	N	0.009712	-0.532961	1.065011
N212	N	0.509712	-0.032961	1.565011
C213	C	0.030439	-0.413071	0.383027
C214	C	0.530439	0.086929	0.883027
C215	C	0.129046	-0.511580	0.382922
C216	C	0.629046	-0.011580	0.882922
C217	C	0.070334	-0.570496	0.500675
C218	C	0.570334	-0.070496	1.000675
C219	C	-0.028274	-0.471987	0.500780
C220	C	0.471726	0.028013	1.000780
C221	C	0.550625	-0.550579	0.520021
C222	C	1.050625	-0.050579	1.020021
C223	C	0.550527	-0.550317	0.421379
C224	C	1.050527	-0.050317	0.921379
C225	C	0.550389	-0.432554	0.362773
C226	C	1.050389	0.067446	0.862773
C227	C	0.550491	-0.432816	0.461414
C228	C	1.050491	0.067184	0.961414
C229	C	0.128944	0.008394	0.382712
C230	C	0.628944	0.508394	0.882712
C231	C	0.030287	0.008256	0.383068
C232	C	0.530287	0.508256	0.883068
C233	C	-0.028273	0.008252	0.500793
C234	C	0.471727	0.508252	1.000793
C235	C	0.070417	0.008292	0.500470
C236	C	0.570417	0.508292	1.000470
C237	C	-0.008218	-0.413165	0.941698
C238	C	0.491782	0.086835	1.441698
C239	C	-0.007945	-0.511830	0.941653
C240	C	0.492055	-0.011830	1.441653
C241	C	0.109783	-0.570471	0.941646
C242	C	0.609783	-0.070471	1.441646
C243	C	0.109516	-0.471800	0.941673
C244	C	0.609516	0.028200	1.441673
H245	H	0.049370	-0.382321	0.724071
H246	H	0.549370	0.117679	1.224071
H247	H	-0.036863	-0.519031	0.941619
H248	H	0.463137	-0.019031	1.441619
H249	H	0.165136	-0.518689	0.353905
H250	H	0.665136	-0.018689	0.853905
H251	H	0.138447	-0.464586	0.941669
H252	H	0.638447	0.035414	1.441669
N253	N	0.020708	0.008241	0.344766
N254	N	0.520708	0.508241	0.844766
H255	H	0.049935	0.008248	0.315293
H256	H	0.549935	0.508248	0.815293
H257	H	-0.006925	0.037584	0.336931
H258	H	0.493075	0.537584	0.836931
H259	H	0.550329	-0.403500	0.326702
H260	H	1.050329	0.096500	0.826702
H261	H	0.138832	-0.606554	0.941627
H262	H	0.638832	-0.106554	1.441627
N263	N	-0.046693	-0.365366	0.941710
N264	N	0.453307	0.134634	1.441710
H265	H	-0.054662	-0.359176	0.971061
H266	H	0.445338	0.140824	1.471061
H267	H	-0.076055	-0.365328	0.941692
H268	H	0.423945	0.134672	1.441692
N269	N	0.006374	-0.409309	0.821064
N270	N	0.506374	0.090691	1.321064
H271	H	-0.011646	-0.388635	0.797737
H272	H	0.488354	0.111365	1.297737
H273	H	-0.002273	-0.391358	0.841742
H274	H	0.497727	0.108642	1.341742
N275	N	0.175571	-0.493841	0.820933
N276	N	0.675571	0.006159	1.320933
H277	H	0.209115	-0.498932	0.797567
H278	H	0.709115	0.001068	1.297567
H279	H	0.170476	-0.525590	0.841607
H280	H	0.670476	-0.025590	1.341607
N281	N	0.080001	0.008310	0.538766
N282	N	0.580001	0.508310	1.038766
H283	H	0.107622	-0.021029	0.546640
H284	H	0.607622	0.478971	1.046640
H285	H	0.050752	0.008323	0.568215
H286	H	0.550752	0.508323	1.068215
N287	N	0.550540	-0.588651	0.411832
N288	N	1.050540	-0.088651	0.911832
H289	H	0.579912	-0.617427	0.415570
H290	H	1.079912	-0.117427	0.915570
H291	H	0.550480	-0.576260	0.378337
H292	H	1.050480	-0.076260	0.878337
N293	N	-0.076049	0.008232	0.539286
N294	N	0.423951	0.508232	1.039286
H295	H	-0.076095	0.008233	0.568665
H296	H	0.423905	0.508233	1.068665
H297	H	-0.082198	-0.021129	0.547226
H298	H	0.417802	0.478871	1.047226
N299	N	0.210004	-0.459292	0.717352
N300	N	0.710004	0.040708	1.217352
H301	H	0.228026	-0.479962	0.740678
H302	H	0.728026	0.020038	1.240678
H303	H	0.218647	-0.429315	0.696675
H304	H	0.718647	0.070685	1.196675
N305	N	0.550482	-0.394485	0.470961
N306	N	1.050482	0.105515	0.970961
H307	H	0.550525	-0.406837	0.504458
H308	H	1.050525	0.093163	1.004458
H309	H	0.521109	-0.365721	0.467197
H310	H	1.021109	0.134279	0.967197
N311	N	0.079839	-0.618337	0.539052
N312	N	0.579839	-0.118337	1.039052
H313	H	0.113338	-0.639543	0.526745
H314	H	0.613338	-0.139543	1.026745
H315	H	0.056452	-0.633513	0.548285
H316	H	0.556452	-0.133513	1.048285
H317	H	0.049217	-0.382297	0.551240
H318	H	0.549217	0.117703	1.051240
H319	H	0.019058	-0.412426	0.521121
H320	H	0.519058	0.087574	1.021121
N321	N	-0.076080	-0.462580	0.539215
N322	N	0.423920	0.037420	1.039215
H323	H	-0.097335	-0.429088	0.526966
H324	H	0.402665	0.070912	1.026966
H325	H	-0.071633	-0.466407	0.567965
H326	H	0.428367	0.033593	1.067965
H327	H	0.164941	0.008624	0.353583
H328	H	0.664941	0.508624	0.853583
H329	H	0.423225	-0.376108	0.456057
H330	H	0.923225	0.123892	0.956057
N331	N	0.550694	-0.589065	0.567801
N332	N	1.050694	-0.089065	1.067801
H333	H	0.521361	-0.577501	0.593585
H334	H	1.021361	-0.077501	1.093585
H335	H	0.580073	-0.597006	0.573923
H336	H	1.080073	-0.097006	1.073923
N337	N	0.175231	-0.493783	0.439652
N338	N	0.675231	0.006217	0.939652
H339	H	0.208790	-0.498683	0.434330
H340	H	0.708790	0.001317	0.934330
H341	H	0.169926	-0.477704	0.408009
H342	H	0.669926	0.022296	0.908009
N343	N	0.209784	-0.459241	0.474142
N344	N	0.709784	0.040759	0.974142
H345	H	0.224653	-0.447052	0.438393
H346	H	0.724653	0.052948	0.938393
H347	H	0.224663	-0.494990	0.486335
H348	H	0.724663	0.005010	0.986335
N349	N	0.326297	-0.500743	0.548295
N350	N	0.826297	-0.000743	1.048295
H351	H	0.349654	-0.534059	0.550236
H352	H	0.849654	-0.034059	1.050236
H353	H	0.305601	-0.491856	0.530257
H354	H	0.805601	0.008144	1.030257
H355	H	0.423275	-0.522397	0.511838
H356	H	0.923275	-0.022397	1.011838
H357	H	0.332825	-0.345993	0.486242
H358	H	0.832825	0.154007	0.986242
H359	H	0.129672	-0.118967	0.410356
H360	H	0.629672	0.381033	0.910356
N361	N	0.167426	-0.215958	0.431897
N362	N	0.667426	0.284042	0.931897
H363	H	0.172497	-0.192603	0.398344
H364	H	0.672497	0.307397	0.898344
H365	H	0.151247	-0.236643	0.437027
H366	H	0.651247	0.263357	0.937027
H367	H	0.055974	-0.119015	0.558014
H368	H	0.555974	0.380985	1.058014
H369	H	-0.028474	-0.460433	0.068892
H370	H	0.471526	0.039567	0.568892
N371	N	0.082983	-0.216013	0.601061
N372	N	0.582983	0.283987	1.101061
H373	H	0.047240	-0.207353	0.615981
H374	H	0.547240	0.292647	1.115981
H375	H	0.095204	-0.207328	0.615906
H376	H	0.595204	0.292672	1.115906
N377	N	-0.066315	-0.481951	0.165871
N378	N	0.433685	0.018049	0.665871
H379	H	-0.071377	-0.448401	0.142508
H380	H	0.428623	0.051599	0.642508
H381	H	-0.050171	-0.487082	0.186593
H382	H	0.449829	0.012918	0.686593
H383	H	0.050956	-0.774133	0.341399
H384	H	0.550956	-0.274133	0.841399
N385	N	0.052859	-0.616675	0.062392
N386	N	0.552859	-0.116675	0.562392
H387	H	0.057919	-0.650226	0.085753
H388	H	0.557919	-0.150226	0.585753
H389	H	0.084618	-0.611597	0.041765
H390	H	0.584618	-0.111597	0.541765
H391	H	0.015032	-0.638195	0.159378
H392	H	0.515032	-0.138195	0.659378
H393	H	-0.028907	-0.460416	0.362542
H394	H	0.471093	0.039584	0.862542
N395	N	-0.066541	-0.481943	0.324711
N396	N	0.433459	0.018057	0.824711
H397	H	-0.071632	-0.448391	0.319610
H398	H	0.428368	0.051609	0.819610
H399	H	-0.098291	-0.487026	0.340841
H400	H	0.401709	0.012974	0.840841
H401	H	0.014660	-0.638178	0.406265
H402	H	0.514660	-0.138178	0.906265
N403	N	0.052296	-0.616653	0.444089
N404	N	0.552296	-0.116653	0.944089
H405	H	0.082271	-0.637361	0.426169
H406	H	0.582271	-0.137361	0.926169
H407	H	0.034256	-0.637269	0.474025
H408	H	0.534256	-0.137269	0.974025
N409	N	0.093866	-0.871134	0.369730
N410	N	0.593866	-0.371134	0.869730
H411	H	0.111641	-0.847814	0.352241
H412	H	0.611641	-0.347814	0.852241
H413	H	0.106288	-0.891817	0.350333
H414	H	0.606288	-0.391817	0.850333
H415	H	-0.065262	-0.864385	0.427124
H416	H	0.434738	-0.364385	0.927124
H417	H	-0.095331	-0.773979	0.396956
H418	H	0.404669	-0.273979	0.896956
H419	H	-0.231954	-0.601008	0.442726
H420	H	0.268046	-0.101008	0.942726
H421	H	-0.322118	-0.496994	0.324987
H422	H	0.177882	0.003006	0.824987
N423	N	-0.328959	-0.573944	0.485658
N424	N	0.171041	-0.073944	0.985658
H425	H	-0.305655	-0.594634	0.503704
H426	H	0.194345	-0.094634	1.003704
H427	H	-0.349643	-0.591870	0.494280
H428	H	0.150357	-0.091870	0.994280
H429	H	-0.231721	-0.527215	0.295000
H430	H	0.268279	-0.027215	0.795000
H431	H	0.023260	-0.376951	0.354059
H432	H	0.523260	0.123049	0.854059
