data_functionalizedCrystal
_audit_creation_method	'MofGen! by Chris Wilmer'
_symmetry_space_group_name_H-M	'P1'
_symmetry_Int_Tables_number	1
_symmetry_cell_setting	triclinic
loop_
_symmetry_equiv_pos_as_xyz
  x,y,z
_cell_length_a	9.065218
_cell_length_b	17.766277
_cell_length_c	19.288874
_cell_angle_alpha	89.993108
_cell_angle_beta	84.078055
_cell_angle_gamma	89.990588
loop_
_atom_site_label
_atom_site_type_symbol
_atom_site_fract_x
_atom_site_fract_y
_atom_site_fract_z
O1	O	1.956851	-0.062597	0.101842
O2	O	1.527275	-0.062598	0.110195
O3	O	1.754468	-0.062592	0.004985
O4	O	1.729658	-0.062604	0.207052
O5	O	1.754428	0.062597	0.004979
O6	O	1.527235	0.062590	0.110189
O7	O	1.956812	0.062591	0.101836
Cu8	Cu	1.742020	0.074021	0.106012
Cu9	Cu	1.742067	-0.074029	0.106019
O10	O	1.729618	0.062585	0.207046
C11	C	1.472296	-0.000004	0.109389
C12	C	1.308537	-0.000004	0.106989
N13	N	1.741997	0.178152	0.106007
N14	N	1.742101	-0.178159	0.106019
C15	C	2.011790	-0.000005	0.102642
C16	C	2.175549	-0.000009	0.105042
C17	C	1.753648	0.000002	-0.020901
C18	C	1.751244	0.000002	-0.098022
C19	C	1.842631	0.217542	0.059443
C20	C	1.842640	0.296343	0.059440
C21	C	1.742028	0.335752	0.106013
C22	C	1.641376	0.296353	0.152580
C23	C	1.641360	0.217553	0.152577
C24	C	1.722284	0.460587	0.169147
C25	C	1.722309	0.539385	0.169151
C26	C	1.742068	0.578799	0.106021
C27	C	1.761832	0.539403	0.042886
C28	C	1.761816	0.460603	0.042883
C29	C	1.742033	0.421198	0.106021
C30	C	1.842716	0.703634	0.059450
C31	C	1.842715	0.782438	0.059446
C32	C	1.641458	0.782446	0.152592
C33	C	1.641453	0.703644	0.152590
C34	C	1.742090	0.664243	0.106020
C35	C	1.733964	0.068224	-0.653729
C36	C	1.736207	0.068228	-0.581264
C37	C	1.737357	-0.000012	-0.545021
C38	C	1.736226	-0.068260	-0.581247
C39	C	1.733969	-0.068262	-0.653710
C40	C	1.827352	-0.052290	-0.434988
C41	C	1.829619	-0.052285	-0.362527
C42	C	1.744312	-0.000008	-0.321520
C43	C	1.656758	0.052277	-0.352985
C44	C	1.654501	0.052275	-0.425448
C45	C	1.739803	-0.000017	-0.466447
C46	C	1.747863	0.068241	-0.206728
C47	C	1.750097	0.068242	-0.134261
C48	C	1.750131	-0.068248	-0.134246
C49	C	1.747883	-0.068247	-0.206711
C50	C	1.746756	-0.000001	-0.242948
C51	C	1.730439	-0.000011	0.232932
C52	C	1.732842	-0.000016	0.310053
H53	H	1.924572	0.185464	0.021522
H54	H	1.924590	0.328420	0.021521
C55	C	1.700554	0.582713	0.238600
N56	N	1.684159	0.615345	0.290912
H57	H	1.559454	0.328444	0.190499
H58	H	1.733053	-0.123833	-0.683198
H59	H	1.559410	0.185481	0.190495
C60	C	1.700547	0.417240	0.238599
N61	N	1.684176	0.384592	0.290908
C62	C	1.732701	0.143297	-0.693584
N63	N	1.731741	0.199843	-0.723603
C64	C	1.737455	0.143300	-0.541417
N65	N	1.738401	0.199844	-0.511407
C66	C	1.558178	0.109780	-0.460055
N67	N	1.485620	0.153092	-0.486121
C68	C	1.562912	0.109787	-0.307882
N69	N	1.492232	0.153102	-0.273909
C70	C	1.953404	0.660291	0.008216
N71	N	2.036773	0.627646	-0.030375
C72	C	1.746605	0.143313	-0.246590
N73	N	1.745653	0.199857	-0.276612
H74	H	1.751007	0.123813	-0.104773
H75	H	1.896812	-0.094869	-0.468370
H76	H	1.751049	-0.123810	-0.104736
H77	H	1.777905	0.428531	-0.008524
H78	H	1.746979	-0.123815	-0.236200
C79	C	1.737500	-0.143324	-0.541378
N80	N	1.738458	-0.199864	-0.511350
H81	H	1.777920	0.571492	-0.008520
C82	C	1.953401	0.825766	0.008208
N83	N	2.036765	0.858402	-0.030389
H84	H	1.559533	0.814532	0.190510
C85	C	1.925935	-0.109797	-0.327924
N86	N	1.998482	-0.153116	-0.301862
C87	C	1.530852	0.660314	0.203866
N88	N	1.447576	0.627677	0.242504
