data_functionalizedCrystal
_audit_creation_method	'MofGen! by Chris Wilmer'
_symmetry_space_group_name_H-M	'P1'
_symmetry_Int_Tables_number	1
_symmetry_cell_setting	triclinic
loop_
_symmetry_equiv_pos_as_xyz
  x,y,z
_cell_length_a	12.759401
_cell_length_b	16.120444
_cell_length_c	12.759393
_cell_angle_alpha	92.863624
_cell_angle_beta	89.980316
_cell_angle_gamma	92.925610
loop_
_atom_site_label
_atom_site_type_symbol
_atom_site_fract_x
_atom_site_fract_y
_atom_site_fract_z
Zn1	Zn	1.584963	-0.331877	-0.615185
Zn2	Zn	1.575911	-0.471315	-0.448401
Zn3	Zn	1.409262	-0.331918	-0.439524
Zn4	Zn	1.400312	-0.471249	-0.624034
O5	O	1.492612	-0.401590	-0.531786
O6	O	1.730782	-0.350385	-0.593073
O7	O	1.553762	-0.452869	-0.300205
O8	O	1.440103	-0.215247	-0.455408
O9	O	1.724132	-0.452829	-0.470537
O10	O	1.569190	-0.215217	-0.584465
O11	O	1.431326	-0.350455	-0.293683
O12	O	1.261054	-0.350390	-0.463988
O13	O	1.424848	-0.452716	-0.769879
O14	O	1.254479	-0.452756	-0.599547
O15	O	1.560511	-0.350320	-0.763377
O16	O	1.545083	-0.587972	-0.479117
O17	O	1.416071	-0.587923	-0.608154
C18	C	1.219646	-0.401571	-0.531765
C19	C	1.102868	-0.401583	-0.531782
C20	C	1.051404	-0.348211	-0.461316
C21	C	0.941679	-0.348230	-0.461330
C22	C	0.934891	-0.454996	-0.602287
C23	C	1.044615	-0.454980	-0.602266
C24	C	1.109658	-0.294813	-0.390831
C25	C	1.058194	-0.241436	-0.320360
C26	C	0.948468	-0.241456	-0.320374
C27	C	0.890207	-0.294853	-0.390860
C28	C	1.478652	-0.618198	-0.545582
C29	C	1.472776	-0.710863	-0.551519
C30	C	1.523350	-0.921809	-0.501213
C31	C	1.462068	-0.880519	-0.562369
C32	C	1.468028	-0.786114	-0.556330
C33	C	1.517392	-1.016223	-0.507251
C34	C	1.766644	-0.401610	-0.531808
C35	C	1.883420	-0.401618	-0.531817
C36	C	1.492691	-0.401506	-0.805814
C37	C	1.492724	-0.401470	-0.922589
C38	C	1.506655	-0.184136	-0.517959
C39	C	1.512639	-0.091471	-0.512067
C40	C	1.563373	-0.348148	-0.974067
C41	C	1.563400	-0.348117	-1.083789
C42	C	1.422126	-0.454739	-1.090545
C43	C	1.422095	-0.454765	-0.980825
C44	C	1.634003	-0.294853	-0.915830
C45	C	1.704659	-0.241527	-0.967309
C46	C	1.704686	-0.241497	-1.077031
C47	C	1.634057	-0.294793	-1.135275
C48	C	1.492597	-0.401614	-0.258820
C49	C	1.492782	-0.401415	-0.142031
H50	H	0.800861	-0.294868	-0.390862
H51	H	0.887447	-0.498468	-0.659675
O52	O	1.094450	-0.506847	-0.670821
C53	C	1.019508	-0.553989	-0.733027
H54	H	0.943486	-0.519859	-0.734579
H55	H	1.050681	-0.562953	-0.816350
H56	H	1.003756	-0.617274	-0.698456
H57	H	1.105637	-0.197968	-0.262967
H58	H	1.633991	-0.294873	-0.826489
H59	H	0.906569	-0.198000	-0.262987
H60	H	1.364623	-0.498130	-1.137976
H61	H	1.405126	-0.916071	-0.619262
H62	H	1.580287	-0.886262	-0.444324
H63	H	1.762209	-0.198070	-1.118941
H64	H	1.199002	-0.294789	-0.390814
O65	O	1.634244	-0.294840	-1.241864
C66	C	1.733571	-0.316229	-1.279889
H67	H	1.774641	-0.352591	-1.218970
H68	H	1.723486	-0.356189	-1.355828
H69	H	1.782903	-0.257204	-1.295618
O70	O	1.773219	-0.189831	-0.910578
C71	C	1.758029	-0.201274	-0.802696
H72	H	1.719465	-0.265615	-0.791791
H73	H	1.837079	-0.195632	-0.760645
H74	H	1.705263	-0.151828	-0.768414
O75	O	1.353450	-0.506657	-0.930980
C76	C	1.291116	-0.553690	-1.005906
H77	H	1.333973	-0.556546	-1.084313
H78	H	1.275689	-0.619388	-0.978378
H79	H	1.213283	-0.523171	-1.015615
