data_functionalizedCrystal
_audit_creation_method	'MofGen! by Chris Wilmer'
_symmetry_space_group_name_H-M	'P1'
_symmetry_Int_Tables_number	1
_symmetry_cell_setting	triclinic
loop_
_symmetry_equiv_pos_as_xyz
  x,y,z
_cell_length_a	17.038272
_cell_length_b	23.532407
_cell_length_c	15.500227
_cell_angle_alpha	92.805592
_cell_angle_beta	86.956295
_cell_angle_gamma	86.980117
loop_
_atom_site_label
_atom_site_type_symbol
_atom_site_fract_x
_atom_site_fract_y
_atom_site_fract_z
O1	O	1.040103	0.121159	-0.071851
O2	O	0.812488	0.119196	-0.071876
O3	O	0.933158	0.037607	-0.071847
O4	O	0.919432	0.202748	-0.071880
O5	O	0.925836	0.042537	0.072040
O6	O	0.805165	0.124126	0.072011
O7	O	1.032780	0.126090	0.072036
Cu8	Cu	0.918304	0.125558	0.085162
Cu9	Cu	0.926964	0.119727	-0.085001
O10	O	0.912110	0.207678	0.072007
C11	C	0.779712	0.119875	0.000065
C12	C	0.692959	0.114548	0.000056
C13	C	0.642483	0.163453	0.000046
C14	C	0.560969	0.158445	0.000059
C15	C	0.529932	0.104532	0.000075
C16	C	0.580414	0.055624	0.000087
C17	C	0.661927	0.060632	0.000080
C18	C	0.284304	0.086837	0.000102
C19	C	0.202786	0.081832	0.000106
C20	C	0.183345	0.184654	0.000080
C21	C	0.264860	0.189658	0.000068
C22	C	0.315335	0.140750	0.000084
C23	C	0.446612	0.099412	0.000086
C24	C	0.398653	0.145871	0.000080
C25	C	0.929147	0.018838	0.000099
C26	C	0.928096	-0.044434	0.000105
C27	C	0.992917	-0.440131	0.000065
C28	C	0.991941	-0.499583	0.000058
O29	O	1.052030	-0.533169	0.000033
N30	N	0.920202	-0.525981	0.000051
C31	C	0.849435	-0.492924	0.000042
O32	O	0.788325	-0.520836	0.000034
C33	C	0.850412	-0.433473	0.000042
C34	C	0.922155	-0.407078	0.000058
C35	C	1.064654	-0.413736	0.000080
C36	C	1.065630	-0.354288	0.000089
C37	C	0.994868	-0.321235	0.000082
C38	C	0.923131	-0.347631	0.000067
C39	C	0.779646	-0.400418	0.000027
C40	C	0.780629	-0.340963	0.000026
C41	C	0.852372	-0.314569	0.000043
C42	C	0.853344	-0.255130	0.000068
N43	N	0.925083	-0.228732	0.000075
C44	C	0.995845	-0.261785	0.000082
C45	C	0.847388	-0.617774	0.000039
C46	C	0.846410	-0.677223	0.000045
C47	C	0.988916	-0.683878	0.000060
C48	C	0.989894	-0.624428	0.000061
C49	C	0.919127	-0.591376	0.000047
C50	C	0.997889	-0.136940	0.000100
C51	C	0.998858	-0.077487	0.000112
C52	C	0.856352	-0.070837	0.000093
C53	C	0.855382	-0.130285	0.000085
C54	C	0.926157	-0.163336	0.000086
O55	O	0.793287	-0.221508	0.000090
O56	O	1.056945	-0.233865	0.000078
C57	C	1.065556	0.125410	0.000094
C58	C	1.152310	0.130737	0.000097
C59	C	0.916121	0.226447	0.000059
C60	C	0.917172	0.289719	0.000047
N61	N	0.912219	0.129659	0.204845
N62	N	0.933055	0.115622	-0.204685
C63	C	0.963369	0.095101	0.250134
C64	C	0.958774	0.098208	0.340706
C65	C	0.903033	0.135876	0.385987
C66	C	0.851877	0.170435	0.340691
C67	C	0.856469	0.167324	0.250121
C68	C	0.886491	0.147071	0.659450
C69	C	0.881905	0.150180	0.750026
C70	C	0.988801	0.077952	0.750034
C71	C	0.993391	0.074848	0.659462
C72	C	0.942233	0.109404	0.614175
C73	C	0.898336	0.139054	0.478566
C74	C	0.946927	0.106223	0.521598
H75	H	0.423926	0.189767	0.000072
Cl76	Cl	1.053107	0.034510	0.806971
H77	H	0.142240	0.224472	0.000069
Cl78	Cl	0.681491	0.231232	0.000021
Cl79	Cl	1.063468	0.027495	0.602537
Cl80	Cl	1.153625	-0.455277	0.000090
Cl81	Cl	0.303871	0.257436	0.000042
H82	H	0.703024	0.020809	0.000087
Cl83	Cl	0.811824	0.197539	0.806945
H84	H	0.844838	0.175209	0.622584
Cl85	Cl	0.497516	0.219928	0.000043
H86	H	0.723001	-0.314056	0.000014
Cl87	Cl	0.781797	0.217786	0.397614
H88	H	1.048313	-0.602941	0.000073
H89	H	0.177520	0.037928	0.000118
Cl90	Cl	0.767399	-0.029274	0.000082
Cl91	Cl	0.792160	0.210768	0.193187
H92	H	0.421332	0.055516	0.000123
H93	H	0.789757	-0.590866	0.000035
Cl94	Cl	1.016997	0.058869	0.464672
H95	H	0.796962	-0.151776	0.000096
Cl96	Cl	0.541397	-0.012153	0.000112
Cl97	Cl	1.089056	-0.044309	0.000131
Cl98	Cl	0.689449	-0.433585	0.000001
Cl99	Cl	1.086864	-0.178480	0.000103
H100	H	1.008763	0.064431	0.213272
H101	H	1.124051	-0.332803	0.000098
H102	H	0.852952	0.169725	0.515441
Cl103	Cl	1.077875	-0.725441	0.000063
Cl104	Cl	0.347748	0.025352	0.000122
Cl105	Cl	0.756214	-0.710397	0.000041
Cl106	Cl	1.023077	0.054763	0.397642
