data_functionalizedCrystal
_audit_creation_method	'MofGen! by Chris Wilmer'
_symmetry_space_group_name_H-M	'P1'
_symmetry_Int_Tables_number	1
_symmetry_cell_setting	triclinic
loop_
_symmetry_equiv_pos_as_xyz
  x,y,z
_cell_length_a	12.759399
_cell_length_b	12.759401
_cell_length_c	12.759393
_cell_angle_alpha	89.980324
_cell_angle_beta	89.969094
_cell_angle_gamma	90.015542
loop_
_atom_site_label
_atom_site_type_symbol
_atom_site_fract_x
_atom_site_fract_y
_atom_site_fract_z
Zn1	Zn	-0.418204	1.606263	-0.593982
Zn2	Zn	-0.593919	1.606153	-0.418301
Zn3	Zn	-0.418256	1.430562	-0.418321
Zn4	Zn	-0.593842	1.430553	-0.593942
O5	O	-0.506055	1.518383	-0.506136
O6	O	-0.441523	1.753270	-0.570686
O7	O	-0.570671	1.582818	-0.271282
O8	O	-0.271228	1.453919	-0.441648
O9	O	-0.570620	1.753189	-0.441613
O10	O	-0.271189	1.583006	-0.570705
O11	O	-0.441612	1.453812	-0.271297
O12	O	-0.441538	1.283540	-0.441609
O13	O	-0.570489	1.453903	-0.740968
O14	O	-0.570540	1.283533	-0.570637
O15	O	-0.441448	1.582997	-0.740998
O16	O	-0.740930	1.582809	-0.441575
O17	O	-0.740874	1.453796	-0.570617
C18	C	-0.506037	1.245415	-0.506121
C19	C	-0.506055	1.128639	-0.506140
C20	C	-0.438955	1.073820	-0.573451
C21	C	-0.438966	0.964096	-0.573458
C22	C	-0.573185	0.964020	-0.438839
C23	C	-0.573168	1.073742	-0.438828
C24	C	-0.779023	1.518318	-0.506112
C25	C	-0.895799	1.518387	-0.506137
C26	C	-0.950656	1.585641	-0.439021
C27	C	-1.060380	1.585708	-0.439056
C28	C	-1.060381	1.451259	-0.573327
C29	C	-0.950659	1.451198	-0.573296
C30	C	-1.210258	1.709717	-0.401666
C31	C	-1.265118	1.776961	-0.334533
C32	C	-1.229577	1.793124	-0.232023
C33	C	-1.139179	1.742027	-0.196624
C34	C	-1.084324	1.674775	-0.263751
C35	C	-1.119863	1.658632	-0.366276
C36	C	-0.800779	1.327188	-0.610675
C37	C	-0.745923	1.259929	-0.677798
C38	C	-0.781461	1.243756	-0.780310
C39	C	-0.871863	1.294835	-0.815705
C40	C	-0.926720	1.362093	-0.748583
C41	C	-0.891174	1.378268	-0.646072
C42	C	-0.232022	1.518476	-0.506183
C43	C	-0.115245	1.518516	-0.506203
C44	C	-0.505954	1.518461	-0.780170
C45	C	-0.505911	1.518495	-0.896946
C46	C	-0.506074	1.792416	-0.506152
C47	C	-0.506082	1.909193	-0.506158
C48	C	-0.438709	1.585719	-0.951825
C49	C	-0.438664	1.585737	-1.061550
C50	C	-0.573032	1.451303	-1.061506
C51	C	-0.573072	1.451281	-0.951784
C52	C	-0.506080	1.518365	-0.233169
C53	C	-0.505827	1.518535	-0.116393
H54	H	-0.627827	0.919309	-0.384037
H55	H	-0.672308	1.218345	-0.648973
H56	H	-0.627810	1.118377	-0.384009
H57	H	-0.383939	1.640476	-1.106227
H58	H	-0.905991	1.640352	-0.384338
H59	H	-1.010722	1.633174	-0.234931
Br60	Br	-1.090961	1.763950	-0.057487
Br61	Br	-0.664177	1.360093	-1.135935
Br62	Br	-0.707062	1.152404	-0.871377
Br63	Br	-0.752537	1.349143	-0.471548
H64	H	-0.384020	1.640446	-0.907180
Br65	Br	-0.347894	0.889702	-0.664810
H66	H	-1.274252	1.847877	-0.177363
H67	H	-0.627795	1.396532	-0.907100
H68	H	-0.384304	1.118514	-0.628258
H69	H	-1.338720	1.818565	-0.363365
Br70	Br	-1.134840	1.360077	-0.664465
H71	H	-1.000327	1.403688	-0.777412
H72	H	-0.900799	1.281666	-0.899180
Br73	Br	-1.258485	1.687804	-0.540801
