data_functionalizedCrystal
_audit_creation_method	'MofGen! by Chris Wilmer'
_symmetry_space_group_name_H-M	'P1'
_symmetry_Int_Tables_number	1
_symmetry_cell_setting	triclinic
loop_
_symmetry_equiv_pos_as_xyz
  x,y,z
_cell_length_a	21.395362
_cell_length_b	12.645330
_cell_length_c	21.395356
_cell_angle_alpha	89.978499
_cell_angle_beta	89.957023
_cell_angle_gamma	90.033572
loop_
_atom_site_label
_atom_site_type_symbol
_atom_site_fract_x
_atom_site_fract_y
_atom_site_fract_z
Zn1	Zn	0.957910	-0.421617	-0.354613
Zn2	Zn	0.957838	-0.598894	-0.249846
Zn3	Zn	0.853127	-0.421695	-0.249814
Zn4	Zn	0.853118	-0.598888	-0.354551
O5	O	0.905498	-0.510273	-0.302206
O6	O	1.045579	-0.445103	-0.340754
O7	O	0.943922	-0.575424	-0.162164
O8	O	0.867060	-0.273337	-0.263728
O9	O	1.045526	-0.575348	-0.263783
O10	O	0.944044	-0.273280	-0.340723
O11	O	0.866991	-0.445236	-0.162140
O12	O	0.765448	-0.445229	-0.263668
O13	O	0.867045	-0.575337	-0.442237
O14	O	0.765441	-0.575413	-0.340618
O15	O	0.944036	-0.445097	-0.442282
O16	O	0.943913	-0.747241	-0.263724
O17	O	0.866976	-0.747236	-0.340650
C18	C	0.742711	-0.510329	-0.302133
C19	C	0.673069	-0.510379	-0.302117
C20	C	0.905453	-0.785703	-0.302197
C21	C	0.905490	-0.903533	-0.302214
C22	C	0.640369	-0.578255	-0.342125
C23	C	0.574934	-0.578229	-0.342153
C24	C	0.542201	-0.510338	-0.302162
C25	C	0.574909	-0.442449	-0.262151
C26	C	0.640343	-0.442469	-0.262129
C27	C	0.438476	-0.501813	-0.245756
C28	C	0.373043	-0.501800	-0.245777
C29	C	0.340380	-0.510269	-0.302231
C30	C	0.373159	-0.518773	-0.358665
C31	C	0.438593	-0.518793	-0.358643
C32	C	0.471249	-0.510308	-0.302182
C33	C	0.236728	-0.578121	-0.342272
C34	C	0.171291	-0.578087	-0.342301
C35	C	0.171268	-0.442312	-0.262294
C36	C	0.236703	-0.442340	-0.262271
C37	C	0.269429	-0.510250	-0.302259
C38	C	0.857289	-1.071138	-0.350758
C39	C	0.857042	-0.948579	-0.350602
C40	C	0.887613	-0.948129	-0.236177
C41	C	0.887319	-1.070728	-0.236472
C42	C	0.971864	-1.070593	-0.319173
C43	C	0.971458	-0.947986	-0.320616
C44	C	1.068922	-0.510218	-0.302279
C45	C	1.138563	-0.510194	-0.302311
C46	C	0.905548	-0.510208	-0.465629
C47	C	0.905569	-0.510180	-0.535271
C48	C	0.905561	-0.233768	-0.302228
C49	C	0.905588	-0.115938	-0.302238
C50	C	0.865521	-0.442383	-0.567961
C51	C	0.865519	-0.442364	-0.633397
C52	C	0.905576	-0.510129	-0.666139
C53	C	0.945626	-0.577939	-0.633440
C54	C	0.945622	-0.577964	-0.568006
C55	C	0.962029	-0.518437	-0.769845
C56	C	0.962033	-0.518405	-0.835278
C57	C	0.905586	-0.510058	-0.867960
C58	C	0.849132	-0.501721	-0.835201
C59	C	0.849129	-0.501746	-0.769767
C60	C	0.905584	-0.510110	-0.737091
C61	C	0.865533	-0.442236	-0.971603
C62	C	0.865530	-0.442224	-1.037040
C63	C	0.945642	-0.577794	-1.037082
C64	C	0.945639	-0.577812	-0.971647
C65	C	0.905586	-0.510027	-0.938911
C66	C	0.905485	-0.510262	-0.139418
C67	C	0.905586	-0.509992	-0.069778
H68	H	0.667011	-0.633551	-0.374688
Cl69	Cl	0.812519	-1.115063	-0.214328
H70	H	0.832914	-0.387019	-1.063656
Cl71	Cl	0.479531	-0.491170	-0.174778
Cl72	Cl	0.130182	-0.663420	-0.392605
H73	H	0.263375	-0.633411	-0.374837
Cl74	Cl	0.815165	-0.357174	-0.526812
Cl75	Cl	0.277814	-0.357008	-0.211970
Cl76	Cl	0.813590	-0.900910	-0.213632
H77	H	0.807908	-0.919366	-0.339381
Cl78	Cl	0.533760	-0.357095	-0.211879
H79	H	0.988172	-1.101434	-0.366510
H80	H	0.921677	-0.918951	-0.199037
Cl81	Cl	0.331843	-0.491109	-0.174833
H82	H	0.832919	-0.387043	-0.944949
Cl83	Cl	0.130124	-0.356956	-0.212022
H84	H	0.978258	-0.632968	-1.063740
Cl85	Cl	0.681454	-0.357132	-0.211829
Cl86	Cl	0.995992	-0.663039	-0.930547
Cl87	Cl	0.939267	-1.116491	-0.178748
H88	H	0.984939	-0.918834	-0.369216
Cl89	Cl	0.874308	-0.902018	-0.426201
H90	H	1.009338	-0.917315	-0.287852
H91	H	1.007848	-1.099561	-0.283834
Cl92	Cl	0.874394	-1.116551	-0.426607
Cl93	Cl	0.815184	-0.357104	-0.674503
H94	H	1.008001	-0.525188	-0.861945
H95	H	0.808462	-1.102061	-0.339680
H96	H	0.803162	-0.494961	-0.743097
Cl97	Cl	1.032998	-0.528939	-0.728766
H98	H	0.346566	-0.525667	-0.404635
H99	H	0.548304	-0.633502	-0.374734
Cl100	Cl	0.778165	-0.491221	-0.876279
H101	H	0.978240	-0.633114	-0.660103
Cl102	Cl	0.995973	-0.663199	-0.526907
H103	H	0.465278	-0.525714	-0.404593
