data_functionalizedCrystal
_audit_creation_method	'MofGen! by Chris Wilmer'
_symmetry_space_group_name_H-M	'P1'
_symmetry_Int_Tables_number	1
_symmetry_cell_setting	triclinic
loop_
_symmetry_equiv_pos_as_xyz
  x,y,z
_cell_length_a	10.723023
_cell_length_b	10.654550
_cell_length_c	9.798715
_cell_angle_alpha	89.997783
_cell_angle_beta	89.996685
_cell_angle_gamma	84.476225
loop_
_atom_site_label
_atom_site_type_symbol
_atom_site_fract_x
_atom_site_fract_y
_atom_site_fract_z
O1	O	1.657214	0.176143	-0.113484
O2	O	1.294064	0.193004	-0.113487
O3	O	1.483988	0.001833	-0.113480
O4	O	1.467289	0.367314	-0.113490
O5	O	1.483975	0.001831	0.113502
O6	O	1.294050	0.193003	0.113495
O7	O	1.657200	0.176141	0.113499
Zn8	Zn	1.475623	0.184572	0.149535
Zn9	Zn	1.475641	0.184574	-0.149523
O10	O	1.467276	0.367312	0.113492
C11	C	1.247557	0.191777	0.000004
C12	C	1.109002	0.188106	0.000003
C13	C	1.047237	0.186470	-0.117581
C14	C	0.904034	0.182676	-0.117585
C15	C	1.482755	-0.044966	0.000009
C16	C	1.479087	-0.184408	0.000005
C17	C	1.590911	-0.263911	0.000010
C18	C	1.587457	-0.394931	0.000000
C19	C	1.360344	-0.366933	-0.000014
C20	C	1.363800	-0.235915	-0.000014
C21	C	1.706199	-0.212404	0.000028
C22	C	1.818033	-0.291908	0.000035
C23	C	1.814578	-0.422928	0.000026
C24	C	1.699290	-0.474445	0.000009
C25	C	1.703707	0.177369	0.000005
C26	C	1.842262	0.181039	-0.000003
C27	C	1.468508	0.414111	-0.000001
C28	C	1.472177	0.553554	-0.000005
N29	N	1.475620	0.184570	0.353635
N30	N	1.475653	0.184566	-0.353623
C31	C	1.395892	0.265188	0.421442
C32	C	1.395909	0.265187	0.578605
H33	H	0.895371	0.182440	0.100670
H34	H	1.696486	-0.581131	-0.000013
H35	H	1.272742	-0.171182	-0.000016
H36	H	1.327625	0.334216	0.363146
H37	H	1.327646	0.334204	0.636916
C38	C	1.944842	-0.235237	0.000051
N39	N	2.040358	-0.192554	0.000066
H40	H	1.055863	0.186705	0.100668
H41	H	0.850918	0.181266	-0.218253
H42	H	1.543911	0.115536	0.588075
H43	H	1.100375	0.187885	-0.218246
C44	C	1.710009	-0.068281	0.000039
N45	N	1.712878	0.040274	0.000049
H46	H	1.543896	0.115552	0.411934
C47	C	1.937596	-0.510379	0.000033
N48	N	2.030257	-0.576245	0.000050
H49	H	1.266481	-0.408889	-0.000025
