data_functionalizedCrystal
_audit_creation_method	'MofGen! by Chris Wilmer'
_symmetry_space_group_name_H-M	'P1'
_symmetry_Int_Tables_number	1
_symmetry_cell_setting	triclinic
loop_
_symmetry_equiv_pos_as_xyz
  x,y,z
_cell_length_a	12.759395
_cell_length_b	25.639240
_cell_length_c	12.759387
_cell_angle_alpha	90.043601
_cell_angle_beta	90.020509
_cell_angle_gamma	90.034295
loop_
_atom_site_label
_atom_site_type_symbol
_atom_site_fract_x
_atom_site_fract_y
_atom_site_fract_z
Zn1	Zn	1.606137	-0.208102	0.593912
Zn2	Zn	1.605972	-0.295548	0.418193
Zn3	Zn	1.430435	-0.208130	0.418248
Zn4	Zn	1.430372	-0.295510	0.593832
O5	O	1.518229	-0.251823	0.506046
O6	O	1.753136	-0.219705	0.570612
O7	O	1.582644	-0.283979	0.271179
O8	O	1.453838	-0.134961	0.441607
O9	O	1.753015	-0.283951	0.441512
O10	O	1.582925	-0.134940	0.570666
O11	O	1.453678	-0.219754	0.271220
O12	O	1.283406	-0.219718	0.441530
O13	O	1.453730	-0.283888	0.740864
O14	O	1.283359	-0.283916	0.570530
O15	O	1.582864	-0.219669	0.740922
O16	O	1.582583	-0.368708	0.441435
O17	O	1.453570	-0.368681	0.570476
C18	C	1.245262	-0.251816	0.506028
C19	C	1.128485	-0.251826	0.506045
C20	C	1.518081	-0.387665	0.505964
C21	C	1.518113	-0.445779	0.505964
C22	C	1.128475	-0.318783	0.640156
C23	C	1.073609	-0.352266	0.707214
C24	C	0.963888	-0.352272	0.707227
C25	C	0.909029	-0.318791	0.640177
C26	C	0.963895	-0.285309	0.573118
C27	C	1.073619	-0.285307	0.573111
C28	C	0.963905	-0.218349	0.439015
C29	C	1.073626	-0.218345	0.438995
C30	C	0.909046	-0.184868	0.371964
C31	C	0.963912	-0.151387	0.304899
C32	C	1.073640	-0.151383	0.304888
C33	C	1.128492	-0.184862	0.371936
C34	C	1.585478	-0.806093	0.573368
C35	C	1.585509	-0.860697	0.573390
O36	O	1.642609	-0.888892	0.630615
N37	N	1.518375	-0.888062	0.506148
C38	C	1.451197	-0.860819	0.438887
O39	O	1.394097	-0.889108	0.381696
C40	C	1.451162	-0.806216	0.438872
C41	C	1.518308	-0.778854	0.506111
C42	C	1.652618	-0.778731	0.640603
C43	C	1.652588	-0.724131	0.640580
C44	C	1.585418	-0.696892	0.573322
C45	C	1.518278	-0.724253	0.506088
C46	C	1.383980	-0.778974	0.371618
C47	C	1.383950	-0.724367	0.371609
C48	C	1.451096	-0.697005	0.438848
C49	C	1.451079	-0.642414	0.438808
N50	N	1.518213	-0.615050	0.506050
C51	C	1.585383	-0.642288	0.573307
C52	C	1.451276	-0.975489	0.438926
C53	C	1.451316	-1.030092	0.438935
C54	C	1.585626	-1.029966	0.573439
C55	C	1.585591	-0.975363	0.573424
C56	C	1.518410	-0.948125	0.506168
C57	C	1.585316	-0.527623	0.573253
C58	C	1.585283	-0.473018	0.573221
C59	C	1.450969	-0.473148	0.438722
C60	C	1.451005	-0.527749	0.438749
C61	C	1.518182	-0.554985	0.506024
O62	O	1.394005	-0.614185	0.381615
O63	O	1.642464	-0.613992	0.630499
C64	C	1.792262	-0.251829	0.506065
C65	C	1.909039	-0.251832	0.506073
C66	C	1.518308	-0.251771	0.780080
C67	C	1.518342	-0.251749	0.896857
C68	C	1.518407	-0.115449	0.506152
C69	C	1.518482	-0.057335	0.506197
C70	C	1.518210	-0.251836	0.233079
C71	C	1.518380	-0.251710	0.116303
C72	C	1.652818	-0.184883	0.896937
C73	C	1.720071	-0.151442	0.951839
C74	C	1.720096	-0.151423	1.061560
C75	C	1.652860	-0.184847	1.116383
C76	C	1.585607	-0.218288	1.061482
C77	C	1.585591	-0.218305	0.951758
C78	C	1.451128	-0.285151	1.061401
C79	C	1.451106	-0.285174	0.951680
C80	C	1.383891	-0.318576	1.116224
C81	C	1.316642	-0.352021	1.061323
C82	C	1.316620	-0.352039	0.951595
C83	C	1.383853	-0.318615	0.896778
H84	H	1.217816	-0.318785	0.640145
H85	H	1.118287	-0.379525	0.761807
H86	H	1.261898	-0.379229	1.105969
C87	C	1.779833	-0.121708	1.229798
C88	C	1.794017	-0.114663	1.121916
H89	H	1.825464	-0.099011	1.267056
H90	H	1.795163	-0.156831	1.247741
H91	H	1.709253	-0.114048	1.247761
H92	H	1.864596	-0.122326	1.103951
H93	H	1.778694	-0.079532	1.103965
C94	C	1.062618	-0.085198	0.172323
C95	C	1.133945	-0.114580	0.231168
H96	H	1.099847	-0.062481	0.126805
H97	H	1.019872	-0.065229	0.218186
H98	H	1.019774	-0.107961	0.132054
H99	H	1.176784	-0.091817	0.271442
H100	H	1.176708	-0.134550	0.185298
H101	H	1.639965	-0.450742	0.627975
H102	H	1.261843	-0.379265	0.906901
C103	C	1.436816	-1.091567	0.297610
C104	C	1.377513	-1.060165	0.365018
H105	H	1.391246	-1.110128	0.251976
H106	H	1.476810	-1.115605	0.337666
H107	H	1.482599	-1.070260	0.257458
H108	H	1.331736	-1.081472	0.405176
H109	H	1.337502	-1.036123	0.324957
C110	C	1.324346	-0.862723	0.311928
C111	C	1.310154	-0.809041	0.297722
H112	H	1.278764	-0.881283	0.266303
H113	H	1.308953	-0.871642	0.382503
H114	H	1.394943	-0.871650	0.296592
H115	H	1.239557	-0.800113	0.313065
H116	H	1.325539	-0.800118	0.227130
C117	C	1.483762	-0.331970	0.739617
C118	C	1.383841	-0.318631	0.776171
H119	H	1.483757	-0.331974	0.665158
H120	H	1.501866	-0.365706	0.764403
H121	H	1.533426	-0.307269	0.764487
H122	H	1.334178	-0.343334	0.751307
H123	H	1.365724	-0.284890	0.751374
H124	H	0.819688	-0.318795	0.640202
H125	H	1.329240	-0.702192	0.316842
C126	C	1.410622	-0.368292	1.273356
C127	C	1.383916	-0.318557	1.236832
H128	H	1.410631	-0.368282	1.347814
H129	H	1.478395	-0.377338	1.248538
H130	H	1.360939	-0.392986	1.248496
H131	H	1.433603	-0.293864	1.261685
H132	H	1.316133	-0.309506	1.261660
H133	H	1.774812	-0.124227	0.907190
H134	H	0.919216	-0.379534	0.761837
H135	H	0.819705	-0.184874	0.371984
C136	C	1.285601	-0.234578	0.344936
C137	C	1.249100	-0.184859	0.371924
H138	H	1.360060	-0.234576	0.344937
H139	H	1.260744	-0.243570	0.277108
H140	H	1.260768	-0.259306	0.394474
H141	H	1.273927	-0.160131	0.322381
H142	H	1.273968	-0.175861	0.439762
H143	H	0.919237	-0.124127	0.250317
C144	C	1.718072	-0.522000	0.706204
C145	C	1.659155	-0.557556	0.647203
H146	H	1.763661	-0.540480	0.751851
H147	H	1.672258	-0.500704	0.746333
H148	H	1.758267	-0.500707	0.660440
H149	H	1.618954	-0.578846	0.692968
H150	H	1.704974	-0.578861	0.607072
H151	H	1.707261	-0.701856	0.695334
H152	H	1.707316	-0.800903	0.695378
C153	C	1.679486	-0.234652	0.739724
C154	C	1.652792	-0.184906	0.776330
H155	H	1.679475	-0.234663	0.665265
H156	H	1.629821	-0.259336	0.764516
H157	H	1.747278	-0.243689	0.764553
H158	H	1.584997	-0.175870	0.751507
H159	H	1.702460	-0.160214	0.751527
C160	C	1.718345	-0.980736	0.706380
C161	C	1.659387	-0.945290	0.647347
H162	H	1.763898	-0.962171	0.752024
H163	H	1.758571	-1.002031	0.660643
H164	H	1.672548	-1.002040	0.746521
H165	H	1.705185	-0.923988	0.607199
H166	H	1.619158	-0.923986	0.693089
C167	C	1.645291	-1.113619	0.633194
C168	C	1.659453	-1.059915	0.647381
H169	H	1.690861	-1.132107	0.678846
H170	H	1.660716	-1.122589	0.562629
H171	H	1.574690	-1.122582	0.648505
H172	H	1.730052	-1.050950	0.632063
H173	H	1.644035	-1.050941	0.717963
H174	H	1.396572	-0.953315	0.384149
H175	H	1.396338	-0.550028	0.383989
C176	C	1.309629	-0.411809	0.424011
C177	C	1.377132	-0.443199	0.364802
H178	H	1.264038	-0.393322	0.378378
H179	H	1.349621	-0.387706	0.464044
H180	H	1.269437	-0.433115	0.469753
H181	H	1.417330	-0.421893	0.319064
H182	H	1.337137	-0.467306	0.324750
H183	H	1.652878	-0.184824	1.205724
