data_functionalizedCrystal
_audit_creation_method	'MofGen! by Chris Wilmer'
_symmetry_space_group_name_H-M	'P1'
_symmetry_Int_Tables_number	1
_symmetry_cell_setting	triclinic
loop_
_symmetry_equiv_pos_as_xyz
  x,y,z
_cell_length_a	16.120484
_cell_length_b	16.120542
_cell_length_c	13.032268
_cell_angle_alpha	85.358095
_cell_angle_beta	99.642751
_cell_angle_gamma	89.836765
loop_
_atom_site_label
_atom_site_type_symbol
_atom_site_fract_x
_atom_site_fract_y
_atom_site_fract_z
Zn1	Zn	-0.462338	-1.180621	-0.695185
Zn2	Zn	-0.585460	-1.191127	-0.528926
Zn3	Zn	-0.437668	-1.061095	-0.511303
Zn4	Zn	-0.594189	-1.034575	-0.694224
O5	O	-0.519914	-1.116854	-0.607409
O6	O	-0.485342	-1.297554	-0.680907
O7	O	-0.551878	-1.189373	-0.380455
O8	O	-0.323910	-1.083653	-0.528721
O9	O	-0.575799	-1.305272	-0.558758
O10	O	-0.342034	-1.171468	-0.663819
O11	O	-0.443296	-1.093840	-0.367508
O12	O	-0.451760	-0.942038	-0.527790
O13	O	-0.590676	-1.038453	-0.840485
O14	O	-0.566754	-0.922554	-0.662182
O15	O	-0.493806	-1.145752	-0.841190
O16	O	-0.703649	-1.163658	-0.557827
O17	O	-0.710062	-1.048640	-0.679271
C18	C	-0.737204	-1.104431	-0.620381
C19	C	-0.830169	-1.099188	-0.625971
C20	C	-0.507528	-0.902338	-0.592970
C21	C	-0.502252	-0.810563	-0.586819
C22	C	-0.545966	-1.087972	-0.879788
C23	C	-0.557068	-1.075664	-0.995859
C24	C	-1.000380	-1.089618	-0.636197
C25	C	-1.038617	-1.144237	-0.578649
C26	C	-1.133328	-1.138912	-0.584339
C27	C	-0.905660	-1.094942	-0.630508
C28	C	-0.301779	-1.129346	-0.594411
C29	C	-0.208823	-1.134670	-0.588872
C30	C	-0.547253	-0.592022	-0.639258
C31	C	-0.492626	-0.642532	-0.575588
C32	C	-0.497983	-0.736033	-0.581839
C33	C	-0.541897	-0.498513	-0.633009
C34	C	-0.532343	-0.332211	-0.621891
C35	C	-0.537625	-0.423987	-0.628024
C36	C	-0.514089	-1.123267	-1.047956
C37	C	-0.525562	-1.110547	-1.167922
C38	C	-0.493905	-1.145675	-0.336091
C39	C	-0.482577	-1.158156	-0.220017
H40	H	-1.000223	-1.194996	-0.525106
H41	H	-0.468795	-1.173435	-1.003744
Cl42	Cl	-0.414212	-0.600885	-0.484174
Cl43	Cl	-0.595488	-1.033077	-1.236168
H44	H	-0.437278	-1.208326	-1.175810
Cl45	Cl	-1.059654	-1.011252	-0.718855
H46	H	-0.598040	-0.618998	-0.698458
H47	H	-0.602353	-1.025489	-1.040070
