data_functionalizedCrystal
_audit_creation_method	'MofGen! by Chris Wilmer'
_symmetry_space_group_name_H-M	'P1'
_symmetry_Int_Tables_number	1
_symmetry_cell_setting	triclinic
loop_
_symmetry_equiv_pos_as_xyz
  x,y,z
_cell_length_a	19.805407
_cell_length_b	16.625545
_cell_length_c	19.805399
_cell_angle_alpha	89.974422
_cell_angle_beta	89.982197
_cell_angle_gamma	90.022874
loop_
_atom_site_label
_atom_site_type_symbol
_atom_site_fract_x
_atom_site_fract_y
_atom_site_fract_z
Zn1	Zn	1.034740	-0.321078	-0.382697
Zn2	Zn	1.034656	-0.455915	-0.269513
Zn3	Zn	0.921554	-0.321094	-0.269525
Zn4	Zn	0.921519	-0.455866	-0.382663
O5	O	0.978117	-0.388488	-0.326100
O6	O	1.129445	-0.338978	-0.367692
O7	O	1.019633	-0.438058	-0.174798
O8	O	0.936618	-0.208259	-0.284557
O9	O	1.129384	-0.438043	-0.284536
O10	O	1.019775	-0.208248	-0.367704
O11	O	0.936537	-0.339006	-0.174807
O12	O	0.826833	-0.338958	-0.284524
O13	O	0.936559	-0.437959	-0.477384
O14	O	0.826808	-0.437974	-0.367646
O15	O	1.019741	-0.338931	-0.477409
O16	O	1.019599	-0.568741	-0.284503
O17	O	0.936478	-0.568705	-0.367634
C18	C	0.802261	-0.388463	-0.326083
C19	C	0.727029	-0.388472	-0.326092
C20	C	0.691718	-0.336980	-0.369457
C21	C	0.621029	-0.336984	-0.369460
C22	C	0.585654	-0.388485	-0.326100
C23	C	0.620970	-0.439979	-0.282730
C24	C	0.691658	-0.439970	-0.282725
C25	C	0.335897	-0.440015	-0.282751
C26	C	0.265205	-0.440022	-0.282761
C27	C	0.265269	-0.337030	-0.369486
C28	C	0.335956	-0.337021	-0.369481
C29	C	0.371266	-0.388511	-0.326108
C30	C	0.447915	-0.388505	-0.326105
C31	C	0.509007	-0.388496	-0.326106
C32	C	0.978044	-0.597979	-0.326078
C33	C	0.978074	-0.687600	-0.326092
C34	C	0.978101	-0.760383	-0.326105
C35	C	0.978140	-0.851691	-0.326120
C36	C	0.978175	-0.924468	-0.326129
C37	C	0.978214	-1.015782	-0.326143
C38	C	1.154660	-0.388514	-0.326116
C39	C	1.229892	-0.388525	-0.326124
C40	C	0.978155	-0.388438	-0.502642
C41	C	0.978172	-0.388416	-0.577874
C42	C	0.978210	-0.178179	-0.326136
C43	C	0.978249	-0.088558	-0.326151
C44	C	1.021486	-0.336849	-0.613233
C45	C	1.021493	-0.336826	-0.683921
C46	C	0.978188	-0.388374	-0.719250
C47	C	0.934870	-0.439943	-0.683887
C48	C	0.934860	-0.439961	-0.613200
C49	C	0.934908	-0.439867	-0.968960
C50	C	0.934922	-0.439846	-1.039652
C51	C	1.021541	-0.336732	-1.039682
C52	C	1.021531	-0.336751	-0.968995
C53	C	0.978210	-0.388316	-0.933637
C54	C	0.978202	-0.388340	-0.856989
C55	C	0.978199	-0.388355	-0.795897
C56	C	0.978119	-0.388481	-0.150244
C57	C	0.978234	-0.388275	-0.075012
H58	H	0.592282	-0.295056	-0.404773
O59	O	1.063595	-0.286844	-0.718347
C60	C	1.107305	-0.332740	-0.759230
H61	H	1.083411	-0.393840	-0.769801
H62	H	1.116386	-0.299882	-0.808946
H63	H	1.157462	-0.341608	-0.732003
H64	H	0.899608	-0.481911	-0.712657
O65	O	0.892855	-0.489886	-0.934516
C66	C	0.902138	-0.478868	-0.864549
H67	H	0.924328	-0.416648	-0.854906
H68	H	0.851431	-0.484342	-0.837678
H69	H	0.938159	-0.526704	-0.844487
O70	O	0.230915	-0.490160	-0.240669
C71	C	0.248160	-0.570547	-0.255344
H72	H	0.299496	-0.572257	-0.281352
H73	H	0.250546	-0.606619	-0.206438
H74	H	0.208386	-0.597767	-0.290107
O75	O	0.370263	-0.490078	-0.240720
C76	C	0.411141	-0.542226	-0.279174
H77	H	0.421766	-0.513865	-0.330506
H78	H	0.460831	-0.552991	-0.251580
H79	H	0.383882	-0.601990	-0.286531
O80	O	0.892787	-0.489945	-1.073867
C81	C	0.854559	-0.535475	-1.027504
H82	H	0.852221	-0.502464	-0.977120
H83	H	0.801230	-0.544056	-1.047922
H84	H	0.879311	-0.596722	-1.019978
O85	O	0.726037	-0.490030	-0.240696
C86	C	0.766916	-0.542176	-0.279151
H87	H	0.777531	-0.513818	-0.330487
H88	H	0.816610	-0.552929	-0.251562
H89	H	0.739663	-0.601945	-0.286501
H90	H	0.899582	-0.481944	-0.584412
H91	H	1.056796	-0.294778	-0.940233
O92	O	1.063585	-0.286521	-1.073954
C93	C	1.048817	-0.206161	-1.056701
H94	H	1.022791	-0.204503	-1.005374
H95	H	1.097683	-0.170016	-1.054295
H96	H	1.014038	-0.178982	-1.096483
H97	H	0.720516	-0.295045	-0.404768
H98	H	0.364755	-0.295086	-0.404791
H99	H	0.236511	-0.295101	-0.404800
O100	O	0.586578	-0.490092	-0.240707
C101	C	0.545681	-0.542223	-0.279169
H102	H	0.567004	-0.547284	-0.332468
H103	H	0.544853	-0.604236	-0.254597
H104	H	0.492115	-0.517303	-0.281544
O105	O	1.063574	-0.286699	-0.579022
C106	C	1.101816	-0.241194	-0.625392
H107	H	1.074100	-0.238386	-0.675775
H108	H	1.109061	-0.177672	-0.604982
H109	H	1.153210	-0.270726	-0.632913
