data_functionalizedCrystal
_audit_creation_method	'MofGen! by Chris Wilmer'
_symmetry_space_group_name_H-M	'P1'
_symmetry_Int_Tables_number	1
_symmetry_cell_setting	triclinic
loop_
_symmetry_equiv_pos_as_xyz
  x,y,z
_cell_length_a	10.686220
_cell_length_b	10.686285
_cell_length_c	10.686551
_cell_angle_alpha	99.084519
_cell_angle_beta	90.308082
_cell_angle_gamma	89.654569
loop_
_atom_site_label
_atom_site_type_symbol
_atom_site_fract_x
_atom_site_fract_y
_atom_site_fract_z
Zn1	Zn	1.994012	0.307898	-0.537149
Zn2	Zn	2.327345	0.641231	-0.203815
Zn3	Zn	2.660679	0.974565	0.129518
Zn4	Zn	1.993911	0.536485	-0.308653
Zn5	Zn	2.327244	0.869819	0.024680
Zn6	Zn	2.660578	1.203152	0.358013
Zn7	Zn	1.770410	0.340205	-0.340818
Zn8	Zn	2.103743	0.673538	-0.007485
Zn9	Zn	2.437076	1.006872	0.325849
Zn10	Zn	1.800161	0.533926	-0.534641
Zn11	Zn	2.133494	0.867259	-0.201307
Zn12	Zn	2.466827	1.200592	0.132026
O13	O	1.889623	0.429629	-0.430315
O14	O	2.222957	0.762962	-0.096982
O15	O	2.556290	1.096295	0.236352
O16	O	2.168662	0.325771	-0.494427
O17	O	2.501995	0.659104	-0.161093
O18	O	2.835329	0.992438	0.172240
O19	O	1.951770	0.525040	-0.136178
O20	O	2.285103	0.858373	0.197155
O21	O	2.618437	1.191707	0.530488
O22	O	1.787663	0.159182	-0.381372
O23	O	2.120996	0.492515	-0.048039
O24	O	2.454329	0.825849	0.285295
O25	O	2.168588	0.493713	-0.326552
O26	O	2.501921	0.827046	0.006781
O27	O	2.835254	1.160380	0.340114
O28	O	1.951942	0.135446	-0.525615
O29	O	2.285275	0.468780	-0.192282
O30	O	2.618609	0.802113	0.141051
O31	O	1.787565	0.380834	-0.159810
O32	O	2.120898	0.714167	0.173524
O33	O	2.454231	1.047500	0.506857
O34	O	1.599693	0.378352	-0.378940
O35	O	1.933026	0.711685	-0.045607
O36	O	2.266359	1.045019	0.287726
O37	O	1.838368	0.489351	-0.711715
O38	O	2.171702	0.822684	-0.378382
O39	O	2.505035	1.156018	-0.045048
O40	O	1.621551	0.520678	-0.521341
O41	O	1.954884	0.854011	-0.188008
O42	O	2.288217	1.187344	0.145325
O43	O	1.980790	0.323289	-0.713557
O44	O	2.314123	0.656623	-0.380224
O45	O	2.647457	0.989956	-0.046891
O46	O	1.980618	0.712883	-0.324121
O47	O	2.313951	1.046216	0.009213
O48	O	2.647285	1.379550	0.342546
O49	O	1.838270	0.711003	-0.490153
O50	O	2.171604	1.044336	-0.156819
O51	O	2.504937	1.377669	0.176514
C52	C	1.565334	0.452744	-0.453360
C53	C	1.898667	0.786077	-0.120026
C54	C	2.232000	1.119410	0.213307
C55	C	1.426605	0.462661	-0.463246
C56	C	1.759939	0.795994	-0.129912
C57	C	2.093272	1.129327	0.203421
C58	C	1.912697	0.757764	-0.403399
C59	C	2.246031	1.091097	-0.070066
C60	C	2.579364	1.424431	0.263267
C61	C	1.922686	0.898130	-0.391919
C62	C	2.256019	1.231464	-0.058585
C63	C	2.589353	1.564797	0.274748
C64	C	1.912909	0.402431	-0.759745
C65	C	2.246242	0.735764	-0.426411
C66	C	2.579576	1.069098	-0.093078
C67	C	1.922832	0.390841	-0.900128
C68	C	2.256165	0.724174	-0.566795
C69	C	2.589499	1.057508	-0.233461
C70	C	2.215179	0.406424	-0.407181
C71	C	2.548513	0.739757	-0.073848
C72	C	2.881846	1.073091	0.259485
C73	C	2.353912	0.396535	-0.397323
C74	C	2.687245	0.729869	-0.063990
C75	C	3.020579	1.063202	0.269344
C76	C	1.866495	0.100207	-0.457361
C77	C	2.199828	0.433540	-0.124028
C78	C	2.533162	0.766874	0.209305
C79	C	1.856639	-0.040173	-0.468887
C80	C	2.189972	0.293160	-0.135554
C81	C	2.523306	0.626494	0.197780
C82	C	1.866493	0.456624	-0.102170
C83	C	2.199827	0.789957	0.231164
C84	C	2.533160	1.123291	0.564497
C85	C	1.856787	0.467841	0.038201
C86	C	2.190121	0.801174	0.371534
C87	C	2.523454	1.134508	0.704868
H88	H	1.382704	0.526872	-0.527245
H89	H	1.716037	0.860205	-0.193911
H90	H	2.049370	1.193538	0.139422
H91	H	1.986977	0.316051	-0.954732
H92	H	2.320311	0.649385	-0.621398
H93	H	2.653644	0.982718	-0.288065
H94	H	1.792656	0.542634	-0.907200
H95	H	2.125989	0.875967	-0.573867
H96	H	2.459322	1.209300	-0.240534
H97	H	1.986867	0.952701	-0.317226
H98	H	2.320200	1.286035	0.016108
H99	H	2.653534	1.619368	0.349441
Cl100	Cl	1.757538	0.875589	-0.584192
Cl101	Cl	2.090872	1.208922	-0.250859
Cl102	Cl	2.424205	1.542256	0.082474
H103	H	1.397808	0.332337	-0.333320
H104	H	1.731141	0.665671	0.000014
H105	H	2.064474	0.999004	0.333347
