data_functionalizedCrystal
_audit_creation_method	'MofGen! by Chris Wilmer'
_symmetry_space_group_name_H-M	'P1'
_symmetry_Int_Tables_number	1
_symmetry_cell_setting	triclinic
loop_
_symmetry_equiv_pos_as_xyz
  x,y,z
_cell_length_a	19.188930
_cell_length_b	15.944551
_cell_length_c	14.421503
_cell_angle_alpha	90.010022
_cell_angle_beta	90.014354
_cell_angle_gamma	96.678240
loop_
_atom_site_label
_atom_site_type_symbol
_atom_site_fract_x
_atom_site_fract_y
_atom_site_fract_z
O1	O	0.090054	-1.114174	0.077026
O2	O	0.590054	-0.614174	0.577026
O3	O	0.101156	-0.869583	0.077050
O4	O	0.601156	-0.369583	0.577050
O5	O	-0.006033	-0.998937	0.077019
O6	O	0.493967	-0.498937	0.577019
O7	O	0.197242	-0.984820	0.077057
O8	O	0.697242	-0.484820	0.577057
O9	O	-0.006048	-0.998952	-0.077204
O10	O	0.493952	-0.498952	0.422796
O11	O	0.101141	-0.869598	-0.077173
O12	O	0.601141	-0.369598	0.422827
O13	O	0.090039	-1.114189	-0.077198
O14	O	0.590039	-0.614189	0.422802
Cu15	Cu	0.095588	-0.991895	-0.091267
Cu16	Cu	0.595588	-0.491895	0.408733
Cu17	Cu	0.095606	-0.991877	0.091120
Cu18	Cu	0.595606	-0.491877	0.591120
O19	O	0.197227	-0.984835	-0.077167
O20	O	0.697227	-0.484835	0.422833
C21	C	0.100687	-0.838298	-0.000059
C22	C	0.600687	-0.338298	0.499941
C23	C	0.099306	-0.745057	-0.000050
C24	C	0.599306	-0.245057	0.499950
C25	C	-0.032052	-0.998487	-0.000095
C26	C	0.467948	-0.498487	0.499905
C27	C	-0.109560	-0.997115	-0.000103
C28	C	0.390440	-0.497115	0.499897
N29	N	0.095613	-0.991865	0.219401
N30	N	0.595613	-0.491865	0.719401
C31	C	-0.154288	-1.073016	-0.000115
C32	C	0.345712	-0.573016	0.499885
C33	C	-0.227115	-1.071726	-0.000100
C34	C	0.272885	-0.571726	0.499900
C35	C	-0.255211	-0.994532	-0.000092
C36	C	0.244789	-0.494532	0.499908
C37	C	-0.210474	-0.918622	-0.000075
C38	C	0.289526	-0.418622	0.499925
C39	C	-0.137648	-0.919913	-0.000080
C40	C	0.362352	-0.419913	0.499920
N41	N	-0.363374	-0.935531	-0.052571
N42	N	0.136626	-0.435531	0.447429
N43	N	-0.432556	-0.934310	-0.052568
N44	N	0.067444	-0.434310	0.447432
C45	C	-0.474630	-0.990637	-0.000073
C46	C	0.025370	-0.490637	0.499927
N47	N	-0.444911	-1.048244	0.052407
N48	N	0.055089	-0.548244	0.552407
N49	N	-0.375723	-1.049468	0.052400
N50	N	0.124277	-0.549468	0.552400
C51	C	-0.334178	-0.993123	-0.000085
C52	C	0.165822	-0.493123	0.499915
C53	C	-0.598326	-1.065145	-0.000067
C54	C	-0.098326	-0.565145	0.499933
C55	C	-0.671154	-1.063852	-0.000046
C56	C	-0.171154	-0.563852	0.499954
C57	C	-0.654511	-0.910745	-0.000030
C58	C	-0.154511	-0.410745	0.499970
C59	C	-0.581685	-0.912040	-0.000041
C60	C	-0.081685	-0.412040	0.499959
C61	C	-0.553597	-0.989242	-0.000064
C62	C	-0.053597	-0.489242	0.499936
C63	C	0.223247	-0.985285	-0.000050
C64	C	0.723247	-0.485285	0.499950
C65	C	0.300755	-0.986657	-0.000036
C66	C	0.800755	-0.486657	0.499964
C67	C	0.090507	-1.145474	-0.000087
C68	C	0.590507	-0.645474	0.499913
C69	C	0.091889	-1.238715	-0.000089
C70	C	0.591889	-0.738715	0.499911
C71	C	0.029562	-0.530462	-0.000081
C72	C	0.529562	-0.030462	0.499919
C73	C	0.061956	-0.469313	0.075965
C74	C	0.561956	0.030687	0.575965
C75	C	0.096806	-0.574341	-0.000062
C76	C	0.596806	-0.074341	0.499938
C77	C	0.061957	-0.469350	-0.076087
C78	C	0.561957	0.030650	0.423913
C79	C	0.094386	-0.409437	-0.000077
C80	C	0.594386	0.090563	0.499923
C81	C	0.129218	-0.514420	0.076047
C82	C	0.629218	-0.014420	0.576047
C83	C	0.129210	-0.514464	-0.076073
C84	C	0.629210	-0.014464	0.423927
C85	C	0.161652	-0.453332	-0.000008
C86	C	0.661652	0.046668	0.499992
C87	C	0.098198	-0.669338	-0.000052
C88	C	0.598198	-0.169338	0.499948
C89	C	0.093000	-0.314441	-0.000080
C90	C	0.593000	0.185559	0.499920
N91	N	0.095576	-0.991913	-0.219549
N92	N	0.595576	-0.491913	0.280451
C93	C	0.145078	-0.931940	0.469063
C94	C	0.645078	-0.431940	0.969063
C95	C	0.081937	-0.916065	0.530858
C96	C	0.581937	-0.416065	1.030858
C97	C	0.095599	-0.991881	0.408562
C98	C	0.595599	-0.491881	0.908562
C99	C	0.158727	-1.007733	0.530861
C100	C	0.658727	-0.507733	1.030861
C101	C	0.095591	-0.991895	0.591284
C102	C	0.595591	-0.491895	1.091284
C103	C	0.032426	-0.975969	0.468997
C104	C	0.532426	-0.475969	0.968997
C105	C	0.109257	-1.067670	0.468994
C106	C	0.609257	-0.567670	0.968994
C107	C	0.046071	-1.051827	0.530761
C108	C	0.546071	-0.551827	1.030761
C109	C	0.095605	-0.991871	0.303301
C110	C	0.595605	-0.491871	0.803301
C111	C	0.095578	-0.991905	0.696543
C112	C	0.595578	-0.491905	1.196543
H113	H	-0.131424	-1.135880	-0.000131
H114	H	0.368576	-0.635880	0.499869
H115	H	0.157644	-0.534295	0.140409
H116	H	0.657644	-0.034295	0.640409
H117	H	0.157621	-0.534495	-0.140358
H118	H	0.657621	-0.034495	0.359642
O119	O	0.235652	-0.409137	0.000043
O120	O	0.735652	0.090863	0.500043
H121	H	0.263396	-0.427185	0.063225
H122	H	0.763396	0.072815	0.563225
H123	H	0.212118	-1.021145	0.558018
H124	H	0.712118	-0.521145	1.058018
H125	H	-0.233354	-0.855769	-0.000066
H126	H	0.266646	-0.355769	0.499934
O127	O	-0.275372	-1.153593	-0.000126
O128	O	0.224628	-0.653593	0.499874
H129	H	-0.243605	-1.207492	-0.000150
H130	H	0.256395	-0.707492	0.499850
O131	O	-0.038317	-0.958118	0.433177
O132	O	0.461683	-0.458118	0.933177
H133	H	-0.031860	-0.899888	0.390370
H134	H	0.468140	-0.399888	0.890370
O135	O	-0.009413	-1.118986	0.566435
O136	O	0.490587	-0.618986	1.066435
H137	H	-0.061734	-1.105629	0.541523
H138	H	0.438266	-0.605629	1.041523
H139	H	0.033498	-0.449376	-0.140376
H140	H	0.533498	0.050624	0.359624
H141	H	-0.575456	-1.128007	-0.000081
H142	H	-0.075456	-0.628007	0.499919
H143	H	-0.101230	-0.858103	-0.000071
H144	H	0.398770	-0.358103	0.499929
O145	O	0.124586	-1.152534	0.432961
O146	O	0.624586	-0.652534	0.932961
H147	H	0.172645	-1.144190	0.389543
H148	H	0.672645	-0.644190	0.889543
O149	O	-0.719402	-1.145720	-0.000067
O150	O	-0.219402	-0.645720	0.499933
H151	H	-0.687633	-1.199616	-0.000096
H152	H	-0.187633	-0.699616	0.499904
O153	O	0.024292	-0.442803	0.161111
O154	O	0.524292	0.057197	0.661111
H155	H	0.060689	-0.398651	0.202907
H156	H	0.560689	0.101349	0.702907
H157	H	-0.677386	-0.847892	-0.000019
H158	H	-0.177386	-0.347892	0.499981
H159	H	0.186876	-0.881210	0.441971
H160	H	0.686876	-0.381210	0.941971
H161	H	0.070379	-0.851979	0.558038
H162	H	0.570379	-0.351979	1.058038
H163	H	-0.026244	-0.564003	0.000003
H164	H	0.473756	-0.064003	0.500003
O165	O	-0.533435	-0.830175	-0.000052
O166	O	-0.033435	-0.330175	0.499948
H167	H	-0.565204	-0.776279	-0.000054
H168	H	-0.065204	-0.276279	0.499946
