data_functionalizedCrystal
_audit_creation_method	'MofGen! by Chris Wilmer'
_symmetry_space_group_name_H-M	'P1'
_symmetry_Int_Tables_number	1
_symmetry_cell_setting	triclinic
loop_
_symmetry_equiv_pos_as_xyz
  x,y,z
_cell_length_a	19.288864
_cell_length_b	15.455301
_cell_length_c	19.288865
_cell_angle_alpha	93.013473
_cell_angle_beta	83.136245
_cell_angle_gamma	93.022369
loop_
_atom_site_label
_atom_site_type_symbol
_atom_site_fract_x
_atom_site_fract_y
_atom_site_fract_z
O1	O	0.924065	0.072421	0.089363
O2	O	0.721802	0.072363	0.101050
O3	O	0.828777	0.072376	-0.005924
O4	O	0.817090	0.072407	0.196338
O5	O	0.823357	-0.071889	-0.011337
O6	O	0.716381	-0.071903	0.095637
O7	O	0.918644	-0.071845	0.083950
Cu8	Cu	0.817018	-0.085046	0.089299
Cu9	Cu	0.823428	0.085564	0.095701
O10	O	0.811669	-0.071858	0.190924
C11	C	0.693215	0.000222	0.097967
C12	C	0.616110	0.000199	0.096837
C13	C	0.571415	0.000223	0.159606
C14	C	0.498968	0.000232	0.158546
C15	C	0.471221	0.000236	0.094714
C16	C	0.515926	0.000208	0.031936
C17	C	0.588371	0.000189	0.032998
C18	C	0.364859	0.050800	0.046432
C19	C	0.292415	0.050823	0.045373
C20	C	0.247777	0.000288	0.091436
C21	C	0.275591	-0.050260	0.138570
C22	C	0.348036	-0.050278	0.139632
C23	C	0.392668	0.000255	0.093555
C24	C	0.124526	0.000320	0.153059
C25	C	0.052078	0.000324	0.151996
C26	C	0.069038	0.000308	0.025385
C27	C	0.141484	0.000295	0.026450
C28	C	0.169224	0.000305	0.090289
N29	N	0.812514	-0.205044	0.084796
C30	C	0.852804	-0.250416	0.125116
C31	C	0.849408	-0.341226	0.121706
C32	C	0.805717	-0.386662	0.077979
C33	C	0.765425	-0.341284	0.037655
C34	C	0.768826	-0.250476	0.041062
C35	C	0.791047	-0.658252	0.063281
C36	C	0.787647	-0.749066	0.059879
C37	C	0.871631	-0.749002	0.143929
C38	C	0.875025	-0.658192	0.147335
C39	C	0.834736	-0.612822	0.107008
N40	N	0.802242	-0.479484	0.074494
N41	N	0.838215	-0.520001	0.110490
C42	C	0.947231	0.000298	0.087033
C43	C	1.024336	0.000326	0.088163
C44	C	0.825691	0.000241	-0.034507
C45	C	0.824561	0.000233	-0.111611
N46	N	0.827937	0.205562	0.100199
C47	C	0.887330	0.000247	-0.156307
C48	C	0.886270	0.000260	-0.228754
C49	C	0.822437	0.000242	-0.256502
C50	C	0.759660	0.000233	-0.211796
C51	C	0.760723	0.000229	-0.139351
C52	C	0.770358	-0.050305	-0.366686
C53	C	0.769298	-0.050306	-0.439130
C54	C	0.819158	0.000261	-0.479947
C55	C	0.870089	0.050817	-0.448312
C56	C	0.871151	0.050812	-0.375866
C57	C	0.821278	0.000248	-0.335056
C58	C	0.880781	0.000290	-0.603198
C59	C	0.879718	0.000309	-0.675645
C60	C	0.753107	0.000274	-0.658686
C61	C	0.754172	0.000264	-0.586240
C62	C	0.818011	0.000268	-0.558501
C63	C	0.814756	0.000279	0.219508
C64	C	0.815885	0.000293	0.296612
H65	H	0.493330	0.000222	-0.020036
C66	C	0.717354	-0.391258	-0.010433
H67	H	0.693847	-0.351227	-0.033960
H68	H	0.683974	-0.426684	0.016792
H69	H	0.744586	-0.426681	-0.043807
H70	H	0.910605	-0.621203	0.182940
C71	C	0.893718	-0.391135	0.166064
H72	H	0.885441	-0.451724	0.157770
H73	H	0.881212	-0.376247	0.214179
H74	H	0.941844	-0.376233	0.153600
H75	H	0.593996	0.000233	0.211589
C76	C	0.715512	-0.105933	-0.321792
H77	H	0.723434	-0.098690	-0.274115
H78	H	0.719215	-0.165238	-0.336717
H79	H	0.670047	-0.088171	-0.326839
C80	C	0.915951	-0.798910	0.188278
H81	H	0.907675	-0.859500	0.179984
H82	H	0.903456	-0.784025	0.236395
H83	H	0.964075	-0.784005	0.175803
C84	C	0.637538	0.000174	-0.036050
H85	H	0.610640	0.000182	-0.074220
H86	H	0.664248	-0.050138	-0.040157
H87	H	0.668054	0.050486	-0.036376
C88	C	0.691676	0.000212	-0.090180
H89	H	0.701452	0.000215	-0.043061
H90	H	0.663597	-0.050100	-0.100465
H91	H	0.667387	0.050523	-0.096672
C92	C	0.378633	-0.105880	0.191469
H93	H	0.428170	-0.098646	0.185505
H94	H	0.365330	-0.165187	0.182965
H95	H	0.361282	-0.088097	0.237920
C96	C	0.449795	0.000271	0.227594
H97	H	0.476692	0.000282	0.265766
H98	H	0.419268	-0.050025	0.227932
H99	H	0.423097	0.050598	0.231688
C100	C	0.739569	-0.799045	0.011794
H101	H	0.716060	-0.759019	-0.011734
H102	H	0.706191	-0.834466	0.039027
H103	H	0.766797	-0.834475	-0.021578
C104	C	0.226499	-0.105847	0.189246
H105	H	0.179370	-0.098604	0.181861
H106	H	0.232891	-0.088068	0.236041
H107	H	0.236940	-0.165164	0.181091
C108	C	0.155043	0.000322	0.223277
H109	H	0.118045	0.000325	0.260509
H110	H	0.184857	0.050626	0.228212
H111	H	0.181045	-0.049997	0.224434
C112	C	0.713277	-0.105909	-0.473926
H113	H	0.719789	-0.098673	-0.522918
H114	H	0.668166	-0.088144	-0.455229
H115	H	0.717324	-0.165222	-0.465105
H116	H	0.015687	0.000338	0.203112
C117	C	0.689445	0.000217	-0.242312
H118	H	0.652213	0.000216	-0.205314
H119	H	0.684504	-0.050089	-0.272117
H120	H	0.688294	0.050534	-0.268324
H121	H	0.758241	-0.621322	0.030444
C122	C	0.724504	-0.200567	-0.003287
H123	H	0.697991	-0.240631	-0.029812
H124	H	0.754394	-0.165135	-0.033997
H125	H	0.693772	-0.165154	0.026592
H126	H	0.937385	0.000275	-0.265152
C127	C	0.038525	0.000317	-0.044829
H128	H	-0.011022	0.000338	-0.036472
H129	H	0.051973	-0.049994	-0.072557
H130	H	0.055789	0.050629	-0.068771
H131	H	0.177876	0.000281	-0.024663
C132	C	0.957550	0.000267	-0.125796
H133	H	0.994781	0.000285	-0.162796
H134	H	0.958710	-0.050039	-0.099780
H135	H	0.962485	0.050584	-0.095996
H136	H	0.269775	0.091986	0.006996
C137	C	0.927163	0.106428	-0.341068
H138	H	0.956705	0.136551	-0.375747
H139	H	0.954255	0.069999	-0.317933
H140	H	0.905081	0.147062	-0.308062
C141	C	0.413954	0.106400	-0.004235
H142	H	0.387014	0.136518	-0.032449
H143	H	0.444594	0.069960	-0.033237
H144	H	0.440534	0.147039	0.021729
C145	C	0.924934	0.106448	-0.493199
H146	H	0.917003	0.099222	-0.540874
H147	H	0.970398	0.088694	-0.488154
H148	H	0.921225	0.165757	-0.478268
H149	H	0.932763	0.000298	-0.580611
H150	H	0.888378	-0.213428	0.160727
H151	H	0.930834	0.000325	-0.712036
C152	C	0.682892	0.000257	-0.689201
H153	H	0.691248	0.000258	-0.738748
H154	H	0.658946	0.050557	-0.671947
H155	H	0.655166	-0.050066	-0.675742
H156	H	0.703059	0.000248	-0.549848
