data_functionalizedCrystal
_audit_creation_method	'MofGen! by Chris Wilmer'
_symmetry_space_group_name_H-M	'P1'
_symmetry_Int_Tables_number	1
_symmetry_cell_setting	triclinic
loop_
_symmetry_equiv_pos_as_xyz
  x,y,z
_cell_length_a	15.995350
_cell_length_b	8.559649
_cell_length_c	14.472311
_cell_angle_alpha	89.995211
_cell_angle_beta	89.994208
_cell_angle_gamma	103.364480
loop_
_atom_site_label
_atom_site_type_symbol
_atom_site_fract_x
_atom_site_fract_y
_atom_site_fract_z
O1	O	-0.028416	-2.120134	0.076827
O2	O	0.014826	-1.654930	0.076830
O3	O	-0.129500	-1.900249	0.076827
O4	O	0.115910	-1.874815	0.076829
O5	O	-0.129481	-1.900216	-0.076855
O6	O	0.014845	-1.654897	-0.076852
O7	O	-0.028397	-2.120101	-0.076855
Cu8	Cu	-0.006774	-1.887496	-0.090886
Cu9	Cu	-0.006797	-1.887535	0.090861
O10	O	0.115929	-1.874782	-0.076853
C11	C	0.018112	-1.595384	-0.000011
C12	C	0.027867	-1.418004	-0.000009
C13	C	-0.160618	-1.899181	-0.000012
C14	C	-0.253366	-1.896028	-0.000007
C15	C	-0.031683	-2.179647	-0.000013
C16	C	-0.041438	-2.357027	-0.000008
C17	C	-0.590385	-1.884708	-0.000010
C18	C	-0.531717	-1.709996	0.000336
C19	C	-0.435229	-1.713149	-0.000010
C20	C	-0.423186	-1.890323	-0.000008
C21	C	-0.469794	-1.976478	-0.087767
C22	C	-0.566147	-1.972089	-0.087840
C23	C	-0.566759	-1.975736	0.086925
C24	C	-0.469811	-1.975695	0.088085
C25	C	-0.328693	-1.893506	-0.000010
C26	C	-0.684879	-1.881530	-0.000014
C27	C	0.147047	-1.875850	-0.000012
C28	C	0.239795	-1.879002	-0.000011
N29	N	-0.006760	-1.887480	-0.218717
C30	C	-0.006780	-1.887508	-0.407217
C31	C	0.070422	-1.756222	-0.446446
C32	C	0.070264	-1.755772	-0.553534
C33	C	-0.006798	-1.887535	-0.592808
C34	C	-0.091972	-1.851802	-0.553918
C35	C	-0.091497	-1.850844	-0.446797
C36	C	0.000376	-2.054931	-0.446677
C37	C	0.002422	-2.053824	-0.553806
C38	C	-0.006815	-1.887554	-0.697696
C39	C	-0.006769	-1.887486	-0.302329
N40	N	-0.006819	-1.887563	0.218692
H41	H	-0.402459	-1.645425	0.062899
C42	C	0.086993	-2.090489	-0.588153
N43	N	0.150691	-2.118102	-0.614032
H44	H	0.067044	-1.632666	-0.419545
C45	C	-0.462001	-2.152314	-0.092189
N46	N	-0.456123	-2.284751	-0.095521
C47	C	-0.131680	-1.469826	-0.000013
N48	N	-0.199652	-1.554797	-0.000019
H49	H	0.066762	-1.631528	-0.579177
H50	H	0.094668	-1.334498	-0.000004
H51	H	0.133911	-1.776956	-0.579830
H52	H	-0.437555	-1.916612	-0.153075
C53	C	-0.550704	-1.615663	0.085350
N54	N	-0.565014	-1.544607	0.149384
H55	H	-0.050964	-2.156061	-0.580539
C56	C	-0.552112	-1.616075	-0.084229
N57	N	-0.567467	-1.545345	-0.147931
H58	H	0.134315	-1.777040	-0.420697
H59	H	-0.402972	-1.644942	-0.063026
H60	H	-0.056044	-2.152625	-0.421300
C61	C	-0.620861	-2.149753	0.087729
N62	N	-0.661616	-2.280817	0.088328
H63	H	-0.438519	-1.912704	0.153007
C64	C	-0.102151	-1.685916	-0.413062
N65	N	-0.110172	-1.561686	-0.387658
C66	C	-0.170720	-1.975148	-0.411733
N67	N	-0.230393	-2.068763	-0.385327
H68	H	-0.150378	-1.944922	-0.579354
C69	C	-0.103268	-1.688775	-0.590175
N70	N	-0.111770	-1.565977	-0.617480
C71	C	-0.460290	-2.150251	0.095243
N72	N	-0.453123	-2.281735	0.100626
C73	C	0.081741	-2.101523	-0.410192
N74	N	0.143030	-2.136599	-0.382711
H75	H	-0.606643	-2.100359	-0.091820
C76	C	-0.585402	-1.887160	-0.176461
N77	N	-0.599899	-1.823184	-0.243210
H78	H	-0.583634	-1.918628	0.153441
