data_functionalizedCrystal
_audit_creation_method	'MofGen! by Chris Wilmer'
_symmetry_space_group_name_H-M	'P1'
_symmetry_Int_Tables_number	1
_symmetry_cell_setting	triclinic
loop_
_symmetry_equiv_pos_as_xyz
  x,y,z
_cell_length_a	18.050591
_cell_length_b	18.050589
_cell_length_c	18.050583
_cell_angle_alpha	89.968291
_cell_angle_beta	90.020859
_cell_angle_gamma	89.968854
loop_
_atom_site_label
_atom_site_type_symbol
_atom_site_fract_x
_atom_site_fract_y
_atom_site_fract_z
Zn1	Zn	1.135267	0.295677	0.420032
Zn2	Zn	1.385267	0.545677	0.670032
Zn3	Zn	1.635267	0.795677	0.920032
Zn4	Zn	1.885267	1.045677	1.170032
Zn5	Zn	1.135161	0.419890	0.295852
Zn6	Zn	1.385161	0.669890	0.545852
Zn7	Zn	1.635161	0.919890	0.795852
Zn8	Zn	1.885161	1.169890	1.045852
Zn9	Zn	1.011084	0.295710	0.295846
Zn10	Zn	1.261084	0.545710	0.545846
Zn11	Zn	1.511084	0.795710	0.795846
Zn12	Zn	1.761084	1.045710	1.045846
Zn13	Zn	1.011020	0.419822	0.419990
Zn14	Zn	1.261020	0.669822	0.669990
Zn15	Zn	1.511020	0.919822	0.919990
Zn16	Zn	1.761020	1.169822	1.169990
O17	O	1.073133	0.357774	0.357930
O18	O	1.323133	0.607774	0.607930
O19	O	1.573133	0.857774	0.857930
O20	O	1.823133	1.107774	1.107930
O21	O	1.239178	0.312168	0.403579
O22	O	1.489178	0.562168	0.653579
O23	O	1.739178	0.812168	0.903579
O24	O	1.989178	1.062168	1.153579
O25	O	1.118685	0.403459	0.191926
O26	O	1.368685	0.653459	0.441926
O27	O	1.618685	0.903459	0.691926
O28	O	1.868685	1.153459	0.941926
O29	O	1.027628	0.191781	0.312334
O30	O	1.277628	0.441781	0.562334
O31	O	1.527628	0.691781	0.812334
O32	O	1.777628	0.941781	1.062334
O33	O	1.239100	0.403427	0.312345
O34	O	1.489100	0.653427	0.562345
O35	O	1.739100	0.903427	0.812345
O36	O	1.989100	1.153427	1.062345
O37	O	1.118865	0.191756	0.403573
O38	O	1.368865	0.441756	0.653573
O39	O	1.618865	0.691756	0.903573
O40	O	1.868865	0.941756	1.153573
O41	O	1.027526	0.312225	0.191922
O42	O	1.277526	0.562225	0.441922
O43	O	1.527526	0.812225	0.691922
O44	O	1.777526	1.062225	0.941922
O45	O	0.907151	0.312159	0.312293
O46	O	1.157151	0.562159	0.562293
O47	O	1.407151	0.812159	0.812293
O48	O	1.657151	1.062159	1.062293
O49	O	1.027520	0.403311	0.523920
O50	O	1.277520	0.653311	0.773920
O51	O	1.527520	0.903311	1.023920
O52	O	1.777520	1.153311	1.273920
O53	O	0.907104	0.403344	0.403502
O54	O	1.157104	0.653344	0.653502
O55	O	1.407104	0.903344	0.903502
O56	O	1.657104	1.153344	1.153502
O57	O	1.118803	0.312102	0.523951
O58	O	1.368803	0.562102	0.773951
O59	O	1.618803	0.812102	1.023951
O60	O	1.868803	1.062102	1.273951
O61	O	1.118623	0.523805	0.312304
O62	O	1.368623	0.773805	0.562304
O63	O	1.618623	1.023805	0.812304
O64	O	1.868623	1.273805	1.062304
O65	O	1.027417	0.523755	0.403508
O66	O	1.277417	0.773755	0.653508
O67	O	1.527417	1.023755	0.903508
O68	O	1.777417	1.273755	1.153508
C69	C	0.880181	0.357748	0.357893
C70	C	1.130181	0.607748	0.607893
C71	C	1.380181	0.857748	0.857893
C72	C	1.630181	1.107748	1.107893
C73	C	0.797635	0.357755	0.357894
C74	C	1.047635	0.607755	0.607894
C75	C	1.297635	0.857755	0.857894
C76	C	1.547635	1.107755	1.107894
C77	C	0.548814	0.308118	0.308413
C78	C	0.798814	0.558118	0.558413
C79	C	1.048814	0.808118	0.808413
C80	C	1.298814	1.058118	1.058413
C81	C	0.598249	0.290020	0.376187
C82	C	0.848249	0.540020	0.626187
C83	C	1.098249	0.790020	0.876187
C84	C	1.348249	1.040020	1.126187
C85	C	0.500515	0.357793	0.357955
C86	C	0.750515	0.607793	0.607955
C87	C	1.000515	0.857793	0.857955
C88	C	1.250515	1.107793	1.107955
C89	C	0.598161	0.375836	0.290154
C90	C	0.848161	0.625836	0.540154
C91	C	1.098161	0.875836	0.790154
C92	C	1.348161	1.125836	1.040154
C93	C	0.646500	0.357772	0.357922
C94	C	0.896500	0.607772	0.607922
C95	C	1.146500	0.857772	0.857922
C96	C	1.396500	1.107772	1.107922
C97	C	0.548863	0.339661	0.425766
C98	C	0.798863	0.589661	0.675766
C99	C	1.048863	0.839661	0.925766
C100	C	1.298863	1.089661	1.175766
C101	C	0.548771	0.425508	0.339687
C102	C	0.798771	0.675508	0.589687
C103	C	1.048771	0.925508	0.839687
C104	C	1.298771	1.175508	1.089687
C105	C	0.598184	0.407437	0.407509
C106	C	0.848184	0.657437	0.657509
C107	C	1.098184	0.907437	0.907509
C108	C	1.348184	1.157437	1.157509
C109	C	0.416417	0.357803	0.357973
C110	C	0.666417	0.607803	0.607973
C111	C	0.916417	0.857803	0.857973
C112	C	1.166417	1.107803	1.107973
C113	C	0.730597	0.357763	0.357911
C114	C	0.980597	0.607763	0.607911
C115	C	1.230597	0.857763	0.857911
C116	C	1.480597	1.107763	1.107911
C117	C	1.073022	0.550727	0.357918
C118	C	1.323022	0.800727	0.607918
C119	C	1.573022	1.050727	0.857918
C120	C	1.823022	1.300727	1.107918
C121	C	1.073042	0.633272	0.357938
C122	C	1.323042	0.883272	0.607938
C123	C	1.573042	1.133272	0.857938
C124	C	1.823042	1.383272	1.107938
C125	C	1.023470	0.832723	0.407518
C126	C	1.273470	1.082723	0.657518
C127	C	1.523470	1.332723	0.907518
C128	C	1.773470	1.582723	1.157518
C129	C	1.005366	0.882172	0.339749
C130	C	1.255366	1.132172	0.589749
C131	C	1.505366	1.382172	0.839749
C132	C	1.755366	1.632172	1.089749
C133	C	1.073098	0.784403	0.357948
C134	C	1.323098	1.034403	0.607948
C135	C	1.573098	1.284403	0.857948
C136	C	1.823098	1.534403	1.107948
C137	C	1.091222	0.882035	0.425725
C138	C	1.341222	1.132035	0.675725
C139	C	1.591222	1.382035	0.925725
C140	C	1.841222	1.632035	1.175725
C141	C	1.073150	0.930388	0.357964
C142	C	1.323150	1.180388	0.607964
C143	C	1.573150	1.430388	0.857964
C144	C	1.823150	1.680388	1.107964
C145	C	1.054958	0.832765	0.290144
C146	C	1.304958	1.082765	0.540144
C147	C	1.554958	1.332765	0.790144
C148	C	1.804958	1.582765	1.040144
C149	C	1.140846	0.832624	0.376165
C150	C	1.390846	1.082624	0.626165
C151	C	1.640846	1.332624	0.876165
C152	C	1.890846	1.582624	1.126165
C153	C	1.122767	0.882050	0.308350
C154	C	1.372767	1.132050	0.558350
C155	C	1.622767	1.382050	0.808350
C156	C	1.872767	1.632050	1.058350
C157	C	1.073066	0.700304	0.357940
C158	C	1.323066	0.950304	0.607940
C159	C	1.573066	1.200304	0.857940
C160	C	1.823066	1.450304	1.107940
C161	C	1.073183	1.014484	0.357965
C162	C	1.323183	1.264484	0.607965
C163	C	1.573183	1.514484	0.857965
C164	C	1.823183	1.764484	1.107965
C165	C	1.266839	0.357801	0.357968
C166	C	1.516839	0.607801	0.607968
C167	C	1.766839	0.857801	0.857968
C168	C	2.016839	1.107801	1.107968
C169	C	1.349385	0.357813	0.357984
C170	C	1.599385	0.607813	0.607984
C171	C	1.849385	0.857813	0.857984
C172	C	2.099385	1.107813	1.107984
C173	C	1.073166	0.357695	0.551636
C174	C	1.323166	0.607695	0.801636
C175	C	1.573166	0.857695	1.051636
C176	C	1.823166	1.107695	1.301636
C177	C	1.073180	0.357661	0.634181
C178	C	1.323180	0.607661	0.884181
C179	C	1.573180	0.857661	1.134181
C180	C	1.823180	1.107661	1.384181
C181	C	1.073237	1.164069	0.357959
C182	C	1.323237	1.414069	0.607959
C183	C	1.573237	1.664069	0.857959
C184	C	1.823237	1.914069	1.107959
C185	C	1.073209	1.081523	0.357973
C186	C	1.323209	1.331523	0.607973
C187	C	1.573209	1.581523	0.857973
C188	C	1.823209	1.831523	1.107973
C189	C	1.073143	0.357800	0.164978
C190	C	1.323143	0.607800	0.414978
C191	C	1.573143	0.857800	0.664978
C192	C	1.823143	1.107800	0.914978
C193	C	1.073273	0.357624	0.082432
C194	C	1.323273	0.607624	0.332432
C195	C	1.573273	0.857624	0.582432
C196	C	1.823273	1.107624	0.832432
C197	C	1.122870	0.308038	0.833649
C198	C	1.372870	0.558038	1.083649
C199	C	1.622870	0.808038	1.333649
C200	C	1.872870	1.058038	1.583649
C201	C	1.055138	0.289858	0.883037
C202	C	1.305138	0.539858	1.133037
C203	C	1.555138	0.789858	1.383037
C204	C	1.805138	1.039858	1.633037
C205	C	1.073210	0.357649	0.785312
C206	C	1.323210	0.607649	1.035312
C207	C	1.573210	0.857649	1.285312
C208	C	1.823210	1.107649	1.535312
C209	C	1.140969	0.375782	0.883006
C210	C	1.390969	0.625782	1.133006
C211	C	1.640969	0.875782	1.383006
C212	C	1.890969	1.125782	1.633006
C213	C	1.073245	0.357635	0.931297
C214	C	1.323245	0.607635	1.181297
C215	C	1.573245	0.857635	1.431297
C216	C	1.823245	1.107635	1.681297
C217	C	1.005442	0.339433	0.833612
C218	C	1.255442	0.589433	1.083612
C219	C	1.505442	0.839433	1.333612
C220	C	1.755442	1.089433	1.583612
C221	C	1.091318	0.425389	0.833577
C222	C	1.341318	0.675389	1.083577
C223	C	1.591318	0.925389	1.333577
C224	C	1.841318	1.175389	1.583577
C225	C	1.023540	0.407234	0.882943
C226	C	1.273540	0.657234	1.132943
C227	C	1.523540	0.907234	1.382943
C228	C	1.773540	1.157234	1.632943
C229	C	1.073191	0.357655	0.701213
C230	C	1.323191	0.607655	0.951213
C231	C	1.573191	0.857655	1.201213
C232	C	1.823191	1.107655	1.451213
C233	C	1.073256	0.357629	1.015394
C234	C	1.323256	0.607629	1.265394
C235	C	1.573256	0.857629	1.515394
C236	C	1.823256	1.107629	1.765394
H237	H	0.527023	0.482766	0.324226
H238	H	0.777023	0.732766	0.574226
H239	H	1.027023	0.982766	0.824226
H240	H	1.277023	1.232766	1.074226
H241	H	0.527138	0.266086	0.266582
H242	H	0.777138	0.516086	0.516582
H243	H	1.027138	0.766086	0.766582
H244	H	1.277138	1.016086	1.016582
H245	H	0.619818	0.391106	0.232830
H246	H	0.869818	0.641106	0.482830
H247	H	1.119818	0.891106	0.732830
H248	H	1.369818	1.141106	0.982830
H249	H	0.981448	0.811063	0.449378
H250	H	1.231448	1.061063	0.699378
H251	H	1.481448	1.311063	0.949378
H252	H	1.731448	1.561063	1.199378
H253	H	0.981511	0.449183	0.904450
H254	H	1.231511	0.699183	1.154450
H255	H	1.481511	0.949183	1.404450
H256	H	1.731511	1.199183	1.654450
H257	H	1.164758	0.903573	0.266389
H258	H	1.414758	1.153573	0.516389
H259	H	1.664758	1.403573	0.766389
H260	H	1.914758	1.653573	1.016389
H261	H	0.948099	0.903952	0.324355
H262	H	1.198099	1.153952	0.574355
H263	H	1.448099	1.403952	0.824355
H264	H	1.698099	1.653952	1.074355
H265	H	1.106645	0.482665	0.811837
H266	H	1.356645	0.732665	1.061837
H267	H	1.606645	0.982665	1.311837
H268	H	1.856645	1.232665	1.561837
H269	H	0.948138	0.324024	0.812007
H270	H	1.198138	0.574024	1.062007
H271	H	1.448138	0.824024	1.312007
H272	H	1.698138	1.074024	1.562007
H273	H	1.198100	0.810845	0.391592
H274	H	1.448100	1.060845	0.641592
H275	H	1.698100	1.310845	0.891592
H276	H	1.948100	1.560845	1.141592
H277	H	0.619968	0.232744	0.391638
H278	H	0.869968	0.482744	0.641638
H279	H	1.119968	0.732744	0.891638
H280	H	1.369968	0.982744	1.141638
H281	H	0.527298	0.324324	0.483107
H282	H	0.777298	0.574324	0.733107
H283	H	1.027298	0.824324	0.983107
H284	H	1.277298	1.074324	1.233107
H285	H	1.198257	0.391124	0.904705
H286	H	1.448257	0.641124	1.154705
H287	H	1.698257	0.891124	1.404705
H288	H	1.948257	1.141124	1.654705
H289	H	1.039582	0.811211	0.232816
H290	H	1.289582	1.061211	0.482816
H291	H	1.539582	1.311211	0.732816
H292	H	1.789582	1.561211	0.982816
H293	H	1.106532	0.903678	0.483037
H294	H	1.356532	1.153678	0.733037
H295	H	1.606532	1.403678	0.983037
H296	H	1.856532	1.653678	1.233037
H297	H	0.619724	0.449437	0.449439
H298	H	0.869724	0.699437	0.699439
H299	H	1.119724	0.949437	0.949439
H300	H	1.369724	1.199437	1.199439
H301	H	1.164797	0.266058	0.812002
H302	H	1.414797	0.516058	1.062002
H303	H	1.664797	0.766058	1.312002
H304	H	1.914797	1.016058	1.562002
H305	H	1.039832	0.232565	0.904762
H306	H	1.289832	0.482565	1.154762
H307	H	1.539832	0.732565	1.404762
H308	H	1.789832	0.982565	1.654762
