data_functionalizedCrystal
_audit_creation_method	'MofGen! by Chris Wilmer'
_symmetry_space_group_name_H-M	'P1'
_symmetry_Int_Tables_number	1
_symmetry_cell_setting	triclinic
loop_
_symmetry_equiv_pos_as_xyz
  x,y,z
_cell_length_a	17.077404
_cell_length_b	16.625545
_cell_length_c	17.077396
_cell_angle_alpha	89.971947
_cell_angle_beta	90.021444
_cell_angle_gamma	89.977716
loop_
_atom_site_label
_atom_site_type_symbol
_atom_site_fract_x
_atom_site_fract_y
_atom_site_fract_z
Zn1	Zn	1.200048	0.321039	0.443886
Zn2	Zn	1.450048	0.571039	0.693886
Zn3	Zn	1.700048	0.821039	0.943886
Zn4	Zn	1.950048	1.071039	1.193886
Zn5	Zn	1.199953	0.455882	0.312621
Zn6	Zn	1.449953	0.705882	0.562621
Zn7	Zn	1.699953	0.955882	0.812621
Zn8	Zn	1.949953	1.205882	1.062621
Zn9	Zn	1.068780	0.321063	0.312629
Zn10	Zn	1.318780	0.571063	0.562629
Zn11	Zn	1.568780	0.821063	0.812629
Zn12	Zn	1.818780	1.071063	1.062629
Zn13	Zn	1.068746	0.455830	0.443840
Zn14	Zn	1.318746	0.705830	0.693840
Zn15	Zn	1.568746	0.955830	0.943840
Zn16	Zn	1.818746	1.205830	1.193840
O17	O	1.134382	0.388453	0.378244
O18	O	1.384382	0.638453	0.628244
O19	O	1.634382	0.888453	0.878244
O20	O	1.884382	1.138453	1.128244
O21	O	1.309883	0.338939	0.426489
O22	O	1.559883	0.588939	0.676489
O23	O	1.809883	0.838939	0.926489
O24	O	2.059883	1.088939	1.176489
O25	O	1.182527	0.438030	0.202775
O26	O	1.432527	0.688030	0.452775
O27	O	1.682527	0.938030	0.702775
O28	O	1.932527	1.188030	0.952775
O29	O	1.086248	0.208227	0.330063
O30	O	1.336248	0.458227	0.580063
O31	O	1.586248	0.708227	0.830063
O32	O	1.836248	0.958227	1.080063
O33	O	1.309812	0.438007	0.330049
O34	O	1.559812	0.688007	0.580049
O35	O	1.809812	0.938007	0.830049
O36	O	2.059812	1.188007	1.080049
O37	O	1.182690	0.208210	0.426497
O38	O	1.432690	0.458210	0.676497
O39	O	1.682690	0.708210	0.926497
O40	O	1.932690	0.958210	1.176497
O41	O	1.086155	0.338979	0.202781
O42	O	1.336155	0.588979	0.452781
O43	O	1.586155	0.838979	0.702781
O44	O	1.836155	1.088979	0.952781
O45	O	0.958929	0.338928	0.330019
O46	O	1.208929	0.588928	0.580019
O47	O	1.458929	0.838928	0.830019
O48	O	1.708929	1.088928	1.080019
O49	O	1.086189	0.437917	0.553693
O50	O	1.336189	0.687917	0.803693
O51	O	1.586189	0.937917	1.053693
O52	O	1.836189	1.187917	1.303693
O53	O	0.958903	0.437940	0.426419
O54	O	1.208903	0.687940	0.676419
O55	O	1.458903	0.937940	0.926419
O56	O	1.708903	1.187940	1.176419
O57	O	1.182656	0.338888	0.553727
O58	O	1.432656	0.588888	0.803727
O59	O	1.682656	0.838888	1.053727
O60	O	1.932656	1.088888	1.303727
O61	O	1.182493	0.568707	0.330004
O62	O	1.432493	0.818707	0.580004
O63	O	1.682493	1.068707	0.830004
O64	O	1.932493	1.318707	1.080004
O65	O	1.086096	0.568669	0.426411
O66	O	1.336096	0.818669	0.676411
O67	O	1.586096	1.068669	0.926411
O68	O	1.836096	1.318669	1.176411
C69	C	0.930434	0.388432	0.378215
C70	C	1.180434	0.638432	0.628215
C71	C	1.430434	0.888432	0.878215
C72	C	1.680434	1.138432	1.128215
C73	C	0.843184	0.388442	0.378222
C74	C	1.093184	0.638442	0.628222
C75	C	1.343184	0.888442	0.878222
C76	C	1.593184	1.138442	1.128222
C77	C	0.467403	0.336983	0.428569
C78	C	0.717403	0.586983	0.678569
C79	C	0.967403	0.836983	0.928569
C80	C	1.217403	1.086983	1.178569
C81	C	0.549384	0.336978	0.428560
C82	C	0.799384	0.586978	0.678560
C83	C	1.049384	0.836978	0.928560
C84	C	1.299384	1.086978	1.178560
C85	C	0.590335	0.388470	0.378264
C86	C	0.840335	0.638470	0.628264
C87	C	1.090335	0.888470	0.878264
C88	C	1.340335	1.138470	1.128264
C89	C	0.549302	0.439978	0.327978
C90	C	0.799302	0.689978	0.577978
C91	C	1.049302	0.939978	0.827978
C92	C	1.299302	1.189978	1.077978
C93	C	0.467323	0.439987	0.327991
C94	C	0.717323	0.689987	0.577991
C95	C	0.967323	0.939987	0.827991
C96	C	1.217323	1.189987	1.077991
C97	C	0.720172	0.439954	0.327953
C98	C	0.970172	0.689954	0.577953
C99	C	1.220172	0.939954	0.827953
C100	C	1.470172	1.189954	1.077953
C101	C	0.802157	0.439944	0.327938
C102	C	1.052157	0.689944	0.577938
C103	C	1.302157	0.939944	0.827938
C104	C	1.552157	1.189944	1.077938
C105	C	0.802233	0.336944	0.428522
C106	C	1.052233	0.586944	0.678522
C107	C	1.302233	0.836944	0.928522
C108	C	1.552233	1.086944	1.178522
C109	C	0.720254	0.336953	0.428535
C110	C	0.970254	0.586953	0.678535
C111	C	1.220254	0.836953	0.928535
C112	C	1.470254	1.086953	1.178535
C113	C	0.679226	0.388460	0.378248
C114	C	0.929226	0.638460	0.628248
C115	C	1.179226	0.888460	0.878248
C116	C	1.429226	1.138460	1.128248
C117	C	1.134302	0.597944	0.378219
C118	C	1.384302	0.847944	0.628219
C119	C	1.634302	1.097944	0.878219
C120	C	1.884302	1.347944	1.128219
C121	C	1.134339	0.687565	0.378234
C122	C	1.384339	0.937565	0.628234
C123	C	1.634339	1.187565	0.878234
C124	C	1.884339	1.437565	1.128234
C125	C	1.134468	1.015741	0.378328
C126	C	1.384468	1.265741	0.628328
C127	C	1.634468	1.515741	0.878328
C128	C	1.884468	1.765741	1.128328
C129	C	1.134429	0.924433	0.378304
C130	C	1.384429	1.174433	0.628304
C131	C	1.634429	1.424433	0.878304
C132	C	1.884429	1.674433	1.128304
C133	C	1.134403	0.851656	0.378281
C134	C	1.384403	1.101656	0.628281
C135	C	1.634403	1.351656	0.878281
C136	C	1.884403	1.601656	1.128281
C137	C	1.134366	0.760342	0.378258
C138	C	1.384366	1.010342	0.628258
C139	C	1.634366	1.260342	0.878258
C140	C	1.884366	1.510342	1.128258
C141	C	1.339126	0.388476	0.378273
C142	C	1.589126	0.638476	0.628273
C143	C	1.839126	0.888476	0.878273
C144	C	2.089126	1.138476	1.128273
C145	C	1.426376	0.388486	0.378285
C146	C	1.676376	0.638486	0.628285
C147	C	1.926376	0.888486	0.878285
C148	C	2.176376	1.138486	1.128285
C149	C	1.134429	0.388394	0.582988
C150	C	1.384429	0.638394	0.832988
C151	C	1.634429	0.888394	1.082988
C152	C	1.884429	1.138394	1.332988
C153	C	1.134449	0.388369	0.670238
C154	C	1.384449	0.638369	0.920238
C155	C	1.634449	0.888369	1.170238
C156	C	1.884449	1.138369	1.420238
C157	C	1.134477	1.178145	0.378296
C158	C	1.384477	1.428145	0.628296
C159	C	1.634477	1.678145	0.878296
C160	C	1.884477	1.928145	1.128296
C161	C	1.134500	1.088523	0.378341
C162	C	1.384500	1.338523	0.628341
C163	C	1.634500	1.588523	0.878341
C164	C	1.884500	1.838523	1.128341
C165	C	1.134380	0.388454	0.174296
C166	C	1.384380	0.638454	0.424296
C167	C	1.634380	0.888454	0.674296
C168	C	1.884380	1.138454	0.924296
C169	C	1.134511	0.388253	0.087047
C170	C	1.384511	0.638253	0.337047
C171	C	1.634511	0.888253	0.587047
C172	C	1.884511	1.138253	0.837047
C173	C	1.184682	0.336800	0.711247
C174	C	1.434682	0.586800	0.961247
C175	C	1.684682	0.836800	1.211247
C176	C	1.934682	1.086800	1.461247
C177	C	1.184691	0.336773	0.793228
C178	C	1.434691	0.586773	1.043228
C179	C	1.684691	0.836773	1.293228
C180	C	1.934691	1.086773	1.543228
C181	C	1.134472	0.388320	0.834198
C182	C	1.384472	0.638320	1.084198
C183	C	1.634472	0.888320	1.334198
C184	C	1.884472	1.138320	1.584198
C185	C	1.084234	0.439891	0.793183
C186	C	1.334234	0.689891	1.043183
C187	C	1.584234	0.939891	1.293183
C188	C	1.834234	1.189891	1.543183
C189	C	1.084221	0.439913	0.711204
C190	C	1.334221	0.689913	0.961204
C191	C	1.584221	0.939913	1.211204
C192	C	1.834221	1.189913	1.461204
C193	C	1.084265	0.439843	0.964053
C194	C	1.334265	0.689843	1.214053
C195	C	1.584265	0.939843	1.464053
C196	C	1.834265	1.189843	1.714053
C197	C	1.084279	0.439822	1.046038
C198	C	1.334279	0.689822	1.296038
C199	C	1.584279	0.939822	1.546038
C200	C	1.834279	1.189822	1.796038
C201	C	1.184736	0.336702	1.046077
C202	C	1.434736	0.586702	1.296077
C203	C	1.684736	0.836702	1.546077
C204	C	1.934736	1.086702	1.796077
C205	C	1.184723	0.336724	0.964098
C206	C	1.434723	0.586724	1.214098
C207	C	1.684723	0.836724	1.464098
C208	C	1.934723	1.086724	1.714098
C209	C	1.134486	0.388297	0.923089
C210	C	1.384486	0.638297	1.173089
C211	C	1.634486	0.888297	1.423089
C212	C	1.884486	1.138297	1.673089
H213	H	0.686913	0.295020	0.469488
H214	H	0.936913	0.545020	0.719488
H215	H	1.186913	0.795020	0.969488
H216	H	1.436913	1.045020	1.219488
Br217	Br	0.411641	0.509896	0.259756
Br218	Br	0.661641	0.759896	0.509756
Br219	Br	0.911641	1.009896	0.759756
Br220	Br	1.161641	1.259896	1.009756
Br221	Br	1.252904	0.266821	0.848880
Br222	Br	1.502904	0.516821	1.098880
Br223	Br	1.752904	0.766821	1.348880
Br224	Br	2.002904	1.016821	1.598880
Br225	Br	0.857912	0.267034	0.496761
Br226	Br	1.107912	0.517034	0.746761
Br227	Br	1.357912	0.767034	0.996761
Br228	Br	1.607912	1.017034	1.246761
H229	H	0.434067	0.295047	0.469522
H230	H	0.684067	0.545047	0.719522
H231	H	0.934067	0.795047	0.969522
H232	H	1.184067	1.045047	1.219522
H233	H	0.835497	0.481876	0.286984
H234	H	1.085497	0.731876	0.536984
H235	H	1.335497	0.981876	0.786984
H236	H	1.585497	1.231876	1.036984
Br237	Br	1.016115	0.509771	1.101640
Br238	Br	1.266115	0.759771	1.351640
Br239	Br	1.516115	1.009771	1.601640
Br240	Br	1.766115	1.259771	1.851640
Br241	Br	0.664492	0.509869	0.259718
Br242	Br	0.914492	0.759869	0.509718
Br243	Br	1.164492	1.009869	0.759718
Br244	Br	1.414492	1.259869	1.009718
Br245	Br	0.604878	0.509868	0.259723
Br246	Br	0.854878	0.759868	0.509723
Br247	Br	1.104878	1.009868	0.759723
Br248	Br	1.354878	1.259868	1.009723
Br249	Br	1.252847	0.266845	0.655653
Br250	Br	1.502847	0.516845	0.905653
Br251	Br	1.752847	0.766845	1.155653
Br252	Br	2.002847	1.016845	1.405653
Br253	Br	0.605061	0.267086	0.496812
Br254	Br	0.855061	0.517086	0.746812
Br255	Br	1.105061	0.767086	0.996812
Br256	Br	1.355061	1.017086	1.246812
Br257	Br	1.252886	0.266774	0.908495
Br258	Br	1.502886	0.516774	1.158495
Br259	Br	1.752886	0.766774	1.408495
Br260	Br	2.002886	1.016774	1.658495
Br261	Br	1.252918	0.266714	1.101730
Br262	Br	1.502918	0.516714	1.351730
Br263	Br	1.752918	0.766714	1.601730
Br264	Br	2.002918	1.016714	1.851730
Br265	Br	1.016072	0.509844	0.848784
Br266	Br	1.266072	0.759844	1.098784
Br267	Br	1.516072	1.009844	1.348784
Br268	Br	1.766072	1.259844	1.598784
H269	H	1.043344	0.481826	0.930666
H270	H	1.293344	0.731826	1.180666
H271	H	1.543344	0.981826	1.430666
H272	H	1.793344	1.231826	1.680666
H273	H	1.043308	0.481898	0.677815
H274	H	1.293308	0.731898	0.927815
H275	H	1.543308	0.981898	1.177815
H276	H	1.793308	1.231898	1.427815
