data_functionalizedCrystal
_audit_creation_method	'MofGen! by Chris Wilmer'
_symmetry_space_group_name_H-M	'P1'
_symmetry_Int_Tables_number	1
_symmetry_cell_setting	triclinic
loop_
_symmetry_equiv_pos_as_xyz
  x,y,z
_cell_length_a	14.853567
_cell_length_b	14.853567
_cell_length_c	13.330367
_cell_angle_alpha	90.001398
_cell_angle_beta	89.995281
_cell_angle_gamma	83.634930
loop_
_atom_site_label
_atom_site_type_symbol
_atom_site_fract_x
_atom_site_fract_y
_atom_site_fract_z
O1	O	-1.196369	-0.117701	0.083346
O2	O	-0.933910	-0.131722	0.083362
O3	O	-1.072150	0.006518	0.083356
O4	O	-1.058129	-0.255941	0.083351
O5	O	-1.072129	0.006516	-0.083491
O6	O	-0.933889	-0.131725	-0.083485
O7	O	-1.196348	-0.117703	-0.083501
Cu8	Cu	-1.065117	-0.124714	-0.098728
Cu9	Cu	-1.065141	-0.124711	0.098588
O10	O	-1.058108	-0.255944	-0.083496
C11	C	-1.071504	0.040106	-0.000064
C12	C	-1.069601	0.140189	-0.000055
C13	C	-0.900311	-0.131088	-0.000060
C14	C	-0.800227	-0.129184	-0.000053
C15	C	-1.229947	-0.118337	-0.000078
C16	C	-1.330031	-0.120241	-0.000078
C17	C	-0.387693	-0.039019	-0.000074
C18	C	-0.366412	-0.203251	-0.000076
C19	C	-0.460446	-0.205042	-0.000073
C20	C	-0.518108	-0.123819	-0.000069
C21	C	-0.481736	-0.040806	-0.000067
C22	C	-0.496825	-0.288053	-0.000064
C23	C	-0.590864	-0.289846	-0.000059
C24	C	-0.648528	-0.208623	-0.000062
C25	C	-0.612150	-0.125607	-0.000062
C26	C	-0.669812	-0.044384	-0.000058
C27	C	-0.633437	0.038633	-0.000065
C28	C	-0.539399	0.040417	-0.000070
C29	C	-0.742565	-0.210407	-0.000057
C30	C	-0.763855	-0.046172	-0.000052
C31	C	-1.058754	-0.289531	-0.000073
C32	C	-1.060657	-0.389615	-0.000075
N33	N	-1.065106	-0.124716	-0.237509
C34	C	-0.979435	0.552723	-0.000069
C35	C	-1.143668	0.574004	-0.000079
C36	C	-1.145458	0.479971	-0.000073
C37	C	-1.064235	0.422309	-0.000067
C38	C	-0.981223	0.458680	-0.000066
C39	C	-1.228469	0.443591	-0.000084
C40	C	-1.230262	0.349552	-0.000079
C41	C	-1.149039	0.291889	-0.000066
C42	C	-1.066023	0.328266	-0.000064
C43	C	-0.984800	0.270604	-0.000058
C44	C	-0.901783	0.306979	-0.000049
C45	C	-0.899999	0.401017	-0.000053
C46	C	-1.150823	0.197851	-0.000062
C47	C	-0.986588	0.176561	-0.000055
C48	C	-1.010365	-0.069937	-0.290030
C49	C	-1.119857	-0.179491	-0.290017
C50	C	-1.119868	-0.179491	-0.395035
C51	C	-1.065127	-0.124711	-0.447556
C52	C	-1.010376	-0.069932	-0.395058
C53	C	-1.174624	-0.234262	-0.447541
C54	C	-1.174638	-0.234263	-0.552566
C55	C	-1.119892	-0.179487	-0.605088
C56	C	-1.065138	-0.124707	-0.552584
C57	C	-1.010398	-0.069927	-0.605104
C58	C	-0.955638	-0.015151	-0.552602
C59	C	-0.955630	-0.015157	-0.447580
C60	C	-1.119900	-0.179482	-0.710110
C61	C	-1.010409	-0.069923	-0.710132
N62	N	-1.065160	-0.124702	0.237370
H63	H	-0.810798	0.019971	-0.000052
H64	H	-0.319459	-0.269379	-0.000071
H65	H	-1.219198	-0.278854	-0.404771
Cl66	Cl	-0.875076	0.598450	-0.000048
Cl67	Cl	-1.245770	0.646493	-0.000104
H68	H	-0.620472	-0.357443	-0.000053
H69	H	-1.219226	-0.278866	-0.595305
Cl70	Cl	-1.255178	0.152125	-0.000092
H71	H	-1.294596	0.490546	-0.000099
Cl72	Cl	-1.334624	0.303832	-0.000074
H73	H	-0.911072	0.029454	-0.595378
Cl74	Cl	-0.941524	-0.001083	-0.224030
Cl75	Cl	-0.941582	-0.001058	-0.776149
H76	H	-0.680397	0.104764	-0.000055
H77	H	-1.164488	-0.224076	-0.752853
Cl78	Cl	-0.799679	0.234480	-0.000049
H79	H	-0.509774	0.108005	-0.000100
H80	H	-0.920445	0.129618	-0.000045
Cl81	Cl	-0.424333	-0.390154	-0.000052
Cl82	Cl	-0.341967	0.065340	-0.000088
H83	H	-0.911049	0.029440	-0.404823
H84	H	-0.832411	0.430643	-0.000046
Cl85	Cl	-0.788291	-0.314762	-0.000041
Cl86	Cl	-1.188675	-0.248347	-0.223991
