data_functionalizedCrystal
_audit_creation_method	'MofGen! by Chris Wilmer'
_symmetry_space_group_name_H-M	'P1'
_symmetry_Int_Tables_number	1
_symmetry_cell_setting	triclinic
loop_
_symmetry_equiv_pos_as_xyz
  x,y,z
_cell_length_a	18.101395
_cell_length_b	10.686220
_cell_length_c	10.686551
_cell_angle_alpha	90.307919
_cell_angle_beta	85.593544
_cell_angle_gamma	94.413019
loop_
_atom_site_label
_atom_site_type_symbol
_atom_site_fract_x
_atom_site_fract_y
_atom_site_fract_z
Zn1	Zn	-0.180548	1.972201	-0.562388
Zn2	Zn	0.319452	2.472201	-0.062388
Zn3	Zn	-0.314592	1.955907	-0.352626
Zn4	Zn	0.185408	2.455907	0.147374
Zn5	Zn	-0.199493	1.746310	-0.368704
Zn6	Zn	0.300507	2.246310	0.131296
Zn7	Zn	-0.313092	1.762338	-0.578403
Zn8	Zn	0.186908	2.262338	-0.078403
O9	O	-0.251931	1.859189	-0.465530
O10	O	0.248069	2.359189	0.034470
O11	O	-0.191029	2.145585	-0.521131
O12	O	0.308971	2.645585	-0.021131
O13	O	-0.307881	1.914577	-0.179213
O14	O	0.192119	2.414577	0.320787
O15	O	-0.093341	1.776387	-0.394423
O16	O	0.406659	2.276387	0.105577
O17	O	-0.289510	2.133614	-0.367020
O18	O	0.210490	2.633614	0.132980
O19	O	-0.079422	1.942348	-0.536722
O20	O	0.420578	2.442348	-0.036722
O21	O	-0.223318	1.760587	-0.191026
O22	O	0.276682	2.260587	0.308974
O23	O	-0.221863	1.572891	-0.409953
O24	O	0.278137	2.072891	0.090047
O25	O	-0.286953	1.803703	-0.751825
O26	O	0.213047	2.303703	-0.251825
O27	O	-0.305323	1.584666	-0.564017
O28	O	0.194677	2.084666	-0.064017
O29	O	-0.189574	1.957889	-0.740058
O30	O	0.310426	2.457889	-0.240058
O31	O	-0.418032	1.930118	-0.382550
O32	O	0.081968	2.430118	0.117450
O33	O	-0.416930	1.787904	-0.548427
O34	O	0.083070	2.287904	-0.048427
C35	C	-0.265487	1.533262	-0.490468
C36	C	0.234513	2.033262	0.009532
C37	C	-0.271302	1.393831	-0.501167
C38	C	0.228698	1.893831	-0.001167
C39	C	-0.444351	1.859018	-0.465506
C40	C	0.055649	2.359018	0.034494
C41	C	-0.526662	1.859063	-0.465529
C42	C	-0.026662	2.359063	0.034471
C43	C	-0.825738	1.859344	-0.465576
C44	C	-0.325738	2.359344	0.034424
C45	C	-0.793729	1.770110	-0.570165
C46	C	-0.293729	2.270110	-0.070165
C47	C	-0.708145	1.769627	-0.569896
C48	C	-0.208145	2.269627	-0.069896
C49	C	-0.677363	1.859205	-0.465554
C50	C	-0.177363	2.359205	0.034446
C51	C	-0.716425	1.813256	-0.336084
C52	C	-0.216425	2.313256	0.163916
C53	C	-0.802068	1.812677	-0.336714
C54	C	-0.302068	2.312677	0.163286
C55	C	-0.786912	1.994649	-0.489276
C56	C	-0.286912	2.494649	0.010724
C57	C	-0.701153	1.994092	-0.492235
C58	C	-0.201153	2.494092	0.007765
C59	C	-0.593508	1.859128	-0.465533
C60	C	-0.093508	2.359128	0.034467
C61	C	-0.909594	1.859417	-0.465588
C62	C	-0.409594	2.359417	0.034412
C63	C	-0.058758	1.859397	-0.465579
C64	C	0.441242	2.359397	0.034421
C65	C	0.023561	1.859485	-0.465600
C66	C	0.523561	2.359485	0.034400
C67	C	-0.235983	1.884402	-0.792731
C68	C	0.264017	2.384402	-0.292731
C69	C	-0.229186	1.895146	-0.932165
C70	C	0.270814	2.395146	-0.432165
C71	C	-0.238323	2.186389	-0.440496
C72	C	0.261677	2.686389	0.059504
C73	C	-0.232525	2.325822	-0.429828
C74	C	0.267475	2.825822	0.070172
C75	C	-0.267762	1.834147	-0.139597
C76	C	0.232238	2.334147	0.360403
C77	C	-0.274339	1.823646	-0.000146
C78	C	0.225661	2.323646	0.499854
H79	H	-0.681387	1.799551	-0.666214
H80	H	-0.181387	2.299551	-0.166214
F81	F	-0.666892	2.039145	-0.616711
F82	F	-0.166892	2.539145	-0.116711
H83	H	-0.185329	1.964589	-0.980639
H84	H	0.314671	2.464589	-0.480639
H85	H	-0.194878	1.374272	-0.360556
H86	H	0.305122	1.874272	0.139444
F87	F	-0.690812	1.894948	-0.232028
F88	F	-0.190812	2.394948	0.267972
H89	H	-0.318198	1.754216	-0.951677
H90	H	0.181802	2.254216	-0.451677
F91	F	-0.813138	1.808959	-0.696500
F92	F	-0.313138	2.308959	-0.196500
H93	H	-0.820461	1.670643	-0.555504
H94	H	-0.320461	2.170643	-0.055504
F95	F	-0.320515	1.330514	-0.591694
F96	F	0.179485	1.830514	-0.091694
H97	H	-0.692906	1.669540	-0.554998
H98	H	-0.192906	2.169540	-0.054998
H99	H	-0.827543	1.713468	-0.315457
H100	H	-0.327543	2.213468	0.184543
F101	F	-0.830237	1.893213	-0.232093
F102	F	-0.330237	2.393213	0.267907
F103	F	-0.695555	1.684871	-0.307524
F104	F	-0.195555	2.184871	0.192476
F105	F	-0.807285	2.046818	-0.609874
F106	F	-0.307285	2.546818	-0.109874
F107	F	-0.813964	2.081716	-0.389562
F108	F	-0.313964	2.581716	0.110438
F109	F	-0.673198	2.086660	-0.398874
F110	F	-0.173198	2.586660	0.101126
