data_functionalizedCrystal
_audit_creation_method	'MofGen! by Chris Wilmer'
_symmetry_space_group_name_H-M	'P1'
_symmetry_Int_Tables_number	1
_symmetry_cell_setting	triclinic
loop_
_symmetry_equiv_pos_as_xyz
  x,y,z
_cell_length_a	14.853566
_cell_length_b	19.188930
_cell_length_c	13.330367
_cell_angle_alpha	89.990231
_cell_angle_beta	89.995295
_cell_angle_gamma	83.389598
loop_
_atom_site_label
_atom_site_type_symbol
_atom_site_fract_x
_atom_site_fract_y
_atom_site_fract_z
O1	O	1.195863	0.091151	-0.083369
O2	O	1.695863	0.591151	0.416631
O3	O	0.933343	0.102011	-0.083387
O4	O	1.433343	0.602011	0.416613
O5	O	1.072178	-0.005050	-0.083358
O6	O	1.572178	0.494950	0.416642
O7	O	1.057027	0.198211	-0.083398
O8	O	1.557027	0.698211	0.416602
O9	O	1.072158	-0.005052	0.083489
O10	O	1.572158	0.494948	0.583489
O11	O	0.933323	0.102008	0.083460
O12	O	1.433323	0.602008	0.583460
O13	O	1.195843	0.091148	0.083478
O14	O	1.695843	0.591148	0.583478
Cu15	Cu	1.064581	0.096578	0.098704
Cu16	Cu	1.564581	0.596578	0.598704
Cu17	Cu	1.064605	0.096581	-0.098612
Cu18	Cu	1.564605	0.596581	0.401388
O19	O	1.057007	0.198209	0.083449
O20	O	1.557007	0.698209	0.583449
C21	C	0.899747	0.101518	0.000035
C22	C	1.399747	0.601518	0.500035
C23	C	0.799671	0.100043	0.000029
C24	C	1.299671	0.600043	0.500029
C25	C	0.376532	0.093810	-0.090901
C26	C	0.876532	0.593810	0.409099
C27	C	0.376531	0.093808	0.091002
C28	C	0.876531	0.593808	0.591002
C29	C	0.470558	0.095192	0.090999
C30	C	0.970558	0.595192	0.590999
C31	C	0.517575	0.095886	0.000044
C32	C	1.017575	0.595886	0.500044
C33	C	0.470567	0.095196	-0.090907
C34	C	0.970567	0.595196	0.409093
C35	C	0.517572	0.095889	0.181949
C36	C	1.017572	0.595889	0.681949
C37	C	0.611604	0.097274	0.181949
C38	C	1.111604	0.597274	0.681949
C39	C	0.658624	0.097964	0.090993
C40	C	1.158624	0.597964	0.590993
C41	C	0.611610	0.097273	0.000038
C42	C	1.111610	0.597273	0.500038
C43	C	0.658628	0.097967	-0.090916
C44	C	1.158628	0.597967	0.409084
C45	C	0.611616	0.097271	-0.181873
C46	C	1.111616	0.597271	0.318127
C47	C	0.517587	0.095886	-0.181863
C48	C	1.017587	0.595886	0.318137
C49	C	0.752653	0.099349	0.090983
C50	C	1.252653	0.599349	0.590983
C51	C	0.752662	0.099354	-0.090923
C52	C	1.252662	0.599354	0.409077
C53	C	1.071678	-0.031063	0.000069
C54	C	1.571678	0.468937	0.500069
C55	C	1.070205	-0.108573	0.000077
C56	C	1.570205	0.391427	0.500077
C57	C	1.151669	-0.153225	0.000088
C58	C	1.651669	0.346775	0.500088
C59	C	1.150285	-0.226054	0.000071
C60	C	1.650285	0.273946	0.500071
C61	C	1.067433	-0.254226	0.000065
C62	C	1.567433	0.245774	0.500065
C63	C	0.985958	-0.209564	0.000049
C64	C	1.485958	0.290436	0.500049
C65	C	0.987344	-0.136737	0.000055
C66	C	1.487344	0.363263	0.500055
N67	N	1.004095	-0.362443	0.056842
N68	N	1.504095	0.137557	0.556842
N69	N	1.002784	-0.431626	0.056838
N70	N	1.502784	0.068374	0.556838
C71	C	1.063252	-0.473649	0.000044
C72	C	1.563252	0.026351	0.500044
N73	N	1.125094	-0.443877	-0.056733
N74	N	1.625094	0.056123	0.443267
N75	N	1.126408	-0.374688	-0.056725
N76	N	1.626408	0.125312	0.443275
C77	C	1.065921	-0.333194	0.000058
C78	C	1.565921	0.166806	0.500058
C79	C	1.143221	-0.597271	0.000036
C80	C	1.643221	-0.097271	0.500036
C81	C	1.141834	-0.670100	0.000013
C82	C	1.641834	-0.170100	0.500013
C83	C	0.977504	-0.653609	0.000001
C84	C	1.477504	-0.153609	0.500001
C85	C	0.978893	-0.580781	0.000013
C86	C	1.478893	-0.080781	0.500013
C87	C	1.061754	-0.552617	0.000036
C88	C	1.561754	-0.052617	0.500036
C89	C	1.229439	0.091642	0.000054
C90	C	1.729439	0.591642	0.500054
C91	C	1.329514	0.093116	0.000054
C92	C	1.829514	0.593116	0.500054
C93	C	1.057508	0.224223	0.000020
C94	C	1.557508	0.724223	0.500020
C95	C	1.058980	0.301732	0.000005
C96	C	1.558980	0.801732	0.500005
N97	N	1.064571	0.096576	0.237485
N98	N	1.564571	0.596576	0.737485
N99	N	1.064622	0.096578	-0.237394
N100	N	1.564622	0.596578	0.262606
C101	C	1.003125	0.143969	0.710095
C102	C	1.503125	0.643969	1.210095
C103	C	1.126108	0.049188	0.710089
C104	C	1.626108	0.549188	1.210089
C105	C	1.126098	0.049186	0.605071
C106	C	1.626098	0.549186	1.105071
C107	C	1.064601	0.096576	0.552560
C108	C	1.564601	0.596576	1.052560
C109	C	1.003115	0.143969	0.605067
C110	C	1.503115	0.643969	1.105067
C111	C	1.187589	0.001798	0.552555
C112	C	1.687589	0.501798	1.052555
C113	C	1.187582	0.001795	0.447531
C114	C	1.687582	0.501795	0.947531
C115	C	1.126080	0.049183	0.395018
C116	C	1.626080	0.549183	0.895018
C117	C	1.064591	0.096577	0.447532
C118	C	1.564591	0.596577	0.947532
C119	C	1.003095	0.143968	0.395021
C120	C	1.503095	0.643968	0.895021
C121	C	0.941600	0.191359	0.447533
C122	C	1.441600	0.691359	0.947533
C123	C	0.941614	0.191357	0.552554
C124	C	1.441614	0.691357	1.052554
C125	C	1.126067	0.049185	0.289996
C126	C	1.626067	0.549185	0.789996
C127	C	1.003085	0.143969	0.289993
C128	C	1.503085	0.643969	0.789993
H129	H	0.338251	0.093241	-0.164955
H130	H	0.838251	0.593241	0.335045
H131	H	1.176181	0.010607	0.752847
H132	H	1.676181	0.510607	1.252847
H133	H	0.891533	0.229948	0.404766
H134	H	1.391533	0.729948	0.904766
F135	F	1.253040	-0.048632	0.608441
F136	F	1.753040	0.451368	1.108441
H137	H	0.649874	0.097839	0.256011
H138	H	1.149874	0.597839	0.756011
F139	F	1.253026	-0.048643	0.391651
F140	F	1.753026	0.451357	0.891651
H141	H	0.918498	-0.232507	0.000042
H142	H	1.418498	0.267493	0.500042
F143	F	1.231408	-0.567294	0.000064
F144	F	1.731408	-0.067294	0.500064
H145	H	0.910044	-0.676546	-0.000009
H146	H	1.410044	-0.176546	0.499991
H147	H	0.921004	-0.100380	0.000047
H148	H	1.421004	0.399620	0.500047
F149	F	0.802682	0.100095	0.187778
F150	F	1.302682	0.600095	0.687778
F151	F	1.228544	-0.717624	0.000018
F152	F	1.728544	-0.217624	0.500018
F153	F	0.892187	-0.533257	0.000006
F154	F	1.392187	-0.033257	0.500006
H155	H	1.176139	0.010603	0.247246
H156	H	1.676139	0.510603	0.747246
H157	H	1.216626	-0.262417	0.000076
H158	H	1.716626	0.237583	0.500076
H159	H	1.219141	-0.130299	0.000102
H160	H	1.719141	0.369701	0.500102
H161	H	0.953003	0.182558	0.247245
H162	H	1.453003	0.682558	0.747245
H163	H	0.891548	0.229942	0.595316
H164	H	1.391548	0.729942	1.095316
F165	F	0.937678	0.194402	0.765980
F166	F	1.437678	0.694402	1.265980
F167	F	0.802696	0.100087	-0.187732
F168	F	1.302696	0.600087	0.312268
H169	H	0.338243	0.093247	0.165053
H170	H	0.838243	0.593247	0.665053
H171	H	0.649909	0.097841	-0.255928
H172	H	1.149909	0.597841	0.244072
H173	H	0.479301	0.095318	-0.255914
H174	H	0.979301	0.595318	0.244086
F175	F	0.467527	0.095158	0.278742
F176	F	0.967527	0.595158	0.778742
