data_functionalizedCrystal
_audit_creation_method	'MofGen! by Chris Wilmer'
_symmetry_space_group_name_H-M	'P1'
_symmetry_Int_Tables_number	1
_symmetry_cell_setting	triclinic
loop_
_symmetry_equiv_pos_as_xyz
  x,y,z
_cell_length_a	12.759401
_cell_length_b	12.759400
_cell_length_c	12.759393
_cell_angle_alpha	89.969553
_cell_angle_beta	89.980875
_cell_angle_gamma	90.012809
loop_
_atom_site_label
_atom_site_type_symbol
_atom_site_fract_x
_atom_site_fract_y
_atom_site_fract_z
Zn1	Zn	1.606267	-0.418214	-0.594007
Zn2	Zn	1.606166	-0.593933	-0.418331
Zn3	Zn	1.430569	-0.418268	-0.418345
Zn4	Zn	1.430562	-0.593851	-0.593970
O5	O	1.518391	-0.506066	-0.506163
O6	O	1.753274	-0.441536	-0.570713
O7	O	1.582833	-0.570688	-0.271311
O8	O	1.453920	-0.271240	-0.441668
O9	O	1.753200	-0.570636	-0.441644
O10	O	1.583005	-0.271200	-0.570726
O11	O	1.453822	-0.441627	-0.271322
O12	O	1.283547	-0.441547	-0.441632
O13	O	1.453909	-0.570495	-0.740996
O14	O	1.283542	-0.570547	-0.570663
O15	O	1.582998	-0.441456	-0.741023
O16	O	1.582826	-0.740943	-0.441608
O17	O	1.453811	-0.740883	-0.570650
C18	C	1.245423	-0.506045	-0.506146
C19	C	1.128647	-0.506061	-0.506163
C20	C	0.964031	-0.438825	-0.439106
C21	C	1.073756	-0.438803	-0.439095
C22	C	1.073808	-0.573338	-0.573254
C23	C	0.964086	-0.573354	-0.573269
C24	C	0.909146	-0.371570	-0.372025
C25	C	0.963977	-0.304291	-0.304936
C26	C	1.073701	-0.304269	-0.304925
C27	C	1.128594	-0.371526	-0.372004
C28	C	1.518336	-0.779034	-0.506147
C29	C	1.518408	-0.895810	-0.506175
C30	C	1.585589	-0.950572	-0.573430
C31	C	1.585638	-1.060296	-0.573456
C32	C	1.451322	-1.060487	-0.438961
C33	C	1.451269	-0.950765	-0.438941
C34	C	1.652728	-0.895618	-0.640664
C35	C	1.719915	-0.950380	-0.707924
C36	C	1.719964	-1.060104	-0.707950
C37	C	1.652826	-1.115066	-0.640715
C38	C	1.792424	-0.506089	-0.506181
C39	C	1.909201	-0.506099	-0.506189
C40	C	1.518464	-0.505960	-0.780197
C41	C	1.518496	-0.505915	-0.896973
C42	C	1.518475	-0.232033	-0.506203
C43	C	1.518510	-0.115257	-0.506220
C44	C	1.585722	-0.438718	-0.951851
C45	C	1.585747	-0.438680	-1.061575
C46	C	1.451316	-0.573046	-1.061534
C47	C	1.451287	-0.573077	-0.951812
C48	C	1.652930	-0.371556	-0.897013
C49	C	1.720163	-0.304354	-0.951891
C50	C	1.720188	-0.304316	-1.061615
C51	C	1.652980	-0.371480	-1.116461
C52	C	1.518378	-0.506096	-0.233196
C53	C	1.518550	-0.505845	-0.116420
H54	H	0.819803	-0.371582	-0.372024
N55	N	1.792658	-0.231926	-0.892743
H56	H	1.782450	-0.242152	-0.814907
H57	H	1.867684	-0.248299	-0.911938
H58	H	1.774924	-0.249590	-1.106293
N59	N	1.652865	-1.233411	-0.640740
H60	H	1.633526	-1.259799	-0.712800
H61	H	1.724973	-1.259727	-0.621451
H62	H	0.919276	-0.249527	-0.250329
N63	N	1.653002	-0.371446	-1.234806
H64	H	1.580942	-0.352119	-1.261231
H65	H	1.705832	-0.318692	-1.261170
N66	N	1.132844	-0.231692	-0.232588
H67	H	1.081421	-0.189088	-0.190102
H68	H	1.178350	-0.274385	-0.183888
N69	N	1.246940	-0.371494	-0.372006
H70	H	1.273349	-0.318666	-0.319334
H71	H	1.273278	-0.443574	-0.352602
N72	N	1.378822	-0.645471	-1.120684
H73	H	1.389039	-0.635251	-1.198520
H74	H	1.395131	-0.720517	-1.101495
H75	H	0.919442	-0.628131	-0.627897
N76	N	1.378780	-0.645551	-0.892613
H77	H	1.336214	-0.688099	-0.944000
H78	H	1.421519	-0.694187	-0.847078
N79	N	1.133008	-0.645881	-0.645593
H80	H	1.210837	-0.635665	-0.635401
H81	H	1.113813	-0.720897	-0.629112
H82	H	1.774571	-0.905624	-0.762671
H83	H	1.652698	-0.806275	-0.640648
N84	N	1.792414	-1.119188	-0.780487
H85	H	1.749704	-1.164702	-0.829142
H86	H	1.834927	-1.067670	-0.823011
N87	N	1.378920	-1.119762	-0.366441
H88	H	1.389152	-1.197580	-0.376655
H89	H	1.395309	-1.100621	-0.291419
H90	H	1.396563	-0.906177	-0.384177
N91	N	1.652907	-0.371602	-0.778669
H92	H	1.705683	-0.318861	-0.752254
H93	H	1.580802	-0.352320	-0.752317
