data_functionalizedCrystal
_audit_creation_method	'MofGen! by Chris Wilmer'
_symmetry_space_group_name_H-M	'P1'
_symmetry_Int_Tables_number	1
_symmetry_cell_setting	triclinic
loop_
_symmetry_equiv_pos_as_xyz
  x,y,z
_cell_length_a	9.065218
_cell_length_b	9.130307
_cell_length_c	9.065218
_cell_angle_alpha	90.001478
_cell_angle_beta	85.015885
_cell_angle_gamma	90.001600
loop_
_atom_site_label
_atom_site_type_symbol
_atom_site_fract_x
_atom_site_fract_y
_atom_site_fract_z
O1	O	1.960395	0.121797	0.216354
O2	O	1.531111	0.121798	0.234101
O3	O	1.754626	0.121794	0.010585
O4	O	1.736880	0.121800	0.439870
O5	O	1.754619	-0.121805	0.010583
O6	O	1.531103	-0.121801	0.234099
O7	O	1.960388	-0.121802	0.216352
Cu8	Cu	1.745745	-0.144044	0.225225
Cu9	Cu	1.745754	0.144040	0.225228
O10	O	1.736872	-0.121799	0.439868
C11	C	1.476120	-0.000001	0.232394
C12	C	1.312277	-0.000000	0.227294
N13	N	1.745750	-0.346667	0.225222
C14	C	1.943755	-0.346660	0.027358
C15	C	2.042767	-0.423324	-0.071570
C16	C	2.042782	-0.576657	-0.071571
C17	C	1.943771	-0.653331	0.027364
C18	C	1.844758	-0.576667	0.126292
C19	C	1.844757	-0.423330	0.126285
C20	C	1.646748	-0.576674	0.324147
C21	C	1.646738	-0.423340	0.324157
C22	C	1.547737	-0.653347	0.423081
C23	C	1.448729	-0.576684	0.522019
C24	C	1.448720	-0.423341	0.522017
C25	C	1.547726	-0.346677	0.423085
C26	C	2.015378	0.000000	0.218059
C27	C	2.179221	0.000009	0.223158
C28	C	1.752917	-0.000003	-0.044403
C29	C	1.747817	0.000004	-0.208245
N30	N	1.745761	0.346663	0.225219
C31	C	1.738582	0.000002	0.494855
C32	C	1.743681	0.000004	0.658698
H33	H	1.943765	-0.221808	0.027361
H34	H	1.943776	-0.778183	0.027345
H35	H	1.547747	-0.778200	0.423070
C36	C	1.547719	-0.178015	0.423077
H37	H	1.620857	-0.143337	0.349981
H38	H	1.569150	-0.143313	0.517669
H39	H	1.453143	-0.143341	0.401540
C40	C	1.339834	-0.661024	0.630832
H41	H	1.354024	-0.763323	0.616664
H42	H	1.241146	-0.635901	0.613434
H43	H	1.357173	-0.635899	0.729544
H44	H	1.368086	-0.360930	0.602570
H45	H	2.123401	-0.639077	-0.152131
C46	C	2.151671	-0.338982	-0.180390
H47	H	2.137495	-0.236682	-0.166217
H48	H	2.134350	-0.364118	-0.279095
H49	H	2.250362	-0.364101	-0.162970
