data_functionalizedCrystal
_audit_creation_method	'MofGen! by Chris Wilmer'
_symmetry_space_group_name_H-M	'P1'
_symmetry_Int_Tables_number	1
_symmetry_cell_setting	triclinic
loop_
_symmetry_equiv_pos_as_xyz
  x,y,z
_cell_length_a	17.019448
_cell_length_b	16.109301
_cell_length_c	15.186229
_cell_angle_alpha	89.994804
_cell_angle_beta	86.137136
_cell_angle_gamma	96.568079
loop_
_atom_site_label
_atom_site_type_symbol
_atom_site_fract_x
_atom_site_fract_y
_atom_site_fract_z
O1	O	0.101400	-1.103051	0.065493
O2	O	0.114018	-0.860978	0.064552
O3	O	-0.007121	-0.988760	0.073713
O4	O	0.222538	-0.975269	0.056332
O5	O	-0.007141	-0.988742	-0.072743
O6	O	0.113998	-0.860961	-0.081904
O7	O	0.101380	-1.103033	-0.080962
Zn8	Zn	0.107686	-0.981994	-0.104686
Zn9	Zn	0.107712	-0.982017	0.088276
O10	O	0.222519	-0.975252	-0.090124
C11	C	0.113497	-0.829995	-0.008636
C12	C	0.111964	-0.737701	-0.008514
C13	C	-0.036519	-0.988237	0.002711
C14	C	-0.124085	-0.986694	0.009344
C15	C	0.101901	-1.134016	-0.007773
C16	C	0.103433	-1.226310	-0.007888
C17	C	-0.619352	-0.978048	0.050960
C18	C	-0.537073	-0.979489	0.044710
C19	C	-0.495960	-0.980193	-0.038249
C20	C	-0.537131	-0.979465	-0.114962
C21	C	-0.619409	-0.978030	-0.108710
C22	C	-0.247535	-0.984531	-0.061117
C23	C	-0.165250	-0.985964	-0.067363
C24	C	-0.165198	-0.985989	0.092309
C25	C	-0.247478	-0.984549	0.098553
C26	C	-0.288642	-0.983825	0.021840
C27	C	-0.411857	-0.981664	-0.044640
C28	C	-0.372744	-0.982361	0.028232
C29	C	0.251916	-0.975775	-0.019120
C30	C	0.339483	-0.977317	-0.025747
N31	N	0.107668	-0.981985	-0.236377
C32	C	0.180283	-0.515372	-0.013695
C33	C	0.178837	-0.428653	-0.013591
C34	C	0.035110	-0.448647	-0.002710
C35	C	0.036556	-0.535364	-0.002820
C36	C	0.109145	-0.568724	-0.008308
C37	C	0.106252	-0.395287	-0.008094
C38	C	0.104684	-0.301263	-0.007982
C39	C	0.110714	-0.662755	-0.008423
C40	C	0.059847	-0.931644	-0.550708
C41	C	0.059836	-0.931637	-0.458517
C42	C	0.155546	-1.032380	-0.465709
C43	C	0.155552	-1.032391	-0.557898
C44	C	0.107705	-0.982018	-0.600395
C45	C	0.107687	-0.982000	-0.416016
C46	C	0.107675	-0.981993	-0.316059
C47	C	0.107715	-0.982026	-0.700358
N48	N	0.107723	-0.982033	0.219967
H49	H	-0.652819	-0.977466	0.118514
C50	C	-0.034766	-0.832071	-0.534336
C51	C	0.007246	-0.876284	-0.597421
H52	H	-0.067245	-0.797899	-0.563175
H53	H	0.001524	-0.797959	-0.501127
H54	H	-0.067079	-0.870373	-0.495932
H55	H	0.039563	-0.837981	-0.635822
H56	H	-0.029048	-0.910398	-0.630646
C57	C	-0.045183	-0.644498	0.078656
C58	C	-0.041643	-0.594018	0.003103
H59	H	-0.093456	-0.680711	0.082306
H60	H	-0.042758	-0.610257	0.129537
H61	H	-0.001741	-0.676771	0.075356
H62	H	-0.085082	-0.561741	0.006406
H63	H	-0.044076	-0.628263	-0.047790
H64	H	0.194503	-1.073391	-0.431097
H65	H	0.194524	-1.073416	-0.598354
H66	H	-0.503560	-0.980085	0.107173
C67	C	-0.063872	-0.916114	-0.167666
C68	C	-0.120045	-0.986733	-0.158551
H69	H	-0.035965	-0.916584	-0.223959
H70	H	-0.027596	-0.916758	-0.122869
H71	H	-0.089965	-0.867105	-0.162365
H72	H	-0.093951	-1.035742	-0.163845
H73	H	-0.156327	-0.986096	-0.203361
C74	C	-0.239169	-0.984808	0.255756
C75	C	-0.292674	-0.983835	0.189745
H76	H	-0.267076	-0.984387	0.312053
H77	H	-0.201078	-0.936894	0.249587
H78	H	-0.213076	-1.033814	0.250402
H79	H	-0.318763	-0.934826	0.195095
H80	H	-0.330779	-1.031754	0.195916
H81	H	-0.131673	-0.986579	0.154764
C82	C	0.054889	-0.819807	-0.354506
C83	C	0.007238	-0.876252	-0.403905
H84	H	0.022415	-0.785615	-0.320789
H85	H	0.091183	-0.785716	-0.393216
H86	H	0.083374	-0.849812	-0.315999
H87	H	-0.021243	-0.846246	-0.442417
H88	H	-0.029070	-0.910346	-0.365190
H89	H	-0.023990	-0.421474	0.001753
C90	C	-0.239308	-0.984638	-0.219571
C91	C	-0.292774	-0.983724	-0.145440
H92	H	-0.267241	-0.984133	-0.271630
H93	H	-0.213237	-1.033654	-0.218239
H94	H	-0.201194	-0.936735	-0.219126
H95	H	-0.330885	-1.031631	-0.145881
H96	H	-0.318858	-0.934703	-0.146773
H97	H	-0.503651	-0.980044	-0.182508
H98	H	-0.652925	-0.977435	-0.171174
C99	C	0.322204	-0.486895	-0.024451
C100	C	0.260071	-0.552042	-0.019739
H101	H	0.371462	-0.509534	-0.028190
H102	H	0.318661	-0.453494	0.026888
H103	H	0.318632	-0.453484	-0.075256
H104	H	0.263639	-0.585450	0.031070
H105	H	0.263615	-0.585457	-0.071083
C106	C	-0.456366	-0.909313	0.127196
C107	C	-0.417938	-0.981577	0.119415
H108	H	-0.484270	-0.908825	0.183490
H109	H	-0.492647	-0.908685	0.082401
H110	H	-0.418239	-0.861421	0.120988
H111	H	-0.456066	-1.029470	0.125617
H112	H	-0.381655	-0.982213	0.164223
C113	C	0.260597	-0.319537	0.055509
C114	C	0.257032	-0.370006	-0.019507
H115	H	0.308873	-0.283328	0.051852
H116	H	0.258183	-0.353785	0.106755
H117	H	0.217159	-0.287259	0.058784
H118	H	0.300468	-0.402289	-0.022778
H119	H	0.259455	-0.335754	-0.070767
H120	H	-0.378373	-0.982235	-0.112185
