data_functionalizedCrystal
_audit_creation_method	'MofGen! by Chris Wilmer'
_symmetry_space_group_name_H-M	'P1'
_symmetry_Int_Tables_number	1
_symmetry_cell_setting	triclinic
loop_
_symmetry_equiv_pos_as_xyz
  x,y,z
_cell_length_a	10.654545
_cell_length_b	19.188924
_cell_length_c	9.130313
_cell_angle_alpha	89.993420
_cell_angle_beta	89.996934
_cell_angle_gamma	83.812522
loop_
_atom_site_label
_atom_site_type_symbol
_atom_site_fract_x
_atom_site_fract_y
_atom_site_fract_z
O1	O	1.665764	0.098047	-0.121792
O2	O	1.300086	0.107393	-0.121799
O3	O	1.493482	0.001133	-0.121778
O4	O	1.472368	0.204307	-0.121813
O5	O	1.493469	0.001130	0.121821
O6	O	1.300073	0.107390	0.121800
O7	O	1.665751	0.098044	0.121807
Cu8	Cu	1.482911	0.102717	0.144046
Cu9	Cu	1.482926	0.102720	-0.144038
O10	O	1.472355	0.204304	0.121786
C11	C	1.253296	0.106706	-0.000000
C12	C	1.113896	0.104655	-0.000002
C13	C	1.048405	0.103688	0.132784
C14	C	0.917427	0.101749	0.132785
C15	C	0.917442	0.101748	-0.132800
C16	C	1.048419	0.103681	-0.132799
C17	C	1.492793	-0.024884	0.000023
C18	C	1.490745	-0.102402	0.000026
C19	C	1.489796	-0.138806	-0.132760
C20	C	1.487854	-0.211641	-0.132771
C21	C	1.486886	-0.248072	0.000012
C22	C	1.487828	-0.211659	0.132815
C23	C	1.489757	-0.138824	0.132823
N24	N	1.555313	-0.367289	0.098840
N25	N	1.553483	-0.436480	0.098824
C26	C	1.481069	-0.467519	-0.000003
N27	N	1.410570	-0.426755	-0.098835
N28	N	1.412407	-0.357559	-0.098823
C29	C	1.484792	-0.327049	0.000018
C30	C	1.478012	-0.582899	-0.132810
C31	C	1.476062	-0.655735	-0.132816
C32	C	1.476048	-0.655753	0.132774
C33	C	1.477986	-0.582917	0.132776
C34	C	1.478974	-0.546495	-0.000020
C35	C	1.712541	0.098731	0.000005
C36	C	1.851941	0.100782	-0.000003
C37	C	1.473044	0.230321	-0.000018
C38	C	1.475092	0.307839	-0.000032
N39	N	1.482909	0.102714	0.346668
N40	N	1.482938	0.102718	-0.346661
C41	C	1.568573	0.055682	0.423329
C42	C	1.568585	0.055682	0.576666
C43	C	1.397265	0.149752	0.576667
C44	C	1.397248	0.149748	0.423333
H45	H	0.864114	0.100956	-0.240918
H46	H	1.487035	-0.241326	0.240928
C47	C	1.474935	-0.695167	0.277095
C48	C	1.476155	-0.647690	0.393390
C49	C	1.475107	-0.683975	0.526363
H50	H	1.547374	-0.728555	0.282825
H51	H	1.400936	-0.718589	0.282689
H52	H	1.550146	-0.624279	0.387799
H53	H	1.403721	-0.614301	0.387709
H54	H	1.401108	-0.707397	0.531957
H55	H	1.547547	-0.717361	0.532078
H56	H	1.475923	-0.651767	0.605285
C57	C	1.304070	0.200736	0.659835
C58	C	1.180735	0.188760	0.622601
C59	C	1.094851	0.235708	0.699198
H60	H	1.317265	0.247434	0.634750
H61	H	1.316267	0.193999	0.762148
H62	H	1.168544	0.195503	0.520310
H63	H	1.167500	0.142071	0.647689
H64	H	1.107048	0.228970	0.801511
H65	H	1.108058	0.282403	0.674107
H66	H	1.011160	0.227584	0.673956
C67	C	0.846539	0.100740	0.277109
C68	C	0.931916	0.102024	0.393397
C69	C	0.866659	0.101104	0.526375
H70	H	0.805247	0.059354	0.282852
H71	H	0.785657	0.140644	0.282696
H72	H	0.992775	0.062124	0.387813
H73	H	0.973211	0.143407	0.387703
H74	H	0.805778	0.141007	0.531963
H75	H	0.825371	0.059717	0.532103
H76	H	0.924576	0.101981	0.605293
H77	H	1.638339	0.017383	0.639080
H78	H	1.478809	-0.553242	-0.240940
H79	H	1.101744	0.104467	-0.240936
H80	H	1.490525	-0.109185	0.240956
H81	H	1.101713	0.104480	0.240916
C82	C	1.478776	-0.543337	0.276905
C83	C	1.371854	-0.494199	0.284689
C84	C	1.372526	-0.457733	0.417454
H85	H	1.552659	-0.519834	0.282572
H86	H	1.477854	-0.575438	0.356028
H87	H	1.372786	-0.462103	0.205589
H88	H	1.297953	-0.517684	0.279048
H89	H	1.371605	-0.489834	0.496576
H90	H	1.446415	-0.434234	0.423109
H91	H	1.299976	-0.424394	0.422759
C92	C	1.486766	-0.251298	-0.276793
C93	C	1.484838	-0.322877	-0.248373
C94	C	1.483822	-0.359428	-0.381008
H95	H	1.560283	-0.244412	-0.331450
H96	H	1.413846	-0.234428	-0.331381
H97	H	1.557751	-0.339742	-0.193808
H98	H	1.411326	-0.329784	-0.193737
H99	H	1.410901	-0.342558	-0.435596
H100	H	1.557340	-0.352536	-0.435655
H101	H	1.482502	-0.407997	-0.361743
H102	H	1.490597	-0.109155	-0.240893
H103	H	1.475283	-0.685373	-0.240950
H104	H	1.638322	0.017383	0.360912
H105	H	1.327484	0.188047	0.360912
