data_functionalizedCrystal
_audit_creation_method	'MofGen! by Chris Wilmer'
_symmetry_space_group_name_H-M	'P1'
_symmetry_Int_Tables_number	1
_symmetry_cell_setting	triclinic
loop_
_symmetry_equiv_pos_as_xyz
  x,y,z
_cell_length_a	15.995350
_cell_length_b	15.995292
_cell_length_c	14.472310
_cell_angle_alpha	90.002121
_cell_angle_beta	89.990621
_cell_angle_gamma	83.480495
loop_
_atom_site_label
_atom_site_type_symbol
_atom_site_fract_x
_atom_site_fract_y
_atom_site_fract_z
O1	O	1.110974	0.107924	-0.076756
O2	O	0.867196	0.121252	-0.076774
O3	O	0.995774	-0.007303	-0.076766
O4	O	0.982396	0.236479	-0.076764
O5	O	0.995741	-0.007296	0.076916
O6	O	0.867163	0.121259	0.076908
O7	O	1.110941	0.107931	0.076926
Cu8	Cu	0.989049	0.114596	0.090949
Cu9	Cu	0.989088	0.114587	-0.090798
O10	O	0.982363	0.236486	0.076918
C11	C	0.835985	0.120704	0.000064
C12	C	0.743035	0.119053	0.000057
C13	C	0.405288	0.113120	0.000076
C14	C	0.452742	0.021566	0.000418
C15	C	0.549431	0.023218	0.000066
C16	C	0.572848	0.116063	0.000067
C17	C	0.531771	0.161216	-0.087689
C18	C	0.435135	0.158916	-0.087756
C19	C	0.434759	0.160816	0.087010
C20	C	0.531704	0.160795	0.088163
C21	C	0.667546	0.117731	0.000059
C22	C	0.310591	0.111455	0.000078
C23	C	0.995213	-0.038495	0.000073
C24	C	0.993581	-0.131448	0.000066
C25	C	0.987580	-0.469186	0.000074
C26	C	1.080384	-0.445874	0.000424
C27	C	1.082148	-0.349199	0.000074
C28	C	0.990557	-0.301631	0.000070
C29	C	0.944179	-0.330736	-0.087690
C30	C	0.943061	-0.427526	-0.087761
C31	C	0.941129	-0.427375	0.087004
C32	C	0.944567	-0.330882	0.088161
C33	C	0.992235	-0.206934	0.000065
C34	C	0.985899	-0.563882	0.000072
C35	C	1.142152	0.108479	0.000085
C36	C	1.235102	0.110130	0.000087
C37	C	0.982924	0.267678	0.000077
C38	C	0.984556	0.360631	0.000078
N39	N	0.989027	0.114602	0.218780
N40	N	0.989116	0.114575	-0.218628
C41	C	0.989087	0.114584	0.592871
C42	C	0.920057	0.183140	0.553701
C43	C	0.920216	0.183390	0.446613
C44	C	0.989057	0.114593	0.407280
C45	C	1.076417	0.133675	0.446124
C46	C	1.076029	0.134162	0.553246
C47	C	0.971536	0.026742	0.553398
C48	C	0.969532	0.027327	0.446271
C49	C	0.989045	0.114596	0.302392
C50	C	0.989104	0.114582	0.697760
H51	H	0.560166	0.129849	-0.153000
H52	H	0.876781	-0.298868	-0.090956
C53	C	0.426288	-0.027659	-0.084122
N54	N	0.406360	-0.064734	-0.147799
C55	C	0.986503	-0.463762	-0.176375
N56	N	1.019230	-0.491051	-0.243119
C57	C	0.882712	0.007764	0.411980
N58	N	0.817318	-0.006968	0.386148
C59	C	0.832484	0.168046	0.411133
N60	N	0.766399	0.156494	0.384415
H61	H	0.402874	0.226134	-0.091737
H62	H	0.414215	0.130888	0.153527
H63	H	1.021877	-0.024276	0.578728
C64	C	0.987729	-0.303649	-0.175920
N65	N	1.020538	-0.283250	-0.242373
C66	C	0.568566	0.116240	0.175870
N67	N	0.596329	0.082674	0.241930
H68	H	0.547054	0.228500	0.093465
H69	H	0.577854	-0.012275	0.062973
C70	C	0.851140	-0.447186	-0.093164
N71	N	0.781906	-0.461990	-0.097242
H72	H	1.091498	0.198225	0.578223
H73	H	0.931107	0.247959	0.580612
H74	H	0.434214	-0.015028	0.063352
H75	H	1.016546	-0.026079	0.419500
H76	H	0.545882	0.229427	-0.090951
C77	C	0.980388	-0.465540	0.176869
N78	N	1.009969	-0.494287	0.244550
H79	H	0.402983	0.228319	0.087604
C80	C	0.848848	-0.446289	0.087809
N81	N	0.779346	-0.460543	0.088410
H82	H	1.092256	0.197007	0.419289
C83	C	0.832045	0.168050	0.588554
N84	N	0.765753	0.156686	0.614817
H85	H	0.416848	0.125982	-0.153357
C86	C	0.587098	-0.025061	-0.085071
N87	N	0.615467	-0.061425	-0.149201
C88	C	1.131220	-0.323490	0.085062
N89	N	1.168187	-0.304132	0.149075
C90	C	0.990170	-0.305768	0.175874
N91	N	1.024513	-0.286838	0.241939
H92	H	1.115970	-0.474895	-0.062155
H93	H	1.116141	-0.473868	0.063361
C94	C	1.131542	-0.324335	-0.085060
N95	N	1.168746	-0.305608	-0.149188
C96	C	0.854249	-0.286346	0.095316
N97	N	0.786216	-0.252802	0.100698
C98	C	0.935359	0.271453	0.411980
N99	N	0.946771	0.337784	0.385896
H100	H	1.129000	0.086198	0.579155
C101	C	1.147473	0.068015	0.411701
N102	N	1.200991	0.018559	0.385771
H103	H	0.909217	0.008393	0.580461
