data_functionalizedCrystal
_audit_creation_method	'MofGen! by Chris Wilmer'
_symmetry_space_group_name_H-M	'P1'
_symmetry_Int_Tables_number	1
_symmetry_cell_setting	triclinic
loop_
_symmetry_equiv_pos_as_xyz
  x,y,z
_cell_length_a	10.654550
_cell_length_b	15.455313
_cell_length_c	10.654550
_cell_angle_alpha	87.308851
_cell_angle_beta	84.484931
_cell_angle_gamma	92.703897
loop_
_atom_site_label
_atom_site_type_symbol
_atom_site_fract_x
_atom_site_fract_y
_atom_site_fract_z
O1	O	1.673293	0.072066	0.170958
O2	O	1.307816	0.072082	0.187763
O3	O	1.498957	0.072068	-0.003378
O4	O	1.482152	0.072079	0.362100
O5	O	1.488027	-0.072194	0.007507
O6	O	1.296885	-0.072180	0.198648
O7	O	1.662363	-0.072196	0.181843
Cu8	Cu	1.478626	-0.085360	0.191240
Cu9	Cu	1.491553	0.085246	0.178367
O10	O	1.471221	-0.072182	0.372985
C11	C	1.255553	-0.000047	0.191972
C12	C	1.116110	-0.000041	0.188279
N13	N	1.469543	-0.205355	0.200293
C14	C	1.036625	-0.000040	0.300821
C15	C	0.905603	-0.000055	0.297345
C16	C	0.933565	-0.000069	0.068777
C17	C	1.064584	-0.000060	0.072254
C18	C	1.550775	-0.250755	0.119120
C19	C	1.543918	-0.341562	0.125978
C20	C	1.455833	-0.386968	0.214016
C21	C	1.374593	-0.341562	0.295193
C22	C	1.381445	-0.250756	0.288328
C23	C	1.426257	-0.658547	0.243615
C24	C	1.419413	-0.749359	0.250477
C25	C	1.588738	-0.749354	0.081260
C26	C	1.595587	-0.658546	0.074407
C27	C	1.514342	-0.613148	0.155579
N28	N	1.448825	-0.479788	0.221031
N29	N	1.521345	-0.520330	0.148557
C30	C	1.714626	-0.000065	0.177635
C31	C	1.854069	-0.000065	0.181327
C32	C	1.492258	-0.000062	-0.044733
C33	C	1.488566	-0.000061	-0.184177
N34	N	1.500645	0.205241	0.169304
C35	C	1.601107	-0.000065	-0.263662
C36	C	1.597632	-0.000055	-0.394684
C37	C	1.369063	-0.000038	-0.366722
C38	C	1.372541	-0.000043	-0.235703
C39	C	1.477921	-0.000050	0.414340
C40	C	1.481613	-0.000046	0.553783
H41	H	1.078572	-0.000031	0.395296
N42	N	1.251148	-0.000051	-0.149964
H43	H	1.270959	-0.000055	-0.059147
H44	H	1.204682	0.053430	-0.170783
N45	N	0.819867	-0.000102	0.418732
H46	H	0.872393	-0.000105	0.492757
H47	H	0.768900	0.053357	0.418277
H48	H	1.667312	-0.621579	0.002720
H49	H	1.654882	-0.786325	0.015172
N50	N	1.338623	-0.609599	0.331167
H51	H	1.352666	-0.625392	0.421634
H52	H	1.356353	-0.545198	0.313361
N53	N	1.243924	-0.000035	-0.422292
H54	H	1.198618	0.053445	-0.397410
H55	H	1.258894	-0.000070	-0.517340
H56	H	1.622508	-0.213791	0.047435
N57	N	1.150326	-0.000071	-0.049135
H58	H	1.097806	-0.000080	-0.123164
H59	H	1.209341	0.053409	-0.056711
N60	N	1.324416	-0.798336	0.345449
H61	H	1.273988	-0.755798	0.395832
H62	H	1.265641	-0.836032	0.299706
N63	N	1.726242	-0.000083	-0.208084
H64	H	1.797008	-0.000083	-0.278324
H65	H	1.736718	0.053393	-0.158359
N66	N	0.877989	-0.000094	-0.056359
H67	H	0.782927	-0.000099	-0.041487
H68	H	0.911035	0.053382	-0.109701
H69	H	1.302866	-0.378536	0.366872
N70	N	1.631576	-0.390530	0.038471
H71	H	1.688436	-0.347987	-0.018322
H72	H	1.684646	-0.428178	0.089968
N73	N	1.293824	-0.201784	0.375871
H74	H	1.236983	-0.244326	0.432686
H75	H	1.345222	-0.164093	0.428994
N76	N	1.719015	-0.000059	-0.480416
H77	H	1.793038	-0.000072	-0.427888
H78	H	1.718492	-0.053536	-0.531359
