data_functionalizedCrystal
_audit_creation_method	'MofGen! by Chris Wilmer'
_symmetry_space_group_name_H-M	'P1'
_symmetry_Int_Tables_number	1
_symmetry_cell_setting	triclinic
loop_
_symmetry_equiv_pos_as_xyz
  x,y,z
_cell_length_a	14.044220
_cell_length_b	15.944551
_cell_length_c	12.503552
_cell_angle_alpha	86.481026
_cell_angle_beta	93.839891
_cell_angle_gamma	88.343808
loop_
_atom_site_label
_atom_site_type_symbol
_atom_site_fract_x
_atom_site_fract_y
_atom_site_fract_z
O1	O	1.263185	0.198066	0.089211
O2	O	0.987217	0.190757	0.089238
O3	O	1.132736	0.072701	0.089214
O4	O	1.117665	0.316122	0.089235
O5	O	1.121780	0.081588	-0.089427
O6	O	0.976260	0.199643	-0.089403
O7	O	1.252228	0.206952	-0.089430
Cu8	Cu	1.113244	0.204109	-0.105728
Cu9	Cu	1.126201	0.193600	0.105535
O10	O	1.106709	0.325008	-0.089406
C11	C	0.946424	0.192001	-0.000079
C12	C	0.841198	0.182459	-0.000069
C13	C	1.126632	0.045804	-0.000107
C14	C	1.124756	-0.047583	-0.000107
C15	C	0.648534	0.165017	-0.000092
C16	C	0.590906	0.232688	-0.000091
C17	C	0.483701	0.222983	-0.000104
C18	C	0.755749	0.174721	-0.000079
C19	C	1.030073	-0.269530	-0.000083
C20	C	1.068639	-0.322874	-0.088168
C21	C	1.121363	-0.218563	-0.000099
C22	C	1.079463	-0.331617	0.087958
C23	C	1.118079	-0.383722	-0.000086
C24	C	1.159950	-0.270673	-0.088256
C25	C	1.170766	-0.279414	0.087949
C26	C	1.209396	-0.332734	-0.000158
C27	C	1.123252	-0.123419	-0.000107
C28	C	1.116197	-0.478865	-0.000085
C29	C	1.293021	0.205708	-0.000111
C30	C	1.398247	0.215249	-0.000114
C31	C	1.112813	0.351905	-0.000083
C32	C	1.114689	0.445291	-0.000076
N33	N	1.104137	0.211500	-0.254319
C34	C	1.148707	0.175327	-0.526760
C35	C	1.090749	0.222374	-0.473426
C36	C	1.098200	0.216322	-0.351504
C37	C	1.141257	0.181377	-0.648693
N38	N	1.135315	0.186203	0.254127
H39	H	0.617360	0.099799	-0.000104
C40	C	0.874535	-0.253921	-0.092537
C41	C	0.927778	-0.232212	-0.000187
H42	H	0.811386	-0.230875	-0.092606
H43	H	0.872605	-0.313386	-0.093168
H44	H	0.903500	-0.232210	-0.154470
H45	H	0.898816	-0.253928	0.061746
H46	H	0.929703	-0.172734	0.000453
H47	H	1.213912	-0.260099	0.162414
H48	H	1.203918	0.130508	-0.480858
H49	H	1.025460	-0.342169	-0.162629
C50	C	1.023168	0.277256	-0.645927
C51	C	1.016216	0.282891	-0.535390
H52	H	0.977161	0.314622	-0.684182
H53	H	1.011718	0.221332	-0.664292
H54	H	1.085339	0.292008	-0.664275
H55	H	0.954047	0.268134	-0.517041
H56	H	1.027659	0.338828	-0.517018
C57	C	1.286826	-0.190608	-0.157866
C58	C	1.205855	-0.234787	-0.188901
H59	H	1.315158	-0.168449	-0.220001
H60	H	1.331419	-0.227543	-0.116710
H61	H	1.268807	-0.145862	-0.115852
H62	H	1.223875	-0.279537	-0.230909
H63	H	1.161253	-0.197850	-0.230075
C64	C	0.732585	0.313436	-0.000012
C65	C	0.632986	0.320738	-0.000040
H66	H	0.758565	0.367792	0.000036
H67	H	0.749567	0.286910	-0.062317
H68	H	0.757169	0.280665	0.062275
H69	H	0.608402	0.353505	-0.062332
H70	H	0.615996	0.347276	0.062272
C71	C	1.365510	-0.346795	0.091123
C72	C	1.311785	-0.369806	-0.000231
H73	H	1.428723	-0.369670	0.091068
H74	H	1.337086	-0.367856	0.153725
H75	H	1.367168	-0.287251	0.090519
H76	H	1.310121	-0.429350	0.000377
H77	H	1.340217	-0.348749	-0.062850
C78	C	0.939597	-0.335576	0.188318
C79	C	1.033490	-0.367635	0.188490
H80	H	0.911216	-0.357807	0.250383
H81	H	0.903958	-0.351152	0.125784
H82	H	0.939945	-0.276026	0.188687
H83	H	1.033142	-0.427185	0.188113
H84	H	1.069138	-0.352065	0.251040
