data_functionalizedCrystal
_audit_creation_method	'MofGen! by Chris Wilmer'
_symmetry_space_group_name_H-M	'P1'
_symmetry_Int_Tables_number	1
_symmetry_cell_setting	triclinic
loop_
_symmetry_equiv_pos_as_xyz
  x,y,z
_cell_length_a	17.699077
_cell_length_b	23.532407
_cell_length_c	16.776229
_cell_angle_alpha	89.988688
_cell_angle_beta	89.993415
_cell_angle_gamma	83.064627
loop_
_atom_site_label
_atom_site_type_symbol
_atom_site_fract_x
_atom_site_fract_y
_atom_site_fract_z
O1	O	1.003716	0.072004	-0.066286
O2	O	0.783289	0.081377	-0.066291
O3	O	0.900150	-0.006222	-0.066274
O4	O	0.886856	0.159603	-0.066303
O5	O	0.900134	-0.006228	0.066303
O6	O	0.783274	0.081372	0.066286
O7	O	1.003701	0.071998	0.066291
Zn8	Zn	0.893485	0.076684	0.087338
Zn9	Zn	0.893505	0.076691	-0.087338
O10	O	0.886840	0.159598	0.066273
C11	C	0.755086	0.081039	-0.000003
C12	C	0.671073	0.080033	-0.000004
C13	C	0.631600	0.079556	0.072264
C14	C	0.552662	0.078602	0.072265
C15	C	0.513198	0.078129	-0.000003
C16	C	0.552678	0.078604	-0.072277
C17	C	0.631615	0.079554	-0.072277
C18	C	0.234334	0.074772	-0.072278
C19	C	0.155391	0.073823	-0.072272
C20	C	0.155381	0.073820	0.072265
C21	C	0.234318	0.074770	0.072264
C22	C	0.273791	0.075242	-0.000009
C23	C	0.359384	0.076275	-0.000009
C24	C	0.427606	0.077099	-0.000004
C25	C	0.899803	-0.027442	0.000017
C26	C	0.898786	-0.090662	0.000023
C27	C	0.961557	-0.489586	-0.000019
C28	C	0.960612	-0.548989	-0.000025
O29	O	1.018802	-0.585567	-0.000054
N30	N	0.891138	-0.571813	-0.000026
C31	C	0.822606	-0.535231	-0.000030
O32	O	0.763427	-0.560100	-0.000032
C33	C	0.823552	-0.475830	-0.000029
C34	C	0.893030	-0.453009	-0.000020
C35	C	1.031029	-0.466764	-0.000011
C36	C	1.031975	-0.407365	-0.000004
C37	C	0.963448	-0.370788	-0.000004
C38	C	0.893975	-0.393610	-0.000012
C39	C	0.755021	-0.439249	-0.000038
C40	C	0.755973	-0.379844	-0.000038
C41	C	0.825451	-0.357023	-0.000029
C42	C	0.826393	-0.297634	-0.000006
N43	N	0.895867	-0.274809	-0.000005
C44	C	0.964394	-0.311386	-0.000004
C45	C	0.820624	-0.659980	-0.000032
C46	C	0.819677	-0.719380	-0.000026
C47	C	0.957683	-0.733133	-0.000024
C48	C	0.958629	-0.673732	-0.000023
C49	C	0.890097	-0.637155	-0.000031
C50	C	0.966374	-0.186644	0.000013
C51	C	0.967313	-0.127239	0.000023
C52	C	0.829307	-0.113491	0.000017
C53	C	0.828368	-0.172891	0.000010
C54	C	0.896907	-0.209466	0.000005
O55	O	0.768234	-0.261021	0.000019
O56	O	1.023563	-0.286509	-0.000012
C57	C	1.031904	0.072336	0.000001
C58	C	1.115917	0.073342	-0.000003
C59	C	0.887187	0.180817	-0.000019
C60	C	0.888204	0.244037	-0.000030
N61	N	0.893477	0.076679	0.206549
N62	N	0.893519	0.076692	-0.206549
C63	C	0.945238	0.037906	0.248274
C64	C	0.945242	0.037905	0.331726
C65	C	0.893488	0.076681	0.373452
C66	C	0.841721	0.115456	0.331721
C67	C	0.841714	0.115454	0.248270
C68	C	0.841748	0.115467	0.668268
C69	C	0.841761	0.115468	0.751725
C70	C	0.945277	0.037919	0.751724
C71	C	0.945269	0.037917	0.668273
C72	C	0.893500	0.076689	0.626550
C73	C	0.893495	0.076689	0.536061
C74	C	0.893496	0.076685	0.463939
H75	H	1.023892	-0.108662	0.000033
H76	H	0.663725	0.079946	0.131113
O77	O	0.514207	0.078106	0.142396
C78	C	0.392593	0.076653	0.206459
C79	C	0.436050	0.077207	0.126977
H80	H	0.329393	0.075939	0.194021
H81	H	0.415295	0.036986	0.242108
H82	H	0.400920	0.116668	0.242098
H83	H	0.427742	0.037219	0.091274
H84	H	0.413339	0.116900	0.091388
H85	H	0.799598	0.147039	0.634304
H86	H	0.987415	0.006344	0.634302
H87	H	0.799614	0.147045	0.785697
O88	O	0.272540	0.075202	0.142537
C89	C	0.264192	0.075128	0.285903
C90	C	0.220816	0.074626	0.206376
H91	H	0.222389	0.074674	0.337538
H92	H	0.308358	0.035722	0.289576
H93	H	0.293941	0.115403	0.289466
H94	H	0.191020	0.034377	0.202760
H95	H	0.176692	0.114059	0.202737
H96	H	0.987385	0.006333	0.214306
H97	H	0.799578	0.147026	0.365699
O98	O	0.687462	-0.461313	-0.000086
C99	C	0.550682	-0.441377	-0.000059
C100	C	0.627143	-0.416315	-0.000022
H101	H	0.501893	-0.405008	0.000009
H102	H	0.546742	-0.468812	-0.055559
H103	H	0.546809	-0.468871	0.055407
H104	H	0.631066	-0.388795	-0.055451
H105	H	0.631050	-0.388913	0.055514
H106	H	0.123233	0.073432	0.131113
O107	O	1.097653	-0.502232	-0.000114
C108	C	1.215316	-0.532161	-0.068805
C109	C	1.139895	-0.491959	-0.068787
H110	H	1.249483	-0.523878	-0.124330
H111	H	1.249566	-0.523866	-0.013356
H112	H	1.202705	-0.578537	-0.068766
H113	H	1.152438	-0.445569	-0.068855
H114	H	1.105668	-0.500303	-0.124232
H115	H	0.987389	0.006333	0.365698
H116	H	0.764813	-0.630201	-0.000031
H117	H	0.987428	0.006347	0.785704
H118	H	0.123262	0.073437	-0.131125
O119	O	1.033021	-0.222086	0.000046
C120	C	1.170002	-0.229442	0.000012
C121	C	1.094582	-0.189239	-0.000014
H122	H	1.219794	-0.202902	-0.000053
H123	H	1.173059	-0.257596	0.055506
H124	H	1.172984	-0.257599	-0.055460
H125	H	1.091550	-0.161047	0.055421
H126	H	1.091557	-0.161125	-0.055545
O127	O	0.689419	-0.344290	-0.000184
C128	C	0.610420	-0.269207	-0.068843
C129	C	0.685810	-0.309446	-0.068789
H130	H	0.607485	-0.241017	-0.124296
H131	H	0.560576	-0.295698	-0.068901
H132	H	0.607411	-0.241089	-0.013332
H133	H	0.688893	-0.337573	-0.124290
H134	H	0.735619	-0.282922	-0.068689
H135	H	0.266463	0.075154	-0.131127
O136	O	0.791406	0.153174	0.207860
C137	C	0.688699	0.230073	0.216663
C138	C	0.745648	0.187395	0.262525
H139	H	0.651678	0.257743	0.260840
H140	H	0.721115	0.258531	0.177597
H141	H	0.651109	0.205507	0.177590
H142	H	0.783252	0.211914	0.301642
H143	H	0.713185	0.158937	0.301541
H144	H	0.771793	-0.191472	0.000025
O145	O	1.099420	-0.385135	-0.000112
C146	C	1.180621	-0.326087	-0.068829
C147	C	1.104200	-0.351207	-0.068791
H148	H	1.184518	-0.298661	-0.124358
H149	H	1.184533	-0.298592	-0.013385
H150	H	1.229414	-0.362452	-0.068794
H151	H	1.055363	-0.314879	-0.068854
H152	H	1.100354	-0.378718	-0.124230
H153	H	0.520541	0.078215	-0.131119
H154	H	0.663753	0.079944	-0.131126
H155	H	1.015204	-0.655155	-0.000017
H156	H	1.013481	-0.762926	-0.000026
H157	H	0.773514	-0.083700	0.000019
O158	O	0.752119	-0.741450	-0.000062
C159	C	0.615338	-0.721523	-0.000017
C160	C	0.691795	-0.696456	0.000011
H161	H	0.566545	-0.685158	0.000059
H162	H	0.611394	-0.748958	-0.055516
H163	H	0.611476	-0.749020	0.055450
H164	H	0.695709	-0.668934	-0.055418
H165	H	0.695706	-0.669055	0.055547
