data_functionalizedCrystal
_audit_creation_method	'MofGen! by Chris Wilmer'
_symmetry_space_group_name_H-M	'P1'
_symmetry_Int_Tables_number	1
_symmetry_cell_setting	triclinic
loop_
_symmetry_equiv_pos_as_xyz
  x,y,z
_cell_length_a	12.759401
_cell_length_b	12.759399
_cell_length_c	12.759393
_cell_angle_alpha	90.028363
_cell_angle_beta	89.980387
_cell_angle_gamma	89.984238
loop_
_atom_site_label
_atom_site_type_symbol
_atom_site_fract_x
_atom_site_fract_y
_atom_site_fract_z
Zn1	Zn	1.606249	0.418198	-0.594036
Zn2	Zn	2.106249	0.918198	-0.094036
Zn3	Zn	1.606141	0.593917	-0.418366
Zn4	Zn	2.106141	1.093917	0.081634
Zn5	Zn	1.430551	0.418253	-0.418372
Zn6	Zn	1.930551	0.918253	0.081628
Zn7	Zn	1.430537	0.593836	-0.594004
Zn8	Zn	1.930537	1.093836	-0.094004
O9	O	1.518370	0.506051	-0.506195
O10	O	2.018370	1.006051	-0.006195
O11	O	1.753256	0.441518	-0.570744
O12	O	2.253256	0.941518	-0.070744
O13	O	1.582809	0.570671	-0.271346
O14	O	2.082809	1.070671	0.228654
O15	O	1.453909	0.271225	-0.441690
O16	O	1.953909	0.771225	0.058310
O17	O	1.753176	0.570618	-0.441680
O18	O	2.253176	1.070618	0.058320
O19	O	1.582994	0.271184	-0.570750
O20	O	2.082994	0.771184	-0.070750
O21	O	1.453804	0.441612	-0.271350
O22	O	1.953804	0.941612	0.228650
O23	O	1.283528	0.441534	-0.441659
O24	O	1.783528	0.941534	0.058341
O25	O	1.453885	0.570480	-0.741029
O26	O	1.953885	1.070480	-0.241029
O27	O	1.283518	0.570534	-0.570695
O28	O	1.783518	1.070534	-0.070695
O29	O	1.582980	0.441440	-0.741053
O30	O	2.082980	0.941440	-0.241053
O31	O	1.582796	0.740927	-0.441649
O32	O	2.082796	1.240927	0.058351
O33	O	1.453781	0.740868	-0.570689
O34	O	1.953781	1.240868	-0.070689
C35	C	1.245402	0.506032	-0.506175
C36	C	1.745402	1.006032	-0.006175
C37	C	1.128626	0.506049	-0.506191
C38	C	1.628626	1.006049	-0.006191
C39	C	1.518303	0.779018	-0.506188
C40	C	2.018303	1.279018	-0.006188
C41	C	1.518371	0.895795	-0.506220
C42	C	2.018371	1.395795	-0.006220
C43	C	1.073726	0.573164	-0.438896
C44	C	1.573726	1.073164	0.061104
C45	C	0.964002	0.573182	-0.438914
C46	C	1.464002	1.073182	0.061086
C47	C	0.964087	0.438962	-0.573526
C48	C	1.464087	0.938962	-0.073526
C49	C	1.073809	0.438950	-0.573512
C50	C	1.573809	0.938950	-0.073512
C51	C	1.128543	0.640263	-0.371575
C52	C	1.628543	1.140263	0.128425
C53	C	1.073643	0.707382	-0.304273
C54	C	1.573643	1.207382	0.195727
C55	C	0.963919	0.707400	-0.304292
C56	C	1.463919	1.207400	0.195708
C57	C	0.909094	0.640299	-0.371612
C58	C	1.409094	1.140299	0.128388
C59	C	1.585623	0.950653	-0.439106
C60	C	2.085623	1.450653	0.060894
C61	C	1.585686	1.060377	-0.439145
C62	C	2.085686	1.560377	0.060855
C63	C	1.451236	1.060375	-0.573414
C64	C	1.951236	1.560375	-0.073414
C65	C	1.451179	0.950653	-0.573380
C66	C	1.951179	1.450653	-0.073380
C67	C	1.652815	0.895795	-0.371946
C68	C	2.152815	1.395795	0.128054
C69	C	1.720072	0.950653	-0.304826
C70	C	2.220072	1.450653	0.195174
C71	C	1.720135	1.060377	-0.304864
C72	C	2.220135	1.560377	0.195136
C73	C	1.652941	1.115243	-0.372023
C74	C	2.152941	1.615243	0.127977
C75	C	1.792403	0.506071	-0.506215
C76	C	2.292403	1.006071	-0.006215
C77	C	1.909180	0.506079	-0.506223
C78	C	2.409180	1.006079	-0.006223
C79	C	1.518443	0.505945	-0.780228
C80	C	2.018443	1.005945	-0.280228
C81	C	1.518475	0.505900	-0.897005
C82	C	2.018475	1.005900	-0.397005
C83	C	1.518461	1.232018	-0.506238
C84	C	2.018461	1.732018	-0.006238
C85	C	1.518491	1.115241	-0.506293
C86	C	2.018491	1.615241	-0.006293
C87	C	1.585704	0.438702	-0.951881
C88	C	2.085704	0.938702	-0.451881
C89	C	1.585729	0.438664	-1.061605
C90	C	2.085729	0.938664	-0.561605
C91	C	1.451293	0.573031	-1.061567
C92	C	1.951293	1.073031	-0.561567
C93	C	1.451263	0.573063	-0.951845
C94	C	1.951263	1.073063	-0.451845
C95	C	1.652915	0.371539	-0.897040
C96	C	2.152915	0.871539	-0.397040
C97	C	1.720150	0.304337	-0.951916
C98	C	2.220150	0.804337	-0.451916
C99	C	1.720175	0.304299	-1.061640
C100	C	2.220175	0.804299	-0.561640
C101	C	1.652965	0.371463	-1.116489
C102	C	2.152965	0.871463	-0.616489
C103	C	1.518357	0.506081	-0.233227
C104	C	2.018357	1.006081	0.266773
C105	C	1.518529	0.505830	-0.116451
C106	C	2.018529	1.005830	0.383549
H107	H	1.217885	0.640254	-0.371551
H108	H	1.717885	1.140254	0.128449
H109	H	1.652769	0.806452	-0.371904
H110	H	2.152769	1.306452	0.128096
H111	H	1.774864	0.249647	-0.907252
H112	H	2.274864	0.749647	-0.407252
H113	H	1.118288	0.762021	-0.249471
H114	H	1.618288	1.262021	0.250529
H115	H	1.774785	0.905975	-0.250153
H116	H	2.274785	1.405975	0.249847
H117	H	1.774906	1.105039	-0.250219
H118	H	2.274906	1.605039	0.249781
H119	H	0.919222	0.762059	-0.249499
H120	H	1.419222	1.262059	0.250501
Cl121	Cl	0.771154	0.640329	-0.371636
Cl122	Cl	1.271154	1.140329	0.128364
H123	H	1.774914	0.249572	-1.106318
H124	H	2.274914	0.749572	-0.606318
Cl125	Cl	1.366811	0.657464	-1.130520
Cl126	Cl	1.866811	1.157464	-0.630520
H127	H	1.396529	1.105056	-0.628091
H128	H	1.896529	1.605056	-0.128091
Cl129	Cl	1.366634	0.881684	-0.657756
Cl130	Cl	1.866634	1.381684	-0.157756
H131	H	0.919441	0.384330	-0.628334
H132	H	1.419441	0.884330	-0.128334
H133	H	1.396503	0.627765	-0.907164
H134	H	1.896503	1.127765	-0.407164
Cl135	Cl	1.652589	1.253182	-0.371634
Cl136	Cl	2.152589	1.753182	0.128366
H137	H	1.118510	0.384297	-0.628308
H138	H	1.618510	0.884297	-0.128308
Cl139	Cl	1.652892	0.371586	-0.759102
Cl140	Cl	2.152892	0.871586	-0.259102
H141	H	1.652979	0.371415	-1.205833
H142	H	2.152979	0.871415	-0.705833
