data_functionalizedCrystal
_audit_creation_method	'MofGen! by Chris Wilmer'
_symmetry_space_group_name_H-M	'P1'
_symmetry_Int_Tables_number	1
_symmetry_cell_setting	triclinic
loop_
_symmetry_equiv_pos_as_xyz
  x,y,z
_cell_length_a	15.944551
_cell_length_b	11.804365
_cell_length_c	13.339070
_cell_angle_alpha	105.112168
_cell_angle_beta	99.564016
_cell_angle_gamma	78.155318
loop_
_atom_site_label
_atom_site_type_symbol
_atom_site_fract_x
_atom_site_fract_y
_atom_site_fract_z
O1	O	1.157119	-0.098894	0.110075
O2	O	1.657119	0.401106	0.610075
O3	O	0.916321	-0.098923	0.126155
O4	O	1.416321	0.401077	0.626155
O5	O	1.009083	-0.098908	-0.029150
O6	O	1.509083	0.401092	0.470850
O7	O	1.064356	-0.098909	0.265381
O8	O	1.564356	0.401091	0.765381
O9	O	0.984653	0.099144	0.011695
O10	O	1.484653	0.599144	0.511695
O11	O	0.891890	0.099129	0.167000
O12	O	1.391890	0.599129	0.667000
O13	O	1.132688	0.099158	0.150920
O14	O	1.632688	0.599158	0.650920
Cu15	Cu	1.010058	0.117227	0.162690
Cu16	Cu	1.510058	0.617227	0.662690
Cu17	Cu	1.038950	-0.116992	0.114386
Cu18	Cu	1.538950	0.383008	0.614386
O19	O	1.039925	0.099143	0.306226
O20	O	1.539925	0.599143	0.806226
C21	C	0.872656	0.000099	0.145909
C22	C	1.372656	0.500099	0.645909
C23	C	0.778945	0.000088	0.143905
C24	C	1.278945	0.500088	0.643905
N25	N	0.989743	0.281964	0.196663
N26	N	1.489743	0.781964	0.696663
N27	N	1.059270	-0.281730	0.080404
N28	N	1.559270	0.218270	0.580404
C29	C	0.540539	0.000111	0.042857
C30	C	1.040539	0.500111	0.542857
C31	C	0.502499	-0.097539	0.069644
C32	C	1.002499	0.402461	0.569644
C33	C	0.607374	0.000102	0.140286
C34	C	1.107374	0.500102	0.640286
C35	C	0.478440	0.097725	0.109937
C36	C	0.978440	0.597725	0.609937
C37	C	0.441642	0.000121	0.136784
C38	C	0.941642	0.500121	0.636784
C39	C	0.570578	-0.097629	0.167083
C40	C	1.070578	0.402371	0.667083
C41	C	0.546511	0.097723	0.207380
C42	C	1.046511	0.597723	0.707380
C43	C	0.508508	0.000049	0.234233
C44	C	1.008508	0.500049	0.734233
C45	C	0.702847	0.000090	0.142300
C46	C	1.202847	0.500090	0.642300
C47	C	0.346172	0.000124	0.134776
C48	C	0.846172	0.500124	0.634776
C49	C	1.176353	0.000133	0.131166
C50	C	1.676353	0.500133	0.631166
C51	C	1.270065	0.000136	0.133169
C52	C	1.770065	0.500136	0.633169
C53	C	0.987532	0.000115	-0.046418
C54	C	1.487532	0.500115	0.453582
C55	C	0.959703	0.000107	-0.158723
C56	C	1.459703	0.500107	0.341277
C57	C	1.108049	0.655932	-0.001198
C58	C	1.608049	1.155932	0.498802
C59	C	1.123416	0.531273	-0.026903
C60	C	1.623416	1.031273	0.473097
C61	C	1.089999	0.468939	0.028986
C62	C	1.589999	0.968939	0.528986
C63	C	1.041213	0.531278	0.110585
C64	C	1.541213	1.031278	0.610585
C65	C	1.025851	0.655949	0.136298
C66	C	1.525851	1.155949	0.636298
C67	C	1.007800	0.468957	0.166482
C68	C	1.507800	0.968957	0.666482
C69	C	0.959015	0.531295	0.248082
C70	C	1.459015	1.031295	0.748082
C71	C	0.943655	0.655954	0.273790
C72	C	1.443655	1.155954	0.773790
C73	C	0.977072	0.718288	0.217901
C74	C	1.477072	1.218288	0.717901
C75	C	1.023163	0.344285	0.140769
C76	C	1.523163	0.844285	0.640769
C77	C	0.940964	0.344303	0.278266
C78	C	1.440964	0.844303	0.778266
C79	C	0.925598	0.468962	0.303971
C80	C	1.425598	0.968962	0.803971
C81	C	1.176092	0.000133	-0.523496
C82	C	1.676092	0.500133	-0.023496
C83	C	1.202241	0.000148	-0.417979
C84	C	1.702241	0.500148	0.082021
C85	C	1.141609	0.000137	-0.353160
C86	C	1.641609	0.500137	0.146840
C87	C	1.054823	0.000113	-0.393868
C88	C	1.554823	0.500113	0.106132
C89	C	1.028671	0.000108	-0.499394
C90	C	1.528671	0.500108	0.000606
C91	C	0.994187	0.000111	-0.329058
C92	C	1.494187	0.500111	0.170942
C93	C	0.907401	0.000087	-0.369767
C94	C	1.407401	0.500087	0.130233
C95	C	0.881254	0.000082	-0.475283
C96	C	1.381254	0.500082	0.024717
C97	C	0.941886	0.000092	-0.540101
C98	C	1.441886	0.500092	-0.040101
C99	C	1.020339	0.000116	-0.223532
C100	C	1.520339	0.500116	0.276468
C101	C	0.872918	0.000091	-0.199430
C102	C	1.372918	0.500091	0.300570
C103	C	0.846769	0.000077	-0.304948
C104	C	1.346769	0.500077	0.195052
C105	C	1.061477	0.000117	0.323493
C106	C	1.561477	0.500117	0.823493
C107	C	1.089307	0.000118	0.435797
C108	C	1.589307	0.500118	0.935797
H109	H	0.555046	-0.000009	-0.038028
H110	H	1.055046	0.499991	0.461972
H111	H	0.494216	-0.000006	0.315165
H112	H	0.994216	0.499994	0.815165
Br113	Br	0.877462	0.740560	0.384546
Br114	Br	1.377462	1.240560	0.884546
Br115	Br	0.411978	0.235319	0.069602
Br116	Br	0.911978	0.735319	0.569602
H117	H	1.225448	0.000152	-0.576278
H118	H	1.725448	0.500152	-0.076278
H119	H	1.162904	0.000149	-0.267243
H120	H	1.662904	0.500149	0.232757
Br121	Br	0.579085	0.235329	0.304390
Br122	Br	1.079085	0.735329	0.804390
Br123	Br	0.636869	-0.235378	0.207310
Br124	Br	1.136869	0.264622	0.707310
Br125	Br	0.906420	-0.000089	-0.683344
Br126	Br	1.406420	0.499911	-0.183344
H127	H	0.776107	0.000058	-0.338108
H128	H	1.276107	0.500058	0.161892
H129	H	1.135259	0.706692	-0.046691
H130	H	1.635259	1.206692	0.453309
Br131	Br	1.089370	0.259699	0.030033
Br132	Br	1.589370	0.759699	0.530033
H133	H	0.810586	0.000071	-0.508422
H134	H	1.310586	0.500071	-0.008422
Br135	Br	0.895617	0.259717	0.354127
Br136	Br	1.395617	0.759717	0.854127
H137	H	0.823545	0.000088	-0.146653
H138	H	1.323545	0.500088	0.353347
Br139	Br	1.189623	0.446672	-0.137636
Br140	Br	1.689623	0.946672	0.362364
Br141	Br	0.956209	0.887476	0.252783
Br142	Br	1.456209	1.387476	0.752783
Br143	Br	1.138115	0.000153	-0.168297
Br144	Br	1.638115	0.500153	0.331703
H145	H	0.885876	0.519733	0.370411
H146	H	1.385876	1.019733	0.870411
Br147	Br	0.469955	-0.235144	-0.027413
Br148	Br	0.969955	0.264856	0.472587
H149	H	1.272901	0.000169	-0.384841
H150	H	1.772901	0.500169	0.115159
H151	H	1.102512	0.367436	0.008053
H152	H	1.602512	0.867436	0.508053
