data_functionalizedCrystal
_audit_creation_method	'MofGen! by Chris Wilmer'
_symmetry_space_group_name_H-M	'P1'
_symmetry_Int_Tables_number	1
_symmetry_cell_setting	triclinic
loop_
_symmetry_equiv_pos_as_xyz
  x,y,z
_cell_length_a	12.827893
_cell_length_b	12.827893
_cell_length_c	12.827893
_cell_angle_alpha	90.002525
_cell_angle_beta	89.996214
_cell_angle_gamma	89.996520
loop_
_atom_site_label
_atom_site_type_symbol
_atom_site_fract_x
_atom_site_fract_y
_atom_site_fract_z
Zn1	Zn	-1.597596	-0.416216	0.590883
Zn2	Zn	-1.097596	0.083784	1.090883
Zn3	Zn	-1.597574	-0.590924	0.416158
Zn4	Zn	-1.097574	-0.090924	0.916158
Zn5	Zn	-1.422885	-0.416198	0.416156
Zn6	Zn	-0.922885	0.083802	0.916156
Zn7	Zn	-1.422859	-0.590915	0.590857
Zn8	Zn	-0.922859	-0.090915	1.090857
O9	O	-1.510228	-0.503563	0.503513
O10	O	-1.010228	-0.003563	1.003513
O11	O	-1.743829	-0.439402	0.567716
O12	O	-1.243829	0.060598	1.067716
O13	O	-1.574402	-0.567743	0.269921
O14	O	-1.074402	-0.067743	0.769921
O15	O	-1.446081	-0.269964	0.439344
O16	O	-0.946081	0.230036	0.939344
O17	O	-1.743813	-0.567760	0.439346
O18	O	-1.243813	-0.067760	0.939346
O19	O	-1.574440	-0.269977	0.567715
O20	O	-1.074440	0.230023	1.067715
O21	O	-1.446059	-0.439372	0.269921
O22	O	-0.946059	0.060628	0.769921
O23	O	-1.276645	-0.439363	0.439320
O24	O	-0.776645	0.060637	0.939320
O25	O	-1.446037	-0.567744	0.737097
O26	O	-0.946037	-0.067744	1.237097
O27	O	-1.276626	-0.567727	0.567672
O28	O	-0.776626	-0.067727	1.067672
O29	O	-1.574416	-0.439393	0.737115
O30	O	-1.074416	0.060607	1.237115
O31	O	-1.574377	-0.737159	0.439322
O32	O	-1.074377	-0.237159	0.939322
O33	O	-1.446015	-0.737152	0.567673
O34	O	-0.946015	-0.237152	1.067673
C35	C	-1.238719	-0.503543	0.503494
C36	C	-0.738719	-0.003543	1.003494
C37	C	-1.122565	-0.503560	0.503510
C38	C	-0.622565	-0.003560	1.003510
C39	C	-1.510219	-0.775073	0.503517
C40	C	-1.010219	-0.275073	1.003517
C41	C	-1.510311	-0.891226	0.503554
C42	C	-1.010311	-0.391226	1.003554
C43	C	-1.782799	-0.503584	0.503534
C44	C	-1.282799	-0.003584	1.003534
C45	C	-1.898952	-0.503593	0.503543
C46	C	-1.398952	-0.003593	1.003543
C47	C	-1.510226	-0.503570	0.776084
C48	C	-1.010226	-0.003570	1.276084
C49	C	-1.510225	-0.503573	0.892237
C50	C	-1.010225	-0.003573	1.392237
C51	C	-1.070799	-0.567177	0.566925
C52	C	-0.570799	-0.067177	1.066925
C53	C	-0.950749	-0.567196	0.566943
C54	C	-0.450749	-0.067196	1.066943
C55	C	-1.510266	-0.230993	0.503532
C56	C	-1.010266	0.269007	1.003532
C57	C	-1.510282	-0.114840	0.503540
C58	C	-1.010282	0.385160	1.003540
C59	C	-1.446779	-0.063049	0.440029
C60	C	-0.946779	0.436951	0.940029
C61	C	-1.446794	0.057002	0.440036
C62	C	-0.946794	0.557002	0.940036
C63	C	-1.573743	-0.440069	0.944031
C64	C	-1.073743	0.059931	1.444031
C65	C	-1.573744	-0.440070	1.064081
C66	C	-1.073744	0.059930	1.564081
C67	C	-1.510223	-0.503580	1.232004
C68	C	-1.010223	-0.003580	1.732004
C69	C	-1.510224	-0.503577	1.115850
C70	C	-1.010224	-0.003577	1.615850
H71	H	-1.115357	-0.621625	0.621206
H72	H	-0.615357	-0.121625	1.121206
H73	H	-1.392431	0.101540	0.385656
H74	H	-0.892431	0.601540	0.885656
H75	H	-0.906231	-0.621664	0.621232
H76	H	-0.406231	-0.121664	1.121232
H77	H	-1.628120	-0.385696	0.899496
H78	H	-1.128120	0.114304	1.399496
H79	H	-1.078008	-0.449104	0.449236
H80	H	-0.578008	0.050896	0.949236
H81	H	-1.564685	0.064241	0.557928
H82	H	-1.064685	0.564241	1.057928
H83	H	-1.564657	-0.070305	0.557924
H84	H	-1.064657	0.429695	1.057924
H85	H	-1.628128	-0.385705	1.108622
H86	H	-1.128128	0.114295	1.608622
H87	H	-1.455845	-0.557952	1.071316
H88	H	-0.955845	-0.057952	1.571316
H89	H	-1.455838	-0.557935	0.936771
H90	H	-0.955838	-0.057935	1.436771
H91	H	-0.943463	-0.449128	0.449245
H92	H	-0.443463	0.050872	0.949245
H93	H	-1.392398	-0.107585	0.385653
H94	H	-0.892398	0.392415	0.885653
