data_functionalizedCrystal
_audit_creation_method	'MofGen! by Chris Wilmer'
_symmetry_space_group_name_H-M	'P1'
_symmetry_Int_Tables_number	1
_symmetry_cell_setting	triclinic
loop_
_symmetry_equiv_pos_as_xyz
  x,y,z
_cell_length_a	27.731994
_cell_length_b	26.210047
_cell_length_c	19.288874
_cell_angle_alpha	89.996031
_cell_angle_beta	82.880380
_cell_angle_gamma	90.002872
loop_
_atom_site_label
_atom_site_type_symbol
_atom_site_fract_x
_atom_site_fract_y
_atom_site_fract_z
O1	O	0.641199	0.042357	0.082459
O2	O	1.141199	0.542357	0.582459
O3	O	0.500441	0.042374	0.095065
O4	O	1.000441	0.542374	0.595065
O5	O	0.574885	0.042361	-0.012395
O6	O	1.074885	0.542361	0.487605
O7	O	0.566755	0.042370	0.189918
O8	O	1.066755	0.542370	0.689918
O9	O	0.574870	-0.042497	-0.012378
O10	O	1.074870	0.457503	0.487622
O11	O	0.500426	-0.042484	0.095081
O12	O	1.000426	0.457516	0.595081
O13	O	0.641185	-0.042501	0.082475
O14	O	1.141185	0.457499	0.582475
Cu15	Cu	0.570804	-0.050241	0.088780
Cu16	Cu	1.070804	0.449759	0.588780
Cu17	Cu	0.570821	0.050114	0.088760
Cu18	Cu	1.070821	0.550114	0.588760
O19	O	0.566741	-0.042488	0.189935
O20	O	1.066741	0.457512	0.689935
C21	C	0.482425	-0.000053	0.094814
C22	C	0.982425	0.499947	0.594814
C23	C	0.428767	-0.000046	0.094035
C24	C	0.928767	0.499954	0.594035
N25	N	0.570796	-0.120825	0.088793
N26	N	1.070796	0.379175	0.588793
C27	C	0.096025	-0.046323	0.089136
C28	C	0.596025	0.453677	0.589136
C29	C	-0.105642	-0.046328	0.086173
C30	C	0.394358	0.453672	0.586173
O31	O	-0.131722	-0.085667	0.085768
O32	O	0.368278	0.414333	0.585768
N33	N	-0.130850	-0.000072	0.085796
N34	N	0.369150	0.499928	0.585796
C35	C	-0.105638	0.046188	0.086155
C36	C	0.394362	0.546188	0.586155
O37	O	-0.131705	0.085532	0.085760
O38	O	0.368295	0.585532	0.585760
C39	C	0.096029	0.046194	0.089113
C40	C	0.596029	0.546194	0.589113
C41	C	0.121234	-0.000065	0.089497
C42	C	0.621234	0.499935	0.589497
C43	C	0.121230	-0.092578	0.089519
C44	C	0.621230	0.407422	0.589519
C45	C	0.171644	-0.092576	0.090264
C46	C	0.671644	0.407424	0.590264
C47	C	0.196852	-0.046319	0.090625
C48	C	0.696852	0.453681	0.590625
C49	C	0.171647	-0.000063	0.090241
C50	C	0.671647	0.499937	0.590241
C51	C	0.121241	0.092454	0.089467
C52	C	0.621241	0.592454	0.589467
C53	C	0.171661	0.092451	0.090204
C54	C	0.671661	0.592451	0.590204
C55	C	0.196866	0.046192	0.090589
C56	C	0.696866	0.546192	0.590589
C57	C	0.247269	0.046196	0.091347
C58	C	0.747269	0.546196	0.591347
N59	N	0.272477	-0.000060	0.091724
N60	N	0.772477	0.499940	0.591724
C61	C	0.247269	-0.046317	0.091363
C62	C	0.747269	0.453683	0.591363
C63	C	-0.211516	0.046182	0.084604
C64	C	0.288484	0.546182	0.584604
C65	C	-0.261932	0.046181	0.083866
C66	C	0.238068	0.546181	0.583866
C67	C	-0.261933	-0.046336	0.083883
C68	C	0.238067	0.453664	0.583883
C69	C	-0.211516	-0.046334	0.084626
C70	C	0.288484	0.453666	0.584626
C71	C	-0.186308	-0.000074	0.084981
C72	C	0.313692	0.499926	0.584981
C73	C	0.353141	-0.046310	0.092927
C74	C	0.853141	0.453690	0.592927
C75	C	0.403558	-0.046304	0.093674
C76	C	0.903558	0.453696	0.593674
C77	C	0.403555	0.046213	0.093653
C78	C	0.903555	0.546213	0.593653
C79	C	0.353141	0.046207	0.092910
C80	C	0.853141	0.546207	0.592910
C81	C	0.327935	-0.000058	0.092544
C82	C	0.827935	0.499942	0.592544
O83	O	0.273381	0.085514	0.091744
O84	O	0.773381	0.585514	0.591744
O85	O	0.273347	-0.085655	0.091743
O86	O	0.773347	0.414345	0.591743
C87	C	0.045612	-0.046324	0.088392
C88	C	0.545612	0.453676	0.588392
C89	C	0.020407	-0.000069	0.088008
C90	C	0.520407	0.499931	0.588008
C91	C	0.045615	0.046188	0.088369
C92	C	0.545615	0.546188	0.588369
C93	C	-0.030010	-0.000070	0.087270
C94	C	0.469990	0.499930	0.587270
C95	C	-0.055218	-0.046328	0.086909
C96	C	0.444782	0.453672	0.586909
C97	C	-0.030010	-0.092584	0.087286
C98	C	0.469990	0.407416	0.587286
C99	C	0.020403	-0.092582	0.088030
C100	C	0.520403	0.407418	0.588030
C101	C	0.020407	0.092444	0.087992
C102	C	0.520407	0.592444	0.587992
C103	C	-0.030006	0.092438	0.087249
C104	C	0.469994	0.592438	0.587249
C105	C	-0.055215	0.046181	0.086888
C106	C	0.444785	0.546181	0.586888
C107	C	0.603782	-0.473345	0.041188
C108	C	1.103782	0.026655	0.541188
C109	C	0.603793	-0.687003	0.041178
C110	C	1.103793	-0.187003	0.541178
O111	O	0.631820	-0.714630	0.000705
O112	O	1.131820	-0.214630	0.500705
N113	N	0.570824	-0.713719	0.088745
N114	N	1.070824	-0.213719	0.588745
C115	C	0.537848	-0.687016	0.136314
C116	C	1.037848	-0.187016	0.636314
O117	O	0.509803	-0.714642	0.176768
O118	O	1.009803	-0.214642	0.676768
C119	C	0.537836	-0.473359	0.136320
C120	C	1.037836	0.026641	0.636320
C121	C	0.570810	-0.446646	0.088755
C122	C	1.070810	0.053354	0.588755
C123	C	0.636753	-0.446632	-0.006374
C124	C	1.136753	0.053368	0.493626
C125	C	0.636752	-0.393220	-0.006369
C126	C	1.136752	0.106780	0.493631
C127	C	0.603779	-0.366522	0.041199
C128	C	1.103779	0.133478	0.541199
C129	C	0.570808	-0.393234	0.088760
C130	C	1.070808	0.106766	0.588760
C131	C	0.504858	-0.446657	0.183886
C132	C	1.004858	0.053343	0.683886
C133	C	0.504857	-0.393239	0.183882
C134	C	1.004857	0.106761	0.683882
C135	C	0.537831	-0.366527	0.136317
C136	C	1.037831	0.133473	0.636317
C137	C	0.537835	-0.313124	0.136333
C138	C	1.037835	0.186876	0.636333
N139	N	0.570804	-0.286409	0.088766
N140	N	1.070804	0.213591	0.588766
C141	C	0.603776	-0.313107	0.041199
C142	C	1.103776	0.186893	0.541199
C143	C	0.537858	-0.799190	0.136309
C144	C	1.037858	-0.299190	0.636309
C145	C	0.537861	-0.852604	0.136308
C146	C	1.037861	-0.352604	0.636308
C147	C	0.603805	-0.852587	0.041171
C148	C	1.103805	-0.352587	0.541171
C149	C	0.603804	-0.799172	0.041175
C150	C	1.103804	-0.299172	0.541175
C151	C	0.570826	-0.772474	0.088742
C152	C	1.070826	-0.272474	0.588742
C153	C	0.603771	-0.200940	0.041215
C154	C	1.103771	0.299060	0.541215
C155	C	0.603768	-0.147523	0.041226
C156	C	1.103768	0.352477	0.541226
C157	C	0.537823	-0.147545	0.136361
C158	C	1.037823	0.352455	0.636361
C159	C	0.537827	-0.200956	0.136352
C160	C	1.037827	0.299044	0.636352
C161	C	0.570803	-0.227652	0.088773
C162	C	1.070803	0.272348	0.588773
O163	O	0.509819	-0.285465	0.176780
O164	O	1.009819	0.214535	0.676780
O165	O	0.631809	-0.285473	0.000741
O166	O	1.131809	0.214527	0.500741
C167	C	0.603783	-0.526756	0.041182
C168	C	1.103783	-0.026756	0.541182
C169	C	0.570812	-0.553469	0.088744
C170	C	1.070812	-0.053469	0.588744
C171	C	0.537840	-0.526770	0.136311
C172	C	1.037840	-0.026770	0.636311
C173	C	0.570816	-0.606883	0.088744
C174	C	1.070816	-0.106883	0.588744
C175	C	0.603788	-0.633582	0.041176
C176	C	1.103788	-0.133582	0.541176
C177	C	0.636757	-0.606866	-0.006390
C178	C	1.136757	-0.106866	0.493610
C179	C	0.636755	-0.553455	-0.006385
C180	C	1.136755	-0.053455	0.493615
C181	C	0.504871	-0.553486	0.183878
C182	C	1.004871	-0.053486	0.683878
C183	C	0.504876	-0.606897	0.183869
C184	C	1.004876	-0.106897	0.683869
C185	C	0.537848	-0.633596	0.136302
C186	C	1.037848	-0.133596	0.636302
C187	C	0.659200	-0.000073	0.082726
C188	C	1.159200	0.499927	0.582726
C189	C	0.712859	-0.000076	0.083505
C190	C	1.212859	0.499924	0.583505
C191	C	0.574615	-0.000068	-0.038261
C192	C	1.074615	0.499932	0.461739
C193	C	0.573828	-0.000068	-0.115359
C194	C	1.073828	0.499932	0.384641
N195	N	0.570834	0.120698	0.088741
N196	N	1.070834	0.620698	0.588741
C197	C	0.568165	-0.046311	-0.670882
C198	C	1.068165	0.453689	-0.170882
C199	C	0.568900	-0.046313	-0.598439
C200	C	1.068900	0.453687	-0.098439
C201	C	0.569277	-0.000058	-0.562220
C202	C	1.069277	0.499942	-0.062220
C203	C	0.568907	0.046204	-0.598447
C204	C	1.068907	0.546204	-0.098447
C205	C	0.568168	0.046205	-0.670887
C206	C	1.068168	0.546205	-0.170887
C207	C	0.598767	0.035375	-0.453088
C208	C	1.098767	0.535375	0.046912
C209	C	0.599509	0.035372	-0.380649
C210	C	1.099509	0.535372	0.119351
C211	C	0.571556	-0.000061	-0.338788
C212	C	1.071556	0.499939	0.161212
C213	C	0.542867	-0.035498	-0.369377
C214	C	1.042867	0.464502	0.130623
C215	C	0.542127	-0.035497	-0.441817
C216	C	1.042127	0.464503	0.058183
C217	C	0.570079	-0.000054	-0.483670
C218	C	1.070079	0.499946	0.016330
C219	C	0.572719	-0.046323	-0.224019
C220	C	1.072719	0.453677	0.275981
C221	C	0.573451	-0.046324	-0.151574
C222	C	1.073451	0.453676	0.348426
C223	C	0.573464	0.046195	-0.151583
C224	C	1.073464	0.546195	0.348417
C225	C	0.572727	0.046195	-0.224026
C226	C	1.072727	0.546195	0.275974
C227	C	0.572357	-0.000066	-0.260240
C228	C	1.072357	0.499934	0.239760
C229	C	0.567010	-0.000058	0.215801
C230	C	1.067010	0.499942	0.715801
C231	C	0.567798	-0.000055	0.292899
C232	C	1.067798	0.499945	0.792899
H233	H	0.332624	-0.083984	0.092635
H234	H	0.832624	0.416016	0.592635
H235	H	0.478025	-0.628643	0.222609
H236	H	0.978025	-0.128643	0.722609
N237	N	0.569300	0.093448	-0.561443
N238	N	1.069300	0.593448	-0.061443
N239	N	0.603781	0.103764	-0.527799
N240	N	1.103781	0.603764	-0.027799
H241	H	0.604057	0.137131	-0.501664
H242	H	1.104057	0.637131	-0.001664
H243	H	0.630622	-0.222669	0.002471
H244	H	1.130622	0.277331	0.502471
H245	H	0.573765	0.083857	-0.122093
H246	H	1.073765	0.583857	0.377907
N247	N	0.512819	-0.071681	-0.473073
N248	N	1.012819	0.428319	0.026927
N249	N	0.512162	-0.071670	-0.537752
N250	N	1.012162	0.428330	-0.037752
H251	H	0.491460	-0.097224	-0.559827
H252	H	0.991460	0.402776	-0.059827
N253	N	0.514315	-0.071693	-0.326617
N254	N	1.014315	0.428307	0.173383
N255	N	0.514975	-0.071688	-0.261939
N256	N	1.014975	0.428312	0.238061
H257	H	0.494812	-0.097250	-0.231737
H258	H	0.994812	0.402750	0.268263
H259	H	-0.190996	0.083855	0.084893
H260	H	0.309004	0.583855	0.584893
N261	N	0.504137	-0.120268	0.184937
N262	N	1.004137	0.379732	0.684937
N263	N	0.459462	-0.126234	0.184431
N264	N	0.959462	0.373766	0.684431
H265	H	0.435668	-0.106969	0.218736
H266	H	0.935668	0.393031	0.718736
N267	N	0.670430	-0.365909	-0.054928
N268	N	1.170430	0.134091	0.445072
N269	N	0.700370	-0.336101	-0.033161
N270	N	1.200370	0.163899	0.466839
H271	H	0.724155	-0.316806	-0.067450
H272	H	1.224155	0.183194	0.432550
N273	N	0.637477	-0.879859	-0.007438
N274	N	1.137477	-0.379859	0.492562
N275	N	0.636942	-0.873887	-0.071631
N276	N	1.136942	-0.373887	0.428369
H277	H	0.660719	-0.893148	-0.105965
H278	H	1.160719	-0.393148	0.394035
N279	N	0.569273	-0.093559	-0.561420
N280	N	1.069273	0.406441	-0.061420
N281	N	0.535622	-0.103879	-0.514215
N282	N	1.035622	0.396121	-0.014215
H283	H	0.535886	-0.137246	-0.488070
H284	H	1.035886	0.362754	0.011930
N285	N	0.471180	-0.473945	0.232468
N286	N	0.971180	0.026055	0.732468
N287	N	0.486414	-0.503753	0.275433
N288	N	0.986414	-0.003753	0.775433
H289	H	0.462627	-0.523026	0.309746
H290	H	0.962627	-0.023026	0.809746
N291	N	0.504166	-0.771930	0.184904
N292	N	1.004166	-0.271930	0.684904
N293	N	0.474734	-0.795796	0.227366
N294	N	0.974734	-0.295796	0.727366
H295	H	0.450939	-0.776547	0.261688
H296	H	0.950939	-0.276547	0.761688
N297	N	0.670437	-0.473890	-0.054975
N298	N	1.170437	0.026110	0.445025
N299	N	0.699869	-0.450023	-0.097435
N300	N	1.199869	0.049977	0.402565
H301	H	0.723663	-0.469271	-0.131760
H302	H	1.223663	0.030729	0.368240
H303	H	0.567868	0.083874	-0.700376
H304	H	1.067868	0.583874	-0.200376
H305	H	0.040927	0.130113	0.088284
H306	H	0.540927	0.630113	0.588284
N307	N	0.572353	0.093449	-0.261016
N308	N	1.072353	0.593449	0.238984
N309	N	0.572688	0.134746	-0.228672
N310	N	1.072688	0.634746	0.271328
H311	H	0.572422	0.168122	-0.254795
H312	H	1.072422	0.668122	0.245205
N313	N	0.572339	-0.093570	-0.261024
N314	N	1.072339	0.406430	0.238976
N315	N	0.605992	-0.103895	-0.308221
N316	N	1.105992	0.396105	0.191779
H317	H	0.605723	-0.137264	-0.334354
H318	H	1.105723	0.362736	0.165646
N319	N	0.471172	-0.365977	0.232484
N320	N	0.971172	0.134023	0.732484
N321	N	0.471693	-0.371953	0.296679
N322	N	0.971693	0.128047	0.796679
H323	H	0.447904	-0.352701	0.331006
H324	H	0.947904	0.147299	0.831006
N325	N	0.504153	-0.228251	0.184941
N326	N	1.004153	0.271749	0.684941
N327	N	0.519390	-0.258063	0.227899
N328	N	1.019390	0.241937	0.727899
H329	H	0.495604	-0.277337	0.262213
H330	H	0.995604	0.222663	0.762213
H331	H	-0.050544	-0.130248	0.086996
H332	H	0.449456	0.369752	0.586996
N333	N	0.628819	0.071569	-0.349419
N334	N	1.128819	0.571569	0.150581
N335	N	0.653770	0.103207	-0.386798
N336	N	1.153770	0.603207	0.113202
H337	H	0.674471	0.128772	-0.364744
H338	H	1.174471	0.628772	0.135256
H339	H	0.478021	-0.531752	0.222612
H340	H	0.978021	-0.031752	0.722612
H341	H	0.663606	-0.531709	-0.045117
H342	H	1.163606	-0.031709	0.454883
N343	N	0.627322	0.071577	-0.495833
N344	N	1.127322	0.571577	0.004167
N345	N	0.652938	0.103210	-0.468517
N346	N	1.152938	0.603210	0.031483
H347	H	0.673105	0.128777	-0.498704
H348	H	1.173105	0.628777	0.001296
H349	H	0.424077	-0.083975	0.093989
H350	H	0.924077	0.416025	0.593989
N351	N	0.573820	-0.093580	-0.114584
N352	N	1.073820	0.406420	0.385416
N353	N	0.573489	-0.134877	-0.146930
N354	N	1.073489	0.365123	0.353070
H355	H	0.573750	-0.168253	-0.120806
H356	H	1.073750	0.331747	0.379194
H357	H	0.332617	0.083875	0.092608
H358	H	0.832617	0.583875	0.592608
N359	N	0.429316	0.093457	0.094033
N360	N	0.929316	0.593457	0.594033
N361	N	0.474330	0.093446	0.094698
N362	N	0.974330	0.593446	0.594698
H363	H	0.492526	0.126812	0.094965
H364	H	0.992526	0.626812	0.594965
N365	N	0.567790	-0.093567	-0.707862
N366	N	1.067790	0.406433	-0.207862
N367	N	0.568119	-0.134865	-0.675510
N368	N	1.068119	0.365135	-0.175510
H369	H	0.567855	-0.168241	-0.701628
H370	H	1.067855	0.331759	-0.201628
H371	H	0.192161	-0.130245	0.090572
H372	H	0.692161	0.369755	0.590572
H373	H	0.663606	-0.628613	-0.045119
H374	H	1.163606	-0.128613	0.454881
N375	N	0.095494	-0.139838	0.089162
N376	N	0.595494	0.360162	0.589162
N377	N	0.096571	-0.170802	0.138236
N378	N	0.596571	0.329198	0.638236
H379	H	0.078398	-0.204184	0.137989
H380	H	0.578398	0.295816	0.637989
N381	N	-0.185780	-0.093591	0.085027
N382	N	0.314220	0.406409	0.585027
N383	N	-0.208301	-0.134886	0.084714
N384	N	0.291699	0.365114	0.584714
H385	H	-0.190128	-0.168264	0.085000
H386	H	0.309872	0.331736	0.585000
H387	H	0.511016	-0.874350	0.175047
H388	H	1.011016	-0.374350	0.675047
H389	H	-0.282466	-0.084000	0.083590
H390	H	0.217534	0.416000	0.583590
H391	H	-0.282451	0.083850	0.083564
H392	H	0.217549	0.583850	0.583564
H393	H	0.630654	-0.777425	0.002443
H394	H	1.130654	-0.277425	0.502443
N395	N	0.095513	0.139713	0.089063
N396	N	0.595513	0.639713	0.589063
N397	N	0.105722	0.170677	0.040154
N398	N	0.605722	0.670677	0.540154
H399	H	0.087554	0.204057	0.039867
H400	H	0.587554	0.704057	0.539867
N401	N	0.197411	0.139707	0.090555
N402	N	0.697411	0.639707	0.590555
N403	N	0.196345	0.170673	0.041481
N404	N	0.696345	0.670673	0.541481
H405	H	0.214531	0.204047	0.041728
H406	H	0.714531	0.704047	0.541728
N407	N	0.046138	-0.139839	0.088426
N408	N	0.546138	0.360161	0.588426
N409	N	0.023616	-0.181133	0.088104
N410	N	0.523616	0.318867	0.588104
H411	H	0.041788	-0.214512	0.088383
H412	H	0.541788	0.285488	0.588383
H413	H	0.630621	-0.125775	0.002493
H414	H	1.130621	0.374225	0.502493
N415	N	-0.055742	0.139699	0.086865
N416	N	0.444258	0.639699	0.586865
N417	N	-0.033223	0.180995	0.087187
N418	N	0.466777	0.680995	0.587187
H419	H	-0.051396	0.214372	0.086911
H420	H	0.448604	0.714372	0.586911
