data_functionalizedCrystal
_audit_creation_method	'MofGen! by Chris Wilmer'
_symmetry_space_group_name_H-M	'P1'
_symmetry_Int_Tables_number	1
_symmetry_cell_setting	triclinic
loop_
_symmetry_equiv_pos_as_xyz
  x,y,z
_cell_length_a	21.395361
_cell_length_b	16.120530
_cell_length_c	21.395355
_cell_angle_alpha	87.079043
_cell_angle_beta	89.978489
_cell_angle_gamma	87.125977
loop_
_atom_site_label
_atom_site_type_symbol
_atom_site_fract_x
_atom_site_fract_y
_atom_site_fract_z
Zn1	Zn	-0.298157	1.274542	-0.402756
Zn2	Zn	0.035177	1.607875	-0.069422
Zn3	Zn	0.368510	1.941208	0.263911
Zn4	Zn	-0.402911	1.274412	-0.297968
Zn5	Zn	-0.069578	1.607745	0.035366
Zn6	Zn	0.263755	1.941079	0.368699
Zn7	Zn	-0.292835	1.135113	-0.292686
Zn8	Zn	0.040498	1.468447	0.040647
Zn9	Zn	0.373832	1.801780	0.373981
Zn10	Zn	-0.397577	1.135072	-0.397405
Zn11	Zn	-0.064244	1.468406	-0.064071
Zn12	Zn	0.269090	1.801739	0.269262
O13	O	-0.347870	1.204785	-0.347704
O14	O	-0.014537	1.538118	-0.014370
O15	O	0.318797	1.871451	0.318963
O16	O	-0.316512	1.391190	-0.393305
O17	O	0.016821	1.724523	-0.059972
O18	O	0.350155	2.057857	0.273362
O19	O	-0.388315	1.255897	-0.209588
O20	O	-0.054982	1.589230	0.123746
O21	O	0.278352	1.922563	0.457079
O22	O	-0.205866	1.153680	-0.307316
O23	O	0.127467	1.487014	0.026018
O24	O	0.460801	1.820347	0.359351
O25	O	-0.393475	1.391095	-0.316318
O26	O	-0.060142	1.724428	0.017015
O27	O	0.273192	2.057761	0.350349
O28	O	-0.209776	1.256118	-0.388183
O29	O	0.123558	1.589451	-0.054850
O30	O	0.456891	1.922784	0.278483
O31	O	-0.307442	1.153554	-0.205707
O32	O	0.025891	1.486888	0.127626
O33	O	0.359224	1.820221	0.460959
O34	O	-0.302270	1.018442	-0.302127
O35	O	0.031063	1.351776	0.031206
O36	O	0.364397	1.685109	0.364539
O37	O	-0.384383	1.153610	-0.485794
O38	O	-0.051050	1.486944	-0.152461
O39	O	0.282283	1.820277	0.180873
O40	O	-0.379223	1.018412	-0.379064
O41	O	-0.045890	1.351745	-0.045731
O42	O	0.287443	1.685079	0.287603
O43	O	-0.311340	1.256078	-0.489725
O44	O	0.021994	1.589411	-0.156392
O45	O	0.355327	1.922745	0.176942
O46	O	-0.489879	1.255857	-0.311129
O47	O	-0.156546	1.589190	0.022204
O48	O	0.176788	1.922523	0.355537
O49	O	-0.485960	1.153484	-0.384185
O50	O	-0.152627	1.486818	-0.050852
O51	O	0.180707	1.820151	0.282481
C52	C	-0.339591	0.988177	-0.339442
C53	C	-0.006257	1.321510	-0.006109
C54	C	0.327076	1.654844	0.327225
C55	C	-0.336064	0.895511	-0.335923
C56	C	-0.002731	1.228845	-0.002589
C57	C	0.330603	1.562178	0.330744
C58	C	-0.510654	1.204675	-0.347664
C59	C	-0.177320	1.538008	-0.014331
C60	C	0.156013	1.871341	0.319002
C61	C	-0.580296	1.204704	-0.347672
C62	C	-0.246963	1.538037	-0.014338
C63	C	0.086371	1.871371	0.318995
C64	C	-0.615031	1.258056	-0.309674
C65	C	-0.281697	1.591390	0.023659
C66	C	0.051636	1.924723	0.356992
C67	C	-0.680468	1.258095	-0.309690
C68	C	-0.347134	1.591429	0.023644
C69	C	-0.013801	1.924762	0.356977
C70	C	-0.711167	1.204767	-0.347695
C71	C	-0.377833	1.538100	-0.014362
C72	C	-0.044500	1.871433	0.318971
C73	C	-0.676424	1.151410	-0.385701
C74	C	-0.343090	1.484744	-0.052367
C75	C	-0.009757	1.818077	0.280966
C76	C	-0.610988	1.151379	-0.385689
C77	C	-0.277655	1.484712	-0.052355
C78	C	0.055678	1.818046	0.280978
C79	C	-0.812017	1.129700	-0.349748
C80	C	-0.478683	1.463034	-0.016415
C81	C	-0.145350	1.796367	0.316918
C82	C	-0.877451	1.129730	-0.349756
C83	C	-0.544117	1.463064	-0.016423
C84	C	-0.210784	1.796397	0.316911
C85	C	-0.912991	1.204864	-0.347736
C86	C	-0.579658	1.538197	-0.014403
C87	C	-0.246324	1.871530	0.318931
C88	C	-0.883089	1.279969	-0.345695
C89	C	-0.549756	1.613303	-0.012362
C90	C	-0.216423	1.946636	0.320971
C91	C	-0.817654	1.279938	-0.345683
C92	C	-0.484321	1.613271	-0.012350
C93	C	-0.150987	1.946605	0.320983
C94	C	-0.782120	1.204795	-0.347713
C95	C	-0.448787	1.538128	-0.014380
C96	C	-0.115453	1.871462	0.318954
C97	C	-1.018680	1.258263	-0.309753
C98	C	-0.685347	1.591596	0.023580
C99	C	-0.352013	1.924929	0.356913
C100	C	-1.084118	1.258303	-0.309773
C101	C	-0.750785	1.591636	0.023560
C102	C	-0.417452	1.924970	0.356893
C103	C	-1.080073	1.151611	-0.385781
C104	C	-0.746740	1.484944	-0.052447
C105	C	-0.413406	1.818277	0.280886
C106	C	-1.014636	1.151578	-0.385764
C107	C	-0.681303	1.484911	-0.052431
C108	C	-0.347970	1.818245	0.280902
C109	C	-0.983944	1.204903	-0.347747
C110	C	-0.650610	1.538236	-0.014414
C111	C	-0.317277	1.871569	0.318919
C112	C	-0.329610	0.725850	-0.329503
C113	C	0.003723	1.059183	0.003831
C114	C	0.337056	1.392517	0.337164
C115	C	-0.366176	0.684560	-0.365950
C116	C	-0.032843	1.017893	-0.032617
C117	C	0.300491	1.351227	0.300717
C118	C	-0.362585	0.590155	-0.362378
C119	C	-0.029252	0.923488	-0.029045
C120	C	0.304082	1.256821	0.304289
C121	C	-0.333200	0.820264	-0.333074
C122	C	0.000133	1.153597	0.000259
C123	C	0.333466	1.486931	0.333593
C124	C	-0.184452	1.204918	-0.347757
C125	C	0.148881	1.538251	-0.014424
C126	C	0.482215	1.871585	0.318909
C127	C	-0.114813	1.204975	-0.347780
C128	C	0.218521	1.538308	-0.014447
C129	C	0.551854	1.871641	0.318886
C130	C	-0.347860	1.204854	-0.511129
C131	C	-0.014527	1.538187	-0.177796
C132	C	0.318807	1.871521	0.155537
C133	C	-0.347856	1.204884	-0.580772
C134	C	-0.014522	1.538217	-0.247439
C135	C	0.318811	1.871550	0.085895
C136	C	-0.356182	1.422238	-0.355998
C137	C	-0.022849	1.755572	-0.022664
C138	C	0.310485	2.088905	0.310669
C139	C	-0.359724	1.514904	-0.359532
C140	C	-0.026391	1.848237	-0.026199
C141	C	0.306942	2.181571	0.307135
C142	C	-0.309820	1.258236	-0.615533
C143	C	0.023513	1.591569	-0.282200
C144	C	0.356847	1.924903	0.051134
C145	C	-0.309793	1.258235	-0.680968
C146	C	0.023540	1.591568	-0.347635
C147	C	0.356874	1.924902	-0.014302
C148	C	-0.347813	1.204890	-0.711641
C149	C	-0.014480	1.538223	-0.378307
C150	C	0.318853	1.871557	-0.044974
C151	C	-0.385851	1.151527	-0.676871
C152	C	-0.052518	1.484860	-0.343538
C153	C	0.280815	1.818194	-0.010205
C154	C	-0.385873	1.151524	-0.611437
C155	C	-0.052539	1.484857	-0.278104
C156	C	0.280794	1.818190	0.055230
C157	C	-0.403976	1.198269	-0.815051
C158	C	-0.070643	1.531602	-0.481718
C159	C	0.262691	1.864936	-0.148384
C160	C	-0.403956	1.198278	-0.880484
C161	C	-0.070623	1.531611	-0.547151
C162	C	0.262711	1.864945	-0.213818
C163	C	-0.347747	1.204895	-0.913462
C164	C	-0.014414	1.538229	-0.580128
C165	C	0.318919	1.871562	-0.246795
C166	C	-0.291558	1.211521	-0.880998
C167	C	0.041776	1.544854	-0.547665
C168	C	0.375109	1.878187	-0.214331
C169	C	-0.291579	1.211517	-0.815564
C170	C	0.041755	1.544851	-0.482230
C171	C	0.375088	1.878184	-0.148897
C172	C	-0.347794	1.204887	-0.782593
C173	C	-0.014461	1.538221	-0.449260
C174	C	0.318872	1.871554	-0.115926
C175	C	-0.309679	1.258249	-1.019175
C176	C	0.023654	1.591583	-0.685842
C177	C	0.356988	1.924916	-0.352509
C178	C	-0.309651	1.258242	-1.084612
C179	C	0.023683	1.591576	-0.751278
C180	C	0.357016	1.924909	-0.417945
C181	C	-0.385715	1.151539	-1.080513
C182	C	-0.052382	1.484872	-0.747180
C183	C	0.280952	1.818206	-0.413847
C184	C	-0.385737	1.151541	-1.015078
C185	C	-0.052404	1.484875	-0.681745
C186	C	0.280929	1.818208	-0.348412
C187	C	-0.347721	1.204901	-0.984413
C188	C	-0.014387	1.538235	-0.651080
C189	C	0.318946	1.871568	-0.317746
C190	C	-0.347837	1.204764	-0.184915
C191	C	-0.014503	1.538097	0.148418
C192	C	0.318830	1.871431	0.481752
C193	C	-0.347671	1.204896	-0.115279
C194	C	-0.014337	1.538229	0.218054
C195	C	0.318996	1.871563	0.551387
H196	H	-0.708754	1.301544	-0.278748
H197	H	-0.375421	1.634878	0.054585
H198	H	-0.042088	1.968211	0.387919
H199	H	-1.105067	1.108193	-0.416729
H200	H	-0.771734	1.441526	-0.083395
H201	H	-0.438401	1.774860	0.249938
H202	H	-0.912025	1.341150	-0.344051
H203	H	-0.578691	1.674484	-0.010717
H204	H	-0.245358	2.007817	0.322616
H205	H	-0.449728	1.192657	-0.788198
H206	H	-0.116394	1.525991	-0.454865
H207	H	0.216939	1.859324	-0.121532
C208	C	-0.784764	1.362547	-0.343448
C209	C	-0.451430	1.695881	-0.010115
C210	C	-0.118097	2.029214	0.323218
H211	H	-0.815297	1.407303	-0.342252
H212	H	-0.481964	1.740636	-0.008919
H213	H	-0.148631	2.073969	0.324415
H214	H	-0.759214	1.361479	-0.307086
H215	H	-0.425881	1.694813	0.026247
H216	H	-0.092548	2.028146	0.359580
H217	H	-0.759495	1.369832	-0.379642
H218	H	-0.426161	1.703165	-0.046308
H219	H	-0.092828	2.036498	0.287025
C220	C	-0.412114	0.732577	-0.411725
C221	C	-0.078781	1.065910	-0.078392
C222	C	0.254553	1.399243	0.254941
H223	H	-0.434582	0.694254	-0.434125
H224	H	-0.101249	1.027587	-0.100792
H225	H	0.232084	1.360920	0.232541
H226	H	-0.440641	0.766509	-0.388963
H227	H	-0.107308	1.099843	-0.055630
H228	H	0.226025	1.433176	0.277703
H229	H	-0.389454	0.766584	-0.440335
H230	H	-0.056121	1.099917	-0.107002
H231	H	0.277213	1.433250	0.226332
C232	C	-0.772926	1.047050	-0.351970
C233	C	-0.439592	1.380384	-0.018636
C234	C	-0.106259	1.713717	0.314697
H235	H	-0.729673	1.057788	-0.351676
H236	H	-0.396339	1.391121	-0.018343
H237	H	-0.063006	1.724454	0.314991
H238	H	-0.782354	1.012010	-0.316530
H239	H	-0.449021	1.345344	0.016804
H240	H	-0.115687	1.678677	0.350137
H241	H	-0.782628	1.020372	-0.389085
H242	H	-0.449295	1.353706	-0.055751
H243	H	-0.115961	1.687039	0.277582
C244	C	-0.465760	1.191001	-0.916192
C245	C	-0.132427	1.524334	-0.582858
C246	C	0.200906	1.857667	-0.249525
H247	H	-0.457700	1.191964	-0.959885
H248	H	-0.124366	1.525297	-0.626552
H249	H	0.208967	1.858630	-0.293218
H250	H	-0.483859	1.140230	-0.903524
H251	H	-0.150526	1.473563	-0.570191
H252	H	0.182808	1.806897	-0.236857
H253	H	-0.493850	1.236336	-0.907201
H254	H	-0.160517	1.569670	-0.573868
H255	H	0.172816	1.903003	-0.240535
H256	H	-0.245787	1.216910	-0.907847
H257	H	0.087546	1.550244	-0.574513
H258	H	0.420880	1.883577	-0.241180
C259	C	-0.283686	0.677830	-0.283722
C260	C	0.049648	1.011163	0.049611
C261	C	0.382981	1.344497	0.382944
H262	H	-0.287275	0.619760	-0.287294
H263	H	0.046059	0.953093	0.046039
H264	H	0.379392	1.286426	0.379372
H265	H	-0.242130	0.692078	-0.293490
H266	H	0.091203	1.025412	0.039843
H267	H	0.424536	1.358745	0.373176
H268	H	-0.293332	0.692011	-0.242133
H269	H	0.040001	1.025344	0.091201
H270	H	0.373335	1.358677	0.424534
C271	C	-0.267998	1.316923	-0.581804
C272	C	0.065335	1.650256	-0.248471
C273	C	0.398669	1.983589	0.084862
H274	H	-0.245337	1.348693	-0.611882
H275	H	0.087996	1.682026	-0.278549
H276	H	0.421329	2.015359	0.054784
H277	H	-0.293360	1.353226	-0.557668
H278	H	0.039973	1.686559	-0.224335
H279	H	0.373307	2.019893	0.108999
H280	H	-0.239484	1.285047	-0.555060
H281	H	0.093849	1.618381	-0.221727
H282	H	0.427183	1.951714	0.111607
H283	H	-0.416806	1.108091	-0.701849
H284	H	-0.083472	1.441424	-0.368515
H285	H	0.249861	1.774757	-0.035182
H286	H	-0.701423	1.107991	-0.416646
H287	H	-0.368090	1.441325	-0.083313
H288	H	-0.034756	1.774658	0.250020
C289	C	-0.572776	1.092688	-0.427484
C290	C	-0.239442	1.426021	-0.094151
C291	C	0.093891	1.759354	0.239182
H292	H	-0.529409	1.100310	-0.422035
H293	H	-0.196075	1.433643	-0.088702
H294	H	0.137258	1.766976	0.244631
H295	H	-0.581405	1.036683	-0.416150
H296	H	-0.248072	1.370016	-0.082816
H297	H	0.085261	1.703349	0.250517
H298	H	-0.583931	1.104875	-0.470058
H299	H	-0.250598	1.438208	-0.136725
H300	H	0.082735	1.771541	0.196608
C301	C	-0.427723	1.092845	-0.573199
C302	C	-0.094390	1.426179	-0.239865
C303	C	0.238944	1.759512	0.093468
H304	H	-0.450367	1.061078	-0.600835
H305	H	-0.117034	1.394411	-0.267502
H306	H	0.216299	1.727744	0.065831
H307	H	-0.402382	1.056539	-0.546275
H308	H	-0.069049	1.389872	-0.212942
H309	H	0.264284	1.723205	0.120391
H310	H	-0.456251	1.124728	-0.548901
H311	H	-0.122918	1.458061	-0.215567
H312	H	0.210415	1.791394	0.117766
C313	C	-0.267954	1.316925	-0.719216
C314	C	0.065379	1.650258	-0.385883
C315	C	0.398712	1.983591	-0.052549
H316	H	-0.273385	1.309279	-0.762578
H317	H	0.059949	1.642612	-0.429245
H318	H	0.393282	1.975946	-0.095911
H319	H	-0.279270	1.372932	-0.710641
H320	H	0.054064	1.706265	-0.377308
H321	H	0.387397	2.039598	-0.043975
H322	H	-0.225391	1.304756	-0.708030
H323	H	0.107942	1.638089	-0.374697
H324	H	0.441275	1.971423	-0.041363
C325	C	-0.581273	1.316721	-0.267865
C326	C	-0.247939	1.650054	0.065469
C327	C	0.085394	1.983387	0.398802
H328	H	-0.611336	1.348507	-0.245241
H329	H	-0.278002	1.681840	0.088092
H330	H	0.055331	2.015174	0.421425
H331	H	-0.554563	1.284839	-0.239325
H332	H	-0.221230	1.618173	0.094008
H333	H	0.112103	1.951506	0.427341
H334	H	-0.557098	1.353023	-0.293240
H335	H	-0.223765	1.686356	0.040093
H336	H	0.109568	2.019689	0.373426
C337	C	-0.229775	1.218792	-0.779855
C338	C	0.103559	1.552125	-0.446522
C339	C	0.436892	1.885458	-0.113189
H340	H	-0.196293	1.222727	-0.808862
H341	H	0.137041	1.556060	-0.475529
H342	H	0.470374	1.889393	-0.142195
H343	H	-0.232441	1.267113	-0.756180
H344	H	0.100892	1.600446	-0.422846
H345	H	0.434225	1.933779	-0.089513
H346	H	-0.222455	1.171006	-0.752500
H347	H	0.110878	1.504339	-0.419167
H348	H	0.444211	1.837672	-0.085834
H349	H	-0.278720	1.301693	-0.994206
H350	H	0.054614	1.635027	-0.660873
H351	H	0.387947	1.968360	-0.327540
H352	H	-0.278674	1.301687	-1.112913
H353	H	0.054659	1.635021	-0.779580
H354	H	0.387993	1.968354	-0.446247
H355	H	-0.416665	1.108096	-1.105486
H356	H	-0.083332	1.441429	-0.772152
H357	H	0.250002	1.774762	-0.438819
C358	C	-0.427582	1.092862	-0.976837
C359	C	-0.094249	1.426195	-0.643503
C360	C	0.239085	1.759528	-0.310170
H361	H	-0.422146	1.100495	-0.933474
H362	H	-0.088813	1.433829	-0.600140
H363	H	0.244521	1.767162	-0.266807
H364	H	-0.470141	1.105027	-0.988025
H365	H	-0.136808	1.438361	-0.654691
H366	H	0.196526	1.771694	-0.321358
H367	H	-0.416263	1.036851	-0.985412
H368	H	-0.082930	1.370184	-0.652079
H369	H	0.250403	1.703517	-0.318746
C370	C	-0.984916	1.316925	-0.267944
C371	C	-0.651583	1.650258	0.065389
C372	C	-0.318249	1.983592	0.398722
H373	H	-1.014978	1.348716	-0.245323
H374	H	-0.681644	1.682049	0.088010
H375	H	-0.348311	2.015383	0.421343
H376	H	-0.958210	1.285041	-0.239403
H377	H	-0.624877	1.618375	0.093930
H378	H	-0.291544	1.951708	0.427263
H379	H	-0.960738	1.353223	-0.293319
H380	H	-0.627404	1.686556	0.040014
H381	H	-0.294071	2.019890	0.373347
H382	H	-1.112399	1.301754	-0.278833
H383	H	-0.779065	1.635087	0.054501
H384	H	-0.445732	1.968421	0.387834
H385	H	-0.986353	1.108130	-0.416703
H386	H	-0.653020	1.441463	-0.083369
H387	H	-0.319686	1.774796	0.249964
H388	H	-0.901792	1.068574	-0.351411
H389	H	-0.568458	1.401908	-0.018078
H390	H	-0.235125	1.735241	0.315255
