data_functionalizedCrystal
_audit_creation_method	'MofGen! by Chris Wilmer'
_symmetry_space_group_name_H-M	'P1'
_symmetry_Int_Tables_number	1
_symmetry_cell_setting	triclinic
loop_
_symmetry_equiv_pos_as_xyz
  x,y,z
_cell_length_a	12.759399
_cell_length_b	12.759401
_cell_length_c	12.759393
_cell_angle_alpha	89.978843
_cell_angle_beta	90.030906
_cell_angle_gamma	89.989281
loop_
_atom_site_label
_atom_site_type_symbol
_atom_site_fract_x
_atom_site_fract_y
_atom_site_fract_z
Zn1	Zn	-0.418339	-1.606263	0.594023
Zn2	Zn	-0.594054	-1.606153	0.418342
Zn3	Zn	-0.418376	-1.430562	0.418358
Zn4	Zn	-0.593963	-1.430553	0.593979
O5	O	-0.506183	-1.518383	0.506175
O6	O	-0.441670	-1.753270	0.570731
O7	O	-0.570804	-1.582818	0.271323
O8	O	-0.271350	-1.453919	0.441685
O9	O	-0.570768	-1.753189	0.441659
O10	O	-0.271323	-1.583006	0.570746
O11	O	-0.441735	-1.453812	0.271334
O12	O	-0.441646	-1.283540	0.441642
O13	O	-0.570612	-1.453903	0.741006
O14	O	-0.570648	-1.283533	0.570670
O15	O	-0.441582	-1.582997	0.741038
O16	O	-0.741063	-1.582809	0.441615
O17	O	-0.740996	-1.453796	0.570655
C18	C	-0.506142	-1.245415	0.506154
C19	C	-0.506150	-1.128639	0.506169
C20	C	-0.439064	-0.964082	0.573484
C21	C	-0.439051	-1.073807	0.573480
C22	C	-0.573275	-1.073741	0.438866
C23	C	-0.573293	-0.964019	0.438876
C24	C	-0.401636	-1.223815	0.697436
C25	C	-0.334501	-1.278709	0.764727
C26	C	-0.232012	-1.243107	0.781038
C27	C	-0.196637	-1.152614	0.730044
C28	C	-0.263765	-1.097726	0.662745
C29	C	-0.366269	-1.133326	0.646454
C30	C	-0.610697	-0.814009	0.314919
C31	C	-0.677821	-0.759119	0.247614
C32	C	-0.780312	-0.794718	0.231292
C33	C	-0.815684	-0.885215	0.282268
C34	C	-0.748560	-0.940105	0.349572
C35	C	-0.646070	-0.904498	0.365896
C36	C	-0.779150	-1.518318	0.506151
C37	C	-0.895927	-1.518387	0.506176
C38	C	-0.950789	-1.585641	0.439062
C39	C	-1.060513	-1.585708	0.439097
C40	C	-1.060503	-1.451259	0.573364
C41	C	-0.950781	-1.451198	0.573334
C42	C	-1.210401	-1.709717	0.401710
C43	C	-1.265267	-1.776961	0.334579
C44	C	-1.229728	-1.793124	0.232069
C45	C	-1.139325	-1.742027	0.196669
C46	C	-1.084465	-1.674775	0.263794
C47	C	-1.120003	-1.658632	0.366319
C48	C	-0.800891	-1.327188	0.610710
C49	C	-0.746029	-1.259929	0.677830
C50	C	-0.781566	-1.243756	0.780342
C51	C	-0.871972	-1.294835	0.815739
C52	C	-0.926834	-1.362093	0.748618
C53	C	-0.891290	-1.378268	0.646107
C54	C	-0.232150	-1.518476	0.506222
C55	C	-0.115373	-1.518516	0.506242
C56	C	-0.506082	-1.518461	0.780209
C57	C	-0.506039	-1.518495	0.896986
C58	C	-0.506210	-0.792416	0.506192
C59	C	-0.506182	-0.909193	0.506184
C60	C	-0.506208	-1.518365	0.233208
C61	C	-0.505955	-1.518535	0.116432
C62	C	-0.438842	-1.585719	0.951866
C63	C	-0.438797	-1.585737	1.061590
C64	C	-0.573154	-1.451303	1.061543
C65	C	-0.573194	-1.451281	0.951821
H66	H	-0.899139	-0.914203	0.268974
H67	H	-0.834961	-0.750020	0.176479
N68	N	-0.645650	-1.132876	0.366267
H69	H	-0.635451	-1.210714	0.376467
H70	H	-0.629207	-1.113658	0.291265
H71	H	-0.384077	-1.640476	1.106269
N72	N	-1.024340	-1.417190	0.786802
H73	H	-1.013884	-1.495529	0.782379
H74	H	-1.085887	-1.396135	0.741655
H75	H	-0.777368	-1.013793	0.391078
N76	N	-0.722396	-1.171206	0.852735
H77	H	-0.758632	-1.168715	0.923047
H78	H	-0.720505	-1.098537	0.821388
H79	H	-0.649161	-0.685173	0.206468
H80	H	-0.527241	-0.785013	0.328207
N81	N	-0.225617	-1.000133	0.607746
H82	H	-0.204172	-0.946174	0.661533
H83	H	-0.283735	-0.970849	0.562640
N84	N	-0.762554	-1.344632	0.500140
H85	H	-0.818537	-1.322109	0.448867
H86	H	-0.746467	-1.421422	0.489670
H87	H	-1.239339	-1.696573	0.485185
H88	H	-0.672411	-1.218345	0.649004
H89	H	-0.906129	-1.640352	0.384380
H90	H	-0.627832	-1.396583	1.106204
H91	H	-0.900907	-1.281666	0.899213
H92	H	-0.384418	-0.919446	0.628290
N93	N	-0.645670	-1.378779	0.892607
H94	H	-0.602970	-1.330105	0.847086
H95	H	-0.688203	-1.336272	0.944048
H96	H	-1.010860	-1.633174	0.234973
N97	N	-1.101002	-1.759447	0.086095
H98	H	-1.149473	-1.809804	0.048944
H99	H	-1.027887	-1.789722	0.088062
H100	H	-0.113175	-1.123642	0.743321
N101	N	-0.159600	-1.302303	0.853619
H102	H	-0.150117	-1.376229	0.826985
H103	H	-0.190923	-1.304244	0.926270
H104	H	-1.274407	-1.847877	0.177411
H105	H	-0.363314	-1.352388	0.806246
H106	H	-0.485093	-1.252804	0.684170
H107	H	-0.384158	-1.640446	0.907222
H108	H	-1.105179	-1.396555	0.628040
N109	N	-1.362773	-1.832067	0.372753
H110	H	-1.376959	-1.811635	0.447885
H111	H	-1.352254	-1.910390	0.368242
