data_functionalizedCrystal
_audit_creation_method	'MofGen! by Chris Wilmer'
_symmetry_space_group_name_H-M	'P1'
_symmetry_Int_Tables_number	1
_symmetry_cell_setting	triclinic
loop_
_symmetry_equiv_pos_as_xyz
  x,y,z
_cell_length_a	13.033286
_cell_length_b	18.101397
_cell_length_c	13.033109
_cell_angle_alpha	97.149218
_cell_angle_beta	90.884484
_cell_angle_gamma	82.851152
loop_
_atom_site_label
_atom_site_type_symbol
_atom_site_fract_x
_atom_site_fract_y
_atom_site_fract_z
Zn1	Zn	1.645902	-0.477115	-0.381327
Zn2	Zn	1.979236	-0.143781	-0.047993
Zn3	Zn	2.312569	0.189552	0.285340
Zn4	Zn	1.623948	-0.583519	-0.209365
Zn5	Zn	1.957281	-0.250185	0.123968
Zn6	Zn	2.290615	0.083148	0.457302
Zn7	Zn	1.452107	-0.446216	-0.231267
Zn8	Zn	1.785441	-0.112883	0.102066
Zn9	Zn	2.118774	0.220450	0.435399
Zn10	Zn	1.473901	-0.587419	-0.403155
Zn11	Zn	1.807234	-0.254085	-0.069822
Zn12	Zn	2.140568	0.079248	0.263512
O13	O	1.548965	-0.523567	-0.306278
O14	O	1.882298	-0.190234	0.027055
O15	O	2.215631	0.143100	0.360388
O16	O	1.786889	-0.502528	-0.340214
O17	O	2.120222	-0.169195	-0.006881
O18	O	2.453556	0.164138	0.326453
O19	O	1.582844	-0.550742	-0.068368
O20	O	1.916178	-0.217409	0.264965
O21	O	2.249511	0.115925	0.598298
O22	O	1.477882	-0.346691	-0.251204
O23	O	1.811215	-0.013358	0.082129
O24	O	2.144549	0.319976	0.415463
O25	O	1.770759	-0.580703	-0.213875
O26	O	2.104093	-0.247370	0.119459
O27	O	2.437426	0.085964	0.452792
O28	O	1.620262	-0.369392	-0.361452
O29	O	1.953596	-0.036059	-0.028119
O30	O	2.286929	0.297275	0.305215
O31	O	1.456594	-0.449867	-0.084460
O32	O	1.789927	-0.116533	0.248873
O33	O	2.123260	0.216800	0.582207
O34	O	1.311099	-0.453648	-0.272370
O35	O	1.644433	-0.120315	0.060963
O36	O	1.977766	0.213018	0.394297
O37	O	1.515026	-0.587350	-0.544161
O38	O	1.848359	-0.254017	-0.210828
O39	O	2.181693	0.079317	0.122505
O40	O	1.327111	-0.557389	-0.398655
O41	O	1.660444	-0.224056	-0.065322
O42	O	1.993778	0.109278	0.268012
O43	O	1.641395	-0.506310	-0.528124
O44	O	1.974728	-0.172977	-0.194791
O45	O	2.308061	0.160357	0.138542
O46	O	1.603976	-0.687660	-0.235041
O47	O	1.937310	-0.354327	0.098293
O48	O	2.270643	-0.020993	0.431626
O49	O	1.493738	-0.690525	-0.377417
O50	O	1.827071	-0.357192	-0.044084
O51	O	2.160404	-0.023859	0.289249
C52	C	1.281794	-0.502589	-0.340259
C53	C	1.615127	-0.169256	-0.006925
C54	C	1.948460	0.164077	0.326408
C55	C	1.167500	-0.493635	-0.354820
C56	C	1.500833	-0.160302	-0.021486
C57	C	1.834167	0.173031	0.311847
C58	C	1.108551	-0.528243	-0.298704
C59	C	1.441885	-0.194910	0.034629
C60	C	1.775218	0.138424	0.367962
C61	C	0.990423	-0.518989	-0.313753
C62	C	1.323756	-0.185656	0.019581
C63	C	1.657089	0.147677	0.352914
C64	C	1.548870	-0.715966	-0.306240
C65	C	1.882204	-0.382632	0.027094
C66	C	2.215537	-0.049299	0.360427
C67	C	1.548928	-0.798286	-0.306246
C68	C	1.882262	-0.464952	0.027088
C69	C	2.215595	-0.131619	0.360421
C70	C	1.549072	-1.097396	-0.306323
C71	C	1.882405	-0.764063	0.027011
C72	C	2.215738	-0.430730	0.360344
C73	C	1.618182	-1.064199	-0.216559
C74	C	1.951516	-0.730865	0.116775
C75	C	2.284849	-0.397532	0.450108
C76	C	1.618483	-0.978622	-0.216730
C77	C	1.951816	-0.645289	0.116603
C78	C	2.285150	-0.311956	0.449937
C79	C	1.549000	-0.949004	-0.306284
C80	C	1.882334	-0.615671	0.027050
C81	C	2.215667	-0.282337	0.360383
C82	C	1.592143	-0.993304	-0.410940
C83	C	1.925476	-0.659971	-0.077607
C84	C	2.258809	-0.326637	0.255726
C85	C	1.592701	-1.078953	-0.410428
C86	C	1.926034	-0.745620	-0.077095
C87	C	2.259368	-0.412286	0.256238
C88	C	1.436726	-1.054552	-0.292395
C89	C	1.770060	-0.721219	0.040938
C90	C	2.103393	-0.387885	0.374271
C91	C	1.436956	-0.968699	-0.289907
C92	C	1.770290	-0.635366	0.043426
C93	C	2.103623	-0.302033	0.376759
C94	C	1.548959	-0.865139	-0.306268
C95	C	1.882293	-0.531806	0.027065
C96	C	2.215626	-0.198473	0.360398
C97	C	1.549116	-1.181262	-0.306345
C98	C	1.882449	-0.847928	0.026988
C99	C	2.215783	-0.514595	0.360322
C100	C	1.817179	-0.544627	-0.272166
C101	C	2.150512	-0.211294	0.061167
C102	C	2.483845	0.122039	0.394500
C103	C	1.931476	-0.553602	-0.257630
C104	C	2.264809	-0.220269	0.075704
C105	C	2.598142	0.113065	0.409037
C106	C	1.583090	-0.550712	-0.574498
C107	C	1.916424	-0.217378	-0.241165
C108	C	2.249757	0.115955	0.092168
C109	C	1.597633	-0.562279	-0.688798
C110	C	1.930966	-0.228946	-0.355464
C111	C	2.264299	0.104388	-0.022131
C112	C	1.549090	-0.330422	-0.306336
C113	C	1.882423	0.002912	0.026997
C114	C	2.215757	0.336245	0.360330
C115	C	1.549144	-0.248115	-0.306361
C116	C	1.882477	0.085219	0.026973
C117	C	2.215810	0.418552	0.360306
C118	C	1.541650	-0.517525	-0.747718
C119	C	1.874983	-0.184192	-0.414384
C120	C	2.208316	0.149142	-0.081051
C121	C	1.556679	-0.529479	-0.865852
C122	C	1.890012	-0.196146	-0.532519
C123	C	2.223345	0.137187	-0.199186
C124	C	1.515031	-0.496479	-0.039095
C125	C	1.848364	-0.163146	0.294239
C126	C	2.181698	0.170187	0.627572
C127	C	1.500688	-0.484719	0.075230
C128	C	1.834021	-0.151386	0.408563
C129	C	2.167355	0.181948	0.741896
H130	H	1.130514	-0.457159	-0.414006
H131	H	1.463848	-0.123825	-0.080673
H132	H	1.797181	0.209508	0.252661
F133	F	1.581067	-0.938685	-0.114752
F134	F	1.914400	-0.605351	0.218581
F135	F	2.247734	-0.272018	0.551914
H136	H	0.968457	-0.590091	-0.198450
H137	H	1.301790	-0.256757	0.134883
H138	H	1.635124	0.076576	0.468216
H139	H	1.701423	-0.966266	-0.224849
H140	H	2.034756	-0.632933	0.108484
H141	H	2.368090	-0.299599	0.441817
H142	H	1.145538	-0.564725	-0.239525
H143	H	1.478871	-0.231392	0.093808
H144	H	1.812205	0.101941	0.427142
F145	F	0.942090	-0.471309	-0.391121
F146	F	1.275423	-0.137975	-0.057787
F147	F	1.608757	0.195358	0.275546
F148	F	1.394756	-0.929376	-0.189330
F149	F	1.728090	-0.596042	0.144004
F150	F	2.061423	-0.262709	0.477337
H151	H	1.589788	-1.075245	-0.138255
H152	H	1.923121	-0.741912	0.195078
H153	H	2.256454	-0.408578	0.528412
H154	H	1.700655	-1.093798	-0.224523
H155	H	2.033988	-0.760464	0.108811
H156	H	2.367322	-0.427131	0.442144
H157	H	1.675230	-1.107498	-0.423835
H158	H	2.008563	-0.774165	-0.090501
H159	H	2.341896	-0.440831	0.242832
F160	F	1.633869	-0.591137	-0.914224
F161	F	1.967202	-0.257803	-0.580890
F162	F	2.300535	0.075530	-0.247557
H163	H	1.441626	-0.437551	-0.887762
H164	H	1.774959	-0.104218	-0.554429
H165	H	2.108293	0.229116	-0.221095
F166	F	1.530730	-1.108519	-0.499849
F167	F	1.864063	-0.775186	-0.166515
F168	F	2.197396	-0.441852	0.166818
H169	H	1.656687	-0.609445	-0.725813
H170	H	1.990020	-0.276112	-0.392479
H171	H	2.323353	0.057221	-0.059146
F172	F	1.529137	-0.969042	-0.499934
F173	F	1.862470	-0.635709	-0.166600
F174	F	2.195803	-0.302376	0.166733
F175	F	1.698917	-0.976431	-0.429134
F176	F	2.032250	-0.643097	-0.095801
F177	F	2.365584	-0.309764	0.237533
H178	H	1.385064	-1.076069	-0.357943
H179	H	1.718398	-0.742736	-0.024610
H180	H	2.051731	-0.409403	0.308724
F181	F	1.388900	-1.069832	-0.195320
F182	F	1.722234	-0.736499	0.138014
F183	F	2.055567	-0.403165	0.471347
F184	F	1.364571	-0.941495	-0.370557
F185	F	1.697905	-0.608162	-0.037223
F186	F	2.031238	-0.274828	0.296110
H187	H	1.482590	-0.470362	-0.710703
H188	H	1.815924	-0.137029	-0.377370
H189	H	2.149257	0.196305	-0.044037
