data_functionalizedCrystal
_audit_creation_method	'MofGen! by Chris Wilmer'
_symmetry_space_group_name_H-M	'P1'
_symmetry_Int_Tables_number	1
_symmetry_cell_setting	triclinic
loop_
_symmetry_equiv_pos_as_xyz
  x,y,z
_cell_length_a	12.811442
_cell_length_b	19.288840
_cell_length_c	17.766277
_cell_angle_alpha	89.990964
_cell_angle_beta	84.558410
_cell_angle_gamma	83.587890
loop_
_atom_site_label
_atom_site_type_symbol
_atom_site_fract_x
_atom_site_fract_y
_atom_site_fract_z
O1	O	0.130818	0.922007	-0.071647
O2	O	0.630818	1.422007	0.428353
O3	O	0.148508	0.719832	-0.072829
O4	O	0.648508	1.219832	0.427171
O5	O	-0.013155	0.826003	-0.061805
O6	O	0.486845	1.326003	0.438195
O7	O	0.292481	0.815836	-0.082671
O8	O	0.792481	1.315836	0.417329
O9	O	-0.013181	0.826001	0.063385
O10	O	0.486819	1.326001	0.563385
O11	O	0.148482	0.719830	0.052362
O12	O	0.648482	1.219830	0.552362
O13	O	0.130792	0.922005	0.053543
O14	O	0.630792	1.422005	0.553543
Cu15	Cu	0.139635	0.820917	0.064383
Cu16	Cu	0.639635	1.320917	0.564383
Cu17	Cu	0.139666	0.820920	-0.083669
Cu18	Cu	0.639666	1.320920	0.416331
O19	O	0.292455	0.815834	0.042519
O20	O	0.792455	1.315834	0.542519
C21	C	0.147931	0.693952	-0.010191
C22	C	0.647931	1.193952	0.489809
C23	C	0.146235	0.616839	-0.010066
C24	C	0.646235	1.116839	0.489934
C25	C	0.145435	0.580632	-0.078253
C26	C	0.645435	1.080632	0.421747
C27	C	0.143830	0.508177	-0.078153
C28	C	0.643830	1.008177	0.421847
C29	C	0.143004	0.471933	-0.009860
C30	C	0.643004	0.971933	0.490140
C31	C	0.143811	0.508148	0.058336
C32	C	0.643811	1.008148	0.558336
C33	C	0.145426	0.580601	0.058233
C34	C	0.645426	1.080601	0.558233
C35	C	0.078957	0.362286	0.046781
C36	C	0.578957	0.862286	0.546781
C37	C	0.077335	0.289835	0.046882
C38	C	0.577335	0.789835	0.546882
C39	C	0.138027	0.248465	-0.009539
C40	C	0.638027	0.748465	0.490461
C41	C	0.200327	0.279556	-0.066073
C42	C	0.700327	0.779556	0.433927
C43	C	0.201942	0.352008	-0.066176
C44	C	0.701942	0.852008	0.433824
C45	C	0.141253	0.393371	-0.009740
C46	C	0.641253	0.893371	0.490260
C47	C	0.135488	0.133695	-0.077623
C48	C	0.635488	0.633695	0.422377
C49	C	0.133889	0.061238	-0.077520
C50	C	0.633889	0.561238	0.422480
C51	C	0.133859	0.061211	0.058972
C52	C	0.633859	0.561211	0.558972
C53	C	0.135468	0.133665	0.058866
C54	C	0.635468	0.633665	0.558866
C55	C	0.136277	0.169903	-0.009433
C56	C	0.636277	0.669903	0.490567
C57	C	-0.052270	0.825431	0.003458
C58	C	0.447730	1.325431	0.503458
C59	C	-0.168780	0.823722	0.011408
C60	C	0.331220	1.323722	0.511408
C61	C	-0.333014	0.821315	0.090854
C62	C	0.166986	1.321315	0.590854
C63	C	-0.223542	0.822918	0.083385
C64	C	0.276458	1.322918	0.583385
C65	C	-0.223499	0.822920	-0.053105
C66	C	0.276501	1.322920	0.446895
C67	C	-0.332971	0.821317	-0.045637
C68	C	0.167029	1.321317	0.454363
C69	C	-0.387725	0.820515	0.026345
C70	C	0.112275	1.320515	0.526345
C71	C	-0.497201	0.818917	0.033813
C72	C	0.002799	1.318917	0.533813
C73	C	-0.497155	0.818914	-0.102677
C74	C	0.002845	1.318914	0.397323
C75	C	-0.387682	0.820518	-0.110145
C76	C	0.112318	1.320518	0.389855
C77	C	0.331570	0.816406	-0.022746
C78	C	0.831570	1.316406	0.477254
C79	C	0.448081	0.818115	-0.030701
C80	C	0.948081	1.318115	0.469299
C81	C	0.131370	0.947886	-0.009096
C82	C	0.631370	1.447886	0.490904
C83	C	0.133065	1.024999	-0.009226
C84	C	0.633065	1.524999	0.490774
N85	N	0.139680	0.820922	-0.187800
N86	N	0.639680	1.320922	0.312200
C87	C	0.203250	0.863131	-0.796453
C88	C	0.703250	1.363131	-0.296453
C89	C	0.203254	0.863137	-0.717651
C90	C	0.703254	1.363137	-0.217651
C91	C	0.139634	0.820918	-0.673886
C92	C	0.639634	1.320918	-0.173886
C93	C	0.075984	0.778704	-0.708927
C94	C	0.575984	1.278704	-0.208927
C95	C	0.075973	0.778706	-0.787726
C96	C	0.575973	1.278706	-0.287726
C97	C	0.136816	0.758299	-0.548840
C98	C	0.636816	1.258299	-0.048840
C99	C	0.136834	0.758296	-0.470042
C100	C	0.636834	1.258296	0.029958
C101	C	0.139660	0.820914	-0.430841
C102	C	0.639660	1.320914	0.069159
C103	C	0.142490	0.883536	-0.470449
C104	C	0.642490	1.383536	0.029551
C105	C	0.142479	0.883537	-0.549249
C106	C	0.642479	1.383537	-0.049249
C107	C	0.139637	0.820912	-0.588440
C108	C	0.639637	1.320912	-0.088440
C109	C	0.203305	0.863134	-0.310364
C110	C	0.703305	1.363134	0.189636
C111	C	0.203302	0.863141	-0.231560
C112	C	0.703302	1.363141	0.268440
C113	C	0.076038	0.778702	-0.222837
C114	C	0.576038	1.278702	0.277163
C115	C	0.076035	0.778702	-0.301639
C116	C	0.576035	1.278702	0.198361
C117	C	0.139674	0.820917	-0.345398
C118	C	0.639674	1.320917	0.154602
N119	N	0.139612	0.820921	0.168515
N120	N	0.639612	1.320921	0.668515
H121	H	0.146079	0.610079	0.113762
H122	H	0.646079	1.110079	0.613762
H123	H	0.024219	0.744326	-0.330162
H124	H	0.524219	1.244326	0.169838
H125	H	-0.377597	0.820667	0.149464
H126	H	0.122403	1.320667	0.649464
H127	H	0.143141	0.478633	0.113941
H128	H	0.643141	0.978633	0.613941
N129	N	0.265788	0.234945	-0.126935
N130	N	0.765788	0.734945	0.373065
H131	H	0.342781	0.241129	-0.125222
H132	H	0.842781	0.741129	0.374778
H133	H	0.243031	0.249513	-0.178036
H134	H	0.743031	0.749513	0.321964
N135	N	-0.164529	0.823779	0.152962
N136	N	0.335471	1.323779	0.652962
H137	H	-0.215831	0.823028	0.199692
H138	H	0.284169	1.323028	0.699692
H139	H	-0.127825	0.867451	0.153425
H140	H	0.372175	1.367451	0.653425
H141	H	-0.178898	0.823571	-0.111709
H142	H	0.321102	1.323571	0.388291
N143	N	0.007405	0.733174	-0.175641
N144	N	0.507405	1.233174	0.324359
H145	H	-0.032914	0.706434	-0.209795
H146	H	0.467086	1.206434	0.290205
H147	H	-0.043941	0.763380	-0.139445
H148	H	0.456059	1.263380	0.360555
N149	N	-0.328671	0.821368	-0.187797
N150	N	0.171329	1.321368	0.312203
H151	H	-0.339039	0.778079	-0.216897
H152	H	0.160961	1.278079	0.283103
H153	H	-0.251031	0.822525	-0.182717
H154	H	0.248969	1.322525	0.317283
H155	H	0.134535	0.707306	-0.437799
H156	H	0.634535	1.207306	0.062201
N157	N	0.133761	0.690758	-0.591117
N158	N	0.633761	1.190758	-0.091117
H159	H	0.131979	0.651089	-0.554071
H160	H	0.631979	1.151089	-0.054071
H161	H	0.198665	0.681947	-0.628253
H162	H	0.698665	1.181947	-0.128253
N163	N	-0.556165	0.818059	-0.172260
N164	N	-0.056165	1.318059	0.327740
H165	H	-0.633825	0.816924	-0.156609
H166	H	-0.133825	1.316924	0.343391
H167	H	-0.528310	0.775334	-0.203959
H168	H	-0.028310	1.275334	0.296041
H169	H	0.255066	0.897509	-0.832076
H170	H	0.755066	1.397509	-0.332076
H171	H	0.255078	0.897510	-0.689123
H172	H	0.755078	1.397510	-0.189123
H173	H	-0.541781	0.818266	0.092424
H174	H	-0.041781	1.318266	0.592424
N175	N	0.145526	0.951073	-0.591970
N176	N	0.645526	1.451073	-0.091970
H177	H	0.147318	0.990744	-0.555185
H178	H	0.647318	1.490744	-0.055185
H179	H	0.080611	0.959882	-0.620222
H180	H	0.580611	1.459882	-0.120222
H181	H	0.144797	0.934525	-0.438534
H182	H	0.644797	1.434525	0.061466
H183	H	0.029531	0.395964	0.092730
H184	H	0.529531	0.895964	0.592730
N185	N	0.271920	0.908673	-0.357570
N186	N	0.771920	1.408673	0.142430
H187	H	0.323337	0.878523	-0.393777
H188	H	0.823337	1.378523	0.106223
H189	H	0.312161	0.935415	-0.323368
H190	H	0.812161	1.435415	0.176632
N191	N	0.271904	0.908696	-0.193769
N192	N	0.771904	1.408696	0.306231
H193	H	0.312205	0.935443	-0.233449
H194	H	0.812205	1.435443	0.266551
H195	H	0.323266	0.878519	-0.164570
H196	H	0.823266	1.378519	0.335430
N197	N	0.007342	0.733172	-0.825519
N198	N	0.507342	1.233172	-0.325519
H199	H	-0.044076	0.763324	-0.854700
H200	H	0.455924	1.263324	-0.354700
H201	H	-0.032896	0.706434	-0.785798
H202	H	0.467104	1.206434	-0.285798
N203	N	0.007360	0.733172	-0.661724
N204	N	0.507360	1.233172	-0.161724
H205	H	0.053106	0.699254	-0.632157
H206	H	0.553106	1.199254	-0.132157
H207	H	-0.032949	0.706478	-0.695924
H208	H	0.467051	1.206478	-0.195924
N209	N	0.146303	0.619718	-0.151915
N210	N	0.646303	1.119718	0.348085
H211	H	0.145551	0.585783	-0.195097
H212	H	0.645551	1.085783	0.304903
H213	H	0.212025	0.644331	-0.159378
H214	H	0.712025	1.144331	0.340622
N215	N	0.132960	0.022129	0.132633
N216	N	0.632960	0.522129	0.632633
H217	H	0.198283	0.029280	0.158012
H218	H	0.698283	0.529280	0.658012
H219	H	0.131775	-0.029248	0.122290
H220	H	0.631775	0.470752	0.622290
H221	H	0.143180	0.478692	-0.133681
H222	H	0.643180	0.978692	0.366319
H223	H	0.133244	0.031759	-0.133049
H224	H	0.633244	0.531759	0.366951
N225	N	0.269130	0.385544	-0.127147
N226	N	0.769130	0.885544	0.372853
H227	H	0.307334	0.348347	-0.162878
H228	H	0.807334	0.848347	0.337122
H229	H	0.322304	0.411201	-0.103220
H230	H	0.822304	0.911201	0.396780
H231	H	0.136113	0.163145	0.114393
H232	H	0.636113	0.663145	0.614393
N233	N	0.136365	0.172786	-0.151284
N234	N	0.636365	0.672786	0.348716
H235	H	0.135624	0.138851	-0.194467
H236	H	0.635624	0.638851	0.305533
H237	H	0.202086	0.197401	-0.158739
H238	H	0.702086	0.697401	0.341261
H239	H	0.026601	0.264527	0.092912
H240	H	0.526601	0.764527	0.592912
