data_functionalizedCrystal
_audit_creation_method	'MofGen! by Chris Wilmer'
_symmetry_space_group_name_H-M	'P1'
_symmetry_Int_Tables_number	1
_symmetry_cell_setting	triclinic
loop_
_symmetry_equiv_pos_as_xyz
  x,y,z
_cell_length_a	12.645331
_cell_length_b	12.645330
_cell_length_c	19.076919
_cell_angle_alpha	92.276250
_cell_angle_beta	92.287736
_cell_angle_gamma	90.016927
loop_
_atom_site_label
_atom_site_type_symbol
_atom_site_fract_x
_atom_site_fract_y
_atom_site_fract_z
Zn1	Zn	1.596601	-0.446159	-0.397850
Zn2	Zn	1.603620	-0.616316	-0.280165
Zn3	Zn	1.426452	-0.439066	-0.280182
Zn4	Zn	1.419298	-0.623377	-0.397835
O5	O	1.511493	-0.531229	-0.339008
O6	O	1.745879	-0.468744	-0.382238
O7	O	1.586050	-0.586880	-0.181677
O8	O	1.449079	-0.291660	-0.295805
O9	O	1.751036	-0.593757	-0.295775
O10	O	1.574086	-0.296871	-0.382255
O11	O	1.455886	-0.456655	-0.181690
O12	O	1.277156	-0.463502	-0.295790
O13	O	1.436886	-0.605792	-0.496327
O14	O	1.271900	-0.598915	-0.382229
O15	O	1.567149	-0.475591	-0.496338
O16	O	1.579113	-0.765599	-0.295761
O17	O	1.443692	-0.770787	-0.382212
C18	C	1.236063	-0.531205	-0.339010
C19	C	1.118232	-0.531222	-0.339027
C20	C	0.947414	-0.616842	-0.393123
C21	C	1.069960	-0.616590	-0.393349
C22	C	1.072525	-0.420795	-0.359291
C23	C	0.949903	-0.421320	-0.359672
C24	C	0.955507	-0.555119	-0.264497
C25	C	1.078088	-0.557585	-0.264899
C26	C	1.511416	-0.806658	-0.338998
C27	C	1.511479	-0.924490	-0.339017
C28	C	1.426613	-1.095372	-0.393572
C29	C	1.426206	-0.972802	-0.393397
C30	C	1.485732	-0.964589	-0.264846
C31	C	1.485214	-1.087208	-0.265177
C32	C	1.622626	-1.092733	-0.358033
C33	C	1.621840	-0.970224	-0.359655
C34	C	1.787998	-0.531254	-0.339007
C35	C	1.905828	-0.531265	-0.339006
C36	C	1.500436	-0.542270	-0.522584
C37	C	1.495725	-0.546975	-0.600813
C38	C	1.511598	-0.254726	-0.339033
C39	C	1.511642	-0.136896	-0.339044
C40	C	1.561329	-0.481400	-0.637572
C41	C	1.556889	-0.485816	-0.711076
C42	C	1.486850	-0.555815	-0.747820
C43	C	1.421238	-0.621393	-0.711056
C44	C	1.425674	-0.616970	-0.637553
C45	C	1.466308	-0.576307	-0.967650
C46	C	1.461879	-0.580727	-1.041159
C47	C	1.597530	-0.445148	-1.041174
C48	C	1.601963	-0.440736	-0.967669
C49	C	1.536348	-0.506310	-0.930912
N50	N	1.482312	-0.560334	-0.822954
N51	N	1.540881	-0.501785	-0.855779
C52	C	1.522567	-0.520155	-0.156146
C53	C	1.527484	-0.515151	-0.077918
H54	H	0.928935	-0.492730	-0.224175
C55	C	1.377132	-1.123965	-0.243752
C56	C	1.312913	-1.035776	-0.230627
C57	C	1.213334	-1.069590	-0.210899
H58	H	1.384922	-1.163312	-0.202475
H59	H	1.345343	-1.167366	-0.280561
H60	H	1.344695	-0.992392	-0.193821
H61	H	1.305092	-0.996419	-0.271895
H62	H	1.181545	-1.112991	-0.247708
H63	H	1.221135	-1.108937	-0.169623
H64	H	1.169747	-1.009760	-0.201997
C65	C	1.446931	-0.937240	-0.466787
C66	C	1.459944	-1.026175	-0.511687
C67	C	1.479012	-0.993464	-0.579306
H68	H	1.509324	-0.895240	-0.465439
H69	H	1.388628	-0.896736	-0.483553
H70	H	1.518242	-1.066663	-0.494926
H71	H	1.397561	-1.068186	-0.513057
H72	H	1.420709	-0.952959	-0.596071
H73	H	1.541404	-0.951463	-0.577950
H74	H	1.487834	-1.053800	-0.609780
H75	H	1.404842	-0.637731	-1.071074
H76	H	1.641338	-0.944381	-0.414241
C77	C	1.637407	-0.405291	-0.597809
C78	C	1.693888	-0.348788	-0.645737
C79	C	1.763969	-0.278653	-0.609136
H80	H	1.685407	-0.444001	-0.569130
H81	H	1.598624	-0.357316	-0.569153
H82	H	1.732668	-0.396756	-0.674380
H83	H	1.645916	-0.310056	-0.674417
H84	H	1.725186	-0.230678	-0.580480
H85	H	1.811962	-0.317372	-0.580458
H86	H	1.802292	-0.240300	-0.641649
H87	H	1.103973	-0.355496	-0.321106
H88	H	1.544702	-1.114320	-0.223165
C89	C	0.902155	-0.596565	-0.466368
C90	C	0.985047	-0.578998	-0.511034
C91	C	0.943402	-0.560313	-0.578513
H92	H	0.857712	-0.536051	-0.464584
H93	H	0.862131	-0.656337	-0.483632
H94	H	1.025054	-0.519232	-0.493774
H95	H	1.029498	-0.639501	-0.512838
H96	H	0.903378	-0.620085	-0.595777
H97	H	0.898959	-0.499800	-0.576722
H98	H	0.999638	-0.548401	-0.608829
H99	H	1.610314	-0.432420	-0.741002
H100	H	1.650949	-0.391760	-1.071110
H101	H	1.646992	-1.126798	-0.411199
H102	H	1.405608	-0.932985	-0.248468
C103	C	1.710214	-0.926517	-0.310446
C104	C	1.691312	-0.953960	-0.241666
C105	C	1.772703	-0.913727	-0.196310
H106	H	1.712533	-0.851647	-0.312678
H107	H	1.775932	-0.955497	-0.324098
H108	H	1.625612	-0.924975	-0.228017
H109	H	1.689004	-1.028823	-0.239411
H110	H	1.838421	-0.942707	-0.209962
H111	H	1.775015	-0.838859	-0.198548
H112	H	1.759894	-0.932349	-0.149639
H113	H	1.412894	-0.629717	-0.937731
H114	H	1.099982	-0.399558	-0.413170
H115	H	1.364207	-0.678384	-0.740979
H116	H	1.372241	-0.670358	-0.607625
C117	C	0.907594	-0.393681	-0.432355
C118	C	0.992462	-0.376659	-0.475512
C119	C	0.953533	-0.351213	-0.542477
H120	H	0.865990	-0.331293	-0.428955
H121	H	0.865233	-0.450371	-0.451913
H122	H	1.034805	-0.319974	-0.455959
H123	H	1.034074	-0.439035	-0.478933
H124	H	0.911172	-0.407903	-0.562035
H125	H	0.911929	-0.288826	-0.539070
H126	H	1.011109	-0.339669	-0.571769
C127	C	0.915901	-0.660449	-0.240028
C128	C	0.944146	-0.741528	-0.287772
C129	C	0.907695	-0.838579	-0.265259
H130	H	0.841071	-0.658345	-0.237405
H131	H	0.946864	-0.673397	-0.194992
H132	H	0.913178	-0.728584	-0.332796
H133	H	1.018970	-0.743667	-0.290401
H134	H	0.938658	-0.851527	-0.220223
H135	H	0.832866	-0.836464	-0.262637
H136	H	0.926862	-0.893604	-0.297646
H137	H	1.442016	-1.128127	-0.448750
H138	H	0.918684	-0.699154	-0.380563
C139	C	1.111019	-0.726047	-0.376560
C140	C	1.070744	-0.800120	-0.427251
C141	C	1.108547	-0.900966	-0.411816
H142	H	1.088870	-0.744152	-0.331569
H143	H	1.186141	-0.726106	-0.376708
H144	H	0.995638	-0.800064	-0.427095
H145	H	1.092890	-0.782050	-0.472246
H146	H	1.183669	-0.901026	-0.411964
H147	H	1.086396	-0.919061	-0.366824
H148	H	1.081234	-0.951236	-0.446210
C149	C	0.913574	-0.333646	-0.309411
C150	C	1.002027	-0.280438	-0.278833
C151	C	0.968607	-0.199655	-0.232542
H152	H	0.874007	-0.363347	-0.273723
H153	H	0.870480	-0.285224	-0.334445
H154	H	1.045104	-0.328852	-0.253800
H155	H	1.041605	-0.250714	-0.314503
H156	H	0.925513	-0.151233	-0.257576
H157	H	0.929039	-0.229365	-0.196859
H158	H	1.028616	-0.163537	-0.211794
H159	H	1.095960	-0.601160	-0.448557
H160	H	1.108098	-0.638821	-0.249616
H161	H	1.659000	-0.383739	-0.937757
C162	C	1.122229	-0.480130	-0.208146
C163	C	1.084435	-0.506617	-0.143106
C164	C	1.125067	-0.435276	-0.090812
H165	H	1.100329	-0.410411	-0.218466
H166	H	1.197337	-0.483503	-0.206464
H167	H	1.009342	-0.503234	-0.144789
H168	H	1.106332	-0.576325	-0.132763
H169	H	1.200175	-0.438649	-0.089130
H170	H	1.103164	-0.365561	-0.101139
H171	H	1.099437	-0.453243	-0.046676
C172	C	1.317544	-1.135769	-0.376997
C173	C	1.317505	-1.246577	-0.380448
C174	C	1.217056	-1.283830	-0.365171
H175	H	1.266546	-1.110437	-0.410156
H176	H	1.300437	-1.111220	-0.331122
H177	H	1.334599	-1.271116	-0.426316
H178	H	1.368481	-1.271938	-0.347290
H179	H	1.199950	-1.259280	-0.319296
H180	H	1.166067	-1.258490	-0.398332
H181	H	1.217019	-1.359015	-0.367504
H182	H	1.343837	-0.942803	-0.380817
H183	H	1.545899	-0.932903	-0.223109
H184	H	1.685920	-1.119315	-0.318318
