data_functionalizedCrystal
_audit_creation_method	'MofGen! by Chris Wilmer'
_symmetry_space_group_name_H-M	'P1'
_symmetry_Int_Tables_number	1
_symmetry_cell_setting	triclinic
loop_
_symmetry_equiv_pos_as_xyz
  x,y,z
_cell_length_a	13.032831
_cell_length_b	13.032721
_cell_length_c	13.033388
_cell_angle_alpha	76.692903
_cell_angle_beta	89.094871
_cell_angle_gamma	90.902885
loop_
_atom_site_label
_atom_site_type_symbol
_atom_site_fract_x
_atom_site_fract_y
_atom_site_fract_z
Zn1	Zn	1.399151	-0.703158	0.857486
Zn2	Zn	1.899151	-0.203158	1.357486
Zn3	Zn	1.399091	-0.858177	0.702419
Zn4	Zn	1.899091	-0.358177	1.202419
Zn5	Zn	1.255201	-0.659617	0.658986
Zn6	Zn	1.755201	-0.159617	1.158986
Zn7	Zn	1.206084	-0.852598	0.851929
Zn8	Zn	1.706084	-0.352598	1.351929
O9	O	1.314882	-0.768387	0.767705
O10	O	1.814882	-0.268387	1.267705
O11	O	1.540161	-0.744279	0.857418
O12	O	2.040161	-0.244279	1.357418
O13	O	1.400534	-0.815950	0.551014
O14	O	1.900534	-0.315950	1.051014
O15	O	1.294877	-0.519753	0.669466
O16	O	1.794877	-0.019753	1.169466
O17	O	1.540117	-0.858171	0.743491
O18	O	2.040117	-0.358171	1.243491
O19	O	1.400637	-0.551743	0.815303
O20	O	1.900637	-0.051743	1.315303
O21	O	1.294819	-0.670069	0.519104
O22	O	1.794819	-0.170069	1.019104
O23	O	1.107667	-0.664658	0.664078
O24	O	1.607667	-0.164658	1.164078
O25	O	1.211164	-0.848662	0.998309
O26	O	1.711164	-0.348662	1.498309
O27	O	1.071582	-0.806441	0.805833
O28	O	1.571582	-0.306441	1.305833
O29	O	1.353010	-0.738869	1.002392
O30	O	1.853010	-0.238869	1.502392
O31	O	1.352908	-1.003076	0.738103
O32	O	1.852908	-0.503076	1.238103
O33	O	1.211106	-0.998977	0.847947
O34	O	1.711106	-0.498977	1.347947
C35	C	1.053060	-0.730220	0.729640
C36	C	1.553060	-0.230220	1.229640
C37	C	0.941044	-0.713920	0.713383
C38	C	1.441044	-0.213920	1.213383
C39	C	0.873276	-0.776895	0.776189
C40	C	1.373276	-0.276895	1.276189
C41	C	0.757502	-0.760049	0.759389
C42	C	1.257502	-0.260049	1.259389
C43	C	1.276695	-1.038796	0.797162
C44	C	1.776695	-0.538796	1.297162
C45	C	1.260446	-1.154494	0.809811
C46	C	1.760446	-0.654494	1.309811
C47	C	1.323409	-1.208083	0.761157
C48	C	1.823409	-0.708083	1.261157
C49	C	1.306617	-1.327664	0.774230
C50	C	1.806617	-0.827664	1.274230
C51	C	1.577726	-0.806705	0.805919
C52	C	2.077726	-0.306705	1.305919
C53	C	1.689734	-0.823033	0.822203
C54	C	2.189734	-0.323033	1.322203
C55	C	1.276615	-0.798000	1.039170
C56	C	1.776615	-0.298000	1.539170
C57	C	1.260308	-0.810619	1.154852
C58	C	1.760308	-0.310619	1.654852
C59	C	1.353242	-0.496930	0.738160
C60	C	1.853242	0.003070	1.238160
C61	C	1.369589	-0.381251	0.725570
C62	C	1.869589	0.118749	1.225570
C63	C	1.306380	-0.774972	1.328014
C64	C	1.806380	-0.274972	1.828014
C65	C	1.323230	-0.761920	1.208448
C66	C	1.823230	-0.261920	1.708448
C67	C	1.352988	-0.738909	1.497296
C68	C	1.852988	-0.238909	1.997296
C69	C	1.369293	-0.726280	1.381612
C70	C	1.869293	-0.226280	1.881612
H71	H	0.913352	-0.647530	0.647179
H72	H	1.413352	-0.147530	1.147179
H73	H	1.194111	-1.197145	0.861149
H74	H	1.694111	-0.697145	1.361149
H75	H	1.389567	-0.710561	1.165821
H76	H	1.889567	-0.210561	1.665821
H77	H	1.240041	-0.826318	1.370643
H78	H	1.740041	-0.326318	1.870643
H79	H	1.193958	-0.861961	1.197474
H80	H	1.693958	-0.361961	1.697474
H81	H	1.389751	-1.165437	0.709828
H82	H	1.889751	-0.665437	1.209828
O83	O	1.448315	-0.664927	1.330627
O84	O	1.948315	-0.164927	1.830627
C85	C	1.409230	-0.582512	1.252118
C86	C	1.909230	-0.082512	1.752118
H87	H	1.329940	-0.606337	1.228830
H88	H	1.829940	-0.106337	1.728830
H89	H	1.462949	-0.566248	1.180078
H90	H	1.962949	-0.066248	1.680078
H91	H	1.403195	-0.508311	1.283960
H92	H	1.903195	-0.008311	1.783960
H93	H	0.900969	-0.843278	0.842401
H94	H	1.400969	-0.343278	1.342401
H95	H	0.717420	-0.889419	0.888422
H96	H	1.217420	-0.389419	1.388422
O97	O	0.724307	-0.680932	0.680407
O98	O	1.224307	-0.180932	1.180407
C99	C	0.616103	-0.681720	0.681219
C100	C	1.116103	-0.181720	1.181219
H101	H	0.585707	-0.763733	0.721891
H102	H	1.085707	-0.263733	1.221891
H103	H	0.588003	-0.660264	0.596712
H104	H	1.088003	-0.160264	1.096712
H105	H	0.587101	-0.621802	0.725708
H106	H	1.087101	-0.121802	1.225708
H107	H	1.435935	-1.338607	0.674237
H108	H	1.935935	-0.838607	1.174237
O109	O	1.227494	-1.378686	0.835402
O110	O	1.727494	-0.878686	1.335402
C111	C	1.228352	-1.486726	0.834853
C112	C	1.728352	-0.986726	1.334853
H113	H	1.270682	-1.497531	0.760968
H114	H	1.770682	-0.997531	1.260968
H115	H	1.146097	-1.517951	0.835377
H116	H	1.646097	-1.017951	1.335377
H117	H	1.268969	-1.532059	0.907768
H118	H	1.768969	-1.032059	1.407768
