data_functionalizedCrystal
_audit_creation_method	'MofGen! by Chris Wilmer'
_symmetry_space_group_name_H-M	'P1'
_symmetry_Int_Tables_number	1
_symmetry_cell_setting	triclinic
loop_
_symmetry_equiv_pos_as_xyz
  x,y,z
_cell_length_a	15.944551
_cell_length_b	15.021413
_cell_length_c	15.944551
_cell_angle_alpha	89.996935
_cell_angle_beta	83.498738
_cell_angle_gamma	90.002826
loop_
_atom_site_label
_atom_site_type_symbol
_atom_site_fract_x
_atom_site_fract_y
_atom_site_fract_z
O1	O	-1.114529	-0.073941	-0.108321
O2	O	-0.869979	-0.073964	-0.121677
O3	O	-0.998932	-0.073944	0.007276
O4	O	-0.985576	-0.073961	-0.237274
O5	O	-0.998912	0.074121	0.007257
O6	O	-0.869959	0.074101	-0.121695
O7	O	-1.114508	0.074123	-0.108339
Zn8	Zn	-0.992230	0.097620	-0.115020
Zn9	Zn	-0.992257	-0.097461	-0.114996
O10	O	-0.985555	0.074103	-0.237292
C11	C	-0.838675	0.000066	-0.121132
C12	C	-0.745429	0.000057	-0.119470
N13	N	-0.992218	0.230758	-0.115036
C14	C	-0.998367	0.000089	0.038561
C15	C	-0.996705	0.000089	0.131807
C16	C	-1.145813	0.000092	-0.108885
C17	C	-1.239059	0.000094	-0.110547
C18	C	-0.530572	0.000081	-0.035565
C19	C	-0.469562	-0.072926	-0.074518
C20	C	-0.574703	0.000068	-0.116462
C21	C	-0.469564	0.073054	-0.074556
C22	C	-0.409790	0.000083	-0.113551
C23	C	-0.514921	-0.072998	-0.155438
C24	C	-0.514930	0.073047	-0.155464
C25	C	-0.453937	0.000023	-0.194476
C26	C	-0.669705	0.000059	-0.118137
C27	C	-0.314789	0.000085	-0.111883
N28	N	-0.992276	-0.230598	-0.114973
C29	C	-0.932581	0.470432	-0.174636
C30	C	-1.008481	0.529772	-0.190943
C31	C	-0.992239	0.412365	-0.115015
C32	C	-0.916360	0.529766	-0.098727
C33	C	-0.992253	0.587789	-0.114997
C34	C	-1.068178	0.470398	-0.131360
C35	C	-0.976006	0.470387	-0.039111
C36	C	-1.051962	0.529701	-0.055386
C37	C	-0.992230	0.311307	-0.115028
C38	C	-0.992271	0.688844	-0.114984
C39	C	-0.986120	0.000069	-0.268577
C40	C	-0.987782	0.000063	-0.361823
C41	C	-0.912801	0.000069	0.346663
C42	C	-0.951753	0.073077	0.407672
C43	C	-0.993698	0.000082	0.302533
C44	C	-0.951792	-0.072903	0.407673
C45	C	-0.990787	0.000071	0.467445
C46	C	-1.032672	0.073150	0.362313
C47	C	-1.032700	-0.072895	0.362308
C48	C	-1.071711	0.000131	0.423298
C49	C	-0.995372	0.000089	0.207530
C50	C	-0.989119	0.000070	0.562446
H51	H	-0.563905	-0.000005	0.031573
H52	H	-0.852184	0.555847	-0.084959
H53	H	-1.022224	0.555856	-0.255126
N54	N	-0.828562	0.000155	0.304886
N55	N	-0.779594	0.062739	0.316735
H56	H	-0.720102	0.062803	0.287230
N57	N	-0.869356	0.437793	-0.237941
N58	N	-0.872763	0.456852	-0.313793
H59	H	-0.828114	0.433801	-0.358504
N60	N	-1.148703	0.437815	-0.148722
N61	N	-1.161683	0.355863	-0.151559
H62	H	-1.218552	0.332848	-0.163822
N63	N	-0.958748	0.437646	0.041386
N64	N	-0.945794	0.490999	0.098685
H65	H	-0.933598	0.467876	0.155537
N66	N	-0.412346	-0.000039	-0.278788
N67	N	-0.424064	-0.062780	-0.327622
H68	H	-0.394690	-0.062828	-0.387167
H69	H	-1.102474	0.555561	-0.004956
H70	H	-0.917528	0.134794	0.427772
N71	N	-0.908872	-0.150341	0.432869
N72	N	-0.935688	-0.226107	0.417437
H73	H	-0.905371	-0.280796	0.435228
H74	H	-1.066851	0.134941	0.342314
H75	H	-0.535052	0.134767	-0.189659
N76	N	-1.156024	0.000194	0.464889
N77	N	-1.204858	0.062935	0.453167
H78	H	-1.264404	0.062984	0.482540
N79	N	-1.075609	-0.150320	0.337074
N80	N	-1.104420	-0.205962	0.391118
H81	H	-1.134719	-0.260651	0.373297
N82	N	-0.444358	-0.150351	-0.031582
N83	N	-0.472128	-0.163358	0.043912
H84	H	-0.454334	-0.218039	0.074241
H85	H	-0.449470	0.134773	-0.040332
N86	N	-0.540010	-0.150497	-0.198337
N87	N	-0.616159	-0.163020	-0.206517
H88	H	-0.633881	-0.217749	-0.236819
