data_functionalizedCrystal
_audit_creation_method	'MofGen! by Chris Wilmer'
_symmetry_space_group_name_H-M	'P1'
_symmetry_Int_Tables_number	1
_symmetry_cell_setting	triclinic
loop_
_symmetry_equiv_pos_as_xyz
  x,y,z
_cell_length_a	14.971475
_cell_length_b	14.971506
_cell_length_c	8.140239
_cell_angle_alpha	90.001941
_cell_angle_beta	89.998156
_cell_angle_gamma	96.383967
loop_
_atom_site_label
_atom_site_type_symbol
_atom_site_fract_x
_atom_site_fract_y
_atom_site_fract_z
O1	O	-1.186957	0.116514	0.136574
O2	O	-0.686957	0.616514	0.636574
O3	O	-0.926557	0.130483	0.136584
O4	O	-0.426557	0.630483	0.636584
O5	O	-1.063727	-0.006701	0.136574
O6	O	-0.563727	0.493299	0.636574
O7	O	-1.049787	0.253697	0.136584
O8	O	-0.549787	0.753697	0.636584
O9	O	-1.063719	-0.006702	-0.136653
O10	O	-0.563719	0.493298	0.363347
O11	O	-0.926549	0.130481	-0.136643
O12	O	-0.426549	0.630481	0.363357
O13	O	-1.186949	0.116512	-0.136653
O14	O	-0.686949	0.616512	0.363347
Zn15	Zn	-1.056748	0.123496	-0.180029
Zn16	Zn	-0.556748	0.623496	0.319971
Zn17	Zn	-1.056758	0.123499	0.179960
Zn18	Zn	-0.556758	0.623499	0.679960
O19	O	-1.049779	0.253696	-0.136644
O20	O	-0.549779	0.753696	0.363356
C21	C	-0.893228	0.129859	-0.000028
C22	C	-0.393228	0.629859	0.499972
C23	C	-0.793930	0.127992	-0.000024
C24	C	-0.293930	0.627992	0.499976
C25	C	-0.747281	0.127112	-0.148962
C26	C	-0.247281	0.627112	0.351038
C27	C	-0.653982	0.125344	-0.148963
C28	C	-0.153982	0.625344	0.351037
C29	C	-0.607333	0.124462	-0.000024
C30	C	-0.107333	0.624462	0.499976
C31	C	-0.653989	0.125339	0.148925
C32	C	-0.153989	0.625339	0.648925
C33	C	-0.747287	0.127101	0.148924
C34	C	-0.247287	0.627101	0.648924
C35	C	-0.459526	0.121669	0.148916
C36	C	0.040474	0.621669	0.648916
C37	C	-0.366221	0.119909	0.148917
C38	C	0.133779	0.619909	0.648917
C39	C	-0.366221	0.119911	-0.148970
C40	C	0.133779	0.619911	0.351030
C41	C	-0.459519	0.121673	-0.148971
C42	C	0.040481	0.621673	0.351029
C43	C	-0.506169	0.122552	-0.000022
C44	C	-0.006169	0.622552	0.499978
C45	C	-1.063096	-0.040026	-0.000037
C46	C	-0.563096	0.459974	0.499963
C47	C	-1.061218	-0.139322	-0.000029
C48	C	-0.561218	0.360678	0.499971
C49	C	-1.134637	-0.577607	-0.000033
C50	C	-0.634637	-0.077607	0.499967
C51	C	-1.136394	-0.484307	-0.000044
C52	C	-0.636394	0.015693	0.499956
C53	C	-1.055802	-0.427084	-0.000035
C54	C	-0.555802	0.072916	0.499965
C55	C	-0.973446	-0.463166	-0.000032
C56	C	-0.473446	0.036834	0.499968
C57	C	-0.971689	-0.556464	-0.000033
C58	C	-0.471689	-0.056464	0.499967
C59	C	-0.977113	-0.268703	-0.000026
C60	C	-0.477113	0.231297	0.499974
C61	C	-0.978869	-0.175398	-0.000022
C62	C	-0.478869	0.324602	0.499978
C63	C	-1.141818	-0.196546	-0.000036
C64	C	-0.641818	0.303454	0.499964
C65	C	-1.140061	-0.289844	-0.000037
C66	C	-0.640061	0.210156	0.499963
C67	C	-1.057705	-0.325919	-0.000032
C68	C	-0.557705	0.174081	0.499968
C69	C	-0.220277	0.117142	-0.000035
C70	C	0.279723	0.617142	0.499965
C71	C	-0.319573	0.119029	-0.000020
C72	C	0.180427	0.619029	0.499980
C73	C	-1.050410	0.287021	-0.000029
C74	C	-0.550410	0.787021	0.499971
C75	C	-1.052288	0.386317	-0.000025
C76	C	-0.552288	0.886317	0.499975
N77	N	-1.056748	0.123495	-0.425711
N78	N	-0.556748	0.623495	0.074289
N79	N	-1.056765	0.123493	0.425642
N80	N	-0.556765	0.623493	0.925642
H81	H	-0.328242	0.119191	0.270196
H82	H	0.171758	0.619191	0.770196
Br83	Br	-0.810599	0.128288	0.351061
Br84	Br	-0.310599	0.628288	0.851061
H85	H	-0.328235	0.119196	-0.270251
H86	H	0.171765	0.619196	0.229749
Br87	Br	-0.859925	-0.605425	-0.000040
Br88	Br	-0.359925	-0.105425	0.499960
H89	H	-0.497505	0.122385	0.270207
H90	H	0.002495	0.622385	0.770207
Br91	Br	-0.869492	-0.097737	-0.000026
Br92	Br	-0.369492	0.402263	0.499974
Br93	Br	-0.590674	0.124164	-0.351101
Br94	Br	-0.090674	0.624164	0.148899
Br95	Br	-1.253587	-0.147589	-0.000036
Br96	Br	-0.753587	0.352411	0.499964
H97	H	-0.910050	-0.298071	-0.000044
H98	H	-0.410050	0.201929	0.499956
H99	H	-1.205687	-0.336434	-0.000034
H100	H	-0.705687	0.163566	0.499966
Br101	Br	-0.590686	0.124103	0.351058
Br102	Br	-0.090686	0.624103	0.851058
Br103	Br	-0.864068	-0.385507	-0.000033
Br104	Br	-0.364068	0.114493	0.499967
H105	H	-1.203451	-0.454940	-0.000052
H106	H	-0.703451	0.045060	0.499948
Br107	Br	-0.810580	0.128318	-0.351104
Br108	Br	-0.310580	0.628318	0.148896
Br109	Br	-1.244019	-0.655259	-0.000026
Br110	Br	-0.744019	-0.155259	0.499974
Br111	Br	-0.522827	0.122884	-0.351104
Br112	Br	-0.022827	0.622884	0.148896
