data_functionalizedCrystal
_audit_creation_method	'MofGen! by Chris Wilmer'
_symmetry_space_group_name_H-M	'P1'
_symmetry_Int_Tables_number	1
_symmetry_cell_setting	triclinic
loop_
_symmetry_equiv_pos_as_xyz
  x,y,z
_cell_length_a	17.699077
_cell_length_b	11.026607
_cell_length_c	16.176319
_cell_angle_alpha	89.997745
_cell_angle_beta	90.006844
_cell_angle_gamma	95.933297
loop_
_atom_site_label
_atom_site_type_symbol
_atom_site_fract_x
_atom_site_fract_y
_atom_site_fract_z
O1	O	1.025152	0.153353	0.068733
O2	O	1.358486	0.486686	0.402066
O3	O	1.691819	0.820020	0.735400
O4	O	0.807516	0.173318	0.068737
O5	O	1.140850	0.506651	0.402070
O6	O	1.474183	0.839985	0.735404
O7	O	0.898297	-0.013264	0.068732
O8	O	1.231630	0.320069	0.402066
O9	O	1.564963	0.653403	0.735399
O10	O	0.934372	0.339935	0.068738
O11	O	1.267705	0.673268	0.402071
O12	O	1.601038	1.006601	0.735404
O13	O	0.898281	-0.013254	-0.068761
O14	O	1.231614	0.320080	0.264572
O15	O	1.564947	0.653413	0.597906
O16	O	0.807500	0.173328	-0.068756
O17	O	1.140833	0.506661	0.264577
O18	O	1.474167	0.839995	0.597910
O19	O	1.025136	0.153363	-0.068760
O20	O	1.358469	0.486696	0.264573
O21	O	1.691803	0.820030	0.597907
Cu22	Cu	0.916317	0.163347	-0.081312
Cu23	Cu	1.249650	0.496680	0.252021
Cu24	Cu	1.582983	0.830013	0.585354
Cu25	Cu	0.916336	0.163334	0.081289
Cu26	Cu	1.249669	0.496668	0.414623
Cu27	Cu	1.583002	0.830001	0.747956
O28	O	0.934356	0.339945	-0.068756
O29	O	1.267689	0.673278	0.264578
O30	O	1.601022	1.006612	0.597911
C31	C	0.779213	0.172609	-0.000009
C32	C	1.112546	0.505942	0.333324
C33	C	1.445880	0.839276	0.666657
C34	C	0.694900	0.170466	-0.000008
C35	C	1.028234	0.503800	0.333326
C36	C	1.361567	0.837133	0.666659
C37	C	0.655285	0.169462	-0.074956
C38	C	0.988619	0.502796	0.258377
C39	C	1.321952	0.836129	0.591710
C40	C	0.576064	0.167430	-0.074957
C41	C	0.909397	0.500763	0.258376
C42	C	1.242730	0.834097	0.591710
C43	C	0.536459	0.166410	-0.000009
C44	C	0.869792	0.499743	0.333325
C45	C	1.203125	0.833077	0.666658
C46	C	0.576079	0.167411	0.074945
C47	C	0.909412	0.500744	0.408279
C48	C	1.242746	0.834077	0.741612
C49	C	0.655299	0.169434	0.074946
C50	C	0.988632	0.502768	0.408279
C51	C	1.321965	0.836101	0.741612
C52	C	0.256594	0.159248	0.074947
C53	C	0.589927	0.492581	0.408280
C54	C	0.923261	0.825914	0.741614
C55	C	0.177369	0.157227	0.074941
C56	C	0.510702	0.490561	0.408274
C57	C	0.844035	0.823894	0.741608
C58	C	0.177359	0.157243	-0.074956
C59	C	0.510692	0.490576	0.258378
C60	C	0.844026	0.823910	0.591711
C61	C	0.256579	0.159267	-0.074956
C62	C	0.589912	0.492600	0.258378
C63	C	0.923245	0.825934	0.591711
C64	C	0.296192	0.160261	-0.000002
C65	C	0.629525	0.493594	0.333331
C66	C	0.962858	0.826927	0.666665
C67	C	0.382093	0.162462	-0.000002
C68	C	0.715426	0.495796	0.333331
C69	C	1.048760	0.829129	0.666665
C70	C	0.450559	0.164217	-0.000008
C71	C	0.783893	0.497551	0.333325
C72	C	1.117226	0.830884	0.666659
C73	C	0.891634	-0.058450	-0.000013
C74	C	1.224967	0.274884	0.333320
C75	C	1.558300	0.608217	0.666653
C76	C	0.871794	-0.193105	-0.000010
C77	C	1.205127	0.140229	0.333323
C78	C	1.538461	0.473562	0.666657
C79	C	0.926574	-0.267074	-0.000010
C80	C	1.259907	0.066260	0.333324
C81	C	1.593241	0.399593	0.666657
C82	C	0.906070	-0.406247	-0.000006
C83	C	1.239404	-0.072913	0.333327
C84	C	1.572737	0.260420	0.666660
C85	C	1.053439	0.154072	-0.000012
C86	C	1.386773	0.487405	0.333321
C87	C	1.720106	0.820739	0.666654
C88	C	1.137752	0.156215	-0.000008
C89	C	1.471085	0.489548	0.333325
C90	C	1.804419	0.822881	0.666658
C91	C	0.941019	0.385131	-0.000008
C92	C	1.274352	0.718464	0.333325
C93	C	1.607685	1.051797	0.666658
C94	C	0.960858	0.519786	-0.000006
C95	C	1.294191	0.853119	0.333327
C96	C	1.627525	1.186452	0.666661
N97	N	0.916309	0.163354	-0.195678
N98	N	1.249642	0.496688	0.137656
N99	N	1.582975	0.830021	0.470989
C100	C	0.956557	0.080728	-0.761062
C101	C	1.289890	0.414062	-0.427729
C102	C	1.623223	0.747395	-0.094396
C103	C	0.956554	0.080737	-0.674515
C104	C	1.289888	0.414070	-0.341182
C105	C	1.623221	0.747403	-0.007848
C106	C	0.916339	0.163329	-0.631253
C107	C	1.249673	0.496662	-0.297920
C108	C	1.583006	0.829996	0.035414
C109	C	0.876130	0.245926	-0.674542
C110	C	1.209463	0.579260	-0.341209
C111	C	1.542796	0.912593	-0.007876
C112	C	0.876137	0.245923	-0.761088
C113	C	1.209470	0.579256	-0.427755
C114	C	1.542804	0.912590	-0.094421
C115	C	0.876101	0.245943	-0.325514
C116	C	1.209435	0.579277	0.007819
C117	C	1.542768	0.912610	0.341152
C118	C	0.876096	0.245938	-0.238963
C119	C	1.209429	0.579271	0.094371
C120	C	1.542762	0.912605	0.427704
C121	C	0.956519	0.080757	-0.238941
C122	C	1.289852	0.414091	0.094392
C123	C	1.623186	0.747424	0.427725
C124	C	0.956526	0.080754	-0.325487
C125	C	1.289859	0.414087	0.007846
C126	C	1.623193	0.747420	0.341180
C127	C	0.916320	0.163355	-0.368769
C128	C	1.249653	0.496688	-0.035435
C129	C	1.582987	0.830022	0.297898
C130	C	0.916324	0.163346	-0.462613
C131	C	1.249657	0.496680	-0.129280
C132	C	1.582991	0.830013	0.204054
C133	C	0.916330	0.163333	-0.537410
C134	C	1.249664	0.496666	-0.204077
C135	C	1.582997	0.829999	0.129256
N136	N	0.916348	0.163317	0.195654
N137	N	1.249682	0.496650	0.528988
N138	N	1.583015	0.829984	0.862321
H139	H	0.288822	0.160103	-0.135986
H140	H	0.622155	0.493437	0.197347
H141	H	0.955488	0.826770	0.530680
F142	F	0.533924	0.166288	0.154712
F143	F	0.867258	0.499621	0.488045
F144	F	1.200591	0.832955	0.821378
F145	F	0.999325	-0.007155	-0.371526
F146	F	1.332658	0.326178	-0.038193
F147	F	1.665991	0.659511	0.295140
H148	H	0.988652	-0.227367	-0.000016
H149	H	1.321986	0.105966	0.333317
H150	H	1.655319	0.439299	0.666651
F151	F	0.697429	0.170556	-0.154728
F152	F	1.030763	0.503889	0.178605
F153	F	1.364096	0.837222	0.511939
F154	F	0.833292	0.333849	-0.192921
F155	F	1.166625	0.667183	0.140412
F156	F	1.499958	1.000516	0.473745
F157	F	0.790651	-0.244997	-0.000001
F158	F	1.123985	0.088337	0.333332
F159	F	1.457318	0.421670	0.666666
H160	H	0.989260	0.013502	-0.203692
H161	H	1.322593	0.346836	0.129641
H162	H	1.655926	0.680169	0.462975
F163	F	0.833310	0.333849	-0.371571
F164	F	1.166643	0.667182	-0.038238
F165	F	1.499976	1.000516	0.295095
F166	F	0.999356	-0.007185	-0.807097
F167	F	1.332689	0.326148	-0.473764
F168	F	1.666022	0.659481	-0.140430
F169	F	0.833333	0.333834	-0.628499
F170	F	1.166667	0.667168	-0.295166
F171	F	1.500000	1.000501	0.038168
H172	H	0.843988	-0.445947	0.000000
H173	H	1.177321	-0.112614	0.333334
H174	H	1.510655	0.220719	0.666667
F175	F	0.533907	0.166378	-0.154728
F176	F	0.867240	0.499711	0.178606
F177	F	1.200574	0.833045	0.511939
F178	F	0.135193	0.156180	-0.154729
F179	F	0.468527	0.489513	0.178604
F180	F	0.801860	0.822847	0.511938
H181	H	1.022941	-0.440516	0.000055
H182	H	1.356274	-0.107182	0.333388
H183	H	1.689607	0.226151	0.666722
F184	F	0.833344	0.333829	-0.807152
F185	F	1.166678	0.667162	-0.473819
F186	F	1.500011	1.000496	-0.140485
F187	F	0.135220	0.156140	0.154716
F188	F	0.468553	0.489474	0.488049
F189	F	0.801886	0.822807	0.821382
F190	F	0.697459	0.170498	0.154716
F191	F	1.030793	0.503832	0.488049
F192	F	1.364126	0.837165	0.821383
F193	F	0.298743	0.160306	0.154719
F194	F	0.632076	0.493640	0.488053
F195	F	0.965410	0.826973	0.821386
H196	H	0.989295	0.013488	-0.639274
H197	H	1.322629	0.346821	-0.305941
H198	H	1.655962	0.680154	0.027392
