data_functionalizedCrystal
_audit_creation_method	'MofGen! by Chris Wilmer'
_symmetry_space_group_name_H-M	'P1'
_symmetry_Int_Tables_number	1
_symmetry_cell_setting	triclinic
loop_
_symmetry_equiv_pos_as_xyz
  x,y,z
_cell_length_a	10.489746
_cell_length_b	9.565339
_cell_length_c	16.109301
_cell_angle_alpha	90.002222
_cell_angle_beta	84.001391
_cell_angle_gamma	89.994354
loop_
_atom_site_label
_atom_site_type_symbol
_atom_site_fract_x
_atom_site_fract_y
_atom_site_fract_z
O1	O	1.692335	0.116171	0.117315
O2	O	1.320980	0.116195	0.128321
O3	O	1.516859	0.116168	0.001850
O4	O	1.496456	0.116198	0.243786
O5	O	1.516868	-0.116352	0.001854
O6	O	1.320989	-0.116325	0.128325
O7	O	1.692344	-0.116349	0.117319
Zn8	Zn	1.506668	-0.153255	0.122823
Zn9	Zn	1.506656	0.153101	0.122818
O10	O	1.496465	-0.116322	0.243790
C11	C	1.273465	-0.000062	0.127491
C12	C	1.131872	-0.000054	0.125001
N13	N	1.506685	-0.362334	0.122825
C14	C	0.980203	-0.000083	0.043058
C15	C	1.057007	-0.114719	0.084028
C16	C	1.056954	0.114528	0.084043
C17	C	0.956390	-0.114819	0.161577
C18	C	0.956332	0.114531	0.161581
C19	C	1.033086	-0.000132	0.202609
C20	C	1.597301	-0.453512	0.064341
C21	C	1.482050	-0.546677	0.047501
C22	C	1.621890	-0.546724	0.139611
C23	C	1.391376	-0.453447	0.105948
C24	C	1.531292	-0.453486	0.198091
C25	C	1.415958	-0.546609	0.181283
C26	C	1.739859	-0.000089	0.118149
C27	C	1.881452	-0.000088	0.120639
C28	C	1.516037	-0.000093	-0.029128
C29	C	1.513559	-0.000094	-0.121438
N30	N	1.506650	0.362180	0.122808
C31	C	1.624028	-0.000079	-0.343029
C32	C	1.621690	-0.000068	-0.429763
C33	C	1.389287	-0.000058	-0.411324
C34	C	1.391626	-0.000060	-0.324591
C35	C	1.509001	-0.000078	-0.290446
C36	C	1.504323	-0.000064	-0.463914
C37	C	1.501787	-0.000052	-0.557956
C38	C	1.511537	-0.000088	-0.196398
C39	C	1.497287	-0.000058	0.274768
C40	C	1.499765	-0.000047	0.367079
H41	H	1.100962	-0.211646	0.051279
N42	N	1.112019	0.236129	0.042947
N43	N	1.078051	0.355117	0.068615
H44	H	1.116936	0.440994	0.039586
N45	N	1.739202	-0.000090	-0.483462
N46	N	1.817268	-0.098111	-0.479947
H47	H	1.900267	-0.098127	-0.517871
H48	H	1.673859	-0.412634	0.014856
H49	H	1.719602	-0.000091	-0.315231
H50	H	1.297951	-0.000054	-0.281776
N51	N	1.062577	-0.000159	0.287296
N52	N	1.024053	0.097350	0.335157
H53	H	1.044885	0.097330	0.394967
N54	N	1.319724	-0.597606	0.243323
N55	N	1.350731	-0.672349	0.301611
H56	H	1.282765	-0.708370	0.345425
H57	H	1.293724	-0.000047	-0.439136
N58	N	0.901171	0.236138	0.202625
N59	N	0.933662	0.355091	0.176148
H60	H	0.894706	0.440988	0.205130
H61	H	0.956461	-0.000207	-0.024402
H62	H	1.461212	-0.587613	-0.016157
H63	H	1.293910	-0.412648	0.091671
N64	N	0.901494	-0.236522	0.202648
N65	N	0.783157	-0.256196	0.207351
H66	H	0.744382	-0.342145	0.236359
N67	N	1.557487	-0.402105	0.277926
N68	N	1.660958	-0.431948	0.305769
H69	H	1.679472	-0.395660	0.362153
N70	N	1.744122	-0.598148	0.157430
N71	N	1.808356	-0.674595	0.105831
H72	H	1.894685	-0.710913	0.118409
