data_functionalizedCrystal
_audit_creation_method	'MofGen! by Chris Wilmer'
_symmetry_space_group_name_H-M	'P1'
_symmetry_Int_Tables_number	1
_symmetry_cell_setting	triclinic
loop_
_symmetry_equiv_pos_as_xyz
  x,y,z
_cell_length_a	9.065218
_cell_length_b	9.565339
_cell_length_c	9.065218
_cell_angle_alpha	89.997921
_cell_angle_beta	85.015885
_cell_angle_gamma	90.003684
loop_
_atom_site_label
_atom_site_type_symbol
_atom_site_fract_x
_atom_site_fract_y
_atom_site_fract_z
O1	O	1.960401	0.116257	0.216346
O2	O	2.460401	0.616257	0.716346
O3	O	1.531116	0.116259	0.234093
O4	O	2.031116	0.616259	0.734093
O5	O	1.754631	0.116255	0.010577
O6	O	2.254631	0.616255	0.510577
O7	O	1.736885	0.116261	0.439862
O8	O	2.236885	0.616261	0.939862
O9	O	1.754614	-0.116265	0.010591
O10	O	2.254614	0.383735	0.510591
O11	O	1.531098	-0.116261	0.234107
O12	O	2.031098	0.383739	0.734107
O13	O	1.960383	-0.116263	0.216360
O14	O	2.460383	0.383737	0.716360
Zn15	Zn	1.745738	-0.153180	0.225236
Zn16	Zn	2.245738	0.346820	0.725236
Zn17	Zn	1.745761	0.153176	0.225217
Zn18	Zn	2.245761	0.653176	0.725217
O19	O	1.736867	-0.116259	0.439876
O20	O	2.236867	0.383741	0.939876
C21	C	1.476120	-0.000001	0.232394
C22	C	1.976120	0.499999	0.732394
C23	C	1.312277	-0.000000	0.227294
C24	C	1.812277	0.500000	0.727294
N25	N	1.745732	-0.362259	0.225247
N26	N	2.245732	0.137741	0.725247
C27	C	1.642332	-0.453460	0.328581
C28	C	2.142332	0.046540	0.828581
C29	C	1.776053	-0.546639	0.358994
C30	C	2.276053	-0.046639	0.858994
C31	C	1.612069	-0.546635	0.194846
C32	C	2.112069	-0.046635	0.694846
C33	C	1.879522	-0.453386	0.255728
C34	C	2.379522	0.046614	0.755728
C35	C	1.715449	-0.453374	0.091521
C36	C	2.215449	0.046626	0.591521
C37	C	1.849266	-0.546511	0.121879
C38	C	2.349266	-0.046511	0.621879
C39	C	2.015378	0.000000	0.218059
C40	C	2.515378	0.500000	0.718059
C41	C	2.179221	0.000009	0.223158
C42	C	2.679221	0.500009	0.723158
C43	C	1.752917	-0.000003	-0.044403
C44	C	2.252917	0.499997	0.455597
C45	C	1.747817	0.000004	-0.208245
C46	C	2.247817	0.500004	0.291755
N47	N	1.745778	0.362255	0.225194
N48	N	2.245778	0.862255	0.725194
C49	C	1.738582	0.000002	0.494855
C50	C	2.238582	0.500002	0.994855
C51	C	1.743681	0.000004	0.658698
C52	C	2.243681	0.500004	1.158698
H53	H	1.554971	-0.412604	0.416049
H54	H	2.054971	0.087396	0.916049
H55	H	1.992604	-0.412598	0.281554
H56	H	2.492604	0.087402	0.781554
H57	H	1.801698	-0.587605	0.472061
H58	H	2.301698	-0.087605	0.972061
H59	H	1.689763	-0.412376	-0.021510
H60	H	2.189763	0.087624	0.478490
H61	H	1.936825	-0.587111	0.034466
H62	H	2.436825	-0.087111	0.534466
H63	H	1.499013	-0.587599	0.169156
H64	H	1.999013	-0.087599	0.669156
