data_functionalizedCrystal
_audit_creation_method	'MofGen! by Chris Wilmer'
_symmetry_space_group_name_H-M	'P1'
_symmetry_Int_Tables_number	1
_symmetry_cell_setting	triclinic
loop_
_symmetry_equiv_pos_as_xyz
  x,y,z
_cell_length_a	23.532361
_cell_length_b	23.532407
_cell_length_c	14.750779
_cell_angle_alpha	77.433997
_cell_angle_beta	102.562763
_cell_angle_gamma	82.839173
loop_
_atom_site_label
_atom_site_type_symbol
_atom_site_fract_x
_atom_site_fract_y
_atom_site_fract_z
O1	O	0.742857	0.081424	-0.079743
O2	O	0.576986	0.091459	-0.079767
O3	O	0.664926	0.003506	-0.079737
O4	O	0.654917	0.169377	-0.079773
O5	O	0.689785	-0.021355	0.079922
O6	O	0.601845	0.066598	0.079892
O7	O	0.767716	0.056563	0.079916
Zn8	Zn	0.688728	0.057634	0.105253
Zn9	Zn	0.655974	0.090388	-0.105104
O10	O	0.679776	0.144516	0.079886
C11	C	0.568199	0.078778	0.000059
C12	C	0.504979	0.078024	0.000051
C13	C	0.218185	0.088271	-0.086973
C14	C	0.277584	0.088986	-0.086975
O15	O	0.296786	0.100861	-0.160989
N16	N	0.320841	0.075796	0.000055
C17	C	0.304697	0.061883	0.087094
O18	O	0.346944	0.050729	0.161120
C19	C	0.245299	0.061164	0.087095
C20	C	0.202044	0.074361	0.000059
C21	C	0.174931	0.101466	-0.174002
C22	C	0.115536	0.100752	-0.173999
C23	C	0.099394	0.086842	-0.086967
C24	C	0.142648	0.073647	0.000062
C25	C	0.229156	0.047248	0.174133
C26	C	0.169753	0.046529	0.174127
C27	C	0.126498	0.059726	0.087091
C28	C	0.067112	0.059023	0.087097
N29	N	0.023855	0.072213	0.000066
C30	C	0.039996	0.086123	-0.086965
C31	C	0.429436	0.063394	0.087084
C32	C	0.488832	0.064117	0.087083
C33	C	0.461715	0.091219	-0.086986
C34	C	0.402318	0.090499	-0.086984
C35	C	0.386179	0.076584	0.000053
C36	C	-0.084737	0.084622	-0.086953
C37	C	-0.144137	0.083909	-0.086942
C38	C	-0.117015	0.056805	0.087126
C39	C	-0.057621	0.057521	0.087116
C40	C	-0.041484	0.071429	0.000069
O41	O	0.047867	0.047151	0.161073
O42	O	-0.002255	0.097268	-0.160979
C43	C	0.677101	-0.030141	0.000095
C44	C	0.676336	-0.093359	0.000102
C45	C	0.723564	-0.492463	0.000057
C46	C	0.722851	-0.551862	0.000049
O47	O	0.766634	-0.588609	0.000020
N48	N	0.670573	-0.574478	0.000042
C49	C	0.619002	-0.537690	0.000033
O50	O	0.574469	-0.562381	0.000026
C51	C	0.619714	-0.478291	0.000034
C52	C	0.671997	-0.455680	0.000050
C53	C	0.775843	-0.469851	0.000072
C54	C	0.776556	-0.410456	0.000082
C55	C	0.724989	-0.373673	0.000075
C56	C	0.672710	-0.396285	0.000059
C57	C	0.568143	-0.441504	0.000017
C58	C	0.568859	-0.382101	0.000017
C59	C	0.621143	-0.359490	0.000034
C60	C	0.621856	-0.300108	0.000062
N61	N	0.674135	-0.277492	0.000069
C62	C	0.725701	-0.314275	0.000076
C63	C	0.617510	-0.662432	0.000030
C64	C	0.616798	-0.721831	0.000037
C65	C	0.720648	-0.735998	0.000051
C66	C	0.721360	-0.676599	0.000052
C67	C	0.669789	-0.639816	0.000037
C68	C	0.727194	-0.189541	0.000096
C69	C	0.727903	-0.130141	0.000109
C70	C	0.624053	-0.115979	0.000089
C71	C	0.623345	-0.175374	0.000081
C72	C	0.674919	-0.212154	0.000081
O73	O	0.578096	-0.263326	0.000087
O74	O	0.770225	-0.289573	0.000071
C75	C	0.776503	0.069245	0.000087
C76	C	0.839722	0.070000	0.000090
C77	C	0.667600	0.178163	0.000052
C78	C	0.668364	0.241382	0.000038
N79	N	0.711085	0.035279	0.248817
N80	N	0.633621	0.112739	-0.248668
C81	C	0.571180	0.175147	0.600586
C82	C	0.586851	0.159486	0.701091
C83	C	0.664737	0.081632	0.701081
C84	C	0.649071	0.097285	0.600574
C85	C	0.602292	0.144043	0.550335
C86	C	0.680184	0.066181	0.550322
C87	C	0.664520	0.081834	0.449825
C88	C	0.617745	0.128592	0.399578
C89	C	0.586629	0.159696	0.449837
C90	C	0.726965	0.019425	0.600563
C91	C	0.758077	-0.011679	0.550312
C92	C	0.742412	0.003972	0.449812
C93	C	0.695636	0.050729	0.399566
C94	C	0.773527	-0.027133	0.399554
C95	C	0.757864	-0.011479	0.299056
C96	C	0.679973	0.066383	0.299068
H97	H	0.188065	0.112792	-0.244877
N98	N	-0.068261	0.098843	-0.175868
N99	N	-0.043628	0.142422	-0.195303
H100	H	-0.031993	0.152469	-0.258099
H101	H	0.416300	0.052069	0.157965
H102	H	0.548533	0.197767	0.408930
H103	H	0.526862	-0.352154	0.000004
N104	N	0.805850	-0.059447	0.601638
N105	N	0.803617	-0.110338	0.590427
H106	H	0.837356	-0.144077	0.626676
H107	H	0.580775	-0.193789	0.000094
N108	N	0.789649	-0.043288	0.247772
N109	N	0.816188	-0.016724	0.191680
H110	H	0.838642	-0.039205	0.155485
N111	N	0.571388	-0.078393	0.000091
N112	N	0.572038	-0.025362	0.000096
H113	H	0.534843	0.001186	0.000092
N114	N	0.523389	0.222906	0.549274
N115	N	0.495609	0.250672	0.594150
H116	H	0.461859	0.284402	0.557911
N117	N	0.781314	-0.107048	0.000143
N118	N	0.826479	-0.128916	0.067451
H119	H	0.864200	-0.112609	0.067477
H120	H	0.641877	0.104454	0.258162
N121	N	0.555058	0.191264	0.752407
N122	N	0.513293	0.233008	0.707535
H123	H	0.490839	0.255451	0.743776
H124	H	0.156618	0.035202	0.245005
H125	H	0.769191	-0.219480	0.000092
H126	H	0.604994	0.141338	0.317747
H127	H	0.367102	0.101246	-0.157857
N128	N	0.712524	0.033880	0.752417
N129	N	0.726508	0.019912	0.842147
H130	H	0.760259	-0.013813	0.878403
N131	N	0.828530	-0.507411	0.000094
N132	N	0.873850	-0.515993	0.067406
H133	H	0.911065	-0.542517	0.067429
H134	H	0.739718	0.006684	0.682395
H135	H	0.819130	-0.392051	0.000091
H136	H	0.763933	-0.658193	0.000065
H137	H	-0.179355	0.094658	-0.157821
H138	H	0.474868	0.102544	-0.157852
N139	N	0.821303	-0.074898	0.450881
N140	N	0.819076	-0.125791	0.439676
H141	H	0.852818	-0.159527	0.475926
H142	H	0.080321	0.111496	-0.244873
H143	H	0.524045	0.053380	0.157957
H144	H	0.264366	0.036499	0.245007
H145	H	-0.130168	0.045482	0.157986
N146	N	-0.013445	0.044069	0.176028
N147	N	-0.027870	0.031668	0.253728
H148	H	0.003325	0.022170	0.316524
H149	H	0.762635	-0.765957	0.000053
H150	H	0.575513	-0.632487	0.000027
H151	H	0.574226	-0.740238	0.000040
N152	N	0.514730	-0.464581	-0.000002
N153	N	0.468696	-0.431720	-0.000018
H154	H	0.430969	-0.448016	-0.000035
