data_functionalizedCrystal
_audit_creation_method	'MofGen! by Chris Wilmer'
_symmetry_space_group_name_H-M	'P1'
_symmetry_Int_Tables_number	1
_symmetry_cell_setting	triclinic
loop_
_symmetry_equiv_pos_as_xyz
  x,y,z
_cell_length_a	18.101395
_cell_length_b	15.298563
_cell_length_c	15.296720
_cell_angle_alpha	72.675118
_cell_angle_beta	99.643705
_cell_angle_gamma	80.275830
loop_
_atom_site_label
_atom_site_type_symbol
_atom_site_fract_x
_atom_site_fract_y
_atom_site_fract_z
Zn1	Zn	-0.145373	-1.330581	-0.280234
Zn2	Zn	-0.243327	-1.357381	-0.124757
Zn3	Zn	-0.145419	-1.201998	-0.151610
Zn4	Zn	-0.295115	-1.175016	-0.307060
O5	O	-0.207309	-1.266244	-0.215915
O6	O	-0.136674	-1.464269	-0.237145
O7	O	-0.208685	-1.359277	0.001806
O8	O	-0.041771	-1.219131	-0.168684
O9	O	-0.208640	-1.483959	-0.122916
O10	O	-0.041737	-1.313601	-0.263184
O11	O	-0.136752	-1.245118	-0.017923
O12	O	-0.186969	-1.068286	-0.194695
O13	O	-0.296906	-1.173144	-0.433626
O14	O	-0.296950	-1.048462	-0.308904
O15	O	-0.186891	-1.287437	-0.413917
O16	O	-0.353839	-1.333114	-0.148928
O17	O	-0.391887	-1.199131	-0.282865
C18	C	-0.247585	-1.024632	-0.257625
C19	C	-0.264837	-0.921266	-0.275491
C20	C	-0.399735	-1.266124	-0.215909
C21	C	-0.482047	-1.266153	-0.215923
C22	C	-0.084202	-0.671008	-0.088398
C23	C	-0.067989	-0.768125	-0.071613
C24	C	-0.117200	-0.806415	-0.122581
C25	C	-0.182626	-0.747578	-0.190337
C26	C	-0.198838	-0.650450	-0.207128
C27	C	-0.231835	-0.785857	-0.241311
C28	C	-0.297262	-0.727020	-0.309067
C29	C	-0.313471	-0.629901	-0.325855
C30	C	-0.264260	-0.591611	-0.274887
C31	C	-0.215624	-0.882985	-0.224520
C32	C	-0.330259	-0.862427	-0.343250
C33	C	-0.346473	-0.765309	-0.360034
C34	C	-0.781113	-1.266348	-0.215938
C35	C	-0.773759	-1.182186	-0.300357
C36	C	-0.688161	-1.181884	-0.300191
C37	C	-0.632743	-1.266251	-0.215932
C38	C	-0.651985	-1.256692	-0.122510
C39	C	-0.737779	-1.256155	-0.123021
C40	C	-0.737234	-1.360377	-0.224051
C41	C	-0.652038	-1.359426	-0.226300
C42	C	-0.548890	-1.266199	-0.215922
C43	C	-0.864965	-1.266399	-0.215942
C44	C	-0.014130	-1.266386	-0.215937
C45	C	0.068192	-1.266447	-0.215946
C46	C	-0.247670	-1.224292	-0.458455
C47	C	-0.264870	-1.206414	-0.561811
C48	C	-0.166870	-0.508801	-0.174032
C49	C	-0.149624	-0.612169	-0.156157
C50	C	-0.084243	-1.394053	-0.812108
C51	C	-0.068083	-1.410856	-0.714999
C52	C	-0.117278	-1.359747	-0.676697
C53	C	-0.182637	-1.291832	-0.735514
C54	C	-0.198801	-1.275033	-0.832631
C55	C	-0.231837	-1.240726	-0.697220
C56	C	-0.297195	-1.172812	-0.756037
C57	C	-0.313356	-1.156015	-0.853145
C58	C	-0.264161	-1.207125	-0.891447
C59	C	-0.215672	-1.257526	-0.600103
C60	C	-0.330230	-1.138506	-0.620626
C61	C	-0.346390	-1.121703	-0.717735
C62	C	-0.167041	-1.308087	0.025690
C63	C	-0.149603	-1.326145	0.129076
H64	H	-0.103994	-0.885494	-0.108911
H65	H	-0.014870	-1.466154	-0.667117
O66	O	-0.101547	-1.376253	-0.582334
C67	C	-0.100335	-1.470974	-0.534525
H68	H	-0.088083	-1.514849	-0.581265
H69	H	-0.053351	-1.498788	-0.466715
H70	H	-0.158588	-1.475881	-0.516935
H71	H	-0.640359	-1.366943	-0.294970
O72	O	-0.377053	-0.572662	-0.391564
C73	C	-0.425379	-0.525638	-0.348227
H74	H	-0.389882	-0.523268	-0.280332
H75	H	-0.453047	-0.450797	-0.397885
H76	H	-0.472287	-0.564824	-0.331424
H77	H	-0.399743	-0.717390	-0.415202
H78	H	-0.044199	-1.435664	-0.843302
O79	O	-0.004424	-0.825147	-0.005740
C80	C	0.035546	-0.770526	0.035628
H81	H	-0.005795	-0.701850	0.026952
H82	H	0.060416	-0.811246	0.113721
H83	H	0.084337	-0.754316	-0.000337
H84	H	-0.044139	-0.639821	-0.046912
O85	O	-0.771886	-1.174734	-0.112607
C86	C	-0.833008	-1.123925	-0.191490
H87	H	-0.853621	-1.174282	-0.226694
H88	H	-0.882554	-1.087814	-0.167896
H89	H	-0.812277	-1.068593	-0.243668
H90	H	-0.277460	-0.512531	-0.288545
H91	H	-0.676440	-1.185899	-0.369993
O92	O	-0.279994	-1.190809	-0.985780
C93	C	-0.352384	-1.209050	-1.014096
H94	H	-0.388384	-1.202810	-0.960874
H95	H	-0.383350	-1.155858	-1.086306
H96	H	-0.343957	-1.283230	-1.018005
O97	O	-0.809569	-1.186834	-0.383866
C98	C	-0.841781	-1.266308	-0.367215
H99	H	-0.851503	-1.287443	-0.292765
H100	H	-0.899166	-1.248610	-0.420092
H101	H	-0.800723	-1.327134	-0.375326
H102	H	-0.370290	-1.096890	-0.589442
H103	H	-0.613139	-1.424086	-0.167943
H104	H	-0.162351	-0.930882	-0.169355
H105	H	-0.740916	-1.315716	-0.058890
O106	O	-0.636346	-1.176335	-0.111179
C107	C	-0.653971	-1.168813	-0.026968
H108	H	-0.652487	-1.241689	0.022704
H109	H	-0.609765	-1.137193	0.007863
H110	H	-0.713909	-1.121476	-0.043377
H111	H	-0.366580	-1.100723	-0.901031
H112	H	-0.399605	-1.066406	-0.765637
H113	H	-0.370329	-0.893601	-0.384755
H114	H	-0.804696	-1.112554	-0.296456
O115	O	-0.152101	-1.323382	-0.543038
C116	C	-0.085628	-1.299017	-0.570311
H117	H	-0.098717	-1.220110	-0.609828
H118	H	-0.037067	-1.318104	-0.505073
H119	H	-0.067345	-1.339133	-0.618083
H120	H	-0.613992	-1.316811	-0.058638
O121	O	-0.675109	-1.098249	-0.295492
C122	C	-0.723047	-1.024235	-0.374070
H123	H	-0.775151	-1.048424	-0.403138
H124	H	-0.743262	-0.961106	-0.351867
H125	H	-0.689494	-1.003325	-0.430746
H126	H	-0.766456	-1.372401	-0.290119
O127	O	-0.740440	-1.434837	-0.150424
C128	C	-0.782084	-1.402185	-0.091802
H129	H	-0.821744	-1.330189	-0.134026
H130	H	-0.817997	-1.453861	-0.063441
H131	H	-0.740188	-1.396104	-0.030537
