data_functionalizedCrystal
_audit_creation_method	'MofGen! by Chris Wilmer'
_symmetry_space_group_name_H-M	'P1'
_symmetry_Int_Tables_number	1
_symmetry_cell_setting	triclinic
loop_
_symmetry_equiv_pos_as_xyz
  x,y,z
_cell_length_a	10.967926
_cell_length_b	15.538191
_cell_length_c	9.482944
_cell_angle_alpha	102.862006
_cell_angle_beta	88.407388
_cell_angle_gamma	66.441135
loop_
_atom_site_label
_atom_site_type_symbol
_atom_site_fract_x
_atom_site_fract_y
_atom_site_fract_z
O1	O	1.570249	0.101971	-0.272519
O2	O	1.209781	0.124443	-0.182209
O3	O	1.460184	-0.025378	-0.244937
O4	O	1.319846	0.251791	-0.209791
O5	O	1.437855	-0.051171	-0.481133
O6	O	1.187452	0.098650	-0.418405
O7	O	1.547920	0.076177	-0.508716
Cu8	Cu	1.365647	0.085059	-0.485127
Cu9	Cu	1.392054	0.115562	-0.205797
O10	O	1.297517	0.225998	-0.445987
C11	C	1.153609	0.111860	-0.289031
C12	C	1.019506	0.112784	-0.255432
C13	C	0.948151	0.099835	-0.362810
C14	C	0.809549	0.100789	-0.328087
C15	C	1.463702	-0.073674	-0.366709
C16	C	1.507439	-0.179153	-0.377652
C17	C	1.072936	-0.457933	-0.268824
C18	C	1.114063	-0.557052	-0.279131
C19	C	1.345391	-0.584294	-0.337087
C20	C	1.304285	-0.485175	-0.326778
C21	C	1.168055	-0.422001	-0.292648
C22	C	1.399404	-0.449243	-0.350601
C23	C	1.358300	-0.350132	-0.340300
C24	C	1.222076	-0.286954	-0.306176
C25	C	1.126951	-0.322891	-0.282347
C26	C	1.535632	-0.512419	-0.384741
C27	C	1.630751	-0.476487	-0.408565
C28	C	1.589648	-0.377374	-0.398254
C29	C	1.453424	-0.314195	-0.364130
C30	C	1.684773	-0.341437	-0.422083
C31	C	1.643669	-0.242327	-0.411782
C32	C	1.412320	-0.215085	-0.353829
C33	C	1.604092	0.088761	-0.401891
C34	C	1.738196	0.087838	-0.435480
C35	C	1.293999	0.274295	-0.324212
C36	C	1.250263	0.379775	-0.313260
N37	N	1.347084	0.063603	-0.681595
C38	C	1.371144	0.091380	-0.927238
C39	C	1.386575	0.109240	-0.763688
N40	N	1.410630	0.137009	-0.009333
H41	H	0.989677	0.088036	-0.480446
Br42	Br	1.295764	0.004222	-1.011887
Br43	Br	0.740368	0.120436	-0.132005
Br44	Br	0.888053	-0.372186	-0.222484
Br45	Br	1.486033	0.224154	-0.924689
H46	H	0.779713	0.076040	-0.553125
Br47	Br	1.461981	0.196388	-0.679050
H48	H	1.301852	0.011311	-0.732383
Br49	Br	0.950320	0.132430	-0.059358
H50	H	1.721124	-0.213071	-0.431184
H51	H	1.301390	-0.163644	-0.326026
Br52	Br	1.166284	-0.152446	-0.292214
H53	H	1.795689	-0.392888	-0.449886
H54	H	1.016021	-0.271450	-0.254544
H55	H	1.036593	-0.586304	-0.259749
H56	H	1.569095	-0.593119	-0.393114
Br57	Br	1.530266	-0.670038	-0.383422
Br58	Br	1.815626	-0.562231	-0.454900
