data_functionalizedCrystal
_audit_creation_method	'MofGen! by Chris Wilmer'
_symmetry_space_group_name_H-M	'P1'
_symmetry_Int_Tables_number	1
_symmetry_cell_setting	triclinic
loop_
_symmetry_equiv_pos_as_xyz
  x,y,z
_cell_length_a	12.759401
_cell_length_b	15.297327
_cell_length_c	12.759401
_cell_angle_alpha	80.339406
_cell_angle_beta	90.000621
_cell_angle_gamma	99.706546
loop_
_atom_site_label
_atom_site_type_symbol
_atom_site_fract_x
_atom_site_fract_y
_atom_site_fract_z
Zn1	Zn	1.533546	-0.359325	0.666341
Zn2	Zn	1.503051	-0.510163	0.521037
Zn3	Zn	1.357905	-0.359313	0.490678
Zn4	Zn	1.327395	-0.510153	0.696676
O5	O	1.430474	-0.434738	0.593683
O6	O	1.676520	-0.379343	0.647076
O7	O	1.483804	-0.490153	0.369988
O8	O	1.406736	-0.233061	0.488580
O9	O	1.654115	-0.490164	0.540321
O10	O	1.535778	-0.233070	0.617638
O11	O	1.377166	-0.379324	0.347684
O12	O	1.206839	-0.379313	0.517994
O13	O	1.354735	-0.490145	0.839673
O14	O	1.184423	-0.490134	0.669340
O15	O	1.506193	-0.379332	0.817386
O16	O	1.454219	-0.636415	0.569736
O17	O	1.325165	-0.636407	0.698777
C18	C	1.157510	-0.434722	0.593665
C19	C	1.040731	-0.434736	0.593687
C20	C	0.974205	-0.492533	0.672400
C21	C	0.864479	-0.492545	0.672414
C22	C	0.887813	-0.376960	0.514992
C23	C	0.997538	-0.376945	0.514983
C24	C	1.017398	-0.550325	0.751104
C25	C	0.950871	-0.608127	0.829823
C26	C	0.841145	-0.608139	0.829836
C27	C	0.797945	-0.550348	0.751131
C28	C	1.383100	-0.669148	0.640866
C29	C	1.362929	-0.769429	0.661086
C30	C	1.575070	-1.051996	0.449525
C31	C	1.594021	-0.957777	0.430522
C32	C	1.536250	-0.910685	0.488161
C33	C	1.459525	-0.957822	0.564807
C34	C	1.440566	-1.052050	0.583806
C35	C	1.401746	-0.910740	0.622442
C36	C	1.325020	-0.957876	0.699088
C37	C	1.306066	-1.052095	0.718084
C38	C	1.363836	-1.099187	0.660445
C39	C	1.420704	-0.816511	0.603443
C40	C	1.286200	-0.816565	0.737724
C41	C	1.267249	-0.910785	0.756728
C42	C	1.704504	-0.434756	0.593701
C43	C	1.821279	-0.434763	0.593709
C44	C	1.430462	-0.434739	0.867716
C45	C	1.430457	-0.434739	0.984493
C46	C	1.478062	-0.199414	0.546339
C47	C	1.498341	-0.099133	0.526164
C48	C	1.374942	-0.377038	1.027748
C49	C	1.374939	-0.377048	1.137475
C50	C	1.485976	-0.492462	1.160680
C51	C	1.485972	-0.492456	1.050957
C52	C	1.319427	-0.319321	0.961285
C53	C	1.263908	-0.261614	1.004539
C54	C	1.263905	-0.261625	1.114265
C55	C	1.319422	-0.319341	1.180737
C56	C	1.430469	-0.434758	1.320719
C57	C	1.430459	-0.434755	1.203942
H58	H	0.786983	-0.655198	0.893939
H59	H	1.531178	-0.539450	1.214809
H60	H	1.243578	-1.090472	0.780482
O61	O	1.539987	-0.548538	1.009100
C62	C	1.588969	-0.599496	1.091291
H63	H	1.600098	-0.562545	1.162073
H64	H	1.669790	-0.609136	1.061516
H65	H	1.536628	-0.668010	1.116746
O66	O	1.192836	-0.956538	0.831317
C67	C	1.220337	-0.933450	0.931392
H68	H	1.309487	-0.907481	0.931532
H69	H	1.198786	-0.995407	0.995779
H70	H	1.174978	-0.878793	0.947791
O71	O	1.123967	-0.550400	0.751275
C72	C	1.147825	-0.613818	0.837599
H73	H	1.082032	-0.626546	0.901527
H74	H	1.226725	-0.586643	0.872042
H75	H	1.154010	-0.679543	0.809034
H76	H	0.986054	-0.655173	0.893907
O77	O	0.691333	-0.550472	0.751299
C78	C	0.641883	-0.613843	0.837685
H79	H	0.694438	-0.666593	0.862881
H80	H	0.561540	-0.648016	0.812834
H81	H	0.629681	-0.578166	0.907190
H82	H	0.852630	-0.329910	0.450913
O83	O	1.062009	-0.320782	0.438410
C84	C	1.000362	-0.269770	0.368952
H85	H	0.914681	-0.306724	0.372690
H86	H	1.034025	-0.260040	0.284232
H87	H	1.002530	-0.201297	0.393767
H88	H	1.622093	-1.090347	0.402597
O89	O	1.319540	-0.319210	1.287297
C90	C	1.363981	-0.232741	1.306571
H91	H	1.417326	-0.195438	1.235841
H92	H	1.413050	-0.239211	1.381276
H93	H	1.297504	-0.193652	1.318181
O94	O	1.229919	-0.770872	0.793620
C95	C	1.120575	-0.793989	0.775251
H96	H	1.110121	-0.819922	0.696543
H97	H	1.081126	-0.732056	0.771770
H98	H	1.082060	-0.848682	0.842583
O99	O	1.495162	-0.770828	0.528873
C100	C	1.467629	-0.793887	0.428791
H101	H	1.413471	-0.862327	0.440382
H102	H	1.542850	-0.797077	0.382387
H103	H	1.424305	-0.740905	0.382675
H104	H	1.551684	-0.833968	0.472683
O105	O	1.319278	-0.319226	0.854681
C106	C	1.258401	-0.255895	0.805287
H107	H	1.199574	-0.243256	0.865975
H108	H	1.213028	-0.283107	0.737353
H109	H	1.313370	-0.190113	0.772593
O110	O	1.668624	-0.912131	0.356076
C111	C	1.715534	-0.973896	0.309260
H112	H	1.705623	-1.041045	0.365835
H113	H	1.803810	-0.946618	0.292627
H114	H	1.675104	-0.983968	0.231464
O115	O	1.345624	-1.190714	0.678906
C116	C	1.439975	-1.222103	0.712331
H117	H	1.511432	-1.167761	0.683478
H118	H	1.446019	-1.285139	0.677667
H119	H	1.438771	-1.238792	0.802871
H120	H	1.218701	-0.214629	0.950413
H121	H	1.218691	-0.214643	1.149481
