data_functionalizedCrystal
_audit_creation_method	'MofGen! by Chris Wilmer'
_symmetry_space_group_name_H-M	'P1'
_symmetry_Int_Tables_number	1
_symmetry_cell_setting	triclinic
loop_
_symmetry_equiv_pos_as_xyz
  x,y,z
_cell_length_a	16.109296
_cell_length_b	16.109301
_cell_length_c	15.186229
_cell_angle_alpha	90.002208
_cell_angle_beta	89.993523
_cell_angle_gamma	83.460385
loop_
_atom_site_label
_atom_site_type_symbol
_atom_site_fract_x
_atom_site_fract_y
_atom_site_fract_z
O1	O	-0.106869	-1.103125	0.073174
O2	O	0.226464	-0.769791	0.406508
O3	O	0.559797	-0.436458	0.739841
O4	O	-0.120169	-0.861063	0.073188
O5	O	0.213165	-0.527729	0.406522
O6	O	0.546498	-0.194396	0.739855
O7	O	0.007512	-0.988746	0.073174
O8	O	0.340846	-0.655412	0.406507
O9	O	0.674179	-0.322079	0.739840
O10	O	-0.234550	-0.975442	0.073189
O11	O	0.098783	-0.642108	0.406522
O12	O	0.432116	-0.308775	0.739856
O13	O	0.007520	-0.988745	-0.073284
O14	O	0.340853	-0.655411	0.260050
O15	O	0.674187	-0.322078	0.593383
O16	O	-0.120161	-0.861062	-0.073269
O17	O	0.213172	-0.527728	0.260064
O18	O	0.546506	-0.194395	0.593398
O19	O	-0.106862	-1.103124	-0.073283
O20	O	0.226472	-0.769790	0.260050
O21	O	0.559805	-0.436457	0.593384
Zn22	Zn	-0.113510	-0.982093	-0.096529
Zn23	Zn	0.219823	-0.648759	0.236804
Zn24	Zn	0.553157	-0.315426	0.570137
Zn25	Zn	-0.113520	-0.982094	0.096435
Zn26	Zn	0.219813	-0.648761	0.429768
Zn27	Zn	0.553147	-0.315427	0.763101
O28	O	-0.234543	-0.975441	-0.073268
O29	O	0.098791	-0.642107	0.260065
O30	O	0.432124	-0.308774	0.593398
C31	C	0.038491	-0.988207	-0.000055
C32	C	0.371824	-0.654874	0.333278
C33	C	0.705158	-0.321540	0.666612
C34	C	0.130787	-0.986594	-0.000055
C35	C	0.464120	-0.653260	0.333279
C36	C	0.797453	-0.319927	0.666612
C37	C	-0.119626	-0.830087	-0.000039
C38	C	0.213707	-0.496754	0.333295
C39	C	0.547041	-0.163421	0.666628
C40	C	-0.118011	-0.737792	-0.000033
C41	C	0.215322	-0.404459	0.333300
C42	C	0.548656	-0.071125	0.666633
C43	C	0.439786	-1.057083	-0.000047
C44	C	0.773119	-0.723750	0.333286
C45	C	1.106452	-0.390416	0.666619
C46	C	0.353065	-1.058607	-0.000051
C47	C	0.686399	-0.725273	0.333282
C48	C	1.019732	-0.391940	0.666615
C49	C	0.333192	-0.907118	-0.000054
C50	C	0.666525	-0.573784	0.333279
C51	C	0.999859	-0.240451	0.666612
C52	C	0.419911	-0.905595	-0.000056
C53	C	0.753244	-0.572261	0.333277
C54	C	1.086578	-0.238928	0.666610
C55	C	0.473206	-0.980580	-0.000048
C56	C	0.806539	-0.647247	0.333285
C57	C	1.139873	-0.313913	0.666618
C58	C	0.299767	-0.983626	-0.000050
C59	C	0.633100	-0.650293	0.333283
C60	C	0.966433	-0.316960	0.666616
C61	C	0.205740	-0.985278	-0.000055
C62	C	0.539074	-0.651945	0.333278
C63	C	0.872407	-0.318611	0.666612
C64	C	0.567238	-0.978929	-0.000046
C65	C	0.900572	-0.645596	0.333288
C66	C	1.233905	-0.312262	0.666621
C67	C	0.734479	-0.975984	-0.000041
C68	C	1.067813	-0.642651	0.333293
C69	C	1.401146	-0.309318	0.666626
C70	C	0.642186	-0.977613	-0.000044
C71	C	0.975519	-0.644279	0.333289
C72	C	1.308852	-0.310946	0.666623
N73	N	-0.113521	-0.982095	0.228127
N74	N	0.219812	-0.648762	0.561461
N75	N	0.553146	-0.315429	0.894794
C76	C	-0.107404	-1.134099	-0.000054
C77	C	0.225929	-0.800766	0.333279
C78	C	0.559263	-0.467433	0.666612
C79	C	-0.109019	-1.226394	-0.000054
C80	C	0.224314	-0.893061	0.333280
C81	C	0.557647	-0.559728	0.666613
C82	C	-0.190019	-0.515518	-0.000039
C83	C	0.143315	-0.182185	0.333294
C84	C	0.476648	0.151149	0.666628
C85	C	-0.188495	-0.428798	-0.000045
C86	C	0.144839	-0.095464	0.333289
C87	C	0.478172	0.237869	0.666622
C88	C	-0.037006	-0.448675	-0.000051
C89	C	0.296328	-0.115342	0.333283
C90	C	0.629661	0.217992	0.666616
C91	C	-0.038531	-0.535394	-0.000051
C92	C	0.294803	-0.202060	0.333282
C93	C	0.628136	0.131273	0.666615
C94	C	-0.115040	-0.568813	-0.000041
C95	C	0.218294	-0.235479	0.333292
C96	C	0.551627	0.097854	0.666626
C97	C	-0.111991	-0.395374	-0.000046
C98	C	0.221343	-0.062040	0.333287
C99	C	0.554676	0.271293	0.666621
C100	C	-0.110338	-0.301348	-0.000052
C101	C	0.222996	0.031986	0.333281
C102	C	0.556329	0.365319	0.666614
C103	C	-0.116693	-0.662845	-0.000036
C104	C	0.216640	-0.329511	0.333297
C105	C	0.549974	0.003822	0.666630
N106	N	-0.113503	-0.982098	-0.228222
N107	N	0.219831	-0.648764	0.105111
N108	N	0.553164	-0.315431	0.438445
C109	C	-0.057093	-1.038742	0.453844
C110	C	0.276240	-0.705409	0.787177
C111	C	0.609574	-0.372076	1.120510
C112	C	-0.057091	-1.038745	0.546033
C113	C	0.276242	-0.705411	0.879367
C114	C	0.609576	-0.372078	1.212700
C115	C	-0.169937	-0.925448	0.546055
C116	C	0.163397	-0.592115	0.879389
C117	C	0.496730	-0.258781	1.212722
C118	C	-0.169942	-0.925450	0.453867
C119	C	0.163391	-0.592117	0.787201
C120	C	0.496725	-0.258783	1.120534
C121	C	-0.113516	-0.982096	0.407764
C122	C	0.219818	-0.648763	0.741097
C123	C	0.553151	-0.315430	1.074430
C124	C	-0.113508	-0.982097	0.592141
C125	C	0.219825	-0.648763	0.925475
C126	C	0.553159	-0.315430	1.258808
C127	C	-0.113506	-0.982099	0.692098
C128	C	0.219827	-0.648765	1.025431
C129	C	0.553161	-0.315432	1.358764
C130	C	-0.113518	-0.982096	0.307801
C131	C	0.219815	-0.648762	0.641135
C132	C	0.553148	-0.315429	0.974468
H133	H	0.483177	-1.118141	-0.000041
H134	H	0.816510	-0.784808	0.333292
H135	H	1.149843	-0.451474	0.666626
Cl136	Cl	0.059172	-0.406656	-0.000058
Cl137	Cl	0.392505	-0.073323	0.333276
Cl138	Cl	0.725838	0.260011	0.666609
Cl139	Cl	0.311056	-1.154786	-0.000047
Cl140	Cl	0.644389	-0.821453	0.333286
Cl141	Cl	0.977722	-0.488120	0.666620
H142	H	-0.011148	-1.084872	0.583549
H143	H	0.322186	-0.751539	0.916882
H144	H	0.655519	-0.418205	1.250215
Cl145	Cl	0.266187	-0.812856	-0.000057
Cl146	Cl	0.599521	-0.479523	0.333277
Cl147	Cl	0.932854	-0.146189	0.666610
Cl148	Cl	0.461928	-0.809412	-0.000063
Cl149	Cl	0.795261	-0.476078	0.333270
Cl150	Cl	1.128595	-0.142745	0.666603
Cl151	Cl	-0.282759	-0.361802	-0.000043
Cl152	Cl	0.050574	-0.028469	0.333290
Cl153	Cl	0.383908	0.304865	0.666623
Cl154	Cl	-0.286201	-0.557528	-0.000032
Cl155	Cl	0.047132	-0.224194	0.333302
Cl156	Cl	0.380465	0.109139	0.666635
Cl157	Cl	0.055737	-0.602398	-0.000061
Cl158	Cl	0.389070	-0.269065	0.333273
Cl159	Cl	0.722404	0.064269	0.666606
Cl160	Cl	0.013840	-1.109958	0.395889
Cl161	Cl	0.347173	-0.776625	0.729222
Cl162	Cl	0.680507	-0.443291	1.062555
H163	H	-0.215877	-0.879327	0.583602
H164	H	0.117457	-0.545993	0.916935
H165	H	0.450790	-0.212660	1.250269
H166	H	-0.215892	-0.879322	0.416347
H167	H	0.117441	-0.545988	0.749680
H168	H	0.450775	-0.212655	1.083013
