data_functionalizedCrystal
_audit_creation_method	'MofGen! by Chris Wilmer'
_symmetry_space_group_name_H-M	'P1'
_symmetry_Int_Tables_number	1
_symmetry_cell_setting	triclinic
loop_
_symmetry_equiv_pos_as_xyz
  x,y,z
_cell_length_a	14.519709
_cell_length_b	19.288865
_cell_length_c	17.766277
_cell_angle_alpha	90.011603
_cell_angle_beta	90.003743
_cell_angle_gamma	83.408197
loop_
_atom_site_label
_atom_site_type_symbol
_atom_site_fract_x
_atom_site_fract_y
_atom_site_fract_z
O1	O	-1.223296	-0.091051	-0.062505
O2	O	-0.889963	0.242282	0.270828
O3	O	-0.556630	0.575616	0.604161
O4	O	-0.954751	-0.101773	-0.062529
O5	O	-0.621418	0.231560	0.270804
O6	O	-0.288085	0.564893	0.604137
O7	O	-1.096783	0.004690	-0.062502
O8	O	-0.763450	0.338024	0.270832
O9	O	-0.430117	0.671357	0.604165
O10	O	-1.081264	-0.197514	-0.062533
O11	O	-0.747931	0.135819	0.270800
O12	O	-0.414597	0.469152	0.604134
O13	O	-1.096759	0.004696	0.062687
O14	O	-0.763425	0.338029	0.396020
O15	O	-0.430092	0.671362	0.729354
O16	O	-0.954726	-0.101768	0.062659
O17	O	-0.621393	0.231566	0.395993
O18	O	-0.288060	0.564899	0.729326
O19	O	-1.223271	-0.091045	0.062683
O20	O	-0.889938	0.242288	0.396017
O21	O	-0.556605	0.575621	0.729350
Cu22	Cu	-1.088997	-0.096406	0.074102
Cu23	Cu	-0.755663	0.236927	0.407435
Cu24	Cu	-0.422330	0.570261	0.740769
Cu25	Cu	-1.089026	-0.096413	-0.073948
Cu26	Cu	-0.755693	0.236921	0.259385
Cu27	Cu	-0.422359	0.570254	0.592719
O28	O	-1.081239	-0.197509	0.062656
O29	O	-0.747906	0.135824	0.395989
O30	O	-0.414573	0.469158	0.729322
C31	C	-0.920382	-0.101271	0.000062
C32	C	-0.587049	0.232063	0.333395
C33	C	-0.253716	0.565396	0.666729
C34	C	-0.818010	-0.099773	0.000054
C35	C	-0.484677	0.233560	0.333387
C36	C	-0.151344	0.566893	0.666720
C37	C	-1.257640	-0.091548	0.000090
C38	C	-0.924307	0.241785	0.333424
C39	C	-0.590974	0.575119	0.666757
C40	C	-1.360012	-0.093045	0.000094
C41	C	-1.026679	0.240288	0.333427
C42	C	-0.693345	0.573621	0.666760
C43	C	-1.096272	0.030571	0.000095
C44	C	-0.762938	0.363905	0.333428
C45	C	-0.429605	0.697238	0.666761
C46	C	-1.094773	0.107680	0.000101
C47	C	-0.761439	0.441014	0.333435
C48	C	-0.428106	0.774347	0.666768
C49	C	-0.443150	-0.094261	0.000089
C50	C	-0.109816	0.239073	0.333422
C51	C	0.223517	0.572406	0.666755
C52	C	-0.547448	-0.095792	0.000079
C53	C	-0.214115	0.237542	0.333412
C54	C	0.119219	0.570875	0.666745
C55	C	-0.630577	-0.097017	0.000070
C56	C	-0.297243	0.236316	0.333404
C57	C	0.036090	0.569650	0.666737
C58	C	-0.734882	-0.098548	0.000062
C59	C	-0.401548	0.234785	0.333395
C60	C	-0.068215	0.568119	0.666728
C61	C	-1.081751	-0.223390	0.000058
C62	C	-0.748418	0.109943	0.333391
C63	C	-0.415084	0.443277	0.666724
C64	C	-1.083250	-0.300499	0.000046
C65	C	-0.749917	0.032834	0.333379
C66	C	-0.416583	0.366168	0.666713
N67	N	-1.088983	-0.096401	0.178232
N68	N	-0.755649	0.236932	0.511566
N69	N	-0.422316	0.570266	0.844899
C70	C	-1.178111	0.152077	0.000112
C71	C	-0.844777	0.485410	0.333446
C72	C	-0.511444	0.818743	0.666779
C73	C	-1.176702	0.224529	0.000100
C74	C	-0.843369	0.557862	0.333434
C75	C	-0.510036	0.891195	0.666767
C76	C	-1.091951	0.252581	0.000092
C77	C	-0.758618	0.585915	0.333426
C78	C	-0.425285	0.919248	0.666759
C79	C	-1.008602	0.208175	0.000077
C80	C	-0.675269	0.541508	0.333410
C81	C	-0.341936	0.874842	0.666744
C82	C	-1.010013	0.135725	0.000081
C83	C	-0.676680	0.469058	0.333415
C84	C	-0.343346	0.802391	0.666748
C85	C	-1.025318	0.361110	0.043937
C86	C	-0.691985	0.694444	0.377270
C87	C	-0.358652	1.027777	0.710604
C88	C	-1.023911	0.433560	0.043937
C89	C	-0.690578	0.766893	0.377271
C90	C	-0.357245	1.100227	0.710604
C91	C	-1.087597	0.476043	0.000075
C92	C	-0.754264	0.809376	0.333408
C93	C	-0.420930	1.142709	0.666742
C94	C	-1.152705	0.446068	-0.043778
C95	C	-0.819372	0.779402	0.289556
C96	C	-0.486039	1.112735	0.622889
C97	C	-1.154116	0.373618	-0.043773
C98	C	-0.820783	0.706951	0.289560
C99	C	-0.487449	1.040284	0.622894
C100	C	-1.090412	0.331141	0.000087
C101	C	-0.757079	0.664474	0.333420
C102	C	-0.423746	0.997808	0.666754
C103	C	-1.169414	0.599000	0.000072
C104	C	-0.836080	0.932334	0.333405
C105	C	-0.502747	1.265667	0.666739
C106	C	-1.168002	0.671454	0.000055
C107	C	-0.834668	1.004787	0.333389
C108	C	-0.501335	1.338120	0.666722
C109	C	-0.999899	0.655098	0.000040
C110	C	-0.666566	0.988432	0.333373
C111	C	-0.333233	1.321765	0.666706
C112	C	-1.001314	0.582647	0.000049
C113	C	-0.667980	0.915980	0.333382
C114	C	-0.334647	1.249313	0.666715
C115	C	-1.086073	0.554602	0.000069
C116	C	-0.752740	0.887936	0.333402
C117	C	-0.419407	1.221269	0.666735
N118	N	-1.089047	-0.096412	-0.178078
N119	N	-0.755714	0.236921	0.155255
N120	N	-0.422381	0.570255	0.488588
C121	C	-1.151895	-0.049282	0.217631
C122	C	-0.818561	0.284051	0.550965
C123	C	-0.485228	0.617384	0.884298
C124	C	-1.151900	-0.049279	0.296433
C125	C	-0.818567	0.284054	0.629767
C126	C	-0.485233	0.617388	0.963100
C127	C	-1.089002	-0.096407	0.335833
C128	C	-0.755669	0.236927	0.669166
C129	C	-0.422335	0.570260	1.002500
C130	C	-1.026078	-0.143529	0.296424
C131	C	-0.692745	0.189804	0.629758
C132	C	-0.359412	0.523138	0.963091
C133	C	-1.026069	-0.143526	0.217624
C134	C	-0.692735	0.189807	0.550957
C135	C	-0.359402	0.523140	0.884291
C136	C	-1.076656	-0.159650	0.460660
C137	C	-0.743323	0.173683	0.793994
C138	C	-0.409989	0.507017	1.127327
C139	C	-1.076672	-0.159654	0.539459
C140	C	-0.743339	0.173680	0.872793
C141	C	-0.410005	0.507013	1.206126
C142	C	-1.089027	-0.096415	0.578879
C143	C	-0.755693	0.236918	0.912213
C144	C	-0.422360	0.570252	1.245546
C145	C	-1.101385	-0.033170	0.539491
C146	C	-0.768051	0.300163	0.872824
C147	C	-0.434718	0.633496	1.206157
C148	C	-1.101375	-0.033167	0.460690
C149	C	-0.768042	0.300166	0.794024
C150	C	-0.434708	0.633499	1.127357
C151	C	-1.089005	-0.096415	0.421279
C152	C	-0.755672	0.236919	0.754612
C153	C	-0.422339	0.570252	1.087945
C154	C	-1.151948	-0.049289	0.703724
C155	C	-0.818615	0.284044	1.037058
C156	C	-0.485281	0.617378	1.370391
C157	C	-1.151947	-0.049285	0.782528
C158	C	-0.818614	0.284049	1.115861
C159	C	-0.485280	0.617382	1.449194
C160	C	-1.026129	-0.143541	0.782517
C161	C	-0.692796	0.189792	1.115850
C162	C	-0.359463	0.523126	1.449184
C163	C	-1.026126	-0.143539	0.703715
C164	C	-0.692793	0.189794	1.037049
C165	C	-0.359460	0.523128	1.370382
C166	C	-1.089040	-0.096414	0.664324
C167	C	-0.755707	0.236920	0.997657
C168	C	-0.422374	0.570253	1.330990
H169	H	-1.247128	0.129248	0.000126
H170	H	-0.913795	0.462581	0.333459
H171	H	-0.580462	0.795915	0.666793
H172	H	-1.207128	0.349216	-0.079481
H173	H	-0.873795	0.682549	0.253852
H174	H	-0.540461	1.015882	0.587186
H175	H	-0.970892	0.457959	0.079640
H176	H	-0.637559	0.791292	0.412974
H177	H	-0.304225	1.124625	0.746307
F178	F	-0.909700	0.684949	0.000027
F179	F	-0.576367	1.018282	0.333360
F180	F	-0.243034	1.351616	0.666694
F181	F	-0.921309	0.088473	0.000069
F182	F	-0.587976	0.421806	0.333402
F183	F	-0.254643	0.755139	0.666736
H184	H	-1.244568	0.260683	0.000106
H185	H	-0.911235	0.594017	0.333440
H186	H	-0.577902	0.927350	0.666773
F187	F	-1.218904	0.000872	0.824461
F188	F	-0.885571	0.334205	1.157794
F189	F	-0.552238	0.667538	1.491127
H190	H	-1.204564	0.480657	-0.079495
H191	H	-0.871231	0.813990	0.253838
H192	H	-0.537897	1.147323	0.587172
F193	F	-0.959106	-0.193679	0.175691
F194	F	-0.625773	0.139654	0.509024
F195	F	-0.292440	0.472988	0.842357
F196	F	-0.918404	0.238031	0.000063
F197	F	-0.585071	0.571365	0.333397
F198	F	-0.251738	0.904698	0.666730
H199	H	-1.203121	-0.010909	0.185561
H200	H	-0.869788	0.322425	0.518894
H201	H	-0.536454	0.655758	0.852228
H202	H	-1.238430	0.576166	0.000085
H203	H	-0.905097	0.909499	0.333418
H204	H	-0.571763	1.242832	0.666752
F205	F	-1.256707	0.718704	0.000062
F206	F	-0.923373	1.052038	0.333396
F207	F	-0.590040	1.385371	0.666729
H208	H	-1.203174	-0.010914	0.671650
H209	H	-0.869841	0.322419	1.004984
H210	H	-0.536507	0.655752	1.338317
H211	H	-0.973455	0.326526	0.079659
H212	H	-0.640122	0.659859	0.412992
H213	H	-0.306789	0.993193	0.746326
F214	F	-0.912613	0.535395	0.000040
F215	F	-0.579279	0.868728	0.333373
F216	F	-0.245946	1.202061	0.666706
F217	F	-1.218863	0.000874	0.338372
F218	F	-0.885530	0.334207	0.671705
F219	F	-0.552197	0.667541	1.005038
H220	H	-1.111435	0.018329	0.428623
H221	H	-0.778102	0.351662	0.761957
H222	H	-0.444768	0.684995	1.095290
H223	H	-1.111445	0.018325	0.571585
H224	H	-0.778111	0.351658	0.904918
H225	H	-0.444778	0.684991	1.238251
F226	F	-0.959183	-0.193693	0.824445
F227	F	-0.625850	0.139640	1.157778
F228	F	-0.292517	0.472973	1.491112
F229	F	-0.959171	-0.193692	0.661780
F230	F	-0.625837	0.139641	0.995114
F231	F	-0.292504	0.472974	1.328447
F232	F	-1.063526	-0.226964	0.581372
F233	F	-0.730193	0.106370	0.914706
F234	F	-0.396859	0.439703	1.248039
H235	H	-1.066579	-0.211150	0.428571
H236	H	-0.733246	0.122184	0.761905
H237	H	-0.399913	0.455517	1.095238
F238	F	-0.959134	-0.193684	0.338356
F239	F	-0.625801	0.139650	0.671690
F240	F	-0.292468	0.472983	1.005023
