data_functionalizedCrystal
_audit_creation_method	'MofGen! by Chris Wilmer'
_symmetry_space_group_name_H-M	'P1'
_symmetry_Int_Tables_number	1
_symmetry_cell_setting	triclinic
loop_
_symmetry_equiv_pos_as_xyz
  x,y,z
_cell_length_a	21.395362
_cell_length_b	21.395362
_cell_length_c	21.395356
_cell_angle_alpha	89.970281
_cell_angle_beta	89.957023
_cell_angle_gamma	90.045668
loop_
_atom_site_label
_atom_site_type_symbol
_atom_site_fract_x
_atom_site_fract_y
_atom_site_fract_z
Zn1	Zn	0.957858	-0.249189	-0.354577
Zn2	Zn	1.457858	0.250811	0.145423
Zn3	Zn	0.957763	-0.353965	-0.249796
Zn4	Zn	1.457763	0.146035	0.250204
Zn5	Zn	0.853074	-0.249235	-0.249778
Zn6	Zn	1.353074	0.250765	0.250222
Zn7	Zn	0.853043	-0.353962	-0.354500
Zn8	Zn	1.353043	0.146038	0.145500
O9	O	0.905435	-0.301588	-0.302163
O10	O	1.405435	0.198412	0.197837
O11	O	1.045523	-0.263070	-0.340717
O12	O	1.545523	0.236930	0.159283
O13	O	0.943850	-0.340094	-0.162115
O14	O	1.443850	0.159906	0.337885
O15	O	0.867026	-0.161551	-0.263704
O16	O	1.367026	0.338449	0.236296
O17	O	1.045454	-0.340049	-0.263734
O18	O	1.545454	0.159951	0.236266
O19	O	0.944010	-0.161517	-0.340700
O20	O	1.444010	0.338483	0.159300
O21	O	0.866935	-0.263148	-0.162102
O22	O	1.366935	0.236852	0.337898
O23	O	0.765392	-0.263145	-0.263630
O24	O	1.265392	0.236855	0.236370
O25	O	0.866974	-0.340042	-0.442188
O26	O	1.366974	0.159958	0.057812
O27	O	0.765370	-0.340087	-0.340569
O28	O	1.265370	0.159913	0.159431
O29	O	0.943980	-0.263066	-0.442245
O30	O	1.443980	0.236934	0.057755
O31	O	0.943820	-0.441643	-0.263660
O32	O	1.443820	0.058357	0.236340
O33	O	0.866882	-0.441640	-0.340586
O34	O	1.366882	0.058360	0.159414
C35	C	0.742647	-0.301621	-0.302090
C36	C	1.242647	0.198379	0.197910
C37	C	0.673006	-0.301650	-0.302074
C38	C	1.173006	0.198350	0.197926
C39	C	0.640297	-0.341767	-0.342076
C40	C	1.140297	0.158233	0.157924
C41	C	0.574862	-0.341752	-0.342104
C42	C	1.074862	0.158248	0.157896
C43	C	0.542137	-0.301626	-0.302118
C44	C	1.042137	0.198374	0.197882
C45	C	0.574854	-0.261501	-0.262113
C46	C	1.074854	0.238499	0.237887
C47	C	0.640288	-0.261513	-0.262091
C48	C	1.140288	0.238487	0.237909
C49	C	0.438414	-0.296587	-0.245713
C50	C	0.938414	0.203413	0.254287
C51	C	0.372981	-0.296580	-0.245735
C52	C	0.872981	0.203420	0.254265
C53	C	0.340317	-0.301585	-0.302188
C54	C	0.840317	0.198415	0.197812
C55	C	0.373094	-0.306611	-0.358621
C56	C	0.873094	0.193389	0.141379
C57	C	0.438528	-0.306623	-0.358599
C58	C	0.938528	0.193377	0.141401
C59	C	0.471185	-0.301608	-0.302138
C60	C	0.971185	0.198392	0.197862
C61	C	0.236656	-0.341687	-0.342223
C62	C	0.736656	0.158313	0.157777
C63	C	0.171219	-0.341668	-0.342252
C64	C	0.671219	0.158332	0.157748
C65	C	0.171212	-0.261420	-0.262256
C66	C	0.671212	0.238580	0.237744
C67	C	0.236648	-0.261437	-0.262233
C68	C	0.736648	0.238563	0.237767
C69	C	0.269365	-0.301574	-0.302216
C70	C	0.769365	0.198426	0.197784
C71	C	0.905355	-0.464375	-0.302130
C72	C	1.405355	0.035625	0.197870
C73	C	0.905378	-0.534017	-0.302138
C74	C	1.405378	-0.034017	0.197862
C75	C	0.945440	-0.566655	-0.342258
C76	C	1.445440	-0.066655	0.157742
C77	C	0.945462	-0.632091	-0.342273
C78	C	1.445462	-0.132091	0.157727
C79	C	0.905428	-0.664885	-0.302157
C80	C	1.405428	-0.164885	0.197843
C81	C	0.865358	-0.632238	-0.262034
C82	C	1.365358	-0.132238	0.237966
C83	C	0.865333	-0.566804	-0.262025
C84	C	1.365333	-0.066804	0.237975
C85	C	0.900552	-0.768596	-0.245717
C86	C	1.400552	-0.268596	0.254283
C87	C	0.900582	-0.834028	-0.245725
C88	C	1.400582	-0.334028	0.254275
C89	C	0.905503	-0.866706	-0.302187
C90	C	1.405503	-0.366706	0.197813
C91	C	0.910407	-0.833942	-0.358643
C92	C	1.410407	-0.333942	0.141357
C93	C	0.910382	-0.768507	-0.358633
C94	C	1.410382	-0.268507	0.141367
C95	C	0.905451	-0.735837	-0.302163
C96	C	1.405451	-0.235837	0.197837
C97	C	0.945591	-0.970297	-0.342327
C98	C	1.445591	-0.470297	0.157673
C99	C	0.945609	-1.035733	-0.342344
C100	C	1.445609	-0.535733	0.157656
C101	C	0.865508	-1.035880	-0.262100
C102	C	1.365508	-0.535880	0.237900
C103	C	0.865487	-0.970444	-0.262089
C104	C	1.365487	-0.470444	0.237911
C105	C	0.905532	-0.937657	-0.302202
C106	C	1.405532	-0.437657	0.197798
C107	C	1.068858	-0.301555	-0.302236
C108	C	1.568858	0.198445	0.197764
C109	C	1.138499	-0.301541	-0.302267
C110	C	1.638499	0.198459	0.197733
C111	C	0.905484	-0.301549	-0.465586
C112	C	1.405484	0.198451	0.034414
C113	C	0.905505	-0.301532	-0.535227
C114	C	1.405505	0.198468	-0.035227
C115	C	0.905532	-0.138164	-0.302209
C116	C	1.405532	0.361836	0.197791
C117	C	0.905574	-0.068523	-0.302228
C118	C	1.405574	0.431477	0.197772
C119	C	0.865466	-0.261462	-0.567924
C120	C	1.365466	0.238538	-0.067924
C121	C	0.865464	-0.261451	-0.633359
C122	C	1.365464	0.238549	-0.133359
C123	C	0.905512	-0.301502	-0.666096
C124	C	1.405512	0.198498	-0.166096
C125	C	0.945553	-0.341580	-0.633391
C126	C	1.445553	0.158420	-0.133391
C127	C	0.945550	-0.341595	-0.567957
C128	C	1.445550	0.158405	-0.067957
C129	C	0.961964	-0.306413	-0.769801
C130	C	1.461964	0.193587	-0.269801
C131	C	0.961968	-0.306393	-0.835234
C132	C	1.461968	0.193607	-0.335234
C133	C	0.905522	-0.301460	-0.867917
C134	C	1.405522	0.198540	-0.367917
C135	C	0.849070	-0.296533	-0.835158
C136	C	1.349070	0.203467	-0.335158
C137	C	0.849066	-0.296548	-0.769724
C138	C	1.349066	0.203452	-0.269724
C139	C	0.905520	-0.301491	-0.737048
C140	C	1.405520	0.198509	-0.237048
C141	C	0.865478	-0.261376	-0.971566
C142	C	1.365478	0.238624	-0.471566
C143	C	0.865475	-0.261368	-1.037002
C144	C	1.365475	0.238632	-0.537002
C145	C	0.945570	-0.341494	-1.037033
C146	C	1.445570	0.158506	-0.537033
C147	C	0.945567	-0.341505	-0.971598
C148	C	1.445567	0.158495	-0.471598
C149	C	0.905522	-0.301442	-0.938868
C150	C	1.405522	0.198558	-0.438868
C151	C	0.905422	-0.301581	-0.139375
C152	C	1.405422	0.198419	0.360625
C153	C	0.905522	-0.301421	-0.069734
C154	C	1.405522	0.198579	0.430266
H155	H	0.465212	-0.310714	-0.404549
H156	H	0.965212	0.189286	0.095451
H157	H	0.144589	-0.374335	-0.374831
H158	H	0.644589	0.125665	0.125169
H159	H	0.144569	-0.228746	-0.229702
H160	H	0.644569	0.271254	0.270298
C161	C	0.272629	-0.217316	-0.218222
C162	C	0.772629	0.282684	0.281778
H163	H	0.243770	-0.193419	-0.194408
H164	H	0.743770	0.306581	0.305592
H165	H	0.298210	-0.190052	-0.242228
H166	H	0.798210	0.309948	0.257772
H167	H	0.298099	-0.241259	-0.190868
H168	H	0.798099	0.258741	0.309132
C169	C	1.024062	-0.311811	-0.871262
C170	C	1.524062	0.188189	-0.371262
H171	H	1.057678	-0.314763	-0.842428
H172	H	1.557678	0.185237	-0.342428
H173	H	1.029597	-0.275897	-0.896801
H174	H	1.529597	0.224103	-0.396801
H175	H	1.023224	-0.348128	-0.896777
H176	H	1.523224	0.151872	-0.396777
H177	H	0.832908	-1.062580	-0.229440
H178	H	1.332908	-0.562580	0.270560
C179	C	0.989481	-0.530589	-0.386384
C180	C	1.489481	-0.030589	0.113616
H181	H	0.983733	-0.486944	-0.380631
H182	H	1.483733	0.013056	0.119369
H183	H	0.980296	-0.541298	-0.428471
H184	H	1.480296	-0.041298	0.071529
H185	H	1.031590	-0.541269	-0.377264
H186	H	1.531590	-0.041269	0.122736
C187	C	0.915769	-0.732466	-0.420726
C188	C	1.415769	-0.232466	0.079274
H189	H	0.915053	-0.688817	-0.412631
H190	H	1.415053	-0.188817	0.087369
H191	H	0.881677	-0.743211	-0.447041
H192	H	1.381677	-0.243211	0.052959
H193	H	0.953911	-0.743129	-0.440811
H194	H	1.453911	-0.243129	0.059189
C195	C	0.989680	-1.071639	-0.386476
C196	C	1.489680	-0.571639	0.113524
H197	H	0.983956	-1.115306	-0.380743
H198	H	1.483956	-0.615306	0.119257
H199	H	1.031777	-1.060873	-0.377353
H200	H	1.531777	-0.560873	0.122647
H201	H	0.980486	-1.060897	-0.428564
H202	H	1.480486	-0.560897	0.071436
H203	H	0.346299	-0.292491	-0.199783
H204	H	0.846299	0.207509	0.300217
H205	H	0.346500	-0.310686	-0.404591
H206	H	0.846500	0.189314	0.095409
H207	H	0.263296	-0.374366	-0.374783
H208	H	0.763296	0.125634	0.125217
C209	C	0.538860	-0.217364	-0.218131
C210	C	1.038860	0.282636	0.281869
H211	H	0.495205	-0.223106	-0.223869
H212	H	0.995205	0.276894	0.276131
H213	H	0.549634	-0.175281	-0.227374
H214	H	1.049634	0.324719	0.272626
H215	H	0.549530	-0.226483	-0.176010
H216	H	1.049530	0.273517	0.323990
H217	H	0.832761	-0.658944	-0.229373
H218	H	1.332761	-0.158944	0.270627
C219	C	0.895180	-0.870066	-0.183631
C220	C	1.395180	-0.370066	0.316369
H221	H	0.895905	-0.913715	-0.191722
H222	H	1.395905	-0.413715	0.308278
H223	H	0.857039	-0.859399	-0.163555
H224	H	1.357039	-0.359399	0.336445
H225	H	0.929272	-0.859321	-0.157310
H226	H	1.429272	-0.359321	0.342690
H227	H	0.832861	-0.228818	-0.659986
H228	H	1.332861	0.271182	-0.159986
C229	C	0.676272	-0.217386	-0.218086
C230	C	1.176272	0.282614	0.281914
H231	H	0.719928	-0.223139	-0.223802
H232	H	1.219928	0.276861	0.276198
H233	H	0.665492	-0.226495	-0.175975
H234	H	1.165492	0.273505	0.324025
H235	H	0.665602	-0.175296	-0.227343
H236	H	1.165602	0.324704	0.272657
C237	C	0.989620	-0.385554	-1.073032
C238	C	1.489620	0.114446	-0.573032
H239	H	1.013465	-0.409423	-1.044184
H240	H	1.513465	0.090577	-0.544184
H241	H	1.016935	-0.361579	-1.098587
H242	H	1.516935	0.138421	-0.598587
H243	H	0.965631	-0.412855	-1.098530
H244	H	1.465631	0.087145	-0.598530
H245	H	0.465003	-0.292509	-0.199739
H246	H	0.965003	0.207491	0.300261
H247	H	0.914415	-0.860546	-0.404619
H248	H	1.414415	-0.360546	0.095381
C249	C	0.989539	-0.668001	-0.386400
C250	C	1.489539	-0.168001	0.113600
H251	H	1.013387	-0.639102	-0.410284
H252	H	1.513387	-0.139102	0.089716
H253	H	0.965574	-0.693541	-0.413675
H254	H	1.465574	-0.193541	0.086325
H255	H	1.016858	-0.693506	-0.362458
H256	H	1.516858	-0.193506	0.137542
C257	C	0.786974	-0.291139	-0.733692
C258	C	1.286974	0.208861	-0.233692
H259	H	0.753354	-0.288204	-0.762523
H260	H	1.253354	0.211796	-0.262523
H261	H	0.787805	-0.254829	-0.708174
H262	H	1.287805	0.245171	-0.208174
H263	H	0.781450	-0.327061	-0.708155
H264	H	1.281450	0.172939	-0.208155
C265	C	0.821430	-0.217288	-1.072969
C266	C	1.321430	0.282712	-0.572969
H267	H	0.797587	-0.193428	-1.044102
H268	H	1.297587	0.306572	-0.544102
H269	H	0.794114	-0.241252	-1.098468
H270	H	1.294114	0.258748	-0.598468
H271	H	0.845422	-0.189980	-1.098520
H272	H	1.345422	0.310020	-0.598520
H273	H	0.803106	-0.292511	-0.861767
H274	H	1.303106	0.207489	-0.361767
C275	C	0.989632	-0.934225	-0.386453
C276	C	1.489632	-0.434225	0.113547
H277	H	0.983885	-0.890579	-0.380695
H278	H	1.483885	-0.390579	0.119305
H279	H	0.980445	-0.944929	-0.428541
H280	H	1.480445	-0.444929	0.071459
H281	H	1.031740	-0.944907	-0.377334
H282	H	1.531740	-0.444907	0.122666
H283	H	0.832867	-0.943868	-0.229417
H284	H	1.332867	-0.443868	0.270583
C285	C	0.821427	-0.217316	-0.935557
C286	C	1.321427	0.282684	-0.435557
H287	H	0.827166	-0.223057	-0.891904
H288	H	1.327166	0.276943	-0.391904
H289	H	0.779324	-0.226491	-0.946246
H290	H	1.279324	0.273509	-0.446246
H291	H	0.830626	-0.175212	-0.946302
H292	H	1.330626	0.324788	-0.446302
C293	C	0.989613	-0.385577	-0.935627
C294	C	1.489613	0.114423	-0.435627
H295	H	0.983872	-0.379853	-0.891968
H296	H	1.483872	0.120147	-0.391968
H297	H	1.031717	-0.376399	-0.946382
H298	H	1.531717	0.123601	-0.446382
H299	H	0.980413	-0.427676	-0.946332
H300	H	1.480413	0.072324	-0.446332
C301	C	0.895139	-0.732657	-0.183605
C302	C	1.395139	-0.232657	0.316395
H303	H	0.892231	-0.761540	-0.149984
H304	H	1.392231	-0.261540	0.350016
H305	H	0.858810	-0.707173	-0.184367
H306	H	1.358810	-0.207173	0.315633
H307	H	0.931044	-0.707093	-0.178140
H308	H	1.431044	-0.207093	0.321860
C309	C	0.821266	-0.530900	-0.217887
C310	C	1.321266	-0.030900	0.282113
H311	H	0.797427	-0.559800	-0.193994
H312	H	1.297427	-0.059800	0.306006
H313	H	0.793946	-0.505387	-0.241814
H314	H	1.293946	-0.005387	0.258186
H315	H	0.845244	-0.505368	-0.190611
H316	H	1.345244	-0.005368	0.309389
C317	C	1.024059	-0.311836	-0.733856
C318	C	1.524059	0.188164	-0.233856
H319	H	1.057680	-0.314757	-0.762736
H320	H	1.557680	0.185243	-0.262736
H321	H	1.023227	-0.348159	-0.708317
H322	H	1.523227	0.151841	-0.208317
H323	H	1.029582	-0.275926	-0.708347
H324	H	1.529582	0.224074	-0.208347
C325	C	0.821416	-0.217398	-0.531925
C326	C	1.321416	0.282602	-0.031925
H327	H	0.797566	-0.193535	-0.560773
H328	H	1.297566	0.306465	-0.060773
H329	H	0.845399	-0.190101	-0.506423
H330	H	1.345399	0.309899	-0.006423
H331	H	0.794095	-0.241379	-0.506374
H332	H	1.294095	0.258621	-0.006374
H333	H	0.978161	-0.374191	-0.660049
H334	H	1.478161	0.125809	-0.160049
C335	C	0.989598	-0.385670	-0.531989
C336	C	1.489598	0.114330	-0.031989
H337	H	1.013452	-0.409521	-0.560855
H338	H	1.513452	0.090479	-0.060855
H339	H	0.965615	-0.412978	-0.506435
H340	H	1.465615	0.087022	-0.006435
H341	H	1.016914	-0.361697	-0.506493
H342	H	1.516914	0.138303	-0.006493
H343	H	0.548225	-0.374419	-0.374681
H344	H	1.048225	0.125581	0.125319
C345	C	0.676283	-0.385909	-0.386062
C346	C	1.176283	0.114091	0.113938
H347	H	0.647427	-0.409795	-0.409894
H348	H	1.147427	0.090205	0.090106
H349	H	0.701759	-0.413181	-0.362039
H350	H	1.201759	0.086819	0.137961
H351	H	0.701859	-0.361976	-0.413400
H352	H	1.201859	0.138024	0.086600
