data_functionalizedCrystal
_audit_creation_method	'MofGen! by Chris Wilmer'
_symmetry_space_group_name_H-M	'P1'
_symmetry_Int_Tables_number	1
_symmetry_cell_setting	triclinic
loop_
_symmetry_equiv_pos_as_xyz
  x,y,z
_cell_length_a	18.101398
_cell_length_b	13.897448
_cell_length_c	13.897441
_cell_angle_alpha	89.969401
_cell_angle_beta	90.027689
_cell_angle_gamma	89.984577
loop_
_atom_site_label
_atom_site_type_symbol
_atom_site_fract_x
_atom_site_fract_y
_atom_site_fract_z
Zn1	Zn	1.132211	0.384042	0.545560
Zn2	Zn	1.465545	0.717376	0.878893
Zn3	Zn	1.798878	1.050709	1.212227
Zn4	Zn	1.132130	0.545364	0.384262
Zn5	Zn	1.465463	0.878697	0.717595
Zn6	Zn	1.798796	1.212031	1.050928
Zn7	Zn	1.008364	0.384078	0.384259
Zn8	Zn	1.341697	0.717412	0.717592
Zn9	Zn	1.675031	1.050745	1.050926
Zn10	Zn	1.008350	0.545291	0.545495
Zn11	Zn	1.341683	0.878624	0.878828
Zn12	Zn	1.675017	1.211957	1.212161
O13	O	1.070264	0.464694	0.464894
O14	O	1.403597	0.798027	0.798227
O15	O	1.736930	1.131361	1.131560
O16	O	1.235833	0.405458	0.524192
O17	O	1.569167	0.738791	0.857525
O18	O	1.902500	1.072124	1.190859
O19	O	1.115684	0.524015	0.249279
O20	O	1.449017	0.857348	0.582613
O21	O	1.782350	1.190682	0.915946
O22	O	1.024832	0.249092	0.405682
O23	O	1.358166	0.582425	0.739016
O24	O	1.691499	0.915759	1.072349
O25	O	1.235773	0.523980	0.405687
O26	O	1.569107	0.857313	0.739020
O27	O	1.902440	1.190647	1.072353
O28	O	1.115823	0.249066	0.524190
O29	O	1.449156	0.582399	0.857523
O30	O	1.782489	0.915732	1.190856
O31	O	1.024754	0.405519	0.249278
O32	O	1.358087	0.738852	0.582611
O33	O	1.691420	1.072186	0.915944
O34	O	0.904729	0.405448	0.405619
O35	O	1.238062	0.738781	0.738952
O36	O	1.571396	1.072115	1.072285
O37	O	1.024809	0.523855	0.680485
O38	O	1.358142	0.857188	1.013818
O39	O	1.691475	1.190522	1.347152
O40	O	0.904719	0.523890	0.524078
O41	O	1.238052	0.857223	0.857411
O42	O	1.571385	1.190557	1.190744
O43	O	1.115809	0.405387	0.680533
O44	O	1.449142	0.738720	1.013867
O45	O	1.782476	1.072053	1.347200
O46	O	1.115670	0.680336	0.405623
O47	O	1.449004	1.013669	0.738956
O48	O	1.782337	1.347003	1.072290
O49	O	1.024730	0.680282	0.524080
O50	O	1.358063	1.013615	0.857414
O51	O	1.691396	1.346949	1.190747
C52	C	0.877853	0.464666	0.464841
C53	C	1.211186	0.797999	0.798175
C54	C	1.544520	1.131332	1.131508
C55	C	0.795539	0.464677	0.464842
C56	C	1.128872	0.798010	0.798175
C57	C	1.462206	1.131343	1.131509
C58	C	1.070210	0.715308	0.464866
C59	C	1.403543	1.048642	0.798199
C60	C	1.736876	1.381975	1.131533
C61	C	1.070254	0.822522	0.464886
C62	C	1.403588	1.155856	0.798220
C63	C	1.736921	1.489189	1.131553
C64	C	1.070316	0.464609	0.716487
C65	C	1.403650	0.797942	1.049820
C66	C	1.736983	1.131275	1.383154
C67	C	1.070339	0.464572	0.823701
C68	C	1.403672	0.797906	1.157034
C69	C	1.737005	1.131239	1.490368
C70	C	0.644831	0.464696	0.464885
C71	C	0.978164	0.798030	0.798219
C72	C	1.311497	1.131363	1.131552
C73	C	0.613459	0.390069	0.390478
C74	C	0.946792	0.723402	0.723811
C75	C	1.280125	1.056736	1.057145
C76	C	0.527840	0.389788	0.390722
C77	C	0.861174	0.723122	0.724056
C78	C	1.194507	1.056455	1.057389
C79	C	0.496448	0.464716	0.464926
C80	C	0.829781	0.798049	0.798260
C81	C	1.163115	1.131382	1.131593
C82	C	0.527587	0.437574	0.566697
C83	C	0.860920	0.770908	0.900030
C84	C	1.194254	1.104241	1.233363
C85	C	0.613232	0.437022	0.566242
C86	C	0.946565	0.770355	0.899576
C87	C	1.279899	1.103688	1.232909
C88	C	0.613244	0.566658	0.438420
C89	C	0.946578	0.899992	0.771753
C90	C	1.279911	1.233325	1.105086
C91	C	0.527593	0.566121	0.436202
C92	C	0.860926	0.899455	0.769535
C93	C	1.194259	1.232788	1.102868
C94	C	0.412589	0.464728	0.464956
C95	C	0.745922	0.798062	0.798289
C96	C	1.079255	1.131395	1.131622
C97	C	0.728690	0.464681	0.464863
C98	C	1.062023	0.798015	0.798196
C99	C	1.395357	1.131348	1.131529
C100	C	1.263426	0.464723	0.464947
C101	C	1.596759	0.798056	0.798280
C102	C	1.930092	1.131390	1.131614
C103	C	1.345740	0.464736	0.464970
C104	C	1.679073	0.798069	0.798303
C105	C	2.012406	1.131402	1.131636
C106	C	1.070338	0.213101	0.464943
C107	C	1.403671	0.546434	0.798276
C108	C	1.737005	0.879768	1.131610
C109	C	1.070370	0.105887	0.464964
C110	C	1.403703	0.439220	0.798297
C111	C	1.737036	0.772554	1.131631
C112	C	1.070332	1.018817	0.464947
C113	C	1.403665	1.352151	0.798280
C114	C	1.736999	1.685484	1.131613
C115	C	1.070287	0.909585	0.464916
C116	C	1.403620	1.242918	0.798249
C117	C	1.736953	1.576251	1.131583
C118	C	1.070254	0.464709	0.214279
C119	C	1.403587	0.798043	0.547613
C120	C	1.736921	1.131376	0.880946
C121	C	1.070375	0.464474	0.107066
C122	C	1.403708	0.797807	0.440399
C123	C	1.737042	1.131141	0.773733
C124	C	1.070359	0.464507	1.019996
C125	C	1.403692	0.797840	1.353330
C126	C	1.737025	1.131174	1.686663
C127	C	1.070345	0.464546	0.910764
C128	C	1.403679	0.797879	1.244097
C129	C	1.737012	1.131213	1.577430
H130	H	0.506783	0.406723	0.315274
H131	H	0.840117	0.740056	0.648607
H132	H	1.173450	1.073389	0.981940
H133	H	0.634000	0.406810	0.314778
H134	H	0.967333	0.740144	0.648112
H135	H	1.300666	1.073477	0.981445
Cl136	Cl	0.494499	0.323796	0.601848
Cl137	Cl	0.827832	0.657130	0.935182
Cl138	Cl	1.161165	0.990463	1.268515
H139	H	0.506217	0.624672	0.486409
H140	H	0.839551	0.958005	0.819742
H141	H	1.172884	1.291338	1.153076
H142	H	0.507258	0.490273	0.623671
H143	H	0.840591	0.823607	0.957004
H144	H	1.173925	1.156940	1.290337
Cl145	Cl	0.496164	0.597737	0.320566
Cl146	Cl	0.829497	0.931071	0.653899
Cl147	Cl	1.162830	1.264404	0.987232
Cl148	Cl	0.646703	0.274080	0.417255
Cl149	Cl	0.980036	0.607413	0.750588
Cl150	Cl	1.313369	0.940747	1.083922
Cl151	Cl	0.644589	0.652502	0.522066
Cl152	Cl	0.977923	0.985835	0.855399
Cl153	Cl	1.311256	1.319169	1.188733
H154	H	0.634807	0.591442	0.365448
H155	H	0.968140	0.924775	0.698781
H156	H	1.301473	1.258109	1.032115
H157	H	0.507365	0.314241	0.408293
H158	H	0.840699	0.647574	0.741627
H159	H	1.174032	0.980907	1.074960
H160	H	0.633990	0.489036	0.623601
H161	H	0.967323	0.822369	0.956934
H162	H	1.300656	1.155702	1.290268
Cl163	Cl	0.644102	0.321971	0.600780
Cl164	Cl	0.977435	0.655304	0.934114
Cl165	Cl	1.310768	0.988638	1.267447
