data_functionalizedCrystal
_audit_creation_method	'MofGen! by Chris Wilmer'
_symmetry_space_group_name_H-M	'P1'
_symmetry_Int_Tables_number	1
_symmetry_cell_setting	triclinic
loop_
_symmetry_equiv_pos_as_xyz
  x,y,z
_cell_length_a	16.625548
_cell_length_b	16.120444
_cell_length_c	16.625539
_cell_angle_alpha	92.869358
_cell_angle_beta	89.979432
_cell_angle_gamma	92.927662
loop_
_atom_site_label
_atom_site_type_symbol
_atom_site_fract_x
_atom_site_fract_y
_atom_site_fract_z
Zn1	Zn	1.216382	-0.331884	-0.472171
Zn2	Zn	1.466382	-0.081884	-0.222171
Zn3	Zn	1.716382	0.168116	0.027829
Zn4	Zn	1.966382	0.418116	0.277829
Zn5	Zn	1.209438	-0.471309	-0.344170
Zn6	Zn	1.459438	-0.221309	-0.094170
Zn7	Zn	1.709438	0.028691	0.155830
Zn8	Zn	1.959438	0.278691	0.405830
Zn9	Zn	1.081542	-0.331916	-0.337353
Zn10	Zn	1.331542	-0.081916	-0.087353
Zn11	Zn	1.581542	0.168084	0.162647
Zn12	Zn	1.831542	0.418084	0.412647
Zn13	Zn	1.074670	-0.471261	-0.478957
Zn14	Zn	1.324670	-0.221261	-0.228957
Zn15	Zn	1.574670	0.028739	0.021043
Zn16	Zn	1.824670	0.278739	0.271043
O17	O	1.145508	-0.401592	-0.408163
O18	O	1.395508	-0.151592	-0.158163
O19	O	1.645508	0.098408	0.091837
O20	O	1.895508	0.348408	0.341837
O21	O	1.328293	-0.350386	-0.455204
O22	O	1.578293	-0.100386	-0.205204
O23	O	1.828293	0.149614	0.044796
O24	O	2.078293	0.399614	0.294796
O25	O	1.192443	-0.452851	-0.230435
O26	O	1.442443	-0.202851	0.019565
O27	O	1.692443	0.047149	0.269565
O28	O	1.942443	0.297149	0.519565
O29	O	1.105211	-0.215245	-0.349544
O30	O	1.355211	0.034755	-0.099544
O31	O	1.605211	0.284755	0.150456
O32	O	1.855211	0.534755	0.400456
O33	O	1.323192	-0.452821	-0.361162
O34	O	1.573192	-0.202821	-0.111162
O35	O	1.823192	0.047179	0.138838
O36	O	2.073192	0.297179	0.388838
O37	O	1.204278	-0.215222	-0.448594
O38	O	1.454278	0.034778	-0.198594
O39	O	1.704278	0.284778	0.051406
O40	O	1.954278	0.534778	0.301406
O41	O	1.098478	-0.350440	-0.225427
O42	O	1.348478	-0.100440	0.024573
O43	O	1.598478	0.149560	0.274573
O44	O	1.848478	0.399560	0.524573
O45	O	0.967799	-0.350393	-0.356125
O46	O	1.217799	-0.100393	-0.106125
O47	O	1.467799	0.149607	0.143875
O48	O	1.717799	0.399607	0.393875
O49	O	1.093498	-0.452739	-0.590888
O50	O	1.343498	-0.202739	-0.340888
O51	O	1.593498	0.047261	-0.090888
O52	O	1.843498	0.297261	0.159112
O53	O	0.962749	-0.452770	-0.460161
O54	O	1.212749	-0.202770	-0.210161
O55	O	1.462749	0.047230	0.039839
O56	O	1.712749	0.297230	0.289839
O57	O	1.197613	-0.350339	-0.585902
O58	O	1.447613	-0.100339	-0.335902
O59	O	1.697613	0.149661	-0.085902
O60	O	1.947613	0.399661	0.164098
O61	O	1.185779	-0.587969	-0.367743
O62	O	1.435779	-0.337969	-0.117743
O63	O	1.685779	-0.087969	0.132257
O64	O	1.935779	0.162031	0.382257
O65	O	1.086765	-0.587934	-0.466770
O66	O	1.336765	-0.337934	-0.216770
O67	O	1.586765	-0.087934	0.033230
O68	O	1.836765	0.162066	0.283230
C69	C	0.936018	-0.401580	-0.408140
C70	C	1.186018	-0.151580	-0.158140
C71	C	1.436018	0.098420	0.091860
C72	C	1.686018	0.348420	0.341860
C73	C	0.846396	-0.401595	-0.408150
C74	C	1.096396	-0.151595	-0.158150
C75	C	1.346396	0.098405	0.091850
C76	C	1.596396	0.348405	0.341850
C77	C	0.518220	-0.401601	-0.408185
C78	C	0.768220	-0.151601	-0.158185
C79	C	1.018220	0.098399	0.091815
C80	C	1.268220	0.348399	0.341815
C81	C	0.609529	-0.401597	-0.408172
C82	C	0.859529	-0.151597	-0.158172
C83	C	1.109529	0.098403	0.091828
C84	C	1.359529	0.348403	0.341828
C85	C	0.682305	-0.401599	-0.408167
C86	C	0.932305	-0.151599	-0.158167
C87	C	1.182305	0.098401	0.091833
C88	C	1.432305	0.348401	0.341833
C89	C	0.773620	-0.401594	-0.408156
C90	C	1.023620	-0.151594	-0.158156
C91	C	1.273620	0.098406	0.091844
C92	C	1.523620	0.348406	0.341844
C93	C	1.134795	-0.618202	-0.418750
C94	C	1.384795	-0.368202	-0.168750
C95	C	1.634795	-0.118202	0.081250
C96	C	1.884795	0.131798	0.331250
C97	C	1.130285	-0.710868	-0.423306
C98	C	1.380285	-0.460868	-0.173306
C99	C	1.630285	-0.210868	0.076694
C100	C	1.880285	0.039132	0.326694
C101	C	1.169099	-0.921808	-0.384700
C102	C	1.419099	-0.671808	-0.134700
C103	C	1.669099	-0.421808	0.115300
C104	C	1.919099	-0.171808	0.365300
C105	C	1.122066	-0.880525	-0.431634
C106	C	1.372066	-0.630525	-0.181634
C107	C	1.622066	-0.380525	0.068366
C108	C	1.872066	-0.130525	0.318366
C109	C	1.126641	-0.786119	-0.426999
C110	C	1.376641	-0.536119	-0.176999
C111	C	1.626641	-0.286119	0.073001
C112	C	1.876641	-0.036119	0.323001
C113	C	1.164526	-1.016223	-0.389334
C114	C	1.414526	-0.766223	-0.139334
C115	C	1.664526	-0.516223	0.110666
C116	C	1.914526	-0.266223	0.360666
C117	C	1.355816	-0.401605	-0.408187
C118	C	1.605816	-0.151605	-0.158187
C119	C	1.855816	0.098395	0.091813
C120	C	2.105816	0.348395	0.341813
C121	C	1.445437	-0.401610	-0.408197
C122	C	1.695437	-0.151610	-0.158197
C123	C	1.945437	0.098390	0.091803
C124	C	2.195437	0.348390	0.341803
C125	C	1.145564	-0.401530	-0.618469
C126	C	1.395564	-0.151530	-0.368469
C127	C	1.645564	0.098470	-0.118469
C128	C	1.895564	0.348470	0.131531
C129	C	1.145587	-0.401504	-0.708089
C130	C	1.395587	-0.151504	-0.458089
C131	C	1.645587	0.098496	-0.208089
C132	C	1.895587	0.348496	0.041911
C133	C	1.156286	-0.184137	-0.397552
C134	C	1.406286	0.065863	-0.147552
C135	C	1.656286	0.315863	0.102448
C136	C	1.906286	0.565863	0.352448
C137	C	1.160878	-0.091471	-0.393030
C138	C	1.410878	0.158529	-0.143030
C139	C	1.660878	0.408529	0.106970
C140	C	1.910878	0.658529	0.356970
C141	C	1.145629	-0.401410	-1.036260
C142	C	1.395629	-0.151410	-0.786260
C143	C	1.645629	0.098590	-0.536260
C144	C	1.895629	0.348590	-0.286260
C145	C	1.145615	-0.401439	-0.944953
C146	C	1.395615	-0.151439	-0.694953
C147	C	1.645615	0.098561	-0.444953
C148	C	1.895615	0.348561	-0.194953
C149	C	1.145609	-0.401458	-0.872177
C150	C	1.395609	-0.151458	-0.622177
C151	C	1.645609	0.098542	-0.372177
C152	C	1.895609	0.348542	-0.122177
C153	C	1.145594	-0.401485	-0.780864
C154	C	1.395594	-0.151485	-0.530864
C155	C	1.645594	0.098515	-0.280864
C156	C	1.895594	0.348515	-0.030864
C157	C	1.145502	-0.401594	-0.198672
C158	C	1.395502	-0.151594	0.051328
C159	C	1.645502	0.098406	0.301328
C160	C	1.895502	0.348406	0.551328
C161	C	1.145646	-0.401386	-0.109041
C162	C	1.395646	-0.151386	0.140959
C163	C	1.645646	0.098614	0.390959
C164	C	1.895646	0.348614	0.640959
H165	H	1.078365	-0.916083	-0.475295
H166	H	1.328365	-0.666083	-0.225295
H167	H	1.578365	-0.416083	0.024705
H168	H	1.828365	-0.166083	0.274705
Br169	Br	1.241933	-0.862547	-0.311932
Br170	Br	1.491933	-0.612547	-0.061932
Br171	Br	1.741933	-0.362547	0.188068
Br172	Br	1.991933	-0.112547	0.438068
