data_functionalizedCrystal
_audit_creation_method	'MofGen! by Chris Wilmer'
_symmetry_space_group_name_H-M	'P1'
_symmetry_Int_Tables_number	1
_symmetry_cell_setting	triclinic
loop_
_symmetry_equiv_pos_as_xyz
  x,y,z
_cell_length_a	10.967874
_cell_length_b	10.967829
_cell_length_c	9.130313
_cell_angle_alpha	77.870844
_cell_angle_beta	77.871048
_cell_angle_gamma	82.165976
loop_
_atom_site_label
_atom_site_type_symbol
_atom_site_fract_x
_atom_site_fract_y
_atom_site_fract_z
O1	O	1.657180	0.175009	-0.584232
O2	O	1.294028	0.191765	-0.496806
O3	O	1.483981	0.001810	-0.496797
O4	O	1.467227	0.364964	-0.584240
O5	O	1.483978	0.001815	-0.253199
O6	O	1.294026	0.191770	-0.253208
O7	O	1.657178	0.175014	-0.340633
Cu8	Cu	1.475602	0.183392	-0.274678
Cu9	Cu	1.475604	0.183386	-0.562761
O10	O	1.467225	0.364969	-0.340642
C11	C	1.247527	0.190549	-0.362963
C12	C	1.108973	0.186902	-0.327073
C13	C	1.047203	0.185274	-0.437264
C14	C	0.904000	0.181505	-0.400172
C15	C	1.482760	-0.044687	-0.362956
C16	C	1.479113	-0.183242	-0.327069
C17	C	1.477488	-0.245010	-0.437262
C18	C	1.473718	-0.388214	-0.400174
C19	C	1.703679	0.176230	-0.474479
C20	C	1.842233	0.179877	-0.510379
C21	C	1.468445	0.411466	-0.474487
C22	C	1.472093	0.550021	-0.510383
N23	N	1.475609	0.183396	-0.072058
N24	N	1.475607	0.183373	-0.765381
C25	C	1.559742	0.099313	0.004585
C26	C	1.559738	0.099298	0.157926
C27	C	1.391465	0.267460	0.157967
C28	C	1.391463	0.267468	0.004631
C29	C	1.656896	0.002229	0.004561
C30	C	1.656893	0.002214	0.157902
H31	H	0.850870	0.180116	-0.278369
H32	H	1.635605	-0.093686	-0.007474
C33	C	1.468443	-0.587906	-0.230820
C34	C	1.471817	-0.459926	-0.235735
H35	H	1.467273	-0.632176	-0.129304
H36	H	1.395247	-0.600273	-0.263818
H37	H	1.540536	-0.618068	-0.295990
H38	H	1.399718	-0.429762	-0.170573
H39	H	1.545020	-0.447551	-0.202718
H40	H	1.626588	-0.088423	0.235977
C41	C	1.864853	0.048566	0.030627
C42	C	1.786341	0.031051	0.174148
H43	H	1.944762	0.066373	0.040660
H44	H	1.873722	-0.025405	-0.010743
H45	H	1.829327	0.116624	-0.035363
H46	H	1.821863	-0.037014	0.240135
H47	H	1.777475	0.105030	0.215539
H48	H	1.473478	-0.396849	-0.632186
C49	C	1.374298	-0.085295	-0.605376
C50	C	1.479402	-0.173282	-0.601690
H51	H	1.375493	-0.041009	-0.706889
H52	H	1.300324	-0.127189	-0.570727
H53	H	1.375810	-0.028002	-0.541027
H54	H	1.477885	-0.230581	-0.666031
H55	H	1.553395	-0.131386	-0.636359
C56	C	1.370952	-0.210463	-0.066601
C57	C	1.477217	-0.254955	-0.162637
H58	H	1.369779	-0.254739	0.034913
H59	H	1.373251	-0.123648	-0.069961
H60	H	1.297758	-0.222851	-0.099612
H61	H	1.550412	-0.242559	-0.129631
H62	H	1.474929	-0.341791	-0.159270
C63	C	1.246900	0.190520	-0.606607
C64	C	1.118919	0.187154	-0.601691
H65	H	1.291170	0.191673	-0.708120
H66	H	1.259273	0.263723	-0.573629
H67	H	1.277055	0.118433	-0.541423
H68	H	1.088761	0.259247	-0.666867
H69	H	1.106537	0.113944	-0.634689
C70	C	1.320000	0.482821	0.168871
C71	C	1.298975	0.359874	0.242261
H72	H	1.262892	0.539872	0.220905
H73	H	1.403383	0.497132	0.169360
H74	H	1.307963	0.494844	0.066579
H75	H	1.311021	0.347848	0.344550
H76	H	1.215572	0.345557	0.241789
H77	H	1.055839	0.185513	-0.205277
C78	C	0.869452	0.288023	-0.770863
C79	C	0.913940	0.181762	-0.674817
H80	H	0.913727	0.289188	-0.872376
H81	H	0.782636	0.285726	-0.767502
H82	H	0.881842	0.361221	-0.737860
H83	H	0.901541	0.108564	-0.707814
H84	H	1.000776	0.184048	-0.678185
H85	H	1.747495	0.032608	-0.073532
H86	H	1.322945	0.335924	-0.057765
