data_functionalizedCrystal
_audit_creation_method	'MofGen! by Chris Wilmer'
_symmetry_space_group_name_H-M	'P1'
_symmetry_Int_Tables_number	1
_symmetry_cell_setting	triclinic
loop_
_symmetry_equiv_pos_as_xyz
  x,y,z
_cell_length_a	18.101398
_cell_length_b	18.101395
_cell_length_c	13.897441
_cell_angle_alpha	89.970274
_cell_angle_beta	89.989505
_cell_angle_gamma	90.026661
loop_
_atom_site_label
_atom_site_type_symbol
_atom_site_fract_x
_atom_site_fract_y
_atom_site_fract_z
Zn1	Zn	1.132126	-0.294901	-0.545172
Zn2	Zn	1.632126	0.205099	-0.045172
Zn3	Zn	1.132021	-0.418755	-0.383873
Zn4	Zn	1.632021	0.081245	0.116127
Zn5	Zn	1.008284	-0.294922	-0.383913
Zn6	Zn	1.508284	0.205078	0.116087
Zn7	Zn	1.008236	-0.418696	-0.545148
Zn8	Zn	1.508236	0.081304	-0.045148
O9	O	1.070167	-0.356818	-0.464527
O10	O	1.570167	0.143182	0.035473
O11	O	1.235745	-0.311346	-0.523768
O12	O	1.735745	0.188654	-0.023768
O13	O	1.115582	-0.402361	-0.248897
O14	O	1.615582	0.097639	0.251103
O15	O	1.024776	-0.191286	-0.405331
O16	O	1.524776	0.308714	0.094669
O17	O	1.235668	-0.402341	-0.405263
O18	O	1.735668	0.097659	0.094737
O19	O	1.115763	-0.191271	-0.523807
O20	O	1.615763	0.308729	-0.023807
O21	O	1.024673	-0.311382	-0.248926
O22	O	1.524673	0.188618	0.251074
O23	O	0.904645	-0.311325	-0.405308
O24	O	1.404645	0.188675	0.094692
O25	O	1.024695	-0.402241	-0.680133
O26	O	1.524695	0.097759	-0.180133
O27	O	0.904610	-0.402261	-0.523767
O28	O	1.404610	0.097739	-0.023767
O29	O	1.115716	-0.311289	-0.680151
O30	O	1.615716	0.188711	-0.180151
O31	O	1.115536	-0.522380	-0.405240
O32	O	1.615536	-0.022380	0.094760
O33	O	1.024592	-0.522336	-0.523728
O34	O	1.524592	-0.022336	-0.023728
C35	C	0.877756	-0.356789	-0.464540
C36	C	1.377756	0.143211	0.035460
C37	C	0.795442	-0.356794	-0.464569
C38	C	1.295442	0.143206	0.035431
C39	C	0.496351	-0.356838	-0.464528
C40	C	0.996351	0.143162	0.035472
C41	C	0.527679	-0.414329	-0.538692
C42	C	1.027679	0.085671	-0.038692
C43	C	0.613297	-0.414149	-0.538996
C44	C	1.113297	0.085851	-0.038996
C45	C	0.644734	-0.356817	-0.464548
C46	C	1.144734	0.143183	0.035452
C47	C	0.613680	-0.278814	-0.492325
C48	C	1.113680	0.221186	0.007675
C49	C	0.528034	-0.279159	-0.492852
C50	C	1.028034	0.220841	0.007148
C51	C	0.527898	-0.376663	-0.362410
C52	C	1.027898	0.123337	0.137590
C53	C	0.613548	-0.378374	-0.362955
C54	C	1.113548	0.121626	0.137045
C55	C	0.728593	-0.356800	-0.464558
C56	C	1.228593	0.143200	0.035442
C57	C	0.412492	-0.356850	-0.464521
C58	C	0.912492	0.143150	0.035479
C59	C	1.070068	-0.549229	-0.464498
C60	C	1.570068	-0.049229	0.035502
C61	C	1.070093	-0.631543	-0.464518
C62	C	1.570093	-0.131543	0.035482
C63	C	1.070256	-0.930634	-0.464570
C64	C	1.570256	-0.430634	0.035430
C65	C	1.013169	-0.899312	-0.539305
C66	C	1.513169	-0.399312	-0.039305
C67	C	1.012897	-0.813694	-0.539071
C68	C	1.512897	-0.313694	-0.039071
C69	C	1.070175	-0.782251	-0.464545
C70	C	1.570175	-0.282251	0.035455
C71	C	1.049045	-0.813404	-0.362891
C72	C	1.549045	-0.313404	0.137109
C73	C	1.048677	-0.899049	-0.363338
C74	C	1.548677	-0.399049	0.136662
C75	C	1.148597	-0.898983	-0.490596
C76	C	1.648597	-0.398983	0.009404
C77	C	1.148137	-0.813332	-0.492825
C78	C	1.648137	-0.313332	0.007175
C79	C	1.070131	-0.698392	-0.464525
C80	C	1.570131	-0.198392	0.035475
C81	C	1.070298	-1.014493	-0.464584
C82	C	1.570298	-0.514493	0.035416
C83	C	1.263329	-0.356848	-0.464514
C84	C	1.763329	0.143152	0.035486
C85	C	1.345643	-0.356861	-0.464508
C86	C	1.845643	0.143139	0.035492
C87	C	1.070212	-0.356756	-0.716120
C88	C	1.570212	0.143244	-0.216120
C89	C	1.070231	-0.356730	-0.823334
C90	C	1.570231	0.143270	-0.323334
C91	C	1.070286	-0.163656	-0.464576
C92	C	1.570286	0.336344	0.035424
C93	C	1.070337	-0.081342	-0.464597
C94	C	1.570337	0.418658	0.035403
C95	C	1.070247	-0.356709	-0.910404
C96	C	1.570247	0.143291	-0.410404
C97	C	1.070268	-0.356675	-1.019636
C98	C	1.570268	0.143325	-0.519636
C99	C	1.070164	-0.356827	-0.213912
C100	C	1.570164	0.143173	0.286088
C101	C	1.070288	-0.356645	-0.106699
C102	C	1.570288	0.143355	0.393301
H103	H	0.634947	-0.339541	-0.304731
H104	H	1.134947	0.160459	0.195269
F105	F	0.641734	-0.256438	-0.588842
F106	F	1.141734	0.243562	-0.088842
F107	F	1.204193	-0.925469	-0.419461
F108	F	1.704193	-0.425469	0.080539
H109	H	0.633851	-0.435773	-0.342006
H110	H	1.133851	0.064227	0.157994
F111	F	1.173778	-0.927145	-0.585833
F112	F	1.673778	-0.427145	-0.085833
H113	H	0.507064	-0.472362	-0.521478
H114	H	1.007064	0.027638	-0.021478
F115	F	1.168966	-0.786715	-0.590611
F116	F	1.668966	-0.286715	-0.090611
F117	F	1.100660	-0.926137	-0.288070
F118	F	1.600660	-0.426137	0.211930
H119	H	0.506284	-0.432570	-0.337167
H120	H	1.006284	0.067430	0.162833
H121	H	1.192919	-0.791924	-0.442359
H122	H	1.692919	-0.291924	0.057641
F123	F	0.501416	-0.321930	-0.290182
F124	F	1.001416	0.178070	0.209818
H125	H	0.508074	-0.262345	-0.567505
H126	H	1.008074	0.237655	-0.067505
F127	F	0.974983	-0.785452	-0.333554
F128	F	1.474983	-0.285452	0.166446
H129	H	0.634292	-0.471993	-0.521588
H130	H	1.134292	0.028007	-0.021588
F131	F	0.640297	-0.221304	-0.423928
F132	F	1.140297	0.278696	0.076072
H133	H	1.026258	-0.919858	-0.614926
H134	H	1.526258	-0.419858	-0.114926
F135	F	0.499552	-0.397415	-0.637015
F136	F	0.999552	0.102585	-0.137015
F137	F	0.640100	-0.397004	-0.637894
F138	F	1.140100	0.102996	-0.137894
H139	H	0.507312	-0.234789	-0.441312
H140	H	1.007312	0.265211	0.058688
F141	F	1.030175	-0.786158	-0.637594
F142	F	1.530175	-0.286158	-0.137594
F143	F	0.937732	-0.927535	-0.517074
F144	F	1.437732	-0.427535	-0.017074
F145	F	1.101681	-0.786787	-0.288122
F146	F	1.601681	-0.286787	0.211878
H147	H	0.991409	-0.919089	-0.341290
H148	H	1.491409	-0.419089	0.158710
F149	F	0.936996	-0.786991	-0.516545
F150	F	1.436996	-0.286991	-0.016545
