data_functionalizedCrystal
_audit_creation_method	'MofGen! by Chris Wilmer'
_symmetry_space_group_name_H-M	'P1'
_symmetry_Int_Tables_number	1
_symmetry_cell_setting	triclinic
loop_
_symmetry_equiv_pos_as_xyz
  x,y,z
_cell_length_a	18.215407
_cell_length_b	25.639240
_cell_length_c	18.215399
_cell_angle_alpha	90.032103
_cell_angle_beta	89.980167
_cell_angle_gamma	89.956389
loop_
_atom_site_label
_atom_site_type_symbol
_atom_site_fract_x
_atom_site_fract_y
_atom_site_fract_z
Zn1	Zn	1.124978	0.208150	-0.416095
Zn2	Zn	1.458312	0.541483	-0.082761
Zn3	Zn	1.791645	0.874817	0.250572
Zn4	Zn	1.124848	0.295586	-0.293019
Zn5	Zn	1.458181	0.628919	0.040314
Zn6	Zn	1.791514	0.962253	0.373647
Zn7	Zn	1.001911	0.208167	-0.293042
Zn8	Zn	1.335244	0.541500	0.040291
Zn9	Zn	1.668578	0.874834	0.373625
Zn10	Zn	1.001838	0.295557	-0.416044
Zn11	Zn	1.335171	0.628890	-0.082711
Zn12	Zn	1.668504	0.962224	0.250622
O13	O	1.063394	0.251865	-0.354550
O14	O	1.396727	0.585198	-0.021217
O15	O	1.730060	0.918532	0.312117
O16	O	1.227945	0.219754	-0.399780
O17	O	1.561279	0.553087	-0.066447
O18	O	1.894612	0.886420	0.266887
O19	O	1.108516	0.284009	-0.190038
O20	O	1.441849	0.617342	0.143295
O21	O	1.775182	0.950676	0.476629
O22	O	1.018322	0.135000	-0.309396
O23	O	1.351655	0.468333	0.023938
O24	O	1.684988	0.801666	0.357271
O25	O	1.227849	0.283992	-0.309357
O26	O	1.561183	0.617326	0.023976
O27	O	1.894516	0.950659	0.357310
O28	O	1.108739	0.134987	-0.399802
O29	O	1.442072	0.468320	-0.066469
O30	O	1.775405	0.801654	0.266865
O31	O	1.018195	0.219783	-0.190055
O32	O	1.351528	0.553116	0.143279
O33	O	1.684861	0.886449	0.476612
O34	O	0.898917	0.219754	-0.309347
O35	O	1.232250	0.553088	0.023986
O36	O	1.565584	0.886421	0.357320
O37	O	1.018197	0.283943	-0.519035
O38	O	1.351530	0.617276	-0.185702
O39	O	1.684863	0.950609	0.147631
O40	O	0.898863	0.283959	-0.399716
O41	O	1.232196	0.617293	-0.066383
O42	O	1.565530	0.950626	0.266951
O43	O	1.108668	0.219725	-0.519072
O44	O	1.442001	0.553059	-0.185739
O45	O	1.775334	0.886392	0.147594
O46	O	1.108445	0.368747	-0.309308
O47	O	1.441778	0.702081	0.024025
O48	O	1.775111	1.035414	0.357358
O49	O	1.018070	0.368726	-0.399694
O50	O	1.351403	0.702059	-0.066361
O51	O	1.684736	1.035393	0.266972
C52	C	0.872187	0.251856	-0.354529
C53	C	1.205521	0.585189	-0.021196
C54	C	1.538854	0.918523	0.312138
C55	C	0.790389	0.251865	-0.354537
C56	C	1.123722	0.585198	-0.021204
C57	C	1.457055	0.918531	0.312129
C58	C	0.602186	0.285349	-0.401534
C59	C	0.935519	0.618682	-0.068200
C60	C	1.268852	0.952015	0.265133
C61	C	0.525327	0.285350	-0.401543
C62	C	0.858660	0.618684	-0.068209
C63	C	1.191994	0.952017	0.265124
C64	C	0.525354	0.218391	-0.307583
C65	C	0.858687	0.551724	0.025751
C66	C	1.192020	0.885057	0.359084
C67	C	0.602211	0.218387	-0.307578
C68	C	0.935544	0.551720	0.025756
C69	C	1.268878	0.885053	0.359089
C70	C	0.640625	0.251869	-0.354552
C71	C	0.973958	0.585202	-0.021219
C72	C	1.307292	0.918535	0.312115
C73	C	0.486909	0.251874	-0.354566
C74	C	0.820242	0.585208	-0.021233
C75	C	1.153576	0.918541	0.312100
C76	C	0.403575	0.251876	-0.354576
C77	C	0.736909	0.585209	-0.021242
C78	C	1.070242	0.918542	0.312091
C79	C	0.723964	0.251867	-0.354544
C80	C	1.057297	0.585200	-0.021210
C81	C	1.390631	0.918533	0.312123
C82	C	1.063255	0.387708	-0.354509
C83	C	1.396588	0.721041	-0.021176
C84	C	1.729922	1.054374	0.312157
C85	C	1.063263	0.445822	-0.354517
C86	C	1.396596	0.779155	-0.021183
C87	C	1.729930	1.112488	0.312150
C88	C	1.110514	0.806183	-0.307538
C89	C	1.443847	1.139516	0.025795
C90	C	1.777180	1.472850	0.359129
C91	C	1.110536	0.860787	-0.307545
C92	C	1.443870	1.194121	0.025788
C93	C	1.777203	1.527454	0.359121
O94	O	1.150613	0.889023	-0.267580
O95	O	1.483946	1.222356	0.065754
O96	O	1.817279	1.555690	0.399087
N97	N	1.063453	0.888104	-0.354566
N98	N	1.396786	1.221437	-0.021233
N99	N	1.730120	1.554771	0.312100
C100	C	1.016350	0.860813	-0.401589
C101	C	1.349683	1.194147	-0.068256
C102	C	1.683016	1.527480	0.265078
O103	O	0.976304	0.889062	-0.441585
O104	O	1.309638	1.222396	-0.108252
O105	O	1.642971	1.555729	0.225081
C106	C	1.016331	0.806210	-0.401585
C107	C	1.349665	1.139543	-0.068252
C108	C	1.682998	1.472877	0.265082
C109	C	1.063412	0.778896	-0.354555
C110	C	1.396746	1.112230	-0.021222
C111	C	1.730079	1.445563	0.312111
C112	C	1.157591	0.778869	-0.260513
C113	C	1.490925	1.112203	0.072820
C114	C	1.824258	1.445536	0.406154
C115	C	1.157568	0.724269	-0.260505
C116	C	1.490901	1.057602	0.072828
C117	C	1.824234	1.390936	0.406162
C118	C	1.110466	0.696982	-0.307522
C119	C	1.443800	1.030315	0.025811
C120	C	1.777133	1.363649	0.359144
C121	C	1.063389	0.724296	-0.354548
C122	C	1.396722	1.057629	-0.021214
C123	C	1.730055	1.390963	0.312119
C124	C	0.969232	0.778920	-0.448611
C125	C	1.302565	1.112254	-0.115277
C126	C	1.635899	1.445587	0.218056
C127	C	0.969218	0.724313	-0.448603
C128	C	1.302552	1.057647	-0.115270
C129	C	1.635885	1.390980	0.218063
C130	C	1.016299	0.697000	-0.401574
C131	C	1.349633	1.030333	-0.068240
C132	C	1.682966	1.363666	0.265093
C133	C	1.016264	0.642409	-0.401557
C134	C	1.349597	0.975742	-0.068224
C135	C	1.682930	1.309075	0.265110
N136	N	1.063347	0.615092	-0.354536
N137	N	1.396680	0.948425	-0.021203
N138	N	1.730013	1.281759	0.312131
C139	C	1.110448	0.642379	-0.307519
C140	C	1.443781	0.975712	0.025815
C141	C	1.777115	1.309045	0.359148
C142	C	1.016392	0.975484	-0.401595
C143	C	1.349726	1.308817	-0.068261
C144	C	1.683059	1.642151	0.265072
C145	C	1.016406	1.030086	-0.401595
C146	C	1.349740	1.363420	-0.068262
C147	C	1.683073	1.696753	0.265071
C148	C	1.110594	1.030057	-0.307552
C149	C	1.443928	1.363390	0.025781
C150	C	1.777261	1.696723	0.359114
C151	C	1.110576	0.975453	-0.307548
C152	C	1.443909	1.308787	0.025785
C153	C	1.777243	1.642120	0.359118
C154	C	1.063476	0.948167	-0.354573
C155	C	1.396809	1.281501	-0.021240
C156	C	1.730142	1.614834	0.312093
C157	C	1.110394	0.527714	-0.307505
C158	C	1.443728	0.861047	0.025828
C159	C	1.777061	1.194380	0.359162
C160	C	1.110364	0.473108	-0.307499
C161	C	1.443698	0.806442	0.025834
C162	C	1.777031	1.139775	0.359167
C163	C	1.016180	0.473143	-0.401545
C164	C	1.349513	0.806476	-0.068211
C165	C	1.682846	1.139809	0.265122
C166	C	1.016207	0.527743	-0.401548
C167	C	1.349540	0.861077	-0.068215
C168	C	1.682873	1.194410	0.265118
C169	C	1.063320	0.555028	-0.354526
C170	C	1.396653	0.888361	-0.021193
C171	C	1.729987	1.221694	0.312141
O172	O	0.976210	0.614138	-0.441505
O173	O	1.309543	0.947472	-0.108171
O174	O	1.642876	1.280805	0.225162
O175	O	1.150494	0.614123	-0.267536
O176	O	1.483827	0.947457	0.065798
O177	O	1.817160	1.280790	0.399131
C178	C	1.255347	0.251874	-0.354572
C179	C	1.588680	0.585208	-0.021238
C180	C	1.922013	0.918541	0.312095
C181	C	1.337145	0.251878	-0.354581
C182	C	1.670479	0.585212	-0.021248
C183	C	2.003812	0.918545	0.312086
C184	C	1.063439	0.251829	-0.546503
C185	C	1.396772	0.585162	-0.213170
C186	C	1.730105	0.918496	0.120164
C187	C	1.063458	0.251814	-0.628302
C188	C	1.396791	0.585147	-0.294969
C189	C	1.730124	0.918480	0.038365
C190	C	1.063525	1.115492	-0.354594
C191	C	1.396859	1.448825	-0.021261
C192	C	1.730192	1.782159	0.312073
C193	C	1.063511	1.057378	-0.354580
C194	C	1.396844	1.390711	-0.021247
C195	C	1.730178	1.724045	0.312086
C196	C	1.110583	0.218344	-0.816516
C197	C	1.443916	0.551678	-0.483183
C198	C	1.777250	0.885011	-0.149850
C199	C	1.110592	0.218329	-0.893375
C200	C	1.443925	0.551662	-0.560042
C201	C	1.777258	0.884996	-0.226709
C202	C	1.016385	0.285202	-0.893325
C203	C	1.349718	0.618535	-0.559992
C204	C	1.683051	0.951869	-0.226659
C205	C	1.016373	0.285214	-0.816468
C206	C	1.349706	0.618548	-0.483135
C207	C	1.683039	0.951881	-0.149801
C208	C	1.063476	0.251786	-0.778066
C209	C	1.396809	0.585119	-0.444732
C210	C	1.730143	0.918453	-0.111399
C211	C	1.063497	0.251759	-0.931782
C212	C	1.396830	0.585092	-0.598448
C213	C	1.730163	0.918425	-0.265115
C214	C	1.063506	0.251742	-1.015115
C215	C	1.396839	0.585076	-0.681782
C216	C	1.730173	0.918409	-0.348449
C217	C	1.063466	0.251802	-0.694727
C218	C	1.396799	0.585135	-0.361393
C219	C	1.730133	0.918468	-0.028060
C220	C	1.063391	0.251863	-0.163344
C221	C	1.396725	0.585196	0.169990
C222	C	1.730058	0.918530	0.503323
C223	C	1.063515	0.251731	-0.081545
C224	C	1.396848	0.585065	0.251788
C225	C	1.730182	0.918398	0.585121
H226	H	1.148703	0.450871	-0.269200
H227	H	1.482037	0.784205	0.064134
H228	H	1.815370	1.117538	0.397467
H229	H	0.978007	0.312446	-0.785161
H230	H	1.311341	0.645780	-0.451827
H231	H	1.644674	0.979113	-0.118494
H232	H	0.494033	0.312613	-0.439801
H233	H	0.827367	0.645946	-0.106468
H234	H	1.160700	0.979279	0.226866
Cl235	Cl	0.650475	0.327438	-0.460590
Cl236	Cl	0.983809	0.660772	-0.127257
Cl237	Cl	1.317142	0.994105	0.206077
H238	H	0.633509	0.191120	-0.269320
H239	H	0.966842	0.524453	0.064014
H240	H	1.300176	0.857787	0.397347
Cl241	Cl	0.477056	0.176302	-0.248531
Cl242	Cl	0.810390	0.509636	0.084803
Cl243	Cl	1.143723	0.842969	0.418136
Cl244	Cl	1.169622	0.562005	-0.248389
Cl245	Cl	1.502955	0.895339	0.084944
Cl246	Cl	1.836289	1.228672	0.418277
H247	H	1.148914	0.953218	-0.269253
H248	H	1.482247	1.286551	0.064080
H249	H	1.815580	1.619884	0.397413
Cl250	Cl	1.216770	0.689940	-0.201390
Cl251	Cl	1.550103	1.023273	0.131943
Cl252	Cl	1.883437	1.356606	0.465277
Cl253	Cl	0.957176	0.327226	-0.941608
Cl254	Cl	1.290510	0.660560	-0.608275
Cl255	Cl	1.623843	0.993893	-0.274941
H256	H	1.195951	0.801081	-0.222226
H257	H	1.529284	1.134414	0.111108
H258	H	1.862618	1.467747	0.444441
H259	H	1.148949	1.052283	-0.269271
H260	H	1.482283	1.385617	0.064063
H261	H	1.815616	1.718950	0.397396
H262	H	0.978061	1.052321	-0.439885
H263	H	1.311395	1.385654	-0.106551
H264	H	1.644728	1.718987	0.226782
H265	H	1.148950	0.191096	-0.924679
H266	H	1.482283	0.524430	-0.591345
H267	H	1.815616	0.857763	-0.258012
H268	H	0.978032	0.953271	-0.439886
H269	H	1.311365	1.286604	-0.106552
H270	H	1.644698	1.619937	0.226781
Cl271	Cl	0.910049	0.813244	-0.507746
Cl272	Cl	1.243382	1.146578	-0.174413
Cl273	Cl	1.576716	1.479911	0.158920
H274	H	0.930864	0.702100	-0.486899
H275	H	1.264198	1.035433	-0.153566
H276	H	1.597531	1.368767	0.179768
H277	H	0.977872	0.549983	-0.439846
H278	H	1.311205	0.883317	-0.106512
H279	H	1.644538	1.216650	0.226821
Cl280	Cl	0.956974	0.438829	-0.460653
Cl281	Cl	1.290307	0.772163	-0.127320
Cl282	Cl	1.623640	1.105496	0.206014
H283	H	1.148935	0.191123	-0.785251
H284	H	1.482269	0.524457	-0.451918
H285	H	1.815602	0.857790	-0.118585
