data_functionalizedCrystal
_audit_creation_method	'MofGen! by Chris Wilmer'
_symmetry_space_group_name_H-M	'P1'
_symmetry_Int_Tables_number	1
_symmetry_cell_setting	triclinic
loop_
_symmetry_equiv_pos_as_xyz
  x,y,z
_cell_length_a	16.625548
_cell_length_b	13.032721
_cell_length_c	13.032268
_cell_angle_alpha	76.710373
_cell_angle_beta	97.162193
_cell_angle_gamma	82.794397
loop_
_atom_site_label
_atom_site_type_symbol
_atom_site_fract_x
_atom_site_fract_y
_atom_site_fract_z
Zn1	Zn	1.119641	0.499057	-0.654215
Zn2	Zn	1.619641	0.999057	-0.154215
Zn3	Zn	1.119553	0.654142	-0.499163
Zn4	Zn	1.619553	1.154142	0.000837
Zn5	Zn	1.004420	0.476555	-0.476634
Zn6	Zn	1.504420	0.976555	0.023366
Zn7	Zn	0.965173	0.676619	-0.676703
Zn8	Zn	1.465173	1.176619	-0.176703
O9	O	1.052197	0.576593	-0.576679
O10	O	1.552197	1.076593	-0.076679
O11	O	1.232459	0.519640	-0.633665
O12	O	1.732459	1.019640	-0.133665
O13	O	1.120669	0.611760	-0.347555
O14	O	1.620669	1.111760	0.152445
O15	O	1.036166	0.330909	-0.481350
O16	O	1.536166	0.830909	0.018650
O17	O	1.232395	0.633580	-0.519749
O18	O	1.732395	1.133580	-0.019749
O19	O	1.120819	0.347442	-0.611819
O20	O	1.620819	0.847442	-0.111819
O21	O	1.036081	0.481288	-0.331002
O22	O	1.536081	0.981288	0.168998
O23	O	0.886384	0.503083	-0.503156
O24	O	1.386384	1.003083	-0.003156
O25	O	0.969275	0.671889	-0.822340
O26	O	1.469275	1.171889	-0.322340
O27	O	0.857549	0.650069	-0.650146
O28	O	1.357549	1.150069	-0.150146
O29	O	1.082763	0.541436	-0.805818
O30	O	1.582763	1.041436	-0.305818
O31	O	1.082613	0.805754	-0.541554
O32	O	1.582613	1.305754	-0.041554
O33	O	0.969190	0.822268	-0.671992
O34	O	1.469190	1.322268	-0.171992
C35	C	1.021652	0.852553	-0.611681
C36	C	1.521652	1.352553	-0.111681
C37	C	1.008655	0.970614	-0.626691
C38	C	1.508655	1.470614	-0.126691
C39	C	0.842711	0.576574	-0.576647
C40	C	1.342711	1.076574	-0.076647
C41	C	0.753086	0.576595	-0.576662
C42	C	1.253086	1.076595	-0.076662
C43	C	1.021651	0.611680	-0.853692
C44	C	1.521651	1.111680	-0.353692
C45	C	1.008634	0.626632	-0.971738
C46	C	1.508634	1.126632	-0.471738
C47	C	0.424905	0.576608	-0.576708
C48	C	0.924905	1.076608	-0.076708
C49	C	0.516216	0.576601	-0.576692
C50	C	1.016216	1.076601	-0.076692
C51	C	0.588993	0.576602	-0.576684
C52	C	1.088993	1.076602	-0.076684
C53	C	0.680309	0.576594	-0.576669
C54	C	1.180309	1.076594	-0.076669
C55	C	1.262501	0.576613	-0.576711
C56	C	1.762501	1.076613	-0.076711
C57	C	1.352119	0.576622	-0.576725
C58	C	1.852119	1.076622	-0.076725
C59	C	1.082880	0.299559	-0.541563
C60	C	1.582880	0.799559	-0.041563
C61	C	1.095956	0.181504	-0.526599
C62	C	1.595956	0.681504	-0.026599
C63	C	1.059018	1.015050	-0.568893
C64	C	1.559018	1.515050	-0.068893
C65	C	1.045586	1.137072	-0.584405
C66	C	1.545586	1.637072	-0.084405
C67	C	1.058982	0.568752	-1.016192
C68	C	1.558982	1.068752	-0.516192
C69	C	1.045530	0.584204	-1.138199
C70	C	1.545530	1.084204	-0.638199
C71	C	1.082679	0.541567	-0.300734
C72	C	1.582679	1.041567	0.199266
C73	C	1.095885	0.526316	-0.182650
C74	C	1.595885	1.026316	0.317350
H75	H	0.992523	1.189362	-0.645380
H76	H	1.492523	1.689362	-0.145380
H77	H	0.992458	0.645194	-1.190462
H78	H	1.492458	1.145194	-0.690462
H79	H	1.148949	0.465313	-1.130388
H80	H	1.648949	0.965313	-0.630388
O81	O	0.945391	0.699388	-1.034242
O82	O	1.445391	1.199388	-0.534242
C83	C	0.874273	0.781054	-1.212823
C84	C	1.374273	1.281054	-0.712823
C85	C	0.945939	0.698634	-1.142169
C86	C	1.445939	1.198634	-0.642169
H87	H	0.874683	0.780456	-1.300094
H88	H	1.374683	1.280456	-0.800094
H89	H	0.881322	0.863996	-1.202019
H90	H	1.381322	1.363996	-0.702019
H91	H	0.813718	0.759672	-1.188645
H92	H	1.313718	1.259672	-0.688645
H93	H	1.006528	0.719916	-1.166302
H94	H	1.506528	1.219916	-0.666302
H95	H	0.938818	0.615714	-1.152982
H96	H	1.438818	1.115714	-0.652982
H97	H	1.112083	0.962760	-0.507929
H98	H	1.612083	1.462760	-0.007929
H99	H	1.112044	0.507755	-0.963926
H100	H	1.612044	1.007755	-0.463926
O101	O	1.159201	1.118974	-0.453870
O102	O	1.659201	1.618974	0.046130
C103	C	1.230303	0.940352	-0.372174
C104	C	1.730303	1.440352	0.127826
C105	C	1.158636	1.011038	-0.454557
C106	C	1.658636	1.511038	0.045443
H107	H	1.229880	0.853074	-0.372718
H108	H	1.729880	1.353074	0.127282
H109	H	1.223266	0.951217	-0.289238
H110	H	1.723266	1.451217	0.210762
H111	H	1.290860	0.964453	-0.393632
H112	H	1.790860	1.464453	0.106368
H113	H	1.098046	0.986982	-0.433198
H114	H	1.598046	1.486982	0.066802
H115	H	1.165745	1.000165	-0.537469
H116	H	1.665745	1.500165	-0.037469
O117	O	0.945370	1.033140	-0.699349
O118	O	1.445370	1.533140	-0.199349
C119	C	0.874333	1.211777	-0.781135
C120	C	1.374333	1.711777	-0.281135
C121	C	0.946025	1.141092	-0.698794
C122	C	1.446025	1.641092	-0.198794
H123	H	0.874849	1.299072	-0.780730
H124	H	1.374849	1.799072	-0.280730
H125	H	0.813735	1.187822	-0.759681
H126	H	1.313735	1.687822	-0.259681
H127	H	0.881377	1.200762	-0.864018
H128	H	1.381377	1.700762	-0.364018
H129	H	0.939060	1.152070	-0.615882
H130	H	1.439060	1.652070	-0.115882
H131	H	1.006596	1.165064	-0.720341
H132	H	1.506596	1.665064	-0.220341
