data_functionalizedCrystal
_audit_creation_method	'MofGen! by Chris Wilmer'
_symmetry_space_group_name_H-M	'P1'
_symmetry_Int_Tables_number	1
_symmetry_cell_setting	triclinic
loop_
_symmetry_equiv_pos_as_xyz
  x,y,z
_cell_length_a	19.077105
_cell_length_b	12.759400
_cell_length_c	19.077569
_cell_angle_alpha	87.679985
_cell_angle_beta	85.299277
_cell_angle_gamma	87.709695
loop_
_atom_site_label
_atom_site_type_symbol
_atom_site_fract_x
_atom_site_fract_y
_atom_site_fract_z
Zn1	Zn	1.093778	-0.457497	-0.441874
Zn2	Zn	1.593778	0.042503	0.058126
Zn3	Zn	1.088985	-0.639971	-0.323994
Zn4	Zn	1.588985	-0.139971	0.176006
Zn5	Zn	0.971160	-0.457512	-0.319270
Zn6	Zn	1.471160	0.042488	0.180730
Zn7	Zn	0.975880	-0.626338	-0.437113
Zn8	Zn	1.475880	-0.126338	0.062887
O9	O	1.032451	-0.545330	-0.380563
O10	O	1.532451	-0.045330	0.119437
O11	O	1.191793	-0.487402	-0.430207
O12	O	1.691793	0.012598	0.069793
O13	O	1.069374	-0.621480	-0.224716
O14	O	1.569374	-0.121480	0.275284
O15	O	0.987457	-0.310490	-0.335549
O16	O	1.487457	0.189510	0.164451
O17	O	1.188272	-0.621465	-0.343601
O18	O	1.688272	-0.121465	0.156399
O19	O	1.077543	-0.310479	-0.425626
O20	O	1.577543	0.189521	0.074374
O21	O	0.982809	-0.487428	-0.221245
O22	O	1.482809	0.012572	0.278755
O23	O	0.873135	-0.474208	-0.330932
O24	O	1.373135	0.025792	0.169068
O25	O	0.995500	-0.598229	-0.536396
O26	O	1.495500	-0.098229	-0.036396
O27	O	0.876603	-0.598244	-0.417511
O28	O	1.376603	-0.098244	0.082489
O29	O	1.082120	-0.474183	-0.539894
O30	O	1.582120	0.025817	-0.039894
O31	O	1.073951	-0.785183	-0.338984
O32	O	1.573951	-0.285183	0.161016
O33	O	0.990853	-0.775167	-0.422092
O34	O	1.490853	-0.275167	0.077908
C35	C	0.849290	-0.534749	-0.373193
C36	C	1.349290	-0.034749	0.126807
C37	C	0.770934	-0.530247	-0.370057
C38	C	1.270934	-0.030247	0.129943
C39	C	0.735942	-0.592816	-0.413589
C40	C	1.235942	-0.092816	0.086411
C41	C	0.662318	-0.588572	-0.410646
C42	C	1.162318	-0.088572	0.089354
C43	C	0.623687	-0.521763	-0.364166
C44	C	1.123687	-0.021763	0.135834
C45	C	0.658683	-0.459187	-0.320631
C46	C	1.158683	0.040813	0.179369
C47	C	0.732306	-0.463427	-0.323579
C48	C	1.232306	0.036573	0.176421
C49	C	0.403303	-0.502143	-0.350528
C50	C	0.903303	-0.002143	0.149472
C51	C	0.329675	-0.497910	-0.347582
C52	C	0.829675	0.002090	0.152418
C53	C	0.333316	-0.627294	-0.437598
C54	C	0.833316	-0.127294	0.062402
C55	C	0.406940	-0.631532	-0.440539
C56	C	0.906940	-0.131532	0.059461
C57	C	0.441929	-0.568952	-0.397007
C58	C	0.941929	-0.068952	0.102993
N59	N	0.548431	-0.517426	-0.361155
N60	N	1.048431	-0.017426	0.138845
N61	N	0.517184	-0.573285	-0.400022
N62	N	1.017184	-0.073285	0.099978
C63	C	1.032413	-0.818296	-0.380550
C64	C	1.532413	-0.318296	0.119450
C65	C	1.032463	-0.935074	-0.380571
C66	C	1.532463	-0.435074	0.119429
C67	C	1.079350	-0.989847	-0.427510
C68	C	1.579350	-0.489847	0.072490
C69	C	1.079383	-1.099572	-0.427529
C70	C	1.579383	-0.599572	0.072471
C71	C	0.985640	-1.099741	-0.333663
C72	C	1.485640	-0.599741	0.166337
C73	C	0.985604	-0.990018	-0.333648
C74	C	1.485604	-0.490018	0.166352
C75	C	1.126209	-0.934903	-0.474433
C76	C	1.626209	-0.434903	0.025567
C77	C	1.173100	-0.989676	-0.521375
C78	C	1.673100	-0.489676	-0.021375
C79	C	1.173134	-1.099401	-0.521394
C80	C	1.673134	-0.599401	-0.021394
C81	C	1.126276	-1.154353	-0.474470
C82	C	1.626276	-0.654353	0.025530
C83	C	1.216327	-0.555952	-0.387962
C84	C	1.716327	-0.055952	0.112038
C85	C	1.294684	-0.560479	-0.391115
C86	C	1.794684	-0.060479	0.108885
C87	C	1.039871	-0.534683	-0.564439
C88	C	1.539871	-0.034683	-0.064439
C89	C	1.043033	-0.530147	-0.642796
C90	C	1.543033	-0.030147	-0.142796
C91	C	1.032508	-0.271298	-0.380592
C92	C	1.532508	0.228702	0.119408
C93	C	1.032533	-0.154522	-0.380604
C94	C	1.532533	0.345478	0.119396
C95	C	0.999421	-0.592595	-0.677789
C96	C	1.499421	-0.092595	-0.177789
C97	C	1.002398	-0.588332	-0.751414
C98	C	1.502398	-0.088332	-0.251414
C99	C	1.048984	-0.521615	-0.790045
C100	C	1.548984	-0.021615	-0.290045
C101	C	1.092600	-0.459165	-0.755048
C102	C	1.592600	0.040835	-0.255048
C103	C	1.089626	-0.463434	-0.681424
C104	C	1.589626	0.036566	-0.181424
C105	C	1.062717	-0.501928	-1.010432
C106	C	1.562717	-0.001928	-0.510432
C107	C	1.065686	-0.497662	-1.084060
C108	C	1.565686	0.002338	-0.584060
C109	C	0.975485	-0.626831	-1.080421
C110	C	1.475485	-0.126831	-0.580421
C111	C	0.972512	-0.631089	-1.006796
C112	C	1.472512	-0.131089	-0.506796
C113	C	1.016131	-0.568643	-0.971805
C114	C	1.516131	-0.068643	-0.471805
N115	N	1.052026	-0.517254	-0.865302
N116	N	1.552026	-0.017254	-0.365302
N117	N	1.013092	-0.573010	-0.896550
N118	N	1.513092	-0.073010	-0.396550
C119	C	1.025100	-0.555861	-0.197404
C120	C	1.525100	-0.055861	0.302596
C121	C	1.022075	-0.560110	-0.119052
C122	C	1.522075	-0.060110	0.380948
H123	H	0.304819	-0.678241	-0.473041
H124	H	0.804819	-0.178241	0.026959
H125	H	1.126299	-1.243698	-0.474497
H126	H	1.626299	-0.743698	0.025503
H127	H	0.298223	-0.443494	-0.309737
H128	H	0.798223	0.056506	0.190263
H129	H	0.961478	-0.646910	-0.646340
H130	H	1.461478	-0.146910	-0.146340
H131	H	0.431783	-0.451194	-0.315076
H132	H	0.931783	0.048806	0.184924
H133	H	0.934588	-0.685434	-0.975347
H134	H	1.434588	-0.185434	-0.475347
O135	O	0.959960	-0.649026	-0.785293
O136	O	1.459960	-0.149026	-0.285293
C137	C	0.918214	-0.708840	-0.735409
C138	C	1.418214	-0.208840	-0.235409
H139	H	0.913665	-0.668706	-0.682834
H140	H	1.413665	-0.168706	-0.182834
H141	H	0.863527	-0.715599	-0.754447
H142	H	1.363527	-0.215599	-0.254447
H143	H	0.943692	-0.790580	-0.728609
H144	H	1.443692	-0.290580	-0.228609
H145	H	0.627223	-0.404786	-0.282789
H146	H	1.127223	0.095214	0.217211
O147	O	0.773493	-0.657833	-0.458642
O148	O	1.273493	-0.157833	0.041358
C149	C	0.814455	-0.730364	-0.420137
C150	C	1.314455	-0.230364	0.079863
H151	H	0.790016	-0.738666	-0.363718
H152	H	1.290016	-0.238666	0.136282
H153	H	0.816310	-0.809852	-0.445578
H154	H	1.316310	-0.309852	0.054422
H155	H	0.870159	-0.701228	-0.419981
H156	H	1.370159	-0.201228	0.080019
H157	H	1.211309	-1.143994	-0.559622
H158	H	1.711309	-0.643994	-0.059622
H159	H	0.633832	-0.639523	-0.446094
H160	H	1.133832	-0.139523	0.053906
H161	H	1.103619	-0.443324	-1.115512
H162	H	1.603619	0.056676	-0.615512
O163	O	0.933192	-0.687459	-1.114523
O164	O	1.433192	-0.187459	-0.614523
C165	C	0.945791	-0.669371	-1.187789
C166	C	1.445791	-0.169371	-0.687789
H167	H	1.000607	-0.637519	-1.200035
H168	H	1.500607	-0.137519	-0.700035
H169	H	0.942125	-0.746170	-1.215570
H170	H	1.442125	-0.246170	-0.715570
H171	H	0.904829	-0.609799	-1.207005
H172	H	1.404829	-0.109799	-0.707005
O173	O	1.105109	-0.441160	-0.976557
O174	O	1.605109	0.058840	-0.476557
C175	C	1.146872	-0.381377	-1.026445
C176	C	1.646872	0.118623	-0.526445
H177	H	1.120114	-0.373032	-1.077764
H178	H	1.620114	0.126968	-0.577764
H179	H	1.153551	-0.300266	-1.005484
H180	H	1.653551	0.199734	-0.505484
H181	H	1.200721	-0.422488	-1.036428
H182	H	1.700721	0.077512	-0.536428
O183	O	1.137793	-0.394381	-0.792678
O184	O	1.637793	0.105619	-0.292678
C185	C	1.131079	-0.404020	-0.865165
C186	C	1.631079	0.095980	-0.365165
H187	H	1.077073	-0.434700	-0.873031
H188	H	1.577073	0.065300	-0.373031
H189	H	1.137008	-0.323978	-0.893343
H190	H	1.637008	0.176022	-0.393343
H191	H	1.173725	-0.461174	-0.887736
H192	H	1.673725	0.038826	-0.387736
H193	H	1.125139	-0.412582	-0.652935
H194	H	1.625139	0.087418	-0.152935
O195	O	0.444358	-0.696453	-0.485753
O196	O	0.944358	-0.196453	0.014247
C197	C	0.397685	-0.750790	-0.523532
C198	C	0.897685	-0.250790	-0.023532
H199	H	0.345310	-0.704597	-0.523926
H200	H	0.845310	-0.204597	-0.023926
H201	H	0.421210	-0.760142	-0.579914
H202	H	0.921210	-0.260142	-0.079914
H203	H	0.388794	-0.831569	-0.497309
H204	H	0.888794	-0.331569	0.002691
H205	H	0.760795	-0.412471	-0.288133
H206	H	1.260795	0.087529	0.211867
O207	O	1.126247	-0.828315	-0.474530
O208	O	1.626247	-0.328315	0.025470
C209	C	1.177671	-0.791563	-0.525996
C210	C	1.677671	-0.291563	-0.025996
H211	H	1.189196	-0.852943	-0.567599
H212	H	1.689196	-0.352943	-0.067599
H213	H	1.157436	-0.715388	-0.551862
H214	H	1.657436	-0.215388	-0.051862
H215	H	1.227962	-0.776640	-0.500146
H216	H	1.727962	-0.276640	-0.000146
O217	O	1.218540	-0.936336	-0.567055
O218	O	1.718540	-0.436336	-0.067055
C219	C	1.205930	-0.958187	-0.636686
C220	C	1.705930	-0.458187	-0.136686
H221	H	1.149761	-0.984956	-0.637937
H222	H	1.649761	-0.484956	-0.137937
H223	H	1.213356	-0.884335	-0.671751
H224	H	1.713356	-0.384335	-0.171751
H225	H	1.244476	-1.022936	-0.656675
H226	H	1.744476	-0.522936	-0.156675
H227	H	0.947491	-1.144492	-0.295459
H228	H	1.447491	-0.644492	0.204541
H229	H	0.947424	-0.945421	-0.295427
H230	H	1.447424	-0.445421	0.204573
