data_functionalizedCrystal
_audit_creation_method	'MofGen! by Chris Wilmer'
_symmetry_space_group_name_H-M	'P1'
_symmetry_Int_Tables_number	1
_symmetry_cell_setting	triclinic
loop_
_symmetry_equiv_pos_as_xyz
  x,y,z
_cell_length_a	18.101398
_cell_length_b	18.101396
_cell_length_c	12.759393
_cell_angle_alpha	89.968304
_cell_angle_beta	90.012226
_cell_angle_gamma	89.967420
loop_
_atom_site_label
_atom_site_type_symbol
_atom_site_fract_x
_atom_site_fract_y
_atom_site_fract_z
Zn1	Zn	1.132109	0.294882	0.593802
Zn2	Zn	1.632109	0.794882	1.093802
Zn3	Zn	1.131986	0.418741	0.418118
Zn4	Zn	1.631986	0.918741	0.918118
Zn5	Zn	1.008262	0.294908	0.418160
Zn6	Zn	1.508262	0.794908	0.918160
Zn7	Zn	1.008206	0.418677	0.593778
Zn8	Zn	1.508206	0.918677	1.093778
O9	O	1.070141	0.356802	0.505965
O10	O	1.570141	0.856802	1.005965
O11	O	1.235725	0.311328	0.570490
O12	O	1.735725	0.811328	1.070490
O13	O	1.115547	0.402353	0.271103
O14	O	1.615547	0.902353	0.771103
O15	O	1.024766	0.191272	0.441487
O16	O	1.524766	0.691272	0.941487
O17	O	1.235635	0.402327	0.441416
O18	O	1.735635	0.902327	0.941416
O19	O	1.115755	0.191253	0.570530
O20	O	1.615755	0.691253	1.070530
O21	O	1.024647	0.311373	0.271133
O22	O	1.524647	0.811373	0.771133
O23	O	0.904622	0.311311	0.441464
O24	O	1.404622	0.811311	0.941464
O25	O	1.024669	0.402217	0.740803
O26	O	1.524669	0.902217	1.240803
O27	O	0.904580	0.402243	0.570490
O28	O	1.404580	0.902243	1.070490
O29	O	1.115700	0.311266	0.740820
O30	O	1.615700	0.811266	1.240820
O31	O	1.115492	0.522366	0.441393
O32	O	1.615492	1.022366	0.941393
O33	O	1.024550	0.522318	0.570449
O34	O	1.524550	1.022318	1.070449
C35	C	0.877730	0.356773	0.505979
C36	C	1.377730	0.856773	1.005979
C37	C	0.795416	0.356778	0.506011
C38	C	1.295416	0.856778	1.006011
C39	C	0.496325	0.356822	0.505967
C40	C	0.996325	0.856822	1.005967
C41	C	0.527649	0.414310	0.586746
C42	C	1.027649	0.914310	1.086746
C43	C	0.613267	0.414130	0.587078
C44	C	1.113267	0.914130	1.087078
C45	C	0.644708	0.356801	0.505989
C46	C	1.144708	0.856801	1.005989
C47	C	0.613662	0.278797	0.536241
C48	C	1.113662	0.778797	1.036241
C49	C	0.528017	0.279142	0.536816
C50	C	1.028017	0.779142	1.036816
C51	C	0.527867	0.376650	0.394740
C52	C	1.027867	0.876650	0.894740
C53	C	0.613517	0.378361	0.395334
C54	C	1.113517	0.878361	0.895334
C55	C	0.728567	0.356784	0.505999
C56	C	1.228567	0.856784	1.005999
C57	C	0.412466	0.356833	0.505959
C58	C	0.912466	0.856833	1.005959
C59	C	1.070022	0.549213	0.505937
C60	C	1.570022	1.049213	1.005937
C61	C	1.070039	0.631527	0.505960
C62	C	1.570039	1.131527	1.005960
C63	C	1.070170	0.930618	0.506021
C64	C	1.570170	1.430618	1.006021
C65	C	1.013088	0.899293	0.587421
C66	C	1.513088	1.399293	1.087421
C67	C	1.012826	0.813675	0.587165
C68	C	1.512826	1.313675	1.087165
C69	C	1.070105	0.782235	0.505992
C70	C	1.570105	1.282235	1.005992
C71	C	1.048969	0.813392	0.395271
C72	C	1.548969	1.313392	0.895271
C73	C	1.048592	0.899037	0.395759
C74	C	1.548592	1.399037	0.895759
C75	C	1.148516	0.898966	0.534367
C76	C	1.648516	1.398966	1.034367
C77	C	1.148064	0.813314	0.536794
C78	C	1.648064	1.313314	1.036794
C79	C	1.070069	0.698376	0.505968
C80	C	1.570069	1.198376	1.005968
C81	C	1.070204	1.014477	0.506037
C82	C	1.570204	1.514477	1.006037
C83	C	1.263303	0.356832	0.505951
C84	C	1.763303	0.856832	1.005951
C85	C	1.345617	0.356844	0.505945
C86	C	1.845617	0.856844	1.005945
C87	C	1.070192	0.356731	0.779998
C88	C	1.570192	0.856731	1.279998
C89	C	1.070214	0.356701	0.896775
C90	C	1.570214	0.856701	1.396775
C91	C	1.070254	1.163640	0.506020
C92	C	1.570254	1.663640	1.006020
C93	C	1.070236	1.081326	0.506053
C94	C	1.570236	1.581326	1.006053
C95	C	1.070132	0.356819	0.232997
C96	C	1.570132	0.856819	0.732997
C97	C	1.070254	0.356641	0.116221
C98	C	1.570254	0.856641	0.616221
C99	C	1.117547	0.404056	0.951618
C100	C	1.617547	0.904056	1.451618
C101	C	1.117570	0.404024	1.061343
C102	C	1.617570	0.904024	1.561343
C103	C	1.022918	0.309281	1.061370
C104	C	1.522918	0.809281	1.561370
C105	C	1.022900	0.309309	0.951648
C106	C	1.522900	0.809309	1.451648
C107	C	1.164861	0.451447	0.896745
C108	C	1.664861	0.951447	1.396745
C109	C	1.212198	0.498807	0.951589
C110	C	1.712198	0.998807	1.451589
C111	C	1.212220	0.498775	1.061313
C112	C	1.712220	0.998775	1.561313
C113	C	1.164906	0.451384	1.116194
C114	C	1.664906	0.951384	1.616194
H115	H	0.506142	0.401357	0.668681
H116	H	1.006142	0.901357	1.168681
Br117	Br	0.916041	0.779623	0.555880
Br118	Br	1.416041	1.279623	1.055880
H119	H	1.167780	0.920510	0.613729
H120	H	1.667780	1.420510	1.113729
H121	H	1.089241	0.793028	0.332968
H122	H	1.589241	1.293028	0.832968
Br123	Br	0.649442	0.250257	0.670293
Br124	Br	1.149442	0.750257	1.170293
H125	H	1.250724	0.537386	0.906898
H126	H	1.750724	1.037386	1.406898
H127	H	0.634919	0.339530	0.331916
H128	H	1.134919	0.839530	0.831916
Br129	Br	0.958665	0.245036	0.877210
Br130	Br	1.458665	0.745036	1.377210
Br131	Br	0.493479	0.205332	0.443032
Br132	Br	0.993479	0.705332	0.943032
H133	H	1.164933	0.451357	1.205539
H134	H	1.664933	0.951357	1.705539
Br135	Br	0.954532	0.777750	0.354522
Br136	Br	1.454532	1.277750	0.854522
Br137	Br	0.494750	0.251114	0.672339
Br138	Br	0.994750	0.751114	1.172339
H139	H	1.164846	0.451481	0.807402
H140	H	1.664846	0.951481	1.307402
Br141	Br	1.034898	0.933535	0.724709
Br142	Br	1.534898	1.433535	1.224709
Br143	Br	0.647608	0.205464	0.441243
Br144	Br	1.147608	0.705464	0.941243
H145	H	1.164002	0.792948	0.618279
H146	H	1.664002	1.292948	1.118279
H147	H	1.192848	0.791909	0.481826
H148	H	1.692848	1.291909	0.981826
Br149	Br	1.114873	0.933583	0.291222
Br150	Br	1.614873	1.433583	0.791222
Br151	Br	0.491819	0.469826	0.348902
Br152	Br	0.991819	0.969826	0.848902
H153	H	0.507611	0.334776	0.334552
H154	H	1.007611	0.834776	0.834552
H155	H	1.191044	0.919222	0.475080
H156	H	1.691044	1.419222	0.975080
H157	H	1.026050	0.792607	0.669265
H158	H	1.526050	1.292607	1.169265
H159	H	0.955370	0.920877	0.568883
H160	H	1.455370	1.420877	1.068883
Br161	Br	1.276468	0.563040	1.135742
Br162	Br	1.776468	1.063040	1.635742
H163	H	0.634256	0.471975	0.568117
H164	H	1.134256	0.971975	1.068117
Br165	Br	0.493274	0.511040	0.555508
Br166	Br	0.993274	1.011040	1.055508
H167	H	0.633773	0.401010	0.669489
H168	H	1.133773	0.901010	1.169489
Br169	Br	0.647331	0.474039	0.357310
Br170	Br	1.147331	0.974039	0.857310
Br171	Br	0.958709	0.244970	1.135850
Br172	Br	1.458709	0.744970	1.635850
H173	H	0.991322	0.919077	0.371745
H174	H	1.491322	1.419077	0.871745
