data_functionalizedCrystal
_audit_creation_method	'MofGen! by Chris Wilmer'
_symmetry_space_group_name_H-M	'P1'
_symmetry_Int_Tables_number	1
_symmetry_cell_setting	triclinic
loop_
_symmetry_equiv_pos_as_xyz
  x,y,z
_cell_length_a	16.109295
_cell_length_b	15.944551
_cell_length_c	15.021413
_cell_angle_alpha	89.987930
_cell_angle_beta	89.994915
_cell_angle_gamma	83.478963
loop_
_atom_site_label
_atom_site_type_symbol
_atom_site_fract_x
_atom_site_fract_y
_atom_site_fract_z
O1	O	-0.107222	-1.114473	-0.073933
O2	O	-0.120442	-0.869918	-0.073954
O3	O	0.007197	-0.998916	-0.073944
O4	O	-0.234861	-0.985475	-0.073943
O5	O	0.007188	-0.998933	0.074120
O6	O	-0.120451	-0.869935	0.074110
O7	O	-0.107231	-1.114489	0.074131
Zn8	Zn	-0.113843	-0.992215	0.097629
Zn9	Zn	-0.113831	-0.992193	-0.097452
O10	O	-0.234870	-0.985492	0.074121
C11	C	0.038168	-0.998381	0.000086
C12	C	0.130464	-0.996751	0.000079
C13	C	-0.119898	-0.838633	0.000075
C14	C	-0.118252	-0.745387	0.000067
C15	C	0.352713	-1.069504	0.000053
C16	C	0.439434	-1.067966	0.000038
C17	C	0.419610	-0.914918	0.000029
C18	C	0.332890	-0.916457	0.000037
C19	C	0.299445	-0.993752	0.000054
C20	C	0.472885	-0.990676	0.000030
C21	C	0.566912	-0.989007	0.000014
C22	C	0.205412	-0.995421	0.000068
C23	C	0.734160	-0.986032	0.000068
C24	C	0.641866	-0.987677	0.000005
C25	C	-0.107775	-1.145775	0.000100
C26	C	-0.109421	-1.239020	0.000103
C27	C	-0.035203	-0.530560	0.000083
C28	C	-0.073764	-0.469518	-0.072920
C29	C	-0.115276	-0.574663	0.000077
C30	C	-0.073792	-0.469557	0.073060
C31	C	-0.112395	-0.409751	0.000091
C32	C	-0.153859	-0.514849	-0.072987
C33	C	-0.153875	-0.514894	0.073059
C34	C	-0.192495	-0.453870	0.000038
C35	C	-0.116933	-0.669664	0.000068
C36	C	-0.110743	-0.314750	0.000094
N37	N	-0.113850	-0.992236	0.230767
C38	C	-0.054818	-1.051899	0.470431
C39	C	-0.038668	-0.976006	0.529753
C40	C	-0.113841	-0.992219	0.412373
C41	C	-0.129944	-1.068096	0.529793
C42	C	-0.113831	-0.992209	0.587798
C43	C	-0.097653	-0.916287	0.470389
C44	C	-0.188963	-1.008427	0.470424
C45	C	-0.172844	-0.932478	0.529720
C46	C	-0.113845	-0.992226	0.311316
C47	C	-0.113827	-0.992193	0.688853
N48	N	-0.113824	-0.992190	0.769410
H49	H	0.325485	-1.132444	0.000064
H50	H	0.024865	-0.962287	0.555814
O51	O	0.452239	-0.839910	0.000061
C52	C	0.540203	-0.854793	0.000034
H53	H	0.560566	-0.920353	0.028066
H54	H	0.566830	-0.805344	0.043018
H55	H	0.564343	-0.850717	-0.071002
H56	H	0.289516	-0.854766	0.000036
O57	O	0.491298	-1.141474	-0.000002
C58	C	0.575012	-1.123547	0.000005
H59	H	0.578337	-1.057568	-0.028032
H60	H	0.614296	-1.171828	-0.042985
H61	H	0.600097	-1.126748	0.071035
H62	H	-0.143569	-1.132268	0.555886
O63	O	0.004710	-1.112147	0.439470
C64	C	-0.011634	-1.191930	0.471014
H65	H	-0.051286	-1.183629	0.533934
H66	H	0.049895	-1.231825	0.486733
H67	H	-0.046726	-1.224852	0.417885
O68	O	-0.081293	-0.839769	0.439250
C69	C	-0.081490	-0.840701	0.345394
H70	H	-0.068415	-0.908563	0.320842
H71	H	-0.031071	-0.802283	0.319453
H72	H	-0.145140	-0.812010	0.319992
H73	H	-0.222756	-0.881949	0.555588
H74	H	-0.252476	-1.022170	0.444344
H75	H	-0.187697	-0.534818	-0.134772
O76	O	0.044098	-0.570298	-0.000161
C77	C	0.086016	-0.547306	-0.077269
H78	H	0.038291	-0.525283	-0.130797
H79	H	0.128775	-0.604106	-0.102752
H80	H	0.124878	-0.493939	-0.060613
H81	H	-0.259017	-0.420688	-0.000003
O82	O	-0.033301	-0.445676	-0.146576
C83	C	-0.005844	-0.517565	-0.197853
H84	H	-0.000072	-0.575942	-0.153473
H85	H	0.057612	-0.509754	-0.228383
H86	H	-0.052869	-0.525129	-0.253168
O87	O	-0.194128	-0.538893	0.146781
C88	C	-0.151709	-0.516065	0.223604
H89	H	-0.083926	-0.509320	0.206113
H90	H	-0.153743	-0.566999	0.276578
H91	H	-0.183158	-0.453419	0.250242
H92	H	-0.039913	-0.449490	0.134776
