data_functionalizedCrystal
_audit_creation_method	'MofGen! by Chris Wilmer'
_symmetry_space_group_name_H-M	'P1'
_symmetry_Int_Tables_number	1
_symmetry_cell_setting	triclinic
loop_
_symmetry_equiv_pos_as_xyz
  x,y,z
_cell_length_a	29.839131
_cell_length_b	18.215407
_cell_length_c	18.215399
_cell_angle_alpha	90.020595
_cell_angle_beta	89.969127
_cell_angle_gamma	89.958659
loop_
_atom_site_label
_atom_site_type_symbol
_atom_site_fract_x
_atom_site_fract_y
_atom_site_fract_z
Zn1	Zn	-0.178859	-1.124987	-0.416116
Zn2	Zn	0.071141	-0.874987	-0.166116
Zn3	Zn	0.321141	-0.624987	0.083884
Zn4	Zn	0.571141	-0.374987	0.333884
Zn5	Zn	-0.253988	-1.124860	-0.293043
Zn6	Zn	-0.003988	-0.874860	-0.043043
Zn7	Zn	0.246012	-0.624860	0.206957
Zn8	Zn	0.496012	-0.374860	0.456957
Zn9	Zn	-0.178873	-1.001920	-0.293062
Zn10	Zn	0.071127	-0.751920	-0.043062
Zn11	Zn	0.321127	-0.501920	0.206938
Zn12	Zn	0.571127	-0.251920	0.456938
Zn13	Zn	-0.253962	-1.001850	-0.416067
Zn14	Zn	-0.003962	-0.751850	-0.166067
Zn15	Zn	0.246038	-0.501850	0.083933
Zn16	Zn	0.496038	-0.251850	0.333933
O17	O	-0.216421	-1.063404	-0.354572
O18	O	0.033579	-0.813404	-0.104572
O19	O	0.283579	-0.563404	0.145428
O20	O	0.533579	-0.313404	0.395428
O21	O	-0.188830	-1.227955	-0.399803
O22	O	0.061170	-0.977955	-0.149803
O23	O	0.311170	-0.727955	0.100197
O24	O	0.561170	-0.477955	0.350197
O25	O	-0.244041	-1.108528	-0.190061
O26	O	0.005959	-0.858528	0.059939
O27	O	0.255959	-0.608528	0.309939
O28	O	0.505959	-0.358528	0.559939
O29	O	-0.116004	-1.018327	-0.309413
O30	O	0.133996	-0.768327	-0.059413
O31	O	0.383996	-0.518327	0.190587
O32	O	0.633996	-0.268327	0.440587
O33	O	-0.244027	-1.227861	-0.309382
O34	O	0.005973	-0.977861	-0.059382
O35	O	0.255973	-0.727861	0.190618
O36	O	0.505973	-0.477861	0.440618
O37	O	-0.115994	-1.108745	-0.399821
O38	O	0.134006	-0.858745	-0.149821
O39	O	0.384006	-0.608745	0.100179
O40	O	0.634006	-0.358745	0.350179
O41	O	-0.188854	-1.018204	-0.190075
O42	O	0.061146	-0.768204	0.059925
O43	O	0.311146	-0.518204	0.309925
O44	O	0.561146	-0.268204	0.559925
O45	O	-0.188829	-0.898926	-0.309365
O46	O	0.061171	-0.648926	-0.059365
O47	O	0.311171	-0.398926	0.190635
O48	O	0.561171	-0.148926	0.440635
O49	O	-0.243983	-1.018209	-0.519057
O50	O	0.006017	-0.768209	-0.269057
O51	O	0.256017	-0.518209	-0.019057
O52	O	0.506017	-0.268209	0.230943
O53	O	-0.243997	-0.898875	-0.399737
O54	O	0.006003	-0.648875	-0.149737
O55	O	0.256003	-0.398875	0.100263
O56	O	0.506003	-0.148875	0.350263
O57	O	-0.188805	-1.108677	-0.519094
O58	O	0.061195	-0.858677	-0.269094
O59	O	0.311195	-0.608677	-0.019094
O60	O	0.561195	-0.358677	0.230906
O61	O	-0.316852	-1.108460	-0.309334
O62	O	-0.066852	-0.858460	-0.059334
O63	O	0.183148	-0.608460	0.190666
O64	O	0.433148	-0.358460	0.440666
O65	O	-0.316833	-1.018086	-0.399719
O66	O	-0.066833	-0.768086	-0.149719
O67	O	0.183167	-0.518086	0.100281
O68	O	0.433167	-0.268086	0.350281
C69	C	-0.216412	-0.872198	-0.354548
C70	C	0.033588	-0.622198	-0.104548
C71	C	0.283588	-0.372198	0.145452
C72	C	0.533588	-0.122198	0.395452
C73	C	-0.216419	-0.790399	-0.354555
C74	C	0.033581	-0.540399	-0.104555
C75	C	0.283581	-0.290399	0.145445
C76	C	0.533581	-0.040399	0.395445
C77	C	-0.333143	-1.063272	-0.354535
C78	C	-0.083143	-0.813272	-0.104535
C79	C	0.166857	-0.563272	0.145465
C80	C	0.416857	-0.313272	0.395465
C81	C	-0.383078	-1.063282	-0.354544
C82	C	-0.133078	-0.813282	-0.104544
C83	C	0.116922	-0.563282	0.145456
C84	C	0.366922	-0.313282	0.395456
C85	C	-0.245189	-0.602198	-0.401550
C86	C	0.004811	-0.352198	-0.151550
C87	C	0.254811	-0.102198	0.098450
C88	C	0.504811	0.147802	0.348450
C89	C	-0.245190	-0.525339	-0.401558
C90	C	0.004810	-0.275339	-0.151558
C91	C	0.254810	-0.025339	0.098442
C92	C	0.504810	0.224661	0.348442
C93	C	-0.187655	-0.525363	-0.307596
C94	C	0.062345	-0.275363	-0.057596
C95	C	0.312345	-0.025363	0.192404
C96	C	0.562345	0.224637	0.442404
C97	C	-0.187652	-0.602220	-0.307592
C98	C	0.062348	-0.352220	-0.057592
C99	C	0.312348	-0.102220	0.192408
C100	C	0.562348	0.147780	0.442408
C101	C	-0.216422	-0.640636	-0.354568
C102	C	0.033578	-0.390636	-0.104568
C103	C	0.283578	-0.140636	0.145432
C104	C	0.533578	0.109364	0.395432
C105	C	-0.216425	-0.486920	-0.354580
C106	C	0.033575	-0.236920	-0.104580
C107	C	0.283575	0.013080	0.145420
C108	C	0.533575	0.263080	0.395420
C109	C	-0.216426	-0.403586	-0.354589
C110	C	0.033574	-0.153586	-0.104589
C111	C	0.283574	0.096414	0.145411
C112	C	0.533574	0.346414	0.395411
C113	C	-0.216420	-0.723975	-0.354561
C114	C	0.033580	-0.473975	-0.104561
C115	C	0.283580	-0.223975	0.145439
C116	C	0.533580	0.026025	0.395439
C117	C	-0.692718	-1.110548	-0.307577
C118	C	-0.442718	-0.860548	-0.057577
C119	C	-0.192718	-0.610548	0.192423
C120	C	0.057282	-0.360548	0.442423
C121	C	-0.880391	-1.110639	-0.307606
C122	C	-0.630391	-0.860639	-0.057606
C123	C	-0.380391	-0.610639	0.192394
C124	C	-0.130391	-0.360639	0.442394
O125	O	-0.904654	-1.150721	-0.267645
O126	O	-0.654654	-0.900721	-0.017645
O127	O	-0.404654	-0.650721	0.232355
O128	O	-0.154654	-0.400721	0.482355
N129	N	-0.903863	-1.063557	-0.354627
N130	N	-0.653863	-0.813557	-0.104627
N131	N	-0.403863	-0.563557	0.145373
N132	N	-0.153863	-0.313557	0.395373
C133	C	-0.880413	-1.016452	-0.401648
C134	C	-0.630413	-0.766452	-0.151648
C135	C	-0.380413	-0.516452	0.098352
C136	C	-0.130413	-0.266452	0.348352
O137	O	-0.904683	-0.976414	-0.441649
O138	O	-0.654683	-0.726414	-0.191649
O139	O	-0.404683	-0.476414	0.058351
O140	O	-0.154683	-0.226414	0.308351
C141	C	-0.692741	-1.016366	-0.401623
C142	C	-0.442741	-0.766366	-0.151623
C143	C	-0.192741	-0.516366	0.098377
C144	C	0.057259	-0.266366	0.348377
C145	C	-0.669272	-1.063446	-0.354593
C146	C	-0.419272	-0.813446	-0.104593
C147	C	-0.169272	-0.563446	0.145407
C148	C	0.080728	-0.313446	0.395407
C149	C	-0.669249	-1.157625	-0.260552
C150	C	-0.419249	-0.907625	-0.010552
C151	C	-0.169249	-0.657625	0.239448
C152	C	0.080751	-0.407625	0.489448
C153	C	-0.622334	-1.157599	-0.260542
C154	C	-0.372334	-0.907599	-0.010542
C155	C	-0.122334	-0.657599	0.239458
C156	C	0.127666	-0.407599	0.489458
C157	C	-0.598887	-1.110496	-0.307558
C158	C	-0.348887	-0.860496	-0.057558
C159	C	-0.098887	-0.610496	0.192442
C160	C	0.151113	-0.360496	0.442442
C161	C	-0.622356	-1.063420	-0.354584
C162	C	-0.372356	-0.813420	-0.104584
C163	C	-0.122356	-0.563420	0.145416
C164	C	0.127644	-0.313420	0.395416
C165	C	-0.669292	-0.969265	-0.448647
C166	C	-0.419292	-0.719265	-0.198647
C167	C	-0.169292	-0.469265	0.051353
C168	C	0.080708	-0.219265	0.301353
C169	C	-0.622371	-0.969249	-0.448638
C170	C	-0.372371	-0.719249	-0.198638
C171	C	-0.122371	-0.469249	0.051362
C172	C	0.127629	-0.219249	0.301362
C173	C	-0.598902	-1.016329	-0.401608
C174	C	-0.348902	-0.766329	-0.151608
C175	C	-0.098902	-0.516329	0.098392
C176	C	0.151098	-0.266329	0.348392
C177	C	-0.551994	-1.016291	-0.401590
C178	C	-0.301994	-0.766291	-0.151590
C179	C	-0.051994	-0.516291	0.098410
C180	C	0.198006	-0.266291	0.348410
N181	N	-0.528523	-1.063373	-0.354569
N182	N	-0.278523	-0.813373	-0.104569
N183	N	-0.028523	-0.563373	0.145431
N184	N	0.221477	-0.313373	0.395431
C185	C	-0.551969	-1.110476	-0.307553
C186	C	-0.301969	-0.860476	-0.057553
C187	C	-0.051969	-0.610476	0.192447
C188	C	0.198031	-0.360476	0.442447
C189	C	-0.978944	-1.016500	-0.401657
C190	C	-0.728944	-0.766500	-0.151657
C191	C	-0.478944	-0.516500	0.098343
C192	C	-0.228944	-0.266500	0.348343
C193	C	-1.025861	-1.016521	-0.401663
C194	C	-0.775861	-0.766521	-0.151663
C195	C	-0.525861	-0.516521	0.098337
C196	C	-0.275861	-0.266521	0.348337
C197	C	-1.025836	-1.110709	-0.307621
C198	C	-0.775836	-0.860709	-0.057621
C199	C	-0.525836	-0.610709	0.192379
C200	C	-0.275836	-0.360709	0.442379
C201	C	-0.978918	-1.110684	-0.307612
C202	C	-0.728918	-0.860684	-0.057612
C203	C	-0.478918	-0.610684	0.192388
C204	C	-0.228918	-0.360684	0.442388
C205	C	-0.955472	-1.063582	-0.354636
C206	C	-0.705472	-0.813582	-0.104636
C207	C	-0.455472	-0.563582	0.145364
C208	C	-0.205472	-0.313582	0.395364
C209	C	-0.453444	-1.110417	-0.307536
C210	C	-0.203444	-0.860417	-0.057536
C211	C	0.046556	-0.610417	0.192464
C212	C	0.296556	-0.360417	0.442464
C213	C	-0.406524	-1.110385	-0.307528
C214	C	-0.156524	-0.860385	-0.057528
C215	C	0.093476	-0.610385	0.192472
C216	C	0.343476	-0.360385	0.442472
C217	C	-0.406553	-1.016200	-0.401573
C218	C	-0.156553	-0.766200	-0.151573
C219	C	0.093447	-0.516200	0.098427
C220	C	0.343447	-0.266200	0.348427
C221	C	-0.453469	-1.016229	-0.401578
C222	C	-0.203469	-0.766229	-0.151578
C223	C	0.046531	-0.516229	0.098422
C224	C	0.296531	-0.266229	0.348422
C225	C	-0.476913	-1.063344	-0.354557
C226	C	-0.226913	-0.813344	-0.104557
C227	C	0.023087	-0.563344	0.145443
C228	C	0.273087	-0.313344	0.395443
O229	O	-0.527703	-0.976236	-0.441536
O230	O	-0.277703	-0.726236	-0.191536
O231	O	-0.027703	-0.476236	0.058464
O232	O	0.222297	-0.226236	0.308464
O233	O	-0.527691	-1.150520	-0.267570
O234	O	-0.277691	-0.900520	-0.017570
O235	O	-0.027691	-0.650520	0.232430
O236	O	0.222309	-0.400520	0.482430
C237	C	-0.739634	-1.110574	-0.307587
C238	C	-0.489634	-0.860574	-0.057587
C239	C	-0.239634	-0.610574	0.192413
C240	C	0.010366	-0.360574	0.442413
C241	C	-0.763103	-1.063498	-0.354612
C242	C	-0.513103	-0.813498	-0.104612
C243	C	-0.263103	-0.563498	0.145388
C244	C	-0.013103	-0.313498	0.395388
C245	C	-0.739656	-1.016395	-0.401628
C246	C	-0.489656	-0.766395	-0.151628
C247	C	-0.239656	-0.516395	0.098372
C248	C	0.010344	-0.266395	0.348372
C249	C	-0.810020	-1.063518	-0.354618
C250	C	-0.560020	-0.813518	-0.104618
C251	C	-0.310020	-0.563518	0.145382
C252	C	-0.060020	-0.313518	0.395382
C253	C	-0.833467	-1.110621	-0.307602
C254	C	-0.583467	-0.860621	-0.057602
C255	C	-0.333467	-0.610621	0.192398
C256	C	-0.083467	-0.360621	0.442398
C257	C	-0.809995	-1.157703	-0.260580
C258	C	-0.559995	-0.907703	-0.010580
C259	C	-0.309995	-0.657703	0.239420
C260	C	-0.059995	-0.407703	0.489420
C261	C	-0.763080	-1.157677	-0.260571
C262	C	-0.513080	-0.907677	-0.010571
C263	C	-0.263080	-0.657677	0.239429
C264	C	-0.013080	-0.407677	0.489429
C265	C	-0.763128	-0.969313	-0.448650
C266	C	-0.513128	-0.719313	-0.198650
C267	C	-0.263128	-0.469313	0.051350
C268	C	-0.013128	-0.219313	0.301350
C269	C	-0.810043	-0.969342	-0.448655
C270	C	-0.560043	-0.719342	-0.198655
C271	C	-0.310043	-0.469342	0.051345
C272	C	-0.060043	-0.219342	0.301345
C273	C	-0.833490	-1.016445	-0.401639
C274	C	-0.583490	-0.766445	-0.151639
C275	C	-0.333490	-0.516445	0.098361
C276	C	-0.083490	-0.266445	0.348361
C277	C	-0.099242	-1.063558	-0.354625
C278	C	0.150758	-0.813558	-0.104625
C279	C	0.400758	-0.563558	0.145375
C280	C	0.650758	-0.313558	0.395375
C281	C	-0.049308	-1.063623	-0.354647
C282	C	0.200692	-0.813623	-0.104647
C283	C	0.450692	-0.563623	0.145353
C284	C	0.700692	-0.313623	0.395353
C285	C	-0.216390	-1.063449	-0.546525
C286	C	0.033610	-0.813449	-0.296525
C287	C	0.283610	-0.563449	-0.046525
C288	C	0.533610	-0.313449	0.203475
C289	C	-0.216376	-1.063468	-0.628324
C290	C	0.033624	-0.813468	-0.378324
C291	C	0.283624	-0.563468	-0.128324
C292	C	0.533624	-0.313468	0.121676
C293	C	-0.216428	-0.255357	-0.354593
C294	C	0.033572	-0.005357	-0.104593
C295	C	0.283572	0.244643	0.145407
C296	C	0.533572	0.494643	0.395407
C297	C	-0.216428	-0.337156	-0.354593
C298	C	0.033572	-0.087156	-0.104593
C299	C	0.283572	0.162844	0.145407
C300	C	0.533572	0.412844	0.395407
C301	C	-0.187618	-1.110592	-0.816538
C302	C	0.062382	-0.860592	-0.566538
C303	C	0.312382	-0.610592	-0.316538
C304	C	0.562382	-0.360592	-0.066538
C305	C	-0.187605	-1.110601	-0.893397
C306	C	0.062395	-0.860601	-0.643397
C307	C	0.312395	-0.610601	-0.393397
C308	C	0.562395	-0.360601	-0.143397
C309	C	-0.245065	-1.016397	-0.893348
C310	C	0.004935	-0.766397	-0.643348
C311	C	0.254935	-0.516397	-0.393348
C312	C	0.504935	-0.266397	-0.143348
C313	C	-0.245076	-1.016385	-0.816490
C314	C	0.004924	-0.766385	-0.566490
C315	C	0.254924	-0.516385	-0.316490
C316	C	0.504924	-0.266385	-0.066490
C317	C	-0.216353	-1.063487	-0.778087
C318	C	0.033647	-0.813487	-0.528087
C319	C	0.283647	-0.563487	-0.278087
C320	C	0.533647	-0.313487	-0.028087
C321	C	-0.216329	-1.063507	-0.931804
C322	C	0.033671	-0.813507	-0.681804
C323	C	0.283671	-0.563507	-0.431804
C324	C	0.533671	-0.313507	-0.181804
C325	C	-0.216315	-1.063517	-1.015137
C326	C	0.033685	-0.813517	-0.765137
C327	C	0.283685	-0.563517	-0.515137
C328	C	0.533685	-0.313517	-0.265137
C329	C	-0.216366	-1.063477	-0.694748
C330	C	0.033634	-0.813477	-0.444748
C331	C	0.283634	-0.563477	-0.194748
C332	C	0.533634	-0.313477	0.055252
C333	C	-0.216419	-1.063402	-0.163366
C334	C	0.033581	-0.813402	0.086634
C335	C	0.283581	-0.563402	0.336634
C336	C	0.533581	-0.313402	0.586634
C337	C	-0.216306	-1.063526	-0.081567
C338	C	0.033694	-0.813526	0.168433
C339	C	0.283694	-0.563526	0.418433
C340	C	0.533694	-0.313526	0.668433
H341	H	-0.268614	-0.633474	-0.439803
H342	H	-0.018614	-0.383474	-0.189803
H343	H	0.231386	-0.133474	0.060197
H344	H	0.481386	0.116526	0.310197
F345	F	-0.275808	-0.484434	-0.451565
F346	F	-0.025808	-0.234434	-0.201565
F347	F	0.224192	0.015566	0.048435
F348	F	0.474192	0.265566	0.298435
H349	H	-0.164229	-1.148944	-0.785272
H350	H	0.085771	-0.898944	-0.535272
H351	H	0.335771	-0.648944	-0.285272
H352	H	0.585771	-0.398944	-0.035272
H353	H	-0.603228	-1.195937	-0.222249
H354	H	-0.353228	-0.945937	0.027751
H355	H	-0.103228	-0.695937	0.277751
H356	H	0.146772	-0.445937	0.527751
F357	F	-0.694196	-1.207764	-0.210508
F358	F	-0.444196	-0.957764	0.039492
F359	F	-0.194196	-0.707764	0.289492
F360	F	0.055804	-0.457764	0.539492
H361	H	-0.387456	-0.977847	-0.439850
H362	H	-0.137456	-0.727847	-0.189850
H363	H	0.112544	-0.477847	0.060150
H364	H	0.362544	-0.227847	0.310150
H365	H	-0.472526	-1.148784	-0.269249
H366	H	-0.222526	-0.898784	-0.019249
H367	H	0.027474	-0.648784	0.230751
H368	H	0.277474	-0.398784	0.480751
F369	F	-0.157038	-0.484472	-0.257603
F370	F	0.092962	-0.234472	-0.007603
F371	F	0.342962	0.015528	0.242397
F372	F	0.592962	0.265528	0.492397
F373	F	-0.157025	-1.160742	-0.934315
F374	F	0.092975	-0.910742	-0.684315
F375	F	0.342975	-0.660742	-0.434315
F376	F	0.592975	-0.410742	-0.184315
F377	F	-0.953944	-1.160792	-0.257558
F378	F	-0.703944	-0.910792	-0.007558
F379	F	-0.453944	-0.660792	0.242442
F380	F	-0.203944	-0.410792	0.492442
H381	H	-0.164223	-0.633517	-0.269334
H382	H	0.085777	-0.383517	-0.019334
H383	H	0.335777	-0.133517	0.230666
H384	H	0.585777	0.116483	0.480666
H385	H	-1.044966	-0.978177	-0.439952
H386	H	-0.794966	-0.728177	-0.189952
H387	H	-0.544966	-0.478177	0.060048
H388	H	-0.294966	-0.228177	0.310048
F389	F	-0.275634	-0.966273	-0.934225
F390	F	-0.025634	-0.716273	-0.684225
F391	F	0.224366	-0.466273	-0.434225
F392	F	0.474366	-0.216273	-0.184225
F393	F	-0.381549	-1.160495	-0.257470
F394	F	-0.131549	-0.910495	-0.007470
F395	F	0.118451	-0.660495	0.242530
F396	F	0.368451	-0.410495	0.492530
H397	H	-1.044934	-1.149062	-0.269339
H398	H	-0.794934	-0.899062	-0.019339
H399	H	-0.544934	-0.649062	0.230661
H400	H	-0.294934	-0.399062	0.480661
F401	F	-0.478447	-0.966108	-0.451618
F402	F	-0.228447	-0.716108	-0.201618
F403	F	0.021553	-0.466108	0.048382
F404	F	0.271553	-0.216108	0.298382
F405	F	-0.953997	-0.966364	-0.451709
F406	F	-0.703997	-0.716364	-0.201709
F407	F	-0.453997	-0.466364	0.048291
F408	F	-0.203997	-0.216364	0.298291
F409	F	-0.275659	-0.966242	-0.775566
F410	F	-0.025659	-0.716242	-0.525566
F411	F	0.224341	-0.466242	-0.275566
F412	F	0.474341	-0.216242	-0.025566
H413	H	-0.688392	-0.930924	-0.486941
H414	H	-0.438392	-0.680924	-0.236941
H415	H	-0.188392	-0.430924	0.013059
H416	H	0.061608	-0.180924	0.263059
H417	H	-0.603284	-0.930894	-0.486933
H418	H	-0.353284	-0.680894	-0.236933
H419	H	-0.103284	-0.430894	0.013067
H420	H	0.146716	-0.180894	0.263067
F421	F	-0.738108	-1.207788	-0.210517
F422	F	-0.488108	-0.957788	0.039483
F423	F	-0.238108	-0.707788	0.289483
F424	F	0.011892	-0.457788	0.539483
H425	H	-0.829094	-1.196053	-0.222296
H426	H	-0.579094	-0.946053	0.027704
H427	H	-0.329094	-0.696053	0.277704
H428	H	-0.079094	-0.446053	0.527704
F429	F	-0.835016	-0.919228	-0.498712
F430	F	-0.585016	-0.669228	-0.248712
F431	F	-0.335016	-0.419228	0.001288
F432	F	-0.085016	-0.169228	0.251288
F433	F	-0.738180	-0.919178	-0.498694
F434	F	-0.488180	-0.669178	-0.248694
F435	F	-0.238180	-0.419178	0.001306
F436	F	0.011820	-0.169178	0.251306
