data_functionalizedCrystal
_audit_creation_method	'MofGen! by Chris Wilmer'
_symmetry_space_group_name_H-M	'P1'
_symmetry_Int_Tables_number	1
_symmetry_cell_setting	triclinic
loop_
_symmetry_equiv_pos_as_xyz
  x,y,z
_cell_length_a	21.295417
_cell_length_b	12.759395
_cell_length_c	21.295412
_cell_angle_alpha	90.021107
_cell_angle_beta	89.969332
_cell_angle_gamma	89.967956
loop_
_atom_site_label
_atom_site_type_symbol
_atom_site_fract_x
_atom_site_fract_y
_atom_site_fract_z
Zn1	Zn	-0.250599	-1.606159	-0.355871
Zn2	Zn	0.249401	-1.106159	0.144129
Zn3	Zn	-0.355868	-1.606000	-0.250596
Zn4	Zn	0.144132	-1.106000	0.249404
Zn5	Zn	-0.250619	-1.430456	-0.250620
Zn6	Zn	0.249381	-0.930456	0.249380
Zn7	Zn	-0.355837	-1.430402	-0.355833
Zn8	Zn	0.144163	-0.930402	0.144167
O9	O	-0.303231	-1.518254	-0.303230
O10	O	0.196769	-1.018254	0.196770
O11	O	-0.264568	-1.753159	-0.341912
O12	O	0.235432	-1.253159	0.158088
O13	O	-0.341927	-1.582669	-0.162510
O14	O	0.158073	-1.082669	0.337490
O15	O	-0.162527	-1.453853	-0.264608
O16	O	0.337473	-0.953853	0.235392
O17	O	-0.341908	-1.753042	-0.264567
O18	O	0.158092	-1.253042	0.235433
O19	O	-0.162512	-1.582942	-0.341935
O20	O	0.337488	-1.082942	0.158065
O21	O	-0.264601	-1.453698	-0.162528
O22	O	0.235399	-0.953698	0.337472
O23	O	-0.264572	-1.283428	-0.264571
O24	O	0.235428	-0.783428	0.235429
O25	O	-0.341856	-1.453760	-0.443927
O26	O	0.158144	-0.953760	0.056073
O27	O	-0.341875	-1.283388	-0.341870
O28	O	0.158125	-0.783388	0.158130
O29	O	-0.264538	-1.582889	-0.443955
O30	O	0.235462	-1.082889	0.056045
O31	O	-0.443953	-1.582617	-0.264530
O32	O	0.056047	-1.082617	0.235470
O33	O	-0.443931	-1.453605	-0.341847
O34	O	0.056069	-0.953605	0.158153
C35	C	-0.303223	-1.245287	-0.303219
C36	C	0.196777	-0.745287	0.196781
C37	C	-0.303235	-1.128510	-0.303230
C38	C	0.196765	-0.628510	0.196770
C39	C	-0.466782	-1.518116	-0.303195
C40	C	0.033218	-1.018116	0.196805
C41	C	-0.536750	-1.518154	-0.303201
C42	C	-0.036750	-1.018154	0.196799
C43	C	-0.303192	-1.518336	-0.467420
C44	C	0.196808	-1.018336	0.032580
C45	C	-0.303175	-1.518371	-0.537389
C46	C	0.196825	-1.018371	-0.037389
C47	C	-0.569608	-1.585389	-0.262984
C48	C	-0.069608	-1.085389	0.237016
C49	C	-0.635350	-1.585439	-0.262998
C50	C	-0.135350	-1.085439	0.237002
C51	C	-0.668233	-1.518233	-0.303223
C52	C	-0.168233	-1.018233	0.196777
C53	C	-0.635368	-1.450993	-0.343448
C54	C	-0.135368	-0.950993	0.156552
C55	C	-0.569626	-1.450953	-0.343438
C56	C	-0.069626	-0.950953	0.156562
N57	N	-0.771500	-1.426326	-0.308018
N58	N	-0.271500	-0.926326	0.191982
N59	N	-0.833952	-1.426367	-0.308025
N60	N	-0.333952	-0.926367	0.191975
C61	C	-0.866308	-1.518351	-0.303259
C62	C	-0.366308	-1.018351	0.196741
N63	N	-0.833853	-1.610294	-0.298474
N64	N	-0.333853	-1.110294	0.201526
N65	N	-0.771396	-1.610252	-0.298464
N66	N	-0.271396	-1.110252	0.201536
C67	C	-0.739518	-1.518270	-0.303240
C68	C	-0.239518	-1.018270	0.196760
C69	C	-0.970450	-1.585646	-0.263055
C70	C	-0.470450	-1.085646	0.236945
C71	C	-1.036194	-1.585697	-0.263073
C72	C	-0.536194	-1.085697	0.236927
C73	C	-1.036210	-1.451242	-0.343520
C74	C	-0.536210	-0.951242	0.156480
C75	C	-0.970468	-1.451200	-0.343505
C76	C	-0.470468	-0.951200	0.156495
C77	C	-0.937592	-1.518401	-0.303269
C78	C	-0.437592	-1.018401	0.196731
C79	C	-0.139040	-1.518421	-0.303279
C80	C	0.360960	-1.018421	0.196721
C81	C	-0.069072	-1.518492	-0.303300
C82	C	0.430928	-1.018492	0.196700
C83	C	-0.303239	-1.792288	-0.303241
C84	C	0.196761	-1.292288	0.196759
C85	C	-0.303242	-1.909064	-0.303246
C86	C	0.196758	-1.409064	0.196754
C87	C	-0.383861	-1.128507	-0.383591
C88	C	0.116139	-0.628507	0.116409
C89	C	-0.424179	-1.073645	-0.423773
C90	C	0.075821	-0.573645	0.076227
C91	C	-0.424187	-0.963923	-0.423781
C92	C	0.075813	-0.463923	0.076219
C93	C	-0.383871	-0.909061	-0.383603
C94	C	0.116129	-0.409061	0.116397
C95	C	-0.343553	-0.963924	-0.343421
C96	C	0.156447	-0.463924	0.156579
C97	C	-0.343551	-1.073648	-0.343416
C98	C	0.156449	-0.573648	0.156584
C99	C	-0.262924	-0.963926	-0.263064
C100	C	0.237076	-0.463926	0.236936
C101	C	-0.262919	-1.073648	-0.263052
C102	C	0.237081	-0.573648	0.236948
C103	C	-0.222608	-0.909065	-0.222886
C104	C	0.277392	-0.409065	0.277114
C105	C	-0.182292	-0.963927	-0.182700
C106	C	0.317708	-0.463927	0.317300
C107	C	-0.182287	-1.073655	-0.182693
C108	C	0.317713	-0.573655	0.317307
C109	C	-0.222601	-1.128510	-0.222870
C110	C	0.277399	-0.628510	0.277130
C111	C	-0.262907	-1.451234	-0.570254
C112	C	0.237093	-0.951234	-0.070254
C113	C	-0.262895	-1.451230	-0.635997
C114	C	0.237105	-0.951230	-0.135997
C115	C	-0.303145	-1.518383	-0.668871
C116	C	0.196855	-1.018383	-0.168871
C117	C	-0.343421	-1.585525	-0.635997
C118	C	0.156579	-1.085525	-0.135997
C119	C	-0.343436	-1.585519	-0.570256
C120	C	0.156564	-1.085519	-0.070256
N121	N	-0.307951	-1.610352	-0.772107
N122	N	0.192049	-1.110352	-0.272107
N123	N	-0.307933	-1.610354	-0.834559
N124	N	0.192067	-1.110354	-0.334559
C125	C	-0.303103	-1.518402	-0.866946
C126	C	0.196897	-1.018402	-0.366946
N127	N	-0.298279	-1.426445	-0.834523
N128	N	0.201721	-0.926445	-0.334523
N129	N	-0.298294	-1.426444	-0.772065
N130	N	0.201706	-0.926444	-0.272065
C131	C	-0.303133	-1.518396	-0.740157
C132	C	0.196867	-1.018396	-0.240157
C133	C	-0.262820	-1.451255	-0.971097
C134	C	0.237180	-0.951255	-0.471097
C135	C	-0.262813	-1.451249	-1.036841
C136	C	0.237187	-0.951249	-0.536841
C137	C	-0.343335	-1.585553	-1.036840
C138	C	0.156665	-1.085553	-0.536840
C139	C	-0.343346	-1.585550	-0.971098
C140	C	0.156654	-1.085550	-0.471098
C141	C	-0.303085	-1.518402	-0.938230
C142	C	0.196915	-1.018402	-0.438230
C143	C	-0.303224	-1.518233	-0.139679
C144	C	0.196776	-1.018233	0.360321
C145	C	-0.303064	-1.518401	-0.069711
C146	C	0.196936	-1.018401	0.430289
H147	H	-0.662108	-1.640194	-0.230248
H148	H	-0.162108	-1.140194	0.269752
N149	N	-0.384443	-1.654162	-1.070411
N150	N	0.115557	-1.154162	-0.570411
N151	N	-0.380272	-1.751112	-1.063091
N152	N	0.119728	-1.251112	-0.563091
H153	H	-0.409307	-1.799567	-1.086803
H154	H	0.090693	-1.299567	-0.586803
H155	H	-0.222615	-0.819724	-0.222898
H156	H	0.277385	-0.319724	0.277102
N157	N	-0.141111	-1.129708	-0.141646
N158	N	0.358889	-0.629708	0.358354
N159	N	-0.141111	-1.227673	-0.141640
N160	N	0.358889	-0.727673	0.358360
H161	H	-0.112030	-1.267260	-0.112649
H162	H	0.387970	-0.767260	0.387351
H163	H	-0.149467	-0.919250	-0.149993
H164	H	0.350533	-0.419250	0.350007
N165	N	-0.221679	-1.382649	-1.070406
N166	N	0.278321	-0.882649	-0.570406
N167	N	-0.185740	-1.322703	-1.041049
N168	N	0.314260	-0.822703	-0.541049
H169	H	-0.156689	-1.274252	-1.064753
H170	H	0.343311	-0.774252	-0.564753
H171	H	-0.662145	-1.396276	-0.376201
H172	H	-0.162145	-0.896276	0.123799
N173	N	-1.069790	-1.382576	-0.384601
N174	N	-0.569790	-0.882576	0.115399
N175	N	-1.062505	-1.285630	-0.380371
N176	N	-0.562505	-0.785630	0.119629
H177	H	-1.086223	-1.237133	-0.409386
H178	H	-0.586223	-0.737133	0.090614
N179	N	-0.536070	-1.382266	-0.384527
N180	N	-0.036070	-0.882266	0.115473
N181	N	-0.565433	-1.322272	-0.420444
N182	N	-0.065433	-0.822272	0.079556
H183	H	-0.541733	-1.273759	-0.449464
H184	H	-0.041733	-0.773759	0.050536
N185	N	-0.383858	-1.240584	-0.383566
N186	N	0.116142	-0.740584	0.116434
N187	N	-0.396943	-1.289496	-0.334429
N188	N	0.103057	-0.789496	0.165571
H189	H	-0.396942	-1.368653	-0.334410
H190	H	0.103058	-0.868653	0.165590
N191	N	-0.465370	-1.129668	-0.464809
N192	N	0.034630	-0.629668	0.035191
N193	N	-0.501367	-1.080671	-0.500680
N194	N	-0.001367	-0.580671	-0.000680
H195	H	-0.530459	-1.120233	-0.529662
H196	H	-0.030459	-0.620233	-0.029662
N197	N	-0.384482	-1.654138	-0.937532
N198	N	0.115518	-1.154138	-0.437532
N199	N	-0.420420	-1.714088	-0.966888
N200	N	0.079580	-1.214088	-0.466888
H201	H	-0.449477	-1.762530	-0.943183
H202	H	0.050523	-1.262530	-0.443183
H203	H	-0.376226	-1.640195	-0.543497
H204	H	0.123774	-1.140195	-0.043497
N205	N	-0.936873	-1.654293	-0.221953
N206	N	-0.436873	-1.154293	0.278047
N207	N	-0.966222	-1.714329	-0.186050
N208	N	-0.466222	-1.214329	0.313950
H209	H	-0.942510	-1.762812	-0.157021
H210	H	-0.442510	-1.262812	0.342979
H211	H	-0.943714	-1.396446	-0.376251
H212	H	-0.443714	-0.896446	0.123749
N213	N	-0.222600	-1.240588	-0.222879
N214	N	0.277400	-0.740588	0.277121
N215	N	-0.209514	-1.289597	-0.272011
N216	N	0.290486	-0.789597	0.227989
H217	H	-0.209514	-1.368754	-0.272023
H218	H	0.290486	-0.868754	0.227977
H219	H	-0.230126	-1.396553	-0.543498
H220	H	0.269874	-0.896553	-0.043498
N221	N	-0.465369	-0.907893	-0.464833
N222	N	0.034631	-0.407893	0.035167
N223	N	-0.501359	-0.956881	-0.500705
N224	N	-0.001359	-0.456881	-0.000705
H225	H	-0.530444	-0.917311	-0.529699
H226	H	-0.030444	-0.417311	-0.029699
H227	H	-1.062945	-1.640455	-0.230325
H228	H	-0.562945	-1.140455	0.269675
H229	H	-0.230101	-1.396560	-0.662762
H230	H	0.269899	-0.896560	-0.162762
H231	H	-0.383875	-0.819720	-0.383618
H232	H	0.116125	-0.319720	0.116382
H233	H	-0.376192	-1.640201	-0.662768
H234	H	0.123808	-1.140201	-0.162768
H235	H	-0.230038	-1.396578	-0.944335
H236	H	0.269962	-0.896578	-0.444335
H237	H	-0.542842	-1.640111	-0.230223
H238	H	-0.042842	-1.140111	0.269777
