data_functionalizedCrystal
_audit_creation_method	'MofGen! by Chris Wilmer'
_symmetry_space_group_name_H-M	'P1'
_symmetry_Int_Tables_number	1
_symmetry_cell_setting	triclinic
loop_
_symmetry_equiv_pos_as_xyz
  x,y,z
_cell_length_a	10.685980
_cell_length_b	13.031981
_cell_length_c	10.685880
_cell_angle_alpha	87.686082
_cell_angle_beta	80.918858
_cell_angle_gamma	100.943887
loop_
_atom_site_label
_atom_site_type_symbol
_atom_site_fract_x
_atom_site_fract_y
_atom_site_fract_z
Zn1	Zn	1.938546	-0.344387	-0.809416
Zn2	Zn	2.438546	0.155613	-0.309416
Zn3	Zn	1.895168	-0.506768	-0.570162
Zn4	Zn	2.395168	-0.006768	-0.070162
Zn5	Zn	1.709977	-0.344442	-0.580879
Zn6	Zn	2.209977	0.155558	-0.080879
Zn7	Zn	1.695164	-0.531557	-0.761944
Zn8	Zn	2.195164	-0.031557	-0.261944
O9	O	1.809714	-0.431789	-0.680600
O10	O	2.309714	0.068211	-0.180600
O11	O	2.112151	-0.355530	-0.793060
O12	O	2.612151	0.144470	-0.293060
O13	O	1.858648	-0.474885	-0.395679
O14	O	2.358648	0.025115	0.104321
O15	O	1.764649	-0.198169	-0.635547
O16	O	2.264649	0.301831	-0.135547
O17	O	2.080282	-0.474831	-0.617282
O18	O	2.580282	0.025169	-0.117282
O19	O	1.932578	-0.198128	-0.803452
O20	O	2.432578	0.301872	-0.303452
O21	O	1.722588	-0.355624	-0.403553
O22	O	2.222588	0.144376	0.096447
O23	O	1.528652	-0.379661	-0.589516
O24	O	2.028652	0.120339	-0.089516
O25	O	1.739404	-0.517080	-0.944146
O26	O	2.239404	-0.017080	-0.444146
O27	O	1.517770	-0.517133	-0.722544
O28	O	2.017770	-0.017133	-0.222544
O29	O	1.918215	-0.379566	-0.979024
O30	O	2.418215	0.120434	-0.479024
O31	O	1.844285	-0.656322	-0.571251
O32	O	2.344285	-0.156322	-0.071251
O33	O	1.697343	-0.674535	-0.712152
O34	O	2.197343	-0.174535	-0.212152
C35	C	1.476705	-0.451094	-0.652042
C36	C	1.976705	0.048906	-0.152042
C37	C	1.334240	-0.459379	-0.639850
C38	C	1.834240	0.040621	-0.139850
C39	C	1.764536	-0.703353	-0.635417
C40	C	2.264536	-0.203353	-0.135417
C41	C	1.745329	-0.819525	-0.616140
C42	C	2.245329	-0.319525	-0.116140
C43	C	1.819808	-0.871222	-0.690692
C44	C	2.319808	-0.371222	-0.190692
C45	C	1.799958	-0.991292	-0.670770
C46	C	2.299958	-0.491292	-0.170770
C47	C	2.144023	-0.412409	-0.709271
C48	C	2.644023	0.087591	-0.209271
C49	C	2.286485	-0.404151	-0.721489
C50	C	2.786485	0.095849	-0.221489
C51	C	1.831996	-0.451082	-1.008470
C52	C	2.331996	0.048918	-0.508470
C53	C	1.841491	-0.459304	-1.148189
C54	C	2.341491	0.040696	-0.648189
C55	C	1.855105	-0.159163	-0.725990
C56	C	2.355105	0.340837	-0.225990
C57	C	1.874448	-0.042987	-0.745333
C58	C	2.374448	0.457013	-0.245333
C59	C	1.787605	-0.412491	-0.354025
C60	C	2.287605	0.087509	0.145975
C61	C	1.778407	-0.403960	-0.214377
C62	C	2.278407	0.096040	0.285623
H63	H	1.266128	-0.513005	-0.560618
H64	H	1.766128	-0.013005	-0.060618
N65	N	1.923729	-0.812118	-0.794791
N66	N	2.423729	-0.312118	-0.294791
H67	H	1.923174	-0.734722	-0.794271
H68	H	2.423174	-0.234722	-0.294271
H69	H	2.010851	-0.824623	-0.780035
H70	H	2.510851	-0.324623	-0.280035
N71	N	1.696017	-1.050394	-0.566680
N72	N	2.196017	-0.550394	-0.066680
H73	H	1.696570	-1.127790	-0.567202
H74	H	2.196570	-0.627790	-0.067202
H75	H	1.713066	-1.024939	-0.481771
H76	H	2.213066	-0.524939	0.018229
H77	H	1.354591	-0.350521	-0.800709
H78	H	1.854591	0.149479	-0.300709
N79	N	1.697244	-0.332846	-1.147857
N80	N	2.197244	0.167154	-0.647857
H81	H	1.656502	-0.297081	-1.211875
H82	H	2.156502	0.202919	-0.711875
H83	H	1.627179	-0.375655	-1.081209
H84	H	2.127179	0.124345	-0.581209
H85	H	1.666864	-0.864157	-0.537570
H86	H	2.166864	-0.364157	-0.037570
H87	H	1.902769	-0.512977	-1.198412
H88	H	2.402769	-0.012977	-0.698412
H89	H	1.952909	-0.998361	-0.823919
H90	H	2.452909	-0.498361	-0.323919
