data_functionalizedCrystal
_audit_creation_method	'MofGen! by Chris Wilmer'
_symmetry_space_group_name_H-M	'P1'
_symmetry_Int_Tables_number	1
_symmetry_cell_setting	triclinic
loop_
_symmetry_equiv_pos_as_xyz
  x,y,z
_cell_length_a	12.759401
_cell_length_b	18.050583
_cell_length_c	12.759399
_cell_angle_alpha	90.033268
_cell_angle_beta	89.983359
_cell_angle_gamma	89.985797
loop_
_atom_site_label
_atom_site_type_symbol
_atom_site_fract_x
_atom_site_fract_y
_atom_site_fract_z
Zn1	Zn	1.606194	-0.419892	0.418148
Zn2	Zn	2.106194	0.080108	0.918148
Zn3	Zn	1.606104	-0.295709	0.593871
Zn4	Zn	2.106104	0.204291	1.093871
Zn5	Zn	1.430513	-0.295720	0.418211
Zn6	Zn	1.930513	0.204280	0.918211
Zn7	Zn	1.430483	-0.419861	0.593790
Zn8	Zn	1.930483	0.080139	1.093790
O9	O	1.518323	-0.357796	0.506005
O10	O	2.018323	0.142204	1.006005
O11	O	1.753203	-0.403427	0.441466
O12	O	2.253203	0.096573	0.941466
O13	O	1.582787	-0.191786	0.570630
O14	O	2.082787	0.308214	1.070630
O15	O	1.453867	-0.312210	0.271182
O16	O	1.953867	0.187790	0.771182
O17	O	1.753137	-0.312190	0.570568
O18	O	2.253137	0.187810	1.070568
O19	O	1.582939	-0.403438	0.271136
O20	O	2.082939	0.096562	0.771136
O21	O	1.453781	-0.191794	0.441573
O22	O	1.953781	0.308206	0.941573
O23	O	1.283488	-0.312180	0.441495
O24	O	1.783488	0.187820	0.941495
O25	O	1.453816	-0.523790	0.570431
O26	O	1.953816	-0.023790	1.070431
O27	O	1.283466	-0.403385	0.570492
O28	O	1.783466	0.096615	1.070492
O29	O	1.582910	-0.523813	0.441387
O30	O	2.082910	-0.023813	0.941387
O31	O	1.582757	-0.312160	0.740881
O32	O	2.082757	0.187840	1.240881
O33	O	1.453729	-0.403374	0.740822
O34	O	1.953729	0.096626	1.240822
C35	C	1.245356	-0.357781	0.505992
C36	C	1.745356	0.142219	1.005992
C37	C	1.128579	-0.357792	0.506012
C38	C	1.628579	0.142208	1.006012
C39	C	1.073733	-0.405208	0.573283
C40	C	1.573733	0.094792	1.073283
C41	C	0.964009	-0.405223	0.573287
C42	C	1.464009	0.094777	1.073287
C43	C	0.963987	-0.310399	0.438746
C44	C	1.463987	0.189601	0.938746
C45	C	1.073709	-0.310389	0.438738
C46	C	1.573709	0.189611	0.938738
C47	C	1.518370	-0.551501	0.505893
C48	C	2.018370	-0.051501	1.005893
C49	C	1.518389	-0.634047	0.505845
C50	C	2.018389	-0.134047	1.005845
C51	C	1.588661	-0.833510	0.435638
C52	C	2.088661	-0.333510	0.935638
C53	C	1.492833	-0.882906	0.409927
C54	C	1.992833	-0.382906	0.909927
C55	C	1.518432	-0.785177	0.505827
C56	C	2.018432	-0.285177	1.005827
C57	C	1.614298	-0.882863	0.531472
C58	C	2.114298	-0.382863	1.031472
C59	C	1.518481	-0.931163	0.505808
C60	C	2.018481	-0.431163	1.005808
C61	C	1.422553	-0.833486	0.480067
C62	C	1.922553	-0.333486	0.980067
C63	C	1.544082	-0.833439	0.601657
C64	C	2.044082	-0.333439	1.101657
C65	C	1.448188	-0.882813	0.575982
C66	C	1.948188	-0.382813	1.075982
C67	C	1.518405	-0.701079	0.505836
C68	C	2.018405	-0.201079	1.005836
C69	C	1.518497	-1.015259	0.505800
C70	C	2.018497	-0.515259	1.005800
C71	C	1.792357	-0.357811	0.506019
C72	C	2.292357	0.142189	1.006019
C73	C	1.909133	-0.357817	0.506025
C74	C	2.409133	0.142183	1.006025
C75	C	1.518259	-0.357779	0.778973
C76	C	2.018259	0.142221	1.278973
C77	C	1.518327	-0.357796	0.895749
C78	C	2.018327	0.142204	1.395749
C79	C	1.518338	-0.164843	0.506041
C80	C	2.018338	0.335157	1.006041
C81	C	1.518521	-0.082298	0.505793
C82	C	2.018521	0.417702	1.005793
C83	C	1.518417	-0.357829	0.231972
C84	C	2.018417	0.142171	0.731972
C85	C	1.518456	-0.357843	0.115195
C86	C	2.018456	0.142157	0.615195
C87	C	1.585589	-0.310355	0.950607
C88	C	2.085589	0.189645	1.450607
C89	C	1.585657	-0.310380	1.060331
C90	C	2.085657	0.189620	1.560331
C91	C	1.451192	-0.405289	1.060330
C92	C	1.951192	0.094711	1.560330
C93	C	1.451130	-0.405268	0.950608
C94	C	1.951130	0.094732	1.450608
H95	H	1.118366	-0.271777	0.383951
H96	H	1.618366	0.228223	0.883951
N97	N	0.907989	-0.453643	0.642026
N98	N	1.407989	0.046357	1.142026
N99	N	0.846738	-0.427433	0.708936
N100	N	1.346738	0.072567	1.208936
H101	H	0.807174	-0.461631	0.757488
H102	H	1.307174	0.038369	1.257488
H103	H	1.640307	-0.271702	0.905944
H104	H	2.140307	0.228298	1.405944
N105	N	1.465657	-0.910169	0.308249
N106	N	1.965657	-0.410169	0.808249
N107	N	1.528220	-0.950690	0.259221
N108	N	2.028220	-0.450690	0.759221
H109	H	1.509036	-0.969943	0.187408
H110	H	2.009036	-0.469943	0.687408
N111	N	0.907920	-0.261985	0.370037
N112	N	1.407920	0.238015	0.870037
N113	N	0.809955	-0.261999	0.370053
N114	N	1.309955	0.238001	0.870053
H115	H	0.770357	-0.227805	0.321527
H116	H	1.270357	0.272195	0.821527
H117	H	1.341477	-0.811888	0.458274
H118	H	1.841477	-0.311888	0.958274
H119	H	1.565792	-0.811696	0.682683
H120	H	2.065792	-0.311696	1.182683
H121	H	1.640429	-0.271749	1.104992
H122	H	2.140429	0.228251	1.604992
N123	N	1.129799	-0.453633	0.641978
N124	N	1.629799	0.046367	1.141978
N125	N	1.227764	-0.453621	0.641963
N126	N	1.727764	0.046379	1.141963
H127	H	1.267360	-0.487824	0.690477
H128	H	1.767360	0.012176	1.190477
H129	H	1.396481	-0.443938	1.105009
H130	H	1.896481	0.056062	1.605009
H131	H	1.647954	-0.811860	0.376243
H132	H	2.147954	-0.311860	0.876243
N133	N	1.382421	-0.453741	0.894581
N134	N	1.882421	0.046259	1.394581
N135	N	1.322426	-0.496119	0.943571
N136	N	1.822426	0.003881	1.443571
H137	H	1.273905	-0.530354	0.904002
H138	H	1.773905	-0.030354	1.404002
H139	H	1.388750	-0.904324	0.635331
H140	H	1.888750	-0.404324	1.135331
H141	H	1.695350	-0.904555	0.553168
H142	H	2.195350	-0.404555	1.053168
