data_functionalizedCrystal
_audit_creation_method	'MofGen! by Chris Wilmer'
_symmetry_space_group_name_H-M	'P1'
_symmetry_Int_Tables_number	1
_symmetry_cell_setting	triclinic
loop_
_symmetry_equiv_pos_as_xyz
  x,y,z
_cell_length_a	15.944551
_cell_length_b	15.944551
_cell_length_c	14.421503
_cell_angle_alpha	89.996660
_cell_angle_beta	89.996859
_cell_angle_gamma	96.501262
loop_
_atom_site_label
_atom_site_type_symbol
_atom_site_fract_x
_atom_site_fract_y
_atom_site_fract_z
O1	O	1.114529	-0.108320	-0.077017
O2	O	1.614529	0.391680	0.422983
O3	O	0.869980	-0.121677	-0.077040
O4	O	1.369980	0.378323	0.422960
O5	O	0.998933	0.007276	-0.077020
O6	O	1.498933	0.507276	0.422980
O7	O	0.985576	-0.237273	-0.077038
O8	O	1.485576	0.262727	0.422962
O9	O	0.998911	0.007257	0.077204
O10	O	1.498911	0.507257	0.577204
O11	O	0.869958	-0.121696	0.077183
O12	O	1.369958	0.378304	0.577183
O13	O	1.114508	-0.108340	0.077206
O14	O	1.614508	0.391660	0.577206
Cu15	Cu	0.992231	-0.115020	0.091277
Cu16	Cu	1.492231	0.384980	0.591277
Cu17	Cu	0.992256	-0.114997	-0.091110
Cu18	Cu	1.492256	0.385003	0.408890
O19	O	0.985555	-0.237293	0.077186
O20	O	1.485555	0.262707	0.577186
C21	C	0.838675	-0.121132	0.000069
C22	C	1.338675	0.378868	0.500069
C23	C	0.745429	-0.119470	0.000060
C24	C	1.245429	0.380530	0.500060
C25	C	0.998367	0.038561	0.000092
C26	C	1.498367	0.538561	0.500092
C27	C	0.996705	0.131807	0.000093
C28	C	1.496705	0.631807	0.500093
N29	N	0.992219	-0.115035	0.219558
N30	N	1.492219	0.384965	0.719558
C31	C	0.530572	-0.035565	0.000084
C32	C	1.030572	0.464435	0.500084
C33	C	0.469563	-0.074518	-0.075959
C34	C	0.969563	0.425482	0.424041
C35	C	0.574703	-0.116462	0.000071
C36	C	1.074703	0.383538	0.500071
C37	C	0.469564	-0.074556	0.076093
C38	C	0.969564	0.425444	0.576093
C39	C	0.409790	-0.113551	0.000086
C40	C	0.909790	0.386449	0.500086
C41	C	0.514922	-0.155437	-0.076035
C42	C	1.014922	0.344563	0.423965
C43	C	0.514929	-0.155464	0.076086
C44	C	1.014929	0.344536	0.576086
C45	C	0.453937	-0.194476	0.000024
C46	C	0.953937	0.305524	0.500024
C47	C	0.669705	-0.118137	0.000062
C48	C	1.169705	0.381863	0.500062
C49	C	0.314789	-0.111883	0.000089
C50	C	0.814789	0.388117	0.500089
C51	C	1.145813	-0.108885	0.000096
C52	C	1.645813	0.391115	0.500096
C53	C	1.239059	-0.110547	0.000098
C54	C	1.739059	0.389453	0.500098
C55	C	0.986120	-0.268577	0.000072
C56	C	1.486120	0.231423	0.500072
C57	C	0.987782	-0.361823	0.000066
C58	C	1.487782	0.138177	0.500066
C59	C	0.912801	0.346663	0.000072
C60	C	1.412801	0.846663	0.500072
C61	C	0.951753	0.407671	0.076117
C62	C	1.451753	0.907671	0.576117
C63	C	0.993698	0.302533	0.000085
C64	C	1.493698	0.802533	0.500085
C65	C	0.951793	0.407674	-0.075935
C66	C	1.451793	0.907674	0.424065
C67	C	0.990787	0.467445	0.000074
C68	C	1.490787	0.967445	0.500074
C69	C	1.032672	0.362312	0.076193
C70	C	1.532672	0.862312	0.576193
C71	C	1.032701	0.362308	-0.075927
C72	C	1.532701	0.862308	0.424073
C73	C	1.071711	0.423298	0.000136
C74	C	1.571711	0.923298	0.500136
C75	C	0.995372	0.207530	0.000092
C76	C	1.495372	0.707530	0.500092
C77	C	0.989119	0.562446	0.000073
C78	C	1.489119	1.062446	0.500073
N79	N	0.992275	-0.114975	-0.219392
N80	N	1.492275	0.385025	0.280608
C81	C	0.932581	-0.174636	0.469202
C82	C	1.432581	0.325364	0.969202
C83	C	1.008481	-0.190943	0.531011
C84	C	1.508481	0.309057	1.031011
C85	C	0.992240	-0.115015	0.408719
C86	C	1.492240	0.384985	0.908719
C87	C	0.916359	-0.098727	0.531005
C88	C	1.416359	0.401273	1.031005
C89	C	0.992253	-0.114997	0.591441
C90	C	1.492253	0.385003	1.091441
C91	C	1.068178	-0.131360	0.469167
C92	C	1.568178	0.368640	0.969167
C93	C	0.976007	-0.039111	0.469156
C94	C	1.476007	0.460889	0.969156
C95	C	1.051961	-0.055386	0.530936
C96	C	1.551961	0.444614	1.030936
C97	C	0.992231	-0.115027	0.303458
C98	C	1.492231	0.384973	0.803458
C99	C	0.992270	-0.114985	0.696700
C100	C	1.492270	0.385015	1.196700
H101	H	0.449461	-0.040294	-0.140243
H102	H	0.949461	0.459706	0.359757
H103	H	0.534918	-0.189620	-0.140394
H104	H	1.034918	0.310380	0.359606
H105	H	1.138919	0.456457	0.000186
H106	H	1.638919	0.956457	0.500186
O107	O	1.144761	-0.148014	0.437043
O108	O	1.644761	0.351986	0.937043
C109	C	1.161852	-0.227799	0.469335
C110	C	1.661852	0.272201	0.969335
H111	H	1.123301	-0.244813	0.534603
H112	H	1.623301	0.255187	1.034603
H113	H	1.231946	-0.225803	0.485973
H114	H	1.731946	0.274197	0.985973
H115	H	1.144133	-0.277296	0.413542
H116	H	1.644133	0.222704	0.913542
H117	H	0.420779	-0.261683	-0.000023
H118	H	0.920779	0.238317	0.499977
H119	H	0.845652	0.313356	0.000141
H120	H	1.345652	0.813356	0.500141
H121	H	1.102474	-0.004956	0.557872
H122	H	1.602474	0.495044	1.057872
H123	H	0.962240	0.025051	0.441965
H124	H	1.462240	0.525051	0.941965
H125	H	0.449469	-0.040333	0.140379
H126	H	0.949469	0.459667	0.640379
H127	H	0.852183	-0.084959	0.558170
H128	H	1.352183	0.415041	1.058170
O129	O	1.073526	0.338372	0.152882
O130	O	1.573526	0.838372	0.652882
C131	C	1.144063	0.298339	0.125756
C132	C	1.644063	0.798339	0.625756
H133	H	1.133969	0.272591	0.052371
H134	H	1.633969	0.772591	0.552371
H135	H	1.152156	0.244175	0.175369
H136	H	1.652156	0.744175	0.675369
H137	H	1.203099	0.345875	0.127592
H138	H	1.703099	0.845875	0.627592
O139	O	0.570282	0.044551	-0.000164
O140	O	1.070282	0.544551	0.499836
C141	C	0.547296	0.086907	-0.080477
C142	C	1.047296	0.586907	0.419523
H143	H	0.525303	0.038694	-0.136235
H144	H	1.025303	0.538694	0.363765
H145	H	0.604087	0.130108	-0.107016
H146	H	1.104087	0.630108	0.392984
H147	H	0.493911	0.126168	-0.063124
H148	H	0.993911	0.626168	0.436876
O149	O	1.024758	-0.267509	0.563544
O150	O	1.524758	0.232491	1.063544
C151	C	0.956597	-0.302548	0.618681
C152	C	1.456597	0.197452	1.118681
H153	H	0.920412	-0.249914	0.645781
H154	H	1.420412	0.250086	1.145781
H155	H	0.981618	-0.337824	0.679658
H156	H	1.481618	0.162176	1.179658
H157	H	0.912644	-0.348239	0.575193
H158	H	1.412644	0.151761	1.075193
H159	H	0.535052	-0.189660	0.140373
H160	H	1.035052	0.310340	0.640373
O161	O	1.073610	0.338409	-0.152591
O162	O	1.573610	0.838409	0.347409
C163	C	1.156908	0.378978	-0.153232
C164	C	1.656908	0.878978	0.346768
H165	H	1.160326	0.438740	-0.109360
H166	H	1.660326	0.938740	0.390640
H167	H	1.176358	0.396269	-0.227491
H168	H	1.676358	0.896269	0.272509
H169	H	1.201396	0.334733	-0.123367
H170	H	1.701396	0.834733	0.376633
O171	O	0.910791	0.431600	0.152738
O172	O	1.410791	0.931600	0.652738
C173	C	0.827048	0.392180	0.152474
C174	C	1.327048	0.892180	0.652474
H175	H	0.807564	0.373942	0.078475
H176	H	1.307564	0.873942	0.578475
H177	H	0.783221	0.437626	0.181195
H178	H	1.283221	0.937626	0.681195
H179	H	0.822641	0.333098	0.197540
H180	H	1.322641	0.833098	0.697540
H181	H	0.917575	0.427758	-0.140230
H182	H	1.417575	0.927758	0.359770
H183	H	0.882181	-0.225096	0.442096
H184	H	1.382181	0.274904	0.942096
