data_functionalizedCrystal
_audit_creation_method	'MofGen! by Chris Wilmer'
_symmetry_space_group_name_H-M	'P1'
_symmetry_Int_Tables_number	1
_symmetry_cell_setting	triclinic
loop_
_symmetry_equiv_pos_as_xyz
  x,y,z
_cell_length_a	15.944499
_cell_length_b	15.944551
_cell_length_c	16.176319
_cell_angle_alpha	89.992246
_cell_angle_beta	89.989994
_cell_angle_gamma	83.488174
loop_
_atom_site_label
_atom_site_type_symbol
_atom_site_fract_x
_atom_site_fract_y
_atom_site_fract_z
O1	O	1.114555	0.108127	-0.068798
O2	O	1.614555	0.608127	0.431202
O3	O	0.869999	0.121529	-0.068789
O4	O	1.369999	0.621529	0.431211
O5	O	0.998955	-0.007448	-0.068786
O6	O	1.498955	0.492552	0.431214
O7	O	0.985598	0.237104	-0.068801
O8	O	1.485598	0.737104	0.431199
O9	O	0.998937	-0.007456	0.068707
O10	O	1.498937	0.492544	0.568707
O11	O	0.869981	0.121521	0.068704
O12	O	1.369981	0.621521	0.568704
O13	O	1.114537	0.108119	0.068695
O14	O	1.614537	0.608119	0.568695
Cu15	Cu	0.992257	0.114819	0.081254
Cu16	Cu	1.492257	0.614819	0.581254
Cu17	Cu	0.992278	0.114829	-0.081348
Cu18	Cu	1.492278	0.614829	0.418652
O19	O	0.985581	0.237096	0.068693
O20	O	1.485581	0.737096	0.568693
C21	C	0.838695	0.120976	-0.000041
C22	C	1.338695	0.620976	0.499959
C23	C	0.745447	0.119331	-0.000037
C24	C	1.245447	0.619331	0.499963
C25	C	0.453911	0.194263	-0.000054
C26	C	0.953911	0.694263	0.499946
C27	C	0.514949	0.155316	-0.067845
C28	C	1.014949	0.655316	0.432155
C29	C	0.409810	0.113355	-0.000056
C30	C	0.909810	0.613355	0.499944
C31	C	0.514917	0.155286	0.067713
C32	C	1.014917	0.655286	0.567713
C33	C	0.574719	0.116296	-0.000046
C34	C	1.074719	0.616296	0.499954
C35	C	0.469620	0.074385	-0.067903
C36	C	0.969620	0.574385	0.432097
C37	C	0.469582	0.074366	0.067716
C38	C	0.969582	0.574366	0.567716
C39	C	0.530603	0.035360	-0.000091
C40	C	1.030603	0.535360	0.499909
C41	C	0.314810	0.111663	-0.000063
C42	C	0.814810	0.611663	0.499937
C43	C	0.669718	0.117981	-0.000045
C44	C	1.169718	0.617981	0.499955
C45	C	0.998392	-0.038746	-0.000039
C46	C	1.498392	0.461254	0.499961
C47	C	0.996729	-0.131992	-0.000039
C48	C	1.496729	0.368008	0.499961
C49	C	0.912823	-0.346833	-0.000047
C50	C	1.412823	0.153167	0.499953
C51	C	0.951778	-0.407861	0.067744
C52	C	1.451778	0.092139	0.567744
C53	C	0.993722	-0.302717	-0.000045
C54	C	1.493722	0.197283	0.499955
C55	C	0.951814	-0.407837	-0.067814
C56	C	1.451814	0.092163	0.432186
C57	C	0.990811	-0.467629	-0.000055
C58	C	1.490811	0.032371	0.499945
C59	C	1.032699	-0.362517	0.067802
C60	C	1.532699	0.137483	0.567802
C61	C	1.032724	-0.362486	-0.067817
C62	C	1.532724	0.137514	0.432183
C63	C	1.071737	-0.423497	-0.000009
C64	C	1.571737	0.076503	0.499991
C65	C	0.995397	-0.207715	-0.000039
C66	C	1.495397	0.292285	0.499961
C67	C	0.989143	-0.562630	-0.000055
C68	C	1.489143	-0.062630	0.499945
C69	C	1.145840	0.108672	-0.000054
C70	C	1.645840	0.608672	0.499946
C71	C	1.239089	0.110317	-0.000063
C72	C	1.739089	0.610317	0.499937
C73	C	0.986144	0.268394	-0.000056
C74	C	1.486144	0.768394	0.499944
C75	C	0.987806	0.361640	-0.000062
C76	C	1.487806	0.861640	0.499938
N77	N	0.992249	0.114812	0.195619
N78	N	1.492249	0.614812	0.695619
N79	N	0.992294	0.114830	-0.195713
N80	N	1.492294	0.614830	0.304287
C81	C	1.049368	0.057724	0.238885
C82	C	1.549368	0.557724	0.738885
C83	C	1.049372	0.057723	0.325432
C84	C	1.549372	0.557723	0.825432
C85	C	0.992261	0.114815	0.368712
C86	C	1.492261	0.614815	0.868712
C87	C	0.935136	0.171905	0.325440
C88	C	1.435136	0.671905	0.825440
C89	C	0.935128	0.171901	0.238895
C90	C	1.435128	0.671901	0.738895
C91	C	0.935164	0.171921	0.674469
C92	C	1.435164	0.671921	1.174469
C93	C	0.935178	0.171922	0.761020
C94	C	1.435178	0.671922	1.261020
C95	C	1.049408	0.057743	0.761005
C96	C	1.549408	0.557743	1.261005
C97	C	1.049401	0.057739	0.674460
C98	C	1.549401	0.557739	1.174460
C99	C	0.992273	0.114826	0.631196
C100	C	1.492273	0.614826	1.131196
C101	C	0.992268	0.114825	0.537352
C102	C	1.492268	0.614825	1.037352
C103	C	0.992269	0.114820	0.462554
C104	C	1.492269	0.614820	0.962554
H105	H	0.563780	-0.031846	-0.000123
H106	H	1.063780	0.468154	0.499877
N107	N	0.541502	0.200619	0.143629
N108	N	1.041502	0.700619	0.643629
H109	H	0.604809	0.200941	0.143349
H110	H	1.104809	0.700941	0.643349
H111	H	0.513259	0.260609	0.143518
H112	H	1.013259	0.760609	0.643518
N113	N	1.110999	-0.003841	0.372084
N114	N	1.610999	0.496159	0.872084
H115	H	1.078926	-0.041063	0.408008
H116	H	1.578926	0.458937	0.908008
H117	H	1.147161	-0.039936	0.331469
H118	H	1.647161	0.460064	0.831469
N119	N	1.160758	-0.467444	0.000042
N120	N	1.660758	0.032556	0.500042
H121	H	1.159156	-0.530585	-0.000442
H122	H	1.659156	-0.030585	0.499558
H123	H	1.191524	-0.450150	-0.050667
H124	H	1.691524	0.049850	0.449333
N125	N	1.078027	-0.335824	-0.143735
N126	N	1.578027	0.164176	0.356265
H127	H	1.047420	-0.352118	-0.194918
H128	H	1.547420	0.147882	0.305082
H129	H	1.079281	-0.272644	-0.142805
H130	H	1.579281	0.227356	0.357195
N131	N	0.443169	0.029102	-0.143903
N132	N	0.943169	0.529102	0.356097
H133	H	0.460052	0.059434	-0.195045
H134	H	0.960052	0.559434	0.304955
H135	H	0.471814	-0.030734	-0.144059
H136	H	0.971814	0.469266	0.355941
H137	H	0.888651	0.218404	0.639250
H138	H	1.388651	0.718404	1.139250
H139	H	1.095922	0.011257	0.796240
H140	H	1.595922	0.511257	1.296240
N141	N	1.077959	-0.336044	0.143807
N142	N	1.577959	0.163956	0.643807
H143	H	1.047620	-0.352929	0.194944
H144	H	1.547620	0.147071	0.694944
H145	H	1.137802	-0.364672	0.143977
H146	H	1.637802	0.135328	0.643977
N147	N	0.906487	-0.434441	-0.143725
N148	N	1.406487	0.065559	0.356275
H149	H	0.846468	-0.406264	-0.143658
H150	H	1.346468	0.093736	0.356342
H151	H	0.936505	-0.417130	-0.194888
H152	H	1.436505	0.082870	0.305112
H153	H	0.535054	0.189543	-0.125157
H154	H	1.035054	0.689543	0.374843
N155	N	0.409749	0.283199	-0.000137
N156	N	0.909749	0.783199	0.499863
H157	H	0.453142	0.324683	-0.000702
H158	H	0.953142	0.824683	0.499298
H159	H	0.372861	0.291957	-0.050854
H160	H	0.872861	0.791957	0.449146
H161	H	0.888668	0.218414	0.796257
H162	H	1.388668	0.718414	1.296257
H163	H	1.095878	0.011237	0.203652
H164	H	1.595878	0.511237	0.703652
N165	N	0.873530	0.233478	0.372116
N166	N	1.373530	0.733478	0.872116
H167	H	0.882202	0.224820	0.433508
H168	H	1.382202	0.724820	0.933508
H169	H	0.883228	0.293071	0.356974
H170	H	1.383228	0.793071	0.856974
H171	H	1.095909	0.011253	0.639224
H172	H	1.595909	0.511253	1.139224
N173	N	0.873517	0.233469	0.192226
N174	N	1.373517	0.733469	0.692226
H175	H	0.837338	0.269638	0.232774
H176	H	1.337338	0.769638	0.732774
H177	H	0.905666	0.270618	0.156299
H178	H	1.405666	0.770618	0.656299
H179	H	0.845673	-0.313513	0.000023
H180	H	1.345673	0.186487	0.500023
N181	N	0.442923	0.029063	0.143634
N182	N	0.942923	0.529063	0.643634
H183	H	0.459209	0.059676	0.194817
H184	H	0.959209	0.559676	0.694817
H185	H	0.379745	0.027797	0.142702
H186	H	0.879745	0.527797	0.642702
H187	H	0.917553	-0.427967	0.125058
H188	H	1.417553	0.072033	0.625058
