data_functionalizedCrystal
_audit_creation_method	'MofGen! by Chris Wilmer'
_symmetry_space_group_name_H-M	'P1'
_symmetry_Int_Tables_number	1
_symmetry_cell_setting	triclinic
loop_
_symmetry_equiv_pos_as_xyz
  x,y,z
_cell_length_a	14.853559
_cell_length_b	14.971482
_cell_length_c	13.448316
_cell_angle_alpha	89.993798
_cell_angle_beta	89.995590
_cell_angle_gamma	83.622031
loop_
_atom_site_label
_atom_site_type_symbol
_atom_site_fract_x
_atom_site_fract_y
_atom_site_fract_z
O1	O	0.117472	1.186967	-0.082674
O2	O	0.617472	1.686967	0.417326
O3	O	0.131545	0.926569	-0.082678
O4	O	0.631545	1.426569	0.417322
O5	O	-0.006723	1.063728	-0.082675
O6	O	0.493277	1.563728	0.417325
O7	O	0.255740	1.049808	-0.082677
O8	O	0.755740	1.549808	0.417323
O9	O	-0.006731	1.063710	0.082709
O10	O	0.493269	1.563710	0.582709
O11	O	0.131537	0.926551	0.082706
O12	O	0.631537	1.426551	0.582706
O13	O	0.117464	1.186950	0.082710
O14	O	0.617464	1.686950	0.582710
Cu15	Cu	0.124499	1.056749	0.097809
Cu16	Cu	0.624499	1.556749	0.597809
Cu17	Cu	0.124509	1.056770	-0.097777
Cu18	Cu	0.624509	1.556770	0.402223
O19	O	0.255732	1.049791	0.082707
O20	O	0.755732	1.549791	0.582707
C21	C	0.130912	0.893235	0.000013
C22	C	0.630912	1.393235	0.500013
C23	C	0.129028	0.793938	0.000011
C24	C	0.629028	1.293938	0.500011
C25	C	0.128136	0.747283	0.090163
C26	C	0.628136	1.247283	0.590163
C27	C	0.126351	0.653985	0.090164
C28	C	0.626351	1.153985	0.590164
C29	C	0.125465	0.607341	0.000012
C30	C	0.625465	1.107341	0.500012
C31	C	0.126354	0.654002	-0.090146
C32	C	0.626354	1.154002	0.409854
C33	C	0.128133	0.747300	-0.090146
C34	C	0.628133	1.247300	0.409854
C35	C	0.122650	0.459540	-0.090140
C36	C	0.622650	0.959540	0.409860
C37	C	0.120873	0.366235	-0.090140
C38	C	0.620873	0.866235	0.409860
C39	C	0.120868	0.366224	0.090171
C40	C	0.620868	0.866224	0.590171
C41	C	0.122647	0.459522	0.090171
C42	C	0.622647	0.959522	0.590171
C43	C	0.123538	0.506177	0.000011
C44	C	0.623538	1.006177	0.500011
C45	C	-0.040316	1.063090	0.000015
C46	C	0.459684	1.563090	0.500015
C47	C	-0.140400	1.061204	0.000009
C48	C	0.359600	1.561204	0.500009
C49	C	-0.563568	1.053213	-0.090142
C50	C	-0.063568	1.553213	0.409858
C51	C	-0.563572	1.053194	0.090166
C52	C	-0.063572	1.553194	0.590166
C53	C	-0.469540	1.054973	0.090167
C54	C	0.030460	1.554973	0.590167
C55	C	-0.422517	1.055871	0.000012
C56	C	0.077483	1.555871	0.500012
C57	C	-0.469526	1.054989	-0.090143
C58	C	0.030474	1.554989	0.409857
C59	C	-0.422521	1.055846	0.180321
C60	C	0.077479	1.555846	0.680321
C61	C	-0.328483	1.057624	0.180326
C62	C	0.171517	1.557624	0.680326
C63	C	-0.281459	1.058528	0.090170
C64	C	0.218541	1.558528	0.590170
C65	C	-0.328475	1.057648	0.000010
C66	C	0.171525	1.557648	0.500010
C67	C	-0.281452	1.058546	-0.090144
C68	C	0.218548	1.558546	0.409856
C69	C	-0.328467	1.057671	-0.180305
C70	C	0.171533	1.557671	0.319695
C71	C	-0.422503	1.055894	-0.180299
C72	C	0.077497	1.555894	0.319701
C73	C	-0.187423	1.060306	0.090164
C74	C	0.312577	1.560306	0.590164
C75	C	-0.187410	1.060322	-0.090146
C76	C	0.312590	1.560322	0.409854
C77	C	0.289325	1.050429	0.000014
C78	C	0.789325	1.550429	0.500014
C79	C	0.389409	1.052315	0.000013
C80	C	0.889409	1.552315	0.500013
C81	C	0.118097	1.220283	0.000016
C82	C	0.618097	1.720283	0.500016
C83	C	0.119981	1.319581	0.000012
C84	C	0.619981	1.819581	0.500012
N85	N	0.124492	1.056741	0.235373
N86	N	0.624492	1.556741	0.735373
N87	N	0.124510	1.056784	-0.235341
N88	N	0.624510	1.556784	0.264659
C89	C	0.063292	1.117494	0.287415
C90	C	0.563292	1.617494	0.787415
C91	C	0.063291	1.117500	0.391518
C92	C	0.563291	1.617500	0.891518
C93	C	0.124495	1.056756	0.443577
C94	C	0.624495	1.556756	0.943577
C95	C	0.185698	0.995997	0.391528
C96	C	0.685698	1.495997	0.891528
C97	C	0.185694	0.995988	0.287427
C98	C	0.685694	1.495988	0.787427
C99	C	0.185704	0.996022	0.608508
C100	C	0.685704	1.496022	1.108508
C101	C	0.185710	0.996032	0.712617
C102	C	0.685710	1.496032	1.212617
C103	C	0.063301	1.117534	0.712599
C104	C	0.563301	1.617534	1.212599
C105	C	0.063297	1.117525	0.608498
C106	C	0.563297	1.617525	1.108498
C107	C	0.124501	1.056766	0.556456
C108	C	0.624501	1.556766	1.056456
H109	H	0.120152	0.328260	-0.163550
H110	H	0.620152	0.828260	0.336450
Cl111	Cl	0.125246	0.595336	0.203503
Cl112	Cl	0.625246	1.095336	0.703503
Cl113	Cl	0.123771	0.518158	0.203506
Cl114	Cl	0.623771	1.018158	0.703506
Cl115	Cl	-0.013648	1.193875	0.456944
Cl116	Cl	0.486352	1.693875	0.956944
H117	H	0.013467	1.167005	0.754978
H118	H	0.513467	1.667005	1.254978
H119	H	0.120143	0.328234	0.163582
H120	H	0.620143	0.828234	0.663582
H121	H	0.235528	0.946515	0.245055
H122	H	0.735528	1.446515	0.745055
H123	H	0.123376	0.497523	-0.163557
H124	H	0.623376	0.997523	0.336443
Cl125	Cl	0.125207	0.595368	-0.203481
Cl126	Cl	0.625207	1.095368	0.296519
H127	H	0.128865	0.785253	0.163575
H128	H	0.628865	1.285253	0.663575
H129	H	0.128861	0.785284	-0.163557
H130	H	0.628861	1.285284	0.336443
Cl131	Cl	-0.622686	1.052050	0.203497
Cl132	Cl	-0.122686	1.552050	0.703497
H133	H	0.013465	1.166991	0.566111
H134	H	0.513465	1.666991	1.066111
H135	H	0.235548	0.946567	0.754999
H136	H	0.735548	1.446567	1.254999
Cl137	Cl	-0.128303	1.061458	-0.203491
Cl138	Cl	0.371697	1.561458	0.296509
H139	H	-0.601853	1.052504	-0.163548
H140	H	-0.101853	1.552504	0.336452
H141	H	0.235529	0.946534	0.433921
H142	H	0.735529	1.446534	0.933921
H143	H	-0.290211	1.058339	0.253740
H144	H	0.209789	1.558339	0.753740
Cl145	Cl	-0.481637	1.054696	0.293651
Cl146	Cl	0.018363	1.554696	0.793651
H147	H	0.235540	0.946543	0.566139
H148	H	0.735540	1.446543	1.066139
H149	H	-0.290167	1.058396	-0.253709
H150	H	0.209833	1.558396	0.246291
H151	H	0.013456	1.166962	0.245035
H152	H	0.513456	1.666962	0.745035
Cl153	Cl	-0.128322	1.061403	0.203499
Cl154	Cl	0.371678	1.561403	0.703499
H155	H	-0.460791	1.055181	-0.253703
H156	H	0.039209	1.555181	0.246297
