data_functionalizedCrystal
_audit_creation_method	'MofGen! by Chris Wilmer'
_symmetry_space_group_name_H-M	'P1'
_symmetry_Int_Tables_number	1
_symmetry_cell_setting	triclinic
loop_
_symmetry_equiv_pos_as_xyz
  x,y,z
_cell_length_a	19.188905
_cell_length_b	19.188930
_cell_length_c	17.666332
_cell_angle_alpha	90.011603
_cell_angle_beta	89.983521
_cell_angle_gamma	96.860332
loop_
_atom_site_label
_atom_site_type_symbol
_atom_site_fract_x
_atom_site_fract_y
_atom_site_fract_z
O1	O	0.926161	-0.087086	-0.063081
O2	O	0.722847	-0.098838	-0.063057
O3	O	0.830371	0.008694	-0.063055
O4	O	0.818637	-0.194618	-0.063083
O5	O	0.830352	0.008700	0.062842
O6	O	0.722828	-0.098832	0.062840
O7	O	0.926142	-0.087080	0.062815
Cu8	Cu	0.824483	-0.092956	0.074323
Cu9	Cu	0.824506	-0.092962	-0.074565
O10	O	0.818618	-0.194612	0.062814
C11	C	0.696826	-0.098458	-0.000105
C12	C	0.619321	-0.097324	-0.000095
C13	C	0.582939	-0.096782	-0.068723
C14	C	0.510116	-0.095709	-0.068732
C15	C	0.473678	-0.095164	-0.000110
C16	C	0.510068	-0.095709	0.068528
C17	C	0.582889	-0.096789	0.068535
N18	N	0.364650	-0.053733	0.050966
N19	N	0.295473	-0.052705	0.050954
C20	C	0.254272	-0.091911	-0.000127
N21	N	0.284861	-0.132174	-0.051208
N22	N	0.354045	-0.133199	-0.051199
C23	C	0.394716	-0.093993	-0.000110
C24	C	0.138926	-0.090207	-0.068770
C25	C	0.066101	-0.089138	-0.068777
C26	C	0.066055	-0.089131	0.068485
C27	C	0.138879	-0.090207	0.068490
C28	C	0.175310	-0.090742	-0.000140
C29	C	0.829982	0.034708	-0.000104
C30	C	0.828841	0.112213	-0.000098
C31	C	0.952163	-0.087460	-0.000138
C32	C	1.029668	-0.088594	-0.000153
C33	C	0.819007	-0.220626	-0.000139
C34	C	0.820148	-0.298131	-0.000150
N35	N	0.824473	-0.092950	0.179042
C36	C	0.891933	0.157142	-0.000102
C37	C	0.890861	0.229966	-0.000114
C38	C	0.826694	0.257857	-0.000107
C39	C	0.763594	0.212917	-0.000107
C40	C	0.764668	0.140095	-0.000102
N41	N	0.777640	0.365859	0.042744
N42	N	0.776624	0.435038	0.042742
C43	C	0.823456	0.477265	-0.000122
N44	N	0.871352	0.447702	-0.042973
N45	N	0.872369	0.378517	-0.042967
C46	C	0.825523	0.336819	-0.000112
C47	C	0.885390	0.601159	-0.000140
C48	C	0.884315	0.673984	-0.000156
C49	C	0.757047	0.656933	-0.000142
C50	C	0.758123	0.584110	-0.000133
C51	C	0.822296	0.556228	-0.000128
N52	N	0.824522	-0.092962	-0.179284
C53	C	0.872100	-0.045358	0.218653
C54	C	0.872104	-0.045355	0.297901
C55	C	0.824488	-0.092956	0.337535
C56	C	0.776852	-0.140552	0.297915
C57	C	0.776844	-0.140549	0.218668
N58	N	0.815411	-0.154764	0.461945
N59	N	0.815422	-0.154764	0.537226
C60	C	0.824506	-0.092966	0.576299
N61	N	0.833592	-0.031164	0.537247
N62	N	0.833584	-0.031165	0.461960
C63	C	0.824490	-0.092964	0.423464
C64	C	0.872140	-0.045366	0.701838
C65	C	0.872139	-0.045361	0.781087
C66	C	0.776890	-0.140564	0.781100
C67	C	0.776888	-0.140562	0.701852
C68	C	0.824516	-0.092964	0.662226
H69	H	0.036479	-0.088702	-0.124664
H70	H	0.706747	0.547527	-0.000125
N71	N	0.028856	-0.088567	0.138590
N72	N	0.061354	-0.089044	0.199863
H73	H	0.035080	-0.088647	0.249377
N74	N	0.472840	-0.095159	0.138618
N75	N	0.407822	-0.094195	0.138603
H76	H	0.381528	-0.093810	0.188106
H77	H	0.612511	-0.097231	0.124422
N78	N	0.728255	-0.189186	0.661375
N79	N	0.728258	-0.189181	0.590620
H80	H	0.693909	-0.223523	0.562032
H81	H	0.480488	-0.095270	-0.124620
N82	N	0.620141	-0.097329	-0.138831
N83	N	0.587642	-0.096846	-0.200103
H84	H	0.613917	-0.097233	-0.249618
N85	N	0.700225	0.094186	-0.000101
N86	N	0.686638	0.051634	-0.053164
H87	H	0.641125	0.019208	-0.053162
H88	H	0.168501	-0.090643	0.124374
N89	N	0.950944	0.572684	-0.000133
N90	N	1.007273	0.612812	-0.000141
H91	H	1.053572	0.592703	-0.000135
N92	N	0.957483	0.128663	-0.000090
N93	N	0.999958	0.142516	0.052976
H94	H	1.046254	0.122402	0.052984
N95	N	0.176134	-0.090753	-0.138877
N96	N	0.143637	-0.090276	-0.200150
H97	H	0.169913	-0.090661	-0.249664
H98	H	0.942239	0.266555	-0.000120
H99	H	0.711349	0.235631	-0.000103
H100	H	0.935694	0.710565	-0.000164
N101	N	0.691495	0.685403	-0.000143
N102	N	0.649018	0.671546	-0.053208
H103	H	0.602720	0.691654	-0.053213
N104	N	0.920813	0.003207	0.178189
N105	N	0.963373	0.045658	0.213572
H106	H	0.997799	0.079937	0.184994
H107	H	0.738060	-0.179305	0.186417
N108	N	0.920758	0.003268	0.338361
N109	N	0.963276	0.045764	0.302972
H110	H	0.997639	0.080105	0.331545
N111	N	0.728213	-0.189166	0.338407
N112	N	0.728226	-0.189162	0.409162
H113	H	0.693871	-0.223495	0.437761
N114	N	0.920706	0.003344	0.661368
N115	N	0.963166	0.045898	0.696748
H116	H	0.997434	0.080333	0.668168
N117	N	0.920791	0.003266	0.821540
N118	N	0.963308	0.045759	0.786146
H119	H	0.997669	0.080104	0.814715
H120	H	0.738118	-0.179319	0.813369
