data_functionalizedCrystal
_audit_creation_method	'MofGen! by Chris Wilmer'
_symmetry_space_group_name_H-M	'P1'
_symmetry_Int_Tables_number	1
_symmetry_cell_setting	triclinic
loop_
_symmetry_equiv_pos_as_xyz
  x,y,z
_cell_length_a	13.032721
_cell_length_b	18.215407
_cell_length_c	18.215399
_cell_angle_alpha	89.982187
_cell_angle_beta	97.154738
_cell_angle_gamma	97.198866
loop_
_atom_site_label
_atom_site_type_symbol
_atom_site_fract_x
_atom_site_fract_y
_atom_site_fract_z
Zn1	Zn	-0.416201	1.087866	-0.453296
Zn2	Zn	-0.590962	1.072153	-0.345859
Zn3	Zn	-0.416217	0.964798	-0.330249
Zn4	Zn	-0.590886	0.949149	-0.468881
O5	O	-0.503567	1.018491	-0.399571
O6	O	-0.439409	1.188764	-0.439055
O7	O	-0.567820	1.057884	-0.240807
O8	O	-0.269977	0.994248	-0.333517
O9	O	-0.567805	1.177219	-0.360121
O10	O	-0.269966	1.084666	-0.423919
O11	O	-0.439436	0.979011	-0.229339
O12	O	-0.439362	0.859740	-0.348629
O13	O	-0.567675	0.967578	-0.569794
O14	O	-0.567690	0.848243	-0.450481
O15	O	-0.439335	1.069493	-0.558344
O16	O	-0.737190	1.042711	-0.375232
O17	O	-0.737134	0.952341	-0.465616
C18	C	-0.503521	0.827289	-0.399553
C19	C	-0.503526	0.745490	-0.399565
C20	C	-0.436839	0.486423	-0.440759
C21	C	-0.436823	0.563283	-0.440755
C22	C	-0.570328	0.551298	-0.358403
C23	C	-0.570349	0.474439	-0.358411
C24	C	-0.503599	0.442004	-0.399588
C25	C	-0.503561	0.595723	-0.399575
C26	C	-0.503543	0.679059	-0.399571
C27	C	-0.503618	0.358663	-0.399593
C28	C	-0.775079	0.994142	-0.423825
C29	C	-0.891234	0.983793	-0.434226
C30	C	-0.943012	1.023932	-0.394176
C31	C	-1.063064	1.013236	-0.404925
C32	C	-0.230994	1.042956	-0.375239
C33	C	-0.114839	1.053381	-0.364869
C34	C	-0.503495	1.018543	-0.591518
C35	C	-0.503464	1.018565	-0.673314
C36	C	-0.503614	1.210440	-0.399590
C37	C	-0.503634	1.292237	-0.399598
C38	C	-0.436575	1.071654	-0.855542
C39	C	-0.436544	1.071666	-0.932398
C40	C	-0.570191	0.965542	-0.944310
C41	C	-0.570216	0.965527	-0.867455
C42	C	-0.503409	1.018588	-0.823073
C43	C	-0.503354	1.018613	-0.976784
C44	C	-0.503322	1.018625	-1.060115
C45	C	-0.503440	1.018575	-0.739736
C46	C	-0.503563	1.018490	-0.208365
C47	C	-0.503299	1.018637	-0.126543
H48	H	-0.382487	0.460017	-0.474287
C49	C	-0.710931	0.375425	-0.360600
C50	C	-0.643741	0.425608	-0.313154
H51	H	-0.756243	0.345283	-0.332663
H52	H	-0.671184	0.345111	-0.385119
H53	H	-0.750944	0.401850	-0.396189
H54	H	-0.603721	0.399183	-0.277568
H55	H	-0.683491	0.455925	-0.288623
C56	C	-1.080927	1.181021	-0.326117
C57	C	-1.054715	1.110467	-0.307835
H58	H	-1.043802	1.216262	-0.290909
H59	H	-1.153706	1.181317	-0.325853
H60	H	-1.063030	1.193336	-0.373984
H61	H	-1.072619	1.098150	-0.259970
H62	H	-0.981919	1.110169	-0.308091
C63	C	-0.909276	1.062833	-0.266593
C64	C	-0.882885	1.081012	-0.337141
H65	H	-0.872161	1.098076	-0.231382
H66	H	-0.891499	1.014970	-0.254206
H67	H	-0.982066	1.063137	-0.266342
H68	H	-0.810095	1.080703	-0.337393
H69	H	-0.900655	1.128887	-0.349531
H70	H	-0.382461	0.599447	-0.474281
H71	H	-0.624640	0.922309	-0.841018
C72	C	-1.230477	0.956604	-0.461568
C73	C	-1.123187	0.956151	-0.461960
H74	H	-1.267593	0.921359	-0.496775
H75	H	-1.248241	1.004467	-0.473964
H76	H	-1.248359	0.944280	-0.413699
H77	H	-1.105303	0.968480	-0.509828
H78	H	-1.105415	0.908277	-0.449568
H79	H	-0.935782	0.941514	-0.476475
H80	H	-0.624671	0.577716	-0.324877
C81	C	-0.304458	1.176548	-0.851489
C82	C	-0.363131	1.129971	-0.806755
H83	H	-0.259111	1.212546	-0.821369
H84	H	-0.349983	1.200618	-0.885530
H85	H	-0.264476	1.148065	-0.877895
H86	H	-0.403120	1.158452	-0.780353
H87	H	-0.317600	1.105898	-0.772700
H88	H	-0.382119	1.114877	-0.958830
H89	H	-0.624585	0.922343	-0.980455
