data_functionalizedCrystal
_audit_creation_method	'MofGen! by Chris Wilmer'
_symmetry_space_group_name_H-M	'P1'
_symmetry_Int_Tables_number	1
_symmetry_cell_setting	triclinic
loop_
_symmetry_equiv_pos_as_xyz
  x,y,z
_cell_length_a	10.540535
_cell_length_b	15.995343
_cell_length_c	9.016244
_cell_angle_alpha	89.993040
_cell_angle_beta	89.995024
_cell_angle_gamma	84.006413
loop_
_atom_site_label
_atom_site_type_symbol
_atom_site_fract_x
_atom_site_fract_y
_atom_site_fract_z
O1	O	1.684270	0.117977	-0.123277
O2	O	1.314703	0.129098	-0.123299
O3	O	1.509594	0.001710	-0.123260
O4	O	1.489379	0.245365	-0.123316
O5	O	1.509565	0.001713	0.123421
O6	O	1.314674	0.129101	0.123382
O7	O	1.684241	0.117979	0.123404
Cu8	Cu	1.499455	0.123541	0.145917
Cu9	Cu	1.499489	0.123537	-0.145812
O10	O	1.489350	0.245368	0.123365
C11	C	1.267397	0.128266	0.000039
C12	C	1.126483	0.125774	0.000032
C13	C	1.091095	0.032764	0.000059
C14	C	0.944530	0.030141	0.000634
C15	C	0.916546	0.168232	0.140632
C16	C	1.063284	0.170211	0.140735
C17	C	1.063181	0.171561	-0.139797
C18	C	0.916894	0.167260	-0.141629
C19	C	1.508746	-0.029489	0.000085
C20	C	1.506245	-0.122454	0.000096
C21	C	1.501707	-0.292668	0.000062
C22	C	1.361026	-0.316853	0.000050
C23	C	1.358379	-0.413547	-0.000526
C24	C	1.497237	-0.460254	0.000030
C25	C	1.567991	-0.430735	-0.140549
C26	C	1.569659	-0.333932	-0.140650
C27	C	1.571686	-0.334021	0.139882
C28	C	1.566492	-0.430547	0.141713
C29	C	1.494718	-0.554968	0.000007
C30	C	1.504230	-0.197955	0.000075
C31	C	1.731547	0.118811	0.000063
C32	C	1.872461	0.121304	0.000061
C33	C	1.490199	0.276566	0.000017
C34	C	1.492699	0.369532	-0.000004
N35	N	1.499441	0.123542	0.351103
N36	N	1.499513	0.123529	-0.350998
C37	C	1.394873	0.191458	0.586115
C38	C	1.395099	0.191713	0.414224
C39	C	1.631890	0.143416	0.413444
C40	C	1.631318	0.143897	0.585389
C41	C	1.472880	0.035530	0.585665
C42	C	1.469827	0.036101	0.413711
H43	H	0.868263	0.235354	0.145448
N44	N	1.706308	-0.313803	-0.148572
H45	H	1.718724	-0.279789	-0.240850
H46	H	1.726461	-0.280372	-0.058122
H47	H	1.378404	0.016615	0.629112
H48	H	1.514969	-0.449419	0.245716
N49	N	0.850737	0.255398	-0.153472
H50	H	0.790761	0.266840	-0.066765
H51	H	0.916509	0.297007	-0.152530
H52	H	1.549189	-0.015030	0.626333
N53	N	1.091314	0.262206	-0.141634
H54	H	1.144794	0.273593	-0.052380
H55	H	1.139373	0.273474	-0.235219
N56	N	0.906350	-0.018480	-0.132805
H57	H	0.863204	-0.068626	-0.098838
H58	H	0.845519	0.019064	-0.196391
N59	N	0.907485	-0.018225	0.134928
H60	H	0.846999	0.019345	0.198879
H61	H	0.864283	-0.068503	0.101782
N62	N	0.876209	0.125587	0.279768
H63	H	0.829388	0.075880	0.252064
H64	H	0.954202	0.105661	0.340240
H65	H	1.655913	0.206892	0.370353
N66	N	1.147371	-0.014561	-0.133431
H67	H	1.196353	0.023828	-0.195224
H68	H	1.206847	-0.064463	-0.099354
H69	H	1.306484	-0.289175	0.100848
H70	H	1.106053	0.142537	-0.246384
N71	N	1.662394	0.228935	0.638503
H72	H	1.749394	0.239770	0.600731
H73	H	1.596202	0.273864	0.599842
H74	H	1.307396	-0.288185	-0.100617
N75	N	1.149279	-0.013761	0.133406
H76	H	1.198462	0.025149	0.193798
H77	H	1.079347	-0.034024	0.196325
N78	N	1.117059	0.128236	0.280479
H79	H	1.095892	0.068111	0.283237
H80	H	1.212712	0.129158	0.281866
N81	N	1.703363	-0.472103	-0.146959
H82	H	1.720167	-0.510471	-0.058586
H83	H	1.715988	-0.505970	-0.241319
H84	H	1.085374	0.238394	0.146726
H85	H	1.527289	-0.306020	0.246474
N86	N	1.340778	0.016136	0.359730
H87	H	1.322265	-0.040174	0.400351
H88	H	1.273109	0.061124	0.394909
N89	N	1.564221	-0.034080	0.356832
H90	H	1.627804	-0.010079	0.289373
H91	H	1.610588	-0.063445	0.443349
N92	N	1.503729	-0.457722	-0.279678
H93	H	1.428801	-0.489062	-0.251966
H94	H	1.472814	-0.406461	-0.340162
H95	H	1.303283	-0.432309	-0.101903
H96	H	0.888775	0.133109	-0.245626
N97	N	1.417537	0.278171	0.359516
H98	H	1.342549	0.301848	0.297328
H99	H	1.427388	0.316289	0.447138
N100	N	1.700704	-0.473394	0.153551
H101	H	1.718598	-0.512842	0.066846
H102	H	1.763199	-0.429643	0.152608
N103	N	1.708846	-0.314638	0.141693
H104	H	1.711726	-0.251759	0.145557
H105	H	1.753248	-0.341416	0.231756
H106	H	1.296647	0.179755	0.372077
H107	H	1.296110	0.179684	0.627505
H108	H	1.302983	-0.432900	0.100217
N109	N	1.505539	-0.298809	-0.280369
H110	H	1.553092	-0.323885	-0.369785
H111	H	1.414584	-0.313318	-0.282977
N112	N	1.417120	0.277448	0.643285
H113	H	1.340118	0.301814	0.701503
H114	H	1.494712	0.272509	0.709673
H115	H	1.711615	0.096414	0.626986
N116	N	1.737495	0.079680	0.359270
H117	H	1.821753	0.093684	0.400700
H118	H	1.720628	0.021739	0.393480
