data_functionalizedCrystal
_audit_creation_method	'MofGen! by Chris Wilmer'
_symmetry_space_group_name_H-M	'P1'
_symmetry_Int_Tables_number	1
_symmetry_cell_setting	triclinic
loop_
_symmetry_equiv_pos_as_xyz
  x,y,z
_cell_length_a	10.723023
_cell_length_b	19.188924
_cell_length_c	9.198806
_cell_angle_alpha	89.994752
_cell_angle_beta	89.996513
_cell_angle_gamma	83.804756
loop_
_atom_site_label
_atom_site_type_symbol
_atom_site_fract_x
_atom_site_fract_y
_atom_site_fract_z
O1	O	1.655151	0.097920	-0.120885
O2	O	1.291804	0.107293	-0.120892
O3	O	1.483968	0.001019	-0.120871
O4	O	1.462988	0.204194	-0.120906
O5	O	1.483952	0.001018	0.120914
O6	O	1.291789	0.107293	0.120893
O7	O	1.655136	0.097919	0.120900
Cu8	Cu	1.473461	0.102606	0.142974
Cu9	Cu	1.473479	0.102607	-0.142965
O10	O	1.462973	0.204194	0.120879
C11	C	1.245311	0.106611	-0.000000
C12	C	1.106799	0.104571	-0.000002
C13	C	1.045038	0.103661	0.125249
C14	C	0.901879	0.101552	0.125250
C15	C	1.483282	-0.024997	0.000023
C16	C	1.481247	-0.102515	0.000027
C17	C	1.480305	-0.138920	-0.131771
C18	C	1.478375	-0.211755	-0.131782
C19	C	1.477412	-0.248184	0.000012
C20	C	1.478347	-0.211770	0.131827
C21	C	1.480264	-0.138936	0.131834
N22	N	1.545403	-0.367406	0.098104
N23	N	1.543584	-0.436596	0.098088
C24	C	1.471632	-0.467631	-0.000002
N25	N	1.401584	-0.426863	-0.098098
N26	N	1.403408	-0.357667	-0.098087
C27	C	1.475332	-0.327161	0.000019
C28	C	1.468596	-0.583012	-0.131821
C29	C	1.466659	-0.655848	-0.131826
C30	C	1.466643	-0.655863	0.131786
C31	C	1.468568	-0.583027	0.131788
C32	C	1.469550	-0.546607	-0.000020
C33	C	1.701629	0.098602	0.000005
C34	C	1.840141	0.100642	-0.000003
C35	C	1.463658	0.230210	-0.000018
C36	C	1.465693	0.307728	-0.000031
N37	N	1.473458	0.102606	0.344087
N38	N	1.473492	0.102602	-0.344079
C39	C	1.554146	0.057787	0.416293
C40	C	1.554165	0.057785	0.583705
H41	H	1.053690	0.103786	-0.107233
H42	H	1.469389	-0.553356	-0.239146
H43	H	1.477559	-0.241435	0.239134
C44	C	0.911868	0.101701	-0.144879
H45	H	0.854562	0.100862	-0.223460
H46	H	0.972386	0.061808	-0.150279
H47	H	0.952897	0.143099	-0.150286
C48	C	1.481312	-0.098889	0.276817
H49	H	1.480468	-0.131014	0.355311
H50	H	1.409317	-0.065496	0.282298
H51	H	1.554821	-0.075459	0.282297
H52	H	0.848765	0.100773	0.232482
H53	H	1.404387	0.140972	0.406208
H54	H	1.481102	-0.109270	-0.239099
H55	H	1.477601	-0.241401	-0.239110
H56	H	1.465886	-0.685487	-0.239156
H57	H	1.465849	-0.685522	0.239095
H58	H	1.469345	-0.553387	0.239112
C59	C	1.647487	0.005945	0.667579
H60	H	1.635251	0.012741	0.769095
H61	H	1.730801	0.013806	0.642687
H62	H	1.633964	-0.040699	0.642717
H63	H	1.623208	0.019415	0.354175
C64	C	1.116771	0.104719	0.270115
H65	H	1.203579	0.106003	0.251109
H66	H	1.105237	0.063764	0.324314
H67	H	1.085759	0.145055	0.324288
C68	C	1.380164	0.154444	0.572063
H69	H	1.329560	0.182564	0.639088
H70	H	1.328265	0.129127	0.512696
H71	H	1.425098	0.183635	0.512678
