data_functionalizedCrystal
_audit_creation_method	'MofGen! by Chris Wilmer'
_symmetry_space_group_name_H-M	'P1'
_symmetry_Int_Tables_number	1
_symmetry_cell_setting	triclinic
loop_
_symmetry_equiv_pos_as_xyz
  x,y,z
_cell_length_a	14.044220
_cell_length_b	14.044191
_cell_length_c	16.053802
_cell_angle_alpha	87.186691
_cell_angle_beta	92.799619
_cell_angle_gamma	93.190327
loop_
_atom_site_label
_atom_site_type_symbol
_atom_site_fract_x
_atom_site_fract_y
_atom_site_fract_z
O1	O	0.226523	1.280858	-0.069392
O2	O	0.218210	1.004186	-0.069403
O3	O	0.084031	1.138369	-0.069390
O4	O	0.360702	1.146676	-0.069406
O5	O	0.091383	1.130980	0.069469
O6	O	0.225562	0.996798	0.069455
O7	O	0.233875	1.273470	0.069466
Zn8	Zn	0.230886	1.133961	0.091507
Zn9	Zn	0.221199	1.143695	-0.091444
O10	O	0.368054	1.139287	0.069452
C11	C	0.218249	0.964870	0.000025
C12	C	0.207402	0.858727	0.000021
C13	C	0.264502	0.613269	0.000026
C14	C	0.187586	0.664394	0.000029
C15	C	0.198614	0.772531	0.000025
C16	C	0.253476	0.505122	0.000031
C17	C	0.052085	1.131039	0.000040
C18	C	-0.054058	1.120194	0.000040
C19	C	-0.248397	1.100369	0.000028
C20	C	-0.299525	1.177283	0.000028
C21	C	-0.407662	1.166252	0.000021
C22	C	-0.140250	1.111399	0.000035
C23	C	0.400000	1.146617	0.000021
C24	C	0.506142	1.157462	0.000015
C25	C	0.233836	1.312786	0.000036
C26	C	0.244683	1.418929	0.000034
N27	N	0.237497	1.127324	0.216367
N28	N	0.214581	1.150339	-0.216304
C29	C	0.180428	1.184443	0.260067
C30	C	0.185062	1.179811	0.347473
C31	C	0.246771	1.118062	0.391178
C32	C	0.303843	1.060937	0.347472
C33	C	0.299203	1.065565	0.260068
C34	C	0.267012	1.097842	0.652586
C35	C	0.271650	1.093220	0.739996
C36	C	0.152868	1.212093	0.739991
C37	C	0.148237	1.216720	0.652585
C38	C	0.205305	1.159591	0.608887
N39	N	0.251512	1.113328	0.480521
N40	N	0.200559	1.164321	0.519545
H41	H	-0.262086	1.251420	-0.000025
H42	H	0.138591	1.226321	0.383053
H43	H	0.113451	0.626953	-0.000025
H44	H	0.338629	0.650710	0.000019
N45	N	-0.297981	1.002174	0.000023
H46	H	-0.369321	1.008115	0.000021
H47	H	-0.276133	0.963628	0.051502
H48	H	0.130182	1.234730	0.224488
N49	N	0.081681	1.283321	0.605447
H50	H	0.046229	1.318804	0.646394
H51	H	0.034438	1.245125	0.569194
H52	H	0.345673	1.019051	0.224488
H53	H	0.106405	1.258604	0.775578
H54	H	0.321905	1.042934	0.775577
N55	N	0.328556	1.036221	0.605460
H56	H	0.368351	0.996405	0.646413
H57	H	0.371952	1.078249	0.569177
N58	N	0.370395	0.994328	0.394606
H59	H	0.364677	1.000064	0.456609
H60	H	0.438251	1.011886	0.379315
