data_functionalizedCrystal
_audit_creation_method	'MofGen! by Chris Wilmer'
_symmetry_space_group_name_H-M	'P1'
_symmetry_Int_Tables_number	1
_symmetry_cell_setting	triclinic
loop_
_symmetry_equiv_pos_as_xyz
  x,y,z
_cell_length_a	17.639044
_cell_length_b	17.640280
_cell_length_c	12.827885
_cell_angle_alpha	78.769256
_cell_angle_beta	101.204771
_cell_angle_gamma	70.392877
loop_
_atom_site_label
_atom_site_type_symbol
_atom_site_fract_x
_atom_site_fract_y
_atom_site_fract_z
Zn1	Zn	1.326109	-0.582493	-0.080191
Zn2	Zn	1.353893	-0.720299	0.138789
Zn3	Zn	1.188318	-0.554699	0.050215
Zn4	Zn	1.216153	-0.692418	-0.080240
O5	O	1.271118	-0.637477	0.007143
O6	O	1.445105	-0.624074	-0.014054
O7	O	1.331907	-0.698368	0.273280
O8	O	1.183319	-0.443078	-0.004132
O9	O	1.465518	-0.725319	0.146830
O10	O	1.284553	-0.463498	-0.099941
O11	O	1.210260	-0.576703	0.208205
O12	O	1.076699	-0.549668	-0.004179
O13	O	1.230760	-0.677800	-0.226474
O14	O	1.097150	-0.650849	-0.100024
O15	O	1.311544	-0.597039	-0.226438
O16	O	1.358898	-0.831909	0.146783
O17	O	1.257702	-0.811425	-0.014137
C18	C	1.057026	-0.594218	-0.061719
C19	C	0.965441	-0.575731	-0.091196
C20	C	0.825743	-0.497047	-0.216577
C21	C	0.911803	-0.514425	-0.188868
C22	C	0.933032	-0.619681	-0.021191
C23	C	0.846972	-0.602309	-0.048882
C24	C	0.793334	-0.540992	-0.146577
C25	C	0.814563	-0.646254	0.021117
C26	C	0.728511	-0.628887	-0.006576
C27	C	0.674868	-0.567574	-0.104268
C28	C	0.707282	-0.523625	-0.174270
C29	C	0.868204	-0.707575	0.118807
C30	C	0.835795	-0.751520	0.188807
C31	C	0.749740	-0.734149	0.161118
C32	C	0.696097	-0.672836	0.063426
C33	C	0.717326	-0.778098	0.231120
C34	C	0.631274	-0.760731	0.203428
C35	C	0.610045	-0.655469	0.035734
C36	C	1.314358	-0.851570	0.075913
C37	C	1.332931	-0.943175	0.105323
C38	C	1.130355	-1.191219	-0.216548
C39	C	1.147809	-1.277296	-0.188880
C40	C	1.253251	-1.298574	-0.021428
C41	C	1.235808	-1.212498	-0.049085
C42	C	1.174358	-1.158826	-0.146646
C43	C	1.279812	-1.180105	0.020817
C44	C	1.262367	-1.094035	-0.006835
C45	C	1.200919	-1.040358	-0.104390
C46	C	1.156914	-1.072757	-0.174299
C47	C	1.341257	-1.233777	0.118381
C48	C	1.385261	-1.201384	0.188284
C49	C	1.367821	-1.115314	0.160628
C50	C	1.306372	-1.061637	0.063073
C51	C	1.411825	-1.082915	0.230536
C52	C	1.394381	-0.996846	0.202884
C53	C	1.288928	-0.975567	0.035421
C54	C	1.486046	-0.680907	0.076274
C55	C	1.577636	-0.699414	0.105733
C56	C	1.271158	-0.637410	-0.265434
C57	C	1.271175	-0.637381	-0.381591
C58	C	1.227732	-0.422554	-0.061911
C59	C	1.209243	-0.330966	-0.091338
C60	C	1.311153	-0.597409	-0.433359
C61	C	1.311172	-0.597378	-0.553413
C62	C	1.271113	-0.637495	0.278657
C63	C	1.271209	-0.637324	0.394789
H64	H	0.782065	-0.447107	-0.296121
C65	C	1.320840	-1.357620	0.085889
N66	N	1.371750	-1.402094	0.166722
C67	C	1.452850	-1.260430	0.295601
N68	N	1.503760	-1.304904	0.376433
C69	C	1.099400	-1.312924	-0.265790
N70	N	1.062940	-1.339760	-0.323718
H71	H	0.976716	-0.669607	0.058351
H72	H	1.345362	-0.563206	-0.388803
C73	C	1.224966	-0.683559	-0.545077
N74	N	1.190134	-0.718382	-0.499777
C75	C	0.894804	-0.818962	0.296273
N76	N	0.939249	-0.869756	0.377222
C77	C	1.357409	-0.551142	-0.613555
N78	N	1.392235	-0.516313	-0.658858
H79	H	0.566367	-0.605529	-0.043811
H80	H	0.604799	-0.553437	-0.126816
H81	H	0.663604	-0.473685	-0.253814
H82	H	0.938185	-0.478632	-0.245875
H83	H	0.938270	-0.721701	0.141363
H84	H	0.761012	-0.828028	0.310658
H85	H	1.238895	-0.931867	-0.044029
C86	C	0.595622	-0.809072	0.280431
N87	N	0.568769	-0.845485	0.338431
H88	H	1.186711	-0.970274	-0.126897
H89	H	1.106881	-1.029056	-0.253748
C90	C	1.062746	-1.132173	-0.323860
N91	N	1.011819	-1.087699	-0.404678
C92	C	1.479409	-1.141963	0.337858
N93	N	1.530313	-1.186437	0.418695
H94	H	1.355460	-1.303860	0.140890
H95	H	1.430213	-0.970472	0.259807
H96	H	1.236956	-0.671573	-0.426153
