data_functionalizedCrystal
_audit_creation_method	'MofGen! by Chris Wilmer'
_symmetry_space_group_name_H-M	'P1'
_symmetry_Int_Tables_number	1
_symmetry_cell_setting	triclinic
loop_
_symmetry_equiv_pos_as_xyz
  x,y,z
_cell_length_a	10.686220
_cell_length_b	14.908520
_cell_length_c	10.685880
_cell_angle_alpha	97.870404
_cell_angle_beta	89.641569
_cell_angle_gamma	97.432447
loop_
_atom_site_label
_atom_site_type_symbol
_atom_site_fract_x
_atom_site_fract_y
_atom_site_fract_z
Zn1	Zn	1.951154	-0.284114	-0.586888
Zn2	Zn	1.924425	-0.425645	-0.389348
Zn3	Zn	1.725146	-0.285969	-0.393371
Zn4	Zn	1.729124	-0.448780	-0.617116
O5	O	1.832462	-0.361127	-0.496681
O6	O	2.123928	-0.292431	-0.546350
O7	O	1.885139	-0.398211	-0.213572
O8	O	1.764648	-0.158355	-0.408074
O9	O	2.104290	-0.396413	-0.401218
O10	O	1.930695	-0.156993	-0.550251
O11	O	1.738730	-0.295592	-0.216527
O12	O	1.549354	-0.318025	-0.437385
O13	O	1.771428	-0.435842	-0.789416
O14	O	1.552277	-0.437641	-0.601770
O15	O	1.934553	-0.314863	-0.767207
O16	O	1.888997	-0.556082	-0.430528
O17	O	1.745510	-0.573079	-0.597869
C18	C	1.505098	-0.380545	-0.523295
C19	C	1.365051	-0.388875	-0.534712
C20	C	1.814821	-0.597605	-0.517067
C21	C	1.807392	-0.698766	-0.525821
C22	C	1.943021	-0.871096	-0.368136
C23	C	1.936045	-0.966146	-0.376357
C24	C	1.786472	-0.983917	-0.550488
C25	C	1.793448	-0.888867	-0.542268
C26	C	1.871724	-0.832460	-0.451087
C27	C	1.878692	-0.737408	-0.442861
C28	C	1.729127	-0.755181	-0.616998
C29	C	1.722151	-0.850231	-0.625219
C30	C	2.161105	-0.341634	-0.469963
C31	C	2.301153	-0.333328	-0.458578
C32	C	1.856416	-0.377726	-0.825305
C33	C	1.866623	-0.384800	-0.965345
C34	C	1.850209	-0.123726	-0.476239
C35	C	1.857772	-0.022559	-0.467529
C36	C	1.808680	-0.344523	-0.169323
C37	C	1.798735	-0.337178	-0.029242
H38	H	1.312609	-0.442814	-0.608627
O39	O	2.019129	-0.816204	-0.279724
C40	C	2.109747	-0.759966	-0.340145
H41	H	2.073236	-0.753194	-0.437979
H42	H	2.201441	-0.791694	-0.349633
C43	C	2.179030	-0.673142	-0.141011
C44	C	2.134183	-0.664818	-0.261169
H45	H	2.194109	-0.614451	-0.092293
H46	H	2.117983	-0.711032	-0.100303
H47	H	2.255437	-0.699585	-0.148935
H48	H	2.057770	-0.638386	-0.253245
H49	H	2.195218	-0.626921	-0.301874
O50	O	1.954808	-0.682518	-0.354455
C51	C	2.045419	-0.626282	-0.414887
H52	H	2.008895	-0.619507	-0.512714
H53	H	2.137111	-0.658012	-0.424389
C54	C	2.114732	-0.539461	-0.215759
C55	C	2.069868	-0.531134	-0.335909
H56	H	2.129820	-0.480771	-0.167040
H57	H	2.053690	-0.577351	-0.175044
H58	H	2.191137	-0.565907	-0.223695
H59	H	1.993457	-0.504700	-0.327972
H60	H	2.130899	-0.493238	-0.376621
H61	H	1.994105	-0.997599	-0.308811
O62	O	1.720144	-0.281955	-0.966822
C63	C	1.756793	-0.191204	-0.988811
H64	H	1.812266	-0.191215	-1.080283
H65	H	1.818520	-0.153009	-0.906862
C66	C	1.570373	-0.143641	-0.887618
C67	C	1.638497	-0.143654	-0.999971
H68	H	1.497404	-0.114307	-0.894497
H69	H	1.545684	-0.204780	-0.872799
H70	H	1.621827	-0.111813	-0.819339
H71	H	1.587049	-0.175491	-1.068245
H72	H	1.663175	-0.082518	-1.014802
O73	O	1.363823	-0.269100	-0.370333
C74	C	1.430117	-0.312239	-0.287150
H75	H	1.447802	-0.382349	-0.335801
H76	H	1.371913	-0.320395	-0.198693
C77	C	1.535546	-0.167526	-0.190303
C78	C	1.557277	-0.253633	-0.250062
H79	H	1.613981	-0.131375	-0.167420
H80	H	1.490879	-0.138462	-0.246342
H81	H	1.487039	-0.174336	-0.116596
H82	H	1.605769	-0.246824	-0.323775
H83	H	1.601954	-0.282695	-0.194034
O84	O	1.646268	-0.904989	-0.713951
C85	C	1.684531	-0.886412	-0.835304
H86	H	1.787576	-0.854565	-0.831309
H87	H	1.623388	-0.836949	-0.868901
C88	C	1.543167	-1.015072	-0.932784
C89	C	1.669731	-0.975964	-0.927879
H90	H	1.534033	-1.070310	-0.989891
H91	H	1.517384	-1.027586	-0.851026
H92	H	1.492228	-0.973844	-0.960777
H93	H	1.720665	-1.017187	-0.899871
H94	H	1.695522	-0.963458	-1.009634
O95	O	1.660055	-0.717607	-0.697701
C96	C	1.741684	-0.662396	-0.768532
H97	H	1.839394	-0.685476	-0.770810
H98	H	1.748499	-0.588141	-0.722995
C99	C	1.569647	-0.642873	-0.901543
C100	C	1.689654	-0.671224	-0.904350
H101	H	1.537551	-0.648314	-0.985321
H102	H	1.514650	-0.680066	-0.853821
H103	H	1.575342	-0.580995	-0.863590
H104	H	1.683954	-0.733104	-0.942289
H105	H	1.744649	-0.634041	-0.952083
H106	H	1.722753	-1.029859	-0.624731
H107	H	1.932559	-0.430983	-1.017774
