data_functionalizedCrystal
_audit_creation_method	'MofGen! by Chris Wilmer'
_symmetry_space_group_name_H-M	'P1'
_symmetry_Int_Tables_number	1
_symmetry_cell_setting	triclinic
loop_
_symmetry_equiv_pos_as_xyz
  x,y,z
_cell_length_a	19.121063
_cell_length_b	12.759395
_cell_length_c	12.759387
_cell_angle_alpha	90.022274
_cell_angle_beta	92.403602
_cell_angle_gamma	87.530471
loop_
_atom_site_label
_atom_site_type_symbol
_atom_site_fract_x
_atom_site_fract_y
_atom_site_fract_z
Zn1	Zn	-0.279565	-1.588335	-0.611843
Zn2	Zn	-0.397033	-1.580690	-0.443637
Zn3	Zn	-0.279602	-1.412631	-0.436176
Zn4	Zn	-0.396981	-1.405094	-0.619268
O5	O	-0.338295	-1.496688	-0.527731
O6	O	-0.295154	-1.734342	-0.589545
O7	O	-0.381492	-1.558352	-0.295629
O8	O	-0.181313	-1.442292	-0.453249
O9	O	-0.381457	-1.728725	-0.465965
O10	O	-0.181286	-1.571381	-0.582310
O11	O	-0.295216	-1.434880	-0.290147
O12	O	-0.295166	-1.264611	-0.460449
O13	O	-0.381369	-1.429446	-0.765302
O14	O	-0.381404	-1.259073	-0.594965
O15	O	-0.295104	-1.564073	-0.759846
O16	O	-0.495310	-1.551043	-0.473165
O17	O	-0.495272	-1.422033	-0.602200
C18	C	-0.338284	-1.223721	-0.527704
C19	C	-0.338295	-1.106943	-0.527718
C20	C	-0.520775	-1.484919	-0.539320
C21	C	-0.598841	-1.479981	-0.544314
C22	C	-0.428240	-1.101206	-0.667582
C23	C	-0.473218	-1.043477	-0.737515
C24	C	-0.473225	-0.933755	-0.737525
C25	C	-0.428249	-0.881760	-0.667596
C26	C	-0.383271	-0.939490	-0.597663
C27	C	-0.383270	-1.049214	-0.597658
C28	C	-0.293324	-0.945227	-0.457806
C29	C	-0.293319	-1.054949	-0.457789
C30	C	-0.248347	-0.893232	-0.387877
C31	C	-0.203372	-0.950962	-0.317937
C32	C	-0.203368	-1.060690	-0.317929
C33	C	-0.248342	-1.112678	-0.387856
C34	C	-0.635513	-1.544882	-0.479534
C35	C	-0.708864	-1.540244	-0.484236
C36	C	-0.745541	-1.470699	-0.553714
C37	C	-0.708864	-1.405795	-0.618501
C38	C	-0.635515	-1.410439	-0.613803
C39	C	-0.967010	-1.453318	-0.571261
C40	C	-1.040365	-1.448676	-0.575951
C41	C	-1.040359	-1.583127	-0.441687
C42	C	-0.967008	-1.587760	-0.436991
C43	C	-0.930338	-1.522861	-0.501782
C44	C	-0.820518	-1.465954	-0.558519
C45	C	-0.855362	-1.527612	-0.496981
C46	C	-0.155103	-1.508530	-0.516119
C47	C	-0.077037	-1.513577	-0.511171
C48	C	-0.338226	-1.496771	-0.801760
C49	C	-0.338197	-1.496807	-0.918535
C50	C	-0.338304	-0.770720	-0.527751
C51	C	-0.338301	-0.887497	-0.527739
C52	C	-0.248375	-1.637003	-0.912875
C53	C	-0.203454	-1.707116	-0.964905
C54	C	-0.203428	-1.707143	-1.074625
C55	C	-0.248328	-1.637047	-1.132318
C56	C	-0.293249	-1.566934	-1.080288
C57	C	-0.293271	-1.566917	-0.970565
C58	C	-0.383066	-1.426735	-1.085948
C59	C	-0.383096	-1.426711	-0.976228
C60	C	-0.427965	-1.356640	-1.143640
C61	C	-0.472891	-1.286530	-1.091611
C62	C	-0.472915	-1.286507	-0.981884
C63	C	-0.428017	-1.356598	-0.924198
C64	C	-0.338313	-1.496668	-0.254765
C65	C	-0.338145	-1.496848	-0.137978
H66	H	-0.428244	-1.190547	-0.667573
N67	N	-0.519148	-1.096605	-0.808944
N68	N	-0.519137	-1.194571	-0.808932
H69	H	-0.551573	-1.232091	-0.859382
H70	H	-0.509846	-0.886751	-0.794476
N71	N	-0.428026	-1.356579	-0.812121
N72	N	-0.373243	-1.338164	-0.759685
H73	H	-0.373244	-1.338151	-0.680529
H74	H	-0.166897	-1.764184	-0.917919
H75	H	-0.605657	-1.357592	-0.666555
H76	H	-0.825497	-1.584240	-0.440416
N77	N	-0.428254	-0.769683	-0.667634
N78	N	-0.468410	-0.718152	-0.730088
H79	H	-0.468413	-0.638995	-0.730116
N80	N	-0.248356	-0.781155	-0.387906
N81	N	-0.288517	-0.729620	-0.450350
H82	H	-0.288524	-0.650464	-0.450369
H83	H	-1.070225	-1.635966	-0.388939
N84	N	-0.157433	-0.897836	-0.246530
N85	N	-0.157440	-0.799871	-0.246558
H86	H	-0.124995	-0.762345	-0.196126
N87	N	-0.929530	-1.658778	-0.366015
N88	N	-0.888524	-1.728294	-0.400384
H89	H	-0.862048	-1.778435	-0.350247
N90	N	-0.157411	-1.119641	-0.246496
N91	N	-0.117258	-1.073200	-0.184077
H92	H	-0.084798	-1.114830	-0.133627
N93	N	-0.598041	-1.615906	-0.408558
N94	N	-0.557169	-1.581561	-0.338958
H95	H	-0.530705	-1.631724	-0.288830
H96	H	-0.248344	-1.202019	-0.387853
H97	H	-0.738719	-1.593092	-0.431484
H98	H	-0.738733	-1.349174	-0.675076
N99	N	-1.077821	-1.377619	-0.646923
N100	N	-1.045072	-1.319674	-0.704761
H101	H	-1.071525	-1.269489	-0.754879
N102	N	-0.248283	-1.637073	-1.244392
N103	N	-0.208165	-1.699670	-1.290834
H104	H	-0.208132	-1.699687	-1.369988
H105	H	-0.937159	-1.400472	-0.624014
N106	N	-0.857998	-1.394910	-0.629467
N107	N	-0.898989	-1.325399	-0.595054
H108	H	-0.925464	-1.275226	-0.645161
H109	H	-0.427938	-1.356663	-1.232980
N110	N	-0.248399	-1.637000	-0.800799
N111	N	-0.208313	-1.699589	-0.749301
H112	H	-0.208328	-1.699590	-0.670146
H113	H	-0.166845	-1.764229	-1.116987
H114	H	-0.509440	-1.229459	-1.138592
N115	N	-0.518801	-1.214870	-0.928756
N116	N	-0.558878	-1.152293	-0.980284
H117	H	-0.591286	-1.101696	-0.942767
