data_functionalizedCrystal
_audit_creation_method	'MofGen! by Chris Wilmer'
_symmetry_space_group_name_H-M	'P1'
_symmetry_Int_Tables_number	1
_symmetry_cell_setting	triclinic
loop_
_symmetry_equiv_pos_as_xyz
  x,y,z
_cell_length_a	23.532407
_cell_length_b	12.837942
_cell_length_c	11.295483
_cell_angle_alpha	85.469583
_cell_angle_beta	94.074144
_cell_angle_gamma	88.838809
loop_
_atom_site_label
_atom_site_type_symbol
_atom_site_fract_x
_atom_site_fract_y
_atom_site_fract_z
O1	O	-0.765926	-0.118761	-0.098874
O2	O	-0.601108	-0.136956	-0.098909
O3	O	-0.679862	0.023007	-0.098885
O4	O	-0.687172	-0.278723	-0.098898
O5	O	-0.672943	0.008978	0.099164
O6	O	-0.594189	-0.150984	0.099140
O7	O	-0.759007	-0.132789	0.099175
Cu8	Cu	-0.675967	-0.143167	0.117241
Cu9	Cu	-0.684148	-0.126577	-0.116975
O10	O	-0.680253	-0.292751	0.099151
C11	C	-0.576406	-0.143506	0.000111
C12	C	-0.513110	-0.142112	0.000098
C13	C	-0.673933	0.054588	0.000138
C14	C	-0.666569	0.169589	0.000135
C15	C	-0.783709	-0.126238	0.000152
C16	C	-0.847006	-0.127632	0.000157
C17	C	-0.118935	-0.228040	0.000148
C18	C	-0.059460	-0.226746	0.000156
O19	O	-0.027284	-0.306402	0.000195
N20	N	-0.031377	-0.131648	0.000158
C21	C	-0.062772	-0.037838	0.000165
O22	O	-0.033424	0.043169	0.000168
C23	C	-0.122245	-0.039134	0.000166
C24	C	-0.150325	-0.134237	0.000152
C25	C	-0.147015	-0.323136	0.000135
C26	C	-0.206486	-0.324429	0.000126
C27	C	-0.237876	-0.230626	0.000129
C28	C	-0.209796	-0.135530	0.000142
C29	C	-0.153639	0.054674	0.000181
C30	C	-0.213116	0.053371	0.000183
C31	C	-0.241196	-0.041733	0.000169
C32	C	-0.300657	-0.043021	0.000136
N33	N	-0.328740	-0.138119	0.000134
C34	C	-0.297350	-0.231922	0.000130
C35	C	0.062126	-0.035125	0.000164
C36	C	0.121598	-0.033828	0.000155
C37	C	0.124906	-0.222737	0.000148
C38	C	0.065433	-0.224032	0.000149
C39	C	0.034043	-0.130223	0.000162
C40	C	-0.422243	-0.234630	0.000109
C41	C	-0.481719	-0.235915	0.000095
C42	C	-0.485021	-0.047007	0.000108
C43	C	-0.425551	-0.045721	0.000116
C44	C	-0.394162	-0.139542	0.000121
O45	O	-0.332870	0.036593	0.000101
O46	O	-0.326704	-0.312917	0.000142
C47	C	-0.686182	-0.324332	0.000125
C48	C	-0.693546	-0.439333	0.000121
N49	N	-0.670216	-0.154835	0.281975
C50	C	-0.755103	0.411460	0.000129
C51	C	-0.748186	0.519515	0.000125
C52	C	-0.645820	0.493756	0.000116
C53	C	-0.652737	0.385702	0.000119
C54	C	-0.707380	0.344557	0.000128
C55	C	-0.714296	0.236500	0.000140
C56	C	-0.611930	0.210745	0.000122
C57	C	-0.605013	0.318799	0.000118
N58	N	-0.689903	-0.114901	-0.281709
C59	C	-0.731295	-0.030851	0.531283
C60	C	-0.726953	-0.039676	0.655946
C61	C	-0.657190	-0.181304	0.655965
C62	C	-0.661531	-0.172479	0.531302
C63	C	-0.698585	-0.097251	0.468966
C64	C	-0.702929	-0.088432	0.344301
C65	C	-0.633163	-0.230055	0.344323
C66	C	-0.628822	-0.238879	0.468985
H67	H	-0.504579	-0.313363	0.000082
O68	O	-0.799660	0.591670	0.000134
H69	H	-0.785673	0.673722	0.000123
H70	H	-0.627017	-0.242546	0.706735
O71	O	-0.246971	0.154553	0.000205
H72	H	-0.276965	0.164207	-0.080512
O73	O	-0.560451	0.138588	0.000116
H74	H	-0.574439	0.056537	0.000114
H75	H	-0.761470	0.030396	0.480528
O76	O	-0.388398	-0.335825	0.000109
H77	H	-0.358413	-0.345490	0.080839
O78	O	-0.773232	0.192126	0.000137
H79	H	-0.776021	0.137807	0.080864
O80	O	-0.236768	-0.427007	0.000146
H81	H	-0.204940	-0.492009	0.000165
H82	H	-0.753588	0.014395	0.706681
H83	H	-0.598651	-0.300126	0.519753
H84	H	-0.606531	-0.284125	0.293570
H85	H	-0.601332	0.527277	0.000097
O86	O	-0.814036	0.367076	0.000133
H87	H	-0.834435	0.388282	0.080853
H88	H	-0.402687	0.031721	0.000110
H89	H	0.042574	-0.301474	0.000144
O90	O	-0.113162	-0.424317	0.000127
H91	H	-0.142689	-0.490649	0.000110
H92	H	0.150475	-0.299116	0.000151
H93	H	-0.560525	0.352315	0.000107
H94	H	0.144455	0.043616	0.000148
O95	O	-0.742883	-0.007288	0.277050
H96	H	-0.787141	-0.021745	0.300959
O97	O	0.028270	0.066061	0.000167
H98	H	0.036075	0.117312	-0.080558
O99	O	-0.123364	0.157254	0.000221
H100	H	-0.138394	0.208029	-0.080483
O101	O	-0.518886	0.054159	0.000130
H102	H	-0.548883	0.063807	-0.080583
