data_functionalizedCrystal
_audit_creation_method	'MofGen! by Chris Wilmer'
_symmetry_space_group_name_H-M	'P1'
_symmetry_Int_Tables_number	1
_symmetry_cell_setting	triclinic
loop_
_symmetry_equiv_pos_as_xyz
  x,y,z
_cell_length_a	19.077236
_cell_length_b	12.645330
_cell_length_c	19.076919
_cell_angle_alpha	92.274320
_cell_angle_beta	89.887323
_cell_angle_gamma	92.305532
loop_
_atom_site_label
_atom_site_type_symbol
_atom_site_fract_x
_atom_site_fract_y
_atom_site_fract_z
Zn1	Zn	1.058344	-0.384815	-0.440554
Zn2	Zn	1.558344	0.115185	0.059446
Zn3	Zn	1.063007	-0.554702	-0.323053
Zn4	Zn	1.563007	-0.054702	0.176947
Zn5	Zn	0.945559	-0.384260	-0.318334
Zn6	Zn	1.445559	0.115740	0.181666
Zn7	Zn	0.940828	-0.568845	-0.435791
Zn8	Zn	1.440828	-0.068845	0.064209
O9	O	1.001934	-0.473156	-0.379433
O10	O	1.501934	0.026844	0.120567
O11	O	1.157295	-0.401665	-0.428935
O12	O	1.657295	0.098335	0.071065
O13	O	1.051358	-0.525941	-0.224096
O14	O	1.551358	-0.025941	0.275904
O15	O	0.960549	-0.235985	-0.334565
O16	O	1.460549	0.264015	0.165435
O17	O	1.160721	-0.526480	-0.342608
O18	O	1.660721	-0.026480	0.157392
O19	O	1.043411	-0.236394	-0.424360
O20	O	1.543411	0.263606	0.075640
O21	O	0.965070	-0.400718	-0.220629
O22	O	1.465070	0.099282	0.279371
O23	O	0.846598	-0.414431	-0.329947
O24	O	1.346598	0.085569	0.170053
O25	O	0.952485	-0.550584	-0.534754
O26	O	1.452485	-0.050584	-0.034754
O27	O	0.843122	-0.550046	-0.416242
O28	O	1.343122	-0.050046	0.083758
O29	O	1.038823	-0.415379	-0.538253
O30	O	1.538823	0.084621	-0.038253
O31	O	1.046771	-0.704926	-0.337989
O32	O	1.546771	-0.204926	0.162011
O33	O	0.957007	-0.715317	-0.420818
O34	O	1.457007	-0.215317	0.079182
C35	C	0.819364	-0.483714	-0.372066
C36	C	1.319364	0.016286	0.127934
C37	C	0.741259	-0.488257	-0.368931
C38	C	1.241259	0.011743	0.131069
C39	C	0.702779	-0.425519	-0.412473
C40	C	1.202779	0.074481	0.087527
C41	C	0.629391	-0.429782	-0.409522
C42	C	1.129391	0.070218	0.090478
C43	C	0.594484	-0.496790	-0.363031
C44	C	1.094484	0.003210	0.136969
C45	C	0.632969	-0.559531	-0.319484
C46	C	1.132969	-0.059531	0.180516
C47	C	0.706356	-0.555261	-0.322433
C48	C	1.206356	-0.055261	0.177567
C49	C	0.375194	-0.516511	-0.349382
C50	C	0.875194	-0.016511	0.150618
C51	C	0.301802	-0.520779	-0.346439
C52	C	0.801802	-0.020779	0.153561
C53	C	0.298229	-0.391028	-0.436475
C54	C	0.798229	0.108972	0.063525
C55	C	0.371617	-0.386769	-0.439423
C56	C	0.871617	0.113231	0.060577
C57	C	0.410095	-0.449505	-0.395874
C58	C	0.910095	0.050495	0.104126
N59	N	0.519470	-0.501152	-0.360015
N60	N	1.019470	-0.001152	0.139985
N61	N	0.485108	-0.445137	-0.398887
N62	N	0.985108	0.054863	0.101113
C63	C	1.001900	-0.748586	-0.379415
C64	C	1.501900	-0.248586	0.120585
C65	C	1.001948	-0.866414	-0.379433
C66	C	1.501948	-0.366414	0.120567
C67	C	1.058336	-1.027396	-0.327212
C68	C	1.558336	-0.527396	0.172788
C69	C	1.058507	-0.904834	-0.327353
C70	C	1.558507	-0.404834	0.172647
C71	C	1.019051	-0.914301	-0.454310
C72	C	1.519051	-0.414301	0.045690
C73	C	1.019492	-1.036856	-0.454039
C74	C	1.519492	-0.536856	0.045961
C75	C	0.928407	-1.036854	-0.357507
C76	C	1.428407	-0.536854	0.142493
C77	C	0.928830	-0.914124	-0.355860
C78	C	1.428830	-0.414124	0.144140
C79	C	1.185218	-0.462557	-0.386829
C80	C	1.685218	0.037443	0.113171
C81	C	1.263322	-0.458041	-0.389981
C82	C	1.763322	0.041959	0.110019
C83	C	0.994606	-0.484621	-0.562713
C84	C	1.494606	0.015379	-0.062713
C85	C	0.991483	-0.489507	-0.640816
C86	C	1.491483	0.010493	-0.140816
C87	C	1.001987	-0.196649	-0.379467
C88	C	1.501987	0.303351	0.120533
C89	C	1.002010	-0.078819	-0.379482
C90	C	1.502010	0.421181	0.120518
C91	C	1.034966	-0.421411	-0.679331
C92	C	1.534966	0.078589	-0.179331
C93	C	1.032023	-0.425999	-0.752717
C94	C	1.532023	0.074001	-0.252717
C95	C	0.985601	-0.498688	-0.787586
C96	C	1.485601	0.001312	-0.287586
C97	C	0.942114	-0.566786	-0.749064
C98	C	1.442114	-0.066786	-0.249064
C99	C	0.945054	-0.562193	-0.675680
C100	C	1.445054	-0.062193	-0.175680
C101	C	0.971986	-0.519969	-1.006866
C102	C	1.471986	-0.019969	-0.506866
C103	C	0.969051	-0.524559	-1.080255
C104	C	1.469051	-0.024559	-0.580255
C105	C	1.058959	-0.383769	-1.083903
C106	C	1.558959	0.116231	-0.583903
C107	C	1.061898	-0.379187	-1.010517
C108	C	1.561898	0.120813	-0.510517
C109	C	1.018408	-0.447282	-0.972002
C110	C	1.518408	0.052718	-0.472002
N111	N	0.982594	-0.503381	-0.862597
N112	N	1.482594	-0.003381	-0.362597
N113	N	1.021413	-0.442583	-0.896991
N114	N	1.521413	0.057417	-0.396991
C115	C	1.009274	-0.461656	-0.196868
C116	C	1.509274	0.038344	0.303132
C117	C	1.012533	-0.456463	-0.118771
C118	C	1.512533	0.043537	0.381229
H119	H	0.400033	-0.332208	-0.477283
H120	H	0.900033	0.167792	0.022717
H121	H	1.067433	-0.370550	-0.784073
H122	H	1.567433	0.129450	-0.284073
Br123	Br	0.577171	-0.344634	-0.468618
Br124	Br	1.077171	0.155366	0.031382
Br125	Br	0.246004	-0.305890	-0.495575
Br126	Br	0.746004	0.194110	0.004425
H127	H	0.604543	-0.614085	-0.281627
H128	H	1.104543	-0.114085	0.218373
H129	H	0.912280	-1.065577	-0.303702
H130	H	1.412280	-0.565577	0.196298
H131	H	0.884841	-0.888289	-0.390899
H132	H	1.384841	-0.388289	0.109101
H133	H	1.099702	-0.319998	-0.982132
H134	H	1.599702	0.180002	-0.482132
Br135	Br	0.254427	-0.611756	-0.283360
Br136	Br	0.754427	-0.111756	0.216640
Br137	Br	0.952534	-0.873811	-0.521176
Br138	Br	1.452534	-0.373811	-0.021176
Br139	Br	0.758580	-0.640407	-0.263337
Br140	Br	1.258580	-0.140407	0.236663
Br141	Br	1.117976	-0.291358	-1.136176
Br142	Br	1.617976	0.208642	-0.636176
Br143	Br	0.907241	-0.861528	-0.263995
Br144	Br	1.407241	-0.361528	0.236005
H145	H	1.048152	-0.872097	-0.271926
H146	H	1.548152	-0.372097	0.228074
Br147	Br	0.953807	-1.094360	-0.521421
Br148	Br	1.453807	-0.594360	-0.021421
H149	H	1.048145	-1.054196	-0.271632
H150	H	1.548145	-0.554196	0.228368
Br151	Br	0.750145	-0.334583	-0.475576
Br152	Br	1.250145	0.165417	0.024424
H153	H	0.886476	-1.070699	-0.395541
H154	H	1.386476	-0.570699	0.104459
Br155	Br	0.427406	-0.601625	-0.290261
Br156	Br	0.927406	-0.101625	0.209739
H157	H	1.072137	-0.881428	-0.472820
H158	H	1.572137	-0.381428	0.027180
H159	H	1.112622	-1.055734	-0.341832
H160	H	1.612622	-0.555734	0.158168
H161	H	0.909639	-0.617634	-0.644321
H162	H	1.409639	-0.117634	-0.144321
Br163	Br	1.149470	-0.851807	-0.351977
Br164	Br	1.649470	-0.351807	0.148023
Br165	Br	0.906043	-0.623211	-1.127577
Br166	Br	1.406043	-0.123211	-0.627577
Br167	Br	1.109014	-1.080824	-0.484484
Br168	Br	1.609014	-0.580824	0.015516
Br169	Br	0.879107	-0.665431	-0.796385
Br170	Br	1.379107	-0.165431	-0.296385
Br171	Br	1.097976	-0.322765	-0.632017
Br172	Br	1.597976	0.177235	-0.132017
H173	H	0.936584	-0.575431	-0.975516
H174	H	1.436584	-0.075431	-0.475516
