data_functionalizedCrystal
_audit_creation_method	'MofGen! by Chris Wilmer'
_symmetry_space_group_name_H-M	'P1'
_symmetry_Int_Tables_number	1
_symmetry_cell_setting	triclinic
loop_
_symmetry_equiv_pos_as_xyz
  x,y,z
_cell_length_a	10.489716
_cell_length_b	17.666332
_cell_length_c	10.489741
_cell_angle_alpha	90.006142
_cell_angle_beta	84.534155
_cell_angle_gamma	90.008963
loop_
_atom_site_label
_atom_site_type_symbol
_atom_site_fract_x
_atom_site_fract_y
_atom_site_fract_z
O1	O	1.694081	0.062942	0.179821
O2	O	1.322881	0.062945	0.196747
O3	O	1.516927	0.062939	0.002685
O4	O	1.500034	0.062948	0.373882
O5	O	1.516893	-0.062958	0.002675
O6	O	1.322846	-0.062952	0.196736
O7	O	1.694046	-0.062955	0.179810
Cu8	Cu	1.508443	-0.074449	0.188272
Cu9	Cu	1.508484	0.074439	0.188285
O10	O	1.500000	-0.062949	0.373872
C11	C	1.275332	-0.000003	0.195470
C12	C	1.133701	-0.000002	0.191665
C13	C	1.036027	0.000002	0.310669
C14	C	0.958664	-0.062076	0.247780
C15	C	0.958704	0.062048	0.247762
C16	C	1.058203	-0.062132	0.128825
C17	C	1.058249	0.062048	0.128825
C18	C	0.980935	-0.000046	0.065848
N19	N	1.508424	-0.179168	0.188262
C20	C	1.594376	-0.218781	0.102375
C21	C	1.594383	-0.298028	0.102369
C22	C	1.508451	-0.337661	0.188272
C23	C	1.422482	-0.298039	0.274167
C24	C	1.422469	-0.218792	0.274162
N25	N	1.493250	-0.462076	0.300995
N26	N	1.493271	-0.537357	0.300996
C27	C	1.508485	-0.576425	0.188291
N28	N	1.523703	-0.537368	0.075581
N29	N	1.523689	-0.462081	0.075581
C30	C	1.508456	-0.423590	0.188287
C31	C	1.594450	-0.701966	0.102389
C32	C	1.594448	-0.781215	0.102381
C33	C	1.422553	-0.781224	0.274190
C34	C	1.422549	-0.701976	0.274187
C35	C	1.508504	-0.662352	0.188288
C36	C	1.741596	-0.000005	0.181087
C37	C	1.883227	-0.000001	0.184892
C38	C	1.515634	-0.000009	-0.044852
C39	C	1.511817	-0.000008	-0.186481
N40	N	1.508513	0.179158	0.188285
C41	C	1.388351	-0.000001	-0.254610
C42	C	1.446658	-0.062075	-0.346743
C43	C	1.446721	0.062049	-0.346707
C44	C	1.570175	-0.062133	-0.276748
C45	C	1.570221	0.062047	-0.276703
C46	C	1.628618	-0.000042	-0.368808
C47	C	1.501293	0.000001	0.421409
C48	C	1.505110	0.000004	0.563038
H49	H	0.915235	0.114523	0.298028
O50	O	1.339242	-0.663411	0.357691
C51	C	1.408272	-0.617572	0.437066
H52	H	1.507616	-0.605688	0.387221
H53	H	1.417811	-0.648107	0.531425
C54	C	1.214579	-0.556901	0.524864
C55	C	1.336591	-0.542300	0.463638
H56	H	1.170361	-0.510471	0.541260
H57	H	1.168070	-0.587786	0.471391
H58	H	1.222545	-0.582349	0.603489
H59	H	1.328622	-0.516862	0.385008
H60	H	1.383096	-0.511410	0.517098
H61	H	1.664362	-0.186521	0.032428
H62	H	1.730222	-0.000078	-0.418241
O63	O	1.338831	-0.336501	0.357484
C64	C	1.212371	-0.317146	0.335538
H65	H	1.210816	-0.295371	0.233400
H66	H	1.175538	-0.271147	0.405875
C67	C	1.128001	-0.414301	0.479968
C68	C	1.126089	-0.387562	0.354517
H69	H	1.074775	-0.457735	0.491680
H70	H	1.213198	-0.427339	0.494758
H71	H	1.097309	-0.375962	0.538568
H72	H	1.156795	-0.425897	0.295920
H73	H	1.040894	-0.374532	0.339717
H74	H	1.622356	-0.114671	-0.245925
H75	H	1.352475	-0.186539	0.344103
O76	O	1.110014	-0.124732	0.068815
C77	C	1.197533	-0.102582	-0.034836
H78	H	1.232619	-0.042676	-0.017851
H79	H	1.148234	-0.104079	-0.127079
C80	C	1.269241	-0.230865	-0.067260
C81	C	1.312343	-0.157290	-0.046393
H82	H	1.340059	-0.264612	-0.074394
H83	H	1.210275	-0.245789	0.002568
H84	H	1.228158	-0.232101	-0.144128
H85	H	1.353410	-0.156052	0.030481
H86	H	1.371319	-0.142367	-0.116209
H87	H	1.101759	0.114530	0.078631
H88	H	1.664436	-0.669703	0.032441
O89	O	1.632323	0.124731	-0.239691
C90	C	1.566936	0.190053	-0.274982
H91	H	1.462840	0.175182	-0.286198
H92	H	1.614321	0.212702	-0.369671
C93	C	1.699969	0.269166	-0.156698
C94	C	1.572114	0.250903	-0.170462
H95	H	1.703167	0.306703	-0.092229
H96	H	1.744026	0.225158	-0.132925
H97	H	1.739442	0.288036	-0.235612
H98	H	1.532648	0.232025	-0.091554
H99	H	1.528050	0.294909	-0.194219
H100	H	1.664437	-0.813468	0.032434
H101	H	1.060696	-0.000053	0.414185
H102	H	0.915167	-0.114556	0.298012
H103	H	0.956505	-0.000084	-0.037744
H104	H	1.352581	-0.813492	0.344130
O105	O	1.677998	-0.336401	0.018881
C106	C	1.753829	-0.284435	-0.056965
H107	H	1.755748	-0.227940	-0.004657
H108	H	1.711544	-0.276021	-0.152126
C109	C	1.888837	-0.384739	-0.146171
C110	C	1.891202	-0.315352	-0.081921
H111	H	1.973573	-0.403811	-0.161571
H112	H	1.837746	-0.419750	-0.095076
H113	H	1.853593	-0.377717	-0.225465
H114	H	1.926430	-0.322376	-0.002622
H115	H	1.942302	-0.280342	-0.133003
H116	H	1.394479	0.114533	-0.377662
H117	H	1.286838	-0.000063	-0.204950
O118	O	1.384530	-0.124736	-0.383839
C119	C	1.468277	-0.168007	-0.468007
H120	H	1.571579	-0.154138	-0.451552
H121	H	1.451380	-0.154083	-0.571175
C122	C	1.316161	-0.269850	-0.463022
C123	C	1.443038	-0.252821	-0.442805
H124	H	1.300590	-0.322167	-0.447482
H125	H	1.259736	-0.240697	-0.406321
H126	H	1.302096	-0.258241	-0.548996
H127	H	1.457097	-0.264421	-0.356829
H128	H	1.499465	-0.281978	-0.499492
