data_functionalizedCrystal
_audit_creation_method	'MofGen! by Chris Wilmer'
_symmetry_space_group_name_H-M	'P1'
_symmetry_Int_Tables_number	1
_symmetry_cell_setting	triclinic
loop_
_symmetry_equiv_pos_as_xyz
  x,y,z
_cell_length_a	15.944551
_cell_length_b	10.723024
_cell_length_c	9.798715
_cell_angle_alpha	90.003391
_cell_angle_beta	89.995900
_cell_angle_gamma	96.016696
loop_
_atom_site_label
_atom_site_type_symbol
_atom_site_fract_x
_atom_site_fract_y
_atom_site_fract_z
O1	O	0.117808	-1.655699	-0.113485
O2	O	0.129085	-1.292404	-0.113490
O3	O	0.001228	-1.483972	-0.113475
O4	O	0.245664	-1.464131	-0.113500
O5	O	0.001228	-1.483958	0.113507
O6	O	0.129084	-1.292390	0.113492
O7	O	0.117808	-1.655685	0.113497
Zn8	Zn	0.123446	-1.474035	0.149533
Zn9	Zn	0.123446	-1.474054	-0.149526
O10	O	0.245664	-1.464116	0.113482
C11	C	0.128264	-1.245908	0.000000
C12	C	0.125809	-1.107384	-0.000001
C13	C	-0.030070	-1.483141	0.000016
C14	C	-0.123331	-1.480672	0.000017
C15	C	0.118629	-1.702181	0.000003
C16	C	0.121084	-1.840704	-0.000004
C17	C	-0.338901	-1.356026	-0.000004
C18	C	-0.399587	-1.413901	0.111913
C19	C	-0.294082	-1.476205	0.000006
C20	C	-0.399570	-1.413943	-0.111874
C21	C	-0.459020	-1.471880	-0.000010
C22	C	-0.353540	-1.534112	0.112015
C23	C	-0.353517	-1.534137	-0.111872
C24	C	-0.414184	-1.592099	0.000072
C25	C	-0.199066	-1.478692	0.000016
C26	C	-0.554035	-1.469402	-0.000011
C27	C	0.276963	-1.464947	-0.000012
C28	C	0.370223	-1.467417	-0.000022
N29	N	0.123445	-1.474031	0.353632
C30	C	0.197350	-1.031498	-0.000009
C31	C	0.194814	-0.888327	-0.000011
N32	N	0.123441	-1.474067	-0.353626
C33	C	0.069525	-1.554469	0.421415
C34	C	0.069522	-1.554489	0.578578
H35	H	-0.306164	-1.256273	0.000106
H36	H	0.023362	-1.623359	0.636869
O37	O	-0.423874	-1.353059	0.224687
C38	C	-0.385166	-1.228652	0.224309
H39	H	-0.367085	-1.199699	0.115401
H40	H	-0.430988	-1.163547	0.266584
H41	H	-0.326127	-1.222111	0.290635
O42	O	0.178635	-1.392028	0.576915
C43	C	0.261867	-1.412617	0.611749
H44	H	0.262726	-1.512519	0.651098
H45	H	0.303897	-1.398507	0.517719
H46	H	0.286281	-1.343475	0.694596
O47	O	-0.329205	-1.594610	0.224978
C48	C	-0.240898	-1.596184	0.223634
H49	H	-0.211160	-1.516087	0.157306
H50	H	-0.215516	-1.584379	0.332143
H51	H	-0.224611	-1.689358	0.180369
O52	O	-0.453031	-1.711224	0.000384
C53	C	-0.429540	-1.774102	0.118518
H54	H	-0.408045	-1.702459	0.200616
H55	H	-0.485862	-1.838487	0.157579
H56	H	-0.375720	-1.832205	0.092886
O57	O	0.178402	-1.391836	0.423346
C58	C	0.133050	-1.314708	0.505992
H59	H	0.067539	-1.364166	0.527251
H60	H	0.167953	-1.295209	0.606531
H61	H	0.126986	-1.222382	0.451026
H62	H	-0.333095	-1.584930	-0.206492
O63	O	0.014489	-1.636806	0.352033
C64	C	0.028682	-1.760437	0.386835
H65	H	0.061002	-1.760479	0.490603
H66	H	-0.034171	-1.821662	0.391612
H67	H	0.070689	-1.799140	0.306434
H68	H	-0.419938	-1.363103	-0.206497
H69	H	0.260477	-1.072523	-0.000008
H70	H	0.256060	-0.823120	-0.000024
H71	H	0.059835	-0.905903	-0.000006
O72	O	0.050443	-1.058603	-0.000178
C73	C	0.004489	-1.099349	-0.117748
H74	H	0.027815	-1.189682	-0.156942
H75	H	-0.065363	-1.117269	-0.091304
H76	H	0.013852	-1.024047	-0.200066
