data_functionalizedCrystal
_audit_creation_method	'MofGen! by Chris Wilmer'
_symmetry_space_group_name_H-M	'P1'
_symmetry_Int_Tables_number	1
_symmetry_cell_setting	triclinic
loop_
_symmetry_equiv_pos_as_xyz
  x,y,z
_cell_length_a	12.784890
_cell_length_b	17.019294
_cell_length_c	11.892095
_cell_angle_alpha	90.016651
_cell_angle_beta	86.513306
_cell_angle_gamma	78.262590
loop_
_atom_site_label
_atom_site_type_symbol
_atom_site_fract_x
_atom_site_fract_y
_atom_site_fract_z
O1	O	1.417109	-0.000569	-0.093913
O2	O	1.917109	0.499431	0.406087
O3	O	1.107839	0.033026	-0.097193
O4	O	1.607839	0.533026	0.402807
O5	O	1.270299	-0.098541	-0.084375
O6	O	1.770299	0.401459	0.415625
O7	O	1.254649	0.130999	-0.106730
O8	O	1.754649	0.630999	0.393270
O9	O	1.256753	-0.087587	0.102565
O10	O	1.756753	0.412413	0.602565
O11	O	1.094294	0.043981	0.089748
O12	O	1.594294	0.543981	0.589748
O13	O	1.403563	0.010385	0.093027
O14	O	1.903563	0.510385	0.593027
Zn15	Zn	1.246778	0.028922	0.121068
Zn16	Zn	1.746778	0.528922	0.621068
Zn17	Zn	1.264625	0.014489	-0.125234
Zn18	Zn	1.764625	0.514489	0.374766
O19	O	1.241103	0.141953	0.080210
O20	O	1.741103	0.641953	0.580210
C21	C	1.061479	0.040689	-0.003936
C22	C	1.561479	0.540689	0.496064
C23	C	0.943521	0.047190	-0.004573
C24	C	1.443521	0.547190	0.495427
C25	C	0.764995	0.128671	-0.012510
C26	C	1.264995	0.628671	0.487490
C27	C	0.875826	0.122567	-0.011915
C28	C	1.375826	0.622567	0.488085
C29	C	0.900378	-0.022089	0.002173
C30	C	1.400378	0.477911	0.502173
C31	C	0.789547	-0.015986	0.001578
C32	C	1.289547	0.484014	0.501578
C33	C	0.721859	0.059397	-0.005761
C34	C	1.221859	0.559397	0.494239
C35	C	0.611025	0.065500	-0.006348
C36	C	1.111025	0.565500	0.493652
C37	C	0.635579	-0.079156	0.007732
C38	C	1.135579	0.420844	0.507732
C39	C	0.746410	-0.085259	0.008326
C40	C	1.246410	0.414741	0.508326
C41	C	1.262666	-0.122242	0.011934
C42	C	1.762666	0.377758	0.511934
C43	C	1.260089	-0.209182	0.020394
C44	C	1.760089	0.290818	0.520394
C45	C	1.266265	-0.255993	-0.077532
C46	C	1.766265	0.244007	0.422468
C47	C	1.263837	-0.337681	-0.069580
C48	C	1.763837	0.162319	0.430420
C49	C	1.255240	-0.372557	0.036299
C50	C	1.755240	0.127443	0.536299
C51	C	1.249061	-0.325739	0.134233
C52	C	1.749061	0.174261	0.634233
C53	C	1.251482	-0.244051	0.126279
C54	C	1.751482	0.255949	0.626279
C55	C	1.247555	-0.618901	0.065411
C56	C	1.747555	-0.118901	0.565411
C57	C	1.245138	-0.700596	0.073357
C58	C	1.745138	-0.200596	0.573357
C59	C	1.259912	-0.712532	-0.130456
C60	C	1.759912	-0.212532	0.369544
C61	C	1.262338	-0.630843	-0.138400
C62	C	1.762338	-0.130843	0.361600
C63	C	1.256153	-0.584031	-0.040467
C64	C	1.756153	-0.084031	0.459533
C65	C	1.252762	-0.456056	0.044430
C66	C	1.752762	0.043944	0.544430
C67	C	1.258625	-0.500533	-0.048599
C68	C	1.758625	-0.000533	0.451401
C69	C	1.449923	0.002723	-0.000232
C70	C	1.949923	0.502723	0.499768
C71	C	1.567882	-0.003779	0.000397
C72	C	2.067882	0.496221	0.500397
C73	C	1.248737	0.165654	-0.016102
C74	C	1.748737	0.665654	0.483898
C75	C	1.251314	0.252593	-0.024569
C76	C	1.751314	0.752593	0.475431
N77	N	1.234605	0.038771	0.289163
N78	N	1.734605	0.538771	0.789163
N79	N	1.276805	0.004634	-0.293328
N80	N	1.776805	0.504634	0.206672
C81	C	1.361506	-0.063946	0.535817
C82	C	1.861506	0.436054	1.035817
C83	C	1.353005	-0.057056	0.653488
C84	C	1.853005	0.442944	1.153488
C85	C	1.209099	0.059436	0.642178
C86	C	1.709099	0.559436	1.142178
C87	C	1.217600	0.052547	0.524507
C88	C	1.717600	0.552547	1.024507
C89	C	1.293807	-0.009146	0.471331
C90	C	1.793807	0.490854	0.971331
C91	C	1.302312	-0.016031	0.353658
C92	C	1.802312	0.483969	0.853658
C93	C	1.158401	0.100457	0.342350
C94	C	1.658401	0.600457	0.842350
C95	C	1.149900	0.107347	0.460021
C96	C	1.649900	0.607347	0.960021
H97	H	1.268870	-0.375793	-0.149322
H98	H	1.768870	0.124207	0.350678
C99	C	1.083928	0.160743	0.271418
C100	C	1.583928	0.660743	0.771418
H101	H	1.037333	0.198473	0.319944
H102	H	1.537333	0.698473	0.819944
H103	H	1.042861	0.132842	0.227972
H104	H	1.542861	0.632842	0.727972
H105	H	1.125655	0.188119	0.222587
H106	H	1.625655	0.688119	0.722587
H107	H	1.269340	-0.602453	-0.224619
H108	H	1.769340	-0.102453	0.275381
C109	C	1.445331	-0.131797	0.477314
C110	C	1.945331	0.368203	0.977314
H111	H	1.440702	-0.128048	0.397998
H112	H	1.940702	0.371952	0.897998
H113	H	1.432120	-0.182242	0.501620
H114	H	1.932120	0.317758	1.001620
H115	H	1.514895	-0.126950	0.496221
H116	H	2.014895	0.373050	0.996221
C117	C	0.536570	0.148416	-0.014431
C118	C	1.036570	0.648416	0.485569
H119	H	0.578140	0.188797	-0.018378
H120	H	1.078140	0.688797	0.481622
H121	H	0.488098	0.157630	0.050231
H122	H	0.988098	0.657630	0.550231
H123	H	0.497553	0.149977	-0.080156
H124	H	0.997553	0.649977	0.419844
C125	C	1.266701	-0.764023	-0.238173
C126	C	1.766701	-0.264023	0.261827
H127	H	1.264019	-0.817667	-0.218277
H128	H	1.764019	-0.317667	0.281723
H129	H	1.332016	-0.763295	-0.280357
H130	H	1.832016	-0.263295	0.219643
H131	H	1.208233	-0.742877	-0.282335
H132	H	1.708233	-0.242877	0.217665
C133	C	0.690536	0.211585	-0.020583
C134	C	1.190536	0.711585	0.479417
H135	H	0.732101	0.251969	-0.024522
H136	H	1.232101	0.751969	0.475478
H137	H	0.642065	0.220792	0.044079
H138	H	1.142065	0.720792	0.544079
H139	H	0.651519	0.213151	-0.086309
H140	H	1.151519	0.713151	0.413691
H141	H	1.364366	-0.066262	0.310363
H142	H	1.864366	0.433738	0.810363
H143	H	1.147046	0.109660	0.685489
H144	H	1.647046	0.609660	1.185489
H145	H	0.910943	0.178977	-0.017408
H146	H	1.410943	0.678977	0.482592
C147	C	1.240771	-0.567422	0.173134
C148	C	1.740771	-0.067422	0.673134
H149	H	1.235319	-0.599897	0.237328
H150	H	1.735319	-0.099897	0.737328
H151	H	1.179523	-0.525099	0.173284
H152	H	1.679523	-0.025099	0.673284
H153	H	1.303305	-0.545519	0.175259
H154	H	1.803305	-0.045519	0.675259
H155	H	1.265616	-0.472132	-0.134806
H156	H	1.765616	0.027868	0.365194
H157	H	1.238133	-0.728988	0.159581
H158	H	1.738133	-0.228988	0.659581
C159	C	0.974846	-0.105000	0.010244
C160	C	1.474846	0.395000	0.510244
H161	H	1.047029	-0.098710	0.009636
H162	H	1.547029	0.401290	0.509636
H163	H	0.966449	-0.137541	-0.052146
H164	H	1.466449	0.362459	0.447854
H165	H	0.957009	-0.129896	0.078242
H166	H	1.457009	0.370104	0.578242
C167	C	0.820871	-0.168172	0.016406
C168	C	1.320871	0.331828	0.516406
H169	H	0.893057	-0.161887	0.015801
H170	H	1.393057	0.338113	0.515801
H171	H	0.812474	-0.200715	-0.045982
H172	H	1.312474	0.299285	0.454018
H173	H	0.803027	-0.193063	0.084406
H174	H	1.303027	0.306937	0.584406
C175	C	1.066084	0.175205	0.518520
C176	C	1.566084	0.675205	1.018520
H177	H	1.070721	0.171464	0.597836
H178	H	1.570721	0.671464	1.097836
H179	H	0.996520	0.170375	0.499611
H180	H	1.496520	0.670375	0.999611
H181	H	1.079320	0.225647	0.494212
H182	H	1.579320	0.725647	0.994212
C183	C	0.588129	-0.155360	0.015145
C184	C	1.088129	0.344640	0.515145
H185	H	0.512427	-0.140932	0.013732
H186	H	1.012427	0.359068	0.513732
H187	H	0.606615	-0.182263	0.083323
H188	H	1.106615	0.317737	0.583323
H189	H	0.616059	-0.189894	-0.047067
H190	H	1.116059	0.310106	0.452933
H191	H	1.242055	-0.354141	0.220442
H192	H	1.742055	0.145859	0.720442
C193	C	1.427472	-0.117333	0.724425
C194	C	1.927472	0.382667	1.224425
H195	H	1.411492	-0.104400	0.802122
H196	H	1.911492	0.395600	1.302122
H197	H	1.499822	-0.114759	0.704765
H198	H	1.999822	0.385241	1.204765
H199	H	1.417027	-0.170035	0.710162
H200	H	1.917027	0.329965	1.210162
C201	C	1.275720	-0.217636	-0.194001
C202	C	1.775720	0.282364	0.305999
H203	H	1.279040	-0.257216	-0.251182
H204	H	1.779040	0.242784	0.248818
H205	H	1.338858	-0.196224	-0.200348
H206	H	1.838858	0.303776	0.299652
H207	H	1.215075	-0.175812	-0.202334
H208	H	1.715075	0.324188	0.297666
H209	H	1.246438	-0.205936	0.206021
H210	H	1.746438	0.294064	0.706021
H211	H	1.245766	-0.484462	0.130638
H212	H	1.745766	0.015538	0.630638
