data_functionalizedCrystal
_audit_creation_method	'MofGen! by Chris Wilmer'
_symmetry_space_group_name_H-M	'P1'
_symmetry_Int_Tables_number	1
_symmetry_cell_setting	triclinic
loop_
_symmetry_equiv_pos_as_xyz
  x,y,z
_cell_length_a	9.065218
_cell_length_b	15.944551
_cell_length_c	8.140239
_cell_angle_alpha	89.995530
_cell_angle_beta	89.997198
_cell_angle_gamma	84.257312
loop_
_atom_site_label
_atom_site_type_symbol
_atom_site_fract_x
_atom_site_fract_y
_atom_site_fract_z
O1	O	1.957519	0.123161	-0.136622
O2	O	1.527998	0.133263	-0.136625
O3	O	1.754488	0.006026	-0.136608
O4	O	1.731029	0.250398	-0.136638
O5	O	1.754475	0.006024	0.136619
O6	O	1.527986	0.133261	0.136603
O7	O	1.957507	0.123159	0.136605
Zn8	Zn	1.742744	0.128210	0.179985
Zn9	Zn	1.742761	0.128212	-0.180004
O10	O	1.731017	0.250396	0.136589
C11	C	1.473028	0.132291	-0.000011
C12	C	1.309253	0.129388	-0.000012
C13	C	1.753508	-0.025276	0.000005
C14	C	1.750588	-0.118544	0.000006
C15	C	1.603221	-0.334518	-0.000017
C16	C	1.671647	-0.395017	0.134701
C17	C	1.745306	-0.289310	-0.000006
C18	C	1.671693	-0.394999	-0.134680
C19	C	1.740194	-0.454262	-0.000026
C20	C	1.813772	-0.348581	0.134823
C21	C	1.813798	-0.348557	-0.134679
C22	C	1.882327	-0.409038	0.000072
C23	C	1.748247	-0.194286	0.000006
C24	C	1.737264	-0.549285	-0.000026
C25	C	2.012477	0.124131	-0.000012
C26	C	2.176252	0.127034	-0.000022
C27	C	1.731997	0.281698	-0.000028
C28	C	1.734917	0.374966	-0.000040
N29	N	1.742744	0.128208	0.425667
N30	N	1.742773	0.128207	-0.425687
H31	H	1.485283	-0.302103	0.000117
C32	C	1.591238	-0.422379	0.286422
C33	C	1.445181	-0.384335	0.285786
C34	C	1.371050	-0.409526	0.425507
H35	H	1.640577	-0.405729	0.382206
H36	H	1.590668	-0.481930	0.285831
H37	H	1.445758	-0.324797	0.286393
H38	H	1.395802	-0.400981	0.190034
H39	H	1.370480	-0.469077	0.424916
H40	H	1.420401	-0.392874	0.521280
H41	H	1.271939	-0.383723	0.425087
C42	C	2.039703	-0.452085	-0.000207
C43	C	2.061957	-0.501843	-0.141460
C44	C	2.206924	-0.541490	-0.141792
H45	H	2.054656	-0.486695	0.094505
H46	H	2.107999	-0.410609	0.000644
H47	H	1.993682	-0.543313	-0.142296
H48	H	2.047035	-0.467253	-0.236195
H49	H	2.275219	-0.500015	-0.140941
H50	H	2.221864	-0.576096	-0.047074
H51	H	2.222046	-0.575249	-0.237637
C52	C	1.893636	-0.320965	-0.286598
C53	C	1.797195	-0.264968	-0.378125
C54	C	1.870682	-0.239521	-0.518085
H55	H	1.924956	-0.368890	-0.351732
H56	H	1.977578	-0.293746	-0.254311
H57	H	1.713279	-0.292187	-0.410414
H58	H	1.765869	-0.217030	-0.313039
H59	H	1.954624	-0.212302	-0.485798
H60	H	1.902000	-0.287451	-0.583205
H61	H	1.805262	-0.201519	-0.580195
H62	H	1.873813	-0.328137	0.248841
H63	H	1.611583	-0.415531	-0.248581
