data_functionalizedCrystal
_audit_creation_method	'MofGen! by Chris Wilmer'
_symmetry_space_group_name_H-M	'P1'
_symmetry_Int_Tables_number	1
_symmetry_cell_setting	triclinic
loop_
_symmetry_equiv_pos_as_xyz
  x,y,z
_cell_length_a	19.805407
_cell_length_b	18.050590
_cell_length_c	19.805399
_cell_angle_alpha	90.027426
_cell_angle_beta	90.020409
_cell_angle_gamma	90.020493
loop_
_atom_site_label
_atom_site_type_symbol
_atom_site_fract_x
_atom_site_fract_y
_atom_site_fract_z
Zn1	Zn	1.034773	-0.295638	0.382736
Zn2	Zn	1.368106	0.037695	0.716069
Zn3	Zn	1.701439	0.371028	1.049402
Zn4	Zn	1.034703	-0.419830	0.269548
Zn5	Zn	1.368036	-0.086497	0.602881
Zn6	Zn	1.701370	0.246836	0.936214
Zn7	Zn	0.921587	-0.295663	0.269558
Zn8	Zn	1.254921	0.037670	0.602892
Zn9	Zn	1.588254	0.371004	0.936225
Zn10	Zn	0.921566	-0.419795	0.382693
Zn11	Zn	1.254900	-0.086462	0.716026
Zn12	Zn	1.588233	0.246872	1.049359
O13	O	0.978157	-0.357732	0.326134
O14	O	1.311491	-0.024398	0.659467
O15	O	1.644824	0.308935	0.992800
O16	O	1.129480	-0.312117	0.367734
O17	O	1.462813	0.021216	0.701068
O18	O	1.796147	0.354550	1.034401
O19	O	1.019678	-0.403384	0.174832
O20	O	1.353011	-0.070051	0.508166
O21	O	1.686344	0.263282	0.841499
O22	O	0.936639	-0.191735	0.284594
O23	O	1.269973	0.141598	0.617927
O24	O	1.603306	0.474932	0.951261
O25	O	1.129429	-0.403360	0.284576
O26	O	1.462762	-0.070027	0.617909
O27	O	1.796095	0.263306	0.951242
O28	O	1.019796	-0.191717	0.367745
O29	O	1.353130	0.141616	0.701078
O30	O	1.686463	0.474950	1.034411
O31	O	0.936572	-0.312159	0.174840
O32	O	1.269905	0.021174	0.508174
O33	O	1.603239	0.354508	0.841507
O34	O	0.826868	-0.312125	0.284553
O35	O	1.160201	0.021208	0.617886
O36	O	1.493535	0.354542	0.951219
O37	O	0.936604	-0.403300	0.477415
O38	O	1.269937	-0.069967	0.810748
O39	O	1.603270	0.263366	1.144082
O40	O	0.826853	-0.403324	0.367672
O41	O	1.160186	-0.069991	0.701005
O42	O	1.493519	0.263342	1.034338
O43	O	1.019776	-0.312083	0.477446
O44	O	1.353109	0.021251	0.810780
O45	O	1.686443	0.354584	1.144113
O46	O	1.019657	-0.523750	0.284534
O47	O	1.352991	-0.190417	0.617867
O48	O	1.686324	0.142916	0.951201
O49	O	0.936536	-0.523724	0.367661
O50	O	1.269870	-0.190391	0.700995
O51	O	1.603203	0.142942	1.034328
C52	C	0.802301	-0.357724	0.326109
C53	C	1.135635	-0.024391	0.659442
C54	C	1.468968	0.308943	0.992776
C55	C	0.727069	-0.357739	0.326115
C56	C	1.060403	-0.024405	0.659448
C57	C	1.393736	0.308928	0.992781
C58	C	0.265308	-0.310310	0.369527
C59	C	0.598642	0.023023	0.702860
C60	C	0.931975	0.356357	1.036193
C61	C	0.335997	-0.310311	0.369522
C62	C	0.669330	0.023022	0.702855
C63	C	1.002664	0.356355	1.036189
C64	C	0.371308	-0.357743	0.326155
C65	C	0.704641	-0.024410	0.659489
C66	C	1.037974	0.308924	0.992822
C67	C	0.335926	-0.405181	0.282796
C68	C	0.669260	-0.071848	0.616129
C69	C	1.002593	0.261485	0.949462
C70	C	0.265239	-0.405183	0.282805
C71	C	0.598572	-0.071850	0.616138
C72	C	0.931906	0.261483	0.949471
C73	C	0.621000	-0.405176	0.282760
C74	C	0.954333	-0.071842	0.616093
C75	C	1.287666	0.261491	0.949427
C76	C	0.691692	-0.405169	0.282753
C77	C	1.025025	-0.071835	0.616086
C78	C	1.358358	0.261498	0.949420
C79	C	0.691757	-0.310304	0.369477
C80	C	1.025091	0.023030	0.702811
C81	C	1.358424	0.356363	1.036144
C82	C	0.621070	-0.310306	0.369486
C83	C	0.954403	0.023028	0.702819
C84	C	1.287737	0.356361	1.036153
C85	C	0.585695	-0.357747	0.326129
C86	C	0.919028	-0.024413	0.659463
C87	C	1.252362	0.308920	0.992796
C88	C	0.509047	-0.357746	0.326136
C89	C	0.842380	-0.024412	0.659469
C90	C	1.175713	0.308921	0.992803
C91	C	0.447955	-0.357741	0.326145
C92	C	0.781288	-0.024407	0.659478
C93	C	1.114621	0.308926	0.992811
C94	C	0.978105	-0.550684	0.326107
C95	C	1.311439	-0.217350	0.659440
C96	C	1.644772	0.115983	0.992773
C97	C	0.978145	-0.633230	0.326118
C98	C	1.311478	-0.299896	0.659451
C99	C	1.644812	0.033437	0.992784
C100	C	1.023440	-0.832667	0.280976
C101	C	1.356774	-0.499334	0.614309
C102	C	1.690107	-0.166001	0.947643
C103	C	1.039973	-0.882000	0.342751
C104	C	1.373306	-0.548667	0.676085
C105	C	1.706640	-0.215334	1.009418
C106	C	0.978183	-0.784360	0.326145
C107	C	1.311517	-0.451027	0.659478
C108	C	1.644850	-0.117693	0.992811
C109	C	0.961720	-0.882108	0.264397
C110	C	1.295053	-0.548775	0.597731
C111	C	1.628386	-0.215442	0.931064
C112	C	0.978222	-0.930345	0.326165
C113	C	1.311555	-0.597012	0.659499
C114	C	1.644888	-0.263678	0.992832
C115	C	0.994748	-0.832606	0.387952
C116	C	1.328081	-0.499272	0.721286
C117	C	1.661414	-0.165939	1.054619
C118	C	0.916466	-0.832709	0.309557
C119	C	1.249799	-0.499376	0.642890
C120	C	1.583132	-0.166043	0.976223
C121	C	0.932975	-0.882020	0.371374
C122	C	1.266308	-0.548687	0.704708
C123	C	1.599642	-0.215354	1.038041
C124	C	0.978163	-0.700262	0.326132
C125	C	1.311496	-0.366928	0.659465
C126	C	1.644830	-0.033595	0.992799
C127	C	0.978242	-1.014441	0.326185
C128	C	1.311575	-0.681108	0.659518
C129	C	1.644909	-0.347775	0.992852
C130	C	1.154700	-0.357740	0.326158
C131	C	1.488033	-0.024407	0.659492
C132	C	1.821367	0.308927	0.992825
C133	C	1.229932	-0.357743	0.326169
C134	C	1.563265	-0.024410	0.659502
C135	C	1.896599	0.308923	0.992836
C136	C	0.978195	-0.357685	0.502676
C137	C	1.311529	-0.024352	0.836010
C138	C	1.644862	0.308982	1.169343
C139	C	0.978211	-0.357665	0.577908
C140	C	1.311545	-0.024332	0.911242
C141	C	1.644878	0.309002	1.244575
C142	C	0.978228	-0.164026	0.326175
C143	C	1.311561	0.169307	0.659509
C144	C	1.644895	0.502641	0.992842
C145	C	0.978258	-0.081480	0.326193
C146	C	1.311591	0.251853	0.659527
C147	C	1.644925	0.585186	0.992860
C148	C	0.978158	-0.357725	0.150278
C149	C	1.311492	-0.024391	0.483611
C150	C	1.644825	0.308942	0.816944
C151	C	0.978273	-0.357535	0.075046
C152	C	1.311607	-0.024202	0.408379
C153	C	1.644940	0.309131	0.741713
C154	C	1.021520	-0.310166	0.613270
C155	C	1.354854	0.023168	0.946603
C156	C	1.688187	0.356501	1.279937
C157	C	1.021527	-0.310144	0.683958
C158	C	1.354860	0.023189	1.017292
C159	C	1.688194	0.356523	1.350625
C160	C	0.978228	-0.357626	0.719284
C161	C	1.311562	-0.024293	1.052617
C162	C	1.644895	0.309041	1.385951
C163	C	0.934915	-0.405128	0.683917
C164	C	1.268248	-0.071794	1.017251
C165	C	1.601581	0.261539	1.350584
C166	C	0.934905	-0.405145	0.613230
C167	C	1.268238	-0.071811	0.946564
C168	C	1.601572	0.261522	1.279897
C169	C	0.934953	-0.405058	0.968991
C170	C	1.268286	-0.071725	1.302324
C171	C	1.601620	0.261608	1.635658
C172	C	0.934968	-0.405039	1.039683
C173	C	1.268301	-0.071706	1.373016
C174	C	1.601634	0.261628	1.706350
C175	C	1.021575	-0.310058	1.039719
C176	C	1.354909	0.023276	1.373052
C177	C	1.688242	0.356609	1.706386
C178	C	1.021565	-0.310075	0.969032
C179	C	1.354899	0.023259	1.302365
C180	C	1.688232	0.356592	1.635699
C181	C	0.978250	-0.357573	0.933672
C182	C	1.311583	-0.024240	1.267005
C183	C	1.644916	0.309094	1.600338
C184	C	0.978242	-0.357595	0.857023
C185	C	1.311575	-0.024262	1.190356
C186	C	1.644908	0.309072	1.523690
C187	C	0.978239	-0.357609	0.795931
C188	C	1.311572	-0.024275	1.129265
C189	C	1.644906	0.309058	1.462598
H190	H	0.592324	-0.271679	0.404797
H191	H	0.925657	0.061654	0.738130
H192	H	1.258990	0.394987	1.071464
O193	O	0.374156	-0.259141	0.416276
O194	O	0.707489	0.074192	0.749609
O195	O	1.040822	0.407526	1.082943
H196	H	0.337726	-0.226149	0.446423
H197	H	0.671060	0.107184	0.779757
H198	H	1.004393	0.440517	1.113090
H199	H	1.056843	-0.271379	1.068518
H200	H	1.390176	0.061954	1.401851
H201	H	1.723509	0.395287	1.735185
H202	H	0.864271	-0.811040	0.295495
H203	H	1.197604	-0.477707	0.628828
H204	H	1.530938	-0.144373	0.962161
O205	O	1.109129	-0.910684	0.361355
O206	O	1.442462	-0.577351	0.694689
O207	O	1.775796	-0.244018	1.028022
H208	H	1.105479	-0.944469	0.408024
H209	H	1.438813	-0.611136	0.741357
H210	H	1.772146	-0.277802	1.074690
O211	O	1.074142	-0.803963	0.230421
O212	O	1.407475	-0.470630	0.563754
O213	O	1.740809	-0.137296	0.897087
H214	H	1.073341	-0.742479	0.230513
H215	H	1.406674	-0.409146	0.563847
H216	H	1.740007	-0.075812	0.897180
H217	H	0.236563	-0.271681	0.404837
H218	H	0.569897	0.061652	0.738170
H219	H	0.903230	0.394986	1.071503
O220	O	0.888257	-0.456250	1.077783
O221	O	1.221590	-0.122917	1.411116
O222	O	1.554924	0.210417	1.744450
H223	H	0.895548	-0.448261	1.132877
H224	H	1.228881	-0.114928	1.466210
H225	H	1.562214	0.218406	1.799543
O226	O	0.374013	-0.456336	0.236020
O227	O	0.707346	-0.123003	0.569353
O228	O	1.040680	0.210330	0.902687
H229	H	0.360442	-0.514641	0.247538
H230	H	0.693775	-0.181308	0.580871
H231	H	1.027108	0.152026	0.914204
H232	H	0.899693	-0.443745	0.940209
H233	H	1.233026	-0.110412	1.273542
H234	H	1.566359	0.222921	1.606876
O235	O	0.729910	-0.259138	0.416249
O236	O	1.063244	0.074195	0.749583
O237	O	1.396577	0.407529	1.082916
H238	H	0.784996	-0.267108	0.408966
H239	H	1.118329	0.066225	0.742299
H240	H	1.451663	0.399559	1.075633
H241	H	0.592206	-0.443803	0.247454
H242	H	0.925539	-0.110470	0.580788
H243	H	1.258872	0.222864	0.914121
O244	O	0.888211	-0.456337	0.722019
O245	O	1.221544	-0.123004	1.055352
O246	O	1.554878	0.210330	1.388686
H247	H	0.858089	-0.489364	0.685552
H248	H	1.191422	-0.156030	1.018885
H249	H	1.524755	0.177303	1.352219
O250	O	1.013303	-0.803936	0.457154
O251	O	1.346636	-0.470603	0.790488
O252	O	1.679969	-0.137270	1.123821
H253	H	1.013168	-0.742449	0.456595
H254	H	1.346502	-0.409116	0.789928
H255	H	1.679835	-0.075783	1.123261
O256	O	1.068267	-0.258860	0.930934
O257	O	1.401601	0.074473	1.264267
O258	O	1.734934	0.407806	1.597600
H259	H	1.102690	-0.292111	0.898733
H260	H	1.436024	0.041222	1.232067
H261	H	1.769357	0.374556	1.565400
H262	H	0.899632	-0.443816	0.584440
H263	H	1.232965	-0.110483	0.917773
H264	H	1.566298	0.222851	1.251106
H265	H	0.720440	-0.443796	0.247438
H266	H	1.053773	-0.110463	0.580771
H267	H	1.387106	0.222870	0.914104
H268	H	0.236436	-0.443810	0.247500
H269	H	0.569770	-0.110477	0.580833
H270	H	0.903103	0.222857	0.914166
H271	H	0.894719	-0.903554	0.409625
H272	H	1.228053	-0.570220	0.742958
H273	H	1.561386	-0.236887	1.076291
O274	O	0.943242	-0.910907	0.195219
O275	O	1.276575	-0.577574	0.528552
O276	O	1.609909	-0.244240	0.861885
H277	H	0.980867	-0.891131	0.157814
H278	H	1.314201	-0.557798	0.491148
H279	H	1.647534	-0.224464	0.824481
H280	H	1.056781	-0.271502	0.584513
H281	H	1.390115	0.061831	0.917846
H282	H	1.723448	0.395164	1.251180
O283	O	1.068242	-0.258918	0.722101
O284	O	1.401576	0.074416	1.055435
O285	O	1.734909	0.407749	1.388768
H286	H	1.098356	-0.225912	0.685662
H287	H	1.431689	0.107422	1.018995
H288	H	1.765023	0.440755	1.352328
