data_functionalizedCrystal
_audit_creation_method	'MofGen! by Chris Wilmer'
_symmetry_space_group_name_H-M	'P1'
_symmetry_Int_Tables_number	1
_symmetry_cell_setting	triclinic
loop_
_symmetry_equiv_pos_as_xyz
  x,y,z
_cell_length_a	14.908979
_cell_length_b	14.908178
_cell_length_c	18.215399
_cell_angle_alpha	86.674478
_cell_angle_beta	93.275137
_cell_angle_gamma	96.795332
loop_
_atom_site_label
_atom_site_type_symbol
_atom_site_fract_x
_atom_site_fract_y
_atom_site_fract_z
Zn1	Zn	1.363013	-0.280463	-0.338819
Zn2	Zn	1.354183	-0.431853	-0.209038
Zn3	Zn	1.211646	-0.289234	-0.222470
Zn4	Zn	1.202892	-0.440541	-0.338767
O5	O	1.282933	-0.360523	-0.277274
O6	O	1.488505	-0.293238	-0.316003
O7	O	1.335244	-0.412969	-0.107835
O8	O	1.239084	-0.161391	-0.243547
O9	O	1.482018	-0.404464	-0.220654
O10	O	1.350292	-0.154947	-0.329028
O11	O	1.230522	-0.308188	-0.117704
O12	O	1.083821	-0.316613	-0.243497
O13	O	1.224164	-0.419271	-0.441759
O14	O	1.077390	-0.427777	-0.328940
O15	O	1.341804	-0.301662	-0.441796
O16	O	1.326755	-0.559685	-0.220604
O17	O	1.215602	-0.566068	-0.315915
C18	C	1.047763	-0.374090	-0.287671
C19	C	0.947155	-0.379916	-0.292136
C20	C	0.802023	-0.446092	-0.342825
C21	C	0.896553	-0.440619	-0.338637
C22	C	0.903221	-0.324684	-0.249819
C23	C	0.808690	-0.330158	-0.254007
C24	C	0.758095	-0.390863	-0.300513
C25	C	0.663563	-0.396331	-0.304705
C26	C	0.670232	-0.280402	-0.215883
C27	C	0.764762	-0.274928	-0.211695
C28	C	1.269295	-0.595722	-0.266811
C29	C	1.263543	-0.696336	-0.262357
C30	C	1.368449	-0.878545	-0.343102
C31	C	1.363048	-0.973081	-0.338918
C32	C	1.247336	-0.979945	-0.249811
C33	C	1.252737	-0.885410	-0.253994
C34	C	1.313297	-0.834712	-0.300640
C35	C	1.318702	-0.740175	-0.304819
C36	C	1.202986	-0.747041	-0.215716
C37	C	1.197585	-0.841577	-0.211533
C38	C	1.519022	-0.346903	-0.266836
C39	C	1.619629	-0.341099	-0.262388
C40	C	1.282992	-0.360457	-0.469227
C41	C	1.283017	-0.360429	-0.551026
C42	C	1.296649	-0.124404	-0.287792
C43	C	1.302494	-0.023784	-0.292274
C44	C	1.344296	-0.299135	-0.739242
C45	C	1.344309	-0.299108	-0.816102
C46	C	1.221810	-0.421580	-0.816051
C47	C	1.221794	-0.421602	-0.739193
C48	C	1.283042	-0.360380	-0.700791
C49	C	1.283071	-0.360331	-0.854508
C50	C	1.283083	-0.360303	-0.937842
C51	C	1.283029	-0.360408	-0.617451
C52	C	1.282931	-0.360520	-0.086068
C53	C	1.283096	-0.360282	-0.004273
H54	H	0.622370	-0.445757	-0.342575
H55	H	1.368014	-0.698898	-0.342799
H56	H	0.944431	-0.275268	-0.211950
H57	H	0.760827	-0.495513	-0.380699
H58	H	0.932315	-0.485593	-0.373092
C59	C	1.423725	-1.021293	-0.385625
N60	N	1.469430	-1.057606	-0.420805
C61	C	0.820428	-0.208147	-0.160549
N62	N	0.862356	-0.157841	-0.122029
H63	H	1.148277	-0.882867	-0.173557
H64	H	0.634456	-0.235426	-0.181432
H65	H	1.417765	-0.837266	-0.381077
C66	C	1.180834	-1.035722	-0.198413
N67	N	1.130784	-1.077731	-0.159665
C68	C	1.411695	-0.231735	-0.858395
N69	N	1.462453	-0.180987	-0.890250
H70	H	1.394166	-0.249282	-0.707977
H71	H	1.158080	-0.711342	-0.181139
H72	H	1.171946	-0.471426	-0.847328
H73	H	1.171908	-0.471475	-0.707885
