data_functionalizedCrystal
_audit_creation_method	'MofGen! by Chris Wilmer'
_symmetry_space_group_name_H-M	'P1'
_symmetry_Int_Tables_number	1
_symmetry_cell_setting	triclinic
loop_
_symmetry_equiv_pos_as_xyz
  x,y,z
_cell_length_a	19.288864
_cell_length_b	11.792241
_cell_length_c	18.366186
_cell_angle_alpha	89.993644
_cell_angle_beta	89.977106
_cell_angle_gamma	83.664831
loop_
_atom_site_label
_atom_site_type_symbol
_atom_site_fract_x
_atom_site_fract_y
_atom_site_fract_z
O1	O	0.922157	0.141582	-0.060784
O2	O	1.422157	0.641582	0.439216
O3	O	0.720005	0.160681	-0.060734
O4	O	1.220005	0.660681	0.439266
O5	O	0.825987	-0.014113	-0.060755
O6	O	1.325987	0.485887	0.439245
O7	O	0.816175	0.316377	-0.060763
O8	O	1.316175	0.816377	0.439237
O9	O	0.825968	-0.014122	0.060345
O10	O	1.325968	0.485878	0.560345
O11	O	0.719987	0.160673	0.060365
O12	O	1.219987	0.660673	0.560365
O13	O	0.922139	0.141574	0.060316
O14	O	1.422139	0.641574	0.560316
Zn15	Zn	0.821060	0.151122	0.079568
Zn16	Zn	1.321060	0.651122	0.579568
Zn17	Zn	0.821084	0.151133	-0.079986
Zn18	Zn	1.321084	0.651133	0.420014
O19	O	0.816157	0.316368	0.060337
O20	O	1.316157	0.816368	0.560337
C21	C	0.694116	0.160063	-0.000178
C22	C	1.194116	0.660063	0.499822
C23	C	0.617002	0.158218	-0.000159
C24	C	1.117002	0.658218	0.499841
C25	C	0.572888	0.260779	-0.000173
C26	C	1.072888	0.760779	0.499827
C27	C	0.500431	0.259046	-0.000181
C28	C	1.000431	0.759046	0.499819
C29	C	0.472091	0.154746	-0.000189
C30	C	0.972091	0.654746	0.499811
C31	C	0.516215	0.052171	-0.000171
C32	C	1.016215	0.552171	0.499829
C33	C	0.588670	0.053907	-0.000156
C34	C	1.088670	0.553907	0.499844
C35	C	0.363370	0.072757	-0.042638
C36	C	0.863370	0.572757	0.457362
C37	C	0.290915	0.071025	-0.042658
C38	C	0.790915	0.571025	0.457342
C39	C	0.248615	0.149387	-0.000233
C40	C	0.748615	0.649387	0.499767
C41	C	0.278777	0.229500	0.042202
C42	C	0.778777	0.729500	0.542202
C43	C	0.351232	0.231236	0.042217
C44	C	0.851232	0.731236	0.542217
C45	C	0.393526	0.152852	-0.000205
C46	C	0.893526	0.652852	0.499795
C47	C	0.125935	0.250076	-0.000255
C48	C	0.625935	0.750076	0.499745
C49	C	0.053477	0.248339	-0.000258
C50	C	0.553477	0.748339	0.499742
C51	C	0.069262	0.041460	-0.000256
C52	C	0.569262	0.541460	0.499744
C53	C	0.141718	0.043201	-0.000246
C54	C	0.641718	0.543201	0.499754
C55	C	0.170050	0.147512	-0.000248
C56	C	0.670050	0.647512	0.499752
C57	C	0.825361	-0.056399	-0.000205
C58	C	1.325361	0.443601	0.499795
C59	C	0.823517	-0.182385	-0.000206
C60	C	1.323517	0.317615	0.499794
C61	C	0.820125	-0.413045	-0.000217
C62	C	1.320125	0.086955	0.499783
C63	C	0.822009	-0.284689	-0.000211
C64	C	1.322009	0.215311	0.499789
C65	C	0.948028	0.142192	-0.000242
C66	C	1.448028	0.642192	0.499758
C67	C	1.025142	0.144037	-0.000266
C68	C	1.525142	0.644037	0.499734
C69	C	0.816783	0.358654	-0.000214
C70	C	1.316783	0.858654	0.499786
C71	C	0.818627	0.484640	-0.000219
C72	C	1.318627	0.984640	0.499781
N73	N	0.821049	0.151113	0.188459
N74	N	1.321049	0.651113	0.688459
N75	N	0.821101	0.151133	-0.188877
N76	N	1.321101	0.651133	0.311123
C77	C	0.867993	0.073752	0.226550
C78	C	1.367993	0.573752	0.726550
C79	C	0.867997	0.073747	0.302778
C80	C	1.367997	0.573747	0.802778
C81	C	0.821064	0.151123	0.340912
C82	C	1.321064	0.651123	0.840912
C83	C	0.774111	0.228490	0.302811
C84	C	1.274111	0.728490	0.802811
C85	C	0.774103	0.228485	0.226585
C86	C	1.274103	0.728485	0.726585
C87	C	0.812353	0.254534	0.461671
C88	C	1.312353	0.754534	0.961671
C89	C	0.812366	0.254540	0.537896
C90	C	1.312366	0.754540	1.037896
C91	C	0.821084	0.151137	0.576019
C92	C	1.321084	0.651137	1.076019
C93	C	0.829804	0.047723	0.537908
C94	C	1.329804	0.547723	1.037908
C95	C	0.829796	0.047719	0.461682
C96	C	1.329796	0.547719	0.961682
C97	C	0.821067	0.151136	0.423566
C98	C	1.321067	0.651136	0.923566
C99	C	0.868036	0.073764	0.696765
C100	C	1.368036	0.573764	1.196765
C101	C	0.868035	0.073757	0.772994
C102	C	1.368035	0.573757	1.272994
C103	C	0.774152	0.228510	0.773026
C104	C	1.274152	0.728510	1.273026
C105	C	0.774149	0.228507	0.696799
C106	C	1.274149	0.728507	1.196799
C107	C	0.821095	0.151135	0.658673
C108	C	1.321095	0.651135	1.158673
H109	H	0.595951	0.345717	-0.000176
H110	H	1.095951	0.845717	0.499824
H111	H	0.266364	0.005797	-0.077214
H112	H	0.766364	0.505797	0.422786
H113	H	0.906226	0.010748	0.333797
H114	H	1.406226	0.510748	0.833797
H115	H	0.906217	0.010749	0.195510
H116	H	1.406217	0.510749	0.695510
H117	H	0.397806	0.008943	-0.077190
H118	H	0.897806	0.508943	0.422810
H119	H	0.624588	-0.029614	-0.000145
H120	H	1.124588	0.470386	0.499855
H121	H	0.464507	0.342567	-0.000190
H122	H	0.964507	0.842567	0.499810
H123	H	0.735896	0.291488	0.333864
H124	H	1.235896	0.791488	0.833864
H125	H	0.375787	0.296463	0.076772
H126	H	0.875787	0.796463	0.576772
H127	H	0.906261	0.010755	0.804009
H128	H	1.406261	0.510755	1.304009
H129	H	0.836903	-0.036477	0.568946
H130	H	1.336903	0.463523	1.068946
H131	H	0.493136	-0.032752	-0.000188
H132	H	0.993136	0.467248	0.499812
H133	H	0.836895	-0.036484	0.430655
H134	H	1.336895	0.463516	0.930655
H135	H	0.906259	0.010760	0.665722
H136	H	1.406259	0.510760	1.165722
H137	H	0.177637	-0.040316	-0.000238
H138	H	0.677637	0.459684	0.499762
H139	H	0.805270	0.338745	0.568920
H140	H	1.305270	0.838745	1.068920
H141	H	0.244337	0.293309	0.076749
H142	H	0.744337	0.793309	0.576749
H143	H	0.735935	0.291506	0.804074
H144	H	1.235935	0.791506	1.304074
H145	H	0.149004	0.335012	-0.000246
H146	H	0.649004	0.835012	0.499754
H147	H	0.735925	0.291506	0.665783
H148	H	1.235925	0.791506	1.165783
H149	H	0.735875	0.291483	0.195571
H150	H	1.235875	0.791483	0.695571
H151	H	0.805242	0.338743	0.430637
H152	H	1.305242	0.838743	0.930637
H153	H	0.017560	0.331860	-0.000265
H154	H	0.517560	0.831860	0.499735
H155	H	0.046188	-0.043463	-0.000309
H156	H	0.546188	0.456537	0.499691
