data_functionalizedCrystal
_audit_creation_method	'MofGen! by Chris Wilmer'
_symmetry_space_group_name_H-M	'P1'
_symmetry_Int_Tables_number	1
_symmetry_cell_setting	triclinic
loop_
_symmetry_equiv_pos_as_xyz
  x,y,z
_cell_length_a	11.169409
_cell_length_b	17.077404
_cell_length_c	17.077402
_cell_angle_alpha	90.020853
_cell_angle_beta	89.962008
_cell_angle_gamma	89.978063
loop_
_atom_site_label
_atom_site_type_symbol
_atom_site_fract_x
_atom_site_fract_y
_atom_site_fract_z
Zn1	Zn	-0.678563	1.200082	-0.312487
Zn2	Zn	-0.178563	1.700082	0.187513
Zn3	Zn	-0.477860	1.199981	-0.443781
Zn4	Zn	0.022140	1.699981	0.056219
Zn5	Zn	-0.477890	1.068806	-0.312528
Zn6	Zn	0.022110	1.568806	0.187472
Zn7	Zn	-0.678498	1.068782	-0.443710
Zn8	Zn	-0.178498	1.568782	0.056290
O9	O	-0.578203	1.134413	-0.378127
O10	O	-0.078203	1.634413	0.121873
O11	O	-0.651954	1.309916	-0.329916
O12	O	-0.151954	1.809916	0.170084
O13	O	-0.309914	1.182548	-0.426417
O14	O	0.190086	1.682548	0.073583
O15	O	-0.504550	1.086272	-0.202676
O16	O	-0.004550	1.586272	0.297324
O17	O	-0.504499	1.309842	-0.426377
O18	O	-0.004499	1.809842	0.073623
O19	O	-0.651983	1.182721	-0.202646
O20	O	-0.151983	1.682721	0.297354
O21	O	-0.309936	1.086174	-0.329986
O22	O	0.190064	1.586174	0.170014
O23	O	-0.504486	0.958956	-0.329918
O24	O	-0.004486	1.458956	0.170082
O25	O	-0.846456	1.086232	-0.426256
O26	O	-0.346456	1.586232	0.073744
O27	O	-0.651872	0.958938	-0.426296
O28	O	-0.151872	1.458938	0.073704
O29	O	-0.846504	1.182697	-0.329847
O30	O	-0.346504	1.682697	0.170153
O31	O	-0.504435	1.182525	-0.553618
O32	O	-0.004435	1.682525	-0.053618
O33	O	-0.651843	1.086134	-0.553566
O34	O	-0.151843	1.586134	-0.053566
C35	C	-0.578176	0.930465	-0.378104
C36	C	-0.078176	1.430465	0.121896
C37	C	-0.578193	0.843215	-0.378114
C38	C	-0.078193	1.343215	0.121886
C39	C	-0.655090	0.802265	-0.327976
C40	C	-0.155090	1.302265	0.172024
C41	C	-0.655096	0.720284	-0.327981
C42	C	-0.155096	1.220284	0.172019
C43	C	-0.578209	0.679256	-0.378128
C44	C	-0.078209	1.179256	0.121872
C45	C	-0.501303	0.720212	-0.428268
C46	C	-0.001303	1.220212	0.071732
C47	C	-0.501293	0.802191	-0.428259
C48	C	-0.001293	1.302191	0.071741
C49	C	-0.501333	0.549342	-0.428286
C50	C	-0.001333	1.049342	0.071714
C51	C	-0.501345	0.467358	-0.428297
C52	C	-0.001345	0.967358	0.071703
C53	C	-0.655136	0.467435	-0.328008
C54	C	-0.155136	0.967435	0.171992
C55	C	-0.655125	0.549414	-0.327999
C56	C	-0.155125	1.049414	0.172001
C57	C	-0.578221	0.590365	-0.378140
C58	C	-0.078221	1.090365	0.121860
C59	C	-0.891245	1.134473	-0.378039
C60	C	-0.391245	1.634473	0.121961
C61	C	-1.024646	1.134499	-0.378002
C62	C	-0.524646	1.634499	0.121998
C63	C	-0.266378	1.134398	-0.378157
C64	C	0.233622	1.634398	0.121843
C65	C	-0.132979	1.134524	-0.377973
C66	C	0.367021	1.634524	0.122027
C67	C	-0.578155	1.134337	-0.582074
C68	C	-0.078155	1.634337	-0.082074
C69	C	-0.578175	1.134377	-0.669324
C70	C	-0.078175	1.634377	-0.169324
C71	C	-0.578231	1.339157	-0.378149
C72	C	-0.078231	1.839157	0.121851
C73	C	-0.578242	1.426407	-0.378159
C74	C	-0.078242	1.926407	0.121841
C75	C	-0.501502	1.184619	-0.710315
C76	C	-0.001502	1.684619	-0.210315
C77	C	-0.501532	1.184657	-0.792296
C78	C	-0.001532	1.684657	-0.292296
C79	C	-0.578231	1.134449	-0.833284
C80	C	-0.078231	1.634449	-0.333284
C81	C	-0.654912	1.084204	-0.792287
C82	C	-0.154912	1.584204	-0.292287
C83	C	-0.654886	1.084170	-0.710308
C84	C	-0.154886	1.584170	-0.210308
C85	C	-0.654957	1.084277	-0.963157
C86	C	-0.154957	1.584277	-0.463157
C87	C	-0.654982	1.084310	-1.045141
C88	C	-0.154982	1.584310	-0.545141
C89	C	-0.501604	1.184764	-1.045145
C90	C	-0.001604	1.684764	-0.545145
C91	C	-0.501578	1.184730	-0.963166
C92	C	-0.001578	1.684730	-0.463166
C93	C	-0.578258	1.134484	-0.922175
C94	C	-0.078258	1.634484	-0.422175
C95	C	-0.578277	1.134510	-0.173382
C96	C	-0.078277	1.634510	0.326618
C97	C	-0.578309	1.134552	-0.086132
C98	C	-0.078309	1.634552	0.413868
H99	H	-0.438695	0.686801	-0.469096
H100	H	0.061305	1.186801	0.030904
N101	N	-0.738046	0.676130	-0.273899
N102	N	-0.238046	1.176130	0.226101
H103	H	-0.793584	0.642123	-0.305840
H104	H	-0.293584	1.142123	0.194160
H105	H	-0.689299	0.642160	-0.237492
H106	H	-0.189299	1.142160	0.262508
H107	H	-0.438674	0.835532	-0.469086
H108	H	0.061326	1.335532	0.030914
H109	H	-0.717322	1.043259	-0.676934
H110	H	-0.217322	1.543259	-0.176934
H111	H	-0.717740	0.582817	-0.287169
H112	H	-0.217740	1.082817	0.212831
N113	N	-0.418862	1.238885	-0.918954
N114	N	0.081138	1.738885	-0.418954
H115	H	-0.333094	1.226734	-0.933275
H116	H	0.166906	1.726734	-0.433275
H117	H	-0.437693	1.294947	-0.933185
H118	H	0.062307	1.794947	-0.433185
H119	H	-0.439172	1.225678	-1.078524
H120	H	0.060828	1.725678	-0.578524
H121	H	-0.717703	0.835664	-0.287142
H122	H	-0.217703	1.335664	0.212858
N123	N	-0.418836	1.238847	-0.836509
N124	N	0.081164	1.738847	-0.336509
H125	H	-0.370239	1.270644	-0.798103
H126	H	0.129761	1.770644	-0.298103
H127	H	-0.363266	1.206924	-0.870580
H128	H	0.136734	1.706924	-0.370580
H129	H	-0.438738	0.433955	-0.469132
H130	H	0.061262	0.933955	0.030868
H131	H	-0.439040	1.225501	-0.676948
H132	H	0.060960	1.725501	-0.176948
H133	H	-0.717752	0.434089	-0.287180
H134	H	-0.217752	0.934089	0.212820
N135	N	-0.418383	0.593513	-0.482362
N136	N	0.081617	1.093513	0.017638
H137	H	-0.369679	0.555084	-0.514134
H138	H	0.130321	1.055084	-0.014134
H139	H	-0.467134	0.627533	-0.518720
H140	H	0.032866	1.127533	-0.018720
N141	N	-0.737707	1.030161	-1.089353
N142	N	-0.237707	1.530161	-0.589353
H143	H	-0.786288	0.998330	-1.050947
H144	H	-0.286288	1.498330	-0.550947
H145	H	-0.793292	1.062116	-1.123311
H146	H	-0.293292	1.562116	-0.623311
H147	H	-0.717403	1.043364	-0.929785
H148	H	-0.217403	1.543364	-0.429785
H149	H	-0.717366	1.043327	-0.825666
H150	H	-0.217366	1.543327	-0.325666
