data_functionalizedCrystal
_audit_creation_method	'MofGen! by Chris Wilmer'
_symmetry_space_group_name_H-M	'P1'
_symmetry_Int_Tables_number	1
_symmetry_cell_setting	triclinic
loop_
_symmetry_equiv_pos_as_xyz
  x,y,z
_cell_length_a	17.639617
_cell_length_b	17.637651
_cell_length_c	17.640968
_cell_angle_alpha	70.334811
_cell_angle_beta	70.333968
_cell_angle_gamma	109.613464
loop_
_atom_site_label
_atom_site_type_symbol
_atom_site_fract_x
_atom_site_fract_y
_atom_site_fract_z
Zn1	Zn	1.383906	0.116517	-0.750807
Zn2	Zn	1.309151	-0.068152	-0.566109
Zn3	Zn	1.199281	0.041863	-0.566137
Zn4	Zn	1.199262	-0.068067	-0.676014
O5	O	1.272900	0.005540	-0.639767
O6	O	1.497244	0.123228	-0.757597
O7	O	1.263299	-0.084838	-0.442832
O8	O	1.255065	0.175057	-0.621947
O9	O	1.442322	-0.012448	-0.621900
O10	O	1.390708	0.229905	-0.757623
O11	O	1.182579	-0.004010	-0.442852
O12	O	1.076024	-0.003926	-0.549422
O13	O	1.255032	-0.012302	-0.809216
O14	O	1.076010	-0.084691	-0.630148
O15	O	1.390689	0.123311	-0.864166
O16	O	1.263280	-0.191432	-0.549375
O17	O	1.182546	-0.191369	-0.630122
C18	C	1.044058	-0.052401	-0.581672
C19	C	0.946159	-0.077204	-0.556835
C20	C	0.767107	0.194044	-0.828677
C21	C	0.675105	0.170711	-0.805315
C22	C	0.617943	0.029577	-0.663899
C23	C	0.709941	0.052896	-0.687251
C24	C	0.784517	0.135131	-0.769641
C25	C	0.727352	-0.006017	-0.628215
C26	C	0.819343	0.017303	-0.651564
C27	C	0.893923	0.099536	-0.733948
C28	C	0.876508	0.158451	-0.792990
C29	C	0.652775	-0.088248	-0.545823
C30	C	0.670185	-0.147161	-0.486787
C31	C	0.762177	-0.123844	-0.510138
C32	C	0.836757	-0.041612	-0.592523
C33	C	0.779592	-0.182760	-0.451097
C34	C	0.871583	-0.159440	-0.474445
C35	C	0.928748	-0.018292	-0.615871
C36	C	1.214828	-0.223357	-0.581655
C37	C	1.190072	-0.321253	-0.556844
C38	C	1.461607	-0.500127	-0.828674
C39	C	1.438314	-0.592126	-0.805338
C40	C	1.297116	-0.649355	-0.663968
C41	C	1.320400	-0.557360	-0.687290
C42	C	1.402646	-0.482752	-0.769644
C43	C	1.261439	-0.539984	-0.628260
C44	C	1.284719	-0.447996	-0.651583
C45	C	1.366960	-0.373384	-0.733935
C46	C	1.425926	-0.390764	-0.792967
C47	C	1.179190	-0.614594	-0.545909
C48	C	1.120230	-0.597218	-0.486880
C49	C	1.143512	-0.505229	-0.510199
C50	C	1.225753	-0.430616	-0.592551
C51	C	1.084546	-0.487849	-0.451167
C52	C	1.107826	-0.395861	-0.474489
C53	C	1.249033	-0.338629	-0.615873
C54	C	1.502635	0.063707	-0.698088
C55	C	1.600535	0.088495	-0.722941
C56	C	1.331197	0.063841	-0.869550
C57	C	1.356040	0.088686	-0.967470
C58	C	1.331228	0.235343	-0.698131
C59	C	1.356084	0.333271	-0.723003
C60	C	1.084631	-0.182635	-1.146474
C61	C	1.107996	-0.159274	-1.238493
C62	C	1.249243	-0.018072	-1.295697
C63	C	1.225888	-0.041419	-1.203682
C64	C	1.143581	-0.123702	-1.129077
C65	C	1.284838	0.017514	-1.186285
C66	C	1.261486	-0.005834	-1.094277
C67	C	1.179185	-0.088115	-1.019667
C68	C	1.120229	-0.147050	-1.037069
C69	C	1.367148	0.099793	-1.260891
C70	C	1.426098	0.158726	-1.243494
C71	C	1.402743	0.135382	-1.151485
C72	C	1.320442	0.053101	-1.076875
C73	C	1.461699	0.194317	-1.134083
C74	C	1.438347	0.170969	-1.042076
C75	C	1.297090	0.029753	-0.984868
C76	C	1.214896	-0.052457	-0.410906
C77	C	1.190287	-0.077010	-0.313093
H78	H	0.609454	-0.214115	-0.419703
H79	H	1.486350	0.218959	-1.027912
C80	C	1.206690	-0.731433	-0.573339
N81	N	1.138595	-0.793253	-0.505059
H82	H	1.493114	0.225719	-1.304249
H83	H	1.053191	-0.214038	-0.976320
H84	H	0.827832	0.261006	-0.895769
H85	H	0.885757	-0.207412	-0.426372
H86	H	0.577872	-0.107218	-0.526801
H87	H	1.017592	-0.249623	-1.085725
H88	H	1.492904	-0.330013	-0.860024
H89	H	0.968826	0.118524	-0.752955
C90	C	1.042972	-0.376746	-0.409548
N91	N	0.994123	-0.362350	-0.360631
C92	C	1.043137	-0.224110	-1.257622
N93	N	0.994287	-0.272944	-1.272031
H94	H	1.160176	-0.107126	-0.944750
H95	H	0.989474	0.048670	-0.682963
C96	C	1.206547	-0.060762	-0.902795
N97	N	1.138355	-0.128937	-0.840979
H98	H	1.528585	-0.439377	-0.895730
C99	C	0.535901	-0.060880	-0.573273
N100	N	0.474107	-0.129015	-0.505014
C101	C	0.994112	-0.569928	-0.360546
N102	N	0.926010	-0.631750	-0.292275
C103	C	1.339507	-0.256553	-0.706469
N104	N	1.407647	-0.194735	-0.774705
C105	C	0.697549	-0.273211	-0.360467
N106	N	0.635753	-0.341341	-0.292204
C107	C	1.552233	0.284826	-1.216159
N108	N	1.620422	0.353001	-1.277979
C109	C	1.503182	-0.611232	-0.870282
N110	N	1.552039	-0.625622	-0.919198
C111	C	0.958548	0.248911	-0.883627
N112	N	1.020340	0.317043	-0.951891
H113	H	1.160233	-0.689494	-0.526929
C114	C	1.029803	-0.679295	-0.396251
N115	N	0.961708	-0.741115	-0.327971
C116	C	1.339773	0.072442	-1.377772
N117	N	1.407958	0.140623	-1.439590
H118	H	1.385913	-0.298483	-0.752922
H119	H	1.386159	0.118798	-1.335808
H120	H	0.660938	0.218694	-0.853392
