data_functionalizedCrystal
_audit_creation_method	'MofGen! by Chris Wilmer'
_symmetry_space_group_name_H-M	'P1'
_symmetry_Int_Tables_number	1
_symmetry_cell_setting	triclinic
loop_
_symmetry_equiv_pos_as_xyz
  x,y,z
_cell_length_a	17.077404
_cell_length_b	13.897441
_cell_length_c	17.077402
_cell_angle_alpha	90.033015
_cell_angle_beta	89.981731
_cell_angle_gamma	89.977930
loop_
_atom_site_label
_atom_site_type_symbol
_atom_site_fract_x
_atom_site_fract_y
_atom_site_fract_z
Zn1	Zn	1.200072	-0.545399	0.312580
Zn2	Zn	1.700072	-0.045399	0.812580
Zn3	Zn	1.199974	-0.384094	0.443862
Zn4	Zn	1.699974	0.115906	0.943862
Zn5	Zn	1.068799	-0.384114	0.312604
Zn6	Zn	1.568799	0.115886	0.812604
Zn7	Zn	1.068772	-0.545343	0.443797
Zn8	Zn	1.568772	-0.045343	0.943797
O9	O	1.134404	-0.464737	0.378211
O10	O	1.634404	0.035263	0.878211
O11	O	1.309906	-0.524017	0.330012
O12	O	1.809906	-0.024017	0.830012
O13	O	1.182544	-0.249115	0.426488
O14	O	1.682544	0.250885	0.926488
O15	O	1.086265	-0.405541	0.202754
O16	O	1.586265	0.094459	0.702754
O17	O	1.309834	-0.405507	0.426464
O18	O	1.809834	0.094493	0.926464
O19	O	1.182711	-0.524036	0.202736
O20	O	1.682711	-0.024036	0.702736
O21	O	1.086170	-0.249130	0.330053
O22	O	1.586170	0.250870	0.830053
O23	O	0.958948	-0.405486	0.329989
O24	O	1.458948	0.094514	0.829989
O25	O	1.086219	-0.680332	0.426353
O26	O	1.586219	-0.180332	0.926353
O27	O	0.958929	-0.523940	0.426377
O28	O	1.458929	-0.023940	0.926377
O29	O	1.182685	-0.680373	0.329949
O30	O	1.682685	-0.180373	0.829949
O31	O	1.182518	-0.405452	0.553700
O32	O	1.682518	0.094548	1.053700
O33	O	1.086124	-0.523921	0.553652
O34	O	1.586124	-0.023921	1.053652
C35	C	0.930457	-0.464710	0.378179
C36	C	1.430457	0.035290	0.878179
C37	C	0.843207	-0.464721	0.378185
C38	C	1.343207	0.035279	0.878185
C39	C	0.467403	-0.526347	0.428512
C40	C	0.967403	-0.026347	0.928512
C41	C	0.549383	-0.526333	0.428501
C42	C	1.049383	-0.026333	0.928501
C43	C	0.590358	-0.464753	0.378231
C44	C	1.090358	0.035247	0.878231
C45	C	0.549348	-0.403177	0.327974
C46	C	1.049348	0.096823	0.827974
C47	C	0.467369	-0.403187	0.327989
C48	C	0.967369	0.096813	0.827989
C49	C	0.720218	-0.403161	0.327945
C50	C	1.220218	0.096839	0.827945
C51	C	0.802203	-0.403151	0.327929
C52	C	1.302203	0.096849	0.827929
C53	C	0.802232	-0.526306	0.428458
C54	C	1.302232	-0.026306	0.928458
C55	C	0.720253	-0.526317	0.428473
C56	C	1.220253	-0.026317	0.928473
C57	C	0.679249	-0.464742	0.378214
C58	C	1.179249	0.035258	0.878214
C59	C	1.134460	-0.716331	0.378141
C60	C	1.634460	-0.216331	0.878141
C61	C	1.134484	-0.823545	0.378112
C62	C	1.634484	-0.323545	0.878112
C63	C	1.134505	-1.019840	0.378059
C64	C	1.634505	-0.519840	0.878059
C65	C	1.134491	-0.910607	0.378090
C66	C	1.634491	-0.410607	0.878090
C67	C	1.339149	-0.464766	0.378243
C68	C	1.839149	0.035234	0.878243
C69	C	1.426398	-0.464778	0.378256
C70	C	1.926398	0.035222	0.878256
C71	C	1.134329	-0.464699	0.582158
C72	C	1.634329	0.035301	1.082158
C73	C	1.134368	-0.464715	0.669408
C74	C	1.634368	0.035285	1.169408
C75	C	1.134394	-0.214123	0.378223
C76	C	1.634394	0.285877	0.878223
C77	C	1.134522	-0.106910	0.378031
C78	C	1.634522	0.393090	0.878031
C79	C	1.134502	-0.464797	0.173466
C80	C	1.634502	0.035203	0.673466
C81	C	1.134543	-0.464823	0.086216
C82	C	1.634543	0.035177	0.586216
C83	C	1.184611	-0.403094	0.710397
C84	C	1.684611	0.096906	1.210397
C85	C	1.184650	-0.403119	0.792378
C86	C	1.684650	0.096881	1.292378
C87	C	1.134440	-0.464760	0.833368
C88	C	1.634440	0.035240	1.333368
C89	C	1.084195	-0.526387	0.792373
C90	C	1.584195	-0.026387	1.292373
C91	C	1.084161	-0.526367	0.710394
C92	C	1.584161	-0.026367	1.210394
C93	C	1.084267	-0.526424	0.963243
C94	C	1.584267	-0.026424	1.463243
C95	C	1.084300	-0.526443	1.045227
C96	C	1.584300	-0.026443	1.545227
C97	C	1.184756	-0.403176	1.045227
C98	C	1.684756	0.096824	1.545227
C99	C	1.184723	-0.403155	0.963248
C100	C	1.684723	0.096845	1.463248
C101	C	1.134476	-0.464782	0.922259
C102	C	1.634476	0.035218	1.422259
H103	H	0.686894	-0.576465	0.469404
H104	H	1.186894	-0.076465	0.969404
H105	H	0.686835	-0.353022	0.287018
H106	H	1.186835	0.146978	0.787018
C107	C	0.422338	-0.594089	0.483815
C108	C	0.922338	-0.094089	0.983815
N109	N	0.388398	-0.645110	0.525475
N110	N	0.888398	-0.145110	1.025475
H111	H	0.835622	-0.576445	0.469379
H112	H	1.335622	-0.076445	0.969379
C113	C	1.028986	-0.594208	0.918157
C114	C	1.528986	-0.094208	1.418157
N115	N	0.987344	-0.645256	0.884198
N116	N	1.487344	-0.145256	1.384198
C117	C	1.028890	-0.594155	0.665307
C118	C	1.528890	-0.094155	1.165307
N119	N	0.987260	-0.645217	0.631348
N120	N	1.487260	-0.145217	1.131348
C121	C	0.594423	-0.335446	0.272670
C122	C	1.094423	0.164554	0.772670
N123	N	0.628373	-0.284435	0.231010
N124	N	1.128373	0.215565	0.731010
C125	C	1.239917	-0.335325	0.837462
C126	C	1.739917	0.164675	1.337462
N127	N	1.281545	-0.284258	0.871419
N128	N	1.781545	0.215742	1.371419
H129	H	0.582765	-0.576466	0.469426
H130	H	1.082765	-0.076466	0.969426
H131	H	0.433984	-0.353054	0.287064
H132	H	0.933984	0.146946	0.787064
H133	H	0.835562	-0.353017	0.286987
H134	H	1.335562	0.146983	0.786987
C135	C	1.239845	-0.335281	0.665316
C136	C	1.739845	0.164719	1.165316
N137	N	1.281451	-0.284204	0.631363
N138	N	1.781451	0.215796	1.131363
H139	H	1.225603	-0.352958	0.929874
H140	H	1.725603	0.147042	1.429874
C141	C	1.240035	-0.335394	1.090316
C142	C	1.740035	0.164606	1.590316
N143	N	1.281669	-0.284343	1.124281
N144	N	1.781669	0.215657	1.624281
C145	C	1.029075	-0.594261	1.090315
C146	C	1.529075	-0.094261	1.590315
N147	N	0.987481	-0.645346	1.124275
N148	N	1.487481	-0.145346	1.624275
H149	H	1.043317	-0.576580	0.825753
H150	H	1.543317	-0.076580	1.325753
