data_functionalizedCrystal
_audit_creation_method	'MofGen! by Chris Wilmer'
_symmetry_space_group_name_H-M	'P1'
_symmetry_Int_Tables_number	1
_symmetry_cell_setting	triclinic
loop_
_symmetry_equiv_pos_as_xyz
  x,y,z
_cell_length_a	13.897449
_cell_length_b	13.897448
_cell_length_c	21.395356
_cell_angle_alpha	89.975201
_cell_angle_beta	89.974910
_cell_angle_gamma	90.018519
loop_
_atom_site_label
_atom_site_type_symbol
_atom_site_fract_x
_atom_site_fract_y
_atom_site_fract_z
Zn1	Zn	1.474719	-0.384018	-0.354299
Zn2	Zn	1.474608	-0.545323	-0.249527
Zn3	Zn	1.313403	-0.384046	-0.249533
Zn4	Zn	1.313390	-0.545275	-0.354264
O5	O	1.394030	-0.464666	-0.301906
O6	O	1.609686	-0.405424	-0.340413
O7	O	1.453183	-0.523962	-0.161850
O8	O	1.334854	-0.249061	-0.263448
O9	O	1.609604	-0.523934	-0.263437
O10	O	1.453372	-0.249040	-0.340419
O11	O	1.334747	-0.405472	-0.161854
O12	O	1.178420	-0.405425	-0.263414
O13	O	1.334831	-0.523852	-0.441947
O14	O	1.178410	-0.523879	-0.340360
O15	O	1.453359	-0.405377	-0.441972
O16	O	1.453170	-0.680299	-0.263403
O17	O	1.334724	-0.680263	-0.340354
C18	C	1.143416	-0.464651	-0.301884
C19	C	1.036202	-0.464668	-0.301889
C20	C	0.949132	-0.464671	-0.301900
C21	C	0.839899	-0.464678	-0.301919
C22	C	1.393959	-0.715280	-0.301888
C23	C	1.394018	-0.822494	-0.301901
C24	C	1.394119	-1.018789	-0.301940
C25	C	1.394060	-0.909557	-0.301920
C26	C	1.645623	-0.464681	-0.301928
C27	C	1.752837	-0.464688	-0.301938
C28	C	1.394106	-0.464606	-0.465329
C29	C	1.394138	-0.464580	-0.534970
C30	C	1.394127	-0.213073	-0.301938
C31	C	1.394168	-0.105859	-0.301951
C32	C	1.332485	-0.402876	-0.567676
C33	C	1.332481	-0.402858	-0.633112
C34	C	1.394149	-0.464535	-0.665839
C35	C	1.455806	-0.526251	-0.633125
C36	C	1.455801	-0.526274	-0.567691
C37	C	1.481059	-0.472117	-0.769527
C38	C	1.481066	-0.472087	-0.834960
C39	C	1.394165	-0.464469	-0.867660
C40	C	1.307253	-0.456861	-0.834918
C41	C	1.307248	-0.456884	-0.769484
C42	C	1.394161	-0.464517	-0.736791
C43	C	1.332502	-0.402742	-0.971318
C44	C	1.332498	-0.402731	-1.036755
C45	C	1.455831	-0.526119	-1.036767
C46	C	1.455828	-0.526135	-0.971332
C47	C	1.394164	-0.464442	-0.938611
C48	C	1.394010	-0.464656	-0.139118
C49	C	1.394164	-0.464409	-0.069477
H50	H	1.282270	-0.352644	-0.541039
H51	H	1.506011	-0.576520	-0.541063
H52	H	1.551835	-0.478278	-0.861613
H53	H	1.282292	-0.352509	-0.944675
F54	F	1.266875	-0.337165	-0.667926
H55	H	1.506035	-0.576379	-0.944702
F56	F	1.266851	-0.337076	-1.071562
H57	H	1.506016	-0.576469	-0.659776
H58	H	1.506044	-0.576335	-1.063413
H59	H	1.236482	-0.450691	-0.742829
H60	H	1.236490	-0.450651	-0.861541
H61	H	1.551831	-0.478312	-0.742908
