data_functionalizedCrystal
_audit_creation_method	'MofGen! by Chris Wilmer'
_symmetry_space_group_name_H-M	'P1'
_symmetry_Int_Tables_number	1
_symmetry_cell_setting	triclinic
loop_
_symmetry_equiv_pos_as_xyz
  x,y,z
_cell_length_a	14.048226
_cell_length_b	14.971486
_cell_length_c	14.971486
_cell_angle_alpha	96.385817
_cell_angle_beta	89.995493
_cell_angle_gamma	90.001501
loop_
_atom_site_label
_atom_site_type_symbol
_atom_site_fract_x
_atom_site_fract_y
_atom_site_fract_z
O1	O	-0.079047	-1.186947	0.116565
O2	O	0.254286	-0.853614	0.449898
O3	O	0.587620	-0.520280	0.783231
O4	O	-0.079072	-0.926547	0.130523
O5	O	0.254261	-0.593214	0.463857
O6	O	0.587594	-0.259880	0.797190
O7	O	-0.079057	-1.063726	-0.006656
O8	O	0.254276	-0.730393	0.326677
O9	O	0.587609	-0.397060	0.660011
O10	O	-0.079062	-1.049768	0.253744
O11	O	0.254271	-0.716434	0.587077
O12	O	0.587605	-0.383101	0.920411
O13	O	0.079264	-1.063710	-0.006664
O14	O	0.412597	-0.730376	0.326669
O15	O	0.745931	-0.397043	0.660002
O16	O	0.079249	-0.926530	0.130515
O17	O	0.412582	-0.593197	0.463849
O18	O	0.745916	-0.259864	0.797182
O19	O	0.079274	-1.186931	0.116556
O20	O	0.412608	-0.853597	0.449890
O21	O	0.745941	-0.520264	0.783223
Zn22	Zn	0.104399	-1.056728	0.123535
Zn23	Zn	0.437732	-0.723395	0.456868
Zn24	Zn	0.771065	-0.390061	0.790201
Zn25	Zn	-0.104197	-1.056750	0.123545
Zn26	Zn	0.229137	-0.723416	0.456879
Zn27	Zn	0.562470	-0.390083	0.790212
O28	O	0.079259	-1.049751	0.253736
O29	O	0.412593	-0.716418	0.587069
O30	O	0.745926	-0.383085	0.920403
C31	C	0.000085	-0.893214	0.129895
C32	C	0.333418	-0.559881	0.463228
C33	C	0.666752	-0.226547	0.796562
C34	C	0.000075	-0.793917	0.128024
C35	C	0.333408	-0.460584	0.461358
C36	C	0.666742	-0.127250	0.794691
N37	N	0.246759	-1.056720	0.123527
N38	N	0.580093	-0.723386	0.456860
N39	N	0.913426	-0.390053	0.790193
C40	C	0.000102	-1.063094	-0.039985
C41	C	0.333435	-0.729760	0.293348
C42	C	0.666768	-0.396427	0.626682
C43	C	0.000097	-1.061223	-0.139282
C44	C	0.333430	-0.727890	0.194051
C45	C	0.666763	-0.394556	0.527385
N46	N	-0.246557	-1.056765	0.123546
N47	N	0.086776	-0.723432	0.456879
N48	N	0.420109	-0.390098	0.790213
C49	C	0.296584	-1.117482	0.062809
C50	C	0.629917	-0.784148	0.396142
C51	C	0.963251	-0.450815	0.729475
C52	C	0.396242	-1.117488	0.062808
C53	C	0.729575	-0.784154	0.396142
C54	C	1.062908	-0.450821	0.729475
C55	C	0.446073	-1.056735	0.123531
C56	C	0.779406	-0.723402	0.456864
C57	C	1.112739	-0.390069	0.790197
C58	C	0.396241	-0.995967	0.184252
C59	C	0.729574	-0.662633	0.517585
C60	C	1.062908	-0.329300	0.850918
C61	C	0.296585	-0.995957	0.184247
C62	C	0.629919	-0.662624	0.517580
C63	C	0.963252	-0.329290	0.850914
C64	C	0.603955	-0.995992	0.184258
C65	C	0.937289	-0.662659	0.517591
C66	C	1.270622	-0.329326	0.850925
C67	C	0.703618	-0.996003	0.184264
C68	C	1.036951	-0.662670	0.517597
C69	C	1.370285	-0.329336	0.850931
C70	C	0.703612	-1.117523	0.062819
C71	C	1.036945	-0.784190	0.396153
C72	C	1.370278	-0.450857	0.729486
C73	C	0.603956	-1.117514	0.062815
C74	C	0.937289	-0.784180	0.396148
C75	C	1.270623	-0.450847	0.729481
C76	C	0.554131	-1.056746	0.123537
C77	C	0.887464	-0.723412	0.456870
C78	C	1.220798	-0.390079	0.790204
C79	C	0.000115	-1.220264	0.117185
C80	C	0.333448	-0.886930	0.450518
C81	C	0.666782	-0.553597	0.783851
C82	C	0.000118	-1.319561	0.119056
C83	C	0.333452	-0.986227	0.452389
C84	C	0.666785	-0.652894	0.785722
C85	C	0.000075	-0.736692	0.208614
C86	C	0.333408	-0.403358	0.541947
C87	C	0.666742	-0.070025	0.875280
C88	C	0.000089	-0.643392	0.206850
C89	C	0.333423	-0.310059	0.540184
C90	C	0.666756	0.023274	0.873517
C91	C	0.000097	-0.607320	0.124497
C92	C	0.333430	-0.273986	0.457831
C93	C	0.666763	0.059347	0.791164
C94	C	0.000100	-0.664552	0.043902
C95	C	0.333433	-0.331219	0.377235
C96	C	0.666766	0.002114	0.710569
C97	C	0.000092	-0.757850	0.045666
C98	C	0.333426	-0.424517	0.378999
C99	C	0.666759	-0.091183	0.712333
C100	C	0.000113	-0.470090	0.040231
C101	C	0.333446	-0.136757	0.373564
C102	C	0.666780	0.196577	0.706897
C103	C	0.000119	-0.376786	0.038466
C104	C	0.333452	-0.043453	0.371800
C105	C	0.666785	0.289881	0.705133
C106	C	0.000110	-0.355632	0.201415
C107	C	0.333443	-0.022299	0.534749
C108	C	0.666777	0.311035	0.868082
C109	C	0.000102	-0.448930	0.203179
C110	C	0.333436	-0.115596	0.536513
C111	C	0.666769	0.217737	0.869846
C112	C	0.000104	-0.506156	0.122584
C113	C	0.333437	-0.172823	0.455917
C114	C	0.666770	0.160511	0.789250
C115	C	0.000098	-1.050384	0.287065
C116	C	0.333432	-0.717050	0.620398
C117	C	0.666765	-0.383717	0.953731
C118	C	0.000097	-1.052255	0.386362
C119	C	0.333430	-0.718921	0.719695
C120	C	0.666764	-0.385588	1.053028
C121	C	-0.086205	-1.053143	0.433013
C122	C	0.247128	-0.719810	0.766346
C123	C	0.580462	-0.386477	1.099680
C124	C	-0.086206	-1.054913	0.526311
C125	C	0.247127	-0.721579	0.859645
C126	C	0.580461	-0.388246	1.192978
C127	C	0.000096	-1.055787	0.572958
C128	C	0.333429	-0.722454	0.906292
C129	C	0.666763	-0.389120	1.239625
C130	C	0.086405	-1.054901	0.526300
C131	C	0.419738	-0.721567	0.859634
C132	C	0.753071	-0.388234	1.192967
C133	C	0.086405	-1.053138	0.433002
C134	C	0.419738	-0.719804	0.766336
C135	C	0.753071	-0.386471	1.099669
C136	C	0.086398	-1.058573	0.720763
C137	C	0.419732	-0.725240	1.054096
C138	C	0.753065	-0.391906	1.387429
C139	C	0.086399	-1.060334	0.814067
C140	C	0.419732	-0.727001	1.147400
C141	C	0.753065	-0.393668	1.480734
C142	C	-0.086212	-1.060348	0.814072
C143	C	0.247121	-0.727014	1.147405
C144	C	0.580454	-0.393681	1.480738
C145	C	-0.086212	-1.058585	0.720774
C146	C	0.247121	-0.725252	1.054107
C147	C	0.580454	-0.391918	1.387440
C148	C	0.000097	-1.057697	0.674123
C149	C	0.333430	-0.724364	1.007456
C150	C	0.666763	-0.391031	1.340789
H151	H	0.256018	-1.166957	0.013365
H152	H	0.589351	-0.833624	0.346699
H153	H	0.922685	-0.500290	0.680032
Br154	Br	0.000119	-0.615598	-0.067865
Br155	Br	0.333453	-0.282265	0.265468
Br156	Br	0.666786	0.051068	0.598802
Br157	Br	0.203524	-1.061542	0.877371
Br158	Br	0.536857	-0.728209	1.210704
Br159	Br	0.870190	-0.394876	1.544037
Br160	Br	0.000119	-0.547754	-0.069150
Br161	Br	0.333453	-0.214420	0.264183
Br162	Br	0.666786	0.118913	0.597516
H163	H	0.436808	-1.166964	0.013367
H164	H	0.770142	-0.833631	0.346700
H165	H	1.103475	-0.500298	0.680033
H166	H	0.000068	-0.766054	0.275675
H167	H	0.333402	-0.432721	0.609008
H168	H	0.666735	-0.099387	0.942342
Br169	Br	0.771239	-0.913549	0.266677
Br170	Br	1.104572	-0.580216	0.600010
Br171	Br	1.437906	-0.246883	0.933343
Br172	Br	0.203533	-1.057376	0.657449
Br173	Br	0.536866	-0.724043	0.990783
Br174	Br	0.870200	-0.390709	1.324116
H175	H	0.000126	-0.347419	-0.028593
H176	H	0.333459	-0.014086	0.304740
H177	H	0.666793	0.319248	0.638074
H178	H	0.563384	-1.166987	0.013375
H179	H	0.896717	-0.833654	0.346708
H180	H	1.230050	-0.500320	0.680041
H181	H	0.000092	-0.804443	-0.019958
H182	H	0.333425	-0.471109	0.313375
H183	H	0.666758	-0.137776	0.646708
H184	H	0.156681	-1.052414	0.395020
H185	H	0.490014	-0.719080	0.728354
H186	H	0.823347	-0.385747	1.061687
Br187	Br	0.000107	-0.277970	0.310796
Br188	Br	0.333440	0.055364	0.644129
Br189	Br	0.666774	0.388697	0.977462
H190	H	0.000088	-0.596803	0.272474
H191	H	0.333421	-0.263469	0.605808
H192	H	0.666755	0.069864	0.939141
H193	H	0.744185	-1.167002	0.013377
H194	H	1.077518	-0.833669	0.346711
H195	H	1.410852	-0.500335	0.680044
Br196	Br	-0.203346	-1.061499	0.877389
Br197	Br	0.129987	-0.728166	1.210723
Br198	Br	0.463320	-0.394832	1.544056
H199	H	0.436819	-0.946496	0.233690
H200	H	0.770153	-0.613163	0.567023
H201	H	1.103486	-0.279830	0.900357
H202	H	0.156673	-1.055618	0.564287
H203	H	0.490006	-0.722285	0.897620
H204	H	0.823340	-0.388951	1.230953
Br205	Br	0.000078	-0.497885	0.314946
Br206	Br	0.333411	-0.164552	0.648279
Br207	Br	0.666745	0.168782	0.981612
Br208	Br	0.536339	-0.913516	0.266664
Br209	Br	0.869672	-0.580183	0.599998
Br210	Br	1.203006	-0.246849	0.933331
H211	H	-0.156482	-1.052423	0.395041
H212	H	0.176851	-0.719090	0.728374
H213	H	0.510184	-0.385757	1.061708
Br214	Br	0.228966	-0.913485	0.266648
Br215	Br	0.562299	-0.580151	0.599981
Br216	Br	0.895632	-0.246818	0.933315
H217	H	-0.156487	-1.057868	0.682797
H218	H	0.176846	-0.724535	1.016131
H219	H	0.510180	-0.391201	1.349464
H220	H	-0.156482	-1.055638	0.564290
H221	H	0.176851	-0.722305	0.897624
H222	H	0.510185	-0.388971	1.230957
