data_functionalizedCrystal
_audit_creation_method	'MofGen! by Chris Wilmer'
_symmetry_space_group_name_H-M	'P1'
_symmetry_Int_Tables_number	1
_symmetry_cell_setting	triclinic
loop_
_symmetry_equiv_pos_as_xyz
  x,y,z
_cell_length_a	8.559649
_cell_length_b	19.188924
_cell_length_c	7.088929
_cell_angle_alpha	83.795552
_cell_angle_beta	95.324505
_cell_angle_gamma	76.460314
loop_
_atom_site_label
_atom_site_type_symbol
_atom_site_fract_x
_atom_site_fract_y
_atom_site_fract_z
O1	O	2.103836	-0.015636	-0.158978
O2	O	1.638377	0.020436	-0.158987
O3	O	1.884547	-0.099959	-0.158960
O4	O	1.857667	0.104760	-0.159005
O5	O	1.917445	-0.116081	0.159019
O6	O	1.671276	0.004314	0.158992
O7	O	2.136735	-0.031758	0.159001
Cu8	Cu	1.907009	-0.015194	0.188030
Cu9	Cu	1.868103	0.003872	-0.188017
O10	O	1.890565	0.088638	0.158973
C11	C	1.595277	0.015109	0.000001
C12	C	1.417840	0.023246	-0.000002
C13	C	1.900128	-0.133986	0.000031
C14	C	1.897521	-0.211355	0.000036
C15	C	1.878372	-0.238902	-0.173294
C16	C	1.875898	-0.311595	-0.173309
C17	C	1.892607	-0.356742	0.000017
C18	C	1.911750	-0.329186	0.173371
C19	C	1.914207	-0.256493	0.173380
N20	N	1.993060	-0.487500	0.129021
N21	N	1.990728	-0.556555	0.129000
C22	C	1.885201	-0.575763	-0.000001
N23	N	1.782112	-0.523307	-0.129011
N24	N	1.784450	-0.454245	-0.128995
C25	C	1.889943	-0.435566	0.000026
C26	C	1.863365	-0.682131	-0.173360
C27	C	1.860882	-0.754824	-0.173367
C28	C	1.896751	-0.772416	0.173317
C29	C	1.899218	-0.699722	0.173320
C30	C	1.882532	-0.654584	-0.000024
C31	C	2.179834	-0.026430	0.000008
C32	C	2.357271	-0.034567	-0.000002
C33	C	1.874984	0.122665	-0.000022
C34	C	1.877589	0.200034	-0.000040
N35	N	1.934385	-0.028605	0.452521
N36	N	1.840740	0.017277	-0.452508
H37	H	1.864780	-0.202154	-0.314445
H38	H	2.031456	-0.076152	0.534188
O39	O	1.855251	-0.341316	-0.360271
H40	H	1.744345	-0.361944	-0.368585
H41	H	1.441170	-0.090292	0.000010
O42	O	1.306726	0.097058	-0.000012
H43	H	1.216433	0.110164	-0.129618
H44	H	1.925350	-0.365949	0.314494
H45	H	1.743687	0.064825	0.465835
O46	O	1.840170	-0.784524	-0.360341
H47	H	1.940961	-0.778429	-0.443471
H48	H	1.849769	-0.645376	-0.314507
H49	H	1.910344	-0.809172	0.314443
O50	O	1.934894	-0.226782	0.360343
H51	H	1.834109	-0.232889	0.443472
O52	O	1.919912	-0.670007	0.360270
H53	H	1.931136	-0.713613	0.480796
