data_functionalizedCrystal
_audit_creation_method	'MofGen! by Chris Wilmer'
_symmetry_space_group_name_H-M	'P1'
_symmetry_Int_Tables_number	1
_symmetry_cell_setting	triclinic
loop_
_symmetry_equiv_pos_as_xyz
  x,y,z
_cell_length_a	12.759401
_cell_length_b	18.101397
_cell_length_c	12.759393
_cell_angle_alpha	89.963398
_cell_angle_beta	89.982629
_cell_angle_gamma	90.020743
loop_
_atom_site_label
_atom_site_type_symbol
_atom_site_fract_x
_atom_site_fract_y
_atom_site_fract_z
Zn1	Zn	1.606201	-0.294788	-0.593938
Zn2	Zn	1.606081	-0.418647	-0.418240
Zn3	Zn	1.430507	-0.294825	-0.418277
Zn4	Zn	1.430474	-0.418593	-0.593881
O5	O	1.518316	-0.356713	-0.506084
O6	O	1.753206	-0.311226	-0.570639
O7	O	1.582755	-0.402260	-0.271223
O8	O	1.453877	-0.191187	-0.441619
O9	O	1.753118	-0.402225	-0.441554
O10	O	1.582959	-0.191160	-0.570676
O11	O	1.453761	-0.311288	-0.271251
O12	O	1.283481	-0.311236	-0.441563
O13	O	1.453821	-0.402132	-0.740910
O14	O	1.283457	-0.402167	-0.570579
O15	O	1.582927	-0.311173	-0.740952
O16	O	1.582723	-0.522273	-0.441499
O17	O	1.453705	-0.522233	-0.570542
C18	C	1.245349	-0.356700	-0.506070
C19	C	1.128572	-0.356712	-0.506088
C20	C	1.518226	-0.549124	-0.506033
C21	C	1.518284	-0.631438	-0.506046
C22	C	0.963994	-0.404144	-0.573168
C23	C	1.073718	-0.404135	-0.573157
C24	C	1.073696	-0.309299	-0.439018
C25	C	0.963974	-0.309312	-0.439025
C26	C	1.223657	-0.491489	-0.610459
C27	C	1.278529	-0.538893	-0.677538
C28	C	1.242952	-0.550354	-0.780024
C29	C	1.152504	-0.514399	-0.815453
C30	C	1.097638	-0.466990	-0.748380
C31	C	1.133214	-0.455543	-0.645879
C32	C	0.814033	-0.221957	-0.401734
C33	C	0.759165	-0.174544	-0.334665
C34	C	0.794740	-0.163075	-0.232177
C35	C	0.885190	-0.199017	-0.196752
C36	C	0.940059	-0.246431	-0.263820
C37	C	0.904476	-0.257900	-0.366308
C38	C	1.518418	-0.930529	-0.506142
C39	C	1.599366	-0.899198	-0.424734
C40	C	1.599646	-0.813579	-0.424945
C41	C	1.518351	-0.782146	-0.506094
C42	C	1.548367	-0.813145	-0.616835
C43	C	1.548994	-0.898790	-0.616391
C44	C	1.407237	-0.899040	-0.477768
C45	C	1.407786	-0.813391	-0.475296
C46	C	1.518312	-0.698287	-0.506073
C47	C	1.518460	-1.014388	-0.506170
C48	C	1.792349	-0.356727	-0.506099
C49	C	1.909126	-0.356733	-0.506106
C50	C	1.518384	-0.356642	-0.780117
C51	C	1.518413	-0.356612	-0.896894
C52	C	1.518435	-0.163551	-0.506158
C53	C	1.518485	-0.081237	-0.506190
C54	C	1.451210	-0.403952	-0.951736
C55	C	1.451247	-0.403924	-1.061460
C56	C	1.585693	-0.309210	-1.061491
C57	C	1.585661	-0.309242	-0.951769
C58	C	1.413698	-0.491218	-1.211382
C59	C	1.346479	-0.538551	-1.266228
C60	C	1.243947	-0.549925	-1.230613
C61	C	1.208613	-0.513955	-1.140154
C62	C	1.275826	-0.466615	-1.085314
C63	C	1.378373	-0.455256	-1.120928
C64	C	1.623199	-0.221948	-0.801845
C65	C	1.690408	-0.174604	-0.747003
C66	C	1.792942	-0.163223	-0.782616
C67	C	1.828272	-0.199181	-0.873078
C68	C	1.761063	-0.246524	-0.927920
C69	C	1.658530	-0.257907	-0.892299
C70	C	1.518309	-0.356731	-0.233117
C71	C	1.518483	-0.356553	-0.116340
H72	H	1.024000	-0.437714	-0.777227
H73	H	1.911761	-0.189909	-0.902080
N74	N	1.652305	-0.135825	-0.649428
H75	H	1.710439	-0.104105	-0.620093
H76	H	1.590167	-0.103698	-0.667462
H77	H	1.189216	-0.588465	-1.275276
N78	N	1.512606	-0.234230	-0.763428
H79	H	1.500421	-0.204263	-0.697805
H80	H	1.461434	-0.218305	-0.819422
H81	H	1.497192	-0.481969	-1.240381
H82	H	1.491212	-0.792782	-0.679121
H83	H	1.640443	-0.270643	-1.106183
N84	N	1.474296	-0.926243	-0.699479
H85	H	1.513909	-0.957110	-0.752167
H86	H	1.417845	-0.957269	-0.665624
N87	N	1.654817	-0.784669	-0.649214
H88	H	1.683749	-0.751694	-0.592319
H89	H	1.703804	-0.827737	-0.660604
H90	H	1.379931	-0.920707	-0.398416
N91	N	1.656645	-0.925177	-0.648209
H92	H	1.658130	-0.980964	-0.648236
H93	H	1.673501	-0.906277	-0.720775
N94	N	1.376068	-0.577677	-0.639315
H95	H	1.365646	-0.632902	-0.643680
H96	H	1.437592	-0.562823	-0.684481
H97	H	1.375257	-0.567838	-1.339880
H98	H	1.385153	-0.793139	-0.393799
N99	N	1.262022	-0.479135	-0.499912
H100	H	1.327648	-0.509100	-0.487655
H101	H	1.277990	-0.424986	-0.489480
H102	H	1.789836	-0.275799	-1.001582
N103	N	1.708730	-0.786354	-0.449817
H104	H	1.759280	-0.805106	-0.395026
H105	H	1.730540	-0.805165	-0.521060
H106	H	1.123552	-0.523728	-0.898913
H107	H	0.750062	-0.124459	-0.177574
H108	H	1.344230	-0.792002	-0.530247
H109	H	1.580814	-0.919847	-0.342376
N110	N	1.865431	-0.112151	-0.723475
H111	H	1.827493	-0.091092	-0.660768
H112	H	1.928953	-0.140650	-0.699101
H113	H	0.914160	-0.189676	-0.113299
N114	N	0.661616	-0.135759	-0.372860
H115	H	0.679609	-0.103649	-0.435085
H116	H	0.607656	-0.173703	-0.394209
N117	N	0.904833	-0.455291	-0.645510
H118	H	0.956246	-0.485326	-0.687989
H119	H	0.859285	-0.489531	-0.602654
H120	H	1.118367	-0.270690	-0.384405
N121	N	1.327334	-0.925877	-0.556293
H122	H	1.347681	-0.908507	-0.628737
H123	H	1.324764	-0.981636	-0.555000
N124	N	0.775658	-0.234333	-0.512277
H125	H	0.710038	-0.204365	-0.524544
H126	H	0.831670	-0.218463	-0.563514
N127	N	1.378677	-0.455037	-0.892547
H128	H	1.336109	-0.485021	-0.943943
H129	H	1.421399	-0.489326	-0.847006
H130	H	1.287636	-0.588952	-0.834640
H131	H	1.013710	-0.275694	-0.234970
H132	H	1.681272	-0.920664	-0.443292
N133	N	1.574785	-0.785814	-0.316179
H134	H	1.563543	-0.829211	-0.267664
H135	H	1.635093	-0.754885	-0.289674
H136	H	1.247057	-0.437327	-1.011667
N137	N	1.098024	-0.526228	-1.101734
H138	H	1.060809	-0.561680	-1.150195
H139	H	1.099972	-0.547622	-1.028637
