data_functionalizedCrystal
_audit_creation_method	'MofGen! by Chris Wilmer'
_symmetry_space_group_name_H-M	'P1'
_symmetry_Int_Tables_number	1
_symmetry_cell_setting	triclinic
loop_
_symmetry_equiv_pos_as_xyz
  x,y,z
_cell_length_a	12.759399
_cell_length_b	18.101398
_cell_length_c	12.759393
_cell_angle_alpha	90.029647
_cell_angle_beta	89.969069
_cell_angle_gamma	89.989709
loop_
_atom_site_label
_atom_site_type_symbol
_atom_site_fract_x
_atom_site_fract_y
_atom_site_fract_z
Zn1	Zn	-0.418350	-1.132214	-0.594324
Zn2	Zn	-0.594066	-1.132142	-0.418642
Zn3	Zn	-0.418387	-1.008370	-0.418625
Zn4	Zn	-0.593973	-1.008359	-0.594246
O5	O	-0.506194	-1.070271	-0.506459
O6	O	-0.441683	-1.235838	-0.571059
O7	O	-0.570816	-1.115697	-0.271619
O8	O	-0.271361	-1.024834	-0.441957
O9	O	-0.570780	-1.235784	-0.441986
O10	O	-0.271334	-1.115822	-0.571042
O11	O	-0.441745	-1.024763	-0.271606
O12	O	-0.441655	-0.904736	-0.441882
O13	O	-0.570622	-1.024814	-0.741278
O14	O	-0.570658	-0.904727	-0.570910
O15	O	-0.441593	-1.115810	-0.741334
O16	O	-0.741075	-1.115686	-0.441911
O17	O	-0.741006	-1.024743	-0.570927
C18	C	-0.506151	-0.877861	-0.506386
C19	C	-0.506158	-0.795547	-0.506380
C20	C	-0.506170	-0.644838	-0.506415
C21	C	-0.424887	-0.613465	-0.425367
C22	C	-0.424575	-0.527847	-0.425626
C23	C	-0.506182	-0.496456	-0.506447
C24	C	-0.476618	-0.527592	-0.617297
C25	C	-0.476021	-0.613237	-0.616809
C26	C	-0.617225	-0.613256	-0.477589
C27	C	-0.616634	-0.527604	-0.475166
C28	C	-0.506190	-0.412596	-0.506473
C29	C	-0.506159	-0.728698	-0.506397
C30	C	-0.779161	-1.070226	-0.506435
C31	C	-0.895938	-1.070274	-0.506460
C32	C	-0.950801	-1.117682	-0.439358
C33	C	-1.060525	-1.117730	-0.439394
C34	C	-1.060514	-1.022955	-0.573636
C35	C	-0.950792	-1.022912	-0.573605
C36	C	-1.210414	-1.205142	-0.402030
C37	C	-1.265280	-1.252544	-0.334912
C38	C	-1.229741	-1.263940	-0.232404
C39	C	-1.139338	-1.227923	-0.196995
C40	C	-1.084477	-1.180516	-0.264107
C41	C	-1.120015	-1.169134	-0.366629
C42	C	-0.800901	-0.935498	-0.610958
C43	C	-0.746038	-0.888087	-0.678066
C44	C	-0.781575	-0.876683	-0.780575
C45	C	-0.871981	-0.912687	-0.815981
C46	C	-0.926844	-0.960098	-0.748873
C47	C	-0.891300	-0.971503	-0.646365
C48	C	-0.232161	-1.070337	-0.506506
C49	C	-0.115384	-1.070365	-0.506526
C50	C	-0.506093	-1.070319	-0.780493
C51	C	-0.506050	-1.070340	-0.897270
C52	C	-0.506222	-0.263433	-0.506512
C53	C	-0.506194	-0.345747	-0.506482
C54	C	-0.573204	-1.022974	-0.952104
C55	C	-0.573165	-1.023000	-1.061828
C56	C	-0.438809	-1.117760	-1.061874
C57	C	-0.438854	-1.117737	-0.952152
C58	C	-0.697002	-0.996540	-1.211754
C59	C	-0.764147	-0.949163	-1.266592
C60	C	-0.780274	-0.876891	-1.230956
C61	C	-0.729240	-0.851981	-1.140485
C62	C	-0.662087	-0.899354	-1.085653
C63	C	-0.645981	-0.971637	-1.121287
C64	C	-0.315015	-1.144189	-0.802224
C65	C	-0.247857	-1.191559	-0.747390
C66	C	-0.231719	-1.263833	-0.783023
C67	C	-0.282734	-1.288740	-0.873498
C68	C	-0.349893	-1.241370	-0.928332
C69	C	-0.366032	-1.169097	-0.892691
C70	C	-0.506219	-1.070266	-0.233492
C71	C	-0.505966	-1.070389	-0.116716
H72	H	-0.342288	-0.507369	-0.444760
O73	O	-1.101006	-1.240211	-0.086428
H74	H	-1.154335	-1.279232	-0.045713
O75	O	-0.986962	-1.141692	-0.225924
H76	H	-0.919358	-1.158006	-0.275590
H77	H	-0.620534	-0.879072	-1.011996
H78	H	-1.338886	-1.281869	-0.363752
O79	O	-1.248743	-1.192863	-0.512600
H80	H	-1.195400	-1.153858	-0.553328
H81	H	-1.274421	-1.302536	-0.177757
O82	O	-0.449013	-0.640689	-0.316150
H83	H	-0.381068	-0.672412	-0.285773
O84	O	-0.648500	-0.849291	-0.639867
H85	H	-0.580908	-0.865608	-0.689547
H86	H	-0.683889	-1.055393	-1.240770
O87	O	-0.449004	-0.499958	-0.316767
H88	H	-0.521205	-0.465788	-0.319063
O89	O	-0.368505	-0.639715	-0.649071
H90	H	-0.375118	-0.673889	-0.721016
O91	O	-0.819186	-0.976029	-1.364169
H92	H	-0.905267	-0.972477	-1.352620
O93	O	-0.891632	-1.168780	-0.366966
H94	H	-0.841720	-1.135645	-0.313438
O95	O	-0.551053	-0.640744	-0.699569
H96	H	-0.587597	-0.592872	-0.739768
H97	H	-1.105189	-0.984393	-0.628301
O98	O	-0.697449	-0.640132	-0.555765
H99	H	-0.700249	-0.701409	-0.554308
O100	O	-0.316497	-0.641985	-0.450375
H101	H	-0.320265	-0.678404	-0.520282
O102	O	-0.910314	-0.900372	-0.926543
H103	H	-0.990640	-0.876873	-0.924328
O104	O	-0.746615	-0.774029	-1.102029
H105	H	-0.779993	-0.775560	-1.021710
O106	O	-0.370285	-0.499210	-0.650134
H107	H	-0.378025	-0.467285	-0.723974
O108	O	-0.852656	-0.825777	-1.290124
H109	H	-0.885419	-0.855235	-1.359025
O110	O	-0.552628	-0.500661	-0.699510
H111	H	-0.612424	-0.464710	-0.662146
O112	O	-0.722664	-0.825414	-0.852984
H113	H	-0.695790	-0.856589	-0.922946
H114	H	-0.384099	-1.156349	-1.106573
H115	H	-1.000455	-0.989417	-0.777711
H116	H	-0.644223	-0.634820	-0.398111
H117	H	-0.771952	-0.944785	-0.527489
H118	H	-0.638935	-0.507251	-0.393586
O119	O	-0.645665	-0.971848	-0.892903
H120	H	-0.692354	-0.938916	-0.949472
O121	O	-0.404928	-1.268230	-1.025913
H122	H	-0.382432	-1.326448	-1.041480
O123	O	-0.332421	-1.066231	-0.763795
H124	H	-0.285649	-1.056866	-0.691682
O125	O	-0.265342	-1.366695	-0.911939
H126	H	-0.210082	-1.395452	-0.858604
H127	H	-0.177020	-1.302398	-0.738374
O128	O	-0.192826	-1.164700	-0.649805
H129	H	-0.215339	-1.106487	-0.634227
H130	H	-0.680404	-0.506230	-0.529851
