data_functionalizedCrystal
_audit_creation_method	'MofGen! by Chris Wilmer'
_symmetry_space_group_name_H-M	'P1'
_symmetry_Int_Tables_number	1
_symmetry_cell_setting	triclinic
loop_
_symmetry_equiv_pos_as_xyz
  x,y,z
_cell_length_a	14.044220
_cell_length_b	14.971486
_cell_length_c	13.448316
_cell_angle_alpha	89.997568
_cell_angle_beta	89.996227
_cell_angle_gamma	88.401503
loop_
_atom_site_label
_atom_site_type_symbol
_atom_site_fract_x
_atom_site_fract_y
_atom_site_fract_z
O1	O	-1.257957	-0.215658	0.082587
O2	O	-0.757957	0.284342	0.582587
O3	O	-0.981979	-0.207876	0.082612
O4	O	-0.481979	0.292124	0.582612
O5	O	-1.127365	-0.082150	0.082592
O6	O	-0.627365	0.417850	0.582592
O7	O	-1.112571	-0.341384	0.082608
O8	O	-0.612571	0.158616	0.582608
O9	O	-1.127340	-0.082151	-0.082792
O10	O	-0.627340	0.417849	0.417208
O11	O	-0.981955	-0.207878	-0.082771
O12	O	-0.481955	0.292122	0.417229
O13	O	-1.257933	-0.215660	-0.082797
O14	O	-0.757933	0.284340	0.417203
Cu15	Cu	-1.119941	-0.211769	-0.097885
Cu16	Cu	-0.619941	0.288231	0.402115
Cu17	Cu	-1.119970	-0.211767	0.097701
Cu18	Cu	-0.619970	0.288233	0.597701
O19	O	-1.112547	-0.341386	-0.082776
O20	O	-0.612547	0.158614	0.417224
C21	C	-1.126691	-0.048774	-0.000100
C22	C	-0.626691	0.451226	0.499900
C23	C	-1.124708	0.050680	-0.000098
C24	C	-0.624708	0.550680	0.499902
C25	C	-0.946648	-0.204470	-0.000076
C26	C	-0.446648	0.295530	0.499924
C27	C	-0.841411	-0.194309	-0.000067
C28	C	-0.341411	0.305691	0.499933
C29	C	-1.293263	-0.219065	-0.000106
C30	C	-0.793263	0.280935	0.499894
C31	C	-1.398500	-0.229227	-0.000109
C32	C	-0.898500	0.270773	0.499891
C33	C	-0.648729	-0.175732	-0.000088
C34	C	-0.148729	0.324268	0.499912
C35	C	-0.591177	-0.247799	-0.000088
C36	C	-0.091177	0.252201	0.499912
C37	C	-0.483962	-0.237463	-0.000099
C38	C	0.016038	0.262537	0.499901
C39	C	-0.755954	-0.186067	-0.000076
C40	C	-0.255954	0.313933	0.499924
C41	C	-1.113220	-0.374762	-0.000083
C42	C	-0.613220	0.125238	0.499917
C43	C	-1.115203	-0.474215	-0.000077
C44	C	-0.615203	0.025785	0.499923
N45	N	-1.119928	-0.211770	-0.235449
N46	N	-0.619928	0.288230	0.264551
C47	C	-1.210119	0.101176	-0.000107
C48	C	-0.710119	0.601176	0.499893
C49	C	-1.208250	0.194623	-0.000097
C50	C	-0.708250	0.694623	0.499903
C51	C	-1.120970	0.237571	-0.000085
C52	C	-0.620970	0.737571	0.499915
C53	C	-1.035554	0.187067	-0.000074
C54	C	-0.535554	0.687067	0.499926
C55	C	-1.037423	0.093623	-0.000077
C56	C	-0.537423	0.593623	0.499923
C57	C	-1.031663	0.381836	-0.000070
C58	C	-0.531663	0.881836	0.499930
C59	C	-1.029793	0.475288	-0.000069
C60	C	-0.529793	0.975288	0.499931
C61	C	-1.202490	0.482837	-0.000090
C62	C	-0.702490	0.982837	0.499910
C63	C	-1.204360	0.389392	-0.000093
C64	C	-0.704360	0.889392	0.499907
C65	C	-1.118942	0.338895	-0.000083
C66	C	-0.618942	0.838895	0.499917
C67	C	-1.184377	-0.156113	-0.712677
C68	C	-0.684377	0.343887	-0.212677
C69	C	-1.184370	-0.156118	-0.608573
C70	C	-0.684370	0.343882	-0.108573
C71	C	-1.119970	-0.211766	-0.556530
C72	C	-0.619970	0.288234	-0.056530
C73	C	-1.055581	-0.267418	-0.608596
C74	C	-0.555581	0.232582	-0.108596
C75	C	-1.055594	-0.267417	-0.712698
C76	C	-0.555594	0.232583	-0.212698
C77	C	-1.055556	-0.267416	-0.391616
C78	C	-0.555556	0.232584	0.108384
C79	C	-1.055542	-0.267416	-0.287508
C80	C	-0.555542	0.232584	0.212492
C81	C	-1.184332	-0.156117	-0.287492
C82	C	-0.684332	0.343883	0.212508
C83	C	-1.184345	-0.156116	-0.391593
C84	C	-0.684345	0.343884	0.108407
C85	C	-1.119954	-0.211767	-0.443652
C86	C	-0.619954	0.288233	0.056348
N87	N	-1.119991	-0.211759	0.235265
N88	N	-0.619991	0.288241	0.735265
H89	H	-0.622427	-0.317261	-0.000079
H90	H	-0.122427	0.182739	0.499921
F91	F	-1.293398	0.536581	-0.000096
F92	F	-0.793398	1.036581	0.499904
F93	F	-0.940751	0.328096	-0.000057
F94	F	-0.440751	0.828096	0.499943
H95	H	-0.958722	0.510253	-0.000075
H96	H	-0.458722	1.010253	0.499925
H97	H	-1.236815	-0.110795	-0.755043
H98	H	-0.736815	0.389205	-0.255043
H99	H	-0.617481	-0.106277	-0.000097
H100	H	-0.117481	0.393723	0.499903
F101	F	-0.942663	0.232778	-0.000050
F102	F	-0.442663	0.732778	0.499950
F103	F	-1.303015	0.055476	-0.000129
F104	F	-0.803015	0.555476	0.499871
F105	F	-1.252897	-0.096895	-0.553169
F106	F	-0.752897	0.403105	-0.053169
H107	H	-1.277800	0.235734	-0.000106
H108	H	-0.777800	0.735734	0.499894
H109	H	-1.236761	-0.110805	-0.245100
H110	H	-0.736761	0.389195	0.254900
F111	F	-1.252879	-0.096885	-0.446982
F112	F	-0.752879	0.403115	0.053018
F113	F	-1.297252	0.343685	-0.000103
F114	F	-0.797252	0.843685	0.499897
H115	H	-1.003102	-0.312731	-0.245140
H116	H	-0.503102	0.187269	0.254860
H117	H	-1.003126	-0.312736	-0.433999
H118	H	-0.503126	0.187264	0.066001
H119	H	-0.967873	0.052509	-0.000070
H120	H	-0.467873	0.552509	0.499930
H121	H	-1.003149	-0.312732	-0.566217
H122	H	-0.503149	0.187268	-0.066217
F123	F	-0.987068	-0.326646	-0.768101
F124	F	-0.487068	0.173354	-0.268101
