data_functionalizedCrystal
_audit_creation_method	'MofGen! by Chris Wilmer'
_symmetry_space_group_name_H-M	'P1'
_symmetry_Int_Tables_number	1
_symmetry_cell_setting	triclinic
loop_
_symmetry_equiv_pos_as_xyz
  x,y,z
_cell_length_a	12.759401
_cell_length_b	12.759400
_cell_length_c	12.759393
_cell_angle_alpha	90.031564
_cell_angle_beta	90.018496
_cell_angle_gamma	90.014845
loop_
_atom_site_label
_atom_site_type_symbol
_atom_site_fract_x
_atom_site_fract_y
_atom_site_fract_z
Zn1	Zn	1.606255	-0.418200	0.593981
Zn2	Zn	1.606150	-0.593919	0.418301
Zn3	Zn	1.430557	-0.418255	0.418321
Zn4	Zn	1.430546	-0.593838	0.593943
O5	O	1.518377	-0.506053	0.506137
O6	O	1.753262	-0.441520	0.570685
O7	O	1.582818	-0.570673	0.271283
O8	O	1.453913	-0.271226	0.441647
O9	O	1.753185	-0.570620	0.441614
O10	O	1.582998	-0.271186	0.570704
O11	O	1.453811	-0.441614	0.271297
O12	O	1.283535	-0.441535	0.441609
O13	O	1.453894	-0.570482	0.740969
O14	O	1.283527	-0.570536	0.570638
O15	O	1.582987	-0.441442	0.740997
O16	O	1.582807	-0.740929	0.441577
O17	O	1.453791	-0.740870	0.570620
C18	C	1.245410	-0.506033	0.506122
C19	C	1.128633	-0.506050	0.506141
C20	C	1.073794	-0.573328	0.573215
C21	C	0.964070	-0.573342	0.573227
C22	C	0.964034	-0.438796	0.439081
C23	C	1.073756	-0.438778	0.439075
C24	C	1.128672	-0.640600	0.640281
C25	C	1.073833	-0.707885	0.707360
C26	C	0.964109	-0.707898	0.707371
C27	C	0.909224	-0.640627	0.640304
C28	C	1.518315	-0.779020	0.506115
C29	C	1.518384	-0.895797	0.506140
C30	C	1.585637	-0.950655	0.439022
C31	C	1.585702	-1.060379	0.439054
C32	C	1.451252	-1.060377	0.573327
C33	C	1.451193	-0.950655	0.573299
C34	C	1.652828	-0.895797	0.371864
C35	C	1.720086	-0.950655	0.304739
C36	C	1.720150	-1.060379	0.304771
C37	C	1.652957	-1.115245	0.371929
C38	C	1.792410	-0.506073	0.506152
C39	C	1.909187	-0.506082	0.506158
C40	C	1.518451	-0.505947	0.780170
C41	C	1.518482	-0.505902	0.896947
C42	C	1.518468	-0.232019	0.506182
C43	C	1.518507	-0.115243	0.506201
C44	C	1.518364	-0.506083	0.233169
C45	C	1.518537	-0.505832	0.116393
C46	C	1.585710	-0.438704	0.951825
C47	C	1.585735	-0.438666	1.061549
C48	C	1.451301	-0.573033	1.061507
C49	C	1.451272	-0.573064	0.951785
C50	C	1.652920	-0.371541	0.896987
C51	C	1.720155	-0.304339	0.951866
C52	C	1.720180	-0.304301	1.061590
C53	C	1.652970	-0.371465	1.116436
H54	H	0.919462	-0.762676	0.761998
H55	H	1.218015	-0.640599	0.640277
H56	H	1.774922	-1.105041	0.250123
H57	H	1.652984	-0.371417	1.205780
H58	H	1.652910	-0.371567	0.807644
O59	O	1.386177	-0.638391	1.114827
C60	C	1.372036	-0.780161	1.238715
C61	C	1.445906	-0.706219	1.178380
H62	H	1.420296	-0.835003	1.290129
H63	H	1.323998	-0.828273	1.180690
H64	H	1.317110	-0.731887	1.290050
H65	H	1.500895	-0.754412	1.127043
H66	H	1.493869	-0.658103	1.236462
H67	H	1.118528	-0.762647	0.761970
H68	H	1.396513	-0.627767	0.907102
O69	O	0.910677	-0.373613	0.373813
C70	C	0.786705	-0.359346	0.232032
C71	C	0.847081	-0.433281	0.305872
H72	H	0.735257	-0.407557	0.177098
H73	H	0.844704	-0.311277	0.184012
H74	H	0.735401	-0.304453	0.280379
H75	H	0.898386	-0.488238	0.257606
H76	H	0.789025	-0.481276	0.353895
H77	H	0.819879	-0.640634	0.640328
O78	O	1.127195	-0.373463	0.374017
C79	C	1.296217	-0.313857	0.314520
C80	C	1.235827	-0.387868	0.388265
H81	H	1.384056	-0.325493	0.325998
H82	H	1.274739	-0.229142	0.333120
H83	H	1.274551	-0.332196	0.229783
H84	H	1.257461	-0.369624	0.473027
H85	H	1.257310	-0.472560	0.369575
H86	H	1.652780	-0.806454	0.371827
H87	H	1.774867	-0.249649	0.907203
H88	H	1.653024	-1.204589	0.371958
H89	H	1.774798	-0.905977	0.250068
O90	O	1.386125	-1.113787	0.638604
C91	C	1.371984	-1.237521	0.780507
C92	C	1.445861	-1.177121	0.706632
H93	H	1.420251	-1.288724	0.835541
H94	H	1.317119	-1.289041	0.732292
H95	H	1.323881	-1.179444	0.828427
H96	H	1.494032	-1.235121	0.658696
H97	H	1.500656	-1.125584	0.754907
O98	O	1.385922	-0.897470	0.638644
C99	C	1.334880	-0.863730	0.817312
C100	C	1.408840	-0.924049	0.743419
H101	H	1.353398	-0.885180	0.902040
H102	H	1.250162	-0.885393	0.798894
H103	H	1.346375	-0.775893	0.805700
H104	H	1.397439	-1.011899	0.754990
H105	H	1.493531	-0.902298	0.761855
O106	O	1.785582	-0.238988	1.114738
C107	C	1.918878	-0.105677	1.103193
C108	C	1.844874	-0.179606	1.042876
H109	H	1.966819	-0.057632	1.045120
H110	H	1.973877	-0.153852	1.154527
H111	H	1.870661	-0.050762	1.154599
H112	H	1.893007	-0.234535	0.991413
H113	H	1.789872	-0.131365	0.991609
