data_functionalizedCrystal
_audit_creation_method	'MofGen! by Chris Wilmer'
_symmetry_space_group_name_H-M	'P1'
_symmetry_Int_Tables_number	1
_symmetry_cell_setting	triclinic
loop_
_symmetry_equiv_pos_as_xyz
  x,y,z
_cell_length_a	10.489741
_cell_length_b	11.792241
_cell_length_c	10.268362
_cell_angle_alpha	90.005428
_cell_angle_beta	89.993443
_cell_angle_gamma	95.633705
loop_
_atom_site_label
_atom_site_type_symbol
_atom_site_fract_x
_atom_site_fract_y
_atom_site_fract_z
O1	O	1.693508	-0.160138	-0.108362
O2	O	2.193508	0.339862	0.391638
O3	O	1.322261	-0.175169	-0.108351
O4	O	1.822261	0.324831	0.391649
O5	O	1.516894	-0.002507	-0.108347
O6	O	2.016894	0.497493	0.391653
O7	O	1.498876	-0.332799	-0.108365
O8	O	1.998876	0.167201	0.391635
O9	O	1.516877	-0.002500	0.108253
O10	O	2.016877	0.497500	0.608253
O11	O	1.322244	-0.175162	0.108250
O12	O	1.822244	0.324838	0.608250
O13	O	1.693491	-0.160130	0.108239
O14	O	2.193491	0.339870	0.608239
Cu15	Cu	1.507866	-0.167645	0.128022
Cu16	Cu	2.007866	0.332355	0.628022
Cu17	Cu	1.507886	-0.167654	-0.128134
Cu18	Cu	2.007886	0.332346	0.371866
O19	O	1.498858	-0.332792	0.108236
O20	O	1.998858	0.167208	0.608236
C21	C	1.274725	-0.174030	-0.000049
C22	C	1.774725	0.325970	0.499951
C23	C	1.133107	-0.170633	-0.000045
C24	C	1.633107	0.329367	0.499955
C25	C	1.515753	0.039791	-0.000047
C26	C	2.015753	0.539791	0.499953
C27	C	1.512366	0.165813	-0.000049
C28	C	2.012366	0.665813	0.499951
C29	C	1.741027	-0.161269	-0.000065
C30	C	2.241027	0.338731	0.499935
C31	C	1.882645	-0.164666	-0.000078
C32	C	2.382645	0.335334	0.499922
C33	C	1.950411	-0.274526	-0.000070
C34	C	2.450411	0.225474	0.499930
C35	C	2.042723	-0.222632	-0.106859
C36	C	2.542723	0.277368	0.393141
C37	C	2.042672	-0.222599	0.106693
C38	C	2.542672	0.277401	0.606693
C39	C	1.973092	-0.112728	-0.106955
C40	C	2.473092	0.387272	0.393045
C41	C	1.973032	-0.112709	0.106693
C42	C	2.473032	0.387291	0.606693
C43	C	2.065317	-0.060737	-0.000122
C44	C	2.565317	0.439263	0.499878
C45	C	1.499999	-0.375090	-0.000067
C46	C	1.999999	0.124910	0.499933
C47	C	1.503387	-0.501113	-0.000075
C48	C	2.003387	-0.001113	0.499925
N49	N	1.507861	-0.167639	0.308188
N50	N	2.007861	0.332361	0.808188
C51	C	1.506136	0.396542	-0.000070
C52	C	2.006136	0.896542	0.499930
C53	C	1.509598	0.268148	-0.000058
C54	C	2.009598	0.768148	0.499942
N55	N	1.507901	-0.167652	-0.308299
N56	N	2.007901	0.332348	0.191701
C57	C	1.507880	-0.167652	0.573858
C58	C	2.007880	0.332348	1.073858
C59	C	1.507865	-0.167648	0.426020
C60	C	2.007865	0.332352	0.926020
H61	H	2.073592	-0.269122	-0.197143
H62	H	2.573592	0.230878	0.302857
H63	H	1.900455	-0.364852	-0.000183
H64	H	2.400455	0.135148	0.499817
H65	H	1.942428	-0.066290	-0.197344
H66	H	2.442428	0.433710	0.302656
O67	O	2.131117	0.059045	-0.000120
O68	O	2.631117	0.559045	0.499880
H69	H	2.103215	0.104369	-0.088832
H70	H	2.603215	0.604369	0.411168
O71	O	1.932085	-0.051181	0.226288
O72	O	2.432085	0.448819	0.726288
H73	H	1.959639	-0.096954	0.314813
H74	H	2.459639	0.403046	0.814813
H75	H	2.073483	-0.269099	0.196977
H76	H	2.573483	0.230901	0.696977
