data_functionalizedCrystal
_audit_creation_method	'MofGen! by Chris Wilmer'
_symmetry_space_group_name_H-M	'P1'
_symmetry_Int_Tables_number	1
_symmetry_cell_setting	triclinic
loop_
_symmetry_equiv_pos_as_xyz
  x,y,z
_cell_length_a	17.699083
_cell_length_b	10.868271
_cell_length_c	17.699083
_cell_angle_alpha	90.005832
_cell_angle_beta	96.716985
_cell_angle_gamma	90.001072
loop_
_atom_site_label
_atom_site_type_symbol
_atom_site_fract_x
_atom_site_fract_y
_atom_site_fract_z
O1	O	1.004076	-0.102152	-0.095711
O2	O	1.337410	0.231181	0.237622
O3	O	1.670743	0.564514	0.570955
O4	O	0.783698	-0.102193	-0.108164
O5	O	1.117031	0.231140	0.225170
O6	O	1.450365	0.564474	0.558503
O7	O	0.900113	-0.102161	0.008252
O8	O	1.233447	0.231173	0.341585
O9	O	1.566780	0.564506	0.674918
O10	O	0.887661	-0.102185	-0.212127
O11	O	1.220994	0.231149	0.121207
O12	O	1.554328	0.564482	0.454540
O13	O	0.900102	0.102484	0.008255
O14	O	1.233436	0.435817	0.341589
O15	O	1.566769	0.769151	0.674922
O16	O	0.783687	0.102452	-0.108160
O17	O	1.117020	0.435785	0.225173
O18	O	1.450354	0.769118	0.558507
O19	O	1.004065	0.102492	-0.095707
O20	O	1.337399	0.435826	0.237626
O21	O	1.670732	0.769159	0.570959
Zn22	Zn	0.893874	0.134964	-0.101933
Zn23	Zn	1.227208	0.468297	0.231400
Zn24	Zn	1.560541	0.801631	0.564734
Zn25	Zn	0.893889	-0.134664	-0.101938
Zn26	Zn	1.227222	0.198669	0.231395
Zn27	Zn	1.560556	0.532002	0.564728
O28	O	0.887650	0.102460	-0.212123
O29	O	1.220983	0.435793	0.121210
O30	O	1.554317	0.769127	0.454544
C31	C	0.755495	0.000124	-0.107716
C32	C	1.088829	0.333458	0.225618
C33	C	1.422162	0.666791	0.558951
C34	C	0.671477	0.000109	-0.106377
C35	C	1.004811	0.333443	0.226956
C36	C	1.338144	0.666776	0.560290
N37	N	0.893870	0.318978	-0.101929
N38	N	1.227203	0.652311	0.231404
N39	N	1.560537	0.985645	0.564738
C40	C	0.622856	0.000102	-0.174710
C41	C	0.956190	0.333436	0.158623
C42	C	1.289523	0.666769	0.491956
C43	C	0.543913	0.000118	-0.173448
C44	C	0.877246	0.333452	0.159885
C45	C	1.210580	0.666785	0.493218
C46	C	0.513592	0.000133	-0.103852
C47	C	0.846926	0.333466	0.229482
C48	C	1.180259	0.666799	0.562815
C49	C	0.562219	0.000143	-0.035513
C50	C	0.895553	0.333477	0.297820
C51	C	1.228886	0.666810	0.631154
C52	C	0.641161	0.000136	-0.036776
C53	C	0.974495	0.333469	0.296557
C54	C	1.307828	0.666803	0.629891
C55	C	0.243856	0.000174	-0.030418
C56	C	0.577190	0.333508	0.302915
C57	C	0.910523	0.666841	0.636249
C58	C	0.164908	0.000178	-0.029160
C59	C	0.498242	0.333511	0.304173
C60	C	0.831575	0.666845	0.637507
C61	C	0.146608	0.000156	-0.167090
C62	C	0.479942	0.333490	0.166243
C63	C	0.813275	0.666823	0.499577
C64	C	0.225550	0.000149	-0.168353
C65	C	0.558883	0.333483	0.164980
C66	C	0.892217	0.666816	0.498314
C67	C	0.274170	0.000166	-0.100015
C68	C	0.607504	0.333500	0.233319
C69	C	0.940837	0.666833	0.566652
C70	C	0.359769	0.000151	-0.101384
C71	C	0.693103	0.333485	0.231949
C72	C	1.026436	0.666818	0.565282
C73	C	0.427995	0.000139	-0.102481
C74	C	0.761328	0.333472	0.230852
C75	C	1.094661	0.666806	0.564185
C76	C	0.893880	0.569984	-0.101939
C77	C	1.227213	0.903317	0.231395
C78	C	1.560546	1.236651	0.564728
C79	C	0.893872	0.430306	-0.101936
C80	C	1.227205	0.763640	0.231398
C81	C	1.560539	1.096973	0.564731
C82	C	1.032268	0.000173	-0.096156
C83	C	1.365601	0.333506	0.237178
C84	C	1.698934	0.666839	0.570511
C85	C	1.116286	0.000180	-0.097494
C86	C	1.449619	0.333513	0.235839
C87	C	1.782953	0.666846	0.569172
C88	C	0.899662	0.000162	0.036451
C89	C	1.232995	0.333495	0.369784
C90	C	1.566328	0.666829	0.703117
C91	C	0.898323	0.000162	0.120469
C92	C	1.231656	0.333495	0.453802
C93	C	1.564990	0.666829	0.787135
N94	N	0.893892	0.681322	-0.101939
N95	N	1.227225	1.014655	0.231394
N96	N	1.560559	1.347988	0.564728
C97	C	0.888102	0.000135	-0.240322
C98	C	1.221435	0.333468	0.093011
C99	C	1.554768	0.666802	0.426345
C100	C	0.889440	0.000127	-0.324340
C101	C	1.222773	0.333460	0.008993
C102	C	1.556107	0.666793	0.342327
C103	C	0.966656	0.000176	0.169090
C104	C	1.299990	0.333510	0.502423
C105	C	1.633323	0.666843	0.835756
C106	C	0.965394	0.000165	0.248033
C107	C	1.298727	0.333499	0.581366
C108	C	1.632061	0.666832	0.914700
C109	C	0.895798	0.000149	0.278354
C110	C	1.229131	0.333482	0.611687
C111	C	1.562464	0.666815	0.945020
C112	C	0.827459	0.000131	0.229727
C113	C	1.160792	0.333464	0.563060
C114	C	1.494126	0.666797	0.896393
C115	C	0.828722	0.000133	0.150785
C116	C	1.162055	0.333466	0.484118
C117	C	1.495389	0.666800	0.817451
C118	C	0.822364	0.000120	0.548090
C119	C	1.155697	0.333453	0.881423
C120	C	1.489030	0.666786	1.214756
C121	C	0.821106	0.000121	0.627038
C122	C	1.154439	0.333454	0.960371
C123	C	1.487773	0.666788	1.293704
C124	C	0.959036	0.000152	0.645338
C125	C	1.292369	0.333485	0.978671
C126	C	1.625703	0.666819	1.312004
C127	C	0.960299	0.000154	0.566396
C128	C	1.293632	0.333488	0.899729
C129	C	1.626966	0.666821	1.233063
C130	C	0.891961	0.000130	0.517776
C131	C	1.225294	0.333463	0.851109
C132	C	1.558627	0.666797	1.184442
C133	C	0.893330	0.000140	0.432177
C134	C	1.226664	0.333473	0.765510
C135	C	1.559997	0.666806	1.098843
C136	C	0.894427	0.000148	0.363951
C137	C	1.227761	0.333481	0.697285
C138	C	1.561094	0.666814	1.030618
H139	H	0.647537	0.000090	-0.231384
H140	H	0.980870	0.333423	0.101949
H141	H	1.314204	0.666756	0.435283
H142	H	0.250232	0.000132	-0.225025
H143	H	0.583566	0.333465	0.108308
H144	H	0.916899	0.666799	0.441641
H145	H	0.764429	0.000110	0.651721
H146	H	1.097762	0.333443	0.985054
H147	H	1.431096	0.666777	1.318388
H148	H	1.014680	0.000166	0.684934
H149	H	1.348013	0.333499	1.018268
H150	H	1.681347	0.666832	1.351601
H151	H	0.766718	0.000100	0.508512
H152	H	1.100052	0.333433	0.841845
H153	H	1.433385	0.666767	1.175179
H154	H	0.107012	0.000149	-0.222734
H155	H	0.440345	0.333482	0.110599
H156	H	0.773678	0.666816	0.443933
H157	H	0.283434	0.000189	0.025228
H158	H	0.616767	0.333523	0.358561
H159	H	0.950101	0.666856	0.691894
H160	H	1.016971	0.000174	0.541714
H161	H	1.350305	0.333507	0.875047
H162	H	1.683638	0.666841	1.208380
H163	H	1.023330	0.000198	0.144409
H164	H	1.356663	0.333531	0.477742
H165	H	1.689997	0.666864	0.811076
H166	H	1.021038	0.000180	0.287618
H167	H	1.354372	0.333513	0.620951
H168	H	1.687705	0.666846	0.954284
H169	H	0.140225	0.000191	0.027517
H170	H	0.473558	0.333525	0.360850
H171	H	0.806892	0.666858	0.694184
H172	H	0.770792	0.000109	0.254420
H173	H	1.104126	0.333443	0.587753
H174	H	1.437459	0.666776	0.921087
H175	H	0.537526	0.000173	0.021154
H176	H	0.870859	0.333506	0.354487
H177	H	1.204193	0.666839	0.687820
H178	H	0.680748	0.000141	0.018868
H179	H	1.014082	0.333474	0.352201
H180	H	1.347415	0.666808	0.685535
H181	H	0.773078	0.000121	0.111198
H182	H	1.106411	0.333454	0.444531
H183	H	1.439745	0.666788	0.777864
H184	H	0.504328	0.000111	-0.229092
H185	H	0.837662	0.333444	0.104241
H186	H	1.170995	0.666778	0.437574
