data_functionalizedCrystal
_audit_creation_method	'MofGen! by Chris Wilmer'
_symmetry_space_group_name_H-M	'P1'
_symmetry_Int_Tables_number	1
_symmetry_cell_setting	triclinic
loop_
_symmetry_equiv_pos_as_xyz
  x,y,z
_cell_length_a	12.645330
_cell_length_b	12.759395
_cell_length_c	12.759387
_cell_angle_alpha	89.979491
_cell_angle_beta	90.029414
_cell_angle_gamma	89.980771
loop_
_atom_site_label
_atom_site_type_symbol
_atom_site_fract_x
_atom_site_fract_y
_atom_site_fract_z
Zn1	Zn	-0.421940	-1.606247	0.594015
Zn2	Zn	-0.599242	-1.606128	0.418340
Zn3	Zn	-0.421998	-1.430545	0.418352
Zn4	Zn	-0.599167	-1.430528	0.593979
O5	O	-0.510587	-1.518362	0.506172
O6	O	-0.445467	-1.753252	0.570722
O7	O	-0.575786	-1.582794	0.271320
O8	O	-0.273643	-1.453909	0.441674
O9	O	-0.575730	-1.753165	0.441654
O10	O	-0.273600	-1.582996	0.570733
O11	O	-0.445565	-1.453794	0.271329
O12	O	-0.445492	-1.283522	0.441639
O13	O	-0.575601	-1.453880	0.741005
O14	O	-0.575657	-1.283509	0.570672
O15	O	-0.445394	-1.582980	0.741032
O16	O	-0.747579	-1.582778	0.441619
O17	O	-0.747524	-1.453765	0.570660
C18	C	-0.510574	-1.245395	0.506153
C19	C	-0.510594	-1.128618	0.506171
C20	C	-0.786016	-1.518285	0.506157
C21	C	-0.903846	-1.518349	0.506186
C22	C	-1.071420	-1.437522	0.587616
C23	C	-0.948860	-1.437108	0.587354
C24	C	-0.948450	-1.488373	0.395464
C25	C	-1.071049	-1.487880	0.395958
C26	C	-1.070930	-1.629646	0.534579
C27	C	-0.948323	-1.628964	0.537001
C28	C	-0.510483	-1.518441	0.780205
C29	C	-0.510438	-1.518475	0.896982
C30	C	-0.234081	-1.518468	0.506209
C31	C	-0.116251	-1.518513	0.506225
C32	C	-0.510600	-1.792395	0.506190
C33	C	-0.510606	-1.909172	0.506198
C34	C	-0.646354	-1.128644	0.640315
C35	C	-0.714242	-1.073796	0.707390
C36	C	-0.714255	-0.964074	0.707403
C37	C	-0.646370	-0.909198	0.640335
C38	C	-0.578482	-0.964046	0.573260
C39	C	-0.578478	-1.073770	0.573253
C40	C	-0.442718	-0.964020	0.439123
C41	C	-0.442709	-1.073742	0.439103
C42	C	-0.374833	-0.909144	0.372056
C43	C	-0.306948	-0.963992	0.304974
C44	C	-0.306939	-1.073720	0.304963
C45	C	-0.374820	-1.128590	0.372028
C46	C	-0.510614	-1.518344	0.233204
C47	C	-0.510359	-1.518513	0.116428
C48	C	-0.374862	-1.652916	0.897029
C49	C	-0.307058	-1.720151	0.951914
C50	C	-0.307019	-1.720176	1.061636
C51	C	-0.374790	-1.652958	1.116475
C52	C	-0.442594	-1.585723	1.061591
C53	C	-0.442627	-1.585707	0.951867
C54	C	-0.578163	-1.451278	1.061543
C55	C	-0.578209	-1.451256	0.951822
C56	C	-0.645934	-1.384059	1.116383
C57	C	-0.713745	-1.316828	1.061498
C58	C	-0.713781	-1.316806	0.951770
C59	C	-0.646013	-1.384021	0.896937
H60	H	-1.100824	-1.456104	0.669985
N61	N	-1.109329	-1.709574	0.456059
H62	H	-1.189143	-1.712264	0.457293
H63	H	-1.079888	-1.780771	0.474714
N64	N	-0.233985	-1.792658	0.892756
H65	H	-0.158226	-1.776394	0.911847
H66	H	-0.244400	-1.782405	0.814941
H67	H	-0.768984	-1.262044	0.907089
N68	N	-0.374918	-1.652902	0.778688
H69	H	-0.321703	-1.705686	0.752275
H70	H	-0.355462	-1.580801	0.752326
H71	H	-0.919166	-1.651570	0.618486
N72	N	-0.787484	-0.904913	0.779739
H73	H	-0.777189	-0.827079	0.769564
H74	H	-0.771083	-0.924123	0.854803
H75	H	-0.646041	-1.384014	0.807596
H76	H	-0.645893	-1.384081	1.205724
N77	N	-0.646382	-0.790856	0.640351
H78	H	-0.665779	-0.764391	0.568247
H79	H	-0.573670	-0.764540	0.659836
H80	H	-1.102324	-1.355647	0.569071
N81	N	-0.233719	-1.132871	0.232610
H82	H	-0.244010	-1.210707	0.242773
H83	H	-0.158031	-1.113719	0.249101
N84	N	-0.374849	-0.790802	0.372058
H85	H	-0.428162	-0.764381	0.424719
H86	H	-0.394213	-0.764436	0.299912
N87	N	-0.233742	-0.904809	0.232638
H88	H	-0.250119	-0.923866	0.157543
H89	H	-0.158046	-0.923958	0.249168
H90	H	-0.917676	-1.692484	0.482037
N91	N	-0.374821	-1.246931	0.372017
H92	H	-0.355429	-1.273396	0.444123
H93	H	-0.321524	-1.273272	0.319304
N94	N	-0.233882	-1.792682	1.120840
H95	H	-0.190952	-1.835258	1.069456
H96	H	-0.277025	-1.841291	1.166366
H97	H	-0.374743	-1.652975	1.205816
N98	N	-0.786811	-1.244314	1.120643
H99	H	-0.776487	-1.254522	1.198479
H100	H	-0.862539	-1.260612	1.101470
H101	H	-0.918699	-1.455863	0.669454
N102	N	-1.110327	-1.562601	0.312866
H103	H	-1.154660	-1.523021	0.260199
H104	H	-1.154588	-1.619115	0.346714
H105	H	-0.919629	-1.354719	0.568570
N106	N	-0.646354	-1.246985	0.640286
H107	H	-0.699660	-1.273426	0.692945
H108	H	-0.573621	-1.273366	0.659693
N109	N	-0.909837	-1.564020	0.312927
H110	H	-0.934120	-1.637234	0.330977
H111	H	-0.830042	-1.562176	0.310150
H112	H	-0.917843	-1.407980	0.371009
N113	N	-1.109070	-1.380275	0.364138
H114	H	-1.046190	-1.333607	0.349924
H115	H	-1.152907	-1.349244	0.422550
H116	H	-1.101767	-1.656990	0.613945
N117	N	-0.787462	-1.132981	0.779721
H118	H	-0.777161	-1.210813	0.769534
H119	H	-0.863151	-1.113771	0.763228
