data_functionalizedCrystal
_audit_creation_method	'MofGen! by Chris Wilmer'
_symmetry_space_group_name_H-M	'P1'
_symmetry_Int_Tables_number	1
_symmetry_cell_setting	triclinic
loop_
_symmetry_equiv_pos_as_xyz
  x,y,z
_cell_length_a	14.395555
_cell_length_b	12.970454
_cell_length_c	12.970454
_cell_angle_alpha	59.999776
_cell_angle_beta	90.001507
_cell_angle_gamma	59.999613
loop_
_atom_site_label
_atom_site_type_symbol
_atom_site_fract_x
_atom_site_fract_y
_atom_site_fract_z
Zr1	Zr	0.894915	1.128475	-0.135252
O2	O	0.746586	1.343573	-0.299886
O3	O	0.940386	0.913383	-0.084782
O4	O	0.940388	1.128472	-0.299873
O5	O	0.746583	1.128484	0.084872
O6	O	1.093262	1.128465	-0.299864
O7	O	0.746585	1.128483	-0.084795
O8	O	1.093259	0.743708	0.084894
O9	O	0.746586	1.513240	-0.299887
O10	O	1.073867	1.001846	-0.063252
O11	O	0.959778	1.001852	0.063362
O12	O	0.959780	1.255093	-0.189880
O13	O	0.845691	1.255099	-0.063267
Zr14	Zr	1.138730	1.128465	0.135361
Zr15	Zr	1.138732	1.128463	-0.135238
Zr16	Zr	0.894914	1.128477	0.135346
Zr17	Zr	0.894915	1.399075	-0.135254
Zr18	Zr	1.138730	0.857865	0.135362
O19	O	1.093259	1.343557	0.084891
O20	O	1.093262	1.343555	-0.299865
O21	O	0.746583	1.343575	0.084870
O22	O	1.287059	0.913367	0.299994
O23	O	1.287062	0.913365	-0.084762
O24	O	0.940384	0.913385	0.299974
O25	O	1.287062	1.128456	-0.084763
O26	O	1.093258	1.128468	0.299982
O27	O	0.940384	1.128475	0.299973
O28	O	1.287061	1.128457	0.084903
O29	O	0.940388	1.513230	-0.299875
O30	O	1.093258	0.743710	0.299984
O31	O	1.287059	0.743700	0.299995
O32	O	1.287061	0.743699	0.084905
O33	O	0.746585	1.513241	-0.084797
O34	O	0.940386	1.513232	-0.084785
O35	O	1.073866	1.001847	0.189989
O36	O	1.187955	1.001841	0.063375
O37	O	1.073867	1.255088	-0.063253
O38	O	0.959778	1.255094	0.063360
C39	C	1.016823	0.789991	0.000056
C40	C	1.016823	0.675114	0.000057
C41	C	0.711845	1.128485	0.000036
C42	C	0.608339	1.128490	0.000030
C43	C	0.485545	1.266572	-0.069002
C44	C	0.454709	1.197544	-0.119030
C45	C	0.454751	1.197513	0.050049
C46	C	0.578867	1.059462	-0.050067
C47	C	0.578905	1.059450	0.119077
C48	C	0.548143	0.990322	0.069079
C49	C	1.321800	1.128455	0.000072
C50	C	1.425307	1.128450	0.000078
C51	C	1.016825	1.128468	-0.338423
C52	C	1.016826	1.128468	-0.453299
C53	C	1.016823	1.466949	0.000053
C54	C	1.016823	1.581826	0.000052
C55	C	1.016821	1.128472	0.338532
C56	C	1.016820	1.128472	0.453408
C57	C	1.321800	0.789975	0.000074
C58	C	1.425306	0.675094	0.000081
C59	C	1.016820	0.789993	0.338533
C60	C	1.016820	0.675116	0.453410
C61	C	1.321798	0.789977	0.338552
C62	C	1.425304	0.675096	0.453434
C63	C	0.711848	1.466963	-0.338443
C64	C	0.608342	1.581844	-0.453326
C65	C	0.711845	1.466964	0.000035
C66	C	0.608339	1.581846	0.000028
C67	C	1.016825	1.466947	-0.338425
C68	C	1.016826	1.581824	-0.453302
C69	C	1.473915	0.527659	0.093560
C70	C	1.571160	0.419700	0.093571
C71	C	1.619800	0.459179	0.000106
C72	C	1.571183	0.606629	-0.093383
C73	C	1.473935	0.714584	-0.093398
C74	C	1.473919	0.527661	0.507384
C75	C	1.571184	0.419701	0.615317
C76	C	1.619828	0.459179	0.669303
C77	C	1.571208	0.606628	0.615343
C78	C	1.473949	0.714585	0.507407
C79	C	0.559735	1.729279	-0.507285
C80	C	0.462491	1.837238	-0.615242
C81	C	0.413851	1.797760	-0.669232
C82	C	0.462467	1.650311	-0.615267
C83	C	0.559714	1.542354	-0.507317
C84	C	0.559729	1.542322	0.093509
C85	C	0.462484	1.650251	0.093529
C86	C	0.413845	1.797703	0.000060
C87	C	0.462463	1.837228	-0.093426
C88	C	0.559712	1.729300	-0.093439
H89	H	0.460101	1.383332	-0.127470
H90	H	0.573800	0.873466	0.127465
C91	C	0.382369	1.276399	-0.254999
N92	N	0.327867	1.335808	-0.357407
H93	H	1.434371	0.834632	0.463494
C94	C	0.651218	0.980712	0.255016
N95	N	0.705686	0.921427	0.357402
C96	C	0.613161	1.380174	-0.447963
N97	N	0.653411	1.258020	-0.403261
C98	C	0.382476	1.276384	0.107177
N99	N	0.328038	1.335799	0.150199
H100	H	0.632226	1.001144	-0.092465
H101	H	0.599322	1.761451	-0.463338
C102	C	0.408938	1.606907	-0.674662
N103	N	0.368611	1.574220	-0.719394
H104	H	0.422920	1.957290	-0.659163
C105	C	1.420423	0.484196	0.196381
N106	N	1.380135	0.451448	0.273826
H107	H	1.610731	0.299648	0.169704
H108	H	1.698984	0.371260	0.000130
C109	C	1.624708	0.650033	-0.196183
N110	N	1.665030	0.682721	-0.273606
H111	H	0.334666	1.885680	-0.757131
H112	H	0.599315	1.422265	0.169622
C113	C	0.408931	1.999436	-0.196250
N114	N	0.368599	2.121614	-0.273706
H115	H	1.610830	0.638752	0.659314
H116	H	1.434369	0.834631	-0.169518
C117	C	1.420434	0.484200	0.448014
N118	N	1.380160	0.451454	0.403298
H119	H	1.610752	0.299650	0.659240
C120	C	0.613158	1.772802	-0.196297
N121	N	0.653407	1.805580	-0.273777
H122	H	1.699022	0.371259	0.757192
H123	H	0.422910	1.618041	0.169656
H124	H	0.334658	1.885571	0.000085
