data_functionalizedCrystal
_audit_creation_method	'MofGen! by Chris Wilmer'
_symmetry_space_group_name_H-M	'P1'
_symmetry_Int_Tables_number	1
_symmetry_cell_setting	triclinic
loop_
_symmetry_equiv_pos_as_xyz
  x,y,z
_cell_length_a	23.532357
_cell_length_b	11.026607
_cell_length_c	10.065875
_cell_angle_alpha	100.697662
_cell_angle_beta	98.726510
_cell_angle_gamma	84.292846
loop_
_atom_site_label
_atom_site_type_symbol
_atom_site_fract_x
_atom_site_fract_y
_atom_site_fract_z
O1	O	0.231635	-1.625048	-0.113556
O2	O	0.204514	-1.272078	-0.113550
O3	O	0.136265	-1.459234	-0.113525
O4	O	0.299884	-1.437892	-0.113581
O5	O	0.149346	-1.423545	0.113459
O6	O	0.217594	-1.236389	0.113434
O7	O	0.244716	-1.589359	0.113428
Zn8	Zn	0.233232	-1.407208	0.149469
Zn9	Zn	0.215997	-1.454229	-0.149592
O10	O	0.312964	-1.402203	0.113403
C11	C	0.206051	-1.209085	-0.000057
C12	C	0.191135	-1.074556	-0.000054
C13	C	0.243179	-1.652353	-0.000068
C14	C	0.258093	-1.786883	-0.000080
C15	C	0.121533	-1.440855	-0.000029
C16	C	0.058146	-1.439247	-0.000016
C17	C	-0.342060	-1.448633	-0.123819
C18	C	-0.401620	-1.447107	-0.123826
O19	O	-0.438488	-1.462822	-0.229053
N20	N	-0.424281	-1.426897	-0.000099
C21	C	-0.387378	-1.408198	0.123644
O22	O	-0.412122	-1.390866	0.228883
C23	C	-0.327819	-1.409714	0.123650
C24	C	-0.305162	-1.429939	-0.000085
C25	C	-0.319402	-1.468854	-0.247544
C26	C	-0.259845	-1.470381	-0.247535
C27	C	-0.222947	-1.451687	-0.123802
C28	C	-0.245605	-1.431466	-0.000077
C29	C	-0.290918	-1.391007	0.247392
C30	C	-0.231355	-1.392524	0.247388
C31	C	-0.208698	-1.412748	0.123652
C32	C	-0.149150	-1.414299	0.123665
N33	N	-0.126490	-1.434509	-0.000062
C34	C	-0.163388	-1.453204	-0.123796
C35	C	-0.512456	-1.405012	0.123621
C36	C	-0.572014	-1.403504	0.123616
C37	C	-0.586252	-1.442412	-0.123854
C38	C	-0.526693	-1.443928	-0.123848
C39	C	-0.489796	-1.425223	-0.000106
C40	C	-0.038315	-1.456410	-0.123769
C41	C	0.021248	-1.457941	-0.123750
C42	C	0.035481	-1.419027	0.123720
C43	C	-0.024076	-1.417503	0.123702
C44	C	-0.060973	-1.436192	-0.000054
O45	O	-0.112248	-1.398589	0.228838
O46	O	-0.138637	-1.470517	-0.229017
C47	C	0.327696	-1.420583	-0.000096
C48	C	0.391082	-1.422192	-0.000118
N49	N	0.244995	-1.375125	0.353571
C50	C	0.232319	-1.000240	-0.000069
C51	C	0.216904	-0.861197	-0.000065
N52	N	0.204231	-1.486321	-0.353693
C53	C	0.220086	-1.443059	0.421359
C54	C	0.229144	-1.418377	0.578523
H55	H	0.039692	-1.474413	-0.224514
C56	C	0.295369	-1.053342	-0.000099
C57	C	0.325593	-1.117620	0.117754
C58	C	0.388644	-1.170721	0.117719
C59	C	0.421470	-1.159543	-0.000169
C60	C	0.391245	-1.095263	-0.118030
C61	C	0.328195	-1.042162	-0.117995
H62	H	0.301294	-1.125897	0.205029
H63	H	0.411019	-1.218306	0.204968
H64	H	0.468144	-1.198852	-0.000194
H65	H	0.415545	-1.086986	-0.205305
H66	H	0.305820	-0.994577	-0.205245
C67	C	-0.078896	-1.476978	-0.259898
C68	C	-0.072255	-1.598499	-0.361962
C69	C	-0.112836	-1.619075	-0.498089
C70	C	-0.160057	-1.518131	-0.532153
C71	C	-0.166699	-1.396601	-0.430087
C72	C	-0.126119	-1.376025	-0.293960
H73	H	-0.037298	-1.673231	-0.336748
H74	H	-0.107918	-1.709040	-0.573645
H75	H	-0.190097	-1.533363	-0.632923
H76	H	-0.201657	-1.321869	-0.455301
H77	H	-0.131036	-1.286060	-0.218404
H78	H	0.257175	-1.341934	0.636833
H79	H	0.192051	-1.519489	0.363045
H80	H	0.144463	-1.035248	-0.000073
H81	H	0.170228	-0.821895	-0.000084
H82	H	0.176195	-1.562755	0.587997
C83	C	-0.315840	-1.368763	0.383492
C84	C	-0.350507	-1.467622	0.417521
C85	C	-0.375433	-1.445380	0.553625
C86	C	-0.365693	-1.324279	0.655699
C87	C	-0.331024	-1.225412	0.621673
C88	C	-0.306098	-1.247654	0.485570
H89	H	-0.357720	-1.557275	0.341957
H90	H	-0.401098	-1.518568	0.578812
H91	H	-0.384144	-1.307814	0.756451
H92	H	-0.323812	-1.135759	0.697237
H93	H	-0.280434	-1.174466	0.460382
C94	C	0.282865	-1.271865	0.432338
C95	C	0.336816	-1.303603	0.530579
C96	C	0.374688	-1.200340	0.609343
C97	C	0.358608	-1.065338	0.589865
C98	C	0.304655	-1.033594	0.491620
C99	C	0.266783	-1.136857	0.412856
H100	H	0.348722	-1.403545	0.545002
H101	H	0.414628	-1.223840	0.682071
H102	H	0.386643	-0.988897	0.648171
H103	H	0.292749	-0.933652	0.477197
H104	H	0.226843	-1.113357	0.340128
H105	H	-0.241404	-1.486845	-0.348294
H106	H	0.304768	-0.826188	-0.000087
C107	C	0.076074	-1.398453	0.259825
C108	C	0.078087	-1.487432	0.361924
C109	C	0.118681	-1.466844	0.498030
C110	C	0.157262	-1.357277	0.532038
C111	C	0.155250	-1.268291	0.429937
C112	C	0.114656	-1.288879	0.293830
H113	H	0.049526	-1.568546	0.336751
H114	H	0.120170	-1.532718	0.573612
H115	H	0.187311	-1.342037	0.632792
H116	H	0.183811	-1.187176	0.455109
H117	H	0.113167	-1.223005	0.218248
C118	C	-0.501773	-1.466164	-0.259957
C119	C	-0.511520	-1.587260	-0.362036
C120	C	-0.486604	-1.609494	-0.498152
C121	C	-0.451941	-1.510632	-0.532189
C122	C	-0.442193	-1.389528	-0.430107
C123	C	-0.467109	-1.367294	-0.293991
H124	H	-0.537181	-1.660451	-0.336843
H125	H	-0.493820	-1.699143	-0.573719
H126	H	-0.433496	-1.527090	-0.632949
H127	H	-0.416532	-1.316337	-0.455300
H128	H	-0.459892	-1.277644	-0.218424
H129	H	-0.616306	-1.457629	-0.224605
H130	H	-0.590455	-1.387054	0.224374
H131	H	-0.482417	-1.389783	0.224393
H132	H	-0.349440	-1.484073	-0.348308
H133	H	-0.201316	-1.377273	0.348156
H134	H	-0.042524	-1.401046	0.224457
