data_functionalizedCrystal
_audit_creation_method	'MofGen! by Chris Wilmer'
_symmetry_space_group_name_H-M	'P1'
_symmetry_Int_Tables_number	1
_symmetry_cell_setting	triclinic
loop_
_symmetry_equiv_pos_as_xyz
  x,y,z
_cell_length_a	10.654550
_cell_length_b	23.532407
_cell_length_c	9.130313
_cell_angle_alpha	89.994125
_cell_angle_beta	89.996220
_cell_angle_gamma	83.666790
loop_
_atom_site_label
_atom_site_type_symbol
_atom_site_fract_x
_atom_site_fract_y
_atom_site_fract_z
O1	O	1.665300	0.079982	-0.121936
O2	O	1.299580	0.087603	-0.121914
O3	O	1.493468	0.000933	-0.121899
O4	O	1.471412	0.166652	-0.121952
O5	O	1.493466	0.000935	0.121700
O6	O	1.299578	0.087605	0.121684
O7	O	1.665298	0.079985	0.121662
Cu8	Cu	1.482437	0.083795	0.143916
Cu9	Cu	1.482440	0.083792	-0.144168
O10	O	1.471409	0.166655	0.121647
C11	C	1.252799	0.087044	-0.000112
C12	C	1.113408	0.085370	-0.000102
C13	C	1.032306	0.136400	-0.000140
C14	C	0.901335	0.134824	-0.000165
C15	C	0.932582	0.031183	-0.000121
C16	C	1.063550	0.032760	-0.000085
C17	C	1.014265	0.196236	-0.000172
C18	C	0.883294	0.194660	-0.000196
C19	C	1.492905	-0.020286	-0.000096
C20	C	1.491217	-0.083514	-0.000085
C21	C	1.595364	-0.481938	-0.000171
C22	C	1.593795	-0.541349	-0.000182
O23	O	1.690341	-0.577464	-0.000242
N24	N	1.478529	-0.564726	-0.000174
C25	C	1.364824	-0.528689	-0.000170
O26	O	1.266636	-0.554029	-0.000166
C27	C	1.366394	-0.469280	-0.000170
C28	C	1.481668	-0.445906	-0.000163
C29	C	1.710629	-0.458564	-0.000166
C30	C	1.712197	-0.399158	-0.000152
C31	C	1.598500	-0.363126	-0.000144
C32	C	1.483236	-0.386500	-0.000149
C33	C	1.252690	-0.433244	-0.000176
C34	C	1.254270	-0.373832	-0.000177
C35	C	1.369544	-0.350458	-0.000170
C36	C	1.371107	-0.291061	-0.000127
N37	N	1.486374	-0.267684	-0.000135
C38	C	1.600070	-0.303716	-0.000143
C39	C	1.361535	-0.653453	-0.000174
C40	C	1.359964	-0.712861	-0.000164
C41	C	1.588936	-0.725517	-0.000179
C42	C	1.590506	-0.666108	-0.000178
C43	C	1.476802	-0.630076	-0.000182
C44	C	1.603355	-0.178958	-0.000113
C45	C	1.604913	-0.119546	-0.000093
C46	C	1.375942	-0.106896	-0.000086
C47	C	1.374383	-0.166303	-0.000098
C48	C	1.488100	-0.202333	-0.000117
O49	O	1.274613	-0.254911	-0.000073
O50	O	1.698241	-0.278369	-0.000167
C51	C	1.712079	0.080543	-0.000143
C52	C	1.851469	0.082217	-0.000163
C53	C	1.471972	0.187873	-0.000159
C54	C	1.473661	0.251101	-0.000180
N55	N	1.482445	0.083797	0.346539
N56	N	1.482443	0.083786	-0.346791
C57	C	1.568320	0.045432	0.423197
C58	C	1.568317	0.045425	0.576534
C59	C	1.396559	0.122152	0.576540
C60	C	1.396557	0.122156	0.423206
C61	C	1.667487	0.001136	0.423195
C62	C	1.667483	0.001129	0.576532
H63	H	0.891971	-0.011650	-0.000129
H64	H	1.161675	-0.344497	-0.000182
C65	C	1.052900	0.227850	0.137543
C66	C	1.024847	0.204952	0.290736
C67	C	1.063483	0.236564	0.428447
C68	C	1.130172	0.291075	0.412965
C69	C	1.158228	0.313976	0.259766
C70	C	1.119592	0.282364	0.122055
H71	H	0.975477	0.164597	0.302202
H72	H	1.042713	0.219611	0.541855
H73	H	1.158772	0.314476	0.514907
H74	H	1.207598	0.354331	0.248299
H75	H	1.140362	0.299318	0.008646
H76	H	0.837048	0.212744	0.104966
C77	C	1.797428	0.014320	0.632770
C78	C	1.877294	-0.029357	0.729743
C79	C	2.007227	-0.016161	0.785988
C80	C	2.057294	0.040711	0.745259
C81	C	1.977427	0.084392	0.648280
C82	C	1.847494	0.071196	0.592036
H83	H	1.840232	-0.071460	0.759898
H84	H	2.066349	-0.048497	0.857778
H85	H	2.153478	0.050480	0.786894
H86	H	2.014488	0.126496	0.618126
H87	H	1.788371	0.103532	0.520246
C88	C	0.825941	0.225106	-0.137944
C89	C	0.912032	0.251240	-0.248970
C90	C	0.854681	0.281682	-0.386715
C91	C	0.711239	0.285990	-0.413433
C92	C	0.625139	0.259855	-0.302403
C93	C	0.682490	0.229413	-0.164659
H94	H	1.018225	0.248052	-0.229194
H95	H	0.918419	0.301028	-0.468906
H96	H	0.668784	0.308525	-0.515400
H97	H	0.518947	0.263043	-0.322179
H98	H	0.618753	0.210066	-0.082468
H99	H	1.129581	-0.008793	-0.000034
H100	H	1.698787	-0.100519	-0.000084
H101	H	1.049317	0.215288	-0.105349
H102	H	1.647430	-0.042635	0.381590
C103	C	1.728442	-0.218586	-0.000121
C104	C	1.823091	-0.215639	0.126381
C105	C	1.948177	-0.255267	0.126385
C106	C	1.978614	-0.297841	-0.000114
C107	C	1.883963	-0.300790	-0.126626
C108	C	1.758877	-0.261162	-0.126629
H109	H	1.800562	-0.184122	0.220031
H110	H	2.018243	-0.253084	0.220038
H111	H	2.071210	-0.327176	-0.000111
H112	H	1.906492	-0.332307	-0.220276
H113	H	1.688811	-0.263345	-0.220282
H114	H	1.280517	-0.185334	-0.000063
C115	C	1.835709	-0.498193	-0.000167
C116	C	1.930356	-0.495239	0.126334
C117	C	2.055447	-0.534863	0.126346
C118	C	2.085891	-0.577441	-0.000143
C119	C	1.991242	-0.580397	-0.126653
C120	C	1.866151	-0.540773	-0.126666
H121	H	1.907822	-0.463719	0.219977
H122	H	2.125512	-0.532675	0.219998
H123	H	2.178490	-0.606773	-0.000134
H124	H	2.013776	-0.611917	-0.220297
H125	H	1.796086	-0.542961	-0.220318
C126	C	1.302091	0.164349	0.660877
C127	C	1.302299	0.164446	0.829538
C128	C	1.207830	0.206644	0.913870
C129	C	1.113153	0.248745	0.829542
C130	C	1.112941	0.248649	0.660871
C131	C	1.207410	0.206451	0.576539
H132	H	1.372388	0.133279	0.891971
H133	H	1.207987	0.206714	1.038732
H134	H	1.043221	0.279982	0.891970
H135	H	1.042852	0.279816	0.598438
H136	H	1.207253	0.206380	0.451677
H137	H	1.806065	-0.380133	-0.000153
C138	C	1.628070	-0.054750	0.640821
C139	C	1.511135	-0.053123	0.740505
C140	C	1.471733	-0.109001	0.804807
C141	C	1.549265	-0.166506	0.769425
C142	C	1.666207	-0.168135	0.669737
C143	C	1.705609	-0.112257	0.605435
H144	H	1.453734	-0.010553	0.766701
H145	H	1.385164	-0.107795	0.878603
H146	H	1.520097	-0.207870	0.817025
H147	H	1.723608	-0.210705	0.643541
H148	H	1.792178	-0.113463	0.531639
H149	H	1.684372	-0.647081	-0.000174
H150	H	1.283373	-0.077548	-0.000074
C151	C	1.790072	0.019874	0.358923
C152	C	1.918049	-0.014397	0.394305
C153	C	2.040632	0.004344	0.330034
C154	C	2.035239	0.057356	0.230380
C155	C	1.907258	0.091630	0.194993
C156	C	1.784674	0.072889	0.259264
H157	H	1.922045	-0.053643	0.468079
H158	H	2.135372	-0.021029	0.356230
H159	H	2.125983	0.071229	0.182803
H160	H	1.903261	0.130876	0.121219
H161	H	1.689934	0.098262	0.233067
H162	H	1.266096	-0.731887	-0.000144
H163	H	1.681514	-0.754865	-0.000191
H164	H	1.268937	-0.624119	-0.000164
H165	H	1.158822	-0.452264	-0.000190
H166	H	1.326620	0.153390	0.360792
