data_functionalizedCrystal
_audit_creation_method	'MofGen! by Chris Wilmer'
_symmetry_space_group_name_H-M	'P1'
_symmetry_Int_Tables_number	1
_symmetry_cell_setting	triclinic
loop_
_symmetry_equiv_pos_as_xyz
  x,y,z
_cell_length_a	10.489741
_cell_length_b	10.489711
_cell_length_c	13.330367
_cell_angle_alpha	90.008525
_cell_angle_beta	89.994717
_cell_angle_gamma	84.533091
loop_
_atom_site_label
_atom_site_type_symbol
_atom_site_fract_x
_atom_site_fract_y
_atom_site_fract_z
O1	O	0.179769	1.694082	0.083459
O2	O	0.196701	1.322882	0.083453
O3	O	0.002636	1.516928	0.083450
O4	O	0.373834	1.500035	0.083462
O5	O	0.002667	1.516899	-0.083397
O6	O	0.196732	1.322852	-0.083394
O7	O	0.179800	1.694052	-0.083388
Cu8	Cu	0.188269	1.508449	-0.098625
Cu9	Cu	0.188232	1.508485	0.098691
O10	O	0.373865	1.500006	-0.083385
C11	C	0.195446	1.275334	0.000029
C12	C	0.191644	1.133703	0.000026
C13	C	-0.044880	1.515638	0.000027
C14	C	-0.186509	1.511820	0.000029
C15	C	0.308348	0.951317	0.000042
C16	C	0.250038	1.043477	0.082303
C17	C	0.250037	1.043421	-0.082196
C18	C	0.126495	0.973526	0.082377
C19	C	0.126511	0.973460	-0.082195
C20	C	0.068111	1.065593	0.000086
C21	C	-0.254636	1.388354	0.000034
C22	C	-0.346749	1.446664	-0.082229
C23	C	-0.346755	1.446722	0.082269
C24	C	-0.276757	1.570181	-0.082302
C25	C	-0.276753	1.570222	0.082270
C26	C	-0.368839	1.628622	-0.000013
C27	C	0.421381	1.501296	0.000040
C28	C	0.563010	1.505114	0.000045
C29	C	0.181055	1.741600	0.000039
C30	C	0.184857	1.883231	0.000048
N31	N	0.188294	1.508434	-0.237407
C32	C	0.266323	1.586573	-0.710015
C33	C	0.110090	1.430434	-0.710012
C34	C	0.110110	1.430415	-0.604994
C35	C	0.188236	1.508479	-0.552481
C36	C	0.266342	1.586560	-0.604987
C37	C	0.031996	1.352344	-0.552480
C38	C	0.032011	1.352324	-0.447455
C39	C	0.110145	1.430382	-0.394941
C40	C	0.188255	1.508465	-0.447453
C41	C	0.266381	1.586529	-0.394941
C42	C	0.344499	1.664607	-0.447451
C43	C	0.344475	1.664618	-0.552473
C44	C	0.110168	1.430371	-0.289919
C45	C	0.266400	1.586516	-0.289913
N46	N	0.188197	1.508510	0.237472
H47	H	0.302280	1.074484	0.151849
O48	O	-0.434233	1.763243	-0.000075
H49	H	-0.404866	1.814774	0.067576
H50	H	0.074315	0.942425	-0.151748
O51	O	0.350677	1.670711	-0.233282
H52	H	0.337576	1.657582	-0.151431
H53	H	-0.245917	1.622364	-0.151927
H54	H	-0.031621	1.288800	-0.595243
O55	O	-0.066491	1.131035	0.000131
H56	H	-0.080794	1.192384	0.067810
O57	O	0.428770	1.748798	-0.390811
H58	H	0.415657	1.735661	-0.308962
O59	O	-0.387800	1.377460	-0.174361
H60	H	-0.437277	1.293272	-0.151196
O61	O	-0.188836	1.253897	-0.000083
H62	H	-0.083489	1.257937	0.000617
H63	H	0.409850	0.901626	0.000127
H64	H	0.329928	1.650139	-0.752774
H65	H	-0.245727	1.622432	0.151823
O66	O	0.428700	1.748853	-0.609105
H67	H	0.415540	1.735764	-0.690955
O68	O	-0.387803	1.377527	0.174397
H69	H	-0.341625	1.277822	0.174214
H70	H	0.046562	1.366804	-0.247170
H71	H	0.046476	1.366886	-0.752774
H72	H	0.302323	1.074364	-0.151742
O73	O	-0.052224	1.268103	-0.390820
H74	H	-0.106544	1.213817	-0.444980
H75	H	0.074279	0.942729	0.152004
