data_functionalizedCrystal
_audit_creation_method	'MofGen! by Chris Wilmer'
_symmetry_space_group_name_H-M	'P1'
_symmetry_Int_Tables_number	1
_symmetry_cell_setting	triclinic
loop_
_symmetry_equiv_pos_as_xyz
  x,y,z
_cell_length_a	17.699077
_cell_length_b	17.699104
_cell_length_c	16.176319
_cell_angle_alpha	90.011330
_cell_angle_beta	89.993140
_cell_angle_gamma	96.713953
loop_
_atom_site_label
_atom_site_type_symbol
_atom_site_fract_x
_atom_site_fract_y
_atom_site_fract_z
O1	O	1.004089	-0.095691	-0.068744
O2	O	1.504089	0.404309	0.431256
O3	O	0.783711	-0.108148	-0.068749
O4	O	1.283711	0.391852	0.431251
O5	O	0.900118	0.008269	-0.068731
O6	O	1.400118	0.508269	0.431269
O7	O	0.887682	-0.212107	-0.068761
O8	O	1.387682	0.287893	0.431239
O9	O	0.900102	0.008276	0.068762
O10	O	1.400102	0.508276	0.568762
O11	O	0.783695	-0.108140	0.068744
O12	O	1.283695	0.391860	0.568744
O13	O	1.004073	-0.095683	0.068749
O14	O	1.504073	0.404317	0.568749
Cu15	Cu	0.893882	-0.101911	0.081301
Cu16	Cu	1.393882	0.398089	0.581301
Cu17	Cu	0.893901	-0.101920	-0.081301
Cu18	Cu	1.393901	0.398080	0.418699
O19	O	0.887666	-0.212100	0.068732
O20	O	1.387666	0.287900	0.568732
C21	C	0.755506	-0.107698	-0.000003
C22	C	1.255506	0.392302	0.499997
C23	C	0.671487	-0.106362	-0.000004
C24	C	1.171487	0.393638	0.499996
C25	C	0.632011	-0.105728	0.074944
C26	C	1.132011	0.394272	0.574944
C27	C	0.553068	-0.104460	0.074945
C28	C	1.053068	0.395540	0.574945
C29	C	0.513603	-0.103831	-0.000003
C30	C	1.013603	0.396169	0.499997
C31	C	0.553085	-0.104463	-0.074957
C32	C	1.053085	0.395537	0.425043
C33	C	0.632027	-0.105725	-0.074957
C34	C	1.132027	0.394275	0.425043
C35	C	0.234721	-0.099369	-0.074958
C36	C	0.734721	0.400631	0.425042
C37	C	0.155773	-0.098109	-0.074952
C38	C	0.655773	0.401891	0.425048
C39	C	0.155763	-0.098104	0.074945
C40	C	0.655763	0.401896	0.574945
C41	C	0.234705	-0.099366	0.074945
C42	C	0.734705	0.400634	0.574945
C43	C	0.274180	-0.099994	-0.000009
C44	C	0.774180	0.400006	0.499991
C45	C	0.359779	-0.101368	-0.000009
C46	C	0.859779	0.398632	0.499991
C47	C	0.428005	-0.102463	-0.000004
C48	C	0.928005	0.397537	0.499996
C49	C	0.899661	0.036469	0.000017
C50	C	1.399661	0.536469	0.500017
C51	C	0.898317	0.120487	0.000023
C52	C	1.398317	0.620487	0.500023
C53	C	0.959061	0.645359	0.000037
C54	C	1.459061	1.145359	0.500037
C55	C	0.960320	0.566415	0.000039
C56	C	1.460320	1.066415	0.500039
C57	C	0.891984	0.517796	0.000036
C58	C	1.391984	1.017796	0.500036
C59	C	0.822385	0.548125	0.000040
C60	C	1.322385	1.048125	0.500040
C61	C	0.821127	0.627067	0.000044
C62	C	1.321127	1.127067	0.500044
C63	C	0.827458	0.229759	0.000025
C64	C	1.327458	0.729759	0.500025
C65	C	0.828722	0.150811	0.000019
C66	C	1.328722	0.650811	0.500019
C67	C	0.966651	0.169107	0.000020
C68	C	1.466651	0.669107	0.500020
C69	C	0.965393	0.248049	0.000024
C70	C	1.465393	0.748049	0.500024
C71	C	0.895794	0.278371	0.000032
C72	C	1.395794	0.778371	0.500032
C73	C	0.894430	0.363971	0.000032
C74	C	1.394430	0.863971	0.500032
C75	C	0.893348	0.432198	0.000031
C76	C	1.393348	0.932198	0.500031
C77	C	1.032278	-0.096133	0.000001
C78	C	1.532278	0.403867	0.500001
C79	C	1.116296	-0.097469	-0.000003
C80	C	1.616296	0.402531	0.499997
N81	N	0.893875	-0.101904	0.195666
N82	N	1.393875	0.398096	0.695666
C83	C	0.888122	0.759700	-0.000002
C84	C	1.388122	1.259700	0.499998
C85	C	0.889467	0.675682	0.000038
C86	C	1.389467	1.175682	0.500038
N87	N	0.893915	-0.101920	-0.195666
N88	N	1.393915	0.398080	0.304334
C89	C	0.945435	-0.050376	0.238938
C90	C	1.445435	0.449624	0.738938
C91	C	0.945439	-0.050375	0.325485
C92	C	1.445439	0.449625	0.825485
C93	C	0.893885	-0.101907	0.368759
C94	C	1.393885	0.398093	0.868759
C95	C	0.842319	-0.153438	0.325481
C96	C	1.342319	0.346562	0.825481
C97	C	0.842312	-0.153434	0.238935
C98	C	1.342312	0.346566	0.738935
C99	C	0.842345	-0.153452	0.674509
C100	C	1.342345	0.346548	1.174509
C101	C	0.842357	-0.153453	0.761061
C102	C	1.342357	0.346547	1.261061
C103	C	0.945472	-0.050393	0.761059
C104	C	1.445472	0.449607	1.261059
C105	C	0.945465	-0.050390	0.674514
C106	C	1.445465	0.449610	1.174514
C107	C	0.893896	-0.101917	0.631243
C108	C	1.393896	0.398083	1.131243
C109	C	0.893892	-0.101917	0.537399
C110	C	1.393892	0.398083	1.037399
C111	C	0.893893	-0.101912	0.462601
C112	C	1.393893	0.398088	0.962601
H113	H	0.520946	-0.103945	-0.135981
H114	H	1.020946	0.396055	0.364019
H115	H	0.764457	0.651754	0.000052
H116	H	1.264457	1.151754	0.500052
H117	H	0.664138	-0.106246	0.135976
H118	H	1.164138	0.393754	0.635976
O119	O	0.995502	-0.000222	0.367424
O120	O	1.495502	0.499778	0.867424
C121	C	0.983336	0.074690	0.346312
C122	C	1.483336	0.574690	0.846312
H123	H	0.954152	0.074564	0.283484
H124	H	1.454152	0.574564	0.783484
H125	H	1.040298	0.112025	0.343339
H126	H	1.540298	0.612025	0.843339
H127	H	0.945721	0.098057	0.395039
H128	H	1.445721	0.598057	0.895039
O129	O	0.273024	-0.099840	0.147771
O130	O	0.773024	0.400160	0.647771
C131	C	0.262406	-0.034014	0.193383
C132	C	0.762406	0.465986	0.693383
H133	H	0.246783	0.012126	0.149533
H134	H	0.746783	0.512126	0.649533
H135	H	0.317235	-0.012846	0.227382
H136	H	0.817235	0.487154	0.727382
H137	H	0.214614	-0.048092	0.240116
H138	H	0.714614	0.451908	0.740116
O139	O	0.117401	-0.097349	0.147736
O140	O	0.617401	0.402651	0.647736
C141	C	0.080417	-0.031103	0.152228
C142	C	0.580417	0.468897	0.652228
H143	H	0.110287	0.014312	0.109702
H144	H	0.610287	0.514312	0.609702
H145	H	0.082437	-0.009093	0.218521
H146	H	0.582437	0.490907	0.718521
H147	H	0.018624	-0.044957	0.132093
H148	H	0.518624	0.455043	0.632093
H149	H	0.987459	-0.008434	0.796299
H150	H	1.487459	0.491566	1.296299
H151	H	0.773072	0.111227	0.000018
H152	H	1.273072	0.611227	0.500018
O153	O	0.792303	-0.203595	0.196935
O154	O	1.292303	0.296405	0.696935
C155	C	0.804457	-0.278505	0.218073
C156	C	1.304457	0.221495	0.718073
H157	H	0.865052	-0.278801	0.241850
H158	H	1.365052	0.221199	0.741850
H159	H	0.795677	-0.316498	0.161148
H160	H	1.295677	0.183502	0.661148
H161	H	0.762472	-0.300791	0.268313
H162	H	1.262472	0.199209	0.768313
H163	H	0.770787	0.254436	0.000022
H164	H	1.270787	0.754436	0.500022
H165	H	1.016990	0.541730	0.000039
H166	H	1.516990	1.041730	0.500039
H167	H	0.123642	-0.097596	-0.135988
H168	H	0.623642	0.402404	0.364012
O169	O	0.272939	-0.100012	-0.147839
O170	O	0.772939	0.399988	0.352161
C171	C	0.221177	-0.099168	-0.213986
C172	C	0.721177	0.400832	0.286014
H173	H	0.161728	-0.122225	-0.192014
H174	H	0.661728	0.377775	0.307986
H175	H	0.239119	-0.136261	-0.266416
H176	H	0.739119	0.363739	0.233584
H177	H	0.220830	-0.038338	-0.237018
H178	H	0.720830	0.461662	0.262982
O179	O	0.670254	-0.106378	-0.147836
O180	O	1.170254	0.393622	0.352164
C181	C	0.618497	-0.105536	-0.213989
C182	C	1.118497	0.394464	0.286011
H183	H	0.559045	-0.128586	-0.192019
H184	H	1.059045	0.371414	0.307981
H185	H	0.636439	-0.142636	-0.266412
H186	H	1.136439	0.357364	0.233588
H187	H	0.618156	-0.044707	-0.237027
H188	H	1.118156	0.455293	0.262973
O189	O	1.031754	0.295307	-0.000120
O190	O	1.531754	0.795307	0.499880
C191	C	1.035154	0.341522	-0.071316
C192	C	1.535154	0.841522	0.428684
H193	H	0.996403	0.312536	-0.121090
H194	H	1.496403	0.812536	0.378910
H195	H	1.096139	0.350504	-0.095216
H196	H	1.596139	0.850504	0.404784
H197	H	1.015669	0.398896	-0.055215
H198	H	1.515669	0.898896	0.444785
O199	O	0.755954	0.500974	-0.000075
O200	O	1.255954	1.000974	0.499925
C201	C	0.713709	0.514681	-0.071294
C202	C	1.213709	1.014681	0.428706
H203	H	0.732407	0.574597	-0.095028
H204	H	1.232407	1.074597	0.404972
H205	H	0.650572	0.509016	-0.055283
H206	H	1.150572	1.009016	0.444717
H207	H	0.723986	0.471516	-0.121162
H208	H	1.223986	0.971516	0.378838
O209	O	1.025513	0.692476	0.000074
O210	O	1.525513	1.192476	0.500074
C211	C	1.087207	0.648779	0.000054
C212	C	1.587207	1.148779	0.500054
H213	H	1.067882	0.589829	0.026082
H214	H	1.567882	1.089829	0.526082
H215	H	1.135074	0.677989	0.039974
H216	H	1.635074	1.177989	0.539974
H217	H	1.108554	0.643186	-0.065908
H218	H	1.608554	1.143186	0.434092
O219	O	0.995396	-0.000256	0.196834
O220	O	1.495396	0.499744	0.696834
C221	C	0.954918	0.046397	0.146837
C222	C	1.454918	0.546397	0.646837
H223	H	0.895656	0.016150	0.133857
H224	H	1.395656	0.516150	0.633857
H225	H	0.986525	0.058463	0.085982
H226	H	1.486525	0.558463	0.585982
H227	H	0.949843	0.102304	0.180240
H228	H	1.449843	0.602304	0.680240
O229	O	1.034195	0.139526	0.000058
O230	O	1.534195	0.639526	0.500058
C231	C	1.020659	0.059424	0.000036
C232	C	1.520659	0.559424	0.500036
H233	H	0.961559	0.040784	0.026068
H234	H	1.461559	0.540784	0.526068
H235	H	1.065181	0.035272	0.039952
H236	H	1.565181	0.535272	0.539952
H237	H	1.024290	0.037446	-0.065927
H238	H	1.524290	0.537446	0.434073
H239	H	0.987447	-0.008430	0.639283
H240	H	1.487447	0.491570	1.139283
O241	O	0.792197	-0.203538	0.802970
O242	O	1.292197	0.296462	1.302970
C243	C	0.746690	-0.249028	0.746221
C244	C	1.246690	0.250972	1.246221
H245	H	0.745887	-0.217998	0.684536
H246	H	1.245887	0.282002	1.184536
H247	H	0.686232	-0.260643	0.771243
H248	H	1.186232	0.239357	1.271243
H249	H	0.771152	-0.305227	0.736996
H250	H	1.271152	0.194773	1.236996
H251	H	0.800358	-0.195409	0.639285
H252	H	1.300358	0.304591	1.139285
H253	H	0.800339	-0.195394	0.360719
H254	H	1.300339	0.304606	0.860719
H255	H	0.520932	-0.103931	0.135976
H256	H	1.020932	0.396069	0.635976
