data_functionalizedCrystal
_audit_creation_method	'MofGen! by Chris Wilmer'
_symmetry_space_group_name_H-M	'P1'
_symmetry_Int_Tables_number	1
_symmetry_cell_setting	triclinic
loop_
_symmetry_equiv_pos_as_xyz
  x,y,z
_cell_length_a	12.594517
_cell_length_b	21.295418
_cell_length_c	12.594509
_cell_angle_alpha	90.034557
_cell_angle_beta	90.021327
_cell_angle_gamma	90.027200
loop_
_atom_site_label
_atom_site_type_symbol
_atom_site_fract_x
_atom_site_fract_y
_atom_site_fract_z
Zn1	Zn	1.627183	-0.250594	0.601813
Zn2	Zn	1.627039	-0.355872	0.423815
Zn3	Zn	1.449187	-0.250621	0.423842
Zn4	Zn	1.449134	-0.355828	0.601745
O5	O	1.538136	-0.303229	0.512804
O6	O	1.776110	-0.264566	0.578219
O7	O	1.603408	-0.341940	0.274873
O8	O	1.472881	-0.162528	0.447490
O9	O	1.776004	-0.341914	0.447444
O10	O	1.603654	-0.162508	0.578245
O11	O	1.472741	-0.264612	0.274893
O12	O	1.300234	-0.264570	0.447424
O13	O	1.472791	-0.341839	0.750700
O14	O	1.300195	-0.341865	0.578129
O15	O	1.603603	-0.264524	0.750750
O16	O	1.603357	-0.443956	0.447378
O17	O	1.472651	-0.443924	0.578102
C18	C	1.261595	-0.303216	0.512773
C19	C	1.143289	-0.303226	0.512784
C20	C	1.074026	-0.261127	0.441830
C21	C	1.003196	-0.318547	0.415639
C22	C	1.003320	-0.245834	0.538993
C23	C	1.074017	-0.360676	0.486543
C24	C	1.074148	-0.287924	0.609942
C25	C	1.003349	-0.345384	0.583788
C26	C	1.538011	-0.466780	0.512753
C27	C	1.538055	-0.536748	0.512767
C28	C	1.606450	-1.036202	0.444907
C29	C	1.606409	-0.970460	0.444882
C30	C	1.538285	-0.937588	0.512878
C31	C	1.470178	-0.970464	0.580886
C32	C	1.470213	-1.036205	0.580901
N33	N	1.530013	-0.834331	0.606015
N34	N	1.529986	-0.771879	0.605997
C35	C	1.538175	-0.739513	0.512834
N36	N	1.546412	-0.771958	0.419687
N37	N	1.546444	-0.834415	0.419706
C38	C	1.538240	-0.866302	0.512869
C39	C	1.606229	-0.635359	0.444798
C40	C	1.606181	-0.569616	0.444771
C41	C	1.469955	-0.569621	0.580784
C42	C	1.469997	-0.635364	0.580802
C43	C	1.538140	-0.668229	0.512810
C44	C	1.815756	-0.303242	0.512836
C45	C	1.934062	-0.303247	0.512850
C46	C	1.538207	-0.303174	0.790425
C47	C	1.538237	-0.303150	0.908730
C48	C	1.538290	-0.139038	0.512878
C49	C	1.538355	-0.069070	0.512910
C50	C	1.538126	-0.303238	0.236263
C51	C	1.538302	-0.303084	0.117958
C52	C	1.467111	-0.345178	0.977956
C53	C	1.564226	-0.360559	1.048744
C54	C	1.441198	-0.287731	1.048742
C55	C	1.635403	-0.318561	0.977960
C56	C	1.512309	-0.245707	0.977952
C57	C	1.609492	-0.261066	1.048707
H58	H	1.105336	-0.274950	0.692054
H59	H	1.661933	-1.062957	0.389540
H60	H	0.972512	-0.381035	0.643820
H61	H	1.105059	-0.225561	0.381752
H62	H	0.972033	-0.331503	0.333502
O63	O	1.110848	-0.418646	0.460186
C64	C	1.073973	-0.462994	0.534643
H65	H	1.053749	-0.438152	0.612242
H66	H	0.999966	-0.487173	0.502216
C67	C	1.185820	-0.542842	0.459648
C68	C	1.160990	-0.512332	0.554959
H69	H	1.239494	-0.573278	0.472177
H70	H	1.210662	-0.512965	0.409482
H71	H	1.124141	-0.562986	0.432635
H72	H	1.222666	-0.492182	0.581963
H73	H	1.136161	-0.542207	0.605130
H74	H	1.414551	-0.662125	0.636180
O75	O	1.672616	-0.938455	0.378972
C76	C	1.741316	-0.900382	0.439642
H77	H	1.703713	-0.890518	0.520261
H78	H	1.820198	-0.925678	0.451427
C79	C	1.806783	-0.850066	0.282073
C80	C	1.760594	-0.837946	0.381088
H81	H	1.818680	-0.811553	0.245953
H82	H	1.760502	-0.875717	0.241198
H83	H	1.872513	-0.871147	0.291908
H84	H	1.694860	-0.816873	0.371251
H85	H	1.806865	-0.812289	0.421960
H86	H	0.972210	-0.197296	0.561097
O87	O	1.404159	-0.938506	0.647053
C88	C	1.464698	-0.900410	0.715832
H89	H	1.548533	-0.920183	0.722493
H90	H	1.468363	-0.850599	0.682914
C91	C	1.309664	-0.875089	0.818248
C92	C	1.412629	-0.899378	0.826437
H93	H	1.277544	-0.874449	0.886474
H94	H	1.268876	-0.900753	0.771909
H95	H	1.312733	-0.833582	0.790813
H96	H	1.409558	-0.940886	0.853858
H97	H	1.453416	-0.873721	0.872783
H98	H	1.414762	-1.062966	0.636281
O99	O	1.590605	-0.418436	1.085909
C100	C	1.683827	-0.414069	1.147498
H101	H	1.730233	-0.370385	1.123337
H102	H	1.661784	-0.410758	1.235108
C103	C	1.695749	-0.526435	1.158739
C104	C	1.752751	-0.472784	1.129058
H105	H	1.738263	-0.562653	1.147370
H106	H	1.632942	-0.529377	1.117249
H107	H	1.677383	-0.523667	1.231746
H108	H	1.771104	-0.475548	1.056050
H109	H	1.815563	-0.469843	1.170535
O110	O	1.672444	-0.667192	0.378646
C111	C	1.732550	-0.624080	0.318628
H112	H	1.688928	-0.577241	0.314887
H113	H	1.813361	-0.617031	0.357680
C114	C	1.801549	-0.707312	0.209964
C115	C	1.747967	-0.649784	0.205362
H116	H	1.811063	-0.723168	0.140097
H117	H	1.761057	-0.736358	0.250401
H118	H	1.868886	-0.701430	0.242512
H119	H	1.680627	-0.655669	0.172827
H120	H	1.788447	-0.620740	0.164916
H121	H	1.661628	-0.542854	0.389389
H122	H	1.414483	-0.542858	0.636144
H123	H	1.407009	-0.380775	0.946892
O124	O	1.733292	-0.334175	0.940855
C125	C	1.732070	-0.334033	0.828913
H126	H	1.647236	-0.341038	0.799605
H127	H	1.763720	-0.287192	0.798613
C128	C	1.906775	-0.379085	0.823148
C129	C	1.802581	-0.387694	0.787152
H130	H	1.950272	-0.412184	0.797387
H131	H	1.907600	-0.379179	0.898565
H132	H	1.933135	-0.340049	0.797896
H133	H	1.776218	-0.426725	0.812415
H134	H	1.801753	-0.387608	0.711738
O135	O	1.681503	-0.218702	1.085494
C136	C	1.783672	-0.235148	1.049210
H137	H	1.785640	-0.287381	1.029441
H138	H	1.803444	-0.206797	0.975047
C139	C	1.863490	-0.156700	1.160743
C140	C	1.865909	-0.220854	1.136471
H141	H	1.914219	-0.147880	1.214567
H142	H	1.794657	-0.145618	1.185186
H143	H	1.879964	-0.133081	1.098933
H144	H	1.849422	-0.244471	1.198277
H145	H	1.934742	-0.231940	1.112040
H146	H	1.490316	-0.197170	0.946832
O147	O	1.343185	-0.272275	1.085711
C148	C	1.268428	-0.316756	1.049684
H149	H	1.299917	-0.340758	0.975153
H150	H	1.254497	-0.353397	1.114155
C151	C	1.124374	-0.253945	1.115460
C152	C	1.163046	-0.283421	1.023914
H153	H	1.059367	-0.233383	1.099568
H154	H	1.174738	-0.223978	1.139735
H155	H	1.112773	-0.284484	1.169177
H156	H	1.174658	-0.252880	0.970203
H157	H	1.112680	-0.313382	0.999628
