data_functionalizedCrystal
_audit_creation_method	'MofGen! by Chris Wilmer'
_symmetry_space_group_name_H-M	'P1'
_symmetry_Int_Tables_number	1
_symmetry_cell_setting	triclinic
loop_
_symmetry_equiv_pos_as_xyz
  x,y,z
_cell_length_a	11.295483
_cell_length_b	12.837943
_cell_length_c	12.837942
_cell_angle_alpha	94.828940
_cell_angle_beta	85.469583
_cell_angle_gamma	94.538773
loop_
_atom_site_label
_atom_site_type_symbol
_atom_site_fract_x
_atom_site_fract_y
_atom_site_fract_z
O1	O	-0.099003	-1.408689	-0.265788
O2	O	0.400997	-0.908689	0.234212
O3	O	-0.099010	-1.105556	-0.252345
O4	O	0.400990	-0.605556	0.247655
O5	O	-0.098999	-1.250401	-0.107500
O6	O	0.401001	-0.750401	0.392500
O7	O	-0.099013	-1.263845	-0.410633
O8	O	0.400987	-0.763845	0.089367
O9	O	0.099051	-1.237676	-0.120201
O10	O	0.599051	-0.737676	0.379799
O11	O	0.099040	-1.092832	-0.265045
O12	O	0.599040	-0.592832	0.234955
O13	O	0.099047	-1.395965	-0.278489
O14	O	0.599047	-0.895965	0.221511
Cu15	Cu	0.117127	-1.243237	-0.272927
Cu16	Cu	0.617127	-0.743237	0.227073
Cu17	Cu	-0.117090	-1.258285	-0.257907
Cu18	Cu	0.382910	-0.758285	0.242093
O19	O	0.099037	-1.251121	-0.423333
O20	O	0.599037	-0.751121	0.076667
C21	C	0.000014	-1.060125	-0.254153
C22	C	0.500014	-0.560125	0.245847
C23	C	0.000012	-0.943710	-0.240609
C24	C	0.500012	-0.443710	0.259391
C25	C	0.000025	-1.239497	-0.074781
C26	C	0.500025	-0.739497	0.425219
C27	C	0.000023	-1.225953	0.041634
C28	C	0.500023	-0.725953	0.541634
N29	N	0.281863	-1.232661	-0.283491
N30	N	0.781863	-0.732661	0.216509
N31	N	-0.281825	-1.268868	-0.247335
N32	N	0.218175	-0.768868	0.252665
C33	C	0.531161	-1.344996	-0.171231
C34	C	1.031161	-0.844996	0.328769
C35	C	0.655824	-1.337012	-0.179223
C36	C	1.155824	-0.837012	0.320777
C37	C	0.655854	-1.208702	-0.307459
C38	C	1.155854	-0.708702	0.192541
C39	C	0.531191	-1.216687	-0.299467
C40	C	1.031191	-0.716687	0.200533
C41	C	0.468849	-1.284837	-0.231353
C42	C	0.968849	-0.784837	0.268647
C43	C	0.344183	-1.292826	-0.223367
C44	C	0.844183	-0.792826	0.276633
C45	C	0.344216	-1.164512	-0.351597
C46	C	0.844216	-0.664512	0.148403
C47	C	0.468879	-1.156528	-0.359589
C48	C	0.968879	-0.656528	0.140411
C49	C	0.000021	-1.441396	-0.276680
C50	C	0.500021	-0.941396	0.223320
C51	C	0.000015	-1.557812	-0.290224
C52	C	0.500015	-1.057812	0.209776
C53	C	0.000021	-0.718835	-0.403439
C54	C	0.500021	-0.218835	0.096561
C55	C	0.000020	-0.609453	-0.390717
C56	C	0.500020	-0.109453	0.109283
C57	C	0.000016	-0.615561	-0.202446
C58	C	0.500016	-0.115561	0.297554
C59	C	0.000017	-0.724943	-0.215167
C60	C	0.500017	-0.224943	0.284833
C61	C	0.000018	-0.776576	-0.315667
C62	C	0.500018	-0.276576	0.184333
C63	C	0.000011	-0.885961	-0.328387
C64	C	0.500011	-0.385961	0.171613
C65	C	0.000016	-0.892066	-0.140117
C66	C	0.500016	-0.392066	0.359883
C67	C	0.000015	-0.782684	-0.127396
C68	C	0.500015	-0.282684	0.372604
C69	C	0.000010	-1.262024	-0.456052
C70	C	0.500010	-0.762024	0.043948
C71	C	0.000004	-1.275569	-0.572467
C72	C	0.500004	-0.775569	-0.072467
C73	C	0.000002	-1.388784	0.266509
C74	C	0.500002	-0.888784	0.766509
C75	C	-0.000000	-1.376062	0.375892
C76	C	0.500000	-0.876062	0.875892
C77	C	0.000008	-1.187791	0.369784
C78	C	0.500008	-0.687791	0.869784
C79	C	0.000010	-1.200512	0.260402
C80	C	0.500010	-0.700512	0.760402
C81	C	0.000009	-1.301011	0.208768
C82	C	0.500009	-0.801011	0.708768
C83	C	0.000020	-1.313731	0.099383
C84	C	0.500020	-0.813731	0.599383
C85	C	0.000019	-1.125461	0.093278
C86	C	0.500019	-0.625461	0.593278
C87	C	0.000017	-1.112740	0.202660
C88	C	0.500017	-0.612740	0.702660
H89	H	0.480401	-1.400494	-0.115777
H90	H	0.980401	-0.900494	0.384223
C91	C	0.000017	-1.028908	0.029761
C92	C	0.500017	-0.528908	0.529761
H93	H	0.000010	-1.050876	-0.042779
H94	H	0.500010	-0.550876	0.457221
H95	H	0.069078	-0.983707	0.042008
H96	H	0.569078	-0.483707	0.542008
H97	H	-0.069059	-0.992587	0.050859
H98	H	0.430941	-0.492587	0.550859
H99	H	0.000006	-0.939091	-0.068646
H100	H	0.500006	-0.439091	0.431354
C101	C	0.000014	-1.424274	0.042587
C102	C	0.500014	-0.924274	0.542587
H103	H	-0.000002	-1.474726	0.092647
H104	H	0.499998	-0.974726	0.592647
H105	H	0.069078	-1.428722	-0.004382
H106	H	0.569078	-0.928722	0.495618
H107	H	-0.069059	-1.437581	0.004472
H108	H	0.430941	-0.937581	0.504472
C109	C	0.000007	-0.725882	-0.016855
C110	C	0.500007	-0.225882	0.483145
H111	H	-0.000001	-0.652468	-0.021847
H112	H	0.499999	-0.152468	0.478153
H113	H	0.069066	-0.740627	0.015320
H114	H	0.569066	-0.240627	0.515320
H115	H	-0.069071	-0.749500	0.024156
H116	H	0.430929	-0.249500	0.524156
H117	H	0.706630	-1.153209	-0.362909
H118	H	1.206630	-0.653209	0.137091
C119	C	0.275608	-1.367783	-0.148441
C120	C	0.775608	-0.867783	0.351559
H121	H	0.330578	-1.402459	-0.113772
H122	H	0.830578	-0.902459	0.386228
H123	H	0.226964	-1.418198	-0.187302
H124	H	0.726964	-0.918198	0.312698
H125	H	0.226990	-1.328924	-0.098005
H126	H	0.726990	-0.828924	0.401995
H127	H	0.293468	-1.115530	-0.400555
H128	H	0.793468	-0.615530	0.099445
H129	H	0.519653	-1.101038	-0.415044
H130	H	1.019653	-0.601038	0.084956
C131	C	0.724369	-1.403185	-0.113092
C132	C	1.224369	-0.903185	0.386908
H133	H	0.807543	-1.388665	-0.127599
H134	H	1.307543	-0.888665	0.372401
H135	H	0.703922	-1.475484	-0.130084
H136	H	1.203922	-0.975484	0.369916
H137	H	0.703941	-1.386212	-0.040784
H138	H	1.203941	-0.886212	0.459216
C139	C	0.000015	-0.942757	-0.438930
C140	C	0.500015	-0.442757	0.061070
H141	H	0.000029	-0.892698	-0.489381
H142	H	0.500029	-0.392698	0.010619
H143	H	-0.069047	-0.989738	-0.443386
H144	H	0.430953	-0.489738	0.056614
H145	H	0.069090	-0.980861	-0.452229
H146	H	0.569090	-0.480861	0.047771
C147	C	0.000012	-0.775636	-0.513979
C148	C	0.500012	-0.275636	-0.013979
H149	H	0.000015	-0.725580	-0.564433
H150	H	0.500015	-0.225580	-0.064433
H151	H	-0.069052	-0.822617	-0.518423
H152	H	0.430948	-0.322617	-0.018423
H153	H	0.069085	-0.813741	-0.527285
H154	H	0.569085	-0.313741	-0.027285
H155	H	0.000013	-1.470613	0.224468
H156	H	0.500013	-0.970613	0.724468
C157	C	-0.000001	-1.472611	0.439404
C158	C	0.499999	-0.972611	0.939404
H159	H	0.000007	-1.534282	0.392982
H160	H	0.500007	-1.034282	0.892982
H161	H	-0.069065	-1.475998	0.486629
H162	H	0.430935	-0.975998	0.986629
H163	H	0.069073	-1.467126	0.477771
H164	H	0.569073	-0.967126	0.977771
C165	C	0.000018	-0.545937	-0.487262
C166	C	0.500018	-0.045937	0.012738
H167	H	0.000026	-0.473396	-0.465296
H168	H	0.500026	0.026604	0.034704
H169	H	-0.069043	-0.567045	-0.523602
H170	H	0.430957	-0.067045	-0.023602
H171	H	0.069094	-0.558171	-0.532448
H172	H	0.569094	-0.058171	-0.032448
H173	H	0.000013	-1.030916	0.244716
H174	H	0.500013	-0.530916	0.744716
C175	C	0.000008	-1.077254	0.426593
C176	C	0.500008	-0.577254	0.926593
H177	H	0.000011	-1.082253	0.500007
H178	H	0.500011	-0.582253	1.000007
H179	H	-0.069051	-1.045089	0.411838
H180	H	0.430949	-0.545089	0.911838
H181	H	0.069086	-1.036228	0.402993
H182	H	0.569086	-0.536228	0.902993
C183	C	0.000028	-0.558751	-0.091910
C184	C	0.500028	-0.058751	0.408090
H185	H	0.000025	-0.485337	-0.096909
H186	H	0.500025	0.014663	0.403091
H187	H	0.069092	-0.573498	-0.059744
H188	H	0.569092	-0.073498	0.440256
H189	H	-0.069046	-0.582358	-0.050886
H190	H	0.430954	-0.082358	0.449114
