data_functionalizedCrystal
_audit_creation_method	'MofGen! by Chris Wilmer'
_symmetry_space_group_name_H-M	'P1'
_symmetry_Int_Tables_number	1
_symmetry_cell_setting	triclinic
loop_
_symmetry_equiv_pos_as_xyz
  x,y,z
_cell_length_a	10.540495
_cell_length_b	9.016244
_cell_length_c	10.540539
_cell_angle_alpha	89.995353
_cell_angle_beta	84.516499
_cell_angle_gamma	89.996052
loop_
_atom_site_label
_atom_site_type_symbol
_atom_site_fract_x
_atom_site_fract_y
_atom_site_fract_z
O1	O	-1.685915	0.123388	-0.178639
O2	O	-1.316495	0.123378	-0.195553
O3	O	-1.509633	0.123382	-0.002388
O4	O	-1.492777	0.123385	-0.371804
O5	O	-1.509625	-0.123299	-0.002374
O6	O	-1.316487	-0.123302	-0.195538
O7	O	-1.685907	-0.123293	-0.178624
Cu8	Cu	-1.501196	-0.145821	-0.187080
Cu9	Cu	-1.501206	0.145907	-0.187097
O10	O	-1.492769	-0.123296	-0.371789
C11	C	-1.269187	0.000037	-0.194289
C12	C	-1.128236	0.000033	-0.190529
C13	C	-1.057530	0.000036	-0.328674
C14	C	-0.910916	0.000600	-0.324810
C15	C	-0.935902	0.140630	-0.115424
C16	C	-1.082442	0.140743	-0.120267
C17	C	-1.082836	-0.139789	-0.118207
C18	C	-0.935856	-0.141632	-0.116883
N19	N	-1.501199	-0.351008	-0.187067
C20	C	-1.604901	-0.585992	-0.084093
C21	C	-1.604621	-0.414101	-0.083700
C22	C	-1.368491	-0.413437	-0.156957
C23	C	-1.369108	-0.585381	-0.156235
C24	C	-1.529042	-0.585509	-0.320511
C25	C	-1.532037	-0.413553	-0.319639
C26	C	-0.733213	0.000047	-0.179905
C27	C	-0.874158	0.000044	-0.183715
C28	C	-1.508365	0.000044	0.044922
C29	C	-1.504583	0.000052	0.185869
N30	N	-1.501214	0.351093	-0.187100
C31	C	-1.494037	0.000045	-0.419099
C32	C	-1.497819	0.000047	-0.560047
C33	C	-1.359663	0.000602	0.369273
C34	C	-1.363497	0.000046	0.222656
C35	C	-1.572475	-0.140813	0.247546
C36	C	-1.567660	-0.140932	0.394090
C37	C	-1.570539	0.139590	0.394592
C38	C	-1.571839	0.141453	0.247610
H39	H	-1.114327	-0.246380	-0.164182
H40	H	-1.629667	-0.372750	-0.342459
H41	H	-1.130092	-0.141146	-0.016310
O42	O	-1.709715	-0.147778	0.217952
H43	H	-1.731039	-0.050683	0.158825
O44	O	-1.095337	-0.133481	-0.402896
H45	H	-1.009460	-0.201066	-0.432065
O46	O	-1.292256	-0.133956	0.167339
H47	H	-1.191825	-0.129063	0.190557
O48	O	-1.580888	-0.359630	0.047412
H49	H	-1.662932	-0.291290	0.086905
H50	H	-1.703230	-0.371891	-0.101805
H51	H	-1.672445	0.140540	0.441834
O52	O	-1.119871	0.280470	-0.186337
H53	H	-1.071465	0.283342	-0.284562
O54	O	-1.735961	-0.640741	-0.107711
H55	H	-1.807400	-0.594870	-0.033861
H56	H	-1.304154	-0.099852	0.399478
O57	O	-1.263744	-0.359322	-0.253615
H58	H	-1.305258	-0.287177	-0.324304
O59	O	-1.581529	-0.643230	0.046283
H60	H	-1.496381	-0.716289	0.038036
O61	O	-1.263740	-0.640552	-0.251719
H62	H	-1.170699	-0.599150	-0.225166
O63	O	-0.854384	-0.132855	-0.395960
H64	H	-0.877432	-0.128275	-0.496456
H65	H	-1.517478	-0.246234	0.422288
O66	O	-1.702055	-0.149430	0.457667
H67	H	-1.770195	-0.153448	0.383705
H68	H	-1.343579	-0.370390	-0.060723
H69	H	-1.344764	-0.625503	-0.058903
H70	H	-1.087761	0.100704	-0.383896
O71	O	-1.438582	-0.356691	-0.426044
H72	H	-1.443391	-0.233784	-0.429167
O73	O	-1.146049	0.148703	0.014141
H74	H	-1.072102	0.152466	0.082308
O75	O	-1.654584	-0.642897	-0.358462
H76	H	-1.698548	-0.717255	-0.282650
H77	H	-1.453445	-0.626204	-0.397180
O78	O	-0.855608	0.134787	-0.395784
H79	H	-0.933602	0.199549	-0.432979
H80	H	-0.894857	-0.245639	-0.166791
H81	H	-1.674701	0.149962	0.223405
O82	O	-0.906344	0.147053	0.021846
H83	H	-0.847186	0.049883	0.042899
O84	O	-1.510105	0.281048	0.436360
H85	H	-1.409462	0.286056	0.394590
O86	O	-1.292731	0.133799	0.166198
H87	H	-1.295407	0.133540	0.061186
O88	O	-0.879537	0.279756	-0.177485
H89	H	-0.807566	0.249129	-0.256955
O90	O	-1.285816	0.134383	0.407154
H91	H	-1.346785	0.201911	0.476766
H92	H	-1.525307	-0.245643	0.204945
O93	O	-0.903732	-0.153458	0.019318
H94	H	-0.940171	-0.054119	0.073319
O95	O	-1.506142	0.279504	0.193370
H96	H	-1.425926	0.247561	0.122726
