data_functionalizedCrystal
_audit_creation_method	'MofGen! by Chris Wilmer'
_symmetry_space_group_name_H-M	'P1'
_symmetry_Int_Tables_number	1
_symmetry_cell_setting	triclinic
loop_
_symmetry_equiv_pos_as_xyz
  x,y,z
_cell_length_a	12.759395
_cell_length_b	12.759394
_cell_length_c	12.759387
_cell_angle_alpha	89.968340
_cell_angle_beta	89.980569
_cell_angle_gamma	90.014682
loop_
_atom_site_label
_atom_site_type_symbol
_atom_site_fract_x
_atom_site_fract_y
_atom_site_fract_z
Zn1	Zn	1.606268	-0.418215	-0.593969
Zn2	Zn	1.606158	-0.593932	-0.418286
Zn3	Zn	1.430566	-0.418268	-0.418309
Zn4	Zn	1.430558	-0.593853	-0.593929
O5	O	1.518387	-0.506067	-0.506123
O6	O	1.753274	-0.441536	-0.570671
O7	O	1.582823	-0.570685	-0.271268
O8	O	1.453922	-0.271240	-0.441636
O9	O	1.753194	-0.570635	-0.441598
O10	O	1.583010	-0.271201	-0.570693
O11	O	1.453816	-0.441625	-0.271285
O12	O	1.283544	-0.441548	-0.441598
O13	O	1.453909	-0.570499	-0.740955
O14	O	1.283538	-0.570549	-0.570625
O15	O	1.583002	-0.441459	-0.740984
O16	O	1.582815	-0.740943	-0.441560
O17	O	1.453802	-0.740884	-0.570603
C18	C	1.245420	-0.506046	-0.506110
C19	C	1.128643	-0.506063	-0.506130
C20	C	1.518324	-0.779035	-0.506098
C21	C	1.518393	-0.895811	-0.506122
C22	C	1.128708	-0.371849	-0.640750
C23	C	1.073879	-0.304756	-0.708069
C24	C	0.964158	-0.304774	-0.708082
C25	C	0.909262	-0.371892	-0.640767
C26	C	0.964091	-0.438986	-0.573448
C27	C	1.073815	-0.438962	-0.573445
C28	C	0.964026	-0.573192	-0.438824
C29	C	1.073747	-0.573180	-0.438814
C30	C	0.909130	-0.640309	-0.371508
C31	C	0.963959	-0.707410	-0.304193
C32	C	1.073687	-0.707389	-0.304184
C33	C	1.128576	-0.640274	-0.371495
C34	C	1.652835	-0.895819	-0.371849
C35	C	1.720083	-0.950684	-0.304726
C36	C	1.720145	-1.060405	-0.304754
C37	C	1.652953	-1.115265	-0.371916
C38	C	1.585705	-1.060400	-0.439040
C39	C	1.585648	-0.950676	-0.439002
C40	C	1.451270	-1.060392	-0.573316
C41	C	1.451202	-0.950671	-0.573284
C42	C	1.384079	-1.115252	-0.640478
C43	C	1.316823	-1.060387	-0.707598
C44	C	1.316764	-0.950659	-0.707566
C45	C	1.383954	-0.895806	-0.640408
C46	C	1.792421	-0.506089	-0.506137
C47	C	1.909197	-0.506098	-0.506143
C48	C	1.518467	-0.505964	-0.780157
C49	C	1.518500	-0.505920	-0.896934
C50	C	1.518479	-0.232034	-0.506172
C51	C	1.518518	-0.115257	-0.506192
C52	C	1.652934	-0.371560	-0.896984
C53	C	1.720166	-0.304364	-0.951870
C54	C	1.720192	-0.304326	-1.061591
C55	C	1.652976	-0.371488	-1.116430
C56	C	1.585744	-0.438684	-1.061544
C57	C	1.585728	-0.438717	-0.951819
C58	C	1.451307	-0.573038	-1.061494
C59	C	1.451285	-0.573083	-0.951772
C60	C	1.384091	-0.640200	-1.116332
C61	C	1.316863	-0.707403	-1.061446
C62	C	1.316841	-0.707439	-0.951717
C63	C	1.384053	-0.640279	-0.896886
C64	C	1.518369	-0.506094	-0.233156
C65	C	1.518538	-0.505842	-0.116379
H66	H	1.218049	-0.371823	-0.640742
F67	F	1.132310	-0.233327	-0.779706
F68	F	1.791722	-1.118798	-0.233319
H69	H	0.919517	-0.250135	-0.762893
F70	F	0.792354	-0.640323	-0.371519
H71	H	1.774792	-0.906008	-0.250045
F72	F	1.132031	-0.778797	-0.232528
H73	H	1.774931	-0.249602	-1.106279
F74	F	0.905529	-0.778826	-0.232554
F75	F	1.383798	-1.232026	-0.640159
F76	F	1.652998	-0.371435	-1.233206
H77	H	1.262126	-1.105062	-0.762281
F78	F	0.792486	-0.371896	-0.640773
H79	H	1.652930	-0.371594	-0.807643
F80	F	1.245352	-0.640250	-0.371495
H81	H	1.652778	-0.806478	-0.371806
F82	F	1.652674	-1.232039	-0.371594
F83	F	1.245193	-0.892276	-0.779016
F84	F	1.791678	-0.232868	-0.893500
F85	F	1.384119	-0.640157	-1.233108
H86	H	1.262136	-0.762076	-1.106104
F87	F	1.245277	-0.778955	-0.893312
H88	H	1.384046	-0.640306	-0.807545
H89	H	1.383905	-0.806465	-0.640368
