data_functionalizedCrystal
_audit_creation_method	'MofGen! by Chris Wilmer'
_symmetry_space_group_name_H-M	'P1'
_symmetry_Int_Tables_number	1
_symmetry_cell_setting	triclinic
loop_
_symmetry_equiv_pos_as_xyz
  x,y,z
_cell_length_a	16.109302
_cell_length_b	10.723024
_cell_length_c	14.586319
_cell_angle_alpha	89.997376
_cell_angle_beta	89.994552
_cell_angle_gamma	83.964825
loop_
_atom_site_label
_atom_site_type_symbol
_atom_site_fract_x
_atom_site_fract_y
_atom_site_fract_z
O1	O	1.104074	0.160395	-0.076279
O2	O	1.437408	0.493728	0.257054
O3	O	1.770741	0.827062	0.590387
O4	O	0.862130	0.180354	-0.076272
O5	O	1.195463	0.513688	0.257062
O6	O	1.528796	0.847021	0.590395
O7	O	0.988683	-0.011275	-0.076272
O8	O	1.322016	0.322058	0.257061
O9	O	1.655349	0.655391	0.590394
O10	O	0.977521	0.352025	-0.076279
O11	O	1.310854	0.685358	0.257055
O12	O	1.644188	1.018692	0.590388
O13	O	0.988674	-0.011278	0.076209
O14	O	1.322007	0.322055	0.409542
O15	O	1.655341	0.655388	0.742875
O16	O	0.862121	0.180352	0.076209
O17	O	1.195454	0.513685	0.409542
O18	O	1.528788	0.847018	0.742876
O19	O	1.104065	0.160392	0.076202
O20	O	1.437399	0.493726	0.409535
O21	O	1.770732	0.827059	0.742868
Cu22	Cu	0.983092	0.170372	0.090128
Cu23	Cu	1.316426	0.503705	0.423461
Cu24	Cu	1.649759	0.837038	0.756795
Cu25	Cu	0.983103	0.170375	-0.090198
Cu26	Cu	1.316436	0.503708	0.243135
Cu27	Cu	1.649769	0.837042	0.576469
O28	O	0.977512	0.352022	0.076202
O29	O	1.310846	0.685355	0.409535
O30	O	1.644179	1.018689	0.742869
C31	C	0.831146	0.179544	-0.000030
C32	C	1.164479	0.512878	0.333303
C33	C	1.497812	0.846211	0.666636
C34	C	0.738836	0.177120	-0.000028
C35	C	1.072169	0.510453	0.333306
C36	C	1.405503	0.843787	0.666639
C37	C	0.526457	0.171513	0.083081
C38	C	0.859791	0.504846	0.416414
C39	C	1.193124	0.838179	0.749747
C40	C	0.439724	0.169221	0.083078
C41	C	0.773057	0.502554	0.416411
C42	C	1.106391	0.835888	0.749744
C43	C	0.439744	0.169231	-0.083165
C44	C	0.773077	0.502564	0.250168
C45	C	1.106411	0.835897	0.583501
C46	C	0.526477	0.171513	-0.083161
C47	C	0.859810	0.504846	0.250172
C48	C	1.193143	0.838180	0.583505
C49	C	0.569831	0.172660	-0.000035
C50	C	0.903164	0.505994	0.333298
C51	C	1.236497	0.839327	0.666631
C52	C	0.396364	0.168086	-0.000043
C53	C	0.729698	0.501420	0.333291
C54	C	1.063031	0.834753	0.666624
C55	C	0.302324	0.165602	-0.000047
C56	C	0.635657	0.498935	0.333287
C57	C	0.968991	0.832269	0.666620
C58	C	0.663877	0.175142	-0.000031
C59	C	0.997211	0.508476	0.333302
C60	C	1.330544	0.841809	0.666636
C61	C	0.987866	-0.057766	-0.000033
C62	C	1.321199	0.275568	0.333300
C63	C	1.654533	0.608901	0.666634
C64	C	0.985436	-0.196288	-0.000036
C65	C	1.318769	0.137046	0.333297
C66	C	1.652103	0.470379	0.666631
C67	C	1.056248	-0.272209	-0.000040
C68	C	1.389582	0.061125	0.333294
C69	C	1.722915	0.394458	0.666627
C70	C	1.053738	-0.415379	-0.000043
C71	C	1.387072	-0.082045	0.333291
C72	C	1.720405	0.251288	0.666624
C73	C	1.135049	0.161202	-0.000042
C74	C	1.468383	0.494536	0.333292
C75	C	1.801716	0.827869	0.666625
C76	C	1.227359	0.163627	-0.000051
C77	C	1.560692	0.496960	0.333283
C78	C	1.894026	0.830293	0.666616
C79	C	0.978329	0.398512	-0.000039
C80	C	1.311662	0.731846	0.333294
C81	C	1.644996	1.065179	0.666627
C82	C	0.980759	0.537034	-0.000042
C83	C	1.314093	0.870368	0.333291
C84	C	1.647426	1.203701	0.666625
N85	N	0.983091	0.170369	0.216960
N86	N	1.316424	0.503702	0.550293
N87	N	1.649758	0.837035	0.883626
N88	N	0.983111	0.170368	-0.217030
N89	N	1.316444	0.503702	0.116303
N90	N	1.649777	0.837035	0.449637
C91	C	1.039147	0.085543	0.451966
C92	C	1.372481	0.418877	0.785299
C93	C	1.705814	0.752210	1.118633
C94	C	1.039150	0.085540	0.547947
C95	C	1.372483	0.418874	0.881281
C96	C	1.705817	0.752207	1.214614
C97	C	0.927048	0.255198	0.547957
C98	C	1.260381	0.588531	0.881291
C99	C	1.593715	0.921864	1.214624
C100	C	0.927042	0.255194	0.451978
C101	C	1.260376	0.588527	0.785311
C102	C	1.593709	0.921860	1.118644
C103	C	0.983097	0.170368	0.403985
C104	C	1.316430	0.503701	0.737318
C105	C	1.649763	0.837035	1.070651
C106	C	0.983105	0.170369	0.595945
C107	C	1.316438	0.503702	0.929279
C108	C	1.649772	0.837036	1.262612
C109	C	0.983107	0.170366	0.700012
C110	C	1.316440	0.503700	1.033346
C111	C	1.649774	0.837033	1.366679
C112	C	0.983094	0.170369	0.299911
C113	C	1.316427	0.503702	0.633244
C114	C	1.649760	0.837035	0.966577
H115	H	0.404413	0.168287	0.150759
H116	H	0.737747	0.501620	0.484093
H117	H	1.071080	0.834953	0.817426
Cl118	Cl	1.109613	-0.021100	0.391636
Cl119	Cl	1.442946	0.312234	0.724969
Cl120	Cl	1.776279	0.645567	1.058302
H121	H	1.084790	0.016467	0.587011
H122	H	1.418124	0.349800	0.920344
H123	H	1.751457	0.683134	1.253678
H124	H	0.404435	0.168298	-0.150843
H125	H	0.737768	0.501631	0.182490
H126	H	1.071101	0.834965	0.515823
Cl127	Cl	0.856569	0.361833	0.391652
Cl128	Cl	1.189902	0.695166	0.724985
Cl129	Cl	1.523236	1.028499	1.058319
H130	H	0.881411	0.324263	0.587043
H131	H	1.214744	0.657596	0.920376
H132	H	1.548078	0.990929	1.253709
H133	H	0.561754	0.172447	0.150767
H134	H	0.895087	0.505780	0.484100
H135	H	1.228420	0.839113	0.817434
H136	H	0.561792	0.172444	-0.150849
H137	H	0.895126	0.505778	0.182485
H138	H	1.228459	0.839111	0.515818
Cl139	Cl	1.152723	-0.208929	-0.000048
Cl140	Cl	1.486056	0.124405	0.333285
Cl141	Cl	1.819390	0.457738	0.666618
Cl142	Cl	0.887156	-0.362260	-0.000030
Cl143	Cl	1.220490	-0.028927	0.333303
Cl144	Cl	1.553823	0.304407	0.666636
Cl145	Cl	1.147338	-0.516092	-0.000040
Cl146	Cl	1.480671	-0.182759	0.333293
Cl147	Cl	1.814004	0.150575	0.666626
Cl148	Cl	0.888961	-0.259568	-0.000042
Cl149	Cl	1.222295	0.073765	0.333291
Cl150	Cl	1.555628	0.407099	0.666624
