data_functionalizedCrystal
_audit_creation_method	'MofGen! by Chris Wilmer'
_symmetry_space_group_name_H-M	'P1'
_symmetry_Int_Tables_number	1
_symmetry_cell_setting	triclinic
loop_
_symmetry_equiv_pos_as_xyz
  x,y,z
_cell_length_a	12.594516
_cell_length_b	21.395362
_cell_length_c	21.395355
_cell_angle_alpha	89.951961
_cell_angle_beta	90.011407
_cell_angle_gamma	89.965683
loop_
_atom_site_label
_atom_site_type_symbol
_atom_site_fract_x
_atom_site_fract_y
_atom_site_fract_z
Zn1	Zn	-0.423347	-0.957923	0.354685
Zn2	Zn	-0.601311	-0.957853	0.249921
Zn3	Zn	-0.423403	-0.853138	0.249879
Zn4	Zn	-0.601340	-0.853134	0.354618
O5	O	-0.512350	-0.905512	0.302276
O6	O	-0.446918	-1.045592	0.340834
O7	O	-0.577723	-0.943934	0.162237
O8	O	-0.274450	-0.867070	0.263792
O9	O	-0.577667	-1.045540	0.263863
O10	O	-0.274408	-0.944055	0.340793
O11	O	-0.447015	-0.867001	0.162207
O12	O	-0.447043	-0.765460	0.263727
O13	O	-0.577717	-0.867063	0.442305
O14	O	-0.577773	-0.765457	0.340678
O15	O	-0.446946	-0.944051	0.442354
O16	O	-0.750261	-0.943930	0.263798
O17	O	-0.750282	-0.866994	0.340719
C18	C	-0.512418	-0.742724	0.302191
C19	C	-0.512473	-0.673083	0.302170
C20	C	-0.580636	-0.640385	0.342176
C21	C	-0.580614	-0.574950	0.342200
C22	C	-0.512441	-0.542215	0.302205
C23	C	-0.444264	-0.574921	0.262196
C24	C	-0.444280	-0.640355	0.262179
C25	C	-0.503874	-0.438489	0.245792
C26	C	-0.503865	-0.373056	0.245809
C27	C	-0.512386	-0.340394	0.302260
C28	C	-0.520937	-0.373173	0.358697
C29	C	-0.520953	-0.438608	0.358679
C30	C	-0.512416	-0.471263	0.302220
C31	C	-0.580529	-0.236743	0.342295
C32	C	-0.580500	-0.171307	0.342319
C33	C	-0.444156	-0.171280	0.262310
C34	C	-0.444179	-0.236715	0.262292
C35	C	-0.512372	-0.269443	0.302283
C36	C	-0.788891	-0.905471	0.302269
C37	C	-0.907197	-0.905511	0.302288
C38	C	-0.976500	-0.863661	0.344096
C39	C	-1.047349	-0.848392	0.286917
C40	C	-1.047147	-0.920837	0.359476
C41	C	-0.976487	-0.890211	0.245079
C42	C	-0.976279	-0.962683	0.317677
C43	C	-1.047096	-0.947436	0.260459
C44	C	-0.234729	-0.905570	0.302296
C45	C	-0.116424	-0.905595	0.302304
C46	C	-0.512329	-0.905564	0.465699
C47	C	-0.512319	-0.905586	0.535340
C48	C	-0.512301	-0.068935	0.302343
C49	C	-0.512325	-0.138577	0.302325
C50	C	-0.512295	-0.905496	0.139488
C51	C	-0.512004	-0.905596	0.069847
C52	C	-0.444224	-0.945672	0.568080
C53	C	-0.444178	-0.945671	0.633516
C54	C	-0.512247	-0.905591	0.666209
C55	C	-0.580347	-0.865497	0.633461
C56	C	-0.580383	-0.865495	0.568027
C57	C	-0.608087	-0.900630	0.769879
C58	C	-0.608053	-0.900636	0.835312
C59	C	-0.512134	-0.905595	0.868030
C60	C	-0.416248	-0.910560	0.835306
C61	C	-0.416284	-0.910557	0.769872
C62	C	-0.512215	-0.905589	0.737161
C63	C	-0.443984	-0.945682	0.971722
C64	C	-0.443936	-0.945677	1.037159
C65	C	-0.580114	-0.865506	1.037103
C66	C	-0.580153	-0.865508	0.971667
C67	C	-0.512089	-0.905600	0.938981
H68	H	-0.527912	-0.465294	0.404632
Br69	Br	-0.351730	-1.000062	0.677958
H70	H	-1.078185	-0.933766	0.407833
H71	H	-0.945577	-0.877226	0.196709
H72	H	-0.338210	-0.914598	0.743231
H73	H	-0.338142	-0.914599	0.861943
H74	H	-0.635766	-0.832862	0.660084
H75	H	-0.388770	-0.666978	0.229601
H76	H	-0.388800	-0.978317	0.541471
H77	H	-0.635526	-0.832866	1.063721
Br78	Br	-1.099373	-0.767868	0.265225
H79	H	-0.635833	-0.832849	0.541370
Br80	Br	-0.924829	-0.804573	0.402940
Br81	Br	-1.098437	-1.006487	0.201478
H82	H	-0.636050	-0.263392	0.374861
H83	H	-0.636162	-0.667028	0.374741
Br84	Br	-0.673126	-0.530563	0.396499
Br85	Br	-0.924212	-1.043187	0.339393
H86	H	-0.388556	-0.978323	0.945107
H87	H	-0.388679	-0.263338	0.229711
H88	H	-0.686129	-0.896598	0.861951
Br89	Br	-0.351529	-1.000094	1.081593
Br90	Br	-0.672575	-0.811104	0.927231
Br91	Br	-0.351623	-0.126861	0.208037
Br92	Br	-0.738276	-0.893918	0.725484
H93	H	-0.527873	-0.346582	0.404665
H94	H	-0.636005	-0.144685	0.374901
H95	H	-0.496909	-0.346372	0.199855
Br96	Br	-0.351734	-0.530497	0.207923
Br97	Br	-0.492310	-0.482809	0.169172
