data_functionalizedCrystal
_audit_creation_method	'MofGen! by Chris Wilmer'
_symmetry_space_group_name_H-M	'P1'
_symmetry_Int_Tables_number	1
_symmetry_cell_setting	triclinic
loop_
_symmetry_equiv_pos_as_xyz
  x,y,z
_cell_length_a	21.395362
_cell_length_b	21.395362
_cell_length_c	18.050582
_cell_angle_alpha	90.035199
_cell_angle_beta	90.026559
_cell_angle_gamma	90.045668
loop_
_atom_site_label
_atom_site_type_symbol
_atom_site_fract_x
_atom_site_fract_y
_atom_site_fract_z
Zn1	Zn	-0.249208	0.957809	0.420280
Zn2	Zn	-0.353979	0.957730	0.296083
Zn3	Zn	-0.249249	0.853040	0.296062
Zn4	Zn	-0.353981	0.852995	0.420189
O5	O	-0.301604	0.905394	0.358153
O6	O	-0.263089	1.045477	0.403851
O7	O	-0.340102	0.943828	0.192155
O8	O	-0.161565	0.866990	0.312569
O9	O	-0.340064	1.045418	0.312604
O10	O	-0.161536	0.943964	0.403831
O11	O	-0.263157	0.866913	0.192140
O12	O	-0.263159	0.765356	0.312481
O13	O	-0.340067	0.866914	0.524126
O14	O	-0.340106	0.765323	0.403677
O15	O	-0.263091	0.943920	0.524192
O16	O	-0.441657	0.943784	0.312516
O17	O	-0.441659	0.866836	0.403697
C18	C	-0.301637	0.742606	0.358067
C19	C	-0.301667	0.672965	0.358048
C20	C	-0.341786	0.640251	0.405462
C21	C	-0.341771	0.574815	0.405496
C22	C	-0.301643	0.542096	0.358101
C23	C	-0.261516	0.574818	0.310683
C24	C	-0.261528	0.640252	0.310657
C25	C	-0.296601	0.438380	0.291244
C26	C	-0.296593	0.372947	0.291269
C27	C	-0.301602	0.340276	0.358183
C28	C	-0.306631	0.373045	0.425073
C29	C	-0.306643	0.438479	0.425047
C30	C	-0.301625	0.471144	0.358125
C31	C	-0.341706	0.236609	0.405637
C32	C	-0.341687	0.171173	0.405672
C33	C	-0.261435	0.171177	0.310852
C34	C	-0.261451	0.236612	0.310825
C35	C	-0.301591	0.269324	0.358216
C36	C	-0.464392	0.905314	0.358115
C37	C	-0.534033	0.905337	0.358124
C38	C	-0.566674	0.945394	0.405678
C39	C	-0.632109	0.945416	0.405696
C40	C	-0.664902	0.905387	0.358147
C41	C	-0.632253	0.865322	0.310589
C42	C	-0.566819	0.865297	0.310578
C43	C	-0.768609	0.900519	0.291248
C44	C	-0.834042	0.900548	0.291258
C45	C	-0.866722	0.905462	0.358183
C46	C	-0.833961	0.910358	0.425099
C47	C	-0.768527	0.910333	0.425087
C48	C	-0.735854	0.905410	0.358154
C49	C	-0.970316	0.945545	0.405761
C50	C	-1.035752	0.945562	0.405780
C51	C	-1.035894	0.865472	0.310667
C52	C	-0.970459	0.865451	0.310654
C53	C	-0.937673	0.905491	0.358200
C54	C	-0.138181	0.905491	0.358208
C55	C	-0.068540	0.905533	0.358231
C56	C	-0.301575	0.905421	0.551859
C57	C	-0.301562	0.905432	0.634405
C58	C	-0.301572	1.068817	0.358240
C59	C	-0.301558	1.138458	0.358277
C60	C	-0.301589	0.905403	0.165201
C61	C	-0.301425	0.905513	0.082656
C62	C	-0.343353	0.863595	0.883194
C63	C	-0.286210	0.848292	0.833804
C64	C	-0.301470	0.905485	0.931525
C65	C	-0.358656	0.920732	0.833834
C66	C	-0.301518	0.905458	0.785540
C67	C	-0.244296	0.890153	0.883223
C68	C	-0.316780	0.962619	0.883256
C69	C	-0.259597	0.947338	0.833889
C70	C	-0.301443	0.905500	1.015624
C71	C	-0.301539	0.905443	0.701444
H72	H	-0.310708	0.346445	0.479561
H73	H	-0.228785	0.263248	0.272211
H74	H	-0.374440	0.548174	0.444109
H75	H	-0.378707	0.828155	0.904845
C76	C	-0.334272	1.027889	0.912632
C77	C	-0.336883	1.039983	0.996681
C78	C	-0.354383	1.105252	1.026059
C79	C	-0.369273	1.158427	0.971387
C80	C	-0.366663	1.146334	0.887333
C81	C	-0.349163	1.081065	0.857955
H82	H	-0.325860	1.000618	1.037157
H83	H	-0.356315	1.114203	1.088281
H84	H	-0.382228	1.206743	0.993134
H85	H	-0.377686	1.185699	0.846858
H86	H	-0.347231	1.072114	0.795733
C87	C	-0.385932	0.676231	0.457600
C88	C	-0.457151	0.667157	0.451391
C89	C	-0.501296	0.703139	0.503531
C90	C	-0.474223	0.748194	0.561881
C91	C	-0.403000	0.757270	0.568093
C92	C	-0.358855	0.721288	0.515953
H93	H	-0.477195	0.633803	0.408195
H94	H	-0.554019	0.696420	0.498932
H95	H	-0.506901	0.774829	0.600478
H96	H	-0.382956	0.790624	0.611289
H97	H	-0.306132	0.728007	0.520551
C98	C	-0.268739	0.783005	0.804454
C99	C	-0.314696	0.746942	0.754529
C100	C	-0.297232	0.681654	0.725182
C101	C	-0.233810	0.652428	0.745759
C102	C	-0.187849	0.688492	0.795686
C103	C	-0.205313	0.753780	0.825034
H104	H	-0.361649	0.768577	0.739294
H105	H	-0.331256	0.654957	0.688222
H106	H	-0.220882	0.604098	0.724034
H107	H	-0.140896	0.666857	0.810921
H108	H	-0.171289	0.780476	0.861993
C109	C	-0.385852	0.272598	0.457771
C110	C	-0.429978	0.236610	0.509937
C111	C	-0.474124	0.272596	0.562071
C112	C	-0.474144	0.344571	0.562039
C113	C	-0.430017	0.380564	0.509871
C114	C	-0.385871	0.344577	0.457737
H115	H	-0.429965	0.183326	0.509962
H116	H	-0.506790	0.245952	0.600689
H117	H	-0.506824	0.371211	0.600632
H118	H	-0.430030	0.433847	0.509846
H119	H	-0.353205	0.371221	0.419119
C120	C	-0.870050	0.895145	0.217638
C121	C	-0.914981	0.947575	0.193684
C122	C	-0.950975	0.942162	0.120054
C123	C	-0.942037	0.884318	0.070378
C124	C	-0.897103	0.831884	0.094330
C125	C	-0.861110	0.837297	0.167961
H126	H	-0.921600	0.990398	0.230458
H127	H	-0.984238	0.980977	0.102323
H128	H	-0.968682	0.880311	0.015872
H129	H	-0.890485	0.789061	0.057556
H130	H	-0.827847	0.798481	0.185692
C131	C	-0.178971	0.872634	0.912400
C132	C	-0.166881	0.869384	0.996415
C133	C	-0.101559	0.851863	1.025594
C134	C	-0.048327	0.837591	0.970758
C135	C	-0.060415	0.840840	0.886737
C136	C	-0.125737	0.858362	0.857558
H137	H	-0.206289	0.879949	1.037013
H138	H	-0.092611	0.849457	1.087792
H139	H	0.000029	0.824620	0.992358
H140	H	-0.021007	0.830275	0.846139
H141	H	-0.134685	0.860767	0.795361
H142	H	-0.540242	0.832677	0.271853
H143	H	-0.406997	0.933641	0.812140
H144	H	-0.860568	0.914360	0.479595
H145	H	-0.310736	0.465158	0.479512
C146	C	-0.934244	0.989580	0.458064
C147	C	-0.889222	1.038773	0.425948
C148	C	-0.853152	1.082807	0.478251
C149	C	-0.862104	1.077648	0.562672
C150	C	-0.907129	1.028453	0.594793
C151	C	-0.943199	0.984419	0.542489
H152	H	-0.882593	1.042593	0.363451
H153	H	-0.819822	1.119225	0.454473
H154	H	-0.835403	1.110245	0.601390
H155	H	-0.913758	1.024633	0.657290
H156	H	-0.976529	0.948001	0.566268
C157	C	-0.385821	0.135186	0.457833
C158	C	-0.457042	0.144104	0.451605
C159	C	-0.501177	0.108117	0.503767
C160	C	-0.474091	0.063212	0.562158
C161	C	-0.402865	0.054291	0.568388
C162	C	-0.358730	0.090278	0.516226
H163	H	-0.477097	0.177348	0.408379
H164	H	-0.553903	0.114721	0.499155
H165	H	-0.506762	0.036572	0.600771
H166	H	-0.382811	0.021047	0.611615
H167	H	-0.306005	0.083674	0.520839
C168	C	-0.211724	0.995179	0.804819
C169	C	-0.157470	0.973480	0.755048
C170	C	-0.109595	1.021317	0.725976
C171	C	-0.115974	1.090854	0.746676
C172	C	-0.170230	1.112557	0.796450
C173	C	-0.218105	1.064720	0.825521
H174	H	-0.152746	0.922001	0.739722
H175	H	-0.069431	1.005251	0.689131
H176	H	-0.080534	1.126266	0.725156
H177	H	-0.174954	1.164036	0.811775
H178	H	-0.258269	1.080786	0.862367
C179	C	-0.217292	0.135194	0.258718
C180	C	-0.217274	0.063219	0.258745
C181	C	-0.173127	0.027233	0.206612
C182	C	-0.128997	0.063222	0.154452
C183	C	-0.129013	0.135201	0.154423
C184	C	-0.173160	0.171187	0.206556
H185	H	-0.249944	0.036574	0.297359
H186	H	-0.173116	-0.026050	0.206634
H187	H	-0.096317	0.036583	0.115859
H188	H	-0.096344	0.161846	0.115809
H189	H	-0.173171	0.224471	0.206534
H190	H	-0.292502	0.346271	0.236803
C191	C	-0.668321	0.821292	0.258283
C192	C	-0.659359	0.826446	0.173863
C193	C	-0.695427	0.782412	0.121557
C194	C	-0.740457	0.733224	0.153670
C195	C	-0.749422	0.728068	0.238094
C196	C	-0.713354	0.772102	0.290400
H197	H	-0.626023	0.862859	0.150087
H198	H	-0.688791	0.786229	0.059061
H199	H	-0.767157	0.700628	0.114950
H200	H	-0.782757	0.691655	0.261870
H201	H	-0.719990	0.768285	0.352896
C202	C	-0.291092	0.474313	0.217631
C203	C	-0.343490	0.519226	0.193518
C204	C	-0.337981	0.555156	0.119908
C205	C	-0.280074	0.546173	0.070409
C206	C	-0.227672	0.501258	0.094521
C207	C	-0.233182	0.465328	0.168132
H208	H	-0.386360	0.525877	0.230161
H209	H	-0.376772	0.588405	0.102059
H210	H	-0.275995	0.572771	0.015918
H211	H	-0.184803	0.494606	0.057878
H212	H	-0.194390	0.432078	0.185980
H213	H	-0.228842	0.548174	0.272095
H214	H	-0.228856	0.666888	0.272046
C215	C	-0.668025	0.989485	0.458004
C216	C	-0.631963	1.033526	0.510301
C217	C	-0.667876	1.077596	0.562607
C218	C	-0.739851	1.077625	0.562616
C219	C	-0.775917	1.033582	0.510317
C220	C	-0.740004	0.989512	0.458011
H221	H	-0.578679	1.033506	0.510296
H222	H	-0.641177	1.110200	0.601322
H223	H	-0.766436	1.110248	0.601336
H224	H	-0.829201	1.033601	0.510322
H225	H	-0.766703	0.956908	0.419296
H226	H	-0.539982	0.977995	0.444394
H227	H	-0.741855	0.914318	0.479572
H228	H	-1.062593	0.832876	0.271956
C229	C	-1.071658	0.989629	0.458094
C230	C	-1.062582	1.060856	0.452128
C231	C	-1.098488	1.104924	0.504443
C232	C	-1.143470	1.077765	0.562724
C233	C	-1.152548	1.006535	0.568693
C234	C	-1.116642	0.962467	0.516378
H235	H	-1.029282	1.080963	0.408983
H236	H	-1.091768	1.157653	0.500024
H237	H	-1.170050	1.110387	0.601451
H238	H	-1.185848	0.986427	0.611839
H239	H	-1.123362	0.909737	0.520797
H240	H	-0.943881	0.832836	0.271928
H241	H	-0.742006	0.896515	0.236746
