data_functionalizedCrystal
_audit_creation_method	'MofGen! by Chris Wilmer'
_symmetry_space_group_name_H-M	'P1'
_symmetry_Int_Tables_number	1
_symmetry_cell_setting	triclinic
loop_
_symmetry_equiv_pos_as_xyz
  x,y,z
_cell_length_a	17.640112
_cell_length_b	13.897448
_cell_length_c	13.897433
_cell_angle_alpha	90.068930
_cell_angle_beta	101.155478
_cell_angle_gamma	78.756147
loop_
_atom_site_label
_atom_site_type_symbol
_atom_site_fract_x
_atom_site_fract_y
_atom_site_fract_z
Zn1	Zn	1.208442	0.085372	-0.247746
Zn2	Zn	1.708442	0.585372	0.252254
Zn3	Zn	1.208287	0.246847	-0.086492
Zn4	Zn	1.708287	0.746847	0.413508
Zn5	Zn	1.076215	0.118161	-0.119033
Zn6	Zn	1.576215	0.618161	0.380967
Zn7	Zn	1.076260	0.279247	-0.280265
Zn8	Zn	1.576260	0.779247	0.219735
O9	O	1.142301	0.182407	-0.183384
O10	O	1.642301	0.682407	0.316616
O11	O	1.319013	0.079510	-0.199127
O12	O	1.819013	0.579510	0.300873
O13	O	1.190684	0.229940	0.044152
O14	O	1.690684	0.729940	0.544152
O15	O	1.093801	-0.021182	-0.136116
O16	O	1.593801	0.478818	0.363884
O17	O	1.318899	0.198146	-0.080655
O18	O	1.818899	0.698146	0.419345
O19	O	1.190948	-0.045271	-0.230680
O20	O	1.690948	0.454729	0.269320
O21	O	1.093651	0.135394	0.020245
O22	O	1.593651	0.635394	0.520245
O23	O	0.965629	0.166811	-0.167649
O24	O	1.465629	0.666811	0.332351
O25	O	1.093878	0.253366	-0.410913
O26	O	1.593878	0.753366	0.089087
O27	O	0.965662	0.285161	-0.286105
O28	O	1.465662	0.785161	0.213895
O29	O	1.190992	0.110927	-0.387021
O30	O	1.690992	0.610927	0.112979
O31	O	1.190727	0.386138	-0.112188
O32	O	1.690727	0.886138	0.387812
O33	O	1.093727	0.409942	-0.254552
O34	O	1.593727	0.909942	0.245448
C35	C	0.936970	0.233060	-0.233937
C36	C	1.436970	0.733060	0.266063
C37	C	0.849129	0.254753	-0.255587
C38	C	1.349129	0.754753	0.244413
C39	C	0.560035	0.017591	-0.018921
C40	C	1.060035	0.517591	0.481079
C41	C	0.477495	0.037994	-0.039277
C42	C	0.977495	0.537994	0.460723
C43	C	0.477584	0.161401	-0.162413
C44	C	0.977584	0.661401	0.337587
C45	C	0.560126	0.141005	-0.142070
C46	C	1.060126	0.641005	0.357930
C47	C	0.601345	0.069099	-0.070322
C48	C	1.101345	0.569099	0.429678
C49	C	0.601435	0.192514	-0.193472
C50	C	1.101435	0.692514	0.306528
C51	C	0.683970	0.172122	-0.173127
C52	C	1.183970	0.672122	0.326873
C53	C	0.725195	0.100222	-0.101380
C54	C	1.225195	0.600222	0.398620
C55	C	0.683880	0.048708	-0.049977
C56	C	1.183880	0.548708	0.450023
C57	C	0.560214	0.264424	-0.265215
C58	C	1.060214	0.764424	0.234785
C59	C	0.601524	0.315932	-0.316617
C60	C	1.101524	0.815932	0.183383
C61	C	0.684060	0.295536	-0.296277
C62	C	1.184060	0.795536	0.203723
C63	C	0.725285	0.223636	-0.224530
C64	C	1.225285	0.723636	0.275470
C65	C	0.725375	0.347050	-0.347680
C66	C	1.225375	0.847050	0.152320
C67	C	0.807910	0.326659	-0.327335
C68	C	1.307910	0.826659	0.172665
C69	C	0.807820	0.203245	-0.204185
C70	C	1.307820	0.703245	0.295815
C71	C	1.142236	0.433037	-0.183383
C72	C	1.642236	0.933037	0.316617
C73	C	1.142281	0.540240	-0.183397
C74	C	1.642281	1.040240	0.316603
C75	C	1.142359	0.736516	-0.183448
C76	C	1.642359	1.236516	0.316552
C77	C	1.142313	0.627295	-0.183423
C78	C	1.642313	1.127295	0.316577
C79	C	1.348433	0.131556	-0.132634
C80	C	1.848433	0.631556	0.367366
C81	C	1.436274	0.109887	-0.111007
C82	C	1.936274	0.609887	0.388993
C83	C	1.142457	0.182103	-0.434939
C84	C	1.642457	0.682103	0.065061
C85	C	1.142523	0.181974	-0.542137
C86	C	1.642523	0.681974	-0.042137
C87	C	1.142380	0.930794	-0.183413
C88	C	1.642380	1.430794	0.316587
C89	C	1.142397	0.823576	-0.183459
C90	C	1.642397	1.323576	0.316541
C91	C	1.142191	0.182628	0.067204
C92	C	1.642191	0.682628	0.567204
C93	C	1.142277	0.182448	0.174439
C94	C	1.642277	0.682448	0.674439
C95	C	1.142453	0.182121	0.370776
C96	C	1.642453	0.682121	0.870776
C97	C	1.142358	0.182305	0.261521
C98	C	1.642358	0.682305	0.761521
H99	H	0.444012	0.219950	-0.220827
H100	H	0.944012	0.719950	0.279173
Br101	Br	0.421434	-0.031909	0.030501
Br102	Br	0.921434	0.468091	0.530501
H103	H	0.493009	0.281024	-0.281777
H104	H	0.993009	0.781024	0.218223
Br105	Br	0.545576	0.413530	-0.413971
Br106	Br	1.045576	0.913530	0.086029
Br107	Br	0.669425	0.444655	-0.445026
Br108	Br	1.169425	0.944655	0.054974
H109	H	0.841383	0.144678	-0.145775
H110	H	1.341383	0.644678	0.354225
Br111	Br	0.739828	-0.048889	0.047387
Br112	Br	1.239828	0.451111	0.547387
H113	H	0.841545	0.368601	-0.369193
H114	H	1.341545	0.868601	0.130807
Br115	Br	0.615984	-0.080006	0.078444
Br116	Br	1.115984	0.419994	0.578444
Br117	Br	0.837208	0.072552	-0.073759
Br118	Br	1.337208	0.572552	0.426241
