data_functionalizedCrystal
_audit_creation_method	'MofGen! by Chris Wilmer'
_symmetry_space_group_name_H-M	'P1'
_symmetry_Int_Tables_number	1
_symmetry_cell_setting	triclinic
loop_
_symmetry_equiv_pos_as_xyz
  x,y,z
_cell_length_a	11.169417
_cell_length_b	16.625545
_cell_length_c	11.169417
_cell_angle_alpha	90.011410
_cell_angle_beta	90.000551
_cell_angle_gamma	90.026807
loop_
_atom_site_label
_atom_site_type_symbol
_atom_site_fract_x
_atom_site_fract_y
_atom_site_fract_z
Zn1	Zn	1.834611	-0.321106	0.678500
Zn2	Zn	2.334611	0.178894	1.178500
Zn3	Zn	1.834513	-0.455910	0.477804
Zn4	Zn	2.334513	0.044090	0.977804
Zn5	Zn	1.633963	-0.321098	0.477836
Zn6	Zn	2.133963	0.178902	0.977836
Zn7	Zn	1.633851	-0.455903	0.678450
Zn8	Zn	2.133851	0.044097	1.178450
O9	O	1.734234	-0.388504	0.578148
O10	O	2.234234	0.111496	1.078148
O11	O	2.002547	-0.338994	0.651885
O12	O	2.502547	0.161006	1.151885
O13	O	1.807916	-0.438026	0.309859
O14	O	2.307916	0.061974	0.809859
O15	O	1.660667	-0.208267	0.504489
O16	O	2.160667	0.291733	1.004489
O17	O	2.002476	-0.438034	0.504435
O18	O	2.502476	0.061966	1.004435
O19	O	1.808082	-0.208273	0.651916
O20	O	2.308082	0.291727	1.151916
O21	O	1.660573	-0.338981	0.309882
O22	O	2.160573	0.161019	0.809882
O23	O	1.465998	-0.338974	0.504440
O24	O	1.965998	0.161026	1.004440
O25	O	1.660476	-0.438023	0.846406
O26	O	2.160476	0.061977	1.346406
O27	O	1.465916	-0.438015	0.651830
O28	O	1.965916	0.061985	1.151830
O29	O	1.807973	-0.338988	0.846443
O30	O	2.307973	0.161012	1.346443
O31	O	1.807807	-0.568742	0.504386
O32	O	2.307807	-0.068742	1.004386
O33	O	1.660381	-0.568737	0.651799
O34	O	2.160381	-0.068737	1.151799
C35	C	1.422410	-0.388494	0.578134
C36	C	1.922410	0.111506	1.078134
C37	C	1.289010	-0.388508	0.578157
C38	C	1.789010	0.111492	1.078157
C39	C	1.734104	-0.597995	0.578110
C40	C	2.234104	-0.097995	1.078110
C41	C	1.734158	-0.687616	0.578134
C42	C	2.234158	-0.187616	1.078134
C43	C	1.734205	-0.760399	0.578158
C44	C	2.234205	-0.260399	1.078158
C45	C	1.734275	-0.851707	0.578184
C46	C	2.234275	-0.351707	1.078184
C47	C	1.734337	-0.924484	0.578199
C48	C	2.234337	-0.424484	1.078199
C49	C	1.734405	-1.015798	0.578224
C50	C	2.234405	-0.515798	1.078224
C51	C	2.047277	-0.388516	0.578162
C52	C	2.547277	0.111484	1.078162
C53	C	2.180677	-0.388521	0.578168
C54	C	2.680677	0.111479	1.078168
C55	C	1.734223	-0.388506	0.891190
C56	C	2.234223	0.111494	1.391190
C57	C	1.734218	-0.388506	1.024590
C58	C	2.234218	0.111494	1.524590
C59	C	1.734398	-0.178196	0.578212
C60	C	2.234398	0.321804	1.078212
C61	C	1.734468	-0.088574	0.578239
C62	C	2.234468	0.411426	1.078239
C63	C	1.734232	-0.388518	1.266323
C64	C	2.234232	0.111482	1.766323
C65	C	1.734221	-0.388507	1.132923
C66	C	2.234221	0.111493	1.632923
