data_functionalizedCrystal
_audit_creation_method	'MofGen! by Chris Wilmer'
_symmetry_space_group_name_H-M	'P1'
_symmetry_Int_Tables_number	1
_symmetry_cell_setting	triclinic
loop_
_symmetry_equiv_pos_as_xyz
  x,y,z
_cell_length_a	8.597340
_cell_length_b	10.654550
_cell_length_c	7.088929
_cell_angle_alpha	83.717104
_cell_angle_beta	103.954719
_cell_angle_gamma	84.910291
loop_
_atom_site_label
_atom_site_type_symbol
_atom_site_fract_x
_atom_site_fract_y
_atom_site_fract_z
O1	O	2.103277	0.172468	0.187491
O2	O	1.638821	0.192969	0.110977
O3	O	1.881728	-0.000106	0.151001
O4	O	1.860369	0.365543	0.147468
O5	O	1.914190	-0.025967	0.474324
O6	O	1.671282	0.167108	0.434301
O7	O	2.135738	0.146607	0.510815
Cu8	Cu	1.906474	0.154496	0.502080
Cu9	Cu	1.868085	0.185080	0.119712
O10	O	1.892831	0.339682	0.470791
C11	C	1.595580	0.179277	0.262842
C12	C	1.418373	0.176995	0.233650
C13	C	1.896390	-0.059822	0.312402
C14	C	1.891698	-0.199228	0.311622
C15	C	2.034718	-0.279851	0.335189
C16	C	2.030299	-0.410836	0.334447
C17	C	1.739827	-0.380561	0.286579
C18	C	1.744247	-0.249578	0.287307
C19	C	2.182169	-0.229501	0.359504
C20	C	2.325201	-0.310127	0.383075
C21	C	2.320782	-0.441111	0.382333
C22	C	2.173330	-0.491471	0.358021
C23	C	2.178978	0.160299	0.358946
C24	C	2.356184	0.162582	0.388125
C25	C	1.878168	0.399398	0.309386
C26	C	1.882859	0.538805	0.310153
N27	N	1.933487	0.132985	0.771019
N28	N	1.841084	0.206581	-0.149225
H29	H	1.438511	0.151980	0.542720
H30	H	1.336038	0.187589	0.079045
Br31	Br	2.167345	-0.669245	0.357107
H32	H	1.619779	-0.421575	0.266788
Br33	Br	2.093136	0.005875	0.933409
Br34	Br	2.188176	-0.051739	0.360526
H35	H	2.445246	-0.269111	0.402820
Br36	Br	2.514889	-0.550526	0.414293
H37	H	1.745320	0.282848	0.753350
H38	H	1.627788	-0.183931	0.268119
