data_functionalizedCrystal
_audit_creation_method	'MofGen! by Chris Wilmer'
_symmetry_space_group_name_H-M	'P1'
_symmetry_Int_Tables_number	1
_symmetry_cell_setting	triclinic
loop_
_symmetry_equiv_pos_as_xyz
  x,y,z
_cell_length_a	12.759401
_cell_length_b	18.101397
_cell_length_c	18.101390
_cell_angle_alpha	90.035542
_cell_angle_beta	90.016165
_cell_angle_gamma	90.020627
loop_
_atom_site_label
_atom_site_type_symbol
_atom_site_fract_x
_atom_site_fract_y
_atom_site_fract_z
Zn1	Zn	1.606189	-0.294798	0.418657
Zn2	Zn	1.606073	-0.418655	0.294810
Zn3	Zn	1.430498	-0.294832	0.294837
Zn4	Zn	1.430462	-0.418603	0.418617
O5	O	1.518306	-0.356722	0.356730
O6	O	1.753195	-0.311236	0.402234
O7	O	1.582749	-0.402266	0.191180
O8	O	1.453868	-0.191195	0.311290
O9	O	1.753109	-0.402233	0.311244
O10	O	1.582947	-0.191170	0.402260
O11	O	1.453755	-0.311294	0.191200
O12	O	1.283472	-0.311243	0.311251
O13	O	1.453806	-0.402144	0.522255
O14	O	1.283446	-0.402177	0.402191
O15	O	1.582912	-0.311185	0.522285
O16	O	1.582714	-0.522281	0.311205
O17	O	1.453693	-0.522243	0.402165
C18	C	1.245338	-0.356708	0.356720
C19	C	1.128562	-0.356720	0.356733
C20	C	1.073713	-0.404145	0.404008
C21	C	0.963989	-0.404155	0.404016
C22	C	0.963972	-0.309312	0.309468
C23	C	1.073694	-0.309300	0.309465
C24	C	1.128581	-0.451566	0.451276
C25	C	1.073733	-0.498995	0.498554
C26	C	0.964009	-0.499005	0.498562
C27	C	0.909133	-0.451585	0.451292
C28	C	1.518216	-0.549133	0.356694
C29	C	1.518273	-0.631447	0.356704
C30	C	1.518407	-0.930538	0.356771
C31	C	1.599357	-0.899206	0.299388
C32	C	1.599638	-0.813587	0.299537
C33	C	1.518341	-0.782155	0.356737
C34	C	1.548355	-0.813156	0.434796
C35	C	1.548981	-0.898801	0.434484
C36	C	1.407228	-0.899049	0.336770
C37	C	1.407777	-0.813399	0.335028
C38	C	1.518302	-0.698296	0.356722
C39	C	1.518449	-1.014397	0.356791
C40	C	1.792339	-0.356736	0.356741
C41	C	1.909115	-0.356742	0.356745
C42	C	1.518368	-0.356654	0.549892
C43	C	1.518395	-0.356626	0.632206
C44	C	1.518424	-0.163560	0.356782
C45	C	1.518475	-0.081246	0.356805
C46	C	1.518304	-0.356736	0.164320
C47	C	1.518481	-0.356556	0.082006
C48	C	1.518451	-0.356580	0.931297
C49	C	1.599949	-0.299552	0.899991
C50	C	1.599695	-0.299340	0.814372
C51	C	1.518424	-0.356602	0.782915
C52	C	1.407738	-0.335399	0.813994
C53	C	1.408226	-0.334972	0.899639
C54	C	1.546665	-0.434957	0.899705
C55	C	1.549094	-0.434557	0.814055
C56	C	1.518402	-0.356617	0.699055
C57	C	1.518466	-0.356563	1.015157
H58	H	1.580807	-0.919854	0.241334
C59	C	1.374841	-0.258856	0.785050
C60	C	1.442481	-0.190554	0.802465
C61	C	1.409591	-0.114008	0.773523
C62	C	1.309062	-0.105765	0.727166
C63	C	1.241416	-0.174069	0.709749
C64	C	1.274306	-0.250614	0.738691
H65	H	1.516905	-0.196654	0.836783
H66	H	1.459668	-0.063445	0.786416
H67	H	1.284715	-0.049101	0.705741
H68	H	1.166992	-0.167969	0.675431
H69	H	1.224229	-0.301177	0.725797
C70	C	1.710590	-0.317240	0.785994
C71	C	1.769363	-0.261174	0.737262
C72	C	1.880272	-0.279058	0.708895
C73	C	1.932409	-0.353008	0.729261
C74	C	1.873636	-0.409079	0.777995
C75	C	1.762727	-0.391195	0.806362
H76	H	1.730768	-0.206427	0.722184
H77	H	1.923779	-0.237550	0.672818
H78	H	2.014510	-0.366246	0.708262
H79	H	1.912231	-0.463825	0.793073
H80	H	1.719220	-0.432703	0.842439
H81	H	1.682292	-0.312666	0.920589
C82	C	1.574277	-0.785270	0.221345
C83	C	1.553625	-0.840588	0.158331
C84	C	1.528270	-0.812275	0.080135
C85	C	1.523566	-0.728644	0.064953
C86	C	1.544219	-0.673321	0.127969
C87	C	1.569574	-0.701634	0.206165
H88	H	1.557107	-0.902501	0.169568
H89	H	1.512982	-0.853229	0.033486
H90	H	1.504797	-0.707685	0.007068
H91	H	1.540737	-0.611408	0.116732
H92	H	1.584862	-0.660680	0.252814
H93	H	1.630249	-0.918718	0.451427
H94	H	1.681263	-0.920673	0.312469
H95	H	1.625962	-0.454263	0.921345
H96	H	0.919354	-0.537619	0.537063
C97	C	1.325741	-0.926426	0.393224
C98	C	1.359846	-0.977100	0.457158
C99	C	1.278369	-1.004482	0.513613
C100	C	1.162787	-0.981191	0.506134
C101	C	1.128676	-0.930515	0.442197
C102	C	1.210153	-0.903132	0.385742
H103	H	1.445411	-0.994344	0.462696
H104	H	1.303621	-1.041996	0.560943
H105	H	1.102473	-1.001461	0.547925
H106	H	1.043111	-0.913271	0.436658
H107	H	1.184901	-0.865618	0.338412
C108	C	1.134041	-0.257135	0.257465
C109	C	1.209503	-0.199028	0.289669
C110	C	1.269854	-0.146859	0.237672
C111	C	1.254744	-0.152797	0.153471
C112	C	1.179279	-0.210906	0.121262
C113	C	1.118928	-0.263075	0.173259
H114	H	1.220692	-0.194630	0.352003
H115	H	1.325719	-0.103843	0.261515
H116	H	1.299420	-0.114179	0.114980
H117	H	1.168090	-0.215304	0.058928
H118	H	1.063063	-0.306091	0.149416
C119	C	0.903611	-0.257159	0.257469
C120	C	0.782922	-0.257175	0.257469
C121	C	0.722563	-0.205023	0.205466
C122	C	0.782895	-0.152855	0.153463
C123	C	0.903591	-0.152837	0.153461
C124	C	0.963950	-0.204989	0.205464
H125	H	0.738254	-0.295794	0.295966
H126	H	0.633215	-0.205036	0.205468
H127	H	0.738214	-0.114249	0.114968
H128	H	0.948258	-0.114217	0.114964
H129	H	1.053298	-0.204975	0.205462
H130	H	1.581508	-0.241813	0.921532
C131	C	1.710890	-0.785825	0.317424
C132	C	1.799753	-0.841585	0.331621
C133	C	1.911009	-0.813823	0.349514
C134	C	1.933401	-0.730301	0.353209
C135	C	1.844535	-0.674536	0.339011
C136	C	1.733279	-0.702298	0.321118
H137	H	1.783180	-0.903417	0.328886
H138	H	1.976793	-0.855104	0.360024
H139	H	2.015759	-0.709750	0.366454
H140	H	1.861109	-0.612703	0.341745
H141	H	1.667495	-0.661016	0.310608
H142	H	1.345438	-0.374701	0.920348
C143	C	1.472803	-0.926808	0.494216
C144	C	1.355857	-0.906162	0.490387
C145	C	1.279688	-0.934168	0.550122
C146	C	1.320466	-0.982820	0.613685
C147	C	1.437418	-1.003469	0.617516
C148	C	1.513586	-0.975463	0.557782
H149	H	1.325665	-0.870144	0.443331
H150	H	1.193113	-0.918882	0.547285
H151	H	1.264082	-1.003552	0.657904
H152	H	1.467609	-1.039486	0.664572
H153	H	1.600162	-0.990749	0.560618
H154	H	1.630548	-0.450545	0.793741
H155	H	1.379923	-0.920714	0.280837
C156	C	1.134091	-0.551153	0.550551
C157	C	1.118971	-0.635335	0.544354
C158	C	1.179327	-0.687493	0.596353
C159	C	1.254802	-0.655469	0.654547
C160	C	1.269926	-0.571282	0.660746
C161	C	1.209570	-0.519124	0.608748
H162	H	1.063096	-0.659046	0.501273
H163	H	1.168131	-0.749814	0.591763
H164	H	1.299481	-0.694079	0.693040
H165	H	1.325800	-0.547572	0.703828
H166	H	1.220766	-0.456803	0.613337
C167	C	1.466482	-0.492362	0.927054
C168	C	1.375850	-0.468288	0.977799
C169	C	1.295664	-0.525686	1.005152
C170	C	1.306110	-0.607159	0.981762
C171	C	1.396746	-0.631237	0.931014
C172	C	1.476932	-0.573839	0.903661
H173	H	1.368113	-0.407973	0.995116
H174	H	1.228569	-0.507861	1.042719
H175	H	1.246752	-0.649648	1.002010
H176	H	1.404482	-0.691552	0.913697
H177	H	1.544027	-0.591664	0.866094
C178	C	1.656917	-0.784108	0.458074
C179	C	1.746638	-0.838763	0.473806
C180	C	1.855203	-0.809718	0.497079
C181	C	1.874046	-0.726018	0.504620
C182	C	1.784322	-0.671358	0.488888
C183	C	1.675758	-0.700403	0.465615
H184	H	1.732692	-0.900728	0.468224
H185	H	1.921623	-0.850181	0.508725
H186	H	1.954412	-0.704517	0.521848
H187	H	1.798269	-0.609394	0.494470
H188	H	1.609338	-0.659940	0.453969
H189	H	1.344219	-0.792011	0.373763
C190	C	1.377202	-0.786039	0.257422
C191	C	1.367730	-0.702633	0.242114
C192	C	1.337163	-0.675269	0.164507
C193	C	1.316068	-0.731310	0.102209
C194	C	1.325539	-0.814721	0.117516
C195	C	1.356106	-0.842085	0.195122
H196	H	1.383347	-0.661144	0.288232
H197	H	1.330152	-0.613523	0.153176
H198	H	1.293440	-0.711053	0.044760
H199	H	1.309922	-0.856211	0.071397
H200	H	1.363117	-0.903832	0.206453
H201	H	1.581018	-0.241277	0.793903
H202	H	1.384311	-0.277679	0.919634
H203	H	1.345368	-0.375656	0.793616
H204	H	0.819788	-0.451590	0.451309
H205	H	1.217924	-0.451565	0.451274
H206	H	1.491198	-0.792793	0.478701
H207	H	1.494053	-0.479330	0.792638
