data_functionalizedCrystal
_audit_creation_method	'MofGen! by Chris Wilmer'
_symmetry_space_group_name_H-M	'P1'
_symmetry_Int_Tables_number	1
_symmetry_cell_setting	triclinic
loop_
_symmetry_equiv_pos_as_xyz
  x,y,z
_cell_length_a	21.395362
_cell_length_b	10.686285
_cell_length_c	21.395356
_cell_angle_alpha	85.612989
_cell_angle_beta	89.964230
_cell_angle_gamma	85.645931
loop_
_atom_site_label
_atom_site_type_symbol
_atom_site_fract_x
_atom_site_fract_y
_atom_site_fract_z
Zn1	Zn	0.977030	-0.501856	-0.335535
Zn2	Zn	0.985028	-0.712853	-0.222748
Zn3	Zn	0.872263	-0.501941	-0.230733
Zn4	Zn	0.880295	-0.712853	-0.327453
O5	O	0.928654	-0.607376	-0.279117
O6	O	1.065767	-0.529810	-0.320614
O7	O	0.970056	-0.684911	-0.136128
O8	O	0.879452	-0.325359	-0.251360
O9	O	1.071644	-0.684828	-0.237750
O10	O	0.956423	-0.325296	-0.328357
O11	O	0.887207	-0.529954	-0.141995
O12	O	0.785652	-0.529954	-0.243523
O13	O	0.893141	-0.684828	-0.416204
O14	O	0.791553	-0.684910	-0.314582
O15	O	0.964212	-0.529809	-0.422142
O16	O	0.977844	-0.889423	-0.229913
O17	O	0.900897	-0.889423	-0.306840
C18	C	0.765869	-0.607442	-0.279042
C19	C	0.696230	-0.607501	-0.279024
C20	C	0.666610	-0.688294	-0.315960
C21	C	0.601173	-0.688263	-0.315990
C22	C	0.565360	-0.607453	-0.279070
C23	C	0.594987	-0.526644	-0.242131
C24	C	0.660422	-0.526669	-0.242108
C25	C	0.461254	-0.597302	-0.223050
C26	C	0.395821	-0.597286	-0.223072
C27	C	0.363536	-0.607370	-0.279143
C28	C	0.396694	-0.617496	-0.335192
C29	C	0.462129	-0.617520	-0.335169
C30	C	0.494406	-0.607417	-0.279092
C31	C	0.262962	-0.688134	-0.316114
C32	C	0.197524	-0.688094	-0.316144
C33	C	0.191339	-0.526482	-0.242280
C34	C	0.256776	-0.526515	-0.242256
C35	C	0.292584	-0.607348	-0.279171
C36	C	0.941127	-0.935206	-0.266647
C37	C	0.946520	-1.075453	-0.261333
C38	C	1.092075	-0.607309	-0.279193
C39	C	1.161715	-0.607281	-0.279226
C40	C	0.928680	-0.607309	-0.442543
C41	C	0.928691	-0.607281	-0.512186
C42	C	0.916149	-0.278265	-0.291651
C43	C	0.910821	-0.138017	-0.296992
C44	C	0.971891	-0.687702	-1.010938
C45	C	0.971881	-0.687742	-0.945501
C46	C	0.928743	-0.607081	-0.915832
C47	C	0.885602	-0.526396	-0.951604
C48	C	0.885609	-0.526368	-1.017040
C49	C	0.919466	-0.493448	-0.816488
C50	C	0.919463	-0.493474	-0.751054
C51	C	0.928719	-0.607170	-0.714008
C52	C	0.937990	-0.720843	-0.742403
C53	C	0.937997	-0.720814	-0.807838
C54	C	0.928731	-0.607104	-0.844879
C55	C	0.971844	-0.687899	-0.607289
C56	C	0.971830	-0.687942	-0.541850
C57	C	0.885554	-0.526584	-0.547955
C58	C	0.885565	-0.526554	-0.613392
C59	C	0.928713	-0.607209	-0.643055
C60	C	0.928660	-0.607351	-0.116331
C61	C	0.928757	-0.607023	-0.046702
H62	H	0.695761	-0.754112	-0.346021
N63	N	0.947981	-0.843411	-0.838463
H64	H	0.946578	-0.826135	-0.885537
H65	H	0.990155	-0.886287	-0.825418
N66	N	0.839046	-0.439515	-0.651966
H67	H	0.862289	-0.381019	-0.681354
H68	H	0.811973	-0.490879	-0.677109
H69	H	0.876131	-1.084289	-0.331587
N70	N	1.018409	-0.774751	-0.906914
H71	H	0.995170	-0.833251	-0.877524
H72	H	1.045732	-0.825757	-0.935676
H73	H	0.981208	-1.129190	-0.226731
N74	N	1.018424	-0.774698	-1.042931
H75	H	1.045746	-0.825817	-1.010341
H76	H	0.995142	-0.833093	-1.067842
N77	N	0.361884	-0.628470	-0.395664
H78	H	0.392819	-0.634923	-0.431162
H79	H	0.337693	-0.706228	-0.391713
N80	N	0.301587	-0.775309	-0.355930
H81	H	0.289511	-0.755829	-0.401459
H82	H	0.347522	-0.763032	-0.350254
H83	H	0.945528	-0.813425	-0.712240
N84	N	1.018378	-0.774890	-0.639288
H85	H	1.045699	-0.826015	-0.606699
H86	H	0.995098	-0.833279	-0.664204
N87	N	0.569215	-0.775404	-0.355831
H88	H	0.601829	-0.826612	-0.379214
H89	H	0.544247	-0.833710	-0.328066
N90	N	0.497893	-0.628439	-0.395616
H91	H	0.467516	-0.634825	-0.431142
H92	H	0.522142	-0.551584	-0.404408
H93	H	1.006952	-0.753652	-0.512731
H94	H	0.850429	-0.460911	-0.523799
N95	N	0.165574	-0.775243	-0.355983
H96	H	0.198190	-0.826456	-0.379360
H97	H	0.140605	-0.833544	-0.328215
H98	H	0.911918	-0.400915	-0.727941
N99	N	0.909479	-0.370812	-0.856444
H100	H	0.903610	-0.298808	-0.828528
H101	H	0.947211	-0.359066	-0.884059
H102	H	0.850478	-0.460723	-0.927443
H103	H	0.162180	-0.460679	-0.212223
N104	N	0.839084	-0.439348	-1.055619
H105	H	0.811752	-0.388256	-1.026897
H106	H	0.862371	-0.380929	-1.085003
H107	H	0.368829	-0.589049	-0.177433
N108	N	0.288728	-0.439366	-0.202421
H109	H	0.256112	-0.388162	-0.179038
H110	H	0.317791	-0.490646	-0.171422
N111	N	0.496073	-0.586419	-0.162571
H112	H	0.465141	-0.580012	-0.127069
H113	H	0.526122	-0.663294	-0.153759
H114	H	0.565823	-0.460846	-0.212073
N115	N	0.692373	-0.439515	-0.202273
H116	H	0.659759	-0.388309	-0.178891
H117	H	0.721434	-0.490801	-0.171273
