data_functionalizedCrystal
_audit_creation_method	'MofGen! by Chris Wilmer'
_symmetry_space_group_name_H-M	'P1'
_symmetry_Int_Tables_number	1
_symmetry_cell_setting	triclinic
loop_
_symmetry_equiv_pos_as_xyz
  x,y,z
_cell_length_a	16.120530
_cell_length_b	16.120484
_cell_length_c	16.120297
_cell_angle_alpha	95.614431
_cell_angle_beta	89.871860
_cell_angle_gamma	89.832673
loop_
_atom_site_label
_atom_site_type_symbol
_atom_site_fract_x
_atom_site_fract_y
_atom_site_fract_z
Zn1	Zn	1.224987	0.422264	0.554813
Zn2	Zn	1.724987	0.922264	1.054813
Zn3	Zn	1.224883	0.554948	0.422118
Zn4	Zn	1.724883	1.054948	0.922118
Zn5	Zn	1.093726	0.408180	0.408056
Zn6	Zn	1.593726	0.908180	0.908056
Zn7	Zn	1.078880	0.554181	0.554051
Zn8	Zn	1.578880	1.054181	1.054051
O9	O	1.155619	0.484893	0.484760
O10	O	1.655619	0.984893	0.984760
O11	O	1.341009	0.446081	0.543415
O12	O	1.841009	0.946081	1.043415
O13	O	1.213654	0.529906	0.303620
O14	O	1.713654	1.029906	0.803620
O15	O	1.117395	0.293418	0.421958
O16	O	1.617395	0.793418	0.921958
O17	O	1.340932	0.543563	0.445925
O18	O	1.840932	1.043563	0.945925
O19	O	1.213832	0.303765	0.529780
O20	O	1.713832	0.803765	1.029780
O21	O	1.117294	0.422076	0.293289
O22	O	1.617294	0.922076	0.793289
O23	O	0.975721	0.421332	0.421218
O24	O	1.475721	0.921332	0.921218
O25	O	1.092092	0.542255	0.670785
O26	O	1.592092	1.042255	1.170785
O27	O	0.964814	0.528598	0.528480
O28	O	1.464814	1.028598	1.028480
O29	O	1.199436	0.445336	0.671345
O30	O	1.699436	0.945336	1.171345
O31	O	1.199258	0.671477	0.445185
O32	O	1.699258	1.171477	0.945185
O33	O	1.091990	0.670913	0.542116
O34	O	1.591990	1.170913	1.042116
C35	C	1.144023	0.701438	0.495113
C36	C	1.644023	1.201438	0.995113
C37	C	1.139137	0.794083	0.499574
C38	C	1.639137	1.294083	0.999574
C39	C	0.940181	0.473354	0.473241
C40	C	1.440181	0.973354	0.973241
C41	C	0.848013	0.468438	0.468334
C42	C	1.348013	0.968438	0.968334
C43	C	1.144119	0.495281	0.702152
C44	C	1.644119	0.995281	1.202152
C45	C	1.139219	0.499708	0.794791
C46	C	1.639219	0.999708	1.294791
C47	C	0.679262	0.459445	0.459381
C48	C	1.179262	0.959445	0.959381
C49	C	0.632810	0.510407	0.510202
C50	C	1.132810	1.010407	1.010202
C51	C	0.538911	0.505403	0.505220
C52	C	1.038911	1.005403	1.005220
C53	C	0.773169	0.464448	0.464361
C54	C	1.273169	0.964448	0.964361
C55	C	1.371899	0.496479	0.496324
C56	C	1.871899	0.996479	0.996324
C57	C	1.464064	0.501416	0.501252
C58	C	1.964064	1.001416	1.001252
C59	C	1.167282	0.267505	0.474385
C60	C	1.667282	0.767505	0.974385
C61	C	1.172251	0.174867	0.469964
C62	C	1.672251	0.674867	0.969964
C63	C	1.130220	0.963706	0.507736
C64	C	1.630220	1.463706	1.007736
C65	C	1.181166	1.005249	0.461804
C66	C	1.681166	1.505249	0.961804
C67	C	1.176204	1.099633	0.466346
C68	C	1.676204	1.599633	0.966346
C69	C	1.135180	0.869313	0.503196
C70	C	1.635180	1.369313	1.003196
C71	C	1.167125	0.474489	0.268213
C72	C	1.667125	0.974489	0.768213
C73	C	1.172198	0.469836	0.175571
C74	C	1.672198	0.969836	0.675571
C75	C	1.130243	0.507770	0.964403
C76	C	1.630243	1.007770	1.464403
C77	C	1.181172	0.461776	1.005965
C78	C	1.681172	0.961776	1.505965
C79	C	1.176177	0.466262	1.100342
C80	C	1.676177	0.966262	1.600342
C81	C	1.135236	0.503285	0.870017
C82	C	1.635236	1.003285	1.370017
H83	H	0.663563	0.557794	0.557453
H84	H	1.163563	1.057794	1.057453
C85	C	1.244374	0.958316	0.404795
C86	C	1.744374	1.458316	0.904795
C87	C	1.290414	1.015198	0.363322
C88	C	1.790414	1.515198	0.863322
C89	C	1.348650	0.971992	0.310807
C90	C	1.848650	1.471992	0.810807
H91	H	1.216445	0.920967	0.365093
H92	H	1.716445	1.420967	0.865093
H93	H	1.280589	0.927780	0.437014
H94	H	1.780589	1.427780	0.937014
H95	H	1.254203	1.045721	0.331105
H96	H	1.754203	1.545721	0.831105
H97	H	1.318360	1.052549	0.403003
H98	H	1.818360	1.552549	0.903003
H99	H	1.384865	0.941455	0.343026
H100	H	1.884865	1.441455	0.843026
H101	H	1.320714	0.934644	0.271111
H102	H	1.820714	1.434644	0.771111
H103	H	1.379900	1.010580	0.282667
H104	H	1.879900	1.510580	0.782667
H105	H	1.082881	0.999022	0.550467
H106	H	1.582881	1.499022	1.050467
C107	C	1.067241	0.564881	1.011518
C108	C	1.567241	1.064881	1.511518
C109	C	1.108745	0.623151	1.066552
C110	C	1.608745	1.123151	1.566552
C111	C	1.050740	0.675783	1.109971
C112	C	1.550740	1.175783	1.609971
H113	H	1.031035	0.532747	1.042089
H114	H	1.531035	1.032747	1.542089
H115	H	1.035953	0.593204	0.973062
H116	H	1.535953	1.093204	1.473062
H117	H	1.140019	0.594830	1.105003
H118	H	1.640019	1.094830	1.605003
H119	H	1.144946	0.655304	1.036002
H120	H	1.644946	1.155304	1.536002
H121	H	1.019451	0.704107	1.071515
H122	H	1.519451	1.204107	1.571515
H123	H	1.014537	0.643643	1.140538
H124	H	1.514537	1.143643	1.640538
H125	H	1.078892	0.715330	1.147311
H126	H	1.578892	1.215330	1.647311
H127	H	0.648511	0.412060	0.412135
H128	H	1.148511	0.912060	0.912135
C129	C	1.244275	0.404850	0.958758
C130	C	1.744275	0.904850	1.458758
C131	C	1.236759	0.411674	0.873179
C132	C	1.736759	0.911674	1.373179
C133	C	1.294875	0.359252	0.829664
C134	C	1.794875	0.859252	1.329664
H135	H	1.234457	0.348830	0.969551
H136	H	1.734457	0.848830	1.469551
H137	H	1.298621	0.420692	0.976492
H138	H	1.798621	0.920692	1.476492
H139	H	1.182426	0.395827	0.855452
H140	H	1.682426	0.895827	1.355452
H141	H	1.246585	0.467682	0.862362
H142	H	1.746585	0.967682	1.362362
H143	H	1.349221	0.375094	0.847397
H144	H	1.849221	0.875094	1.347397
H145	H	1.285052	0.303236	0.840463
H146	H	1.785052	0.803236	1.340463
H147	H	1.289788	0.363881	0.771595
H148	H	1.789788	0.863881	1.271595
