data_functionalizedCrystal
_audit_creation_method	'MofGen! by Chris Wilmer'
_symmetry_space_group_name_H-M	'P1'
_symmetry_Int_Tables_number	1
_symmetry_cell_setting	triclinic
loop_
_symmetry_equiv_pos_as_xyz
  x,y,z
_cell_length_a	17.699104
_cell_length_b	19.188930
_cell_length_c	16.776229
_cell_angle_alpha	89.988225
_cell_angle_beta	89.991971
_cell_angle_gamma	83.218149
loop_
_atom_site_label
_atom_site_type_symbol
_atom_site_fract_x
_atom_site_fract_y
_atom_site_fract_z
O1	O	1.003952	0.088364	-0.066313
O2	O	1.503952	0.588364	0.433687
O3	O	0.783561	0.099836	-0.066313
O4	O	1.283561	0.599836	0.433687
O5	O	0.900117	-0.007548	-0.066297
O6	O	1.400117	0.492452	0.433703
O7	O	0.887397	0.195748	-0.066328
O8	O	1.387397	0.695748	0.433672
O9	O	0.900101	-0.007555	0.066279
O10	O	1.400101	0.492445	0.566279
O11	O	0.783545	0.099829	0.066264
O12	O	1.283545	0.599829	0.566264
O13	O	1.003937	0.088357	0.066263
O14	O	1.503937	0.588357	0.566263
Zn15	Zn	0.893739	0.094092	0.087313
Zn16	Zn	1.393739	0.594092	0.587313
Zn17	Zn	0.893759	0.094101	-0.087362
Zn18	Zn	1.393759	0.594101	0.412638
O19	O	0.887381	0.195741	0.066248
O20	O	1.387381	0.695741	0.566248
C21	C	0.755357	0.099419	-0.000024
C22	C	1.255357	0.599419	0.499976
C23	C	0.671341	0.098178	-0.000023
C24	C	1.171341	0.598178	0.499977
C25	C	0.899697	-0.033563	-0.000007
C26	C	1.399697	0.466437	0.499993
C27	C	0.898460	-0.111069	0.000000
C28	C	1.398460	0.388931	0.500000
C29	C	0.146397	0.154214	-0.000040
C30	C	0.646397	0.654214	0.499960
C31	C	0.225339	0.155375	-0.000042
C32	C	0.725339	0.655375	0.499958
C33	C	0.274039	0.092337	-0.000033
C34	C	0.774039	0.592337	0.499967
C35	C	0.243794	0.028132	-0.000028
C36	C	0.743794	0.528132	0.499972
C37	C	0.164853	0.026972	-0.000032
C38	C	0.664853	0.526972	0.499968
C39	C	0.562154	0.032812	-0.000016
C40	C	1.062154	0.532812	0.499984
C41	C	0.641100	0.033978	-0.000011
C42	C	1.141100	0.533978	0.499989
C43	C	0.622640	0.161216	-0.000027
C44	C	1.122640	0.661216	0.499973
C45	C	0.543699	0.160055	-0.000030
C46	C	1.043699	0.660055	0.499970
C47	C	0.513460	0.095851	-0.000030
C48	C	1.013460	0.595851	0.499970
C49	C	0.427862	0.094593	-0.000029
C50	C	0.927862	0.594593	0.499971
C51	C	0.359636	0.093595	-0.000028
C52	C	0.859636	0.593595	0.499972
C53	C	0.966851	-0.155912	0.000004
C54	C	1.466851	0.344088	0.500004
C55	C	0.965690	-0.228737	-0.000009
C56	C	1.465690	0.271263	0.499991
C57	C	0.896133	-0.256716	-0.000010
C58	C	1.396133	0.243284	0.499990
C59	C	0.827733	-0.211864	-0.000018
C60	C	1.327733	0.288136	0.499982
C61	C	0.828897	-0.139040	-0.000013
C62	C	1.328897	0.360960	0.499987
N63	N	0.842960	-0.364787	0.045109
N64	N	1.342960	0.135213	0.545109
N65	N	0.841859	-0.433967	0.045106
N66	N	1.341859	0.066033	0.545106
C67	C	0.892623	-0.476129	-0.000026
C68	C	1.392623	0.023871	0.499974
N69	N	0.944540	-0.446500	-0.045144
N70	N	1.444540	0.053500	0.454856
N71	N	0.945643	-0.377314	-0.045138
N72	N	1.445643	0.122686	0.454862
C73	C	0.894864	-0.335680	-0.000015
C74	C	1.394864	0.164320	0.499985
C75	C	0.959759	-0.599938	-0.000037
C76	C	1.459759	-0.099938	0.499963
C77	C	0.958595	-0.672764	-0.000055
C78	C	1.458595	-0.172764	0.499945
C79	C	0.820636	-0.655889	-0.000055
C80	C	1.320636	-0.155889	0.499945
C81	C	0.821802	-0.583065	-0.000045
C82	C	1.321802	-0.083065	0.499955
C83	C	0.891366	-0.555094	-0.000033
C84	C	1.391366	-0.055094	0.499967
C85	C	1.032141	0.088774	-0.000027
C86	C	1.532141	0.588774	0.499973
C87	C	1.116156	0.090014	-0.000033
C88	C	1.616156	0.590014	0.499967
C89	C	0.887801	0.221756	-0.000044
C90	C	1.387801	0.721756	0.499956
C91	C	0.889037	0.299262	-0.000056
C92	C	1.389037	0.799262	0.499944
N93	N	0.893730	0.094086	0.206524
N94	N	1.393730	0.594086	0.706524
N95	N	0.893773	0.094101	-0.206574
N96	N	1.393773	0.594101	0.293426
C97	C	0.945357	0.046555	0.248248
C98	C	1.445357	0.546555	0.748248
C99	C	0.945361	0.046555	0.331700
C100	C	1.445361	0.546555	0.831700
C101	C	0.893742	0.094088	0.373427
C102	C	1.393742	0.594088	0.873427
C103	C	0.842110	0.141621	0.331697
C104	C	1.342110	0.641621	0.831697
C105	C	0.842103	0.141618	0.248247
C106	C	1.342103	0.641618	0.748247
C107	C	0.842137	0.141635	0.668245
C108	C	1.342137	0.641635	1.168245
C109	C	0.842150	0.141636	0.751701
C110	C	1.342150	0.641636	1.251701
C111	C	0.945396	0.046572	0.751698
C112	C	1.445396	0.546572	1.251698
C113	C	0.945388	0.046569	0.668247
C114	C	1.445388	0.546569	1.168247
C115	C	0.893754	0.094098	0.626525
C116	C	1.393754	0.594098	1.126525
C117	C	0.893749	0.094097	0.536037
C118	C	1.393749	0.594097	1.036037
C119	C	0.893750	0.094093	0.463914
C120	C	1.393750	0.594093	0.963914
H121	H	0.106749	0.205547	-0.000042
H122	H	0.606749	0.705547	0.499958
O123	O	0.760213	-0.239123	-0.000123
O124	O	1.260213	0.260877	0.499877
C125	C	0.755415	-0.280715	-0.068797
C126	C	1.255415	0.219285	0.431203
H127	H	0.815132	-0.298945	-0.091686
H128	H	1.315132	0.201055	0.408314
H129	H	0.725402	-0.328358	-0.053356
H130	H	1.225402	0.171642	0.446644
H131	H	0.721831	-0.248478	-0.116877
H132	H	1.221831	0.251522	0.383123
O133	O	1.032079	-0.272377	0.000106
O134	O	1.532079	0.227623	0.500106
C135	C	1.035523	-0.315005	0.068779
C136	C	1.535523	0.184995	0.568779
H137	H	0.975454	-0.318591	0.091661
H138	H	1.475454	0.181409	0.591661
H139	H	1.063899	-0.369783	0.053340
H140	H	1.563899	0.130217	0.553340
H141	H	1.069999	-0.291111	0.116864
H142	H	1.569999	0.208889	0.616864
O143	O	0.995544	0.000484	0.372322
O144	O	1.495544	0.500484	0.872322
C145	C	1.042117	0.037834	0.420558
C146	C	1.542117	0.537834	0.920558
H147	H	1.011785	0.092501	0.433047
H148	H	1.511785	0.592501	0.933047
H149	H	1.054192	0.008683	0.479248
H150	H	1.554192	0.508683	0.979248
H151	H	1.098033	0.042520	0.388384
H152	H	1.598033	0.542520	0.888384
O153	O	0.995455	0.000247	0.627816
O154	O	1.495455	0.500247	1.127816
C155	C	0.983325	-0.068816	0.648341
C156	C	1.483325	0.431184	1.148341
H157	H	0.922712	-0.069019	0.671257
H158	H	1.422712	0.430981	1.171257
H159	H	0.992156	-0.103938	0.593527
H160	H	1.492156	0.396062	1.093527
H161	H	1.025297	-0.089336	0.696835
H162	H	1.525297	0.410664	1.196835
H163	H	1.014289	-0.709275	-0.000056
H164	H	1.514289	-0.209275	0.499944
H165	H	0.249956	0.207653	-0.000055
H166	H	0.749956	0.707653	0.499945
O167	O	0.762528	-0.095377	-0.000047
O168	O	1.262528	0.404623	0.499953
C169	C	0.778471	-0.025103	-0.000018
C170	C	1.278471	0.474897	0.499982
H171	H	0.837914	-0.022401	-0.025114
H172	H	1.337914	0.477599	0.474886
H173	H	0.734868	0.007973	-0.038506
H174	H	1.234868	0.507973	0.461494
H175	H	0.775523	-0.004053	0.063589
H176	H	1.275523	0.495947	0.563589
O177	O	0.791926	0.187834	0.792113
O178	O	1.291926	0.687834	1.292113
C179	C	0.746360	0.229795	0.737394
C180	C	1.246360	0.729795	1.237394
H181	H	0.745597	0.201170	0.677915
H182	H	1.245597	0.701170	1.177915
H183	H	0.685888	0.240505	0.761522
H184	H	1.185888	0.740505	1.261522
H185	H	0.770750	0.281640	0.728498
H186	H	1.270750	0.781640	1.228498
H187	H	0.537544	-0.019466	-0.000014
H188	H	1.037544	0.480534	0.499986
O189	O	1.027396	-0.572877	-0.000074
O190	O	1.527396	-0.072877	0.499926
C191	C	1.087513	-0.628077	-0.000065
C192	C	1.587513	-0.128077	0.499935
H193	H	1.066462	-0.677510	-0.025166
H194	H	1.566462	-0.177510	0.474834
H195	H	1.136091	-0.612927	-0.038560
H196	H	1.636091	-0.112927	0.461440
H197	H	1.108598	-0.638431	0.063535
H198	H	1.608598	-0.138431	0.563535
O199	O	0.995476	0.000421	0.792352
O200	O	1.495476	0.500421	1.292352
C201	C	0.984429	0.010622	0.874956
C202	C	1.484429	0.510622	1.374956
H203	H	0.924171	0.036780	0.886363
H204	H	1.424171	0.536780	1.386363
H205	H	0.993033	-0.042263	0.906681
H206	H	1.493033	0.457737	1.406681
H207	H	1.027148	0.045597	0.898618
H208	H	1.527148	0.545597	1.398618
H209	H	0.800062	0.180321	0.214276
H210	H	1.300062	0.680321	0.714276
O211	O	0.753134	-0.683175	-0.000024
O212	O	1.253134	-0.183175	0.499976
C213	C	0.766770	-0.757068	-0.000053
C214	C	1.266770	-0.257068	0.499947
H215	H	0.825887	-0.774271	0.025049
H216	H	1.325887	-0.274271	0.525049
H217	H	0.722269	-0.779367	0.038430
H218	H	1.222269	-0.279367	0.538430
H219	H	0.763182	-0.777317	-0.063660
H220	H	1.263182	-0.277317	0.436340
O221	O	0.792093	0.187842	0.627639
O222	O	1.292093	0.687842	1.127639
C223	C	0.832478	0.230884	0.579364
C224	C	1.332478	0.730884	1.079364
H225	H	0.891787	0.203004	0.566846
H226	H	1.391787	0.703004	1.066846
H227	H	0.800842	0.241974	0.520691
H228	H	1.300842	0.741974	1.020691
H229	H	0.837460	0.282476	0.611518
H230	H	1.337460	0.782476	1.111518
H231	H	0.504050	0.211388	-0.000034
H232	H	1.004050	0.711388	0.499966
H233	H	0.647269	0.213494	-0.000031
H234	H	1.147269	0.713494	0.499969
H235	H	0.766111	-0.546553	-0.000044
H236	H	1.266111	-0.046553	0.499956
H237	H	0.800077	0.180321	0.365676
H238	H	1.300077	0.680321	0.865676
O239	O	0.688302	-0.027326	-0.000043
O240	O	1.188302	0.472674	0.499957
C241	C	0.644686	-0.084244	-0.000027
C242	C	1.144686	0.415756	0.499973
H243	H	0.585712	-0.066421	-0.025130
H244	H	1.085712	0.433579	0.474870
H245	H	0.673959	-0.128396	-0.038516
H246	H	1.173959	0.371604	0.461484
H247	H	0.639119	-0.103940	0.063576
H248	H	1.139119	0.396060	0.563576
H249	H	0.140234	-0.025306	-0.000028
H250	H	0.640234	0.474694	0.499972
O251	O	0.291207	-0.033040	0.000016
O252	O	0.791207	0.466960	0.500016
C253	C	0.367368	-0.018250	0.000000
C254	C	0.867368	0.481750	0.500000
H255	H	0.370215	0.036583	0.025092
H256	H	0.870215	0.536583	0.525092
H257	H	0.403255	-0.058442	0.038499
H258	H	0.903255	0.441558	0.538499
H259	H	0.390220	-0.020933	-0.063601
H260	H	0.890220	0.479067	0.436399
O261	O	1.034444	-0.128777	-0.000132
O262	O	1.534444	0.371223	0.499868
C263	C	1.076139	-0.151708	-0.068783
C264	C	1.576139	0.348292	0.431217
H265	H	1.035465	-0.166779	-0.116777
H266	H	1.535465	0.333221	0.383223
H267	H	1.108200	-0.107642	-0.091827
H268	H	1.608200	0.392358	0.408173
H269	H	1.118466	-0.199245	-0.053259
H270	H	1.618466	0.300755	0.446741
O271	O	0.995530	0.000313	0.207842
O272	O	1.495530	0.500313	0.707842
C273	C	1.041109	-0.041627	0.262568
C274	C	1.541109	0.458373	0.762568
H275	H	1.010086	-0.042378	0.322062
H276	H	1.510086	0.457622	0.822062
H277	H	1.052840	-0.097400	0.238471
H278	H	1.552840	0.402600	0.738471
H279	H	1.097254	-0.019017	0.271423
H280	H	1.597254	0.480983	0.771423
