data_functionalizedCrystal
_audit_creation_method	'MofGen! by Chris Wilmer'
_symmetry_space_group_name_H-M	'P1'
_symmetry_Int_Tables_number	1
_symmetry_cell_setting	triclinic
loop_
_symmetry_equiv_pos_as_xyz
  x,y,z
_cell_length_a	14.628931
_cell_length_b	14.628931
_cell_length_c	14.628931
_cell_angle_alpha	60.000000
_cell_angle_beta	90.000000
_cell_angle_gamma	60.000000
loop_
_atom_site_label
_atom_site_type_symbol
_atom_site_fract_x
_atom_site_fract_y
_atom_site_fract_z
Zr1	Zr	0.880621	1.000576	-0.119961
O2	O	0.734660	1.191281	-0.265922
O3	O	0.925365	0.809870	-0.075216
O4	O	0.925366	1.000575	-0.265921
O5	O	0.734659	1.000577	0.075215
O6	O	1.075798	1.000575	-0.265921
O7	O	0.734660	1.000576	-0.075216
O8	O	1.075797	0.659438	0.075216
O9	O	0.734660	1.341713	-0.265922
O10	O	1.056714	0.888310	-0.056132
O11	O	0.944448	0.888310	0.056133
O12	O	0.944449	1.112841	-0.168398
O13	O	0.832183	1.112842	-0.056133
Zr14	Zr	1.120542	1.000576	0.119961
Zr15	Zr	1.120542	1.000575	-0.119960
Zr16	Zr	0.880620	1.000576	0.119960
Zr17	Zr	0.880621	1.240497	-0.119961
Zr18	Zr	1.120542	0.760654	0.119961
O19	O	1.075798	1.191281	0.075216
O20	O	1.075798	1.191280	-0.265921
O21	O	0.734660	1.191282	0.075215
O22	O	1.266503	0.809870	0.265922
O23	O	1.266503	0.809869	-0.075215
O24	O	0.925365	0.809871	0.265921
O25	O	1.266503	1.000575	-0.075215
O26	O	1.075797	1.000576	0.265921
O27	O	0.925365	1.000577	0.265921
O28	O	1.266503	1.000575	0.075216
O29	O	0.925366	1.341713	-0.265922
O30	O	1.075797	0.659439	0.265922
O31	O	1.266502	0.659438	0.265922
O32	O	1.266503	0.659438	0.075217
O33	O	0.734660	1.341714	-0.075217
O34	O	0.925366	1.341713	-0.075216
O35	O	1.056714	0.888310	0.168398
O36	O	1.168980	0.888310	0.056133
O37	O	1.056715	1.112841	-0.056133
O38	O	0.944449	1.112842	0.056132
C39	C	1.000581	0.700470	0.000000
C40	C	1.000581	0.598617	0.000001
C41	C	1.056272	0.553208	-0.055691
C42	C	1.056273	0.447937	-0.055692
C43	C	0.700476	1.000576	-0.000000
C44	C	0.598623	1.000577	-0.000001
C45	C	0.608905	0.889194	0.055691
C46	C	0.503635	0.889192	0.055692
C47	C	1.300687	1.000575	0.000000
C48	C	1.402540	1.000574	0.000001
C49	C	1.000582	1.000575	-0.300105
C50	C	1.000582	1.000574	-0.401958
C51	C	1.000582	1.300681	-0.000000
C52	C	1.000582	1.402534	-0.000001
C53	C	0.944891	1.111957	-0.503058
C54	C	0.944890	1.111959	-0.608330
C55	C	1.000581	1.000576	0.300105
C56	C	1.000581	1.000577	0.401958
C57	C	1.300687	0.700469	0.000001
C58	C	1.402540	0.598616	0.000001
C59	C	1.000581	0.700471	0.300105
C60	C	1.000580	0.598619	0.401958
C61	C	1.300686	0.700470	0.300106
C62	C	1.402539	0.598617	0.401959
C63	C	0.700477	1.300681	-0.300106
C64	C	0.598624	1.402534	-0.401959
C65	C	0.700476	1.300682	-0.000001
C66	C	0.598623	1.402535	-0.000001
C67	C	1.000582	1.300680	-0.300105
C68	C	1.000583	1.402533	-0.401958
C69	C	1.392257	0.553207	-0.055690
C70	C	1.497527	0.447936	-0.055691
C71	C	1.056271	0.553209	0.503059
C72	C	1.056272	0.447939	0.608330
C73	C	1.503640	0.553208	0.391677
C74	C	1.608911	0.447937	0.496946
H75	H	0.952905	0.559557	0.047682
H76	H	1.305521	0.592270	-0.103373
H77	H	0.511886	1.095934	-0.047677
O78	O	0.888027	1.225608	-0.513155
C79	C	0.900705	1.200304	-0.405799
H80	H	0.922297	1.099551	-0.342443
H81	H	0.970894	1.205808	-0.381391
C82	C	0.764053	1.425076	-0.484897
C83	C	0.790563	1.301333	-0.407084
H84	H	0.696115	1.487398	-0.485690
H85	H	0.755514	1.442125	-0.557226
H86	H	0.822552	1.429644	-0.464548
H87	H	0.732071	1.296762	-0.427442
H88	H	0.799089	1.284286	-0.334759
O89	O	1.113322	0.401336	-0.112494
C90	C	1.227741	0.345885	-0.069404
H91	H	1.237391	0.389146	-0.026551
H92	H	1.274704	0.236901	-0.006095
C93	C	1.264396	0.320959	-0.218379
C94	C	1.276248	0.374102	-0.165753
H95	H	1.294321	0.338358	-0.277809
H96	H	1.187312	0.358312	-0.247408
H97	H	1.303533	0.230142	-0.165610
H98	H	1.237101	0.464918	-0.218519
H99	H	1.353328	0.336764	-0.136736
H100	H	1.488898	0.408881	-0.103366
H101	H	1.511897	0.441572	0.606678
O102	O	0.712435	0.775511	0.112655
C103	C	0.771242	0.768586	0.194871
H104	H	0.734588	0.870376	0.170229
H105	H	0.763368	0.710676	0.278963
C106	C	0.940650	0.576727	0.234640
C107	C	0.895636	0.701748	0.204368
H108	H	1.017383	0.535494	0.240503
H109	H	0.901031	0.581389	0.179252
H110	H	0.934078	0.528485	0.304713
H111	H	0.902196	0.749992	0.134290
H112	H	0.935260	0.697093	0.259745
H113	H	0.897204	1.207318	-0.695060
H114	H	1.048257	0.905213	-0.511315
H115	H	0.952897	0.559565	0.393338
H116	H	1.103957	0.592259	-0.103365
H117	H	1.048264	0.905218	-0.393337
H118	H	1.607259	0.441569	0.047691
O119	O	1.392386	0.552052	0.505489
C120	C	1.444268	0.575462	0.564295
H121	H	1.509404	0.587473	0.527641
H122	H	1.378484	0.667428	0.556420
C123	C	1.421815	0.445825	0.733703
C124	C	1.501823	0.460566	0.688690
H125	H	1.457314	0.374956	0.810437
H126	H	1.386857	0.430057	0.694084
H127	H	1.367001	0.522472	0.727130
H128	H	1.556627	0.383928	0.695251
H129	H	1.536791	0.476319	0.728313
H130	H	1.489276	0.559562	0.047675
H131	H	0.512264	0.793833	0.103364
H132	H	0.393903	1.095938	-0.047686
O133	O	1.113137	0.599898	0.513156
C134	C	1.100460	0.694627	0.405799
H135	H	1.078866	0.678823	0.342443
H136	H	1.030273	0.794729	0.381391
C137	C	1.237117	0.703643	0.484897
C138	C	1.210604	0.684225	0.407084
H139	H	1.305056	0.697232	0.485689
H140	H	1.245655	0.639826	0.557226
H141	H	1.178619	0.787061	0.464548
H142	H	1.269094	0.600804	0.427442
H143	H	1.202078	0.748029	0.334758
H144	H	1.103953	0.408887	0.695061
H145	H	0.952905	0.441574	0.511316
H146	H	1.512263	0.592268	0.304942
H147	H	1.695641	0.408882	0.488317
H148	H	0.952895	0.441584	0.047676
