data_functionalizedCrystal
_audit_creation_method	'MofGen! by Chris Wilmer'
_symmetry_space_group_name_H-M	'P1'
_symmetry_Int_Tables_number	1
_symmetry_cell_setting	triclinic
loop_
_symmetry_equiv_pos_as_xyz
  x,y,z
_cell_length_a	19.805407
_cell_length_b	13.897448
_cell_length_c	13.897449
_cell_angle_alpha	90.010270
_cell_angle_beta	90.008082
_cell_angle_gamma	90.017692
loop_
_atom_site_label
_atom_site_type_symbol
_atom_site_fract_x
_atom_site_fract_y
_atom_site_fract_z
Zn1	Zn	1.034700	-0.384178	0.545435
Zn2	Zn	1.534700	0.115822	1.045435
Zn3	Zn	1.034655	-0.545442	0.384136
Zn4	Zn	1.534655	-0.045442	0.884136
Zn5	Zn	0.921537	-0.384163	0.384147
Zn6	Zn	1.421537	0.115837	0.884147
Zn7	Zn	0.921495	-0.545432	0.545383
Zn8	Zn	1.421495	-0.045432	1.045383
O9	O	0.978097	-0.464804	0.464775
O10	O	1.478097	0.035196	0.964775
O11	O	1.129410	-0.405580	0.524055
O12	O	1.629410	0.094420	1.024055
O13	O	1.019648	-0.524046	0.249156
O14	O	1.519648	-0.024046	0.749156
O15	O	0.936585	-0.249183	0.405569
O16	O	1.436585	0.250817	0.905569
O17	O	1.129377	-0.524060	0.405550
O18	O	1.629377	-0.024060	0.905550
O19	O	1.019725	-0.249194	0.524066
O20	O	1.519725	0.250806	1.024066
O21	O	0.936541	-0.405555	0.249164
O22	O	1.436541	0.094445	0.749164
O23	O	0.826815	-0.405545	0.405519
O24	O	1.326815	0.094455	0.905519
O25	O	0.936513	-0.524044	0.680371
O26	O	1.436513	-0.024044	1.180371
O27	O	0.826784	-0.524029	0.523978
O28	O	1.326784	-0.024029	1.023978
O29	O	1.019684	-0.405571	0.680410
O30	O	1.519684	0.094429	1.180410
O31	O	1.019607	-0.680422	0.405500
O32	O	1.519607	-0.180422	0.905500
O33	O	0.936470	-0.680415	0.523967
O34	O	1.436470	-0.180415	1.023967
C35	C	0.802241	-0.464785	0.464744
C36	C	1.302241	0.035215	0.964744
C37	C	0.727009	-0.464801	0.464754
C38	C	1.227009	0.035199	0.964754
C39	C	0.978047	-0.715418	0.464747
C40	C	1.478047	-0.215418	0.964747
C41	C	0.978088	-0.822632	0.464768
C42	C	1.478088	-0.322632	0.964768
C43	C	0.691666	-0.526588	0.526335
C44	C	1.191666	-0.026588	1.026335
C45	C	0.620978	-0.526590	0.526349
C46	C	1.120978	-0.026590	1.026349
C47	C	0.585633	-0.464808	0.464775
C48	C	1.085633	0.035192	0.964775
C49	C	0.620981	-0.403014	0.403191
C50	C	1.120981	0.096986	0.903191
C51	C	0.691668	-0.403008	0.403183
C52	C	1.191668	0.096992	0.903183
C53	C	0.335907	-0.403035	0.403223
C54	C	0.835907	0.096965	0.903223
C55	C	0.265215	-0.403048	0.403233
C56	C	0.765215	0.096952	0.903233
C57	C	0.265217	-0.526617	0.526389
C58	C	0.765217	-0.026617	1.026389
C59	C	0.335905	-0.526611	0.526381
C60	C	0.835905	-0.026611	1.026381
C61	C	0.371246	-0.464814	0.464801
C62	C	0.871246	0.035186	0.964801
C63	C	0.447894	-0.464811	0.464788
C64	C	0.947894	0.035189	0.964788
C65	C	0.508986	-0.464815	0.464782
C66	C	1.008986	0.035185	0.964782
C67	C	0.978159	-1.018927	0.464828
C68	C	1.478159	-0.518927	0.964828
C69	C	0.978118	-0.909695	0.464798
C70	C	1.478118	-0.409695	0.964798
C71	C	1.154639	-0.464823	0.464807
C72	C	1.654639	0.035177	0.964807
C73	C	1.229871	-0.464831	0.464821
C74	C	1.729871	0.035169	0.964821
C75	C	0.978099	-0.464808	0.716368
C76	C	1.478099	0.035192	1.216368
C77	C	0.978100	-0.464809	0.823582
C78	C	1.478100	0.035191	1.323582
C79	C	0.978165	-0.213211	0.464825
C80	C	1.478165	0.286789	0.964825
C81	C	0.978194	-0.105997	0.464845
C82	C	1.478194	0.394003	0.964845
C83	C	0.978083	-0.464814	1.019877
C84	C	1.478083	0.035186	1.519877
C85	C	0.978091	-0.464814	0.910645
C86	C	1.478091	0.035186	1.410645
C87	C	0.978088	-0.464819	1.214161
C88	C	1.478088	0.035181	1.714161
C89	C	0.978082	-0.464812	1.106947
C90	C	1.478082	0.035188	1.606947
H91	H	0.592205	-0.576904	0.576494
H92	H	1.092205	-0.076904	1.076494
H93	H	0.364679	-0.576923	0.576517
H94	H	0.864679	-0.076923	1.076517
H95	H	0.364674	-0.352723	0.353073
H96	H	0.864674	0.147277	0.853073
N97	N	0.584890	-0.339904	0.340283
N98	N	1.084890	0.160096	0.840283
N99	N	0.616456	-0.284741	0.285303
N100	N	1.116456	0.215259	0.785303
H101	H	0.590969	-0.240169	0.240869
H102	H	1.090969	0.259831	0.740869
N103	N	0.727761	-0.339878	0.340282
N104	N	1.227761	0.160122	0.840282
N105	N	0.696198	-0.284716	0.285313
N106	N	1.196198	0.215284	0.785313
H107	H	0.721687	-0.240123	0.240891
H108	H	1.221687	0.259877	0.740891
H109	H	0.720439	-0.576901	0.576473
H110	H	1.220439	-0.076901	1.076473
H111	H	0.236440	-0.352732	0.353093
H112	H	0.736440	0.147268	0.853093
H113	H	0.236434	-0.576932	0.576534
H114	H	0.736434	-0.076932	1.076534
