data_functionalizedCrystal
_audit_creation_method	'MofGen! by Chris Wilmer'
_symmetry_space_group_name_H-M	'P1'
_symmetry_Int_Tables_number	1
_symmetry_cell_setting	triclinic
loop_
_symmetry_equiv_pos_as_xyz
  x,y,z
_cell_length_a	10.540510
_cell_length_b	10.654550
_cell_length_c	9.130313
_cell_angle_alpha	90.004369
_cell_angle_beta	89.996236
_cell_angle_gamma	95.500879
loop_
_atom_site_label
_atom_site_type_symbol
_atom_site_fract_x
_atom_site_fract_y
_atom_site_fract_z
O1	O	1.685844	-0.176814	-0.121808
O2	O	1.316420	-0.193529	-0.121809
O3	O	1.509626	-0.002434	-0.121799
O4	O	1.492638	-0.367908	-0.121818
O5	O	1.509612	-0.002429	0.121799
O6	O	1.316407	-0.193523	0.121790
O7	O	1.685831	-0.176808	0.121791
Cu8	Cu	1.501117	-0.185165	0.144033
Cu9	Cu	1.501133	-0.185172	-0.144051
O10	O	1.492625	-0.367903	0.121781
C11	C	1.269110	-0.192280	-0.000010
C12	C	1.128162	-0.188554	-0.000010
C13	C	0.910658	-0.321307	-0.000576
C14	C	1.057253	-0.325282	-0.000018
C15	C	1.083419	-0.118559	0.139097
C16	C	0.936659	-0.115552	0.139205
C17	C	0.936870	-0.112711	-0.137812
C18	C	1.083208	-0.119197	-0.139642
C19	C	1.508372	0.044367	-0.000001
C20	C	1.504640	0.183811	-0.000003
C21	C	1.733140	-0.178057	-0.000012
C22	C	1.874089	-0.181783	-0.000021
C23	C	1.493879	-0.414704	-0.000021
C24	C	1.497611	-0.554148	-0.000028
N25	N	1.501116	-0.185160	0.346655
C26	C	1.618396	0.263269	-0.000003
C27	C	1.614882	0.394290	-0.000021
C28	C	1.383846	0.366384	-0.000032
C29	C	1.387361	0.235365	-0.000025
N30	N	1.501145	-0.185167	-0.346674
C31	C	1.586696	-0.100579	0.423312
C32	C	1.586708	-0.100579	0.576648
C33	C	1.415555	-0.269752	0.576659
C34	C	1.415538	-0.269745	0.423325
H35	H	0.896420	-0.163382	0.243185
H36	H	1.345881	-0.338621	0.639099
H37	H	1.656377	-0.031703	0.360890
H38	H	1.130845	-0.017903	0.144276
C39	C	1.680852	-0.007543	0.660972
C40	C	1.775000	0.085474	0.576634
C41	C	1.869146	0.178516	0.660958
C42	C	1.869144	0.178541	0.829620
C43	C	1.774993	0.085520	0.913967
C44	C	1.680846	-0.007522	0.829643
H45	H	1.775005	0.085459	0.451773
H46	H	1.938843	0.247376	0.598518
H47	H	1.938837	0.247416	0.892041
H48	H	1.774988	0.085535	1.038829
H49	H	1.611149	-0.076382	0.892083
C50	C	1.321394	-0.362791	0.338990
C51	C	1.227316	-0.455887	0.423314
C52	C	1.133174	-0.548923	0.338977
C53	C	1.133110	-0.548863	0.170316
C54	C	1.227192	-0.455763	0.085982
C55	C	1.321334	-0.362727	0.170319
H56	H	1.227361	-0.455934	0.548176
H57	H	1.063529	-0.617841	0.401408
H58	H	1.063421	-0.617734	0.107885
H59	H	1.227148	-0.455716	-0.038880
H60	H	1.390979	-0.293809	0.107889
H61	H	1.086584	-0.380040	-0.099740
C62	C	1.125053	-0.184220	0.278953
C63	C	1.213758	-0.110795	0.389861
C64	C	1.255387	-0.176465	0.529712
C65	C	1.208311	-0.315559	0.558656
C66	C	1.119601	-0.388991	0.447745
C67	C	1.077972	-0.323322	0.307894
H68	H	1.248611	-0.007822	0.368438
H69	H	1.321056	-0.122104	0.611816
H70	H	1.239127	-0.364171	0.662183
H71	H	1.084748	-0.491964	0.469168
H72	H	1.012304	-0.377683	0.225790
H73	H	0.868691	-0.374576	-0.100338
C74	C	1.149528	0.015663	-0.151010
C75	C	1.232386	0.054591	-0.285423
C76	C	1.298702	0.189457	-0.296787
C77	C	1.282160	0.285394	-0.173739
C78	C	1.199298	0.246468	-0.039316
C79	C	1.132982	0.111602	-0.027952
H80	H	1.244635	-0.016429	-0.376519
H81	H	1.360042	0.218272	-0.396296
H82	H	1.331251	0.385230	-0.182151
H83	H	1.187049	0.317488	0.051781
H84	H	1.071642	0.082787	0.071557
H85	H	0.867127	-0.374265	0.098615
H86	H	1.707515	0.458980	-0.000024
C87	C	0.879502	-0.171009	-0.280287
C88	C	0.965851	-0.229223	-0.392532
C89	C	0.908466	-0.287497	-0.535010
C90	C	0.764732	-0.287555	-0.565244
C91	C	0.678374	-0.229339	-0.452996
C92	C	0.735759	-0.171066	-0.310518
H93	H	1.072259	-0.229182	-0.370154
H94	H	0.972394	-0.330592	-0.618103
H95	H	0.722252	-0.330693	-0.670715
H96	H	0.571966	-0.229381	-0.475375
H97	H	0.671830	-0.127970	-0.227425
H98	H	1.085631	-0.380368	0.099861
H99	H	0.913701	-0.013288	0.145529
H100	H	1.111814	-0.170124	-0.242553
H101	H	0.914752	-0.010056	-0.138748
H102	H	1.288361	0.408376	-0.000047
H103	H	1.713892	0.221298	0.000012
H104	H	1.294721	0.170667	-0.000029
