data_functionalizedCrystal
_audit_creation_method	'MofGen! by Chris Wilmer'
_symmetry_space_group_name_H-M	'P1'
_symmetry_Int_Tables_number	1
_symmetry_cell_setting	triclinic
loop_
_symmetry_equiv_pos_as_xyz
  x,y,z
_cell_length_a	23.532407
_cell_length_b	22.610064
_cell_length_c	16.109301
_cell_angle_alpha	90.002647
_cell_angle_beta	96.844921
_cell_angle_gamma	90.002839
loop_
_atom_site_label
_atom_site_type_symbol
_atom_site_fract_x
_atom_site_fract_y
_atom_site_fract_z
O1	O	0.755636	0.049113	-0.100914
O2	O	1.088969	0.382446	0.232419
O3	O	1.422302	0.715779	0.565752
O4	O	0.589826	0.049130	-0.115517
O5	O	0.923160	0.382464	0.217816
O6	O	1.256493	0.715797	0.551149
O7	O	0.677286	0.049115	0.012851
O8	O	1.010619	0.382448	0.346184
O9	O	1.343953	0.715782	0.679518
O10	O	0.668176	0.049128	-0.229283
O11	O	1.001509	0.382461	0.104051
O12	O	1.334843	0.715795	0.437384
O13	O	0.677271	-0.049254	0.012832
O14	O	1.010604	0.284079	0.346166
O15	O	1.343937	0.617412	0.679499
O16	O	0.589811	-0.049239	-0.115536
O17	O	0.923144	0.284094	0.217797
O18	O	1.256478	0.617428	0.551131
O19	O	0.755620	-0.049257	-0.100933
O20	O	1.088954	0.284077	0.232400
O21	O	1.422287	0.617410	0.565734
Zn22	Zn	0.672713	-0.064866	-0.108238
Zn23	Zn	1.006046	0.268467	0.225096
Zn24	Zn	1.339380	0.601801	0.558429
Zn25	Zn	0.672734	0.064740	-0.108213
Zn26	Zn	1.006067	0.398073	0.225121
Zn27	Zn	1.339400	0.731406	0.558454
O28	O	0.668161	-0.049241	-0.229301
O29	O	1.001494	0.284092	0.104032
O30	O	1.334827	0.617425	0.437365
C31	C	0.568601	-0.000052	-0.115155
C32	C	0.901935	0.333281	0.218178
C33	C	1.235268	0.666615	0.551512
C34	C	0.505380	-0.000046	-0.114037
C35	C	0.838713	0.333288	0.219297
C36	C	1.172047	0.666621	0.552630
C37	C	0.106531	-0.000069	-0.182990
C38	C	0.439865	0.333265	0.150343
C39	C	0.773198	0.666598	0.483677
C40	C	0.047127	-0.000072	-0.181951
C41	C	0.380461	0.333261	0.151382
C42	C	0.713794	0.666594	0.484715
O43	O	0.010619	-0.000090	-0.245872
O44	O	0.343952	0.333243	0.087462
O45	O	0.677285	0.666576	0.420795
N46	N	0.024220	-0.000076	-0.105636
N47	N	0.357553	0.333258	0.227697
N48	N	0.690886	0.666591	0.561030
C49	C	0.060719	-0.000081	-0.030355
C50	C	0.394053	0.333252	0.302978
C51	C	0.727386	0.666586	0.636311
O52	O	0.035780	-0.000085	0.034652
O53	O	0.369113	0.333249	0.367985
O54	O	0.702447	0.666582	0.701319
C55	C	0.120122	-0.000082	-0.031395
C56	C	0.453456	0.333252	0.301939
C57	C	0.786789	0.666585	0.635272
C58	C	0.143027	-0.000072	-0.107715
C59	C	0.476360	0.333261	0.225619
C60	C	0.809693	0.666594	0.558952
C61	C	0.129436	-0.000060	-0.259304
C62	C	0.462769	0.333273	0.074030
C63	C	0.796103	0.666606	0.407363
C64	C	0.188836	-0.000055	-0.260342
C65	C	0.522169	0.333278	0.072991
C66	C	0.855503	0.666611	0.406325
C67	C	0.225331	-0.000059	-0.185066
C68	C	0.558665	0.333274	0.148267
C69	C	0.891998	0.666608	0.481600
C70	C	0.202426	-0.000068	-0.108753
C71	C	0.535760	0.333266	0.224581
C72	C	0.869093	0.666599	0.557914
C73	C	0.156621	-0.000091	0.043886
C74	C	0.489954	0.333242	0.377219
C75	C	0.823288	0.666575	0.710552
C76	C	0.216027	-0.000092	0.042840
C77	C	0.549361	0.333241	0.376173
C78	C	0.882694	0.666574	0.709506
C79	C	0.238932	-0.000083	-0.033480
C80	C	0.572265	0.333250	0.299853
C81	C	0.905598	0.666584	0.633186
C82	C	0.298322	-0.000067	-0.034516
C83	C	0.631655	0.333267	0.298818
C84	C	0.964988	0.666600	0.632151
N85	N	0.321229	-0.000063	-0.110831
N86	N	0.654563	0.333270	0.222503
N87	N	0.987896	0.666603	0.555836
C88	C	0.284734	-0.000060	-0.186106
C89	C	0.618068	0.333274	0.147227
C90	C	0.951401	0.666607	0.480561
C91	C	-0.064031	-0.000081	-0.028178
C92	C	0.269302	0.333253	0.305155
C93	C	0.602635	0.666586	0.638489
C94	C	-0.123433	-0.000076	-0.027138
C95	C	0.209900	0.333257	0.306196
C96	C	0.543234	0.666591	0.639529
C97	C	-0.137021	-0.000069	-0.178734
C98	C	0.196312	0.333265	0.154599
C99	C	0.529646	0.666598	0.487932
C100	C	-0.077618	-0.000069	-0.179774
C101	C	0.255715	0.333264	0.153560
C102	C	0.589049	0.666598	0.486893
C103	C	-0.041123	-0.000078	-0.104493
C104	C	0.292210	0.333256	0.228840
C105	C	0.625543	0.666589	0.562174
C106	C	0.409479	-0.000049	-0.188281
C107	C	0.742812	0.333284	0.145053
C108	C	1.076146	0.666617	0.478386
C109	C	0.468885	-0.000042	-0.189312
C110	C	0.802218	0.333291	0.144021
C111	C	1.135552	0.666625	0.477354
C112	C	0.482468	-0.000053	-0.037716
C113	C	0.815801	0.333281	0.295617
C114	C	1.149134	0.666614	0.628950
C115	C	0.423067	-0.000057	-0.036684
C116	C	0.756400	0.333277	0.296649
C117	C	1.089734	0.666610	0.629983
C118	C	0.386574	-0.000057	-0.111973
C119	C	0.719907	0.333276	0.221360
C120	C	1.053240	0.666610	0.554693
O121	O	0.334865	-0.000051	0.029371
O122	O	0.668198	0.333282	0.362704
O123	O	1.001532	0.666616	0.696038
O124	O	0.309682	-0.000064	-0.251102
O125	O	0.643015	0.333269	0.082231
O126	O	0.976349	0.666603	0.415564
N127	N	0.672703	-0.153318	-0.108254
N128	N	1.006037	0.180015	0.225080
N129	N	1.339370	0.513348	0.558413
C130	C	0.711462	-0.561967	-0.051380
C131	C	1.044796	-0.228633	0.281953
C132	C	1.378129	0.104700	0.615287
C133	C	0.711465	-0.623887	-0.051374
C134	C	1.044799	-0.290553	0.281959
C135	C	1.378132	0.042780	0.615293
O136	O	0.744395	-0.655911	-0.003030
O137	O	1.077729	-0.322578	0.330303
O138	O	1.411062	0.010756	0.663636
N139	N	0.672733	-0.654856	-0.108196
N140	N	1.006066	-0.321522	0.225138
N141	N	1.339400	0.011811	0.558471
C142	C	0.633991	-0.623902	-0.165021
C143	C	0.967325	-0.290568	0.168312
C144	C	1.300658	0.042765	0.501645
O145	O	0.601047	-0.655929	-0.213352
O146	O	0.934380	-0.322595	0.119982
O147	O	1.267713	0.010738	0.453315
C148	C	0.633986	-0.561983	-0.165023
C149	C	0.967320	-0.228649	0.168311
C150	C	1.300653	0.104684	0.501644
C151	C	0.672725	-0.531017	-0.108203
C152	C	1.006058	-0.197684	0.225130
C153	C	1.339392	0.135650	0.558464
C154	C	0.750197	-0.531001	0.005436
C155	C	1.083531	-0.197667	0.338769
C156	C	1.416864	0.135666	0.672102
C157	C	0.750195	-0.469085	0.005428
C158	C	1.083528	-0.135752	0.338762
C159	C	1.416862	0.197582	0.672095
C160	C	0.711458	-0.438135	-0.051395
C161	C	1.044791	-0.104802	0.281939
C162	C	1.378124	0.228531	0.615272
C163	C	0.672723	-0.469101	-0.108210
C164	C	1.006056	-0.135768	0.225123
C165	C	1.339389	0.197565	0.558456
C166	C	0.595242	-0.531030	-0.221844
C167	C	0.928576	-0.197696	0.111489
C168	C	1.261909	0.135637	0.444823
C169	C	0.595240	-0.469107	-0.221840
C170	C	0.928574	-0.135773	0.111493
C171	C	1.261907	0.197560	0.444827
C172	C	0.633979	-0.438141	-0.165020
C173	C	0.967312	-0.104808	0.168313
C174	C	1.300646	0.228526	0.501646
C175	C	0.633983	-0.376236	-0.165041
C176	C	0.967316	-0.042903	0.168293
C177	C	1.300650	0.290431	0.501626
N178	N	0.672715	-0.345267	-0.108219
N179	N	1.006048	-0.011933	0.225114
N180	N	1.339382	0.321400	0.558448
C181	C	0.711453	-0.376217	-0.051396
C182	C	1.044786	-0.042883	0.281937
C183	C	1.378119	0.290450	0.615271
C184	C	0.634005	-0.753935	-0.165013
C185	C	0.967338	-0.420602	0.168320
C186	C	1.300671	-0.087268	0.501654
C187	C	0.634012	-0.815853	-0.165016
C188	C	0.967345	-0.482519	0.168317
C189	C	1.300679	-0.149186	0.501650
C190	C	0.711485	-0.815834	-0.051368
C191	C	1.044819	-0.482500	0.281966
C192	C	1.378152	-0.149167	0.615299
C193	C	0.711480	-0.753915	-0.051369
C194	C	1.044814	-0.420581	0.281964
C195	C	1.378147	-0.087248	0.615298
C196	C	0.672737	-0.722966	-0.108191
C197	C	1.006070	-0.389633	0.225142
C198	C	1.339404	-0.056299	0.558475
C199	C	0.711445	-0.246189	-0.051416
C200	C	1.044778	0.087144	0.281917
C201	C	1.378112	0.420477	0.615251
C202	C	0.711441	-0.184268	-0.051431
C203	C	1.044774	0.149065	0.281903
C204	C	1.378107	0.482399	0.615236
C205	C	0.633966	-0.184293	-0.165076
C206	C	0.967299	0.149041	0.168257
C207	C	1.300633	0.482374	0.501591
C208	C	0.633972	-0.246208	-0.165065
C209	C	0.967305	0.087125	0.168269
C210	C	1.300638	0.420458	0.501602
C211	C	0.672714	-0.277155	-0.108228
C212	C	1.006047	0.056178	0.225105
C213	C	1.339380	0.389511	0.558439
O214	O	0.601068	-0.344172	-0.213357
O215	O	0.934401	-0.010839	0.119976
O216	O	1.267735	0.322495	0.453309
O217	O	0.744387	-0.344182	-0.003067
O218	O	1.077720	-0.010848	0.330267
O219	O	1.411054	0.322485	0.663600
C220	C	0.776845	-0.000073	-0.101295
C221	C	1.110179	0.333260	0.232038
C222	C	1.443512	0.666594	0.565371
C223	C	0.840067	-0.000075	-0.102414
C224	C	1.173400	0.333258	0.230920
C225	C	1.506733	0.666591	0.564253
C226	C	0.676909	-0.000070	0.043814
C227	C	1.010243	0.333263	0.377147
C228	C	1.343576	0.666597	0.710480
C229	C	0.675803	-0.000071	0.136100
C230	C	1.009136	0.333263	0.469434
C231	C	1.342470	0.666596	0.802767
N232	N	0.672748	0.153192	-0.108190
N233	N	1.006081	0.486525	0.225143
N234	N	1.339414	0.819859	0.558477
C235	C	0.668537	-0.000055	-0.260264
C236	C	1.001871	0.333278	0.073069
C237	C	1.335204	0.666612	0.406403
C238	C	0.669644	-0.000050	-0.352551
C239	C	1.002977	0.333283	-0.019217
C240	C	1.336310	0.666616	0.314116
C241	C	0.725127	-0.000067	0.358760
C242	C	1.058461	0.333267	0.692094
C243	C	1.391794	0.666600	1.025427
C244	C	0.724083	-0.000062	0.445473
C245	C	1.057417	0.333272	0.778806
C246	C	1.390750	0.666605	1.112139
C247	C	0.620315	-0.000053	0.424782
C248	C	0.953649	0.333281	0.758116
C249	C	1.286982	0.666614	1.091449
C250	C	0.621360	-0.000054	0.338072
C251	C	0.954693	0.333280	0.671405
C252	C	1.288027	0.666613	1.004739
C253	C	0.673768	-0.000063	0.305063
C254	C	1.007101	0.333270	0.638397
C255	C	1.340434	0.666603	0.971730
C256	C	0.671679	-0.000058	0.478486
C257	C	1.005012	0.333276	0.811820
C258	C	1.338346	0.666609	1.145153
C259	C	0.670547	-0.000052	0.572503
C260	C	1.003880	0.333281	0.905837
C261	C	1.337213	0.666614	1.239170
C262	C	0.674900	-0.000068	0.211040
C263	C	1.008234	0.333266	0.544374
C264	C	1.341567	0.666599	0.877707
H265	H	0.487530	-0.000034	-0.251464
H266	H	0.820863	0.333299	0.081870
H267	H	1.154196	0.666633	0.415203
H268	H	0.137983	-0.000099	0.106033
H269	H	0.471317	0.333234	0.439367
H270	H	0.804650	0.666568	0.772700
H271	H	0.404418	-0.000055	0.025462
H272	H	0.737751	0.333278	0.358795
H273	H	1.071084	0.666611	0.692128
H274	H	-0.142076	-0.000074	0.035010
H275	H	0.191257	0.333259	0.368343
H276	H	0.524591	0.666592	0.701676
H277	H	0.577647	-0.000046	0.451669
H278	H	0.910980	0.333287	0.785002
H279	H	1.244314	0.666621	1.118335
Br280	Br	0.764024	-0.288178	0.025721
Br281	Br	1.097357	0.045155	0.359054
Br282	Br	1.430690	0.378488	0.692388
Br283	Br	0.551652	-0.000041	0.265191
Br284	Br	0.884986	0.333292	0.598524
Br285	Br	1.218319	0.666625	0.931857
H286	H	0.245739	-0.000100	0.104144
H287	H	0.579072	0.333234	0.437477
H288	H	0.912406	0.666567	0.770810
H289	H	0.781738	-0.443876	0.051698
H290	H	1.115071	-0.110543	0.385032
H291	H	1.448404	0.222790	0.718365
Br292	Br	0.532008	-0.000059	0.064438
Br293	Br	0.865341	0.333274	0.397772
Br294	Br	1.198674	0.666608	0.731105
Br295	Br	0.359961	-0.000051	-0.290459
Br296	Br	0.693295	0.333283	0.042874
Br297	Br	1.026628	0.666616	0.376207
Br298	Br	0.581397	-0.142280	-0.242193
Br299	Br	0.914730	0.191054	0.091140
Br300	Br	1.248063	0.524387	0.424474
H301	H	0.602457	-0.728740	-0.211292
H302	H	0.935790	-0.395406	0.122042
H303	H	1.269123	-0.062073	0.455375
H304	H	0.563689	-0.443911	-0.268111
H305	H	0.897022	-0.110578	0.065222
H306	H	1.230356	0.222755	0.398556
Br307	Br	0.802776	-0.572993	0.082564
Br308	Br	1.136109	-0.239660	0.415897
Br309	Br	1.469442	0.093673	0.749231
H310	H	0.207479	-0.000048	-0.322489
H311	H	0.540812	0.333286	0.010844
H312	H	0.874145	0.666619	0.344177
H313	H	0.742988	-0.159058	-0.005161
H314	H	1.076322	0.174276	0.328172
H315	H	1.409655	0.507609	0.661505
Br316	Br	0.764056	-0.711896	0.025746
Br317	Br	1.097389	-0.378563	0.359080
Br318	Br	1.430722	-0.045230	0.692413
Br319	Br	0.796251	-0.000080	0.313966
Br320	Br	1.129585	0.333253	0.647299
Br321	Br	1.462918	0.666586	0.980632
Br322	Br	0.079917	-0.000055	-0.361478
Br323	Br	0.413250	0.333278	-0.028144
Br324	Br	0.746584	0.666611	0.305189
Br325	Br	0.764058	-0.857850	0.025750
Br326	Br	1.097391	-0.524517	0.359083
Br327	Br	1.430724	-0.191183	0.692416
H328	H	0.602433	-0.271421	-0.211341
H329	H	0.935766	0.061912	0.121993
H330	H	1.269099	0.395245	0.455326
H331	H	0.563698	-0.556234	-0.268111
H332	H	0.897031	-0.222900	0.065222
H333	H	1.230364	0.110433	0.398556
Br334	Br	0.581446	-0.857871	-0.242145
Br335	Br	0.914779	-0.524538	0.091188
Br336	Br	1.248112	-0.191204	0.424522
Br337	Br	0.793789	-0.000062	0.518345
Br338	Br	1.127122	0.333271	0.851678
Br339	Br	1.460456	0.666604	1.185012
H340	H	-0.058974	-0.000065	-0.241920
H341	H	0.274359	0.333268	0.091413
H342	H	0.607693	0.666602	0.424747
H343	H	-0.166747	-0.000068	-0.240028
H344	H	0.166587	0.333265	0.093306
H345	H	0.499920	0.666598	0.426639
H346	H	-0.034320	-0.000083	0.033129
H347	H	0.299014	0.333251	0.366462
H348	H	0.632347	0.666584	0.699795
