data_functionalizedCrystal
_audit_creation_method	'MofGen! by Chris Wilmer'
_symmetry_space_group_name_H-M	'P1'
_symmetry_Int_Tables_number	1
_symmetry_cell_setting	triclinic
loop_
_symmetry_equiv_pos_as_xyz
  x,y,z
_cell_length_a	11.026607
_cell_length_b	9.130307
_cell_length_c	11.026607
_cell_angle_alpha	90.001728
_cell_angle_beta	108.586017
_cell_angle_gamma	90.001089
loop_
_atom_site_label
_atom_site_type_symbol
_atom_site_fract_x
_atom_site_fract_y
_atom_site_fract_z
O1	O	1.726728	0.121796	0.533620
O2	O	2.226728	0.621796	1.033620
O3	O	1.360148	0.121798	0.472857
O4	O	1.860148	0.621798	0.972857
O5	O	1.513056	0.121792	0.319949
O6	O	2.013056	0.621792	0.819949
O7	O	1.573819	0.121802	0.686529
O8	O	2.073819	0.621802	1.186529
O9	O	1.513049	-0.121807	0.319945
O10	O	2.013049	0.378193	0.819945
O11	O	1.360141	-0.121801	0.472854
O12	O	1.860141	0.378199	0.972854
O13	O	1.726721	-0.121803	0.533617
O14	O	2.226721	0.378197	1.033617
Cu15	Cu	1.543430	-0.144045	0.503235
Cu16	Cu	2.043430	0.355955	1.003235
Cu17	Cu	1.543438	0.144040	0.503239
Cu18	Cu	2.043438	0.644040	1.003239
O19	O	1.573813	-0.121797	0.686525
O20	O	2.073813	0.378203	1.186525
C21	C	1.312485	-0.000001	0.461645
C22	C	1.812485	0.499999	0.961645
C23	C	1.170471	-0.000000	0.428228
C24	C	1.670471	0.500000	0.928228
N25	N	1.543434	-0.346667	0.503234
N26	N	2.043434	0.153333	1.003234
C27	C	1.116821	0.000003	0.520498
C28	C	1.616821	0.500003	1.020498
C29	C	0.970043	0.000004	0.485962
C30	C	1.470043	0.500004	0.985962
C31	C	1.678915	-0.346663	0.367899
C32	C	2.178915	0.153337	0.867899
C33	C	1.746665	-0.423327	0.300237
C34	C	2.246665	0.076673	0.800237
C35	C	1.746678	-0.576661	0.300238
C36	C	2.246678	-0.076661	0.800238
C37	C	1.678930	-0.653333	0.367906
C38	C	2.178930	-0.153333	0.867906
C39	C	1.611180	-0.576669	0.435569
C40	C	2.111180	-0.076669	0.935569
C41	C	1.611178	-0.423332	0.435562
C42	C	2.111178	0.076668	0.935562
C43	C	1.475693	-0.576673	0.570894
C44	C	1.975693	-0.076673	1.070894
C45	C	1.475686	-0.423340	0.570902
C46	C	1.975686	0.076660	1.070902
C47	C	1.407945	-0.653346	0.638563
C48	C	1.907945	-0.153346	1.138563
C49	C	1.340201	-0.576681	0.706234
C50	C	1.840201	-0.076681	1.206234
C51	C	1.340192	-0.423338	0.706230
C52	C	1.840192	0.076662	1.206230
C53	C	1.407936	-0.346675	0.638564
C54	C	1.907936	0.153325	1.138564
C55	C	1.774384	-0.000001	0.544828
C56	C	2.274384	0.499999	1.044828
C57	C	1.916398	0.000008	0.578245
C58	C	2.416398	0.500008	1.078245
C59	C	1.501843	-0.000006	0.272287
C60	C	2.001843	0.499994	0.772287
C61	C	1.468426	-0.000000	0.130273
C62	C	1.968426	0.500000	0.630273
N63	N	1.543443	0.346662	0.503232
N64	N	2.043443	0.846662	1.003232
C65	C	1.560695	0.000001	0.076624
C66	C	2.060695	0.500001	0.576624
C67	C	1.526160	0.000007	-0.070155
C68	C	2.026160	0.500007	0.429845
C69	C	1.585026	0.000004	0.734187
C70	C	2.085026	0.500004	1.234187
C71	C	1.618443	0.000008	0.876200
C72	C	2.118443	0.500008	1.376200
H73	H	1.179555	-0.000002	0.625061
H74	H	1.679555	0.499998	1.125061
F75	F	1.407939	-0.183484	0.638560
F76	F	1.907939	0.316516	1.138560
F77	F	1.407951	-0.816537	0.638557
F78	F	1.907951	-0.316537	1.138557
F79	F	1.678926	-0.183471	0.367907
F80	F	2.178926	0.316529	0.867907
F81	F	1.697370	0.000009	0.158615
F82	F	2.197370	0.500009	0.658615
H83	H	0.979125	0.000001	0.682816
H84	H	1.479125	0.500001	1.182816
F85	F	1.755125	0.000014	-0.041816
F86	F	2.255125	0.500014	0.458184
F87	F	1.389478	0.000021	-0.152141
F88	F	1.889478	0.500021	0.347859
F89	F	1.331751	0.000014	0.048283
F90	F	1.831751	0.500014	0.548283
F91	F	1.818760	-0.341721	0.228217
F92	F	2.318760	0.158279	0.728217
F93	F	0.888056	-0.000009	0.349281
F94	F	1.388056	0.499991	0.849281
H95	H	1.107738	0.000035	0.323666
H96	H	1.607738	0.500035	0.823666
F97	F	1.818777	-0.658254	0.228218
F98	F	2.318777	-0.158254	0.728218
H99	H	1.678931	-0.778185	0.367891
H100	H	2.178931	-0.278185	0.867891
H101	H	1.285016	-0.360926	0.761323
H102	H	1.785016	0.139074	1.261323
F103	F	1.268098	-0.658287	0.778235
F104	F	1.768098	-0.158287	1.278235
