data_functionalizedCrystal
_audit_creation_method	'MofGen! by Chris Wilmer'
_symmetry_space_group_name_H-M	'P1'
_symmetry_Int_Tables_number	1
_symmetry_cell_setting	triclinic
loop_
_symmetry_equiv_pos_as_xyz
  x,y,z
_cell_length_a	19.805407
_cell_length_b	13.031981
_cell_length_c	19.805399
_cell_angle_alpha	82.790122
_cell_angle_beta	89.980427
_cell_angle_gamma	97.191459
loop_
_atom_site_label
_atom_site_type_symbol
_atom_site_fract_x
_atom_site_fract_y
_atom_site_fract_z
Zn1	Zn	1.000570	-0.416134	-0.348473
Zn2	Zn	0.986135	-0.590921	-0.220900
Zn3	Zn	0.887383	-0.416163	-0.235295
Zn4	Zn	0.873003	-0.590866	-0.334051
O5	O	0.936773	-0.503521	-0.284679
O6	O	1.093371	-0.439331	-0.331561
O7	O	0.973012	-0.567775	-0.128090
O8	O	0.914457	-0.269896	-0.262368
O9	O	1.082765	-0.567747	-0.237833
O10	O	0.997615	-0.269875	-0.345519
O11	O	0.900459	-0.439380	-0.138666
O12	O	0.790759	-0.439326	-0.248384
O13	O	0.889948	-0.567652	-0.430683
O14	O	0.780195	-0.567680	-0.320940
O15	O	0.983672	-0.439277	-0.441279
O16	O	0.959068	-0.737177	-0.223849
O17	O	0.875951	-0.737136	-0.306981
C18	C	0.760918	-0.503501	-0.284659
C19	C	0.685685	-0.503518	-0.284665
C20	C	0.914401	-0.775081	-0.262303
C21	C	0.904892	-0.891255	-0.252753
C22	C	0.644849	-0.570452	-0.322366
C23	C	0.574161	-0.570454	-0.322375
C24	C	0.544309	-0.503526	-0.284679
C25	C	0.585150	-0.436584	-0.246976
C26	C	0.655838	-0.436578	-0.246971
C27	C	0.300075	-0.436607	-0.246997
C28	C	0.229382	-0.436621	-0.247003
C29	C	0.218398	-0.570483	-0.322401
C30	C	0.289085	-0.570477	-0.322396
C31	C	0.329921	-0.503532	-0.284696
C32	C	0.406569	-0.503529	-0.284687
C33	C	0.467661	-0.503533	-0.284683
C34	C	0.941771	-0.942956	-0.289677
C35	C	0.931944	-1.063028	-0.279808
C36	C	1.113314	-0.503542	-0.284700
C37	C	1.188545	-0.503551	-0.284709
C38	C	0.936816	-0.503455	-0.461228
C39	C	0.936834	-0.503427	-0.536462
C40	C	0.959250	-0.230901	-0.307158
C41	C	0.968829	-0.114726	-0.316737
C42	C	0.985638	-0.436579	-0.577325
C43	C	0.985647	-0.436549	-0.648016
C44	C	0.936856	-0.503373	-0.677842
C45	C	0.888048	-0.570224	-0.636974
C46	C	0.888036	-0.570248	-0.566285
C47	C	0.888094	-0.570126	-0.922056
C48	C	0.888111	-0.570099	-0.992750
C49	C	0.985705	-0.436427	-1.003786
C50	C	0.985693	-0.436451	-0.933097
C51	C	0.936883	-0.503298	-0.892236
C52	C	0.936873	-0.503329	-0.815585
C53	C	0.936869	-0.503348	-0.754491
C54	C	0.936775	-0.503511	-0.108824
C55	C	0.936911	-0.503245	-0.033615
H56	H	0.669148	-0.624956	-0.353060
O57	O	0.534588	-0.635585	-0.359003
C58	C	0.576095	-0.694647	-0.392279
H59	H	0.626180	-0.698190	-0.364256
H60	H	0.586774	-0.656493	-0.446874
C61	C	0.477835	-0.801564	-0.427150
C62	C	0.539349	-0.805924	-0.392729
H63	H	0.455168	-0.870204	-0.427431
H64	H	0.449871	-0.761771	-0.404734
H65	H	0.486743	-0.769765	-0.472643
H66	H	0.530439	-0.837710	-0.347235
H67	H	0.567311	-0.845725	-0.415138
O68	O	0.317975	-0.635524	-0.359075
C69	C	0.266772	-0.694621	-0.392342
H70	H	0.219909	-0.651822	-0.398261
H71	H	0.252711	-0.773955	-0.360937
C72	C	0.350697	-0.762391	-0.455838
C73	C	0.293141	-0.709820	-0.463114
H74	H	0.366963	-0.771771	-0.499492
H75	H	0.385194	-0.722579	-0.433424
H76	H	0.338972	-0.828496	-0.429665
H77	H	0.304869	-0.643711	-0.489279
H78	H	0.258646	-0.749621	-0.485534
H79	H	0.185141	-0.624989	-0.353101
O80	O	0.858586	-0.944375	-0.206238
C81	C	0.875585	-0.917846	-0.140955
H82	H	0.908051	-0.838525	-0.146048
H83	H	0.905409	-0.979242	-0.113182
C84	C	0.770137	-1.010507	-0.094028
C85	C	0.810007	-0.913078	-0.100283
H86	H	0.729686	-1.007570	-0.068937
H87	H	0.758685	-1.028384	-0.138009
H88	H	0.794997	-1.061660	-0.070885
H89	H	0.785150	-0.861930	-0.123433
H90	H	0.821454	-0.895193	-0.056304
H91	H	0.980618	-0.898328	-0.328599
O92	O	0.556042	-0.371662	-0.210375
C93	C	0.484896	-0.386000	-0.218477
H94	H	0.468602	-0.466710	-0.233904
H95	H	0.469952	-0.324083	-0.259694
C96	C	0.469387	-0.277145	-0.131860
C97	C	0.449375	-0.376279	-0.150803
H98	H	0.447476	-0.271144	-0.090117
H99	H	0.517320	-0.267482	-0.126404
H100	H	0.456933	-0.225559	-0.166214
H101	H	0.461836	-0.427863	-0.116454
H102	H	0.401443	-0.385951	-0.156252
H103	H	0.333314	-0.382104	-0.216294
O104	O	1.032943	-0.371610	-0.548286
C105	C	0.999966	-0.304095	-0.512972
H106	H	0.945633	-0.340961	-0.499329
H107	H	0.998916	-0.226632	-0.546604
C108	C	1.105490	-0.239908	-0.464151
C109	C	1.038759	-0.285191	-0.447389
H110	H	1.129420	-0.228243	-0.423698
H111	H	1.127708	-0.285391	-0.487944
H112	H	1.104605	-0.175360	-0.492179
H113	H	1.039644	-0.349743	-0.419369
H114	H	1.016541	-0.239718	-0.423590
O115	O	0.200496	-0.371499	-0.210373
C116	C	0.251694	-0.312426	-0.177085
H117	H	0.302389	-0.308856	-0.205101
H118	H	0.256047	-0.350587	-0.122491
C119	C	0.170995	-0.205554	-0.142216
C120	C	0.233258	-0.201163	-0.176629
H121	H	0.159622	-0.136923	-0.141931
H122	H	0.136501	-0.245355	-0.164640
H123	H	0.174630	-0.237360	-0.096724
H124	H	0.229619	-0.169370	-0.222122
H125	H	0.267751	-0.161354	-0.154212
O126	O	0.840690	-0.634867	-1.021813
C127	C	0.801885	-0.575334	-1.067594
H128	H	0.832293	-0.496126	-1.084715
H129	H	0.752665	-0.563852	-1.041295
C130	C	0.747560	-0.730098	-1.108971
C131	C	0.784910	-0.632816	-1.130004
H132	H	0.737086	-0.765556	-1.147468
H133	H	0.773702	-0.770208	-1.078126
H134	H	0.706548	-0.720515	-1.087055
H135	H	0.825924	-0.642400	-1.151912
H136	H	0.758774	-0.592709	-1.160855
H137	H	0.893090	-1.107655	-0.240889
O138	O	0.695405	-0.371530	-0.210282
C139	C	0.653903	-0.312443	-0.177022
H140	H	0.599987	-0.355253	-0.171112
H141	H	0.652931	-0.233111	-0.208428
C142	C	0.748933	-0.244656	-0.113511
C143	C	0.682714	-0.297240	-0.106247
H144	H	0.766705	-0.235273	-0.069855
H145	H	0.776895	-0.284461	-0.135921
H146	H	0.748114	-0.178551	-0.139685
H147	H	0.683535	-0.363348	-0.080081
H148	H	0.654752	-0.257446	-0.083831
H149	H	1.025389	-0.382117	-0.681283
H150	H	1.007678	-1.070101	-0.355661
O151	O	1.033118	-0.371439	-0.904237
C152	C	1.076206	-0.312446	-0.955462
H153	H	1.048791	-0.308807	-1.006145
H154	H	1.124458	-0.350723	-0.959832
C155	C	1.128797	-0.205685	-0.874797
C156	C	1.095123	-0.201209	-0.937047
H157	H	1.140469	-0.137070	-0.863437
H158	H	1.099770	-0.245432	-0.840285
H159	H	1.169003	-0.237587	-0.878447
H160	H	1.054915	-0.169320	-0.933394
H161	H	1.124144	-0.161454	-0.971558
H162	H	1.025446	-0.381994	-1.037065
O163	O	0.840645	-0.635144	-0.882467
C164	C	0.797572	-0.694091	-0.923956
H165	H	0.825014	-0.697718	-0.974045
H166	H	0.749336	-0.655782	-0.934636
C167	C	0.744907	-0.800876	-0.825668
C168	C	0.778614	-0.805338	-0.887185
H169	H	0.733210	-0.869498	-0.802986
H170	H	0.773925	-0.761161	-0.797715
H171	H	0.704715	-0.768948	-0.834577
H172	H	0.818810	-0.837254	-0.878275
H173	H	0.749603	-0.845062	-0.915136
O174	O	0.840673	-0.635281	-0.665860
C175	C	0.846883	-0.739462	-0.640010
H176	H	0.872713	-0.741649	-0.588511
H177	H	0.878787	-0.774657	-0.676897
C178	C	0.743954	-0.800081	-0.694765
C179	C	0.775673	-0.802768	-0.631510
H180	H	0.700029	-0.839133	-0.689524
H181	H	0.739771	-0.729893	-0.712183
H182	H	0.770547	-0.829409	-0.725498
H183	H	0.749084	-0.773429	-0.600781
H184	H	0.779850	-0.872952	-0.614086
H185	H	0.848289	-0.624672	-0.533016
