data_functionalizedCrystal
_audit_creation_method	'MofGen! by Chris Wilmer'
_symmetry_space_group_name_H-M	'P1'
_symmetry_Int_Tables_number	1
_symmetry_cell_setting	triclinic
loop_
_symmetry_equiv_pos_as_xyz
  x,y,z
_cell_length_a	11.792241
_cell_length_b	15.538191
_cell_length_c	14.750779
_cell_angle_alpha	97.569385
_cell_angle_beta	77.265992
_cell_angle_gamma	65.732755
loop_
_atom_site_label
_atom_site_type_symbol
_atom_site_fract_x
_atom_site_fract_y
_atom_site_fract_z
O1	O	-1.419926	-0.149087	-0.079727
O2	O	-1.084007	-0.162371	-0.079748
O3	O	-1.317355	-0.018933	-0.079738
O4	O	-1.186579	-0.292524	-0.079737
O5	O	-1.383317	0.021610	0.079916
O6	O	-1.149970	-0.121827	0.079905
O7	O	-1.485889	-0.108543	0.079927
Zn8	Zn	-1.328402	-0.108748	0.105264
Zn9	Zn	-1.241494	-0.162166	-0.105086
O10	O	-1.252542	-0.251980	0.079916
C11	C	-1.075046	-0.141266	0.000075
C12	C	-0.950076	-0.138771	0.000067
C13	C	-1.494849	-0.129649	0.000101
C14	C	-1.619817	-0.132145	0.000103
C15	C	-1.364017	0.036364	0.000087
C16	C	-1.404770	0.140727	0.000080
C17	C	-0.721301	-0.134173	0.000095
C18	C	-0.848610	-0.136728	0.000079
C19	C	-1.205878	-0.307278	0.000090
C20	C	-1.165123	-0.411643	0.000090
N21	N	-1.387724	-0.072291	0.248823
C22	C	-0.999870	0.430584	0.000074
C23	C	-1.038197	0.528656	0.000079
C24	C	-1.253770	0.550001	0.000092
C25	C	-1.215460	0.451929	0.000083
C26	C	-1.088508	0.392228	0.000075
C27	C	-1.304098	0.413572	0.000084
C28	C	-1.265792	0.315509	0.000079
C29	C	-1.138848	0.255803	0.000074
C30	C	-1.050202	0.294165	0.000071
C31	C	-1.431052	0.473276	0.000099
C32	C	-1.519690	0.434919	0.000099
C33	C	-1.481382	0.336853	0.000088
C34	C	-1.354438	0.277147	0.000083
C35	C	-1.570028	0.298491	0.000092
C36	C	-1.531722	0.200428	0.000088
C37	C	-1.316132	0.179084	0.000079
N38	N	-1.182185	-0.198615	-0.248644
C39	C	-1.016526	-0.300392	0.600624
C40	C	-1.058100	-0.274852	0.701125
C41	C	-1.264741	-0.147885	0.701097
C42	C	-1.223182	-0.173412	0.600594
C43	C	-1.099074	-0.249667	0.550365
C44	C	-1.305730	-0.122687	0.550335
C45	C	-1.264176	-0.148215	0.449841
C46	C	-1.140074	-0.224468	0.399606
C47	C	-1.057520	-0.275195	0.449871
C48	C	-1.429841	-0.046437	0.600566
C49	C	-1.512389	0.004289	0.550307
C50	C	-1.470832	-0.021235	0.449811
C51	C	-1.346730	-0.097488	0.399575
C52	C	-1.553386	0.029492	0.399545
C53	C	-1.511832	0.003964	0.299051
C54	C	-1.305176	-0.123016	0.299081
H55	H	-1.212752	0.130470	0.000065
H56	H	-1.107664	0.175956	0.000076
H57	H	-1.462233	0.553122	0.000093
F58	F	-1.599693	0.057951	0.245562
H59	H	-1.654441	0.091573	0.440455
H60	H	-0.966012	0.559884	0.000092
F61	F	-0.864749	0.367038	0.000056
F62	F	-0.915082	0.230619	0.000053
F63	F	-1.173077	-0.204168	0.245622
H64	H	-1.623056	0.483542	0.000110
F65	F	-1.396825	-0.066734	0.754562
H66	H	-1.673395	0.347116	0.000108
H67	H	-1.357136	0.598623	0.000103
H68	H	-1.603901	0.169198	0.000089
F69	F	-1.095853	-0.251641	0.292649
F70	F	-0.884427	-0.381544	0.547165
H71	H	-0.956453	-0.337283	0.408973
H72	H	-0.990869	-0.316167	0.742041
F73	F	-1.474063	-0.019275	0.707522
F74	F	-1.644473	0.085441	0.603772
