data_functionalizedCrystal
_audit_creation_method	'MofGen! by Chris Wilmer'
_symmetry_space_group_name_H-M	'P1'
_symmetry_Int_Tables_number	1
_symmetry_cell_setting	triclinic
loop_
_symmetry_equiv_pos_as_xyz
  x,y,z
_cell_length_a	17.000383
_cell_length_b	15.538191
_cell_length_c	14.184975
_cell_angle_alpha	108.269083
_cell_angle_beta	74.350878
_cell_angle_gamma	118.563801
loop_
_atom_site_label
_atom_site_type_symbol
_atom_site_fract_x
_atom_site_fract_y
_atom_site_fract_z
O1	O	1.035215	-0.016561	0.083490
O2	O	1.535215	0.483439	0.583490
O3	O	0.793366	-0.051589	0.083474
O4	O	1.293366	0.448411	0.583474
O5	O	0.961368	0.106955	0.083490
O6	O	1.461368	0.606955	0.583490
O7	O	0.867213	-0.175105	0.083474
O8	O	1.367213	0.324895	0.583474
O9	O	0.983011	0.070533	-0.083360
O10	O	1.483011	0.570533	0.416640
O11	O	0.815009	-0.088011	-0.083376
O12	O	1.315009	0.411989	0.416624
O13	O	1.056858	-0.052983	-0.083360
O14	O	1.556858	0.447017	0.416640
Cu15	Cu	0.937910	-0.073823	-0.098603
Cu16	Cu	1.437910	0.426177	0.401397
Cu17	Cu	0.912315	-0.030749	0.098717
Cu18	Cu	1.412315	0.469251	0.598717
O19	O	0.888856	-0.211528	-0.083376
O20	O	1.388856	0.288472	0.416624
C21	C	0.773991	-0.071681	0.000047
C22	C	1.273991	0.428319	0.500047
C23	C	0.684017	-0.077276	0.000041
C24	C	1.184017	0.422724	0.500041
C25	C	0.173361	-0.113386	0.000076
C26	C	0.673361	0.386614	0.500076
C27	C	0.257905	-0.108123	0.000076
C28	C	0.757905	0.391877	0.500076
C29	C	0.335293	-0.016769	0.000073
C30	C	0.835293	0.483231	0.500073
C31	C	0.328133	0.069330	0.000082
C32	C	0.828133	0.569330	0.500082
C33	C	0.243590	0.064068	0.000089
C34	C	0.743590	0.564068	0.500089
C35	C	0.592315	0.003560	0.000057
C36	C	1.092315	0.503560	0.500057
C37	C	0.676862	0.008816	0.000046
C38	C	1.176862	0.508816	0.500046
C39	C	0.606627	-0.168638	0.000042
C40	C	1.106627	0.331362	0.500042
C41	C	0.522086	-0.173893	0.000044
C42	C	1.022086	0.326107	0.500044
C43	C	0.514933	-0.087793	0.000057
C44	C	1.014933	0.412207	0.500057
C45	C	0.421711	-0.011388	0.000070
C46	C	0.921711	0.488612	0.500070
C47	C	0.428515	-0.093174	0.000068
C48	C	0.928515	0.406826	0.500068
C49	C	0.982040	0.124656	0.000069
C50	C	1.482040	0.624656	0.500069
C51	C	1.011382	0.231663	0.000081
C52	C	1.511382	0.731663	0.500081
C53	C	1.076233	-0.032890	0.000069
C54	C	1.576233	0.467110	0.500069
C55	C	1.166206	-0.027294	0.000082
C56	C	1.666206	0.472706	0.500082
C57	C	0.868184	-0.229228	0.000047
C58	C	1.368184	0.270772	0.500047
C59	C	0.838841	-0.336233	0.000042
C60	C	1.338841	0.163767	0.500042
N61	N	0.955918	-0.104118	-0.237386
N62	N	1.455918	0.395882	0.262614
C63	C	0.719866	0.495301	0.000039
C64	C	1.219866	0.995301	0.500039
C65	C	0.747460	0.595852	0.000039
C66	C	1.247460	1.095852	0.500039
C67	C	0.902664	0.631151	0.000050
C68	C	1.402664	1.131151	0.500050
C69	C	0.875083	0.530602	0.000055
C70	C	1.375083	1.030602	0.500055
C71	C	0.783683	0.462684	0.000049
C72	C	1.283683	0.962684	0.500049
C73	C	0.938901	0.497986	0.000065
C74	C	1.438901	0.997986	0.500065
C75	C	0.911322	0.397444	0.000065
C76	C	1.411322	0.897444	0.500065
C77	C	0.819926	0.329519	0.000055
C78	C	1.319926	0.829519	0.500055
C79	C	0.756105	0.362143	0.000049
C80	C	1.256105	0.862143	0.500049
C81	C	1.030301	0.565904	0.000064
C82	C	1.530301	1.065904	0.500064
C83	C	1.094118	0.533287	0.000074
C84	C	1.594118	1.033287	0.500074
C85	C	1.066539	0.432746	0.000081
C86	C	1.566539	0.932746	0.500081
C87	C	0.975144	0.364821	0.000071
C88	C	1.475144	0.864821	0.500071
C89	C	1.130361	0.400123	0.000087
C90	C	1.630361	0.900123	0.500087
C91	C	1.102782	0.299581	0.000087
C92	C	1.602782	0.799581	0.500087
C93	C	0.947565	0.264280	0.000071
C94	C	1.447565	0.764280	0.500071
N95	N	0.894315	-0.000446	0.237500
N96	N	1.394315	0.499554	0.737500
C97	C	1.008698	-0.193153	0.605069
C98	C	1.508698	0.306847	1.105069
C99	C	0.995101	-0.170188	0.710101
C100	C	1.495101	0.329812	1.210101
C101	C	0.930321	-0.060982	0.710107
C102	C	1.430321	0.439018	1.210107
C103	C	0.943917	-0.083934	0.605074
C104	C	1.443917	0.416066	1.105074
C105	C	0.983105	-0.150021	0.552563
C106	C	1.483105	0.349979	1.052563
C107	C	0.918324	-0.040802	0.552568
C108	C	1.418324	0.459198	1.052568
C109	C	0.931915	-0.063756	0.447544
C110	C	1.431915	0.436244	0.947544
C111	C	0.971098	-0.129843	0.395026
C112	C	1.471098	0.370157	0.895026
C113	C	0.996695	-0.172975	0.447539
C114	C	1.496695	0.327025	0.947539
C115	C	0.879131	0.025279	0.605081
C116	C	1.379131	0.525279	1.105081
C117	C	0.853538	0.068411	0.552575
C118	C	1.353538	0.568411	1.052575
C119	C	0.867134	0.045463	0.447549
C120	C	1.367134	0.545463	0.947549
C121	C	0.906317	-0.020624	0.395030
C122	C	1.406317	0.479376	0.895030
C123	C	0.841537	0.088595	0.395035
C124	C	1.341537	0.588595	0.895035
C125	C	0.855127	0.065641	0.290011
C126	C	1.355127	0.565641	0.790011
C127	C	0.919908	-0.043578	0.290006
C128	C	1.419908	0.456422	0.790006
H129	H	0.484730	0.062992	0.000064
H130	H	0.984730	0.562992	0.500064
H131	H	1.028612	-0.226783	0.404782
H132	H	1.528612	0.273217	0.904782
Cl133	Cl	1.183013	0.258569	0.000081
Cl134	Cl	1.683013	0.758569	0.500081
H135	H	0.586504	0.073668	0.000065
H136	H	1.086504	0.573668	0.500065
H137	H	1.040615	-0.246961	0.562312
H138	H	1.540615	0.253039	1.062312
H139	H	0.951825	-0.097386	0.247249
H140	H	1.451825	0.402614	0.747249
Cl141	Cl	0.424801	-0.288742	0.000055
Cl142	Cl	0.924801	0.211258	0.500055
Cl143	Cl	1.027303	-0.224397	0.776105
Cl144	Cl	1.527303	0.275603	1.276105
H145	H	0.110355	-0.187778	0.000071
H146	H	0.610355	0.312222	0.500071
H147	H	0.868060	0.043960	0.690598
H148	H	1.368060	0.543960	1.190598
H149	H	0.873137	0.208977	0.000074
H150	H	1.373137	0.708977	0.500074
Cl151	Cl	1.017564	0.716540	0.000050
Cl152	Cl	1.517564	1.216540	0.500050
Cl153	Cl	0.804272	0.151486	0.618598
Cl154	Cl	1.304272	0.651486	1.118598
H155	H	0.809622	0.142396	0.437805
H156	H	1.309622	0.642396	0.937805
Cl157	Cl	1.209018	0.618676	0.000074
Cl158	Cl	1.709018	1.118676	0.500074
Cl159	Cl	0.266894	-0.216357	0.000075
Cl160	Cl	0.766894	0.283643	0.500075
Cl161	Cl	0.615625	-0.276869	0.000034
Cl162	Cl	1.115625	0.223131	0.500034
Cl163	Cl	0.881056	0.022093	0.776130
Cl164	Cl	1.381056	0.522093	1.276130
H165	H	0.797474	0.247652	0.000050
H166	H	1.297474	0.747652	0.500050
H167	H	0.391149	0.143714	0.000086
H168	H	0.891149	0.643714	0.500086
H169	H	0.739874	0.083212	0.000049
H170	H	1.239874	0.583212	0.500049
H171	H	0.237769	0.134173	0.000096
H172	H	0.737769	0.634173	0.500096
H173	H	0.681677	0.306840	0.000051
H174	H	1.181677	0.806840	0.500051
Cl175	Cl	0.331227	-0.208014	0.000077
Cl176	Cl	0.831227	0.291986	0.500077
Cl177	Cl	0.604959	0.409912	0.000042
Cl178	Cl	1.104959	0.909912	0.500042
H179	H	0.834284	0.100761	0.247260
H180	H	1.334284	0.600761	0.747260
Cl181	Cl	0.667222	0.636849	0.000021
Cl182	Cl	1.167222	1.136849	0.500021
H183	H	1.052751	0.647772	0.000073
H184	H	1.552751	1.147772	0.500073
Cl185	Cl	1.245261	0.485512	0.000076
Cl186	Cl	1.745261	0.985512	0.500076
H187	H	0.982161	-0.148533	0.309508
H188	H	1.482161	0.351467	0.809508
