data_functionalizedCrystal
_audit_creation_method	'MofGen! by Chris Wilmer'
_symmetry_space_group_name_H-M	'P1'
_symmetry_Int_Tables_number	1
_symmetry_cell_setting	triclinic
loop_
_symmetry_equiv_pos_as_xyz
  x,y,z
_cell_length_a	19.805407
_cell_length_b	19.805404
_cell_length_c	19.805399
_cell_angle_alpha	89.973446
_cell_angle_beta	89.983490
_cell_angle_gamma	90.026912
loop_
_atom_site_label
_atom_site_type_symbol
_atom_site_fract_x
_atom_site_fract_y
_atom_site_fract_z
Zn1	Zn	-1.034697	0.269539	0.382724
Zn2	Zn	-0.534697	0.769539	0.882724
Zn3	Zn	-1.034609	0.382730	0.269541
Zn4	Zn	-0.534609	0.882730	0.769541
Zn5	Zn	-0.921517	0.269553	0.269550
Zn6	Zn	-0.421517	0.769553	0.769550
Zn7	Zn	-0.921467	0.382684	0.382688
Zn8	Zn	-0.421467	0.882684	0.882688
O9	O	-0.978072	0.326126	0.326126
O10	O	-0.478072	0.826126	0.826126
O11	O	-1.129402	0.284568	0.367722
O12	O	-0.629402	0.784568	0.867722
O13	O	-1.019591	0.367742	0.174825
O14	O	-0.519591	0.867742	0.674825
O15	O	-0.936589	0.174834	0.284581
O16	O	-0.436589	0.674834	0.784581
O17	O	-1.129337	0.367729	0.284566
O18	O	-0.629337	0.867729	0.784566
O19	O	-1.019742	0.174824	0.367730
O20	O	-0.519742	0.674824	0.867730
O21	O	-0.936503	0.284591	0.174832
O22	O	-0.436503	0.784591	0.674832
O23	O	-0.826794	0.284546	0.284546
O24	O	-0.326794	0.784546	0.784546
O25	O	-0.936503	0.367650	0.477410
O26	O	-0.436503	0.867650	0.977410
O27	O	-0.826757	0.367663	0.367669
O28	O	-0.326757	0.867663	0.867669
O29	O	-1.019693	0.284523	0.477436
O30	O	-0.519693	0.784523	0.977436
O31	O	-1.019542	0.477441	0.284531
O32	O	-0.519542	0.977441	0.784531
O33	O	-0.936417	0.477407	0.367660
O34	O	-0.436417	0.977407	0.867660
C35	C	-0.802216	0.326102	0.326105
C36	C	-0.302216	0.826102	0.826105
C37	C	-0.726985	0.326107	0.326112
C38	C	-0.226985	0.826107	0.826112
C39	C	-0.691675	0.282881	0.369476
C40	C	-0.191675	0.782881	0.869476
C41	C	-0.620986	0.282883	0.369477
C42	C	-0.120986	0.782883	0.869477
C43	C	-0.585609	0.326116	0.326117
C44	C	-0.085609	0.826116	0.826117
C45	C	-0.620924	0.369344	0.282748
C46	C	-0.120924	0.869344	0.782748
C47	C	-0.691611	0.369337	0.282744
C48	C	-0.191611	0.869337	0.782744
C49	C	-0.335850	0.369368	0.282762
C50	C	0.164150	0.869368	0.782762
C51	C	-0.265158	0.369372	0.282771
C52	C	0.234842	0.869372	0.782771
C53	C	-0.265226	0.282914	0.369495
C54	C	0.234774	0.782914	0.869495
C55	C	-0.335913	0.282908	0.369491
C56	C	0.164087	0.782908	0.869491
C57	C	-0.371222	0.326133	0.326120
C58	C	0.128778	0.826133	0.826120
C59	C	-0.447870	0.326129	0.326119
C60	C	0.052130	0.826129	0.826119
C61	C	-0.508962	0.326123	0.326121
C62	C	-0.008962	0.826123	0.826121
C63	C	-0.977983	0.501983	0.326106
C64	C	-0.477983	1.001983	0.826106
C65	C	-0.978007	0.577214	0.326120
C66	C	-0.478007	1.077214	0.826120
C67	C	-0.154615	0.326147	0.326141
C68	C	0.345385	0.826147	0.826141
C69	C	-0.229847	0.326142	0.326132
C70	C	0.270153	0.826142	0.826132
C71	C	-0.978102	0.326079	0.502669
C72	C	-0.478102	0.826079	1.002669
C73	C	-0.978115	0.326059	0.577901
C74	C	-0.478115	0.826059	1.077901
C75	C	-1.021507	1.039001	0.282960
C76	C	-0.521507	1.539001	0.782960
C77	C	-1.021477	0.968312	0.282944
C78	C	-0.521477	1.468312	0.782944
C79	C	-0.978149	0.932976	0.326182
C80	C	-0.478149	1.432976	0.826182
C81	C	-0.934843	0.968332	0.369434
C82	C	-0.434843	1.468332	0.869434
C83	C	-0.934871	1.039019	0.369446
C84	C	-0.434871	1.539019	0.869446
C85	C	-0.934731	0.683259	0.369387
C86	C	-0.434731	1.183259	0.869387
C87	C	-0.934709	0.612567	0.369374
C88	C	-0.434709	1.112567	0.869374
C89	C	-1.021338	0.612552	0.282885
C90	C	-0.521338	1.112552	0.782885
C91	C	-1.021365	0.683239	0.282897
C92	C	-0.521365	1.183239	0.782897
C93	C	-0.978057	0.718589	0.326146
C94	C	-0.478057	1.218589	0.826146
C95	C	-0.978090	0.795237	0.326162
C96	C	-0.478090	1.295237	0.826162
C97	C	-0.978119	0.856329	0.326171
C98	C	-0.478119	1.356329	0.826171
C99	C	-0.978176	1.149584	0.326169
C100	C	-0.478176	1.649584	0.826169
C101	C	-0.978207	1.074352	0.326210
C102	C	-0.478207	1.574352	0.826210
C103	C	-0.978082	0.326124	0.150270
C104	C	-0.478082	0.826124	0.650270
C105	C	-0.978200	0.325954	0.075038
C106	C	-0.478200	0.825954	0.575038
C107	C	-0.934863	0.282759	0.613248
C108	C	-0.434863	0.782759	1.113248
C109	C	-0.934873	0.282746	0.683936
C110	C	-0.434873	0.782746	1.183936
C111	C	-0.978137	0.326030	0.719276
C112	C	-0.478137	0.826030	1.219276
C113	C	-1.021391	0.369336	0.683924
C114	C	-0.521391	0.869336	1.183924
C115	C	-1.021378	0.369352	0.613237
C116	C	-0.521378	0.869352	1.113237
C117	C	-1.021445	0.369272	0.968998
C118	C	-0.521445	0.869272	1.468998
C119	C	-1.021456	0.369252	1.039690
C120	C	-0.521456	0.869252	1.539690
C121	C	-0.934940	0.282666	1.039697
C122	C	-0.434940	0.782666	1.539697
C123	C	-0.934926	0.282682	0.969009
C124	C	-0.434926	0.782682	1.469009
C125	C	-0.978177	0.325990	0.933664
C126	C	-0.478177	0.825990	1.433664
C127	C	-0.978165	0.326005	0.857015
C128	C	-0.478165	0.826005	1.357015
C129	C	-0.978153	0.326013	0.795923
C130	C	-0.478153	0.826013	1.295923
H131	H	-0.364590	0.404565	0.247447
H132	H	0.135410	0.904565	0.747447
H133	H	-1.056794	1.067766	0.247754
H134	H	-0.556794	1.567766	0.747754
C135	C	-1.068829	0.417103	0.722801
C136	C	-0.568829	0.917103	1.222801
N137	N	-1.104507	0.453135	0.752082
N138	N	-0.604507	0.953135	1.252082
C139	C	-0.226244	0.416928	0.235063
C140	C	0.273756	0.916928	0.735063
N141	N	-0.196934	0.452744	0.199131
N142	N	0.303066	0.952744	0.699131
H143	H	-1.056655	0.404544	0.940228
H144	H	-0.556655	0.904544	1.440228
H145	H	-1.056603	0.404607	0.584458
H146	H	-0.556603	0.904607	1.084458
C147	C	-0.730451	0.416891	0.235042
C148	C	-0.230451	0.916891	0.735042
N149	N	-0.759705	0.452709	0.199110
N150	N	-0.259705	0.952709	0.699110
H151	H	-0.236469	0.247716	0.404807
H152	H	0.263531	0.747716	0.904807
C153	C	-0.730584	0.235321	0.417176
C154	C	-0.230584	0.735321	0.917176
N155	N	-0.759888	0.199495	0.453103
N156	N	-0.259888	0.699495	0.953103
C157	C	-0.887047	0.573699	0.416947
C158	C	-0.387047	1.073699	0.916947
N159	N	-0.851153	0.544423	0.452780
N160	N	-0.351153	1.044423	0.952780
H161	H	-0.899462	0.712032	0.404599
H162	H	-0.399462	1.212032	0.904599
H163	H	-1.056599	0.583762	0.247667
H164	H	-0.556599	1.083762	0.747667
C165	C	-0.582149	0.235333	0.417183
C166	C	-0.082149	0.735333	0.917183
N167	N	-0.552897	0.199517	0.453118
N168	N	-0.052897	0.699517	0.953118
C169	C	-0.582006	0.416898	0.235050
C170	C	-0.082006	0.916898	0.735050
N171	N	-0.552694	0.452720	0.199125
N172	N	-0.052694	0.952720	0.699125
C173	C	-0.887182	0.929460	0.416998
C174	C	-0.387182	1.429460	0.916998
N175	N	-0.851285	0.900182	0.452826
N176	N	-0.351285	1.400182	0.952826
H177	H	-1.056650	0.712006	0.247690
H178	H	-0.556650	1.212006	0.747690
C179	C	-1.069097	0.929429	0.235351
C180	C	-0.569097	1.429429	0.735351
N181	N	-1.104962	0.900143	0.199497
N182	N	-0.604962	1.400143	0.699497
C183	C	-0.887268	0.235141	0.574380
C184	C	-0.387268	0.735141	1.074380
N185	N	-0.851415	0.199277	0.545107
N186	N	-0.351415	0.699277	1.045107
C187	C	-0.374824	0.235347	0.417188
C188	C	0.125176	0.735347	0.917188
N189	N	-0.404131	0.199520	0.453111
N190	N	0.095869	0.699520	0.953111
C191	C	-0.887238	1.077905	0.417026
C192	C	-0.387238	1.577905	0.917026
N193	N	-0.851358	1.107193	0.452863
N194	N	-0.351358	1.607193	0.952863
H195	H	-0.899650	0.247488	0.712712
H196	H	-0.399650	0.747488	1.212712
C197	C	-0.887331	0.235067	0.930139
C198	C	-0.387331	0.735067	1.430139
N199	N	-0.851479	0.199204	0.900863
N200	N	-0.351479	0.699204	1.400863
C201	C	-0.887357	0.235031	1.078583
C202	C	-0.387357	0.735031	1.578583
N203	N	-0.851520	0.199153	1.107872
N204	N	-0.351520	0.699153	1.607872
C205	C	-1.069048	0.416875	1.078563
C206	C	-0.569048	0.916875	1.578563
N207	N	-1.104893	0.452743	1.107842
N208	N	-0.604893	0.952743	1.607842
