data_functionalizedCrystal
_audit_creation_method	'MofGen! by Chris Wilmer'
_symmetry_space_group_name_H-M	'P1'
_symmetry_Int_Tables_number	1
_symmetry_cell_setting	triclinic
loop_
_symmetry_equiv_pos_as_xyz
  x,y,z
_cell_length_a	10.967926
_cell_length_b	14.519731
_cell_length_c	9.482900
_cell_angle_alpha	99.351580
_cell_angle_beta	92.549900
_cell_angle_gamma	84.211611
loop_
_atom_site_label
_atom_site_type_symbol
_atom_site_fract_x
_atom_site_fract_y
_atom_site_fract_z
O1	O	1.610574	0.162804	0.282601
O2	O	1.261365	0.164826	0.195110
O3	O	1.445213	0.029903	0.241185
O4	O	1.426726	0.297727	0.236527
O5	O	1.407869	0.057424	0.473619
O6	O	1.224022	0.192348	0.427544
O7	O	1.573231	0.190325	0.515035
Cu8	Cu	1.395216	0.193849	0.492513
Cu9	Cu	1.439379	0.161302	0.217633
O10	O	1.389383	0.325249	0.468961
C11	C	1.198001	0.176360	0.300130
C12	C	1.064833	0.169714	0.266766
C13	C	0.986117	0.181008	0.372299
C14	C	0.848480	0.174140	0.337819
C15	C	1.425675	0.009274	0.357185
C16	C	1.423078	-0.093197	0.356535
C17	C	1.420969	-0.176415	0.356004
C18	C	1.418335	-0.280818	0.355333
C19	C	1.416244	-0.364031	0.354799
C20	C	1.413610	-0.468439	0.354131
C21	C	1.636595	0.178791	0.410012
C22	C	1.769765	0.185436	0.443367
C23	C	1.408921	0.345877	0.352957
C24	C	1.411519	0.448347	0.353598
N25	N	1.364163	0.216741	0.685851
N26	N	1.470442	0.138403	0.024297
C27	C	1.430212	0.168049	0.774602
C28	C	1.404384	0.187103	0.935547
H29	H	0.804263	0.200188	0.559253
H30	H	1.020623	0.195757	0.488177
H31	H	1.505875	0.112252	0.731437
N32	N	1.269251	0.286747	0.739992
N33	N	1.273987	0.370125	0.724290
H34	H	1.206953	0.419570	0.762524
H35	H	1.328707	0.242896	0.978706
N36	N	1.021542	0.151194	0.121403
N37	N	0.909796	0.145636	0.093599
H38	H	0.879223	0.132554	-0.009067
H39	H	1.546110	0.082603	0.981136
H40	H	0.813981	0.159383	0.221934
