data_functionalizedCrystal
_audit_creation_method	'MofGen! by Chris Wilmer'
_symmetry_space_group_name_H-M	'P1'
_symmetry_Int_Tables_number	1
_symmetry_cell_setting	triclinic
loop_
_symmetry_equiv_pos_as_xyz
  x,y,z
_cell_length_a	14.971486
_cell_length_b	14.971486
_cell_length_c	14.048226
_cell_angle_alpha	90.006995
_cell_angle_beta	89.991262
_cell_angle_gamma	83.614129
loop_
_atom_site_label
_atom_site_type_symbol
_atom_site_fract_x
_atom_site_fract_y
_atom_site_fract_z
O1	O	0.116569	1.186936	-0.079052
O2	O	0.449902	1.520269	0.254282
O3	O	0.783235	1.853602	0.587615
O4	O	0.130527	0.926535	-0.079078
O5	O	0.463861	1.259869	0.254256
O6	O	0.797194	1.593202	0.587589
O7	O	-0.006652	1.063715	-0.079057
O8	O	0.326681	1.397048	0.254276
O9	O	0.660015	1.730382	0.587610
O10	O	0.253748	1.049756	-0.079072
O11	O	0.587081	1.383089	0.254261
O12	O	0.920415	1.716423	0.587595
O13	O	-0.006668	1.063721	0.079264
O14	O	0.326665	1.397055	0.412598
O15	O	0.659998	1.730388	0.745931
O16	O	0.130511	0.926542	0.079244
O17	O	0.463845	1.259875	0.412577
O18	O	0.797178	1.593208	0.745910
O19	O	0.116552	1.186942	0.079270
O20	O	0.449886	1.520275	0.412603
O21	O	0.783219	1.853609	0.745936
Zn22	Zn	0.123529	1.056743	0.104394
Zn23	Zn	0.456863	1.390076	0.437727
Zn24	Zn	0.790196	1.723410	0.771060
Zn25	Zn	0.123551	1.056734	-0.104202
Zn26	Zn	0.456884	1.390068	0.229132
Zn27	Zn	0.790217	1.723401	0.562465
O28	O	0.253732	1.049762	0.079249
O29	O	0.587065	1.383096	0.412583
O30	O	0.920399	1.716429	0.745916
C31	C	0.129895	0.893214	0.000080
C32	C	0.463228	1.226547	0.333413
C33	C	0.796562	1.559881	0.666746
C34	C	0.128024	0.793917	0.000070
C35	C	0.461358	1.127250	0.333403
C36	C	0.794691	1.460583	0.666737
C37	C	0.208614	0.736692	0.000067
C38	C	0.541947	1.070025	0.333400
C39	C	0.875280	1.403358	0.666733
C40	C	0.206850	0.643392	0.000081
C41	C	0.540184	0.976725	0.333414
C42	C	0.873517	1.310059	0.666748
C43	C	0.124497	0.607320	0.000092
C44	C	0.457831	0.940653	0.333425
C45	C	0.791164	1.273986	0.666759
C46	C	0.043902	0.664552	0.000098
C47	C	0.377235	0.997886	0.333431
C48	C	0.710569	1.331219	0.666765
C49	C	0.045666	0.757850	0.000090
C50	C	0.378999	1.091183	0.333424
C51	C	0.712333	1.424517	0.666757
C52	C	0.040231	0.470090	0.000111
C53	C	0.373564	0.803423	0.333445
C54	C	0.706897	1.136757	0.666778
C55	C	0.038466	0.376786	0.000117
C56	C	0.371800	0.710119	0.333450
C57	C	0.705133	1.043453	0.666784
C58	C	0.201415	0.355632	0.000102
C59	C	0.534749	0.688965	0.333435
C60	C	0.868082	1.022299	0.666769
C61	C	0.203179	0.448930	0.000094
C62	C	0.536513	0.782263	0.333428
C63	C	0.869846	1.115596	0.666761
C64	C	0.122584	0.506156	0.000099
C65	C	0.455917	0.839489	0.333432
C66	C	0.789250	1.172822	0.666765
C67	C	-0.039985	1.063094	0.000103
C68	C	0.293348	1.396427	0.333437
C69	C	0.626682	1.729761	0.666770
C70	C	-0.139282	1.061223	0.000102
C71	C	0.194051	1.394556	0.333435
C72	C	0.527385	1.727890	0.666769
C73	C	-0.196507	1.141812	0.000111
C74	C	0.136826	1.475146	0.333444
C75	C	0.470159	1.808479	0.666778
C76	C	-0.289807	1.140049	0.000101
C77	C	0.043527	1.473383	0.333434
C78	C	0.376860	1.806716	0.666768
C79	C	-0.325879	1.057696	0.000089
C80	C	0.007454	1.391029	0.333423
C81	C	0.340788	1.724363	0.666756
C82	C	-0.268646	0.977101	0.000078
C83	C	0.064687	1.310434	0.333411
C84	C	0.398020	1.643767	0.666745
C85	C	-0.175349	0.978865	0.000081
C86	C	0.157985	1.312198	0.333414
C87	C	0.491318	1.645531	0.666747
C88	C	-0.463109	0.973430	0.000074
C89	C	-0.129776	1.306763	0.333407
C90	C	0.203558	1.640096	0.666741
C91	C	-0.556413	0.971665	0.000073
C92	C	-0.223080	1.304998	0.333406
C93	C	0.110254	1.638332	0.666740
C94	C	-0.577567	1.134614	0.000094
C95	C	-0.244233	1.467947	0.333428
C96	C	0.089100	1.801281	0.666761
C97	C	-0.484269	1.136378	0.000097
C98	C	-0.150936	1.469712	0.333431
C99	C	0.182397	1.803045	0.666764
C100	C	-0.427043	1.055782	0.000088
C101	C	-0.093710	1.389116	0.333421
C102	C	0.239624	1.722449	0.666754
C103	C	0.287065	1.050384	0.000087
C104	C	0.620398	1.383717	0.333420
C105	C	0.953731	1.717050	0.666754
C106	C	0.386362	1.052254	0.000082
C107	C	0.719695	1.385588	0.333415
C108	C	1.053028	1.718921	0.666748
C109	C	0.117185	1.220263	0.000110
C110	C	0.450518	1.553597	0.333444
C111	C	0.783851	1.886930	0.666777
C112	C	0.119056	1.319561	0.000114
C113	C	0.452389	1.652894	0.333447
C114	C	0.785722	1.986227	0.666780
N115	N	0.123558	1.056729	-0.246562
N116	N	0.456892	1.390063	0.086771
N117	N	0.790225	1.723396	0.420104
C118	C	0.177971	1.110941	-0.703425
C119	C	0.511304	1.444274	-0.370092
C120	C	0.844637	1.777607	-0.036759
C121	C	0.177976	1.110940	-0.603768
C122	C	0.511309	1.444274	-0.270434
C123	C	0.844643	1.777607	0.062899
C124	C	0.123529	1.056749	-0.553932
C125	C	0.456862	1.390082	-0.220599
C126	C	0.790196	1.723416	0.112734
C127	C	0.069066	1.002561	-0.603759
C128	C	0.402400	1.335895	-0.270426
C129	C	0.735733	1.669228	0.062907
C130	C	0.069057	1.002567	-0.703415
C131	C	0.402390	1.335900	-0.370082
C132	C	0.735724	1.669234	-0.036749
C133	C	0.069092	1.002551	-0.396045
C134	C	0.402425	1.335884	-0.062712
C135	C	0.735758	1.669218	0.270622
C136	C	0.069102	1.002544	-0.296382
C137	C	0.402435	1.335877	0.036951
C138	C	0.735769	1.669210	0.370284
C139	C	0.178011	1.110924	-0.296398
C140	C	0.511344	1.444258	0.036936
C141	C	0.844677	1.777591	0.370269
C142	C	0.178001	1.110930	-0.396054
C143	C	0.511335	1.444264	-0.062720
C144	C	0.844668	1.777597	0.270613
C145	C	0.123540	1.056741	-0.445874
C146	C	0.456873	1.390074	-0.112541
C147	C	0.790206	1.723408	0.220793
N148	N	0.123514	1.056755	0.246754
N149	N	0.456848	1.390089	0.580088
N150	N	0.790181	1.723422	0.913421
H151	H	-0.028593	0.347419	0.000127
H152	H	0.304740	0.680753	0.333460
H153	H	0.638074	1.014086	0.666794
H154	H	-0.019958	0.804443	0.000093
H155	H	0.313375	1.137776	0.333426
H156	H	0.646708	1.471109	0.666759
H157	H	0.270239	0.478296	0.000077
H158	H	0.603572	0.811630	0.333410
H159	H	0.936905	1.144963	0.666743
H160	H	0.024713	0.958443	-0.743978
H161	H	0.358046	1.291777	-0.410644
H162	H	0.691380	1.625110	-0.077311
Br163	Br	0.251884	1.184481	-0.536158
Br164	Br	0.585218	1.517815	-0.202825
Br165	Br	0.918551	1.851148	0.130509
Br166	Br	-0.147562	1.253584	0.000140
Br167	Br	0.185772	1.586917	0.333474
Br168	Br	0.519105	1.920250	0.666807
Br169	Br	-0.605368	0.859899	0.000061
Br170	Br	-0.272035	1.193232	0.333395
Br171	Br	0.061298	1.526566	0.666728
Br172	Br	-0.367467	1.249425	0.000113
Br173	Br	-0.034134	1.582759	0.333446
Br174	Br	0.299199	1.916092	0.666779
H175	H	-0.298024	0.910047	0.000062
H176	H	0.035310	1.243380	0.333396
H177	H	0.368643	1.576714	0.666729
Br178	Br	-0.004839	0.929026	-0.463658
Br179	Br	0.328494	1.262359	-0.130325
Br180	Br	0.661828	1.595692	0.203009
H181	H	0.024730	0.958442	-0.563175
H182	H	0.358064	1.291775	-0.229842
H183	H	0.691397	1.625109	0.103491
Br184	Br	-0.385445	0.864048	0.000057
Br185	Br	-0.052112	1.197382	0.333391
Br186	Br	0.281222	1.530715	0.666724
H187	H	-0.128756	0.913240	0.000074
H188	H	0.204577	1.246574	0.333407
H189	H	0.537911	1.579907	0.666740
Br190	Br	-0.435314	1.248144	0.000111
Br191	Br	-0.101981	1.581478	0.333444
Br192	Br	0.231353	1.914811	0.666777
H193	H	-0.624165	1.200238	0.000099
H194	H	-0.290832	1.533572	0.333433
H195	H	0.042501	1.866905	0.666766
H196	H	0.222359	1.155044	-0.255829
H197	H	0.555692	1.488377	0.077504
H198	H	0.889026	1.821710	0.410837
H199	H	0.275675	0.766054	0.000057
H200	H	0.609008	1.099387	0.333391
H201	H	0.942342	1.432720	0.666724
H202	H	0.222313	1.155064	-0.743994
H203	H	0.555647	1.488398	-0.410661
H204	H	0.888980	1.821731	-0.077328
Br205	Br	-0.004795	0.929001	-0.228748
Br206	Br	0.328539	1.262335	0.104585
Br207	Br	0.661872	1.595668	0.437919
H208	H	-0.023152	0.635175	0.000120
H209	H	0.310182	0.968508	0.333454
H210	H	0.643515	1.301842	0.666787
H211	H	0.272474	0.596802	0.000077
H212	H	0.605808	0.930136	0.333411
H213	H	0.939141	1.263469	0.666744
H214	H	-0.025399	0.516682	0.000116
H215	H	0.307934	0.850015	0.333450
H216	H	0.641268	1.183348	0.666783
H217	H	0.222341	1.155053	-0.436627
H218	H	0.555674	1.488387	-0.103294
H219	H	0.889008	1.821720	0.230040
H220	H	0.267039	0.309033	0.000103
H221	H	0.600373	0.642367	0.333436
H222	H	0.933706	0.975700	0.666769
