data_functionalizedCrystal
_audit_creation_method	'MofGen! by Chris Wilmer'
_symmetry_space_group_name_H-M	'P1'
_symmetry_Int_Tables_number	1
_symmetry_cell_setting	triclinic
loop_
_symmetry_equiv_pos_as_xyz
  x,y,z
_cell_length_a	16.625547
_cell_length_b	16.625545
_cell_length_c	15.296720
_cell_angle_alpha	99.644333
_cell_angle_beta	80.342885
_cell_angle_gamma	89.976026
loop_
_atom_site_label
_atom_site_type_symbol
_atom_site_fract_x
_atom_site_fract_y
_atom_site_fract_z
Zn1	Zn	1.153700	0.399897	0.510165
Zn2	Zn	1.487034	0.733230	0.843498
Zn3	Zn	1.820367	1.066563	1.176831
Zn4	Zn	1.176951	0.511412	0.359317
Zn5	Zn	1.510284	0.844745	0.692650
Zn6	Zn	1.843617	1.178078	1.025984
Zn7	Zn	1.042212	0.376597	0.359320
Zn8	Zn	1.375546	0.709931	0.692654
Zn9	Zn	1.708879	1.043264	1.025987
Zn10	Zn	1.018838	0.534682	0.510106
Zn11	Zn	1.352171	0.868015	0.843439
Zn12	Zn	1.685505	1.201348	1.176772
O13	O	1.097925	0.455647	0.434727
O14	O	1.431259	0.788980	0.768060
O15	O	1.764592	1.122314	1.101394
O16	O	1.269613	0.414702	0.490178
O17	O	1.602947	0.748035	0.823511
O18	O	1.936280	1.081368	1.156844
O19	O	1.178590	0.474039	0.233083
O20	O	1.511923	0.807372	0.566416
O21	O	1.845256	1.140705	0.899749
O22	O	1.057053	0.266860	0.379356
O23	O	1.390387	0.600193	0.712690
O24	O	1.723720	0.933526	1.046023
O25	O	1.286695	0.496631	0.379350
O26	O	1.620028	0.829965	0.712684
O27	O	1.953362	1.163298	1.046017
O28	O	1.138963	0.283978	0.490181
O29	O	1.472297	0.617311	0.823514
O30	O	1.805630	0.950644	1.156848
O31	O	1.079598	0.374991	0.233085
O32	O	1.412931	0.708324	0.566419
O33	O	1.746265	1.041658	0.899752
O34	O	0.926283	0.397555	0.379299
O35	O	1.259616	0.730888	0.712632
O36	O	1.592950	1.064222	1.045966
O37	O	1.017215	0.536292	0.636348
O38	O	1.350549	0.869625	0.969682
O39	O	1.683882	1.202958	1.303015
O40	O	0.909110	0.513699	0.490081
O41	O	1.242443	0.847033	0.823414
O42	O	1.575777	1.180366	1.156747
O43	O	1.116298	0.437266	0.636392
O44	O	1.449632	0.770599	0.969725
O45	O	1.782965	1.103932	1.303058
O46	O	1.155925	0.627327	0.379293
O47	O	1.489258	0.960660	0.712626
O48	O	1.822591	1.293994	1.045960
O49	O	1.039760	0.644423	0.490077
O50	O	1.373093	0.977757	0.823410
O51	O	1.706427	1.311090	1.156744
C52	C	0.888441	0.455625	0.434684
C53	C	1.221774	0.788958	0.768018
C54	C	1.555108	1.122291	1.101351
C55	C	0.798819	0.455638	0.434688
C56	C	1.132153	0.788971	0.768021
C57	C	1.465486	1.122305	1.101354
C58	C	0.726035	0.455641	0.434699
C59	C	1.059369	0.788974	0.768032
C60	C	1.392702	1.122308	1.101365
C61	C	0.634723	0.455649	0.434721
C62	C	0.968057	0.788982	0.768055
C63	C	1.301390	1.122316	1.101388
C64	C	0.561943	0.455660	0.434744
C65	C	0.895277	0.788993	0.768078
C66	C	1.228610	1.122326	1.101411
C67	C	0.470626	0.455669	0.434766
C68	C	0.803959	0.789002	0.768099
C69	C	1.137292	1.122335	1.101432
C70	C	1.097848	0.665133	0.434698
C71	C	1.431181	0.998467	0.768031
C72	C	1.764514	1.331800	1.101365
C73	C	1.097884	0.754757	0.434716
C74	C	1.431217	1.088090	0.768049
C75	C	1.764550	1.421424	1.101382
C76	C	1.097999	1.082949	0.434824
C77	C	1.431332	1.416283	0.768157
C78	C	1.764665	1.749616	1.101490
C79	C	1.097964	0.991637	0.434796
C80	C	1.431297	1.324970	0.768129
C81	C	1.764630	1.658303	1.101463
C82	C	1.097941	0.918856	0.434769
C83	C	1.431274	1.252189	0.768103
C84	C	1.764607	1.585523	1.101436
C85	C	1.097907	0.827538	0.434743
C86	C	1.431240	1.160871	0.768076
C87	C	1.764573	1.494204	1.101409
C88	C	1.308228	0.455670	0.434770
C89	C	1.641561	0.789003	0.768104
C90	C	1.974894	1.122337	1.101437
C91	C	1.397846	0.455680	0.434789
C92	C	1.731179	0.789013	0.768122
C93	C	2.064512	1.122346	1.101455
C94	C	1.061556	0.491974	0.670016
C95	C	1.394889	0.825307	1.003350
C96	C	1.728223	1.158640	1.336683
C97	C	1.046058	0.507454	0.770283
C98	C	1.379391	0.840787	1.103616
C99	C	1.712724	1.174120	1.436949
C100	C	1.098014	1.245347	0.434786
C101	C	1.431347	1.578680	0.768120
C102	C	1.764680	1.912014	1.101453
C103	C	1.098029	1.155734	0.434839
C104	C	1.431363	1.489067	0.768172
C105	C	1.764696	1.822401	1.101505
C106	C	1.134200	0.419403	0.200353
C107	C	1.467533	0.752737	0.533686
C108	C	1.800866	1.086070	0.867020
C109	C	1.149854	0.403696	0.100087
C110	C	1.483188	0.737029	0.433421
C111	C	1.816521	1.070363	0.766754
C112	C	1.208725	0.344866	1.053007
C113	C	1.542059	0.678199	1.386341
C114	C	1.875392	1.011533	1.719674
C115	C	1.223292	0.330323	0.958802
C116	C	1.556625	0.663656	1.292135
C117	C	1.889958	0.996989	1.625469
C118	C	1.178984	0.374604	0.911668
C119	C	1.512318	0.707937	1.245001
C120	C	1.845651	1.041271	1.578334
C121	C	1.120108	0.433431	0.958748
C122	C	1.453441	0.766765	1.292081
C123	C	1.786775	1.100098	1.625414
C124	C	1.105544	0.447980	1.052962
C125	C	1.438878	0.781314	1.386295
C126	C	1.772211	1.114647	1.719629
C127	C	1.075804	0.477718	0.911622
C128	C	1.409137	0.811052	1.244956
C129	C	1.742470	1.144385	1.578289
C130	C	1.016927	0.536546	0.958702
C131	C	1.350261	0.869879	1.292036
C132	C	1.683594	1.203213	1.625369
C133	C	1.002366	0.551092	1.052907
C134	C	1.335699	0.884425	1.386241
C135	C	1.669033	1.217758	1.719574
C136	C	1.046673	0.506811	1.100042
C137	C	1.380007	0.840144	1.433375
C138	C	1.713340	1.173477	1.766709
C139	C	1.090367	0.463169	0.817408
C140	C	1.423701	0.796503	1.150741
C141	C	1.757034	1.129836	1.484075
C142	C	0.987187	0.566284	0.817363
C143	C	1.320520	0.899617	1.150696
C144	C	1.653853	1.232951	1.484029
C145	C	0.972620	0.580827	0.911568
C146	C	1.305953	0.914160	1.244901
C147	C	1.639287	1.247494	1.578234
H148	H	1.138304	0.415271	0.779085
H149	H	1.471638	0.748604	1.112418
H150	H	1.804971	1.081938	1.445751
Br151	Br	0.927058	0.626391	0.753403
Br152	Br	1.260392	0.959724	1.086736
Br153	Br	1.593725	1.293058	1.420069
Br154	Br	0.892718	0.660661	0.975472
Br155	Br	1.226052	0.993994	1.308806
Br156	Br	1.559385	1.327328	1.642139
H157	H	1.190848	0.362759	0.834961
H158	H	1.524182	0.696093	1.168295
H159	H	1.857515	1.029426	1.501628
H160	H	1.271231	0.282427	0.920476
H161	H	1.604564	0.615761	1.253810
H162	H	1.937898	0.949094	1.587143
H163	H	1.244799	0.308823	1.091393
H164	H	1.578132	0.642156	1.424726
H165	H	1.911465	0.975490	1.758059
H166	H	1.034817	0.518649	1.176752
H167	H	1.368150	0.851982	1.510085
H168	H	1.701483	1.185315	1.843418
Br169	Br	0.922479	0.630946	1.116800
Br170	Br	1.255813	0.964279	1.450134
Br171	Br	1.589146	1.297612	1.783467
