data_functionalizedCrystal
_audit_creation_method	'MofGen! by Chris Wilmer'
_symmetry_space_group_name_H-M	'P1'
_symmetry_Int_Tables_number	1
_symmetry_cell_setting	triclinic
loop_
_symmetry_equiv_pos_as_xyz
  x,y,z
_cell_length_a	12.970454
_cell_length_b	23.196402
_cell_length_c	23.196402
_cell_angle_alpha	90.005244
_cell_angle_beta	60.003313
_cell_angle_gamma	59.999552
loop_
_atom_site_label
_atom_site_type_symbol
_atom_site_fract_x
_atom_site_fract_y
_atom_site_fract_z
Zr1	Zr	1.128503	0.555364	-0.075653
O2	O	1.343594	0.463305	-0.167704
O3	O	0.913413	0.583585	-0.047434
O4	O	1.128500	0.583575	-0.167703
O5	O	1.128509	0.463323	0.047435
O6	O	1.128498	0.678446	-0.167702
O7	O	1.128507	0.463315	-0.047435
O8	O	0.743745	0.678465	0.047437
O9	O	1.513262	0.463305	-0.167705
O10	O	1.001881	0.666423	-0.035398
O11	O	1.001885	0.595627	0.035401
O12	O	1.255122	0.595615	-0.106200
O13	O	1.255126	0.524820	-0.035400
Zr14	Zr	1.128503	0.706686	0.075655
Zr15	Zr	1.128499	0.706673	-0.075652
Zr16	Zr	1.128508	0.555377	0.075654
Zr17	Zr	1.399103	0.555364	-0.075653
Zr18	Zr	0.857904	0.706686	0.075656
O19	O	1.343594	0.678465	0.047436
O20	O	1.343588	0.678447	-0.167703
O21	O	1.343600	0.463323	0.047434
O22	O	0.913413	0.798745	0.167706
O23	O	0.913407	0.798727	-0.047432
O24	O	0.913419	0.583603	0.167705
O25	O	1.128498	0.798727	-0.047433
O26	O	1.128507	0.678475	0.167705
O27	O	1.128509	0.583604	0.167704
O28	O	1.128500	0.798735	0.047437
O29	O	1.513258	0.583575	-0.167704
O30	O	0.743749	0.678475	0.167706
O31	O	0.743745	0.798745	0.167707
O32	O	0.743742	0.798735	0.047438
O33	O	1.513265	0.463315	-0.047436
O34	O	1.513262	0.583585	-0.047435
O35	O	1.001885	0.666435	0.106202
O36	O	1.001881	0.737230	0.035402
O37	O	1.255122	0.666423	-0.035399
O38	O	1.255126	0.595627	0.035401
C39	C	0.790024	0.631025	0.000002
C40	C	0.675147	0.631025	0.000002
C41	C	1.128509	0.631041	0.189263
C42	C	1.128510	0.631046	0.253496
C43	C	1.128498	0.820289	0.000002
C44	C	1.128496	0.884524	0.000003
C45	C	1.466983	0.631025	0.000000
C46	C	1.581859	0.631025	-0.000000
C47	C	1.128509	0.441761	-0.000000
C48	C	1.128510	0.377526	-0.000001
C49	C	0.996311	0.951658	0.036964
C50	C	0.996309	1.012013	0.036961
C51	C	1.128500	1.005230	0.000005
C52	C	1.260703	0.938084	-0.036964
C53	C	1.260701	0.877731	-0.036965
C54	C	1.229778	1.072532	0.005284
C55	C	1.229774	1.132886	0.005291
C56	C	1.128511	1.191378	0.000005
C57	C	1.027228	1.189516	-0.005272
C58	C	1.027226	1.129163	-0.005274
C59	C	1.128517	1.070669	0.000002
C60	C	0.996314	1.323958	0.036965
C61	C	0.996318	1.384313	0.036956
C62	C	1.260716	1.310382	-0.036964
C63	C	1.260709	1.250030	-0.036960
C64	C	1.128504	1.256822	0.000008
C65	C	1.128498	0.631009	-0.189260
C66	C	1.128496	0.631004	-0.253494
C67	C	1.260696	0.594089	0.246714
C68	C	1.260698	0.594078	0.307068
C69	C	1.128507	0.631040	0.374204
C70	C	0.996304	0.667999	0.380985
C71	C	0.996306	0.668002	0.320630
C72	C	1.027229	0.692942	0.498142
C73	C	1.027233	0.692941	0.558494
C74	C	1.128496	0.631028	0.560358
C75	C	1.229779	0.569117	0.501857
C76	C	1.229781	0.569120	0.441503
C77	C	1.128490	0.631039	0.439653
C78	C	1.260692	0.594055	0.619016
C79	C	1.260689	0.594043	0.679373
C80	C	0.996291	0.667970	0.753290
C81	C	0.996298	0.667976	0.692933
C82	C	1.128503	0.631020	0.625799
C83	C	0.790019	0.820289	0.000003
C84	C	0.675140	0.884524	0.000004
C85	C	0.790029	0.631041	0.189264
C86	C	0.675154	0.631046	0.253497
C87	C	0.790024	0.820305	0.189265
C88	C	0.675147	0.884545	0.253499
C89	C	1.466983	0.441745	-0.189263
C90	C	1.581859	0.377505	-0.253497
C91	C	1.466988	0.441761	-0.000001
C92	C	1.581866	0.377526	-0.000002
C93	C	1.466977	0.631009	-0.189261
C94	C	1.581852	0.631004	-0.253495
C95	C	0.621192	0.877728	-0.036959
C96	C	0.513267	0.938078	-0.036973
C97	C	0.459284	1.005222	-0.000018
C98	C	0.513243	1.012016	0.036946
C99	C	0.621174	0.951668	0.036955
C100	C	0.621208	0.668010	0.320626
C101	C	0.513286	0.668012	0.380986
C102	C	0.459305	0.631055	0.374217
C103	C	0.513262	0.594087	0.307081
C104	C	0.621189	0.594081	0.246722
C105	C	0.621198	0.951674	0.246708
C106	C	0.513274	1.012040	0.307057
C107	C	0.459294	1.005276	0.374197
C108	C	0.513254	0.938140	0.380987
C109	C	0.621184	0.877776	0.320639
C110	C	1.635822	0.310376	-0.246705
C111	C	1.743779	0.250010	-0.307055
C112	C	1.797765	0.256774	-0.374195
C113	C	1.743798	0.323910	-0.380985
C114	C	1.635850	0.384274	-0.320637
C115	C	1.635826	0.384322	0.036955
C116	C	1.743781	0.323972	0.036952
C117	C	1.797768	0.256828	-0.000005
C118	C	1.743804	0.250034	-0.036966
C119	C	1.635858	0.310382	-0.036967
C120	C	1.635799	0.667968	-0.246703
C121	C	1.743722	0.667977	-0.307052
C122	C	1.797704	0.631016	-0.374192
C123	C	1.743746	0.594051	-0.380983
C124	C	1.635818	0.594047	-0.320635
H125	H	0.888659	0.957195	0.067065
H126	H	1.591878	0.438988	0.067054
F127	F	0.678583	0.806334	0.327878
F128	F	0.344436	0.631068	0.438463
H129	H	1.787643	0.698077	-0.301509
H130	H	1.368348	0.563995	0.192054
F131	F	1.912654	0.192605	0.000003
H132	H	0.469295	0.563998	0.301579
H133	H	0.469367	0.698118	0.435645
F134	F	1.912575	0.631026	-0.438415
H135	H	1.591906	0.563943	-0.326175
F136	F	0.678586	0.554741	0.175280
F137	F	0.678635	0.707350	0.327847
H138	H	0.888673	0.698091	0.435651
H139	H	0.665133	0.957195	0.192044
F140	F	0.678570	0.958911	0.076303
F141	F	0.855613	1.083472	0.076302
H142	H	1.591914	0.438932	-0.326175
H143	H	1.368349	1.195365	-0.067055
H144	H	0.888658	0.698074	0.698459
F145	F	1.801190	0.331218	0.076295
H146	H	0.944760	1.127650	-0.009573
F147	F	0.855609	0.707339	0.327852
H148	H	1.591873	0.304855	-0.192042
H149	H	0.469351	1.066699	0.301515
H150	H	1.787701	0.195351	-0.301512
H151	H	1.885663	0.207615	-0.423329
F152	F	0.919445	0.758843	0.496167
H153	H	0.371411	1.054435	0.423331
H154	H	1.787777	0.195357	-0.067055
F155	F	0.919498	1.251751	-0.010936
H156	H	0.469288	0.932643	0.435661
H157	H	1.787767	0.329409	-0.435658
F158	F	1.337559	1.134864	0.010914
F159	F	1.578434	0.303139	-0.076300
H160	H	1.787715	0.563959	-0.435657
H161	H	0.371398	1.054356	-0.000030
H162	H	0.944769	0.743353	0.606121
F163	F	0.678629	0.806274	-0.076296
H164	H	0.469346	0.932532	-0.067073
F165	F	1.578367	0.707309	-0.175252
H166	H	0.888665	1.329490	0.067063
H167	H	0.888672	1.438978	0.067050
H168	H	1.368349	1.304859	-0.067057
H169	H	1.368334	0.932565	-0.067055
F170	F	1.401398	0.806278	-0.076306
F171	F	1.401394	0.554751	0.299852
F172	F	1.337571	1.010280	0.010904
H173	H	1.312247	0.518710	0.393873
H174	H	1.368342	0.563960	0.564352
F175	F	1.337563	0.503220	0.503833
F176	F	0.855602	0.707302	0.824738
F177	F	0.455772	1.083482	0.076275
F178	F	1.401387	0.554691	0.672150
