data_functionalizedCrystal
_audit_creation_method	'MofGen! by Chris Wilmer'
_symmetry_space_group_name_H-M	'P1'
_symmetry_Int_Tables_number	1
_symmetry_cell_setting	triclinic
loop_
_symmetry_equiv_pos_as_xyz
  x,y,z
_cell_length_a	10.654546
_cell_length_b	15.186229
_cell_length_c	16.109301
_cell_angle_alpha	90.005167
_cell_angle_beta	83.972502
_cell_angle_gamma	90.010582
loop_
_atom_site_label
_atom_site_type_symbol
_atom_site_fract_x
_atom_site_fract_y
_atom_site_fract_z
O1	O	-1.666258	-0.073380	-0.116759
O2	O	-1.300628	-0.073349	-0.127888
O3	O	-1.493487	-0.073356	-0.001352
O4	O	-1.473399	-0.073372	-0.243295
O5	O	-1.493474	0.073101	-0.001350
O6	O	-1.300615	0.073108	-0.127886
O7	O	-1.666245	0.073078	-0.116758
Zn8	Zn	-1.483428	0.096346	-0.122321
Zn9	Zn	-1.483445	-0.096618	-0.122324
O10	O	-1.473386	0.073085	-0.243293
C11	C	-1.253834	-0.000117	-0.127070
C12	C	-1.114424	-0.000105	-0.124628
C13	C	-1.033928	-0.000119	-0.199129
C14	C	-0.902938	-0.000128	-0.196829
C15	C	-0.932954	-0.000112	-0.045518
C16	C	-1.063941	-0.000097	-0.047820
C17	C	-1.084411	-0.000127	-0.275937
C18	C	-1.003913	-0.000143	-0.350445
C19	C	-0.872923	-0.000152	-0.348145
C20	C	-0.822431	-0.000145	-0.271336
C21	C	-0.713038	-0.000145	-0.117577
C22	C	-0.852447	-0.000129	-0.120026
N23	N	-1.483426	0.228039	-0.122319
C24	C	-1.492667	-0.000127	0.029628
C25	C	-1.490227	-0.000126	0.121938
N26	N	-1.483457	-0.228310	-0.122320
C27	C	-1.568853	0.453759	-0.066309
C28	C	-1.568857	0.545948	-0.066307
C29	C	-1.398021	0.545964	-0.178333
C30	C	-1.398012	0.453776	-0.178330
C31	C	-1.483435	0.407675	-0.122319
C32	C	-1.483448	0.592053	-0.122320
C33	C	-1.483452	0.692009	-0.122318
C34	C	-1.483430	0.307713	-0.122319
C35	C	-1.474206	-0.000146	-0.274274
C36	C	-1.476646	-0.000154	-0.366584
C37	C	-1.598994	-0.000149	0.343565
C38	C	-1.596691	-0.000156	0.430299
C39	C	-1.367871	-0.000133	0.411783
C40	C	-1.370174	-0.000132	0.325051
C41	C	-1.485739	-0.000136	0.290944
C42	C	-1.481134	-0.000143	0.464411
C43	C	-1.478637	-0.000151	0.558451
C44	C	-1.488237	-0.000130	0.196897
H45	H	-0.715769	-0.000139	-0.269469
Cl46	Cl	-1.222597	-0.000129	0.454666
H47	H	-1.693094	-0.000153	0.315798
H48	H	-1.191067	-0.000124	-0.277819
H49	H	-1.328449	0.416252	-0.223941
Cl50	Cl	-0.869476	-0.000109	0.051033
Cl51	Cl	-1.676237	0.395808	0.004109
Cl52	Cl	-1.676241	0.603879	0.004111
H53	H	-1.277943	-0.000125	0.282204
H54	H	-1.129484	-0.000087	0.012846
H55	H	-1.328473	0.583507	-0.223937
H56	H	-1.045032	-0.000140	-0.412980
Cl57	Cl	-0.771729	-0.000163	-0.441810
H58	H	-1.688915	-0.000168	0.473140
