data_functionalizedCrystal
_audit_creation_method	'MofGen! by Chris Wilmer'
_symmetry_space_group_name_H-M	'P1'
_symmetry_Int_Tables_number	1
_symmetry_cell_setting	triclinic
loop_
_symmetry_equiv_pos_as_xyz
  x,y,z
_cell_length_a	13.032831
_cell_length_b	12.594516
_cell_length_c	13.033352
_cell_angle_alpha	82.825519
_cell_angle_beta	89.095163
_cell_angle_gamma	82.821304
loop_
_atom_site_label
_atom_site_type_symbol
_atom_site_fract_x
_atom_site_fract_y
_atom_site_fract_z
Zn1	Zn	1.498287	-0.719108	0.780845
Zn2	Zn	1.998287	-0.219108	1.280845
Zn3	Zn	1.520079	-0.877630	0.608879
Zn4	Zn	2.020079	-0.377630	1.108879
Zn5	Zn	1.348196	-0.674573	0.587090
Zn6	Zn	1.848196	-0.174573	1.087090
Zn7	Zn	1.326287	-0.871930	0.758999
Zn8	Zn	1.826287	-0.371930	1.258999
O9	O	1.423212	-0.785810	0.683953
O10	O	1.923212	-0.285810	1.183953
O11	O	1.645094	-0.761160	0.776295
O12	O	2.145094	-0.261160	1.276295
O13	O	1.515568	-0.834441	0.462076
O14	O	2.015568	-0.334441	0.962076
O15	O	1.368155	-0.531544	0.612816
O16	O	1.868155	-0.031544	1.112816
O17	O	1.661104	-0.877625	0.649952
O18	O	2.161104	-0.377625	1.149952
O19	O	1.478426	-0.564264	0.755167
O20	O	1.978426	-0.064264	1.255167
O21	O	1.389286	-0.685256	0.446068
O22	O	1.889286	-0.185256	0.946068
O23	O	1.201374	-0.679729	0.591633
O24	O	1.701374	-0.179729	1.091633
O25	O	1.330813	-0.867911	0.905809
O26	O	1.830813	-0.367911	1.405809
O27	O	1.185277	-0.824727	0.717933
O28	O	1.685277	-0.324727	1.217933
O29	O	1.457181	-0.755633	0.921860
O30	O	1.957181	-0.255633	1.421860
O31	O	1.494323	-1.025810	0.628769
O32	O	1.994323	-0.525810	1.128769
O33	O	1.351944	-1.021622	0.739061
O34	O	1.851944	-0.521622	1.239061
C35	C	1.156009	-0.746778	0.650049
C36	C	1.656009	-0.246778	1.150049
C37	C	1.041695	-0.730108	0.635569
C38	C	1.541695	-0.230108	1.135569
C39	C	0.982806	-0.794511	0.691510
C40	C	1.482806	-0.294511	1.191510
C41	C	0.864657	-0.777283	0.676546
C42	C	1.364657	-0.277283	1.176546
C43	C	1.423146	-1.062340	0.683935
C44	C	1.923146	-0.562340	1.183935
C45	C	1.423207	-1.180659	0.683973
C46	C	1.923207	-0.680659	1.183973
C47	C	1.345767	-1.247666	0.743912
C48	C	1.845767	-0.747666	1.243912
C49	C	1.332659	-1.304247	0.646897
C50	C	1.832659	-0.804247	1.146897
C51	C	1.436407	-1.334893	0.781016
C52	C	1.936407	-0.834893	1.281016
C53	C	1.410056	-1.235668	0.586902
C54	C	1.910056	-0.735668	1.086902
C55	C	1.513839	-1.266321	0.721090
C56	C	2.013839	-0.766321	1.221090
C57	C	1.500775	-1.322868	0.624015
C58	C	2.000775	-0.822868	1.124015
C59	C	1.691458	-0.824996	0.717991
C60	C	2.191458	-0.324996	1.217991
C61	C	1.805769	-0.841695	0.732495
C62	C	2.305769	-0.341695	1.232495
C63	C	1.389123	-0.816104	0.952193
C64	C	1.889123	-0.316104	1.452193
C65	C	1.374596	-0.829013	1.066500
C66	C	1.874596	-0.329013	1.566500
C67	C	1.423304	-0.508207	0.683998
C68	C	1.923304	-0.008207	1.183998
C69	C	1.423343	-0.389909	0.684017
C70	C	1.923343	0.110091	1.184017
C71	C	1.430643	-0.779216	1.125404
C72	C	1.930643	-0.279216	1.625404
C73	C	1.415631	-0.792557	1.243547
C74	C	1.915631	-0.292557	1.743547
C75	C	1.457161	-0.755659	1.416756
C76	C	1.957161	-0.255659	1.916756
C77	C	1.471686	-0.742753	1.302448
C78	C	1.971686	-0.242753	1.802448
H79	H	0.842814	-0.909586	0.791478
H80	H	1.342814	-0.409586	1.291478
H81	H	1.004643	-0.662212	0.576601
H82	H	1.504643	-0.162212	1.076601
H83	H	1.280186	-1.214700	0.794502
H84	H	1.780186	-0.714700	1.294502
Cl85	Cl	1.324373	-0.873629	1.300712
Cl86	Cl	1.824373	-0.373629	1.800712
Cl87	Cl	1.040002	-0.899339	0.782558
Cl88	Cl	1.540002	-0.399339	1.282558
H89	H	1.489739	-0.726702	1.088368
H90	H	1.989739	-0.226702	1.588368
H91	H	1.530784	-0.690232	1.265418
H92	H	2.030784	-0.190232	1.765418
Cl93	Cl	1.283342	-0.910081	1.123670
Cl94	Cl	1.783342	-0.410081	1.623670
Cl95	Cl	1.214418	-1.330805	0.598447
Cl96	Cl	1.714418	-0.830805	1.098447
H97	H	1.398856	-1.192671	0.504819
H98	H	1.898856	-0.692671	1.004819
Cl99	Cl	1.601990	-1.373431	0.545687
Cl100	Cl	2.101990	-0.873431	1.045687
Cl101	Cl	0.807464	-0.672449	0.585495
Cl102	Cl	1.307464	-0.172449	1.085495
Cl103	Cl	1.453562	-1.401454	0.907692
Cl104	Cl	1.953562	-0.901454	1.407692
Cl105	Cl	1.632043	-1.239723	0.769577
Cl106	Cl	2.132043	-0.739723	1.269577
