data_functionalizedCrystal
_audit_creation_method	'MofGen! by Chris Wilmer'
_symmetry_space_group_name_H-M	'P1'
_symmetry_Int_Tables_number	1
_symmetry_cell_setting	triclinic
loop_
_symmetry_equiv_pos_as_xyz
  x,y,z
_cell_length_a	16.959455
_cell_length_b	16.959453
_cell_length_c	16.959447
_cell_angle_alpha	89.971994
_cell_angle_beta	89.982129
_cell_angle_gamma	90.022154
loop_
_atom_site_label
_atom_site_type_symbol
_atom_site_fract_x
_atom_site_fract_y
_atom_site_fract_z
Zn1	Zn	1.208394	-0.314706	-0.446910
Zn2	Zn	1.708394	0.185294	0.053090
Zn3	Zn	1.208303	-0.446890	-0.314728
Zn4	Zn	1.708303	0.053110	0.185272
Zn5	Zn	1.076215	-0.314728	-0.314746
Zn6	Zn	1.576215	0.185272	0.185254
Zn7	Zn	1.076181	-0.446845	-0.446866
Zn8	Zn	1.576181	0.053155	0.053134
O9	O	1.142273	-0.380792	-0.380813
O10	O	1.642273	0.119208	0.119187
O11	O	1.318993	-0.332250	-0.429386
O12	O	1.818993	0.167750	0.070614
O13	O	1.190757	-0.429387	-0.204120
O14	O	1.690757	0.070613	0.295880
O15	O	1.093801	-0.204114	-0.332304
O16	O	1.593801	0.295886	0.167696
O17	O	1.318926	-0.429365	-0.332273
O18	O	1.818926	0.070635	0.167727
O19	O	1.190912	-0.204098	-0.429404
O20	O	1.690912	0.295902	0.070596
O21	O	1.093713	-0.332288	-0.204133
O22	O	1.593713	0.167712	0.295867
O23	O	0.965600	-0.332244	-0.332262
O24	O	1.465600	0.167756	0.167738
O25	O	1.093743	-0.429288	-0.557483
O26	O	1.593743	0.070712	-0.057483
O27	O	0.965575	-0.429310	-0.429329
O28	O	1.465575	0.070690	0.070671
O29	O	1.190879	-0.332206	-0.557515
O30	O	1.690879	0.167794	-0.057515
O31	O	1.190724	-0.557495	-0.332231
O32	O	1.690724	-0.057495	0.167769
O33	O	1.093655	-0.557462	-0.429312
O34	O	1.593655	-0.057462	0.070688
C35	C	0.936907	-0.380775	-0.380793
C36	C	1.436907	0.119225	0.119207
C37	C	0.849050	-0.380787	-0.380804
C38	C	1.349050	0.119213	0.119196
C39	C	0.807740	-0.431278	-0.330169
C40	C	1.307740	0.068722	0.169831
C41	C	0.807807	-0.330302	-0.431444
C42	C	1.307807	0.169698	0.068556
C43	C	0.725262	-0.330308	-0.431454
C44	C	1.225262	0.169692	0.068546
C45	C	0.683951	-0.380799	-0.380819
C46	C	1.183951	0.119201	0.119181
C47	C	0.725186	-0.431284	-0.330176
C48	C	1.225186	0.068716	0.169824
C49	C	0.684020	-0.279818	-0.482091
C50	C	1.184020	0.220182	0.017909
C51	C	0.601469	-0.279822	-0.482102
C52	C	1.101469	0.220178	0.017898
C53	C	0.560157	-0.330318	-0.431471
C54	C	1.060157	0.169682	0.068529
C55	C	0.601397	-0.380805	-0.380826
C56	C	1.101397	0.119195	0.119174
C57	C	0.560087	-0.431297	-0.330191
C58	C	1.060087	0.068703	0.169809
C59	C	0.601326	-0.481789	-0.279550
C60	C	1.101326	0.018211	0.220450
C61	C	0.683874	-0.481780	-0.279545
C62	C	1.183874	0.018220	0.220455
C63	C	0.477609	-0.330326	-0.431475
C64	C	0.977609	0.169674	0.068525
C65	C	0.477533	-0.431303	-0.330197
C66	C	0.977533	0.068697	0.169803
C67	C	1.142198	-0.586159	-0.380782
C68	C	1.642198	-0.086159	0.119218
C69	C	1.142237	-0.674015	-0.380795
C70	C	1.642237	-0.174015	0.119205
C71	C	1.091737	-0.715366	-0.330204
C72	C	1.591737	-0.215366	0.169796
C73	C	1.192771	-0.715218	-0.431404
C74	C	1.692771	-0.215218	0.068596
C75	C	1.192808	-0.797764	-0.431421
C76	C	1.692808	-0.297764	0.068579
C77	C	1.142308	-0.839114	-0.380830
C78	C	1.642308	-0.339114	0.119170
C79	C	1.091771	-0.797919	-0.330221
C80	C	1.591771	-0.297919	0.169779
C81	C	1.243338	-0.838965	-0.482034
C82	C	1.743338	-0.338965	0.017966
C83	C	1.243377	-0.921516	-0.482054
C84	C	1.743377	-0.421516	0.017946
C85	C	1.192880	-0.962868	-0.431458
C86	C	1.692880	-0.462868	0.068542
C87	C	1.142342	-0.921668	-0.380847
C88	C	1.642342	-0.421668	0.119153
C89	C	1.091842	-0.963019	-0.330256
C90	C	1.591842	-0.463019	0.169744
C91	C	1.041307	-0.921820	-0.279640
C92	C	1.541307	-0.421820	0.220360
C93	C	1.041275	-0.839272	-0.279625
C94	C	1.541275	-0.339272	0.220375
C95	C	1.192912	-1.045417	-0.431473
C96	C	1.692912	-0.545417	0.068527
C97	C	1.091875	-1.045572	-0.330273
C98	C	1.591875	-0.545572	0.169727
C99	C	1.348441	-0.380810	-0.380833
C100	C	1.848441	0.119190	0.119167
C101	C	1.436298	-0.380818	-0.380841
C102	C	1.936298	0.119182	0.119159
C103	C	1.142318	-0.380740	-0.586981
C104	C	1.642318	0.119260	-0.086981
C105	C	1.142336	-0.380717	-0.674838
C106	C	1.642336	0.119283	-0.174838
C107	C	1.142371	-0.174624	-0.380861
C108	C	1.642371	0.325376	0.119139
C109	C	1.142412	-0.086767	-0.380881
C110	C	1.642412	0.413233	0.119119
C111	C	1.091772	-0.431254	-0.716096
C112	C	1.591772	0.068746	-0.216096
C113	C	1.192914	-0.330155	-0.716132
C114	C	1.692914	0.169845	-0.216132
C115	C	1.192931	-0.330129	-0.798678
C116	C	1.692931	0.169871	-0.298678
C117	C	1.142366	-0.380665	-0.839937
C118	C	1.642366	0.119335	-0.339937
C119	C	1.091785	-0.431228	-0.798650
C120	C	1.591785	0.068772	-0.298650
C121	C	1.243505	-0.279562	-0.839972
C122	C	1.743505	0.220438	-0.339972
C123	C	1.243523	-0.279533	-0.922523
C124	C	1.743523	0.220467	-0.422523
C125	C	1.192962	-0.330074	-0.963783
C126	C	1.692962	0.169926	-0.463783
C127	C	1.142379	-0.380639	-0.922491
C128	C	1.642379	0.119361	-0.422491
C129	C	1.091815	-0.431176	-0.963750
C130	C	1.591815	0.068824	-0.463750
C131	C	1.041236	-0.481745	-0.922459
C132	C	1.541236	0.018255	-0.422459
C133	C	1.041224	-0.481769	-0.839910
C134	C	1.541224	0.018231	-0.339910
C135	C	1.192973	-0.330051	-1.046331
C136	C	1.692973	0.169949	-0.546331
C137	C	1.091828	-0.431150	-1.046303
C138	C	1.591828	0.068850	-0.546303
C139	C	1.142275	-0.380788	-0.175446
C140	C	1.642275	0.119212	0.324554
C141	C	1.142409	-0.380587	-0.087590
C142	C	1.642409	0.119413	0.412410
H143	H	0.841448	-0.289190	-0.472665
H144	H	1.341448	0.210810	0.027335
H145	H	1.050754	-1.079234	-0.289072
H146	H	1.550754	-0.579234	0.210928
H147	H	0.841320	-0.472390	-0.288940
H148	H	1.341320	0.027610	0.211060
Br149	Br	0.740087	-0.211296	-0.550803
Br150	Br	1.240087	0.288704	-0.050803
H151	H	0.567900	-0.238709	-0.523338
H152	H	1.067900	0.261291	-0.023338
Br153	Br	1.311851	-0.782844	-0.550708
Br154	Br	1.811851	-0.282844	-0.050708
H155	H	1.000186	-0.955499	-0.238452
H156	H	1.500186	-0.455499	0.261548
H157	H	0.444036	-0.289210	-0.472701
H158	H	0.944036	0.210790	0.027299
H159	H	1.000045	-0.522939	-0.806284
H160	H	1.500045	-0.022939	-0.306284
H161	H	1.050595	-0.681820	-0.288991
H162	H	1.550595	-0.181820	0.211009
Br163	Br	1.261589	-0.261405	-1.102366
Br164	Br	1.761589	0.238595	-0.602366
H165	H	1.000130	-0.805722	-0.238416
H166	H	1.500130	-0.305722	0.261584
H167	H	1.000062	-0.522888	-0.956063
H168	H	1.500062	-0.022888	-0.456063
Br169	Br	1.261502	-0.261541	-0.660138
Br170	Br	1.761502	0.238459	-0.160138
Br171	Br	1.261289	-0.659099	-0.500074
Br172	Br	1.761289	-0.159099	-0.000074
H173	H	1.234047	-1.078957	-0.472694
H174	H	1.734047	-0.578957	0.027306
H175	H	1.284527	-0.955053	-0.523267
H176	H	1.784527	-0.455053	-0.023267
H177	H	0.443904	-0.472423	-0.288968
H178	H	0.943904	0.027577	0.211032
Br179	Br	1.023135	-0.499884	-0.660063
Br180	Br	1.523135	0.000116	-0.160063
H181	H	0.567680	-0.522896	-0.238320
H182	H	1.067680	-0.022896	0.261680
H183	H	1.284669	-0.238415	-0.806373
H184	H	1.784669	0.261585	-0.306373
Br185	Br	1.312182	-0.210924	-0.978553
Br186	Br	1.812182	0.289076	-0.478553
H187	H	0.717458	-0.522886	-0.238313
H188	H	1.217458	-0.022886	0.261687
Br189	Br	1.023207	-0.499745	-1.102291
Br190	Br	1.523207	0.000255	-0.602291
