data_functionalizedCrystal
_audit_creation_method	'MofGen! by Chris Wilmer'
_symmetry_space_group_name_H-M	'P1'
_symmetry_Int_Tables_number	1
_symmetry_cell_setting	triclinic
loop_
_symmetry_equiv_pos_as_xyz
  x,y,z
_cell_length_a	14.971490
_cell_length_b	23.532407
_cell_length_c	13.448316
_cell_angle_alpha	89.988737
_cell_angle_beta	90.009093
_cell_angle_gamma	96.767837
loop_
_atom_site_label
_atom_site_type_symbol
_atom_site_fract_x
_atom_site_fract_y
_atom_site_fract_z
O1	O	-1.186161	0.074227	-0.082756
O2	O	-0.686161	0.574227	0.417244
O3	O	-0.925668	0.083112	-0.082748
O4	O	-0.425668	0.583112	0.417252
O5	O	-1.063770	-0.004229	-0.082734
O6	O	-0.563770	0.495771	0.417266
O7	O	-1.048059	0.161567	-0.082770
O8	O	-0.548059	0.661567	0.417230
O9	O	-1.063752	-0.004234	0.082650
O10	O	-0.563752	0.495766	0.582650
O11	O	-0.925650	0.083106	0.082636
O12	O	-0.425650	0.583106	0.582636
O13	O	-1.186144	0.074221	0.082628
O14	O	-0.686144	0.574221	0.582628
Cu15	Cu	-1.055896	0.078663	0.097733
Cu16	Cu	-0.555896	0.578663	0.597733
Cu17	Cu	-1.055916	0.078670	-0.097853
Cu18	Cu	-0.555916	0.578670	0.402147
O19	O	-1.048042	0.161562	0.082614
O20	O	-0.548042	0.661562	0.582614
C21	C	-0.892339	0.082711	-0.000054
C22	C	-0.392339	0.582711	0.499946
C23	C	-0.793054	0.081520	-0.000050
C24	C	-0.293054	0.581520	0.499950
C25	C	-0.365412	0.076379	-0.090219
C26	C	0.134588	0.576379	0.409781
C27	C	-0.458701	0.077497	-0.090216
C28	C	0.041299	0.577497	0.409784
C29	C	-0.505331	0.078057	-0.000063
C30	C	-0.005331	0.578057	0.499937
C31	C	-0.458669	0.077493	0.090094
C32	C	0.041331	0.577493	0.590094
C33	C	-0.365383	0.076371	0.090091
C34	C	0.134617	0.576371	0.590091
C35	C	-0.653107	0.079834	0.090096
C36	C	-0.153107	0.579834	0.590096
C37	C	-0.746399	0.080957	0.090100
C38	C	-0.246399	0.580957	0.590100
C39	C	-0.746424	0.080960	-0.090211
C40	C	-0.246424	0.580960	0.409789
C41	C	-0.653138	0.079838	-0.090215
C42	C	-0.153138	0.579838	0.409785
C43	C	-0.606482	0.079275	-0.000058
C44	C	-0.106482	0.579275	0.499942
C45	C	-1.063361	-0.025449	-0.000039
C46	C	-0.563361	0.474551	0.499961
C47	C	-1.062158	-0.088671	-0.000032
C48	C	-0.562158	0.411329	0.499968
C49	C	-1.136340	-0.487456	-0.000089
C50	C	-0.636340	0.012544	0.499911
C51	C	-1.135222	-0.546861	-0.000096
C52	C	-0.635222	-0.046861	0.499904
O53	O	-1.203989	-0.583311	-0.000135
O54	O	-0.703989	-0.083311	0.499865
N55	N	-1.053121	-0.569840	-0.000093
N56	N	-0.553121	-0.069840	0.499907
C57	C	-0.972131	-0.533410	-0.000092
C58	C	-0.472131	-0.033410	0.499908
O59	O	-0.902195	-0.558409	-0.000091
O60	O	-0.402195	-0.058409	0.499909
C61	C	-0.973250	-0.474006	-0.000092
C62	C	-0.473250	0.025994	0.499908
C63	C	-1.055356	-0.451031	-0.000085
C64	C	-0.555356	0.048969	0.499915
C65	C	-1.218440	-0.464481	-0.000083
C66	C	-0.718440	0.035519	0.499917
C67	C	-1.219557	-0.405080	-0.000074
C68	C	-0.719557	0.094920	0.499926
C69	C	-1.138574	-0.368654	-0.000070
C70	C	-0.638574	0.131346	0.499930
C71	C	-1.056473	-0.391630	-0.000076
C72	C	-0.556473	0.108370	0.499924
C73	C	-0.892261	-0.437577	-0.000098
C74	C	-0.392261	0.062423	0.499902
C75	C	-0.893386	-0.378170	-0.000098
C76	C	-0.393386	0.121830	0.499902
C77	C	-0.975493	-0.355195	-0.000092
C78	C	-0.475493	0.144805	0.499908
C79	C	-0.976607	-0.295803	-0.000062
C80	C	-0.476607	0.204197	0.499938
N81	N	-1.058709	-0.272825	-0.000066
N82	N	-0.558709	0.227175	0.499934
C83	C	-1.139692	-0.309250	-0.000070
C84	C	-0.639692	0.190750	0.499930
C85	C	-0.969789	-0.658162	-0.000095
C86	C	-0.469789	-0.158162	0.499905
C87	C	-0.968670	-0.717565	-0.000088
C88	C	-0.468670	-0.217565	0.499912
C89	C	-1.131761	-0.731012	-0.000094
C90	C	-0.631761	-0.231012	0.499906
C91	C	-1.132879	-0.671609	-0.000094
C92	C	-0.632879	-0.171609	0.499906
C93	C	-1.051891	-0.635184	-0.000098
C94	C	-0.551891	-0.135184	0.499902
C95	C	-1.142032	-0.184504	-0.000049
C96	C	-0.642032	0.315496	0.499951
C97	C	-1.143141	-0.125097	-0.000036
C98	C	-0.643141	0.374903	0.499964
C99	C	-0.980050	-0.111655	-0.000035
C100	C	-0.480050	0.388345	0.499965
C101	C	-0.978940	-0.171056	-0.000043
C102	C	-0.478940	0.328944	0.499957
C103	C	-1.059938	-0.207480	-0.000053
C104	C	-0.559938	0.292520	0.499947
O105	O	-0.907876	-0.259319	-0.000027
O106	O	-0.407876	0.240681	0.499973
O107	O	-1.209617	-0.284242	-0.000084
O108	O	-0.709617	0.215758	0.499916
C109	C	-0.219473	0.074622	-0.000065
C110	C	0.280527	0.574622	0.499935
C111	C	-0.318757	0.075817	-0.000069
C112	C	0.181243	0.575817	0.499931
C113	C	-1.048451	0.182782	-0.000083
C114	C	-0.548451	0.682782	0.499917
C115	C	-1.049653	0.246004	-0.000097
C116	C	-0.549653	0.746004	0.499903
N117	N	-1.055888	0.078659	0.235297
N118	N	-0.555888	0.578659	0.735297
N119	N	-1.055931	0.078670	-0.235417
N120	N	-0.555931	0.578670	0.264583
C121	C	-1.117058	0.040000	0.287344
C122	C	-0.617058	0.540000	0.787344
C123	C	-1.117064	0.040000	0.391447
C124	C	-0.617064	0.540000	0.891447
C125	C	-1.055903	0.078661	0.443502
C126	C	-0.555903	0.578661	0.943502
C127	C	-0.994726	0.117321	0.391448
C128	C	-0.494726	0.617321	0.891448
C129	C	-0.994717	0.117318	0.287347
C130	C	-0.494717	0.617318	0.787347
C131	C	-0.994751	0.117325	0.608428
C132	C	-0.494751	0.617325	1.108428
C133	C	-0.994761	0.117329	0.712537
C134	C	-0.494761	0.617329	1.212537
C135	C	-1.117098	0.040006	0.712528
C136	C	-0.617098	0.540006	1.212528
C137	C	-1.117088	0.040003	0.608427
C138	C	-0.617088	0.540003	1.108427
C139	C	-1.055913	0.078665	0.556380
C140	C	-0.555913	0.578665	1.056380
H141	H	-0.496644	0.077945	0.163499
H142	H	0.003356	0.577945	0.663499
O143	O	-0.806031	-0.338883	-0.000100
O144	O	-0.306031	0.161117	0.499900
H145	H	-0.802631	-0.311505	0.067308
H146	H	-0.302631	0.188495	0.567308
H147	H	-0.327397	0.075919	0.163500
H148	H	0.172603	0.575919	0.663500
H149	H	-1.166894	0.008525	0.566044
H150	H	-0.666894	0.508525	1.066044
H151	H	-0.496684	0.077952	-0.163625
H152	H	0.003316	0.577952	0.336375
O153	O	-1.219108	-0.770310	-0.000105
O154	O	-0.719108	-0.270310	0.499895
H155	H	-1.258417	-0.762150	0.067306
H156	H	-0.758417	-0.262150	0.567306
H157	H	-1.207988	-0.214153	-0.000061
H158	H	-0.707988	0.285847	0.499939
H159	H	-0.944956	0.148810	0.754914
H160	H	-0.444956	0.648810	1.254914
O161	O	-1.308115	-0.380302	-0.000096
O162	O	-0.808115	0.119698	0.499904
H163	H	-1.364232	-0.415618	-0.000116
H164	H	-0.864232	0.084382	0.499884
H165	H	-0.825401	-0.456272	-0.000109
H166	H	-0.325401	0.043728	0.499891
H167	H	-1.284390	-0.494133	-0.000090
H168	H	-0.784390	0.005867	0.499910
O169	O	-1.183039	-0.001694	0.447591
O170	O	-0.683039	0.498306	0.947591
H171	H	-1.226285	0.022332	0.495004
H172	H	-0.726285	0.522332	0.995004
H173	H	-0.944905	0.148797	0.244971
H174	H	-0.444905	0.648797	0.744971
O175	O	-1.183010	-0.001713	0.231208
O176	O	-0.683010	0.498287	0.731208
H177	H	-1.172728	0.004777	0.150074
H178	H	-0.672728	0.504777	0.650074
O179	O	-0.796744	0.081565	-0.187452
O180	O	-0.296744	0.581565	0.312548
H181	H	-0.748645	0.080995	-0.250142
H182	H	-0.248645	0.580995	0.249858
H183	H	-1.166909	0.008527	0.754911
H184	H	-0.666909	0.508527	1.254911
O185	O	-0.928771	0.159018	0.552275
O186	O	-0.428771	0.659018	1.052275
H187	H	-0.939772	0.203429	0.572216
H188	H	-0.439772	0.703429	1.072216
O189	O	-0.315121	0.075763	-0.187456
O190	O	0.184879	0.575763	0.312544
H191	H	-0.363242	0.076332	-0.250142
H192	H	0.136758	0.576332	0.249858
O193	O	-0.602842	0.079214	-0.187448
O194	O	-0.102842	0.579214	0.312552
H195	H	-0.650957	0.079781	-0.250140
H196	H	-0.150957	0.579781	0.249860
H197	H	-0.912082	-0.189763	-0.000021
H198	H	-0.412082	0.310237	0.499979
H199	H	-0.914116	-0.081986	-0.000028
H200	H	-0.414116	0.418014	0.499972
O201	O	-1.221435	-0.646829	-0.000105
O202	O	-0.721435	-0.146829	0.499895
H203	H	-1.277555	-0.682143	-0.000116
H204	H	-0.777555	-0.182143	0.499884
H205	H	-0.901810	-0.736265	-0.000076
H206	H	-0.401810	-0.236265	0.499924
O207	O	-1.231708	-0.100322	-0.000038
O208	O	-0.731708	0.399678	0.499962
H209	H	-1.236124	-0.073594	0.067377
H210	H	-0.736124	0.426406	0.567377
H211	H	-0.903834	-0.628508	-0.000090
H212	H	-0.403834	-0.128508	0.499910
H213	H	-0.944923	0.148798	0.433837
H214	H	-0.444923	0.648798	0.933837
H215	H	-0.784362	0.081416	0.163511
H216	H	-0.284362	0.581416	0.663511
H217	H	-0.615121	0.079382	0.163511
H218	H	-0.115121	0.579382	0.663511
