data_functionalizedCrystal
_audit_creation_method	'MofGen! by Chris Wilmer'
_symmetry_space_group_name_H-M	'P1'
_symmetry_Int_Tables_number	1
_symmetry_cell_setting	triclinic
loop_
_symmetry_equiv_pos_as_xyz
  x,y,z
_cell_length_a	23.532407
_cell_length_b	16.992694
_cell_length_c	16.053789
_cell_angle_alpha	92.715794
_cell_angle_beta	87.105001
_cell_angle_gamma	93.241551
loop_
_atom_site_label
_atom_site_type_symbol
_atom_site_fract_x
_atom_site_fract_y
_atom_site_fract_z
O1	O	-0.122986	1.042377	0.069301
O2	O	-0.121662	0.814103	0.069326
O3	O	-0.039734	0.935124	0.069324
O4	O	-0.204914	0.921356	0.069304
O5	O	-0.035181	0.929251	-0.069535
O6	O	-0.117109	0.808230	-0.069532
O7	O	-0.118433	1.036504	-0.069557
Zn8	Zn	-0.117048	0.921435	-0.091591
Zn9	Zn	-0.123047	0.929172	0.091360
O10	O	-0.200361	0.915483	-0.069554
C11	C	-0.117682	0.781967	-0.000099
C12	C	-0.112599	0.694963	-0.000089
C13	C	-0.161645	0.644341	-0.000096
C14	C	-0.156865	0.562591	-0.000107
C15	C	-0.103039	0.531465	-0.000105
C16	C	-0.053989	0.582095	-0.000101
C17	C	-0.058769	0.663843	-0.000096
C18	C	-0.083226	0.288021	-0.000125
C19	C	-0.078450	0.206267	-0.000128
C20	C	-0.181327	0.186768	-0.000135
C21	C	-0.186102	0.268519	-0.000125
C22	C	-0.137052	0.319141	-0.000125
N23	N	-0.098152	0.447904	-0.000114
N24	N	-0.141940	0.402700	-0.000122
C25	C	-0.223871	0.918770	-0.000128
C26	C	-0.287140	0.919824	-0.000136
C27	C	-0.683019	0.854819	-0.000086
C28	C	-0.742468	0.855799	-0.000080
O29	O	-0.776223	0.795538	-0.000043
N30	N	-0.768664	0.927745	-0.000089
C31	C	-0.735408	0.998717	-0.000095
O32	O	-0.763148	1.060004	-0.000102
C33	C	-0.675960	0.997737	-0.000095
C34	C	-0.649767	0.925786	-0.000095
C35	C	-0.656825	0.782873	-0.000085
C36	C	-0.597380	0.781894	-0.000092
C37	C	-0.564129	0.852861	-0.000101
C38	C	-0.590322	0.924807	-0.000102
C39	C	-0.642705	1.068709	-0.000095
C40	C	-0.583254	1.067723	-0.000094
C41	C	-0.557061	0.995771	-0.000094
C42	C	-0.497625	0.994794	-0.000118
N43	N	-0.471429	0.922848	-0.000109
C44	C	-0.504681	0.851881	-0.000100
C45	C	-0.860252	1.000770	-0.000094
C46	C	-0.919699	1.001751	-0.000101
C47	C	-0.926754	0.858831	-0.000084
C48	C	-0.867307	0.857851	-0.000084
C49	C	-0.834056	0.928823	-0.000085
C50	C	-0.379842	0.849830	-0.000116
C51	C	-0.320391	0.848857	-0.000127
C52	C	-0.313341	0.991776	-0.000139
C53	C	-0.372786	0.992749	-0.000133
C54	C	-0.406036	0.921770	-0.000119
O55	O	-0.463834	1.055023	-0.000152
O56	O	-0.476933	0.790605	-0.000083
C57	C	-0.016224	0.931837	-0.000101
C58	C	0.047044	0.930784	-0.000088
C59	C	-0.122413	1.068640	-0.000129
C60	C	-0.127496	1.155644	-0.000134
N61	N	-0.112954	0.916160	-0.216451
C62	C	-0.148235	0.961581	-0.260151
C63	C	-0.145368	0.957902	-0.347557
C64	C	-0.107223	0.908797	-0.391262
C65	C	-0.071938	0.863374	-0.347556
C66	C	-0.074803	0.867058	-0.260151
C67	C	-0.094716	0.892715	-0.652669
C68	C	-0.091855	0.889032	-0.740080
C69	C	-0.165285	0.983562	-0.740075
C70	C	-0.168149	0.987238	-0.652669
C71	C	-0.132862	0.941818	-0.608970
N72	N	-0.104293	0.905033	-0.480605
N73	N	-0.135790	0.945587	-0.519629
N74	N	-0.127136	0.934453	0.216220
H75	H	-0.043286	0.329228	-0.000126
C76	C	-0.693396	0.704805	-0.000075
H77	H	-0.732555	0.715680	-0.000070
H78	H	-0.683514	0.673239	-0.048495
H79	H	-0.686684	0.677335	0.048357
H80	H	-0.060793	0.849041	-0.775662
H81	H	-0.196804	0.521376	-0.000111
H82	H	-0.286257	1.049555	-0.000150
H83	H	-0.229934	0.293855	-0.000116
H84	H	-0.664021	1.127300	-0.000095
C85	C	-0.055939	0.842703	-0.604608
H86	H	-0.063111	0.851919	-0.546293
H87	H	-0.063614	0.788401	-0.618962
H88	H	-0.017174	0.856934	-0.618908
H89	H	-0.299068	0.790263	-0.000131
C90	C	-0.568576	0.702747	-0.000080
H91	H	-0.596900	0.660629	-0.000065
H92	H	-0.543947	0.697336	-0.048501
H93	H	-0.547119	0.701442	0.048351
H94	H	-0.556184	1.125519	-0.000091
H95	H	-0.394113	1.051337	-0.000145
C96	C	-0.190195	1.015595	-0.212079
H97	H	-0.186853	1.011280	-0.153764
H98	H	-0.181612	1.068702	-0.226400
H99	H	-0.228011	1.000116	-0.226409
H100	H	-0.953839	0.801047	-0.000077
C101	C	-0.838500	0.778706	-0.000071
H102	H	-0.866823	0.736586	-0.000060
H103	H	-0.813869	0.773298	-0.048490
H104	H	-0.817045	0.777402	0.048362
C105	C	-0.948504	1.080897	-0.000109
H106	H	-0.920182	1.123018	-0.000110
H107	H	-0.969967	1.082207	-0.048529
H108	H	-0.973129	1.086300	0.048323
H109	H	-0.221260	0.145544	-0.000136
C110	C	-0.019239	0.172027	-0.000132
H111	H	-0.023420	0.116091	-0.000126
H112	H	0.002698	0.187385	-0.048555
H113	H	-0.000473	0.191471	0.048297
H114	H	-0.174097	0.994890	-0.383133
C115	C	0.005219	0.547859	-0.000098
H116	H	0.001042	0.491923	-0.000093
H117	H	0.027159	0.563221	-0.048517
H118	H	0.023980	0.567306	0.048335
H119	H	-0.040876	0.823395	-0.383147
H120	H	-0.018831	0.705060	-0.000090
H121	H	-0.205477	0.669676	-0.000096
H122	H	-0.833182	1.058567	-0.000102
C123	C	-0.416408	0.771755	-0.000107
H124	H	-0.392287	0.728771	-0.000115
H125	H	-0.441330	0.771203	0.048316
H126	H	-0.438160	0.767117	-0.048536
C127	C	-0.210109	1.041253	-0.604599
H128	H	-0.230709	1.067782	-0.643145
H129	H	-0.235950	1.010362	-0.570508
H130	H	-0.189553	1.078949	-0.570498
C131	C	-0.204092	1.033526	-0.788145
H132	H	-0.196921	1.024306	-0.846459
H133	H	-0.242846	1.019264	-0.773824
H134	H	-0.196441	1.087842	-0.773814
H135	H	-0.046073	0.830071	-0.224572
