data_functionalizedCrystal
_audit_creation_method	'MofGen! by Chris Wilmer'
_symmetry_space_group_name_H-M	'P1'
_symmetry_Int_Tables_number	1
_symmetry_cell_setting	triclinic
loop_
_symmetry_equiv_pos_as_xyz
  x,y,z
_cell_length_a	16.625548
_cell_length_b	12.759400
_cell_length_c	12.759393
_cell_angle_alpha	90.030580
_cell_angle_beta	89.979761
_cell_angle_gamma	89.984247
loop_
_atom_site_label
_atom_site_type_symbol
_atom_site_fract_x
_atom_site_fract_y
_atom_site_fract_z
Zn1	Zn	1.232721	0.418185	-0.594070
Zn2	Zn	1.232644	0.593900	-0.418390
Zn3	Zn	1.097884	0.418239	-0.418400
Zn4	Zn	1.097872	0.593825	-0.594022
O5	O	1.165280	0.506037	-0.506221
O6	O	1.345544	0.441502	-0.570782
O7	O	1.214740	0.570653	-0.271371
O8	O	1.115808	0.271211	-0.441727
O9	O	1.345486	0.570600	-0.441711
O10	O	1.214873	0.271171	-0.570791
O11	O	1.115733	0.441595	-0.271378
O12	O	0.985050	0.441523	-0.441680
O13	O	1.115788	0.570472	-0.741050
O14	O	0.985041	0.570525	-0.570709
O15	O	1.214861	0.441429	-0.741085
O16	O	1.214728	0.740911	-0.441664
O17	O	1.115712	0.740856	-0.570700
C18	C	1.165232	0.779005	-0.506199
C19	C	1.165286	0.895781	-0.506225
C20	C	0.955789	0.506022	-0.506191
C21	C	0.866168	0.506041	-0.506204
C22	C	1.165332	0.505936	-0.780254
C23	C	1.165353	0.505893	-0.897031
C24	C	0.537993	0.506048	-0.506249
C25	C	0.629301	0.506043	-0.506233
C26	C	0.702078	0.506045	-0.506225
C27	C	0.793392	0.506039	-0.506211
C28	C	1.375589	0.506053	-0.506251
C29	C	1.465210	0.506060	-0.506264
C30	C	1.165350	0.232004	-0.506266
C31	C	1.165380	0.115227	-0.506285
C32	C	1.216901	0.950637	-0.439110
C33	C	1.216950	1.060361	-0.439142
C34	C	1.113763	1.060364	-0.573407
C35	C	1.113718	0.950642	-0.573379
C36	C	1.276473	0.950637	-0.361590
C37	C	1.276522	1.060361	-0.361622
C38	C	1.216945	0.573021	-1.061610
C39	C	1.216915	0.573065	-0.951886
C40	C	1.113813	0.438679	-0.951906
C41	C	1.113840	0.438640	-1.061628
C42	C	1.276472	0.650605	-1.061598
C43	C	1.276442	0.650649	-0.951874
C44	C	1.165276	0.506062	-0.233253
C45	C	1.165410	0.505810	-0.116477
H46	H	1.071697	0.905979	-0.628039
F47	F	1.058935	0.367192	-0.893522
F48	F	1.058961	0.367143	-1.120018
F49	F	1.354060	1.104733	-0.399824
F50	F	1.058885	1.118759	-0.644875
H51	H	1.335807	0.621450	-1.095639
H52	H	1.254066	0.727967	-0.917829
H53	H	1.338900	0.920778	-0.383446
F54	F	1.247244	0.906259	-0.260526
F55	F	1.254721	1.099397	-0.255253
F56	F	1.254598	0.756944	-1.100502
F57	F	1.358062	0.622182	-0.912954
