data_functionalizedCrystal
_audit_creation_method	'MofGen! by Chris Wilmer'
_symmetry_space_group_name_H-M	'P1'
_symmetry_Int_Tables_number	1
_symmetry_cell_setting	triclinic
loop_
_symmetry_equiv_pos_as_xyz
  x,y,z
_cell_length_a	16.120484
_cell_length_b	16.120542
_cell_length_c	13.897441
_cell_angle_alpha	92.918134
_cell_angle_beta	92.866498
_cell_angle_gamma	89.836765
loop_
_atom_site_label
_atom_site_type_symbol
_atom_site_fract_x
_atom_site_fract_y
_atom_site_fract_z
Zn1	Zn	-0.395673	-1.254475	-0.642134
Zn2	Zn	-0.062340	-0.921142	-0.308800
Zn3	Zn	0.270994	-0.587808	0.024533
Zn4	Zn	-0.534738	-1.247318	-0.488563
Zn5	Zn	-0.201405	-0.913985	-0.155229
Zn6	Zn	0.131928	-0.580651	0.178104
Zn7	Zn	-0.388637	-1.115414	-0.472284
Zn8	Zn	-0.055303	-0.782081	-0.138951
Zn9	Zn	0.278030	-0.448748	0.194382
Zn10	Zn	-0.527616	-1.108327	-0.641247
Zn11	Zn	-0.194282	-0.774994	-0.307913
Zn12	Zn	0.139051	-0.441660	0.025420
O13	O	-0.461666	-1.181384	-0.561057
O14	O	-0.128333	-0.848050	-0.227723
O15	O	0.205001	-0.514717	0.105610
O16	O	-0.420046	-1.369891	-0.628946
O17	O	-0.086713	-1.036558	-0.295613
O18	O	0.246621	-0.703224	0.037721
O19	O	-0.515394	-1.229791	-0.351422
O20	O	-0.182060	-0.896458	-0.018089
O21	O	0.151273	-0.563125	0.315245
O22	O	-0.273208	-1.139822	-0.488374
O23	O	0.060126	-0.806489	-0.155040
O24	O	0.393459	-0.473155	0.178293
O25	O	-0.522217	-1.364633	-0.516118
O26	O	-0.188883	-1.031300	-0.182785
O27	O	0.144450	-0.697966	0.150549
O28	O	-0.278377	-1.241989	-0.613161
O29	O	0.054956	-0.908656	-0.279828
O30	O	0.388289	-0.575323	0.053505
O31	O	-0.408053	-1.132882	-0.339462
O32	O	-0.074720	-0.799549	-0.006129
O33	O	0.258613	-0.466216	0.327204
O34	O	-0.401147	-0.998109	-0.487514
O35	O	-0.067814	-0.664775	-0.154180
O36	O	0.265520	-0.331442	0.179153
O37	O	-0.510077	-1.127743	-0.776346
O38	O	-0.176744	-0.794410	-0.443012
O39	O	0.156589	-0.461076	-0.109679
O40	O	-0.503254	-0.992902	-0.611650
O41	O	-0.169921	-0.659568	-0.278316
O42	O	0.163412	-0.326235	0.055017
O43	O	-0.413140	-1.235117	-0.776997
O44	O	-0.079806	-0.901784	-0.443664
O45	O	0.253527	-0.568451	-0.110331
O46	O	-0.650156	-1.222919	-0.515258
O47	O	-0.316823	-0.889586	-0.181925
O48	O	0.016511	-0.556253	0.151409
O49	O	-0.644923	-1.120803	-0.627434
O50	O	-0.311590	-0.787470	-0.294101
O51	O	0.021744	-0.454137	0.039232
C52	C	-0.450665	-0.965333	-0.547720
C53	C	-0.117331	-0.631999	-0.214386
C54	C	0.216002	-0.298666	0.118947
C55	C	-0.445978	-0.872904	-0.542038
C56	C	-0.112645	-0.539571	-0.208705
C57	C	0.220688	-0.206238	0.124629
C58	C	-0.485951	-0.659935	-0.590475
C59	C	-0.152618	-0.326601	-0.257142
C60	C	0.180716	0.006732	0.076191
C61	C	-0.437430	-0.703681	-0.531664
C62	C	-0.104097	-0.370348	-0.198330
C63	C	0.229237	-0.037014	0.135003
C64	C	-0.442188	-0.797846	-0.537438
C65	C	-0.108854	-0.464512	-0.204104
C66	C	0.224479	-0.131179	0.129229
C67	C	-0.481194	-0.565762	-0.584703
C68	C	-0.147861	-0.232428	-0.251369
C69	C	0.185472	0.100905	0.081964
C70	C	-0.677712	-1.170338	-0.573039
C71	C	-0.344379	-0.837005	-0.239705
C72	C	-0.011045	-0.503671	0.093628
C73	C	-0.770141	-1.165689	-0.578202
C74	C	-0.436808	-0.832356	-0.244868
C75	C	-0.103475	-0.499022	0.088465
C76	C	-0.939371	-1.157206	-0.587648
C77	C	-0.606038	-0.823872	-0.254314
C78	C	-0.272705	-0.490539	0.079019
C79	C	-0.983128	-1.205710	-0.534491
C80	C	-0.649794	-0.872377	-0.201158
C81	C	-0.316461	-0.539044	0.132176
C82	C	-1.077293	-1.200990	-0.539747
C83	C	-0.743960	-0.867657	-0.206413
C84	C	-0.410626	-0.534324	0.126920
C85	C	-0.845197	-1.161925	-0.582393
C86	C	-0.511864	-0.828591	-0.249060
C87	C	-0.178531	-0.495258	0.084274
C88	C	-0.244777	-1.192495	-0.549051
C89	C	0.088556	-0.859161	-0.215717
C90	C	0.421889	-0.525828	0.117616
C91	C	-0.152352	-1.197230	-0.543934
C92	C	0.180981	-0.863896	-0.210601
C93	C	0.514314	-0.530563	0.122732
C94	C	-0.461599	-1.181438	-0.812649
C95	C	-0.128265	-0.848105	-0.479316
C96	C	0.205068	-0.514771	-0.145983
C97	C	-0.461570	-1.181461	-0.919863
C98	C	-0.128237	-0.848128	-0.586530
C99	C	0.205097	-0.514794	-0.253196
C100	C	-0.472706	-0.398278	-0.574433
C101	C	-0.139373	-0.064945	-0.241100
C102	C	0.193960	0.268389	0.092234
C103	C	-0.477400	-0.490706	-0.580098
C104	C	-0.144067	-0.157373	-0.246765
C105	C	0.189267	0.175960	0.086569
C106	C	-0.461547	-1.181479	-1.006932
C107	C	-0.128214	-0.848146	-0.673599
C108	C	0.205119	-0.514813	-0.340266
C109	C	-0.461511	-1.181505	-1.116164
C110	C	-0.128178	-0.848172	-0.782831
C111	C	0.205155	-0.514838	-0.449498
C112	C	-0.461675	-1.181380	-0.310443
C113	C	-0.128342	-0.848047	0.022891
C114	C	0.204991	-0.514713	0.356224
C115	C	-0.461478	-1.181530	-0.203227
C116	C	-0.128145	-0.848197	0.130107
C117	C	0.205189	-0.514863	0.463440
H118	H	-0.531061	-0.693200	-0.645157
H119	H	-0.197728	-0.359867	-0.311824
H120	H	0.135605	-0.026533	0.021510
C121	C	-0.938203	-1.266591	-0.467665
C122	C	-0.604869	-0.933258	-0.134331
C123	C	-0.271536	-0.599925	0.199002
C124	C	-0.842670	-1.271280	-0.462425
C125	C	-0.509337	-0.937947	-0.129092
C126	C	-0.176003	-0.604614	0.204242
C127	C	-0.797741	-1.332154	-0.395596
C128	C	-0.464408	-0.998820	-0.062263
C129	C	-0.131074	-0.665487	0.271070
C130	C	-0.848344	-1.388338	-0.334007
C131	C	-0.515011	-1.055005	-0.000673
C132	C	-0.181678	-0.721671	0.332660
C133	C	-0.943882	-1.383651	-0.339244
C134	C	-0.610549	-1.050318	-0.005911
C135	C	-0.277216	-0.716984	0.327423
C136	C	-0.988811	-1.322778	-0.406073
C137	C	-0.655478	-0.989444	-0.072740
C138	C	-0.322145	-0.656111	0.260594
H139	H	-0.805206	-1.229687	-0.508019
H140	H	-0.471872	-0.896354	-0.174686
H141	H	-0.138539	-0.563021	0.158647
H142	H	-0.727017	-1.335623	-0.391720
H143	H	-0.393684	-1.002290	-0.058386
H144	H	-0.060351	-0.668956	0.274947
H145	H	-0.815085	-1.433400	-0.284536
H146	H	-0.481752	-1.100067	0.048797
H147	H	-0.148418	-0.766733	0.382131
H148	H	-0.981347	-1.425244	-0.293650
H149	H	-0.648013	-1.091910	0.039683
H150	H	-0.314680	-0.758577	0.373017
H151	H	-1.059535	-1.319308	-0.409950
H152	H	-0.726202	-0.985975	-0.076616
H153	H	-0.392869	-0.652642	0.256717
H154	H	-0.972629	-1.112137	-0.637099
H155	H	-0.639296	-0.778804	-0.303766
H156	H	-0.305962	-0.445471	0.029567
H157	H	-0.392316	-0.670413	-0.476977
H158	H	-0.058983	-0.337080	-0.143643
H159	H	0.274350	-0.003747	0.189690
