data_functionalizedCrystal
_audit_creation_method	'MofGen! by Chris Wilmer'
_symmetry_space_group_name_H-M	'P1'
_symmetry_Int_Tables_number	1
_symmetry_cell_setting	triclinic
loop_
_symmetry_equiv_pos_as_xyz
  x,y,z
_cell_length_a	17.038272
_cell_length_b	19.188930
_cell_length_c	15.500227
_cell_angle_alpha	92.813384
_cell_angle_beta	86.956295
_cell_angle_gamma	87.128169
loop_
_atom_site_label
_atom_site_type_symbol
_atom_site_fract_x
_atom_site_fract_y
_atom_site_fract_z
O1	O	1.040536	0.148564	-0.071852
O2	O	1.540536	0.648564	0.428148
O3	O	0.812914	0.146156	-0.071877
O4	O	1.312914	0.646156	0.428123
O5	O	0.933292	0.046114	-0.071847
O6	O	1.433292	0.546114	0.428153
O7	O	0.920157	0.248607	-0.071882
O8	O	1.420157	0.748607	0.428118
O9	O	0.925988	0.052159	0.072040
O10	O	1.425988	0.552159	0.572040
O11	O	0.805609	0.152202	0.072009
O12	O	1.305609	0.652202	0.572009
O13	O	1.033231	0.154610	0.072035
O14	O	1.533231	0.654610	0.572035
Cu15	Cu	0.918753	0.153958	0.085160
Cu16	Cu	1.418753	0.653958	0.585160
Cu17	Cu	0.927392	0.146808	-0.085003
Cu18	Cu	1.427392	0.646808	0.414997
O19	O	0.912852	0.254653	0.072004
O20	O	1.412852	0.754653	0.572004
C21	C	0.780140	0.146990	0.000063
C22	C	1.280140	0.646990	0.500063
C23	C	0.693368	0.140458	0.000054
C24	C	1.193368	0.640458	0.500054
C25	C	0.643067	0.200424	0.000044
C26	C	1.143067	0.700424	0.500044
C27	C	0.561535	0.194283	0.000057
C28	C	1.061535	0.694283	0.500057
C29	C	0.530306	0.128176	0.000074
C30	C	1.030306	0.628176	0.500074
C31	C	0.580613	0.068205	0.000086
C32	C	1.080613	0.568205	0.500086
C33	C	0.662143	0.074347	0.000080
C34	C	1.162143	0.574347	0.500080
C35	C	0.284614	0.106479	0.000101
C36	C	0.784614	0.606479	0.500101
C37	C	0.203078	0.100342	0.000105
C38	C	0.703078	0.600342	0.500105
C39	C	0.184005	0.226421	0.000078
C40	C	0.684005	0.726421	0.500078
C41	C	0.265538	0.232556	0.000066
C42	C	0.765538	0.732556	0.500066
C43	C	0.315838	0.172586	0.000083
C44	C	0.815838	0.672586	0.500083
C45	C	0.446967	0.121897	0.000085
C46	C	0.946967	0.621897	0.500085
C47	C	0.399174	0.178865	0.000078
C48	C	0.899174	0.678865	0.500078
C49	C	0.929214	0.023099	0.000099
C50	C	1.429214	0.523099	0.500099
C51	C	0.927937	-0.054485	0.000106
C52	C	1.427937	0.445515	0.500106
C53	C	0.998572	-0.095020	0.000118
C54	C	1.498572	0.404980	0.500118
C55	C	0.997373	-0.167919	0.000104
C56	C	1.497373	0.332081	0.500104
C57	C	0.925534	-0.200279	0.000095
C58	C	1.425534	0.299721	0.500095
C59	C	0.854890	-0.159734	0.000079
C60	C	1.354890	0.340266	0.500079
C61	C	0.856092	-0.086837	0.000084
C62	C	1.356092	0.413163	0.500084
N63	N	0.868136	-0.309638	0.049057
N64	N	1.368136	0.190362	0.549057
N65	N	0.866999	-0.378887	0.049053
N66	N	1.366999	0.121113	0.549053
C67	C	0.921909	-0.419913	0.000077
C68	C	1.421909	0.080087	0.500077
N69	N	0.978011	-0.389074	-0.048884
N70	N	1.478011	0.110926	0.451116
N71	N	0.979150	-0.319818	-0.048877
N72	N	1.479150	0.180182	0.451123
C73	C	0.924223	-0.279323	0.000089
C74	C	1.424223	0.220677	0.500089
C75	C	0.991249	-0.539494	0.000073
C76	C	1.491249	-0.039494	0.500073
C77	C	0.990047	-0.612395	0.000054
C78	C	1.490047	-0.112395	0.500054
C79	C	0.847562	-0.604208	0.000037
C80	C	1.347562	-0.104208	0.500037
C81	C	0.848767	-0.531310	0.000048
C82	C	1.348767	-0.031310	0.500048
C83	C	0.920612	-0.498957	0.000070
C84	C	1.420612	0.001043	0.500070
C85	C	1.066004	0.153776	0.000092
C86	C	1.566004	0.653776	0.500092
C87	C	1.152777	0.160308	0.000095
C88	C	1.652777	0.660308	0.500095
C89	C	0.916930	0.277667	0.000057
C90	C	1.416930	0.777667	0.500057
C91	C	0.918208	0.355250	0.000044
C92	C	1.418208	0.855250	0.500044
N93	N	0.912682	0.158986	0.204843
N94	N	1.412682	0.658986	0.704843
N95	N	0.933468	0.141775	-0.204686
N96	N	1.433468	0.641775	0.295314
C97	C	0.963709	0.116612	0.250133
C98	C	1.463709	0.616612	0.750133
C99	C	0.959125	0.120422	0.340705
C100	C	1.459125	0.620422	0.840705
C101	C	0.903518	0.166610	0.385985
C102	C	1.403518	0.666610	0.885985
C103	C	0.852486	0.208985	0.340689
C104	C	1.352486	0.708985	0.840689
C105	C	0.857067	0.205171	0.250119
C106	C	1.357067	0.705171	0.750119
C107	C	0.887017	0.180337	0.659448
C108	C	1.387017	0.680337	1.159448
C109	C	0.882442	0.184149	0.750024
C110	C	1.382442	0.684149	1.250024
C111	C	0.989080	0.095584	0.750033
C112	C	1.489080	0.595584	1.250033
C113	C	0.993659	0.091778	0.659461
C114	C	1.493659	0.591778	1.159461
C115	C	0.942624	0.134150	0.614174
C116	C	1.442624	0.634150	1.114174
C117	C	0.898833	0.170506	0.478564
C118	C	1.398833	0.670506	0.978564
C119	C	0.947306	0.130250	0.521596
C120	C	1.447306	0.630250	1.021596
H121	H	0.177655	0.046506	0.000118
H122	H	0.677655	0.546506	0.500118
F123	F	0.338137	0.042652	0.000119
F124	F	0.838137	0.542652	0.500119
H125	H	0.668486	0.254256	0.000030
H126	H	1.168486	0.754256	0.500030
H127	H	0.520582	0.243114	0.000048
H128	H	1.020582	0.743114	0.500048
F129	F	0.298768	0.302917	0.000044
F130	F	0.798768	0.802917	0.500044
H131	H	0.703099	0.025516	0.000087
H132	H	1.203099	0.525516	0.500087
H133	H	1.054894	-0.200929	0.000110
H134	H	1.554894	0.299071	0.500110
F135	F	0.778435	-0.194175	0.000064
F136	F	1.278435	0.305825	0.500064
F137	F	0.547375	-0.002152	0.000110
F138	F	1.047375	0.497848	0.500110
H139	H	1.057074	-0.068683	0.000133
H140	H	1.557074	0.431317	0.500133
F141	F	0.780909	-0.043695	0.000071
F142	F	1.280909	0.456305	0.500071
H143	H	1.049750	-0.513151	0.000087
H144	H	1.549750	-0.013151	0.500087
F145	F	0.432412	0.249220	0.000064
F146	F	0.932412	0.749220	0.500064
F147	F	1.065231	-0.655536	0.000061
F148	F	1.565231	-0.155536	0.500061
F149	F	0.773586	-0.488167	0.000038
F150	F	1.273586	0.011833	0.500038
H151	H	0.421530	0.068073	0.000123
H152	H	0.921530	0.568073	0.500123
H153	H	0.789070	-0.630555	0.000026
H154	H	1.289070	-0.130555	0.500026
H155	H	1.008993	0.079004	0.213271
H156	H	1.508993	0.579004	0.713271
H157	H	1.000674	0.085917	0.377579
H158	H	1.500674	0.585917	0.877579
H159	H	1.038938	0.054168	0.622596
H160	H	1.538938	0.554168	1.122596
F161	F	1.043389	0.050489	0.798237
F162	F	1.543389	0.550489	1.298237
F163	F	0.130467	0.290241	0.000062
F164	F	0.630467	0.790241	0.500062
F165	F	0.823255	0.233312	0.798210
F166	F	1.323255	0.733312	1.298210
F167	F	0.832705	0.225435	0.611256
F168	F	1.332705	0.725435	1.111256
F169	F	0.793301	0.258139	0.388881
F170	F	1.293301	0.758139	0.888881
H171	H	0.853558	0.208115	0.515439
H172	H	1.353558	0.708115	1.015439
H173	H	0.992579	0.092641	0.484726
H174	H	1.492579	0.592641	0.984726
H175	H	0.815515	0.239676	0.213246
H176	H	1.315515	0.739676	0.713246
