data_functionalizedCrystal
_audit_creation_method	'MofGen! by Chris Wilmer'
_symmetry_space_group_name_H-M	'P1'
_symmetry_Int_Tables_number	1
_symmetry_cell_setting	triclinic
loop_
_symmetry_equiv_pos_as_xyz
  x,y,z
_cell_length_a	11.026607
_cell_length_b	10.489741
_cell_length_c	9.482900
_cell_angle_alpha	99.430409
_cell_angle_beta	78.636152
_cell_angle_gamma	96.562595
loop_
_atom_site_label
_atom_site_type_symbol
_atom_site_fract_x
_atom_site_fract_y
_atom_site_fract_z
O1	O	1.633618	0.519526	-0.120902
O2	O	1.279780	0.458584	-0.120903
O3	O	1.464749	0.305229	-0.120894
O4	O	1.448649	0.672881	-0.120911
O5	O	1.427179	0.336539	0.120897
O6	O	1.242210	0.489894	0.120887
O7	O	1.596048	0.550836	0.120889
Cu8	Cu	1.415698	0.523224	0.142965
Cu9	Cu	1.460129	0.486196	-0.142980
O10	O	1.411079	0.704190	0.120879
C11	C	1.215686	0.462996	-0.000008
C12	C	1.080679	0.429482	-0.000008
C13	C	1.444748	0.273085	0.000000
C14	C	1.441110	0.130655	-0.000002
C15	C	1.007683	0.522021	-0.000014
C16	C	0.868146	0.487384	-0.000014
C17	C	1.323420	0.036624	-0.000013
C18	C	1.360492	-0.027831	0.119202
C19	C	1.397561	-0.058669	-0.119184
C20	C	1.478215	0.068088	0.119312
C21	C	1.515284	0.037242	-0.119182
C22	C	1.552438	-0.027163	0.000063
C23	C	1.660143	0.546423	-0.000010
C24	C	1.795151	0.579936	-0.000019
C25	C	1.431080	0.736334	-0.000018
C26	C	1.434720	0.878763	-0.000025
N27	N	1.384457	0.549268	0.344084
N28	N	1.491380	0.460144	-0.344099
C29	C	1.450906	0.493869	0.416286
C30	C	1.424922	0.515551	0.583703
H31	H	1.048490	0.626890	-0.000010
C32	C	1.192674	0.074978	0.000151
N33	N	1.094198	0.103873	0.000283
C34	C	1.322066	0.601310	0.667622
N35	N	1.244597	0.665902	0.730832
C36	C	1.281607	0.635023	0.428009
N37	N	1.204137	0.699616	0.491219
C38	C	1.524246	0.142173	0.255628
N39	N	1.558910	0.197977	0.358304
C40	C	1.272061	-0.066901	0.255358
N41	N	1.205447	-0.096327	0.357906
C42	C	1.594237	0.374385	0.571985
N43	N	1.671712	0.309797	0.508779
H44	H	1.649280	-0.055274	0.000129
C45	C	1.603660	0.076341	-0.255350
N46	N	1.670217	0.105791	-0.357924
C47	C	0.813027	0.345701	-0.000007
N48	N	0.771510	0.238986	-0.000004
H49	H	0.835951	0.684814	-0.000014
C50	C	1.351418	-0.132953	-0.255344
N51	N	1.316655	-0.188899	-0.357894
C52	C	1.025555	0.287805	-0.000002
N53	N	0.984037	0.181091	0.000001
H54	H	1.527029	0.430383	0.354162
