data_functionalizedCrystal
_audit_creation_method	'MofGen! by Chris Wilmer'
_symmetry_space_group_name_H-M	'P1'
_symmetry_Int_Tables_number	1
_symmetry_cell_setting	triclinic
loop_
_symmetry_equiv_pos_as_xyz
  x,y,z
_cell_length_a	17.699083
_cell_length_b	14.971486
_cell_length_c	14.048226
_cell_angle_alpha	90.006640
_cell_angle_beta	90.000433
_cell_angle_gamma	83.448572
loop_
_atom_site_label
_atom_site_type_symbol
_atom_site_fract_x
_atom_site_fract_y
_atom_site_fract_z
O1	O	-1.004356	-0.113112	-0.079028
O2	O	-0.504356	0.386888	0.420972
O3	O	-0.784014	-0.127829	-0.079059
O4	O	-0.284014	0.372171	0.420941
O5	O	-0.900091	0.009750	-0.079036
O6	O	-0.400091	0.509750	0.420964
O7	O	-0.888279	-0.250691	-0.079051
O8	O	-0.388279	0.249309	0.420949
O9	O	-0.900077	0.009758	0.079286
O10	O	-0.400077	0.509758	0.579286
O11	O	-0.784000	-0.127820	0.079262
O12	O	-0.284000	0.372180	0.579262
O13	O	-1.004342	-0.113104	0.079294
O14	O	-0.504342	0.386896	0.579294
Zn15	Zn	-0.894169	-0.120461	0.104415
Zn16	Zn	-0.394169	0.379539	0.604415
Zn17	Zn	-0.894187	-0.120472	-0.104180
Zn18	Zn	-0.394187	0.379528	0.395820
O19	O	-0.888265	-0.250683	0.079270
O20	O	-0.388265	0.249317	0.579270
C21	C	-0.755809	-0.127297	0.000098
C22	C	-0.255809	0.372703	0.500098
C23	C	-0.671787	-0.125715	0.000086
C24	C	-0.171787	0.374285	0.500086
C25	C	-1.032547	-0.113636	0.000135
C26	C	-0.532547	0.386364	0.500135
C27	C	-1.116569	-0.115218	0.000140
C28	C	-0.616569	0.384782	0.500140
C29	C	-0.623365	-0.206471	0.000082
C30	C	-0.123365	0.293529	0.500082
C31	C	-0.544418	-0.204979	0.000094
C32	C	-0.044418	0.295021	0.500094
C33	C	-0.513894	-0.122731	0.000104
C34	C	-0.013894	0.377269	0.500104
C35	C	-0.562323	-0.041969	0.000111
C36	C	-0.062323	0.458031	0.500111
C37	C	-0.641268	-0.043462	0.000106
C38	C	-0.141268	0.456538	0.500106
C39	C	-0.243945	-0.035947	0.000135
C40	C	0.256055	0.464053	0.500135
C41	C	-0.164993	-0.034461	0.000138
C42	C	0.335007	0.465539	0.500138
C43	C	-0.147094	-0.197465	0.000124
C44	C	0.352906	0.302535	0.500124
C45	C	-0.226040	-0.198958	0.000118
C46	C	0.273960	0.301042	0.500118
C47	C	-0.274461	-0.118196	0.000130
C48	C	0.225539	0.381804	0.500130
C49	C	-0.360064	-0.119815	0.000119
C50	C	0.139936	0.380185	0.500119
C51	C	-0.428293	-0.121111	0.000109
C52	C	0.071707	0.378889	0.500109
C53	C	-0.899556	0.043077	0.000125
C54	C	-0.399556	0.543077	0.500125
C55	C	-0.897973	0.142368	0.000124
C56	C	-0.397973	0.642368	0.500124
C57	C	-0.888801	-0.284010	0.000108
C58	C	-0.388801	0.215990	0.500108
C59	C	-0.890383	-0.383301	0.000103
C60	C	-0.390383	0.116699	0.500103
N61	N	-0.894162	-0.120453	0.246776
N62	N	-0.394162	0.379547	0.746776
C63	C	-0.966165	0.199828	0.000134
C64	C	-0.466165	0.699828	0.500134
C65	C	-0.964673	0.293123	0.000124
C66	C	-0.464673	0.793123	0.500124
C67	C	-0.894988	0.328955	0.000111
C68	C	-0.394988	0.828955	0.500111
C69	C	-0.826791	0.271488	0.000098
C70	C	-0.326791	0.771488	0.500098
C71	C	-0.828284	0.178196	0.000101
C72	C	-0.328284	0.678196	0.500101
C73	C	-0.823685	0.465940	0.000094
C74	C	-0.323685	0.965940	0.500094
C75	C	-0.822192	0.559239	0.000093
C76	C	-0.322192	1.059239	0.500093
C77	C	-0.960074	0.580867	0.000117
C78	C	-0.460074	1.080867	0.500117
C79	C	-0.961566	0.487574	0.000120
C80	C	-0.461566	0.987574	0.500120
C81	C	-0.893369	0.430114	0.000109
C82	C	-0.393369	0.930114	0.500109
N83	N	-0.894200	-0.120472	-0.246541
N84	N	-0.394200	0.379528	0.253459
C85	C	-0.945577	-0.059559	0.296604
C86	C	-0.445577	0.440441	0.796604
C87	C	-0.945582	-0.059558	0.396262
C88	C	-0.445582	0.440442	0.896262
C89	C	-0.894175	-0.120457	0.446089
C90	C	-0.394175	0.379543	0.946089
C91	C	-0.842755	-0.181355	0.396254
C92	C	-0.342755	0.318645	0.896254
C93	C	-0.842746	-0.181350	0.296598
C94	C	-0.342746	0.318650	0.796598
C95	C	-0.842776	-0.181361	0.603968
C96	C	-0.342776	0.318639	1.103968
C97	C	-0.842785	-0.181367	0.703631
C98	C	-0.342785	0.318633	1.203631
C99	C	-0.945612	-0.059569	0.703632
C100	C	-0.445612	0.440431	1.203632
C101	C	-0.945604	-0.059565	0.603976
C102	C	-0.445604	0.440435	1.103976
C103	C	-0.894184	-0.120464	0.554148
C104	C	-0.394184	0.379536	1.054148
H105	H	-0.648210	-0.273447	0.000073
H106	H	-0.148210	0.226553	0.500073
H107	H	-0.800924	-0.230957	0.744195
H108	H	-0.300924	0.269043	1.244195
H109	H	-0.504995	-0.270739	0.000089
H110	H	-0.004995	0.229261	0.500089
H111	H	-0.680693	0.022298	0.000109
H112	H	-0.180693	0.522298	0.500109
H113	H	-1.020202	0.339903	0.000135
H114	H	-0.520202	0.839903	0.500135
H115	H	-0.768151	0.419157	0.000082
H116	H	-0.268151	0.919157	0.500082
H117	H	-0.987467	-0.009980	0.563407
H118	H	-0.487467	0.490020	1.063407
H119	H	-0.800902	-0.230949	0.563401
H120	H	-0.300902	0.269051	1.063401
H121	H	-0.283361	0.029814	0.000146
H122	H	0.216639	0.529814	0.500146
H123	H	-0.800894	-0.230937	0.436829
H124	H	-0.300894	0.269063	0.936829
H125	H	-0.800878	-0.230936	0.256029
H126	H	-0.300878	0.269064	0.756029
H127	H	-0.250887	-0.265933	0.000105
H128	H	0.249113	0.234067	0.500105
H129	H	-0.537465	0.024999	0.000133
H130	H	-0.037465	0.524999	0.500133
H131	H	-1.022910	0.170661	0.000151
H132	H	-0.522910	0.670661	0.500151
H133	H	-0.987479	-0.009983	0.744208
H134	H	-0.487479	0.490017	1.244208
H135	H	-0.107660	-0.263225	0.000119
H136	H	0.392340	0.236775	0.500119
H137	H	-1.018310	0.458403	0.000138
H138	H	-0.518310	0.958403	0.500138
H139	H	-1.015603	0.627656	0.000124
H140	H	-0.515603	1.127656	0.500124
H141	H	-0.765448	0.588411	0.000097
H142	H	-0.265448	1.088411	0.500097
H143	H	-0.770052	0.300671	0.000081
H144	H	-0.270052	0.800671	0.500081
H145	H	-0.140145	0.032519	0.000148
H146	H	0.359855	0.532519	0.500148
H147	H	-0.772754	0.131412	0.000092
H148	H	-0.272754	0.631412	0.500092
H149	H	-0.987441	-0.009971	0.256041
H150	H	-0.487441	0.490029	0.756041
H151	H	-0.987447	-0.009973	0.436832
H152	H	-0.487447	0.490027	0.936832
