data_functionalizedCrystal
_audit_creation_method	'MofGen! by Chris Wilmer'
_symmetry_space_group_name_H-M	'P1'
_symmetry_Int_Tables_number	1
_symmetry_cell_setting	triclinic
loop_
_symmetry_equiv_pos_as_xyz
  x,y,z
_cell_length_a	12.759394
_cell_length_b	16.120566
_cell_length_c	12.759387
_cell_angle_alpha	92.923274
_cell_angle_beta	89.968340
_cell_angle_gamma	92.888927
loop_
_atom_site_label
_atom_site_type_symbol
_atom_site_fract_x
_atom_site_fract_y
_atom_site_fract_z
Zn1	Zn	-0.499747	-1.274636	-0.675508
Zn2	Zn	0.000253	-0.774636	-0.175508
Zn3	Zn	-0.675458	-1.274549	-0.499820
Zn4	Zn	-0.175458	-0.774549	0.000180
Zn5	Zn	-0.490880	-1.135210	-0.490929
Zn6	Zn	0.009120	-0.635210	0.009071
Zn7	Zn	-0.666465	-1.135204	-0.666548
Zn8	Zn	-0.166465	-0.635204	-0.166548
O9	O	-0.583137	-1.204900	-0.583201
O10	O	-0.083137	-0.704900	-0.083201
O11	O	-0.530529	-1.391292	-0.659673
O12	O	-0.030529	-0.891292	-0.159673
O13	O	-0.651026	-1.256032	-0.351617
O14	O	-0.151026	-0.756032	0.148383
O15	O	-0.345038	-1.153744	-0.515442
O16	O	0.154962	-0.653744	-0.015442
O17	O	-0.659624	-1.391228	-0.530596
O18	O	-0.159624	-0.891228	-0.030596
O19	O	-0.351552	-1.256180	-0.651051
O20	O	0.148448	-0.756180	-0.151051
O21	O	-0.515418	-1.153660	-0.345085
O22	O	-0.015418	-0.653660	0.154915
O23	O	-0.506698	-1.018542	-0.506754
O24	O	-0.006698	-0.518542	-0.006754
O25	O	-0.644296	-1.153733	-0.814760
O26	O	-0.144296	-0.653733	-0.314760
O27	O	-0.635699	-1.018538	-0.635781
O28	O	-0.135699	-0.518538	-0.135781
O29	O	-0.521809	-1.256174	-0.821342
O30	O	-0.021809	-0.756174	-0.321342
O31	O	-0.821284	-1.256026	-0.521908
O32	O	-0.321284	-0.756026	-0.021908
O33	O	-0.814677	-1.153649	-0.644403
O34	O	-0.314677	-0.653649	-0.144403
C35	C	-0.856102	-1.204850	-0.583172
C36	C	-0.356102	-0.704850	-0.083172
C37	C	-0.972882	-1.204905	-0.583200
C38	C	-0.472882	-0.704905	-0.083200
C39	C	-0.569261	-0.988289	-0.569331
C40	C	-0.069261	-0.488289	-0.069331
C41	C	-0.563350	-0.895623	-0.563423
C42	C	-0.063350	-0.395623	-0.063423
C43	C	-0.979714	-1.311589	-0.455752
C44	C	-0.479714	-0.811589	0.044248
C45	C	-1.037992	-1.364953	-0.392042
C46	C	-0.537992	-0.864953	0.107958
C47	C	-1.147717	-1.365002	-0.392074
C48	C	-0.647717	-0.865002	0.107926
C49	C	-1.199165	-1.311683	-0.455825
C50	C	-0.699165	-0.811683	0.044175
C51	C	-1.140887	-1.258319	-0.519535
C52	C	-0.640887	-0.758319	-0.019535
C53	C	-1.031160	-1.258274	-0.519494
C54	C	-0.531160	-0.758274	-0.019494
C55	C	-1.134056	-1.151640	-0.646987
C56	C	-0.634056	-0.651640	-0.146987
C57	C	-1.024331	-1.151585	-0.646951
C58	C	-0.524331	-0.651585	-0.146951
C59	C	-1.185505	-1.098321	-0.710738
C60	C	-0.685505	-0.598321	-0.210738
C61	C	-1.127226	-1.044951	-0.774444
C62	C	-0.627226	-0.544951	-0.274444
C63	C	-1.017495	-1.044904	-0.774409
C64	C	-0.517495	-0.544904	-0.274409
C65	C	-0.966053	-1.098221	-0.710661
C66	C	-0.466053	-0.598221	-0.210661
C67	C	-0.552534	-0.725959	-0.552644
C68	C	-0.052534	-0.225959	-0.052644
C69	C	-0.613831	-0.684681	-0.613766
C70	C	-0.113831	-0.184681	-0.113766
C71	C	-0.607813	-0.590274	-0.607769
C72	C	-0.107813	-0.090274	-0.107769
C73	C	-0.558551	-0.820374	-0.558640
C74	C	-0.058551	-0.320374	-0.058640
C75	C	-0.309109	-1.204973	-0.583254
C76	C	0.190891	-0.704973	-0.083254
C77	C	-0.192334	-1.205004	-0.583277
C78	C	0.307666	-0.705004	-0.083277
C79	C	-0.583039	-1.204963	-0.857239
C80	C	-0.083039	-0.704963	-0.357239
C81	C	-0.582996	-1.204990	-0.974017
C82	C	-0.082996	-0.704990	-0.474017
C83	C	-0.597072	-0.422356	-0.597108
C84	C	-0.097072	0.077644	-0.097108
C85	C	-0.603018	-0.515023	-0.602991
C86	C	-0.103018	-0.015023	-0.102991
C87	C	-0.455460	-1.311668	-0.980892
C88	C	0.044540	-0.811668	-0.480892
C89	C	-0.391676	-1.365019	-1.039190
C90	C	0.108324	-0.865019	-0.539190
C91	C	-0.391639	-1.365039	-1.148913
C92	C	0.108361	-0.865039	-0.648913
C93	C	-0.455390	-1.311701	-1.200340
C94	C	0.044610	-0.811701	-0.700340
C95	C	-0.519174	-1.258350	-1.142041
C96	C	-0.019174	-0.758350	-0.642041
C97	C	-0.519206	-1.258338	-1.032316
C98	C	-0.019206	-0.758338	-0.532316
C99	C	-0.646703	-1.151669	-1.135166
C100	C	-0.146703	-0.651669	-0.635166
C101	C	-0.646747	-1.151651	-1.025443
C102	C	-0.146747	-0.651651	-0.525443
C103	C	-0.710454	-1.098331	-1.186592
C104	C	-0.210454	-0.598331	-0.686592
C105	C	-0.774244	-1.044983	-1.128294
C106	C	-0.274244	-0.544983	-0.628294
C107	C	-0.774280	-1.044965	-1.018564
C108	C	-0.274280	-0.544965	-0.518564
C109	C	-0.710531	-1.098301	-0.967145
C110	C	-0.210531	-0.598301	-0.467145
C111	C	-0.583163	-1.204885	-0.310233
C112	C	-0.083163	-0.704885	0.189767
C113	C	-0.582920	-1.205020	-0.193465
C114	C	-0.082920	-0.705020	0.306535
H115	H	-0.890370	-1.311544	-0.455706
H116	H	-0.390370	-0.811544	0.044294
C117	C	-0.845359	-1.098172	-0.710627
C118	C	-0.345359	-0.598172	-0.210627
H119	H	-0.818016	-1.058753	-0.757697
H120	H	-0.318016	-0.558753	-0.257697
H121	H	-0.823914	-1.151957	-0.732277
H122	H	-0.323914	-0.651957	-0.232277
H123	H	-0.819686	-1.083761	-0.641883
H124	H	-0.319686	-0.583761	-0.141883
H125	H	-0.339694	-1.408477	-1.196380
H126	H	0.160306	-0.908477	-0.696380
C127	C	-1.319860	-1.311744	-0.455876
C128	C	-0.819860	-0.811744	0.044124
H129	H	-1.342154	-1.272352	-0.502970
H130	H	-0.842154	-0.772352	-0.002970
H131	H	-1.343845	-1.297367	-0.387154
H132	H	-0.843845	-0.797367	0.112846
H133	H	-1.348041	-1.365555	-0.477559
H134	H	-0.848041	-0.865555	0.022441
H135	H	-0.670828	-0.720243	-0.670599
H136	H	-0.170828	-0.220243	-0.170599
C137	C	-0.475549	-0.677924	-0.475865
C138	C	0.024451	-0.177924	0.024135
H139	H	-0.481566	-0.619855	-0.481851
H140	H	0.018434	-0.119855	0.018149
H141	H	-0.405861	-0.692156	-0.492235
H142	H	0.094139	-0.192156	0.007765
H143	H	-0.491745	-0.692110	-0.406129
H144	H	0.008255	-0.192110	0.093871
H145	H	-0.826139	-1.001555	-1.170174
H146	H	-0.326139	-0.501555	-0.670174
H147	H	-1.169125	-1.001547	-0.826350
H148	H	-0.669125	-0.501547	-0.326350
C149	C	-0.455502	-1.311652	-0.860200
C150	C	0.044498	-0.811652	-0.360200
H151	H	-0.408398	-1.351054	-0.837922
H152	H	0.091602	-0.851054	-0.337922
H153	H	-0.524233	-1.326038	-0.836287
H154	H	-0.024233	-0.826038	-0.336287
H155	H	-0.433879	-1.257851	-0.831932
H156	H	0.066121	-0.757851	-0.331932
H157	H	-0.339770	-1.408445	-0.997307
H158	H	0.160230	-0.908445	-0.497307
C159	C	-0.710568	-1.098279	-0.846453
C160	C	-0.210568	-0.598279	-0.346453
H161	H	-0.757687	-1.058870	-0.819094
H162	H	-0.257687	-0.558870	-0.319094
H163	H	-0.641852	-1.083885	-0.820727
H164	H	-0.141852	-0.583885	-0.320727
H165	H	-0.732205	-1.152072	-0.825078
H166	H	-0.232205	-0.652072	-0.325078
H167	H	-1.274849	-1.098368	-0.710764
H168	H	-0.774849	-0.598368	-0.210764
C169	C	-0.455343	-1.311720	-1.321031
C170	C	0.044657	-0.811720	-0.821031
H171	H	-0.408228	-1.351134	-1.348386
H172	H	0.091772	-0.851134	-0.848386
H173	H	-0.433717	-1.257929	-1.342405
H174	H	0.066283	-0.757929	-0.842405
H175	H	-0.524060	-1.326125	-1.346763
H176	H	-0.024060	-0.826125	-0.846763
H177	H	-0.710415	-1.098348	-1.275935
H178	H	-0.210415	-0.598348	-0.775935
C179	C	-0.844463	-0.986293	-0.954444
C180	C	-0.344463	-0.486293	-0.454444
H181	H	-0.882431	-0.954542	-1.000791
H182	H	-0.382431	-0.454542	-0.500791
H183	H	-0.801976	-0.949970	-0.909307
H184	H	-0.301976	-0.449970	-0.409307
H185	H	-0.892303	-1.018180	-0.913692
H186	H	-0.392303	-0.518180	-0.413692
H187	H	-1.195167	-1.408460	-0.340201
H188	H	-0.695167	-0.908460	0.159799
C189	C	-0.981397	-1.423600	-0.321921
C190	C	-0.481397	-0.923600	0.178079
H191	H	-0.907702	-1.415925	-0.331017
H192	H	-0.407702	-0.915925	0.168983
H193	H	-1.002893	-1.479619	-0.340937
H194	H	-0.502893	-0.979619	0.159063
H195	H	-0.998672	-1.411424	-0.250541
H196	H	-0.498672	-0.911424	0.249459
H197	H	-0.970051	-1.001451	-0.826294
H198	H	-0.470051	-0.501451	-0.326294
