data_functionalizedCrystal
_audit_creation_method	'MofGen! by Chris Wilmer'
_symmetry_space_group_name_H-M	'P1'
_symmetry_Int_Tables_number	1
_symmetry_cell_setting	triclinic
loop_
_symmetry_equiv_pos_as_xyz
  x,y,z
_cell_length_a	16.959447
_cell_length_b	14.908783
_cell_length_c	14.908520
_cell_angle_alpha	90.162279
_cell_angle_beta	86.730174
_cell_angle_gamma	93.283394
loop_
_atom_site_label
_atom_site_type_symbol
_atom_site_fract_x
_atom_site_fract_y
_atom_site_fract_z
Zn1	Zn	-0.400443	1.353893	0.437243
Zn2	Zn	-0.276307	1.345114	0.587605
Zn3	Zn	-0.275458	1.203538	0.428600
Zn4	Zn	-0.415616	1.194828	0.578889
O5	O	-0.341956	1.274343	0.508084
O6	O	-0.377982	1.478548	0.464454
O7	O	-0.165587	1.326304	0.566543
O8	O	-0.285332	1.230803	0.303924
O9	O	-0.286780	1.472098	0.574924
O10	O	-0.377158	1.341268	0.310274
O11	O	-0.164962	1.222290	0.449723
O12	O	-0.300044	1.076563	0.441272
O13	O	-0.524211	1.215957	0.560069
O14	O	-0.403018	1.070164	0.551688
O15	O	-0.513064	1.332822	0.456002
O16	O	-0.301492	1.317858	0.712272
O17	O	-0.403842	1.207444	0.705868
C18	C	-0.353086	1.040740	0.494597
C19	C	-0.357867	0.940802	0.488848
C20	C	-0.354422	1.260778	0.741696
C21	C	-0.359777	1.255056	0.841640
C22	C	-0.548119	1.274397	0.508027
C23	C	-0.635973	1.274420	0.508003
C24	C	-0.683051	1.213586	0.562175
C25	C	-0.671446	1.335271	0.453802
C26	C	-0.753989	1.335291	0.453774
C27	C	-0.801068	1.274457	0.507946
C28	C	-0.765603	1.213602	0.562147
C29	C	-0.789460	1.396139	0.399568
C30	C	-0.872009	1.396161	0.399536
C31	C	-0.919089	1.335330	0.453714
C32	C	-0.883619	1.274474	0.507917
C33	C	-0.930697	1.213640	0.562089
C34	C	-0.895229	1.152787	0.616298
C35	C	-0.812683	1.152772	0.616324
C36	C	-1.001635	1.335345	0.453688
C37	C	-1.013249	1.213656	0.562061
C38	C	-0.136589	1.274345	0.508079
C39	C	-0.048714	1.274511	0.507860
C40	C	-0.330783	1.508858	0.521625
C41	C	-0.326022	1.608795	0.527396
C42	C	-0.412062	1.803304	0.423209
C43	C	-0.407591	1.897204	0.428628
C44	C	-0.312613	1.890494	0.543656
C45	C	-0.317084	1.796595	0.538237
C46	C	-0.366809	1.753004	0.478011
C47	C	-0.371276	1.659103	0.472588
C48	C	-0.276303	1.652395	0.587620
C49	C	-0.271832	1.746294	0.593039
C50	C	-0.329457	1.287986	0.273562
C51	C	-0.324131	1.293800	0.173623
C52	C	-0.263340	1.359399	1.036061
C53	C	-0.268370	1.354026	1.129968
C54	C	-0.374869	1.238944	1.123364
C55	C	-0.369839	1.244317	1.029457
C56	C	-0.314073	1.304545	0.985809
C57	C	-0.309040	1.309912	0.891899
C58	C	-0.415542	1.194835	0.885297
C59	C	-0.420571	1.189463	0.979204
H60	H	-0.933571	1.103251	0.660400
O61	O	-1.058861	1.154474	0.614710
C62	C	-1.061661	1.033817	0.722251
C63	C	-1.009912	1.100777	0.662655
H64	H	-1.022107	0.990398	0.761045
H65	H	-1.100324	0.989143	0.678286
H66	H	-1.100872	1.072390	0.771593
H67	H	-0.970654	1.062277	0.613306
H68	H	-0.971302	1.145450	0.706676
O69	O	-0.743615	1.455210	0.347048
C70	C	-0.611298	1.509113	0.299074
C71	C	-0.663130	1.442166	0.358599
H72	H	-0.546216	1.498578	0.308378
H73	H	-0.624874	1.580709	0.319061
H74	H	-0.624442	1.497571	0.225658
H75	H	-0.650016	1.453626	0.432032
H76	H	-0.649545	1.370593	0.338537
H77	H	-0.900880	1.445712	0.355397
H78	H	-0.783797	1.103228	0.660457
O79	O	-0.464791	1.141640	0.836347
C80	C	-0.504206	1.098866	0.688750
C81	C	-0.448401	1.159177	0.744077
H82	H	-0.490964	1.113010	0.614138
H83	H	-0.568205	1.113559	0.707993
H84	H	-0.494727	1.025324	0.703166
H85	H	-0.457810	1.232739	0.729689
H86	H	-0.384423	1.144408	0.724825
H87	H	-0.420276	1.189915	1.158919
O88	O	-0.460243	1.760921	0.364607
C89	C	-0.469459	1.661922	0.237126
C90	C	-0.414802	1.709883	0.303421
H91	H	-0.432744	1.620632	0.187652
H92	H	-0.501016	1.713969	0.198816
H93	H	-0.515097	1.615609	0.275879
H94	H	-0.369120	1.756193	0.264737
H95	H	-0.383303	1.657787	0.341731
O96	O	-0.451575	1.945932	0.375300
C97	C	-0.546291	1.942671	0.260678
C98	C	-0.496504	1.887379	0.321004
H99	H	-0.582641	1.895354	0.216778
H100	H	-0.505444	1.989338	0.216144
H101	H	-0.587690	1.984265	0.304504
H102	H	-0.455100	1.845732	0.277247
H103	H	-0.537398	1.840769	0.365543
O104	O	-0.648731	1.154453	0.614926
C105	C	-0.668966	1.033749	0.722405
C106	C	-0.707937	1.100675	0.662716
H107	H	-0.716816	0.990239	0.761044
H108	H	-0.630900	1.072259	0.771871
H109	H	-0.630321	0.989159	0.678434
H110	H	-0.746620	1.145282	0.706615
H111	H	-0.745955	1.062109	0.613245
H112	H	-0.633110	1.384796	0.409694
H113	H	-1.030510	1.384884	0.409545
H114	H	-0.465977	1.140429	1.014756
H115	H	-0.411761	1.623612	0.423544
O116	O	-0.219209	1.407431	1.178815
C117	C	-0.208600	1.522784	1.291730
C118	C	-0.264357	1.462348	1.236465
H119	H	-0.245079	1.567187	1.338366
H120	H	-0.167911	1.566815	1.244424
H121	H	-0.171524	1.479040	1.333357
H122	H	-0.301483	1.506024	1.194832
H123	H	-0.304992	1.418312	1.283818
H124	H	-0.272132	1.926003	0.592692
H125	H	-0.239456	1.611430	0.632246
O126	O	-0.223544	1.788787	0.651461
C127	C	-0.174597	1.930468	0.710827
C128	C	-0.229304	1.882464	0.644611
H129	H	-0.179248	2.006212	0.705325
H130	H	-0.110881	1.912978	0.693982
H131	H	-0.193205	1.907738	0.782248
H132	H	-0.210768	1.905167	0.573168
H133	H	-0.293008	1.899953	0.661533
O134	O	-0.254849	1.368491	0.849641
C135	C	-0.149717	1.482033	0.866105
C136	C	-0.211065	1.415744	0.914074
H137	H	-0.114290	1.520240	0.918177
H138	H	-0.181405	1.531596	0.824810
H139	H	-0.108001	1.443282	0.819804
H140	H	-0.252798	1.454419	0.960421
H141	H	-0.179324	1.366181	0.955313
O142	O	-0.209145	1.417970	0.993799
C143	C	-0.103996	1.531493	1.010253
C144	C	-0.165351	1.465217	1.058228
H145	H	-0.068561	1.569696	1.062322
H146	H	-0.135678	1.581062	0.968957
H147	H	-0.062288	1.492733	0.963951
H148	H	-0.207077	1.503902	1.104574
H149	H	-0.133617	1.415649	1.099468
