data_functionalizedCrystal
_audit_creation_method	'MofGen! by Chris Wilmer'
_symmetry_space_group_name_H-M	'P1'
_symmetry_Int_Tables_number	1
_symmetry_cell_setting	triclinic
loop_
_symmetry_equiv_pos_as_xyz
  x,y,z
_cell_length_a	17.019238
_cell_length_b	19.288865
_cell_length_c	17.766277
_cell_angle_alpha	90.011603
_cell_angle_beta	86.108892
_cell_angle_gamma	96.741059
loop_
_atom_site_label
_atom_site_type_symbol
_atom_site_fract_x
_atom_site_fract_y
_atom_site_fract_z
O1	O	1.046399	-0.088395	-0.130463
O2	O	1.546399	0.411605	0.369537
O3	O	0.816687	-0.099700	-0.115568
O4	O	1.316687	0.400300	0.384432
O5	O	0.938181	0.007072	-0.123431
O6	O	1.438181	0.507072	0.376569
O7	O	0.924906	-0.195167	-0.122600
O8	O	1.424906	0.304833	0.377400
O9	O	0.938159	0.007077	0.001759
O10	O	1.438159	0.507077	0.501759
O11	O	0.816666	-0.099695	0.009622
O12	O	1.316666	0.400305	0.509622
O13	O	1.046378	-0.088390	-0.005273
O14	O	1.546378	0.411610	0.494727
Cu15	Cu	0.931520	-0.094042	0.013605
Cu16	Cu	1.431520	0.405958	0.513605
Cu17	Cu	0.931545	-0.094048	-0.134446
Cu18	Cu	1.431545	0.405952	0.365554
O19	O	0.924884	-0.195161	0.002590
O20	O	1.424884	0.304839	0.502590
C21	C	0.787288	-0.099273	-0.051068
C22	C	1.287288	0.400727	0.448932
C23	C	0.699720	-0.097997	-0.045389
C24	C	1.199720	0.402003	0.454611
C25	C	0.937743	0.032951	-0.060806
C26	C	1.437743	0.532951	0.439194
C27	C	0.936461	0.110057	-0.060716
C28	C	1.436461	0.610057	0.439284
C29	C	1.075777	-0.088817	-0.069775
C30	C	1.575777	0.411183	0.430225
C31	C	1.163345	-0.090093	-0.075459
C32	C	1.663345	0.409907	0.424541
C33	C	1.658599	-0.097396	-0.110965
C34	C	2.158599	0.402604	0.389035
C35	C	1.576322	-0.096186	-0.105633
C36	C	2.076322	0.403814	0.394367
C37	C	1.535167	-0.095573	-0.034725
C38	C	2.035167	0.404427	0.465275
C39	C	1.576294	-0.096177	0.030856
C40	C	2.076294	0.403823	0.530856
C41	C	1.658569	-0.097391	0.025523
C42	C	2.158569	0.402609	0.525523
C43	C	1.286747	-0.091911	-0.015210
C44	C	1.786747	0.408089	0.484790
C45	C	1.204466	-0.090694	-0.009883
C46	C	1.704466	0.409306	0.490117
C47	C	1.204499	-0.090705	-0.146373
C48	C	1.704499	0.409295	0.353627
C49	C	1.286777	-0.091915	-0.151699
C50	C	1.786777	0.408085	0.348301
C51	C	1.327896	-0.092522	-0.086118
C52	C	1.827896	0.407478	0.413882
C53	C	1.451066	-0.094335	-0.029273
C54	C	1.951066	0.405665	0.470727
C55	C	1.411994	-0.093766	-0.091570
C56	C	1.911994	0.406234	0.408430
C57	C	0.925322	-0.221041	-0.060037
C58	C	1.425322	0.278959	0.439963
C59	C	0.926604	-0.298147	-0.060131
C60	C	1.426604	0.201853	0.439869
N61	N	0.931508	-0.094037	0.117736
N62	N	1.431508	0.405963	0.617736
C63	C	1.007747	0.154634	-0.065335
C64	C	1.507747	0.654634	0.434665
C65	C	1.006543	0.227084	-0.065269
C66	C	1.506543	0.727084	0.434731
C67	C	0.934047	0.254952	-0.060569
C68	C	1.434047	0.754952	0.439431
C69	C	0.862751	0.210365	-0.055954
C70	C	1.362751	0.710365	0.444046
C71	C	0.863958	0.137917	-0.056028
C72	C	1.363958	0.637917	0.443972
C73	C	0.877050	0.363337	-0.013022
C74	C	1.377050	0.863337	0.486978
C75	C	0.875846	0.435783	-0.012944
C76	C	1.375846	0.935783	0.487056
C77	C	0.930323	0.478404	-0.060344
C78	C	1.430323	0.978404	0.439656
C79	C	0.986016	0.448571	-0.107814
C80	C	1.486016	0.948571	0.392186
C81	C	0.987223	0.376123	-0.107887
C82	C	1.487223	0.876123	0.392113
C83	C	0.932731	0.333508	-0.060488
C84	C	1.432731	0.833508	0.439512
C85	C	1.000308	0.601539	-0.064892
C86	C	1.500308	1.101539	0.435108
C87	C	0.999100	0.673989	-0.064830
C88	C	1.499100	1.173989	0.435170
C89	C	0.855307	0.657269	-0.055508
C90	C	1.355307	1.157269	0.444492
C91	C	0.856517	0.584821	-0.055577
C92	C	1.356517	1.084821	0.444423
C93	C	0.929019	0.556960	-0.060266
C94	C	1.429019	1.056960	0.439734
N95	N	0.931563	-0.094048	-0.238578
N96	N	1.431563	0.405952	0.261422
C97	C	0.985323	-0.046781	0.153641
C98	C	1.485323	0.453219	0.653641
C99	C	0.985327	-0.046778	0.232442
C100	C	1.485327	0.453222	0.732442
C101	C	0.931525	-0.094042	0.275336
C102	C	1.431525	0.405958	0.775336
C103	C	0.877700	-0.141301	0.239423
C104	C	1.377700	0.358699	0.739423
C105	C	0.877692	-0.141299	0.160623
C106	C	1.377692	0.358701	0.660623
C107	C	0.920964	-0.157312	0.400849
C108	C	1.420964	0.342688	0.900849
C109	C	0.920978	-0.157316	0.479647
C110	C	1.420978	0.342684	0.979647
C111	C	0.931546	-0.094051	0.518381
C112	C	1.431546	0.405949	1.018381
C113	C	0.942117	-0.030779	0.478306
C114	C	1.442117	0.469221	0.978306
C115	C	0.942108	-0.030776	0.399506
C116	C	1.442108	0.469224	0.899506
C117	C	0.931527	-0.094050	0.360781
C118	C	1.431527	0.405950	0.860781
C119	C	0.985368	-0.046788	0.639730
C120	C	1.485368	0.453212	1.139730
C121	C	0.985367	-0.046784	0.718534
C122	C	1.485367	0.453216	1.218534
C123	C	0.877744	-0.141313	0.725513
C124	C	1.377744	0.358687	1.225513
C125	C	0.877741	-0.141311	0.646711
C126	C	1.377741	0.358689	1.146711
C127	C	0.931557	-0.094049	0.603824
C128	C	1.431557	0.405951	1.103824
H129	H	1.692102	-0.097893	-0.168706
H130	H	2.192102	0.402107	0.331294
H131	H	1.029187	-0.008299	0.747767
H132	H	1.529187	0.491701	1.247767
C133	C	1.077526	0.723026	-0.069907
C134	C	1.577526	1.223026	0.430093
N135	N	1.136598	0.759960	-0.073728
N136	N	1.636598	1.259960	0.426272
C137	C	0.818597	-0.193347	0.607211
C138	C	1.318597	0.306653	1.107211
N139	N	0.774064	-0.232558	0.577460
N140	N	1.274064	0.267442	1.077460
C141	C	0.783006	0.241022	-0.050778
C142	C	1.283006	0.741022	0.449222
N143	N	0.722939	0.264112	-0.046880
N144	N	1.222939	0.764112	0.453120
C145	C	1.159198	-0.090017	0.068125
C146	C	1.659198	0.409983	0.568125
N147	N	1.125102	-0.089505	0.126878
N148	N	1.625102	0.410495	0.626878
H149	H	1.320216	-0.092400	0.038191
H150	H	1.820216	0.407600	0.538191
C151	C	0.909342	-0.226916	0.523723
C152	C	1.409342	0.273084	1.023723
N153	N	0.900572	-0.279340	0.556919
N154	N	1.400572	0.220660	1.056919
C155	C	0.953740	0.038819	0.520907
C156	C	1.453740	0.538819	1.020907
N157	N	0.962496	0.091238	0.552997
N158	N	1.462496	0.591238	1.052997
C159	C	0.818523	-0.193316	0.121125
C160	C	1.318523	0.306684	0.621125
N161	N	0.773969	-0.232507	0.091374
N162	N	1.273969	0.267493	0.591374
H163	H	1.032569	0.351837	-0.146540
H164	H	1.532569	0.851837	0.353460
H165	H	1.171011	-0.090212	-0.199765
H166	H	1.671011	0.409788	0.300235
H167	H	0.796280	0.679959	-0.051684
H168	H	1.296280	1.179959	0.448316
H169	H	1.445505	-0.094269	-0.149303
H170	H	1.945505	0.405731	0.350697
H171	H	0.912344	-0.208834	0.369320
H172	H	1.412344	0.291166	0.869320
C173	C	0.817121	0.316460	0.039129
C174	C	1.317121	0.816460	0.539129
N175	N	0.771984	0.281154	0.078408
N176	N	1.271984	0.781154	0.578408
H177	H	0.833934	-0.179794	0.760436
H178	H	1.333934	0.320206	1.260436
C179	C	1.703802	-0.098051	0.097662
C180	C	2.203802	0.401949	0.597662
N181	N	1.737870	-0.098549	0.152000
N182	N	2.237870	0.401451	0.652000
C183	C	1.531094	-0.095515	-0.177773
C184	C	2.031094	0.404485	0.322227
N185	N	1.497029	-0.095006	-0.232111
N186	N	1.997029	0.404994	0.267889
C187	C	1.531021	-0.095503	0.108856
C188	C	2.031021	0.404497	0.608856
N189	N	1.496922	-0.094993	0.167608
N190	N	1.996922	0.405007	0.667608
H191	H	1.030376	0.483272	-0.146412
H192	H	1.530376	0.983272	0.353588
C193	C	1.405789	-0.093655	0.048724
C194	C	1.905789	0.406345	0.548724
N195	N	1.371683	-0.093143	0.107472
N196	N	1.871683	0.406857	0.607472
C197	C	1.080062	0.570891	-0.070061
C198	C	1.580062	1.070891	0.429939
N199	N	1.140133	0.547808	-0.073957
N200	N	1.640133	1.047808	0.426043
H201	H	1.066785	0.131956	-0.069155
H202	H	1.566785	0.631956	0.430845
H203	H	1.029186	-0.008302	0.604811
H204	H	1.529186	0.491698	1.104811
C205	C	1.084967	0.276128	-0.070345
C206	C	1.584967	0.776128	0.429655
N207	N	1.144036	0.313066	-0.074166
N208	N	1.644036	0.813066	0.425834
H209	H	0.798467	0.548525	-0.051812
H210	H	1.298467	1.048525	0.448188
H211	H	1.320280	-0.092409	-0.209440
H212	H	1.820280	0.407591	0.290560
H213	H	0.950714	0.020742	0.366880
H214	H	1.450714	0.520742	0.866880
H215	H	0.830494	0.460067	0.025705
H216	H	1.330494	0.960067	0.525705
H217	H	0.833892	-0.179784	0.274351
H218	H	1.333892	0.320216	0.774351
C219	C	0.785533	0.088880	-0.050944
C220	C	1.285533	0.588880	0.449056
N221	N	0.726463	0.051944	-0.047114
N222	N	1.226463	0.551944	0.452886
C223	C	1.044515	0.005215	0.106470
C224	C	1.544515	0.505215	0.606470
N225	N	1.089096	0.044381	0.070940
N226	N	1.589096	0.544381	0.570940
H227	H	1.029151	-0.008296	0.261681
H228	H	1.529151	0.491704	0.761681
