data_functionalizedCrystal
_audit_creation_method	'MofGen! by Chris Wilmer'
_symmetry_space_group_name_H-M	'P1'
_symmetry_Int_Tables_number	1
_symmetry_cell_setting	triclinic
loop_
_symmetry_equiv_pos_as_xyz
  x,y,z
_cell_length_a	12.759401
_cell_length_b	18.101396
_cell_length_c	12.759387
_cell_angle_alpha	90.062388
_cell_angle_beta	89.958684
_cell_angle_gamma	89.961452
loop_
_atom_site_label
_atom_site_type_symbol
_atom_site_fract_x
_atom_site_fract_y
_atom_site_fract_z
Zn1	Zn	1.606315	0.294540	-0.594012
Zn2	Zn	1.606075	0.418465	-0.418328
Zn3	Zn	1.430551	0.294645	-0.418347
Zn4	Zn	1.430537	0.418347	-0.593965
O5	O	1.518370	0.356499	-0.506163
O6	O	1.753304	0.310984	-0.570718
O7	O	1.582697	0.402134	-0.271309
O8	O	1.453973	0.190998	-0.441676
O9	O	1.753128	0.402031	-0.441644
O10	O	1.583106	0.190921	-0.570737
O11	O	1.453740	0.311164	-0.271323
O12	O	1.283528	0.311049	-0.441631
O13	O	1.453949	0.401830	-0.740993
O14	O	1.283518	0.401933	-0.570657
O15	O	1.583092	0.310869	-0.741027
O16	O	1.582683	0.522082	-0.441599
O17	O	1.453716	0.521996	-0.570639
C18	C	1.245402	0.356490	-0.506142
C19	C	1.128626	0.356504	-0.506158
C20	C	1.073786	0.403899	-0.573236
C21	C	0.964062	0.403902	-0.573257
C22	C	0.964027	0.309113	-0.439112
C23	C	1.073749	0.309107	-0.439098
C24	C	1.518201	0.548910	-0.506135
C25	C	1.518225	0.631224	-0.506158
C26	C	1.518411	0.930315	-0.506219
C27	C	1.437462	0.898966	-0.587609
C28	C	1.437089	0.813348	-0.587353
C29	C	1.518319	0.781932	-0.506190
C30	C	1.488292	0.813133	-0.395465
C31	C	1.487758	0.898778	-0.395953
C32	C	1.629569	0.898644	-0.534580
C33	C	1.628929	0.812992	-0.537007
C34	C	1.518268	0.698073	-0.506166
C35	C	1.518459	1.014174	-0.506235
C36	C	1.792403	0.356509	-0.506184
C37	C	1.909179	0.356513	-0.506194
C38	C	1.518546	0.356325	-0.780197
C39	C	1.518621	0.356250	-0.896973
C40	C	1.518531	1.163337	-0.506218
C41	C	1.518505	1.081023	-0.506251
C42	C	1.518254	0.356620	-0.233195
C43	C	1.518383	0.356485	-0.116419
C44	C	1.450935	0.309291	0.048117
C45	C	1.450813	0.309410	-0.061607
C46	C	1.586072	0.403450	-0.061502
C47	C	1.586187	0.403334	0.048220
H48	H	0.919416	0.442495	-0.627880
H49	H	1.641308	0.441576	0.092929
H50	H	1.545401	0.792789	-0.333169
C51	C	1.376360	0.257747	-0.122002
N52	N	1.320279	0.218831	-0.167491
C53	C	1.660174	0.455393	-0.121798
N54	N	1.715910	0.494574	-0.167212
H55	H	0.919333	0.270525	-0.384513
H56	H	1.456061	0.919477	-0.669977
H57	H	1.455881	0.792247	-0.669455
C58	C	1.134076	0.256966	-0.365302
N59	N	1.179515	0.217694	-0.309723
C60	C	1.134146	0.456032	-0.647012
N61	N	1.179606	0.495298	-0.702586
H62	H	1.355571	0.920562	-0.569060
H63	H	1.354704	0.792935	-0.568567
H64	H	1.406501	0.918833	-0.371928
H65	H	1.544158	0.919522	-0.333244
C66	C	1.379683	0.784268	-0.362428
N67	N	1.297875	0.762529	-0.337552
H68	H	1.651571	0.792593	-0.618495
H69	H	1.656928	0.920157	-0.613945
H70	H	1.692442	0.791602	-0.482047
H71	H	1.689880	0.918919	-0.475301
H72	H	1.395918	0.270953	0.092737
