data_functionalizedCrystal
_audit_creation_method	'MofGen! by Chris Wilmer'
_symmetry_space_group_name_H-M	'P1'
_symmetry_Int_Tables_number	1
_symmetry_cell_setting	triclinic
loop_
_symmetry_equiv_pos_as_xyz
  x,y,z
_cell_length_a	19.121102
_cell_length_b	19.121063
_cell_length_c	19.120904
_cell_angle_alpha	94.741613
_cell_angle_beta	90.088173
_cell_angle_gamma	90.126902
loop_
_atom_site_label
_atom_site_type_symbol
_atom_site_fract_x
_atom_site_fract_y
_atom_site_fract_z
Zn1	Zn	1.039579	-0.343506	-0.456040
Zn2	Zn	1.039493	-0.456149	-0.343386
Zn3	Zn	0.927792	-0.333518	-0.333417
Zn4	Zn	0.917325	-0.455677	-0.455570
O5	O	0.981047	-0.397212	-0.397103
O6	O	1.137479	-0.362826	-0.445465
O7	O	1.029020	-0.435899	-0.243797
O8	O	0.947038	-0.236577	-0.345708
O9	O	1.137415	-0.445584	-0.362699
O10	O	1.029167	-0.243915	-0.435798
O11	O	0.946954	-0.345802	-0.236473
O12	O	0.828493	-0.345345	-0.345252
O13	O	0.929198	-0.444780	-0.553899
O14	O	0.820803	-0.435094	-0.434997
O15	O	1.019018	-0.362368	-0.554244
O16	O	1.018870	-0.554352	-0.362243
O17	O	0.929114	-0.554005	-0.444664
C18	C	0.799261	-0.389085	-0.388992
C19	C	0.721490	-0.385626	-0.385539
C20	C	0.680968	-0.430793	-0.430575
C21	C	0.607894	-0.427534	-0.427334
C22	C	0.575344	-0.379110	-0.379053
C23	C	0.615872	-0.333937	-0.334016
C24	C	0.688944	-0.337194	-0.337261
C25	C	0.354913	-0.366933	-0.366924
C26	C	0.281835	-0.363681	-0.363681
C27	C	0.273863	-0.457277	-0.457000
C28	C	0.346937	-0.460532	-0.460238
C29	C	0.387458	-0.415357	-0.415203
C30	C	0.500651	-0.375778	-0.375738
C31	C	0.462149	-0.418686	-0.418523
C32	C	0.972865	-0.579659	-0.404501
C33	C	0.969428	-0.657714	-0.407691
C34	C	1.014577	-0.694545	-0.366317
C35	C	1.011348	-0.767887	-0.369323
C36	C	0.962966	-0.804396	-0.413699
C37	C	0.917815	-0.767560	-0.455078
C38	C	0.921048	-0.694220	-0.452076
C39	C	0.950869	-1.025828	-0.424912
C40	C	0.947638	-1.099173	-0.427909
C41	C	1.041173	-1.099494	-0.342155
C42	C	1.044399	-1.026153	-0.339154
C43	C	0.999250	-0.989323	-0.380535
C44	C	0.959663	-0.879363	-0.416770
C45	C	1.002557	-0.914358	-0.377467
C46	C	1.163544	-0.405372	-0.405246
C47	C	1.241313	-0.408849	-0.408717
C48	C	0.972950	-0.404635	-0.580263
C49	C	0.969500	-0.407799	-0.658315
C50	C	0.989280	-0.214054	-0.389693
C51	C	0.992788	-0.136003	-0.386535
C52	C	1.014640	-0.366379	-0.695165
C53	C	1.011390	-0.369348	-0.768503
C54	C	0.963001	-0.413741	-0.804990
C55	C	0.917856	-0.455162	-0.768135
C56	C	0.921103	-0.452188	-0.694798
C57	C	0.950853	-0.424862	-1.026410
C58	C	0.947610	-0.427833	-1.099752
C59	C	1.041143	-0.342019	-1.100115
C60	C	1.044390	-0.339052	-1.026777
C61	C	0.999242	-0.380470	-0.989928
C62	C	0.959679	-0.416779	-0.879953
C63	C	1.002561	-0.377429	-0.914966
C64	C	0.989156	-0.389769	-0.214655
C65	C	0.992751	-0.386414	-0.136602
H66	H	0.474141	-0.336353	-0.336426
H67	H	1.048113	-0.797871	-0.335631
H68	H	1.048150	-0.335622	-0.798503
H69	H	0.878454	-0.491305	-0.797848
H70	H	0.721937	-0.300410	-0.300591
H71	H	0.878424	-0.797292	-0.491213
H72	H	1.083794	-0.302905	-0.997075
H73	H	1.041956	-0.341281	-0.885255
H74	H	0.488655	-0.458110	-0.457836
C75	C	1.097606	-0.985997	-0.290318
N76	N	1.137674	-0.955750	-0.253525
C77	C	0.246032	-0.310408	-0.310567
N78	N	0.219065	-0.270285	-0.270563
C79	C	0.906448	-0.465605	-0.920095
N80	N	0.866352	-0.502377	-0.950333
C81	C	1.090836	-1.140013	-0.296641
N82	N	1.128245	-1.170531	-0.262359
C83	C	0.901238	-0.985328	-0.470471
N84	N	0.863865	-0.954822	-0.504802
H85	H	1.077899	-0.308298	-1.130125
C86	C	1.067800	-0.654392	-0.317498
N87	N	1.107891	-0.624150	-0.280727
H88	H	0.707464	-0.470228	-0.469888
C89	C	0.871380	-0.653707	-0.497591
N90	N	0.833970	-0.623193	-0.531876
C91	C	0.399477	-0.317243	-0.317380
N92	N	0.433045	-0.279815	-0.280059
C93	C	1.067871	-0.317543	-0.655037
N94	N	1.107964	-0.280755	-0.624814
H95	H	0.908204	-0.463985	-1.129457
H96	H	0.373433	-0.499966	-0.499552
C97	C	0.563323	-0.477235	-0.476864
N98	N	0.529752	-0.514677	-0.514168
C99	C	0.229284	-0.506961	-0.506540
N100	N	0.195707	-0.544383	-0.543858
H101	H	0.884338	-0.485909	-0.664795
C102	C	0.580064	-0.280668	-0.280908
N103	N	0.553095	-0.240546	-0.240905
H104	H	0.914100	-0.458598	-0.996417
H105	H	0.908248	-1.128897	-0.464059
H106	H	1.041952	-0.884631	-0.341339
H107	H	0.920269	-0.909097	-0.452900
