data_functionalizedCrystal
_audit_creation_method	'MofGen! by Chris Wilmer'
_symmetry_space_group_name_H-M	'P1'
_symmetry_Int_Tables_number	1
_symmetry_cell_setting	triclinic
loop_
_symmetry_equiv_pos_as_xyz
  x,y,z
_cell_length_a	10.654544
_cell_length_b	14.971486
_cell_length_c	13.448316
_cell_angle_alpha	90.006811
_cell_angle_beta	89.992199
_cell_angle_gamma	95.950510
loop_
_atom_site_label
_atom_site_type_symbol
_atom_site_fract_x
_atom_site_fract_y
_atom_site_fract_z
O1	O	1.666498	-0.125633	-0.082717
O2	O	2.166498	0.374367	0.417283
O3	O	1.300891	-0.137602	-0.082714
O4	O	1.800891	0.362398	0.417286
O5	O	1.493494	-0.001471	-0.082709
O6	O	1.993494	0.498529	0.417291
O7	O	1.473896	-0.261764	-0.082723
O8	O	1.973896	0.238236	0.417277
O9	O	1.493470	-0.001462	0.082675
O10	O	1.993470	0.498538	0.582675
O11	O	1.300867	-0.137593	0.082670
O12	O	1.800867	0.362407	0.582670
O13	O	1.666474	-0.125624	0.082666
O14	O	2.166474	0.374376	0.582666
Cu15	Cu	1.483668	-0.131608	0.097769
Cu16	Cu	1.983668	0.368392	0.597769
Cu17	Cu	1.483697	-0.131618	-0.097817
Cu18	Cu	1.983697	0.368382	0.402183
O19	O	1.473871	-0.261755	0.082661
O20	O	1.973871	0.238245	0.582661
C21	C	1.254091	-0.136719	-0.000022
C22	C	1.754091	0.363281	0.499978
C23	C	1.114675	-0.134090	-0.000020
C24	C	1.614675	0.365910	0.499980
C25	C	1.114624	-0.134091	0.180286
C26	C	1.614624	0.365909	0.680286
C27	C	1.049102	-0.132858	0.270437
C28	C	1.549102	0.367142	0.770437
C29	C	0.918110	-0.130386	0.270432
C30	C	1.418110	0.369614	0.770432
C31	C	0.852637	-0.129144	0.180268
C32	C	1.352637	0.370856	0.680268
C33	C	0.918160	-0.130376	0.090118
C34	C	1.418160	0.369624	0.590118
C35	C	1.049154	-0.132851	0.090132
C36	C	1.549154	0.367149	0.590132
C37	C	0.918212	-0.130369	-0.090186
C38	C	1.418212	0.369631	0.409814
C39	C	1.049203	-0.132847	-0.090184
C40	C	1.549203	0.367153	0.409816
C41	C	0.852740	-0.129126	-0.180350
C42	C	1.352740	0.370874	0.319650
C43	C	0.918261	-0.130365	-0.270503
C44	C	1.418261	0.369635	0.229497
C45	C	1.049261	-0.132838	-0.270495
C46	C	1.549261	0.367162	0.229505
C47	C	1.114725	-0.134079	-0.180334
C48	C	1.614725	0.365921	0.319666
C49	C	1.492605	0.031863	-0.000017
C50	C	1.992605	0.531863	0.499983
C51	C	1.489979	0.131175	-0.000018
C52	C	1.989979	0.631175	0.499982
C53	C	1.713275	-0.126507	-0.000028
C54	C	2.213275	0.373493	0.499972
C55	C	1.852690	-0.129136	-0.000036
C56	C	2.352690	0.370864	0.499964
C57	C	1.474760	-0.295089	-0.000033
C58	C	1.974760	0.204911	0.499967
C59	C	1.477386	-0.394401	-0.000038
C60	C	1.977386	0.105599	0.499962
N61	N	1.483657	-0.131600	0.235333
N62	N	1.983657	0.368400	0.735333
C63	C	1.603128	0.187784	-0.000018
C64	C	2.103128	0.687784	0.499982
C65	C	1.600652	0.281097	-0.000028
C66	C	2.100652	0.781097	0.499972
C67	C	1.485027	0.317799	-0.000031
C68	C	1.985027	0.817799	0.499969
C69	C	1.371869	0.261182	-0.000033
C70	C	1.871869	0.761182	0.499967
C71	C	1.374346	0.167871	-0.000031
C72	C	1.874346	0.667871	0.499969
C73	C	1.366715	0.455672	-0.000037
C74	C	1.866715	0.955672	0.499963
C75	C	1.364238	0.548990	-0.000038
C76	C	1.864238	1.048990	0.499962
C77	C	1.593021	0.568899	-0.000035
C78	C	2.093021	1.068899	0.499965
C79	C	1.595498	0.475588	-0.000032
C80	C	2.095498	0.975588	0.499968
C81	C	1.482340	0.418977	-0.000033
C82	C	1.982340	0.918977	0.499967
N83	N	1.483718	-0.131619	-0.235381
N84	N	1.983718	0.368381	0.264619
C85	C	1.568968	-0.071346	0.287376
C86	C	2.068968	0.428654	0.787376
C87	C	1.568976	-0.071346	0.391479
C88	C	2.068976	0.428654	0.891479
C89	C	1.483678	-0.131604	0.443538
C90	C	1.983678	0.368396	0.943538
C91	C	1.398358	-0.191861	0.391488
C92	C	1.898358	0.308139	0.891488
C93	C	1.398345	-0.191856	0.287387
C94	C	1.898345	0.308144	0.787387
C95	C	1.398393	-0.191867	0.608468
C96	C	1.898393	0.308133	1.108468
C97	C	1.398407	-0.191873	0.712576
C98	C	1.898407	0.308127	1.212576
C99	C	1.569024	-0.071356	0.712561
C100	C	2.069024	0.428644	1.212561
C101	C	1.569011	-0.071352	0.608459
C102	C	2.069011	0.428648	1.108459
C103	C	1.483692	-0.131610	0.556416
C104	C	1.983692	0.368390	1.056416
H105	H	0.746080	-0.127107	-0.180347
H106	H	1.246080	0.372893	0.319653
Br107	Br	1.214946	0.310990	-0.000054
Br108	Br	1.714946	0.810990	0.499946
H109	H	1.221282	-0.136116	0.180299
H110	H	1.721282	0.363884	0.680299
H111	H	1.328875	-0.240920	0.245014
H112	H	1.828875	0.259080	0.745014
H113	H	0.864944	-0.129348	-0.343907
H114	H	1.364944	0.370652	0.156093
H115	H	1.328913	-0.240933	0.566098
H116	H	1.828913	0.259067	1.066098
H117	H	1.328900	-0.240921	0.433880
H118	H	1.828900	0.259079	0.933880
H119	H	1.328947	-0.240940	0.754957
H120	H	1.828947	0.259060	1.254957
Br121	Br	1.137961	-0.134542	0.392796
Br122	Br	1.637961	0.365458	0.892796
Br123	Br	0.829184	-0.128699	0.392779
Br124	Br	1.329184	0.371301	0.892779
Br125	Br	1.213142	0.378844	-0.000042
Br126	Br	1.713142	0.878844	0.499958
Br127	Br	1.220781	0.091041	-0.000038
Br128	Br	1.720781	0.591041	0.499962
H129	H	1.697284	0.157910	-0.000010
H130	H	2.197284	0.657910	0.499990
Br131	Br	1.292500	-0.137443	-0.180316
Br132	Br	1.792500	0.362557	0.319684
H133	H	0.745979	-0.127120	0.180273
H134	H	1.245979	0.372880	0.680273
H135	H	1.102602	-0.133839	-0.343906
H136	H	1.602602	0.366161	0.156094
Br137	Br	1.684746	0.010431	0.216736
Br138	Br	2.184746	0.510431	0.716736
H139	H	1.692790	0.327186	-0.000026
H140	H	2.192790	0.827186	0.499974
H141	H	1.638442	-0.022282	0.433852
H142	H	2.138442	0.477718	0.933852
Br143	Br	1.752420	0.425779	-0.000031
Br144	Br	2.252420	0.925779	0.499969
Br145	Br	1.207316	0.598799	-0.000037
Br146	Br	1.707316	1.098799	0.499963
Br147	Br	1.746594	0.645726	-0.000036
Br148	Br	2.246594	1.145726	0.499964
H149	H	1.638473	-0.022290	0.566073
H150	H	2.138473	0.477710	1.066073
H151	H	1.638493	-0.022292	0.754940
H152	H	2.138493	0.477708	1.254940
