data_functionalizedCrystal
_audit_creation_method	'MofGen! by Chris Wilmer'
_symmetry_space_group_name_H-M	'P1'
_symmetry_Int_Tables_number	1
_symmetry_cell_setting	triclinic
loop_
_symmetry_equiv_pos_as_xyz
  x,y,z
_cell_length_a	8.559649
_cell_length_b	9.730223
_cell_length_c	10.654559
_cell_angle_alpha	89.997429
_cell_angle_beta	77.133674
_cell_angle_gamma	90.002056
loop_
_atom_site_label
_atom_site_type_symbol
_atom_site_fract_x
_atom_site_fract_y
_atom_site_fract_z
O1	O	2.119652	0.114269	-0.042565
O2	O	1.655169	0.114273	0.022221
O3	O	1.898082	0.114271	-0.194013
O4	O	1.876739	0.114271	0.173668
O5	O	1.898066	-0.114309	-0.194001
O6	O	1.655153	-0.114307	0.022233
O7	O	2.119636	-0.114311	-0.042553
Zn8	Zn	1.887392	-0.150601	-0.010158
Zn9	Zn	1.887413	0.150563	-0.010174
O10	O	1.876723	-0.114309	0.173681
C11	C	1.595686	-0.000016	0.027136
C12	C	1.418468	-0.000014	0.041751
N13	N	1.887390	-0.356137	-0.010149
C14	C	1.985035	-0.428077	0.056639
C15	C	1.985059	-0.571960	0.056613
C16	C	1.789778	-0.571950	-0.076991
C17	C	1.789764	-0.428070	-0.076971
C18	C	2.097774	-0.428084	0.133778
C19	C	2.097798	-0.571967	0.133752
C20	C	2.179119	-0.000019	-0.047469
C21	C	2.356337	-0.000012	-0.062083
N22	N	1.887428	0.356099	-0.010195
C23	C	1.896504	-0.000016	-0.240643
C24	C	1.891806	-0.000007	-0.379600
C25	C	1.744367	-0.000002	-0.415910
C26	C	1.739962	-0.000013	-0.546477
C27	C	2.030449	-0.000027	-0.604416
C28	C	2.034852	-0.000027	-0.473851
C29	C	1.576656	0.000012	-0.382460
C30	C	1.572252	0.000002	-0.513027
C31	C	1.878301	-0.000019	0.220310
C32	C	1.882999	-0.000018	0.359268
H33	H	1.438720	-0.000005	-0.162160
H34	H	1.513448	-0.095642	-0.334178
H35	H	2.058490	-0.611040	0.236846
C36	C	1.307176	-0.000012	0.176957
H37	H	1.198669	-0.000018	0.169377
H38	H	1.327101	0.079696	0.222448
H39	H	1.327085	-0.079736	0.222450
H40	H	2.154911	-0.000049	-0.444295
H41	H	1.506666	0.095657	-0.535625
H42	H	1.710295	-0.630535	-0.131395
C43	C	1.682365	-0.348940	-0.150446
H44	H	1.624218	-0.412391	-0.190234
H45	H	1.747131	-0.292793	-0.214446
H46	H	1.609458	-0.292832	-0.091977
H47	H	1.518802	-0.098684	-0.543128
C48	C	2.029939	-0.367810	0.268537
H49	H	2.032240	-0.270299	0.263955
H50	H	2.093143	-0.397968	0.326077
H51	H	1.922565	-0.397961	0.298706
H52	H	2.223656	-0.389020	0.089918
C53	C	2.260186	-0.632241	0.063658
H54	H	2.254656	-0.729752	0.066020
H55	H	2.341582	-0.602101	0.105019
H56	H	2.284481	-0.602073	-0.023328
C57	C	2.187791	-0.000041	-0.708088
H58	H	2.276231	-0.000052	-0.667759
H59	H	2.192123	0.079665	-0.760237
H60	H	2.192101	-0.079767	-0.760213
H61	H	1.525996	0.098710	-0.331590
