data_functionalizedCrystal
_audit_creation_method	'MofGen! by Chris Wilmer'
_symmetry_space_group_name_H-M	'P1'
_symmetry_Int_Tables_number	1
_symmetry_cell_setting	triclinic
loop_
_symmetry_equiv_pos_as_xyz
  x,y,z
_cell_length_a	10.686220
_cell_length_b	15.297327
_cell_length_c	10.686551
_cell_angle_alpha	96.042164
_cell_angle_beta	90.308082
_cell_angle_gamma	103.240265
loop_
_atom_site_label
_atom_site_type_symbol
_atom_site_fract_x
_atom_site_fract_y
_atom_site_fract_z
Zn1	Zn	1.923459	-0.219505	-0.619215
Zn2	Zn	1.870979	-0.382469	-0.451647
Zn3	Zn	1.692454	-0.242538	-0.431496
Zn4	Zn	1.677815	-0.380644	-0.676952
O5	O	1.791177	-0.306289	-0.544828
O6	O	2.094014	-0.232247	-0.581257
O7	O	1.831461	-0.374309	-0.276122
O8	O	1.751187	-0.113484	-0.423800
O9	O	2.055457	-0.351976	-0.458146
O10	O	1.920905	-0.096562	-0.561717
O11	O	1.700299	-0.271502	-0.261316
O12	O	1.512996	-0.269733	-0.479786
O13	O	1.726237	-0.348866	-0.842146
O14	O	1.502241	-0.371200	-0.660122
O15	O	1.906710	-0.230478	-0.799726
O16	O	1.817266	-0.508226	-0.514131
O17	O	1.675349	-0.506885	-0.679662
C18	C	1.461590	-0.322768	-0.574033
C19	C	1.320589	-0.329838	-0.586562
C20	C	1.739061	-0.540222	-0.605372
C21	C	1.716885	-0.640291	-0.631305
C22	C	1.950230	-0.925010	-0.359860
C23	C	1.971064	-0.830990	-0.335489
C24	C	1.907522	-0.783311	-0.409441
C25	C	1.823141	-0.829660	-0.507768
C26	C	1.802297	-0.923690	-0.532135
C27	C	1.759589	-0.781991	-0.581716
C28	C	1.675208	-0.828341	-0.680043
C29	C	1.654369	-0.922361	-0.704406
C30	C	1.717911	-0.970040	-0.630454
C31	C	1.780432	-0.687961	-0.557349
C32	C	1.632499	-0.686642	-0.729624
C33	C	1.611665	-0.780661	-0.753995
C34	C	2.122050	-0.289746	-0.515509
C35	C	2.263049	-0.282696	-0.503015
C36	C	1.820695	-0.286900	-0.867008
C37	C	1.833273	-0.278637	-1.004302
C38	C	1.843533	-0.071439	-0.484070
C39	C	1.865844	0.028640	-0.458179
C40	C	1.761861	-0.325535	-0.223877
C41	C	1.749584	-0.333531	-0.086497
H42	H	1.849135	-0.650232	-0.477290
H43	H	1.924489	-0.706756	-0.389591
H44	H	1.668315	-0.386852	-1.051833
C45	C	1.941525	-0.207561	-1.050759
C46	C	1.932878	-0.213196	-1.182263
C47	C	2.032563	-0.147728	-1.225102
H48	H	2.021990	-0.217658	-1.025655
H49	H	1.934528	-0.149225	-1.015732
H50	H	1.939886	-0.271519	-1.217277
H51	H	1.852435	-0.203089	-1.207401
H52	H	2.025566	-0.089392	-1.190074
H53	H	2.113021	-0.157831	-1.199989
H54	H	2.026703	-0.151537	-1.314329
H55	H	1.700956	-1.046599	-0.650294
C56	C	1.341076	-0.221792	-0.394684
C57	C	1.293401	-0.250227	-0.280290
C58	C	1.365267	-0.194152	-0.180467
H59	H	1.334609	-0.161268	-0.398967
H60	H	1.428640	-0.225004	-0.400274
H61	H	1.205858	-0.247007	-0.274702
H62	H	1.299870	-0.310743	-0.275965
H63	H	1.452831	-0.197363	-0.186057
H64	H	1.358794	-0.133630	-0.184762
H65	H	1.332937	-0.213442	-0.102839
C66	C	1.242236	-0.390791	-0.694674
C67	C	1.113275	-0.385904	-0.686052
C68	C	1.041062	-0.442030	-0.785630
H69	H	1.248603	-0.451328	-0.690315
H70	H	1.274353	-0.371628	-0.772439
H71	H	1.081167	-0.405072	-0.608308
H72	H	1.106868	-0.325380	-0.690427
H73	H	1.073179	-0.422867	-0.863394
H74	H	1.047439	-0.502564	-0.781262
H75	H	0.953557	-0.438716	-0.779800
H76	H	2.039765	-0.793256	-0.255431
C77	C	2.019421	-0.976663	-0.279604
C78	C	2.152481	-0.945819	-0.289480
C79	C	2.216253	-0.993381	-0.215547
H80	H	1.995062	-1.039305	-0.308122
H81	H	1.996795	-0.967193	-0.194221
H82	H	2.175098	-0.955298	-0.374845
H83	H	2.176878	-0.883184	-0.260953
H84	H	2.193627	-0.983911	-0.130164
H85	H	2.191884	-1.056021	-0.244072
H86	H	2.306540	-0.972455	-0.222229
H87	H	1.585644	-0.960098	-0.784457
C88	C	1.520047	-0.831158	-0.860644
C89	C	1.515377	-0.923706	-0.866129
C90	C	1.430980	-0.970253	-0.964346
H91	H	1.549470	-0.809906	-0.938098
H92	H	1.436526	-0.821218	-0.846079
H93	H	1.598879	-0.933640	-0.880702
H94	H	1.485939	-0.944984	-0.788699
H95	H	1.347460	-0.960312	-0.949781
H96	H	1.460411	-0.948993	-1.041792
H97	H	1.427791	-1.033051	-0.968073
C98	C	1.563676	-0.634719	-0.809824
C99	C	1.600018	-0.542454	-0.767465
C100	C	1.536661	-0.494589	-0.841316
H101	H	1.473346	-0.655426	-0.803296
H102	H	1.586397	-0.644120	-0.895190
H103	H	1.577288	-0.533059	-0.682121
H104	H	1.690338	-0.521721	-0.773997
H105	H	1.559382	-0.503989	-0.926681
H106	H	1.446334	-0.515303	-0.834783
H107	H	1.561319	-0.431981	-0.812593
