data_functionalizedCrystal
_audit_creation_method	'MofGen! by Chris Wilmer'
_symmetry_space_group_name_H-M	'P1'
_symmetry_Int_Tables_number	1
_symmetry_cell_setting	triclinic
loop_
_symmetry_equiv_pos_as_xyz
  x,y,z
_cell_length_a	18.050591
_cell_length_b	18.050589
_cell_length_c	18.215399
_cell_angle_alpha	89.973988
_cell_angle_beta	89.978472
_cell_angle_gamma	90.024669
loop_
_atom_site_label
_atom_site_type_symbol
_atom_site_fract_x
_atom_site_fract_y
_atom_site_fract_z
Zn1	Zn	1.135306	-0.295720	-0.416230
Zn2	Zn	1.135212	-0.419920	-0.293173
Zn3	Zn	1.011121	-0.295741	-0.293168
Zn4	Zn	1.011073	-0.419865	-0.416188
O5	O	1.073178	-0.357811	-0.354690
O6	O	1.239218	-0.312210	-0.399927
O7	O	1.118733	-0.403479	-0.190188
O8	O	1.027653	-0.191813	-0.309507
O9	O	1.239149	-0.403459	-0.309517
O10	O	1.118891	-0.191798	-0.399921
O11	O	1.027563	-0.312245	-0.190184
O12	O	0.907190	-0.312192	-0.309467
O13	O	1.027571	-0.403365	-0.519178
O14	O	0.907155	-0.403385	-0.399849
O15	O	1.118845	-0.312156	-0.519209
O16	O	1.118686	-0.523837	-0.309476
O17	O	1.027481	-0.523797	-0.399855
C18	C	0.880226	-0.357785	-0.354653
C19	C	0.797680	-0.357792	-0.354655
C20	C	0.548852	-0.308149	-0.305621
C21	C	0.598286	-0.290059	-0.372783
C22	C	0.500560	-0.357830	-0.354715
C23	C	0.598207	-0.375866	-0.287528
C24	C	0.646545	-0.357809	-0.354682
C25	C	0.548906	-0.339705	-0.421912
C26	C	0.548823	-0.425543	-0.336612
C27	C	0.598235	-0.407479	-0.403820
C28	C	0.416461	-0.357840	-0.354733
C29	C	0.730641	-0.357799	-0.354671
C30	C	1.073088	-0.550763	-0.354678
C31	C	1.073118	-0.633309	-0.354697
C32	C	1.023569	-0.832765	-0.403828
C33	C	1.005469	-0.882207	-0.336672
C34	C	1.073191	-0.784440	-0.354707
C35	C	1.091327	-0.882079	-0.421870
C36	C	1.073260	-0.930425	-0.354722
C37	C	1.055055	-0.832794	-0.287515
C38	C	1.140944	-0.832662	-0.372759
C39	C	1.122870	-0.882082	-0.305557
C40	C	1.073149	-0.700341	-0.354699
C41	C	1.073302	-1.014521	-0.354722
C42	C	1.266883	-0.357838	-0.354727
C43	C	1.349429	-0.357850	-0.354743
C44	C	1.073213	-0.357752	-0.546643
C45	C	1.073228	-0.357727	-0.628442
C46	C	1.073288	-0.164106	-0.354718
C47	C	1.073335	-0.081560	-0.354730
C48	C	1.025796	-0.310189	-0.816635
C49	C	1.025809	-0.310174	-0.893493
C50	C	1.120749	-0.405176	-0.893487
C51	C	1.120731	-0.405194	-0.816630
C52	C	1.073256	-0.357696	-0.778205
C53	C	1.073286	-0.357663	-0.931922
C54	C	1.073301	-0.357647	-1.015255
C55	C	1.073241	-0.357713	-0.694866
C56	C	1.073186	-0.357817	-0.163484
C57	C	1.073315	-0.357633	-0.081685
H58	H	0.619780	-0.449483	-0.445371
Cl59	Cl	1.114968	-0.915507	-0.509553
Cl60	Cl	0.966110	-0.250481	-0.768332
H61	H	0.619999	-0.232784	-0.388094
Cl62	Cl	0.917053	-0.915805	-0.313100
Cl63	Cl	1.031313	-0.799513	-0.199806
Cl64	Cl	0.515615	-0.316033	-0.509642
Cl65	Cl	0.631646	-0.399434	-0.199826
H66	H	0.987162	-0.271490	-0.924779
Cl67	Cl	1.180430	-0.464881	-0.941797
H68	H	0.527081	-0.482799	-0.321290
H69	H	0.981544	-0.811109	-0.445309
H70	H	1.164863	-0.903600	-0.263975
H71	H	1.159381	-0.443883	-0.785340
H72	H	0.527171	-0.266113	-0.264169
Cl73	Cl	1.229337	-0.799037	-0.396361
