data_functionalizedCrystal
_audit_creation_method	'MofGen! by Chris Wilmer'
_symmetry_space_group_name_H-M	'P1'
_symmetry_Int_Tables_number	1
_symmetry_cell_setting	triclinic
loop_
_symmetry_equiv_pos_as_xyz
  x,y,z
_cell_length_a	19.188933
_cell_length_b	19.188924
_cell_length_c	18.266242
_cell_angle_alpha	89.991576
_cell_angle_beta	89.992377
_cell_angle_gamma	83.143767
loop_
_atom_site_label
_atom_site_type_symbol
_atom_site_fract_x
_atom_site_fract_y
_atom_site_fract_z
O1	O	0.926146	0.087175	-0.060860
O2	O	1.426146	0.587175	0.439140
O3	O	0.722835	0.098908	-0.060867
O4	O	1.222835	0.598908	0.439133
O5	O	0.830360	-0.008614	-0.060855
O6	O	1.330360	0.491386	0.439145
O7	O	0.818621	0.194698	-0.060872
O8	O	1.318621	0.694698	0.439128
O9	O	0.830342	-0.008620	0.060907
O10	O	1.330342	0.491380	0.560907
O11	O	0.722817	0.098903	0.060895
O12	O	1.222817	0.598903	0.560895
O13	O	0.926128	0.087170	0.060902
O14	O	1.426128	0.587170	0.560902
Zn15	Zn	0.824469	0.093036	0.080231
Zn16	Zn	1.324469	0.593036	0.580231
Zn17	Zn	0.824493	0.093043	-0.080196
Zn18	Zn	1.324493	0.593043	0.419804
O19	O	0.818603	0.194692	0.060890
O20	O	1.318603	0.694692	0.560890
C21	C	0.696815	0.098525	0.000013
C22	C	1.196815	0.598525	0.500013
C23	C	0.619310	0.097384	0.000011
C24	C	1.119310	0.597384	0.500011
C25	C	0.829972	-0.034628	0.000027
C26	C	1.329972	0.465372	0.500027
C27	C	0.828833	-0.112133	0.000029
C28	C	1.328833	0.387867	0.500029
C29	C	0.066065	0.089242	-0.066353
C30	C	0.566065	0.589242	0.433647
C31	C	0.138889	0.090310	-0.066356
C32	C	0.638889	0.590310	0.433644
C33	C	0.175296	0.090844	0.000016
C34	C	0.675296	0.590844	0.500016
C35	C	0.138876	0.090293	0.066396
C36	C	0.638876	0.590293	0.566396
C37	C	0.066054	0.089217	0.066397
C38	C	0.566054	0.589217	0.566397
N39	N	0.284308	0.132261	0.049416
N40	N	0.784308	0.632261	0.549416
N41	N	0.353486	0.133284	0.049411
N42	N	0.853486	0.633284	0.549411
C43	C	0.394705	0.094082	0.000017
C44	C	0.894705	0.594082	0.500017
N45	N	0.364132	0.053828	-0.049382
N46	N	0.864132	0.553828	0.450618
N47	N	0.294948	0.052808	-0.049379
N48	N	0.794948	0.552808	0.450621
C49	C	0.254260	0.092010	0.000022
C50	C	0.754260	0.592010	0.500022
C51	C	0.510082	0.095787	-0.066362
C52	C	1.010082	0.595787	0.433638
C53	C	0.582908	0.096851	-0.066362
C54	C	1.082908	0.596851	0.433638
C55	C	0.582892	0.096841	0.066392
C56	C	1.082892	0.596841	0.566392
C57	C	0.510068	0.095770	0.066390
C58	C	1.010068	0.595770	0.566390
C59	C	0.473667	0.095246	0.000011
C60	C	0.973667	0.595246	0.500011
C61	C	0.828311	-0.148529	-0.066344
C62	C	1.328311	0.351471	0.433656
C63	C	0.827231	-0.221351	-0.066349
C64	C	1.327231	0.278649	0.433651
C65	C	0.826687	-0.257777	0.000021
C66	C	1.326687	0.242223	0.500021
C67	C	0.827205	-0.221372	0.066403
C68	C	1.327205	0.278628	0.566403
C69	C	0.828278	-0.148550	0.066407
C70	C	1.328278	0.351450	0.566407
N71	N	0.864728	-0.377442	0.049421
N72	N	1.364728	0.122558	0.549421
N73	N	0.863710	-0.446621	0.049413
N74	N	1.363710	0.053379	0.549413
C75	C	0.823453	-0.477186	0.000014
C76	C	1.323453	0.022814	0.500014
N77	N	0.784261	-0.435962	-0.049387
N78	N	1.284261	0.064038	0.450613
N79	N	0.785282	-0.366777	-0.049381
N80	N	1.285282	0.133223	0.450619
C81	C	0.825523	-0.336741	0.000025
C82	C	1.325523	0.163259	0.500025
C83	C	0.821760	-0.592545	-0.066369
C84	C	1.321760	-0.092545	0.433631
C85	C	0.820675	-0.665368	-0.066372
C86	C	1.320675	-0.165368	0.433628
C87	C	0.820656	-0.665389	0.066382
C88	C	1.320656	-0.165389	0.566382
C89	C	0.821733	-0.592566	0.066383
C90	C	1.321733	-0.092566	0.566383
C91	C	0.822288	-0.556149	0.000006
C92	C	1.322288	-0.056149	0.500006
C93	C	0.952148	0.087553	0.000020
C94	C	1.452148	0.587553	0.500020
C95	C	1.029653	0.088694	0.000018
C96	C	1.529653	0.588694	0.500018
C97	C	0.818991	0.220706	0.000006
C98	C	1.318991	0.720706	0.500006
C99	C	0.820130	0.298211	-0.000000
C100	C	1.320130	0.798211	0.500000
N101	N	0.824458	0.093030	0.189718
N102	N	1.324458	0.593030	0.689718
N103	N	0.824510	0.093043	-0.189683
N104	N	1.324510	0.593043	0.310317
C105	C	0.872086	0.045442	0.228032
C106	C	1.372086	0.545442	0.728032
C107	C	0.872090	0.045439	0.304677
C108	C	1.372090	0.545439	0.804677
C109	C	0.824474	0.093036	0.343005
C110	C	1.324474	0.593036	0.843005
C111	C	0.776837	0.140627	0.304681
C112	C	1.276837	0.640627	0.804681
C113	C	0.776829	0.140624	0.228038
C114	C	1.276829	0.640624	0.728038
N115	N	0.815397	0.154843	0.463331
N116	N	1.315397	0.654843	0.963331
N117	N	0.815408	0.154844	0.536140
N118	N	1.315408	0.654844	1.036140
C119	C	0.824493	0.093046	0.573927
C120	C	1.324493	0.593046	1.073927
N121	N	0.833580	0.031245	0.536156
N122	N	1.333580	0.531245	1.036156
N123	N	0.833572	0.031246	0.463341
N124	N	1.333572	0.531246	0.963341
C125	C	0.824477	0.093044	0.426112
C126	C	1.324477	0.593044	0.926112
C127	C	0.872129	0.045451	0.695349
C128	C	1.372129	0.545451	1.195349
C129	C	0.872128	0.045446	0.771995
C130	C	1.372128	0.545446	1.271995
C131	C	0.776878	0.140640	0.771997
C132	C	1.276878	0.640640	1.271997
C133	C	0.776875	0.140638	0.695353
C134	C	1.276875	0.640638	1.195353
C135	C	0.824504	0.093044	0.657033
C136	C	1.324504	0.593044	1.157033
H137	H	0.168542	0.090760	-0.120405
H138	H	0.668542	0.590760	0.379595
O139	O	0.828893	-0.109252	-0.137937
O140	O	1.328893	0.390748	0.362063
H141	H	0.876264	-0.129596	-0.169769
H142	H	1.376264	0.370404	0.330231
O143	O	0.470815	0.095205	-0.137951
O144	O	0.970815	0.595205	0.362049
H145	H	0.508374	0.095751	-0.184106
H146	H	1.008374	0.595751	0.315894
O147	O	0.622181	0.097440	-0.137956
O148	O	1.122181	0.597440	0.362044
H149	H	0.661722	0.050347	-0.141137
H150	H	1.161722	0.550347	0.358863
H151	H	0.826802	-0.250990	-0.120400
H152	H	1.326802	0.249010	0.379600
O153	O	0.820086	-0.704626	-0.137963
O154	O	1.320086	-0.204626	0.362037
H155	H	0.820649	-0.667065	-0.184115
H156	H	1.320649	-0.167065	0.315885
H157	H	0.822164	-0.562932	0.120431
H158	H	1.322164	-0.062932	0.620431
H159	H	0.910867	0.006687	0.196834
H160	H	1.410867	0.506687	0.696834
O161	O	0.826631	-0.260655	0.137991
O162	O	1.326631	0.239345	0.637991
H163	H	0.825808	-0.317410	0.126839
H164	H	1.325808	0.182590	0.626839
O165	O	0.923469	-0.005882	0.346017
O166	O	1.423469	0.494118	0.846017
H167	H	0.956590	-0.038973	0.306494
H168	H	1.456590	0.461027	0.806494
H169	H	0.828700	-0.118916	0.120457
H170	H	1.328700	0.381084	0.620457
O171	O	0.725522	0.191991	0.813314
O172	O	1.225522	0.691991	1.313314
H173	H	0.691678	0.162699	0.848254
H174	H	1.191678	0.662699	1.348254
O175	O	0.026836	0.088797	0.138037
O176	O	0.526836	0.588797	0.638037
H177	H	-0.012643	0.135945	0.141135
H178	H	0.487357	0.635945	0.641135
H179	H	0.738066	0.179380	0.335891
H180	H	1.238066	0.679380	0.835891
H181	H	0.612534	0.097273	0.120433
H182	H	1.112534	0.597273	0.620433
O183	O	0.923498	-0.005884	0.813327
O184	O	1.423498	0.494116	1.313327
H185	H	0.957330	0.023431	0.848239
H186	H	1.457330	0.523431	1.348239
O187	O	0.178136	0.090875	0.137986
O188	O	0.678136	0.590875	0.637986
H189	H	0.234890	0.091723	0.126835
H190	H	0.734890	0.591723	0.626835
H191	H	0.738044	0.179376	0.196841
H192	H	1.238044	0.679376	0.696841
H193	H	0.910909	0.006694	0.664147
H194	H	1.410909	0.506694	1.164147
O195	O	0.822342	-0.553258	-0.137958
O196	O	1.322342	-0.053258	0.362042
H197	H	0.869712	-0.573603	-0.169792
H198	H	1.369712	-0.073603	0.330208
O199	O	0.026807	0.088638	-0.137944
O200	O	0.526807	0.588638	0.362056
H201	H	0.064369	0.089181	-0.184097
H202	H	0.564369	0.589181	0.315903
O203	O	0.470785	0.095192	0.137976
O204	O	0.970785	0.595192	0.637976
H205	H	0.508333	0.095750	0.184130
H206	H	1.008333	0.595750	0.684130
O207	O	0.725513	0.191973	0.654020
O208	O	1.225513	0.691973	1.154020
H209	H	0.692406	0.225075	0.693545
H210	H	1.192406	0.725075	1.193545
O211	O	0.820074	-0.704665	0.137972
O212	O	1.320074	-0.204665	0.637972
H213	H	0.819246	-0.761419	0.126820
H214	H	1.319246	-0.261419	0.626820
