data_functionalizedCrystal
_audit_creation_method	'MofGen! by Chris Wilmer'
_symmetry_space_group_name_H-M	'P1'
_symmetry_Int_Tables_number	1
_symmetry_cell_setting	triclinic
loop_
_symmetry_equiv_pos_as_xyz
  x,y,z
_cell_length_a	17.077404
_cell_length_b	18.050589
_cell_length_c	17.077396
_cell_angle_alpha	89.975358
_cell_angle_beta	89.980499
_cell_angle_gamma	90.028446
loop_
_atom_site_label
_atom_site_type_symbol
_atom_site_fract_x
_atom_site_fract_y
_atom_site_fract_z
Zn1	Zn	1.200026	-0.295655	-0.443864
Zn2	Zn	1.199920	-0.419852	-0.312606
Zn3	Zn	1.068757	-0.295681	-0.312612
Zn4	Zn	1.068713	-0.419808	-0.443830
O5	O	1.134354	-0.357749	-0.378228
O6	O	1.309858	-0.312138	-0.426464
O7	O	1.182496	-0.403410	-0.202760
O8	O	1.086233	-0.191753	-0.330039
O9	O	1.309781	-0.403385	-0.330030
O10	O	1.182675	-0.191734	-0.426469
O11	O	1.086131	-0.312182	-0.202764
O12	O	0.958905	-0.312139	-0.330006
O13	O	1.086157	-0.403310	-0.553681
O14	O	0.958872	-0.403335	-0.426412
O15	O	1.182632	-0.312095	-0.553706
O16	O	1.182453	-0.523771	-0.329997
O17	O	1.086056	-0.523739	-0.426407
C18	C	0.930406	-0.357736	-0.378206
C19	C	0.843156	-0.357748	-0.378216
C20	C	0.802170	-0.405305	-0.428333
C21	C	0.720189	-0.405307	-0.428346
C22	C	0.679197	-0.357754	-0.378236
C23	C	0.720189	-0.310192	-0.328116
C24	C	0.802168	-0.310187	-0.328108
C25	C	0.549319	-0.310206	-0.328135
C26	C	0.467335	-0.310212	-0.328142
C27	C	0.467340	-0.405326	-0.428373
C28	C	0.549319	-0.405321	-0.428365
C29	C	0.590306	-0.357760	-0.378244
C30	C	1.134259	-0.550701	-0.378215
C31	C	1.134291	-0.633247	-0.378236
C32	C	1.081921	-0.832707	-0.430645
C33	C	1.062786	-0.882149	-0.359016
C34	C	1.134368	-0.784377	-0.378246
C35	C	1.153541	-0.882017	-0.449883
C36	C	1.134441	-0.930362	-0.378262
C37	C	1.115195	-0.832732	-0.306579
C38	C	1.205984	-0.832596	-0.397495
C39	C	1.186876	-0.882016	-0.325816
C40	C	1.134324	-0.700279	-0.378238
C41	C	1.134485	-1.014459	-0.378262
C42	C	1.339098	-0.357763	-0.378250
C43	C	1.426348	-0.357769	-0.378260
C44	C	1.134402	-0.357694	-0.582972
C45	C	1.134422	-0.357671	-0.670222
C46	C	1.134471	-0.164043	-0.378258
C47	C	1.134520	-0.081498	-0.378271
C48	C	1.184658	-0.310172	-0.711226
C49	C	1.184667	-0.310147	-0.793207
C50	C	1.134444	-0.357626	-0.834182
C51	C	1.084202	-0.405128	-0.793172
C52	C	1.084190	-0.405148	-0.711193
C53	C	1.084234	-0.405083	-0.964042
C54	C	1.084248	-0.405064	-1.046026
C55	C	1.184712	-0.310082	-1.046056
C56	C	1.184699	-0.310102	-0.964077
C57	C	1.134458	-0.357605	-0.923073
C58	C	1.134352	-0.357750	-0.174280
C59	C	1.134484	-0.357564	-0.087031
H60	H	0.686822	-0.444033	-0.469156
H61	H	1.169729	-0.903667	-0.510460
Cl62	Cl	1.013348	-0.799276	-0.498963
Cl63	Cl	1.247804	-0.250484	-0.659723
Cl64	Cl	1.090095	-0.799450	-0.213026
Cl65	Cl	1.247873	-0.250365	-1.097604
Cl66	Cl	1.247859	-0.250463	-0.844752
H67	H	0.582693	-0.444047	-0.469164
H68	H	0.433965	-0.444050	-0.469186
Cl69	Cl	0.415802	-0.250434	-0.265142
Cl70	Cl	1.021100	-0.464744	-1.097537
Cl71	Cl	0.969330	-0.915752	-0.333880
Cl72	Cl	1.247843	-0.250418	-0.912567
Cl73	Cl	1.255403	-0.915234	-0.257337
Cl74	Cl	1.021061	-0.464813	-0.844683
Cl75	Cl	0.600844	-0.250413	-0.265124
H76	H	1.266499	-0.810816	-0.413795
Cl77	Cl	0.668656	-0.250406	-0.265125
H78	H	1.043310	-0.443753	-0.930658
H79	H	0.835538	-0.271457	-0.287301
Cl80	Cl	1.021030	-0.464862	-0.659644
H81	H	0.835540	-0.444030	-0.469136
