data_functionalizedCrystal
_audit_creation_method	'MofGen! by Chris Wilmer'
_symmetry_space_group_name_H-M	'P1'
_symmetry_Int_Tables_number	1
_symmetry_cell_setting	triclinic
loop_
_symmetry_equiv_pos_as_xyz
  x,y,z
_cell_length_a	17.077404
_cell_length_b	18.101397
_cell_length_c	17.077395
_cell_angle_alpha	89.969587
_cell_angle_beta	89.982416
_cell_angle_gamma	90.018712
loop_
_atom_site_label
_atom_site_type_symbol
_atom_site_fract_x
_atom_site_fract_y
_atom_site_fract_z
Zn1	Zn	1.200038	-0.294873	-0.443866
Zn2	Zn	1.199959	-0.418719	-0.312593
Zn3	Zn	1.068779	-0.294892	-0.312609
Zn4	Zn	1.068743	-0.418674	-0.443812
O5	O	1.134380	-0.356790	-0.378220
O6	O	1.309874	-0.311313	-0.426468
O7	O	1.182540	-0.402320	-0.202748
O8	O	1.086238	-0.191257	-0.330051
O9	O	1.309817	-0.402302	-0.330022
O10	O	1.182674	-0.191243	-0.426484
O11	O	1.086162	-0.311345	-0.202760
O12	O	0.958927	-0.311301	-0.329998
O13	O	1.086178	-0.402224	-0.553666
O14	O	0.958901	-0.402243	-0.426392
O15	O	1.182639	-0.311269	-0.553706
O16	O	1.182506	-0.522346	-0.329969
O17	O	1.086102	-0.522313	-0.426376
C18	C	0.930432	-0.356770	-0.378191
C19	C	0.843182	-0.356779	-0.378198
C20	C	0.467395	-0.309517	-0.428548
C21	C	0.549375	-0.309512	-0.428540
C22	C	0.590333	-0.356805	-0.378240
C23	C	0.549306	-0.404113	-0.327951
C24	C	0.467328	-0.404121	-0.327964
C25	C	0.720177	-0.404090	-0.327926
C26	C	0.802161	-0.404081	-0.327911
C27	C	0.802224	-0.309481	-0.428501
C28	C	0.720245	-0.309490	-0.428514
C29	C	0.679224	-0.356796	-0.378224
C30	C	1.134313	-0.549200	-0.378182
C31	C	1.134356	-0.631514	-0.378192
C32	C	1.134456	-0.930605	-0.378264
C33	C	1.194941	-0.899270	-0.317445
C34	C	1.195151	-0.813652	-0.317602
C35	C	1.134406	-0.782223	-0.378227
C36	C	1.156826	-0.813231	-0.460969
C37	C	1.157294	-0.898876	-0.460638
C38	C	1.051389	-0.899112	-0.357056
C39	C	1.051800	-0.813462	-0.355209
C40	C	1.134377	-0.698363	-0.378212
C41	C	1.134487	-1.014465	-0.378284
C42	C	1.339124	-0.356810	-0.378249
C43	C	1.426374	-0.356819	-0.378262
C44	C	1.134413	-0.356739	-0.582964
C45	C	1.134428	-0.356718	-0.670214
C46	C	1.134469	-0.163628	-0.378275
C47	C	1.134506	-0.081314	-0.378299
C48	C	1.184742	-0.309257	-1.046051
C49	C	1.184726	-0.309283	-0.964070
C50	C	1.134493	-0.356648	-0.923063
C51	C	1.084277	-0.403996	-0.964041
C52	C	1.084298	-0.403973	-1.046020
C53	C	1.084236	-0.404038	-0.793171
C54	C	1.084214	-0.404060	-0.711186
C55	C	1.184665	-0.309348	-0.711221
C56	C	1.184686	-0.309326	-0.793200
C57	C	1.134469	-0.356672	-0.834172
C58	C	1.134391	-0.356786	-0.174272
C59	C	1.134529	-0.356599	-0.087023
H60	H	0.686900	-0.270976	-0.469469
H61	H	1.225552	-0.270795	-0.677858
H62	H	1.043347	-0.442595	-0.826528
N63	N	0.675930	-0.455116	-0.273689
H64	H	0.714314	-0.485073	-0.241820
H65	H	0.641906	-0.424927	-0.237428
N66	N	0.846462	-0.258449	-0.482736
H67	H	0.904611	-0.265619	-0.475098
H68	H	0.832157	-0.270038	-0.538780
H69	H	1.043292	-0.442612	-0.677800
H70	H	1.256137	-0.920740	-0.331315
H71	H	1.043409	-0.442524	-1.079378
N72	N	1.030096	-0.455079	-0.919809
H73	H	0.974020	-0.443565	-0.934078
H74	H	1.042330	-0.507971	-0.934077
N75	N	0.593481	-0.455117	-0.273694
H76	H	0.555052	-0.485085	-0.241840
H77	H	0.627504	-0.489425	-0.305570
N78	N	1.176581	-0.785880	-0.236335
H79	H	1.221621	-0.754960	-0.216465
H80	H	1.127483	-0.754834	-0.238065
N81	N	0.423079	-0.455142	-0.273730
H82	H	0.461464	-0.485101	-0.241862
H83	H	0.389054	-0.424957	-0.237468
H84	H	0.434053	-0.271001	-0.469503
N85	N	0.593605	-0.258474	-0.482769
H86	H	0.627607	-0.224115	-0.450923
H87	H	0.627587	-0.288648	-0.519083
N88	N	0.846340	-0.455090	-0.273663
H89	H	0.807916	-0.485064	-0.241811
H90	H	0.880362	-0.489392	-0.305549
N91	N	1.236358	-0.784758	-0.485165
H92	H	1.273018	-0.827787	-0.493668
H93	H	1.231295	-0.755624	-0.535362
N94	N	1.176588	-0.926601	-0.235928
H95	H	1.128890	-0.959564	-0.237629
H96	H	1.222698	-0.955445	-0.215053
N97	N	1.276653	-0.786433	-0.336189
H98	H	1.312583	-0.830071	-0.344317
H99	H	1.275216	-0.755516	-0.385415
N100	N	1.238916	-0.258162	-1.090277
H101	H	1.270723	-0.228176	-1.051878
H102	H	1.275237	-0.288300	-1.124288
H103	H	1.218012	-0.918797	-0.478602
H104	H	1.115168	-0.919601	-0.507514
H105	H	1.225617	-0.270734	-0.930715
N106	N	1.024363	-0.927789	-0.278519
H107	H	1.021262	-0.983487	-0.280166
H108	H	1.062784	-0.912150	-0.236743
N109	N	1.100258	-0.786268	-0.522614
H110	H	1.059457	-0.753614	-0.497438
H111	H	1.129729	-0.757183	-0.563617
N112	N	1.238869	-0.258235	-0.837420
H113	H	1.275239	-0.288324	-0.871429
H114	H	1.206938	-0.223910	-0.871393
N115	N	1.029546	-0.786625	-0.274514
H116	H	1.069705	-0.804175	-0.235292
H117	H	1.027682	-0.730859	-0.274340
H118	H	1.006323	-0.919376	-0.401353
N119	N	0.988884	-0.785121	-0.409570
H120	H	1.013147	-0.751483	-0.450074
H121	H	0.962761	-0.828202	-0.436569
