data_functionalizedCrystal
_audit_creation_method	'MofGen! by Chris Wilmer'
_symmetry_space_group_name_H-M	'P1'
_symmetry_Int_Tables_number	1
_symmetry_cell_setting	triclinic
loop_
_symmetry_equiv_pos_as_xyz
  x,y,z
_cell_length_a	16.625546
_cell_length_b	12.759401
_cell_length_c	12.759393
_cell_angle_alpha	90.019559
_cell_angle_beta	89.963806
_cell_angle_gamma	89.979382
loop_
_atom_site_label
_atom_site_type_symbol
_atom_site_fract_x
_atom_site_fract_y
_atom_site_fract_z
Zn1	Zn	-0.320994	-1.606199	-0.593977
Zn2	Zn	0.012339	-1.272865	-0.260644
Zn3	Zn	0.345673	-0.939532	0.072689
Zn4	Zn	-0.455851	-1.606069	-0.418283
Zn5	Zn	-0.122517	-1.272736	-0.084950
Zn6	Zn	0.210816	-0.939403	0.248383
Zn7	Zn	-0.321031	-1.430501	-0.418313
Zn8	Zn	0.012302	-1.097167	-0.084980
Zn9	Zn	0.345635	-0.763834	0.248353
Zn10	Zn	-0.455784	-1.430465	-0.593921
Zn11	Zn	-0.122451	-1.097132	-0.260588
Zn12	Zn	0.210883	-0.763799	0.072745
O13	O	-0.388415	-1.518308	-0.506124
O14	O	-0.055082	-1.184975	-0.172791
O15	O	0.278252	-0.851642	0.160543
O16	O	-0.338895	-1.753202	-0.570682
O17	O	-0.005562	-1.419869	-0.237348
O18	O	0.327771	-1.086536	0.095985
O19	O	-0.438010	-1.582740	-0.271266
O20	O	-0.104677	-1.249407	0.062067
O21	O	0.228656	-0.916073	0.395401
O22	O	-0.208194	-1.453876	-0.441652
O23	O	0.125139	-1.120543	-0.108318
O24	O	0.458473	-0.787210	0.225015
O25	O	-0.437974	-1.753107	-0.441600
O26	O	-0.104641	-1.419774	-0.108267
O27	O	0.228693	-1.086441	0.225067
O28	O	-0.208166	-1.582961	-0.570711
O29	O	0.125167	-1.249628	-0.237378
O30	O	0.458500	-0.916294	0.095956
O31	O	-0.338959	-1.453751	-0.271288
O32	O	-0.005626	-1.120417	0.062045
O33	O	0.327708	-0.787084	0.395378
O34	O	-0.338894	-1.283475	-0.441597
O35	O	-0.005561	-0.950142	-0.108264
O36	O	0.327772	-0.616808	0.225069
O37	O	-0.437860	-1.453816	-0.740950
O38	O	-0.104527	-1.120483	-0.407617
O39	O	0.228807	-0.787150	-0.074283
O40	O	-0.437896	-1.283449	-0.570616
O41	O	-0.104563	-0.950116	-0.237283
O42	O	0.228770	-0.616782	0.096051
O43	O	-0.338830	-1.582927	-0.740991
O44	O	-0.005497	-1.249593	-0.407658
O45	O	0.327836	-0.916260	-0.074324
O46	O	-0.568674	-1.582706	-0.441546
O47	O	-0.235341	-1.249373	-0.108213
O48	O	0.097992	-0.916039	0.225121
O49	O	-0.568625	-1.453691	-0.570587
O50	O	-0.235292	-1.120357	-0.237253
O51	O	0.098042	-0.787024	0.096080
C52	C	-0.388393	-1.245341	-0.506105
C53	C	-0.055059	-0.912008	-0.172771
C54	C	0.278274	-0.578674	0.160562
C55	C	-0.388403	-1.128564	-0.506121
C56	C	-0.055069	-0.795231	-0.172788
C57	C	0.278264	-0.461898	0.160545
C58	C	-0.440034	-1.073716	-0.573189
C59	C	-0.106701	-0.740383	-0.239856
C60	C	0.226633	-0.407050	0.093478
C61	C	-0.440041	-0.963992	-0.573198
C62	C	-0.106708	-0.630659	-0.239865
C63	C	0.226625	-0.297326	0.093468
C64	C	-0.336783	-0.963974	-0.439063
C65	C	-0.003450	-0.630641	-0.105730
C66	C	0.329883	-0.297307	0.227604
C67	C	-0.336773	-1.073696	-0.439060
C68	C	-0.003439	-0.740363	-0.105727
C69	C	0.329894	-0.407029	0.227607
C70	C	-0.499652	-1.073726	-0.650628
C71	C	-0.166318	-0.740393	-0.317294
C72	C	0.167015	-0.407060	0.016039
C73	C	-0.499659	-0.964002	-0.650637
C74	C	-0.166326	-0.630669	-0.317304
C75	C	0.167008	-0.297335	0.016030
C76	C	-0.597906	-1.518209	-0.506080
C77	C	-0.264572	-1.184876	-0.172747
C78	C	0.068761	-0.851542	0.160587
C79	C	-0.687527	-1.518263	-0.506096
C80	C	-0.354194	-1.184929	-0.172763
C81	C	-0.020860	-0.851596	0.160570
C82	C	-1.015702	-1.518446	-0.506206
C83	C	-0.682369	-1.185113	-0.172872
C84	C	-0.349036	-0.851779	0.160461
C85	C	-0.924394	-1.518392	-0.506178
C86	C	-0.591061	-1.185058	-0.172845
C87	C	-0.257727	-0.851725	0.160489
C88	C	-0.851618	-1.518353	-0.506150
C89	C	-0.518284	-1.185020	-0.172817
C90	C	-0.184951	-0.851687	0.160516
C91	C	-0.760303	-1.518301	-0.506124
C92	C	-0.426970	-1.184967	-0.172791
C93	C	-0.093637	-0.851634	0.160543
C94	C	-0.178106	-1.518437	-0.506191
C95	C	0.155227	-1.185104	-0.172858
C96	C	0.488561	-0.851770	0.160476
C97	C	-0.088485	-1.518492	-0.506220
C98	C	0.244848	-1.185158	-0.172886
C99	C	0.578182	-0.851825	0.160447
C100	C	-0.388334	-1.518382	-0.780157
C101	C	-0.055000	-1.185049	-0.446824
C102	C	0.278333	-0.851715	-0.113491
C103	C	-0.388299	-1.518413	-0.896934
C104	C	-0.054966	-1.185080	-0.563601
C105	C	0.278368	-0.851747	-0.230267
C106	C	-0.388431	-0.792342	-0.506139
C107	C	-0.055098	-0.459008	-0.172806
C108	C	0.278236	-0.125675	0.160527
C109	C	-0.388421	-0.909118	-0.506134
C110	C	-0.055087	-0.575785	-0.172801
C111	C	0.278246	-0.242452	0.160533
C112	C	-0.336729	-1.585650	-0.951819
C113	C	-0.003396	-1.252317	-0.618486
C114	C	0.329937	-0.918984	-0.285152
C115	C	-0.336700	-1.585675	-1.061543
C116	C	-0.003367	-1.252342	-0.728210
C117	C	0.329967	-0.919009	-0.394877
C118	C	-0.439817	-1.451223	-1.061488
C119	C	-0.106484	-1.117890	-0.728154
C120	C	0.226849	-0.784557	-0.394821
C121	C	-0.439842	-1.451194	-0.951765
C122	C	-0.106508	-1.117861	-0.618432
C123	C	0.226825	-0.784527	-0.285099
C124	C	-0.277198	-1.663279	-0.951852
C125	C	0.056135	-1.329945	-0.618519
C126	C	0.389469	-0.996612	-0.285186
C127	C	-0.277169	-1.663304	-1.061576
C128	C	0.056165	-1.329970	-0.728243
C129	C	0.389498	-0.996637	-0.394910
C130	C	-0.388438	-1.518296	-0.233156
C131	C	-0.055104	-1.184962	0.100177
C132	C	0.278229	-0.851629	0.433510
C133	C	-0.388245	-1.518468	-0.116380
C134	C	-0.054912	-1.185135	0.216953
C135	C	0.278421	-0.851801	0.550286
H136	H	-0.477368	-0.930008	-0.727991
H137	H	-0.144035	-0.596675	-0.394657
H138	H	0.189299	-0.263342	-0.061324
H139	H	-0.562091	-0.934196	-0.628698
H140	H	-0.228757	-0.600862	-0.295364
H141	H	0.104576	-0.267529	0.037969
H142	H	-0.217837	-1.634200	-1.095630
H143	H	0.115497	-1.300867	-0.762297
H144	H	0.448830	-0.967534	-0.428963
H145	H	-0.294748	-0.919287	-0.384465
H146	H	0.038586	-0.585954	-0.051132
H147	H	0.371919	-0.252620	0.282202
H148	H	-0.294724	-1.118349	-0.384454
H149	H	0.038609	-0.785016	-0.051120
H150	H	0.371942	-0.451683	0.282213
H151	H	-0.299585	-1.740546	-0.917815
H152	H	0.033748	-1.407213	-0.584482
H153	H	0.367081	-1.073880	-0.251149
N154	N	-0.478748	-1.111114	-0.752752
N155	N	-0.145415	-0.777781	-0.419419
N156	N	0.187919	-0.444448	-0.086085
N157	N	-0.412337	-1.087475	-0.792153
N158	N	-0.079004	-0.754142	-0.458820
N159	N	0.254330	-0.420809	-0.125487
H160	H	-0.397572	-1.113879	-0.864277
H161	H	-0.064238	-0.780545	-0.530944
H162	H	0.269095	-0.447212	-0.197611
H163	H	-0.293896	-1.744671	-1.091354
H164	H	0.039438	-1.411338	-0.758021
H165	H	0.372771	-1.078005	-0.424688
H166	H	-0.481832	-1.396439	-0.907082
H167	H	-0.148498	-1.063106	-0.573749
H168	H	0.184835	-0.729773	-0.240415
N169	N	-0.492456	-1.382566	-1.117515
N170	N	-0.159122	-1.049233	-0.784181
N171	N	0.174211	-0.715900	-0.450848
N172	N	-0.492423	-1.382595	-1.215480
N173	N	-0.159090	-1.049261	-0.882147
N174	N	0.174243	-0.715928	-0.548813
H175	H	-0.529600	-1.334104	-1.255049
H176	H	-0.196267	-1.000771	-0.921716
H177	H	0.137066	-0.667437	-0.588383
N178	N	-0.198866	-1.635963	-0.914539
N179	N	0.134468	-1.302630	-0.581205
N180	N	0.467801	-0.969297	-0.247872
N181	N	-0.143657	-1.616735	-0.978229
N182	N	0.189676	-1.283401	-0.644896
N183	N	0.523009	-0.950068	-0.311562
H184	H	-0.088338	-1.597435	-0.951877
H185	H	0.244996	-1.264101	-0.618544
H186	H	0.578329	-0.930768	-0.285211
H187	H	-0.558940	-1.107730	-0.621338
H188	H	-0.225607	-0.774397	-0.288004
H189	H	0.107726	-0.441063	0.045329
