data_functionalizedCrystal
_audit_creation_method	'MofGen! by Chris Wilmer'
_symmetry_space_group_name_H-M	'P1'
_symmetry_Int_Tables_number	1
_symmetry_cell_setting	triclinic
loop_
_symmetry_equiv_pos_as_xyz
  x,y,z
_cell_length_a	16.992694
_cell_length_b	27.731996
_cell_length_c	15.455313
_cell_angle_alpha	87.363736
_cell_angle_beta	92.857794
_cell_angle_gamma	86.644806
loop_
_atom_site_label
_atom_site_type_symbol
_atom_site_fract_x
_atom_site_fract_y
_atom_site_fract_z
O1	O	1.042576	0.100468	0.072041
O2	O	0.814306	0.099344	0.072066
O3	O	0.935551	0.029815	0.072034
O4	O	0.921331	0.169996	0.072073
O5	O	0.928618	0.033774	-0.072226
O6	O	0.807373	0.103302	-0.072194
O7	O	1.035643	0.104427	-0.072219
Cu8	Cu	0.920875	0.104226	-0.085379
Cu9	Cu	0.929074	0.099544	0.085226
O10	O	0.914398	0.173955	-0.072187
C11	C	0.781645	0.099877	-0.000061
C12	C	0.694655	0.095563	-0.000052
C13	C	0.931792	0.013775	-0.000099
C14	C	0.930912	-0.039919	-0.000108
C15	C	0.643898	0.137186	-0.000041
C16	C	0.562161	0.133130	-0.000054
C17	C	0.531183	0.087450	-0.000072
C18	C	0.581946	0.045824	-0.000086
C19	C	0.663681	0.049880	-0.000079
C20	C	0.287793	0.070637	-0.000100
C21	C	0.206051	0.066584	-0.000104
C22	C	0.186272	0.153891	-0.000075
C23	C	0.268009	0.157943	-0.000063
C24	C	0.318765	0.116317	-0.000081
N25	N	0.447635	0.083303	-0.000083
N26	N	0.402311	0.120464	-0.000076
C27	C	0.929157	-0.375034	0.078571
C28	C	0.925816	-0.576837	0.078587
O29	O	0.928564	-0.604763	0.145465
N30	N	0.921622	-0.599915	-0.000048
C31	C	0.918257	-0.572538	-0.078693
O32	O	0.914605	-0.596796	-0.145577
C33	C	0.921592	-0.370735	-0.078708
C34	C	0.925795	-0.347661	-0.000068
C35	C	0.933358	-0.351960	0.157206
C36	C	0.934197	-0.301512	0.157201
C37	C	0.930835	-0.274139	0.078562
C38	C	0.926634	-0.297213	-0.000072
C39	C	0.918222	-0.343359	-0.157352
C40	C	0.919055	-0.292905	-0.157349
C41	C	0.923257	-0.269831	-0.078708
C42	C	0.924112	-0.219393	-0.078716
N43	N	0.928306	-0.196315	-0.000080
C44	C	0.931668	-0.223688	0.078559
C45	C	0.916508	-0.678487	-0.078680
C46	C	0.915676	-0.728937	-0.078677
C47	C	0.923233	-0.733234	0.078604
C48	C	0.924071	-0.682782	0.078600
C49	C	0.920702	-0.655410	-0.000045
C50	C	0.933431	-0.117745	0.078543
C51	C	0.934273	-0.067293	0.078531
C52	C	0.926712	-0.063001	-0.078749
C53	C	0.925874	-0.113449	-0.078738
C54	C	0.929231	-0.140819	-0.000085
O55	O	0.921357	-0.191436	-0.145558
O56	O	0.935302	-0.199420	0.145433
C57	C	0.928317	-0.425482	0.078576
C58	C	0.924116	-0.448556	-0.000058
C59	C	0.920754	-0.421183	-0.078697
C60	C	0.923284	-0.499007	-0.000055
C61	C	0.926645	-0.526380	0.078584
C62	C	0.930840	-0.503302	0.157220
C63	C	0.931679	-0.452855	0.157215
C64	C	0.916560	-0.444260	-0.157333
C65	C	0.915722	-0.494708	-0.157321
C66	C	0.919084	-0.522081	-0.078682
C67	C	1.068304	0.103893	-0.000090
C68	C	1.155294	0.108207	-0.000093
C69	C	0.918157	0.189996	-0.000052
C70	C	0.919037	0.243689	-0.000038
N71	N	0.915114	0.107518	-0.205373
C72	C	0.966640	0.077992	-0.250781
C73	C	0.962291	0.080487	-0.341587
C74	C	0.906417	0.112511	-0.386985
C75	C	0.854885	0.142037	-0.341571
C76	C	0.859232	0.139540	-0.250765
C77	C	0.887656	0.123278	-0.658561
C78	C	0.883315	0.125774	-0.749373
C79	C	0.990720	0.064223	-0.749383
C80	C	0.995065	0.061730	-0.658576
C81	C	0.943530	0.091255	-0.613170
N82	N	0.901971	0.115062	-0.479804
N83	N	0.947972	0.088701	-0.520353
N84	N	0.934841	0.096248	0.205220
H85	H	0.520837	0.167025	-0.000044
O86	O	0.928590	-0.657895	0.163417
H87	H	0.930781	-0.685410	0.218096
O88	O	0.936207	-0.427971	0.242035
H89	H	0.883335	-0.402839	0.245803
O90	O	0.936977	-0.381473	0.242038
H91	H	0.990211	-0.406810	0.245810
H92	H	0.817272	0.163582	-0.213795
O93	O	1.046294	0.032378	-0.798364
H94	H	1.108143	0.040441	-0.780928
H95	H	0.837813	0.151853	-0.786331
H96	H	0.329109	0.036742	-0.000116
O97	O	0.921353	-0.138346	-0.163550
H98	H	0.866264	-0.125387	-0.201252
H99	H	0.705007	0.015986	-0.000087
O100	O	0.934453	-0.532828	0.242042
H101	H	0.987682	-0.558170	0.245804
H102	H	0.912306	-0.513491	-0.221365
O103	O	0.926849	-0.762761	0.163426
H104	H	0.925556	-0.801717	0.150208
O105	O	1.017879	0.048651	-0.390567
H106	H	1.057473	0.025972	-0.343744
H107	H	0.936161	-0.140024	0.142589
O108	O	0.911150	-0.753824	-0.163495
H109	H	0.908944	-0.726308	-0.218173
O110	O	0.677307	0.186456	-0.000020
H111	H	0.711261	0.192003	-0.058811
O112	O	0.912948	-0.414740	-0.242154
H113	H	0.909900	-0.439267	-0.296826
O114	O	0.913682	-0.368235	-0.242177
H115	H	0.966557	-0.393362	-0.245965
O116	O	0.832082	0.155126	-0.609591
H117	H	0.792508	0.177817	-0.656417
O118	O	0.794627	0.176580	-0.390535
H119	H	0.759525	0.196690	-0.343702
H120	H	1.012142	0.051918	-0.213824
H121	H	0.293225	0.195140	-0.000038
H122	H	0.144938	0.187781	-0.000062
H123	H	0.180833	0.029384	-0.000118
O124	O	0.548540	-0.003447	-0.000108
H125	H	0.483178	0.000723	-0.000103
H126	H	0.916300	-0.270620	-0.221392
H127	H	0.937698	-0.048508	0.142573
O128	O	1.055321	0.027187	-0.609611
H129	H	1.090416	0.007070	-0.656443
H130	H	0.937616	-0.282729	0.221238
H131	H	0.913768	-0.656205	-0.142726
H132	H	0.923979	-0.040705	-0.142775
