data_functionalizedCrystal
_audit_creation_method	'MofGen! by Chris Wilmer'
_symmetry_space_group_name_H-M	'P1'
_symmetry_Int_Tables_number	1
_symmetry_cell_setting	triclinic
loop_
_symmetry_equiv_pos_as_xyz
  x,y,z
_cell_length_a	14.628931
_cell_length_b	12.970454
_cell_length_c	14.628931
_cell_angle_alpha	59.999840
_cell_angle_beta	90.000000
_cell_angle_gamma	59.999998
loop_
_atom_site_label
_atom_site_type_symbol
_atom_site_fract_x
_atom_site_fract_y
_atom_site_fract_z
Zr1	Zr	0.880619	1.128518	-0.119964
O2	O	0.734659	1.343608	-0.265926
O3	O	0.925364	0.913427	-0.075219
O4	O	0.925364	1.128517	-0.265925
O5	O	0.734658	1.128519	0.075212
O6	O	1.075797	1.128517	-0.265925
O7	O	0.734658	1.128518	-0.075220
O8	O	1.075796	0.743759	0.075214
O9	O	0.734659	1.513276	-0.265927
O10	O	1.056713	1.001896	-0.056136
O11	O	0.944447	1.001897	0.056130
O12	O	0.944447	1.255138	-0.168403
O13	O	0.832182	1.255139	-0.056137
Zr14	Zr	1.120541	1.128518	0.119957
Zr15	Zr	1.120541	1.128517	-0.119964
Zr16	Zr	0.880619	1.128518	0.119957
Zr17	Zr	0.880619	1.399118	-0.119966
Zr18	Zr	1.120541	0.857918	0.119958
O19	O	1.075796	1.343608	0.075211
O20	O	1.075797	1.343607	-0.265926
O21	O	0.734658	1.343610	0.075211
O22	O	1.266502	0.913427	0.265919
O23	O	1.266502	0.913426	-0.075218
O24	O	0.925364	0.913428	0.265918
O25	O	1.266502	1.128517	-0.075219
O26	O	1.075796	1.128518	0.265918
O27	O	0.925364	1.128519	0.265917
O28	O	1.266502	1.128517	0.075213
O29	O	0.925365	1.513275	-0.265927
O30	O	1.075796	0.743760	0.265919
O31	O	1.266502	0.743759	0.265920
O32	O	1.266502	0.743759	0.075214
O33	O	0.734658	1.513277	-0.075222
O34	O	0.925364	1.513276	-0.075221
O35	O	1.056713	1.001897	0.168395
O36	O	1.168979	1.001896	0.056130
O37	O	1.056713	1.255138	-0.056137
O38	O	0.944447	1.255139	0.056128
C39	C	1.000580	0.790038	-0.000002
C40	C	1.000580	0.675162	-0.000002
C41	C	0.700474	1.128519	-0.000004
C42	C	0.598621	1.128519	-0.000004
C43	C	0.608903	1.002894	0.055688
C44	C	0.503634	1.002892	0.055689
C45	C	1.300686	1.128517	-0.000003
C46	C	1.402539	1.128516	-0.000003
C47	C	1.000581	1.128517	-0.300108
C48	C	1.000581	1.128516	-0.401961
C49	C	1.000580	1.466997	-0.000005
C50	C	1.000580	1.581874	-0.000006
C51	C	0.944889	1.254141	-0.503062
C52	C	0.944888	1.254144	-0.608334
C53	C	1.000580	1.128519	0.300101
C54	C	1.000580	1.128519	0.401954
C55	C	1.300686	0.790037	-0.000002
C56	C	1.402539	0.675160	-0.000001
C57	C	1.000580	0.790039	0.300103
C58	C	1.000579	0.675163	0.401956
C59	C	1.300685	0.790038	0.300103
C60	C	1.402538	0.675162	0.401957
C61	C	0.700475	1.466997	-0.300110
C62	C	0.598622	1.581874	-0.401964
C63	C	0.700475	1.466998	-0.000006
C64	C	0.598621	1.581875	-0.000006
C65	C	1.000581	1.466996	-0.300110
C66	C	1.000581	1.581872	-0.401963
C67	C	1.508981	0.621214	0.391187
C68	C	1.604692	0.513290	0.486880
C69	C	1.593957	0.459308	0.593342
C70	C	1.487503	0.513267	0.604109
C71	C	1.391795	0.621196	0.508417
C72	C	0.492179	1.635834	-0.391194
C73	C	0.396468	1.743792	-0.486887
C74	C	0.407203	1.797779	-0.593349
C75	C	0.513657	1.743814	-0.604117
C76	C	0.609365	1.635866	-0.508425
C77	C	1.450371	0.527727	0.082878
C78	C	1.546063	0.419773	0.082883
C79	C	1.593926	0.459255	0.000011
C80	C	1.546085	0.606702	-0.082876
C81	C	1.450390	0.714654	-0.082884
C82	C	0.917693	0.714692	0.449788
C83	C	0.917671	0.606768	0.545481
C84	C	1.000539	0.459317	0.593345
C85	C	1.083430	0.419789	0.545504
C86	C	1.083447	0.527712	0.449808
C87	C	0.550789	1.542348	0.082880
C88	C	0.455097	1.650272	0.082902
C89	C	0.407234	1.797723	0.000032
C90	C	0.455075	1.837249	-0.082858
C91	C	0.550770	1.729326	-0.082874
C92	C	0.917702	1.729305	-0.449796
C93	C	0.917698	1.837259	-0.545489
C94	C	1.000569	1.797777	-0.593352
C95	C	1.083456	1.650329	-0.545510
C96	C	1.083464	1.542378	-0.449814
H97	H	0.695640	0.895344	0.103371
H98	H	0.589743	1.422293	0.150362
O99	O	0.524203	1.796223	-0.707483
C100	C	0.583313	1.858589	-0.719851
H101	H	0.575303	1.891194	-0.659385
H102	H	0.547024	1.959249	-0.809428
H103	H	0.675406	1.775758	-0.700745
O104	O	0.392083	1.256932	-0.056809
C105	C	0.333115	1.337381	-0.013720
H106	H	0.280203	1.299931	0.029134
H107	H	0.276321	1.458322	-0.085043
H108	H	0.395135	1.318946	0.049589
O109	O	1.164018	0.276533	0.592166
C110	C	1.224610	0.208526	0.703212
H111	H	1.216494	0.294113	0.713268
H112	H	1.316603	0.124603	0.723019
H113	H	1.189731	0.151870	0.763144
O114	O	0.408743	1.611606	0.163472
C115	C	0.471522	1.458320	0.236611
H116	H	0.519376	1.408816	0.191938
H117	H	0.412666	1.424117	0.263360
H118	H	0.533286	1.418075	0.313675
H119	H	0.512263	0.895339	0.103361
O120	O	0.495126	1.256794	-0.057034
C121	C	0.436298	1.264569	-0.139209
H122	H	0.498429	1.189611	-0.161014
H123	H	0.383284	1.381484	-0.217472
H124	H	0.379611	1.228901	-0.105593
H125	H	0.850208	0.834747	0.410829
O126	O	1.288482	0.673377	0.519087
C127	C	1.299546	0.602600	0.633576
H128	H	1.384958	0.493211	0.684595
H129	H	1.230929	0.583965	0.646936
H130	H	1.291697	0.673389	0.661773
O131	O	1.164086	0.489050	0.403528
C132	C	1.237202	0.335764	0.466290
H133	H	1.233226	0.286255	0.554850
H134	H	1.326388	0.301545	0.469881
H135	H	1.211116	0.295539	0.424890
O136	O	0.408400	1.980553	-0.163305
C137	C	0.313694	2.067313	-0.145490
H138	H	0.280300	2.001686	-0.094600
H139	H	0.246089	2.168030	-0.229620
H140	H	0.338110	2.102380	-0.097846
H141	H	1.048255	1.020961	-0.511319
H142	H	0.897216	1.361691	-0.511683
H143	H	0.483417	1.591884	-0.304516
O144	O	0.712781	1.583607	-0.518850
C145	C	0.771666	1.609948	-0.466987
H146	H	0.709579	1.704517	-0.462534
H147	H	0.824549	1.638580	-0.517763
H148	H	0.828485	1.508050	-0.378728
O149	O	0.888103	1.382330	-0.711882
C150	C	0.900729	1.353795	-0.793937
H151	H	0.979887	1.240158	-0.756541
H152	H	0.907476	1.438145	-0.867770
H153	H	0.825033	1.360010	-0.823854
O154	O	0.837090	1.767931	-0.403479
C155	C	0.763906	1.921214	-0.466276
H156	H	0.808581	1.970758	-0.514070
H157	H	0.737053	1.955424	-0.407441
H158	H	0.686908	1.961410	-0.528095
H159	H	1.517743	0.665150	0.304509
H160	H	1.048262	1.020966	-0.393340
O161	O	0.597052	1.767986	-0.163513
C162	C	0.534291	1.921272	-0.236629
H163	H	0.445731	1.970782	-0.232654
H164	H	0.530700	1.955490	-0.325816
H165	H	0.575692	1.961496	-0.210543
O166	O	0.837282	1.980548	-0.592070
C167	C	0.855018	2.067380	-0.686811
H168	H	0.946599	2.001814	-0.679536
H169	H	0.833281	2.168098	-0.691957
H170	H	0.799518	2.102443	-0.765549
O171	O	0.293128	1.796214	-0.476270
C172	C	0.280870	1.858643	-0.417231
H173	H	0.367025	1.809880	-0.364423
H174	H	0.230553	1.834944	-0.360330
H175	H	0.235121	1.981585	-0.479197
H176	H	1.000512	0.371455	0.671266
O177	O	1.403999	0.489103	0.163436
C178	C	1.466765	0.335820	0.236590
H179	H	1.514629	0.286291	0.191935
H180	H	1.407899	0.301634	0.263334
H181	H	1.528521	0.295584	0.313656
H182	H	0.329312	1.885586	0.000058
H183	H	1.000548	1.885691	-0.671276
O184	O	1.708008	0.460993	0.476206
C185	C	1.696947	0.531801	0.361718
H186	H	1.611542	0.576266	0.310704
H187	H	1.765574	0.450836	0.348371
H188	H	1.704781	0.625556	0.333502
H189	H	1.150928	1.618201	-0.584494
O190	O	1.164116	1.399211	-0.403379
C191	C	1.270211	1.368719	-0.371068
H192	H	1.265196	1.473677	-0.421971
H193	H	1.333499	1.286932	-0.386897
H194	H	1.297729	1.320889	-0.278212
H195	H	1.585069	0.638829	-0.150348
H196	H	1.671899	0.371425	0.671251
O197	O	1.477285	0.460609	0.707613
C198	C	1.584592	0.353802	0.789751
H199	H	1.648012	0.306632	0.752429
H200	H	1.583564	0.262969	0.863552
H201	H	1.608973	0.405434	0.819690
O202	O	1.592644	0.276484	0.163300
C203	C	1.687385	0.189652	0.145565
H204	H	1.680110	0.255216	0.053984
H205	H	1.692531	0.088932	0.167305
H206	H	1.766123	0.154591	0.201063
O207	O	0.837089	0.645436	0.591823
C208	C	0.763945	0.798722	0.529036
H209	H	0.808622	0.848228	0.481196
H210	H	0.737172	0.832931	0.587885
H211	H	0.686895	0.838958	0.467259
H212	H	0.329262	1.885677	-0.671258
O213	O	1.403785	0.857890	-0.163479
C214	C	1.292736	0.925971	-0.224120
H215	H	1.282630	0.840424	-0.216014
H216	H	1.272985	1.009856	-0.316106
H217	H	1.232798	0.982684	-0.189277
H218	H	1.671845	0.371339	0.000028
