data_functionalizedCrystal
_audit_creation_method	'MofGen! by Chris Wilmer'
_symmetry_space_group_name_H-M	'P1'
_symmetry_Int_Tables_number	1
_symmetry_cell_setting	triclinic
loop_
_symmetry_equiv_pos_as_xyz
  x,y,z
_cell_length_a	16.959454
_cell_length_b	19.077105
_cell_length_c	19.076919
_cell_angle_alpha	90.076224
_cell_angle_beta	87.724511
_cell_angle_gamma	92.283412
loop_
_atom_site_label
_atom_site_type_symbol
_atom_site_fract_x
_atom_site_fract_y
_atom_site_fract_z
Zn1	Zn	-0.382399	-1.058295	0.440440
Zn2	Zn	0.117601	-0.558295	0.940440
Zn3	Zn	-0.509490	-1.062944	0.322940
Zn4	Zn	-0.009490	-0.562944	0.822940
Zn5	Zn	-0.371810	-0.945513	0.318233
Zn6	Zn	0.128190	-0.445513	0.818233
Zn7	Zn	-0.509013	-0.940765	0.435693
Zn8	Zn	-0.009013	-0.440765	0.935693
O9	O	-0.443178	-1.001879	0.379326
O10	O	0.056822	-0.501879	0.879326
O11	O	-0.403889	-1.157244	0.428810
O12	O	0.096111	-0.657244	0.928810
O13	O	-0.486995	-1.051298	0.223984
O14	O	0.013005	-0.551298	0.723984
O15	O	-0.262606	-0.960515	0.334460
O16	O	0.237394	-0.460515	0.834460
O17	O	-0.497262	-1.160659	0.342484
O18	O	0.002738	-0.660659	0.842484
O19	O	-0.270386	-1.043376	0.424245
O20	O	0.229614	-0.543376	0.924245
O21	O	-0.385842	-0.965022	0.220526
O22	O	0.114158	-0.465022	0.720526
O23	O	-0.385379	-0.846551	0.329857
O24	O	0.114621	-0.346551	0.829857
O25	O	-0.496450	-0.952424	0.534654
O26	O	0.003550	-0.452424	1.034654
O27	O	-0.486182	-0.843063	0.416155
O28	O	0.013818	-0.343063	0.916155
O29	O	-0.403426	-1.038773	0.538142
O30	O	0.096574	-0.538773	1.038142
O31	O	-0.620035	-1.046695	0.337881
O32	O	-0.120035	-0.546695	0.837881
O33	O	-0.619685	-0.956931	0.420720
O34	O	-0.119685	-0.456931	0.920720
C35	C	-0.434581	-0.819311	0.371980
C36	C	0.065419	-0.319311	0.871980
C37	C	-0.430922	-0.741206	0.368854
C38	C	0.069078	-0.241206	0.868854
C39	C	-0.648541	-1.001821	0.379312
C40	C	-0.148541	-0.501821	0.879312
C41	C	-0.736400	-1.001859	0.379332
C42	C	-0.236400	-0.501859	0.879332
C43	C	-0.451066	-0.994550	0.562607
C44	C	0.048934	-0.494550	1.062607
C45	C	-0.454427	-0.991427	0.640710
C46	C	0.045573	-0.491427	1.140710
C47	C	-1.107727	-0.955205	0.422458
C48	C	-0.607727	-0.455205	0.922458
C49	C	-1.108038	-1.048747	0.336274
C50	C	-0.608038	-0.548747	0.836274
C51	C	-1.025491	-1.048723	0.336266
C52	C	-0.525491	-0.548723	0.836266
C53	C	-0.984058	-1.001938	0.379355
C54	C	-0.484058	-0.501938	0.879355
C55	C	-1.025172	-0.955178	0.422451
C56	C	-0.525172	-0.455178	0.922451
C57	C	-0.984370	-1.095477	0.293166
C58	C	-0.484370	-0.595477	0.793166
C59	C	-0.901818	-1.095454	0.293156
C60	C	-0.401818	-0.595454	0.793156
C61	C	-0.860383	-1.048672	0.336249
C62	C	-0.360383	-0.548672	0.836249
C63	C	-0.901503	-1.001911	0.379347
C64	C	-0.401503	-0.501911	0.879347
C65	C	-0.860069	-0.955126	0.422436
C66	C	-0.360069	-0.455126	0.922436
C67	C	-0.901187	-0.908367	0.465538
C68	C	-0.401187	-0.408367	0.965538
C69	C	-0.983737	-0.908396	0.465543
C70	C	-0.483737	-0.408396	0.965543
C71	C	-0.777834	-1.048644	0.336244
C72	C	-0.277834	-0.548644	0.836244
C73	C	-0.777514	-0.955099	0.422428
C74	C	-0.277514	-0.455099	0.922428
C75	C	-0.237015	-1.001956	0.379357
C76	C	0.262985	-0.501956	0.879357
C77	C	-0.149160	-1.001989	0.379370
C78	C	0.350840	-0.501989	0.879370
C79	C	-0.451810	-1.185161	0.386702
C80	C	0.048190	-0.685161	0.886702
C81	C	-0.455488	-1.263265	0.389844
C82	C	0.044512	-0.763265	0.889844
C83	C	-0.481759	-0.702718	0.412246
C84	C	0.018241	-0.202718	0.912246
C85	C	-0.478312	-0.629330	0.409312
C86	C	0.021688	-0.129330	0.909312
C87	C	-0.424030	-0.594433	0.362983
C88	C	0.075970	-0.094433	0.862983
C89	C	-0.373188	-0.632926	0.319590
C90	C	0.126812	-0.132926	0.819590
C91	C	-0.376632	-0.706312	0.322528
C92	C	0.123368	-0.206312	0.822528
C93	C	-0.408090	-0.375144	0.349389
C94	C	0.091910	0.124856	0.849389
C95	C	-0.404651	-0.301753	0.346453
C96	C	0.095349	0.198247	0.846453
C97	C	-0.509774	-0.298162	0.436177
C98	C	-0.009774	0.201838	0.936177
C99	C	-0.513217	-0.371550	0.439107
C100	C	-0.013217	0.128450	0.939107
C101	C	-0.462372	-0.410037	0.395717
C102	C	0.037628	0.089963	0.895717
N103	N	-0.420507	-0.519419	0.359981
N104	N	0.079493	-0.019419	0.859981
N105	N	-0.465892	-0.485049	0.398723
N106	N	0.034108	0.014951	0.898723
C107	C	-0.435266	-1.009220	0.196760
C108	C	0.064734	-0.509220	0.696760
C109	C	-0.431688	-1.012479	0.118663
C110	C	0.068312	-0.512479	0.618663
C111	C	-0.407577	-1.034915	0.679220
C112	C	0.092423	-0.534915	1.179220
C113	C	-0.410731	-1.031972	0.752606
C114	C	0.089269	-0.531972	1.252606
C115	C	-0.460742	-0.985544	0.787481
C116	C	0.039258	-0.485544	1.287481
C117	C	-0.507595	-0.942052	0.748966
C118	C	-0.007595	-0.442052	1.248966
C119	C	-0.504435	-0.944992	0.675581
C120	C	-0.004435	-0.444992	1.175581
C121	C	-0.475381	-0.971927	1.006763
C122	C	0.024619	-0.471927	1.506763
C123	C	-0.478539	-0.968992	1.080153
C124	C	0.021461	-0.468992	1.580153
C125	C	-0.381674	-1.058911	1.083788
C126	C	0.118326	-0.558911	1.583788
C127	C	-0.378523	-1.061850	1.010402
C128	C	0.121477	-0.561850	1.510402
C129	C	-0.425372	-1.018355	0.971893
C130	C	0.074628	-0.518355	1.471893
N131	N	-0.463970	-0.982536	0.862493
N132	N	0.036030	-0.482536	1.362493
N133	N	-0.422140	-1.021360	0.896882
N134	N	0.077860	-0.521360	1.396882
H135	H	-0.743785	-0.917003	0.457519
H136	H	-0.243785	-0.417003	0.957519
F137	F	-0.360894	-1.078282	0.793589
F138	F	0.139106	-0.578282	1.293589
H139	H	-0.867443	-0.870272	0.500618
H140	H	-0.367443	-0.370272	1.000618
H141	H	-0.513541	-0.936521	0.975418
H142	H	-0.013541	-0.436521	1.475418
H143	H	-0.542578	-0.909572	0.644227
H144	H	-0.042578	-0.409572	1.144227
H145	H	-1.141209	-0.917137	0.457553
H146	H	-0.641209	-0.417137	0.957553
F147	F	-0.346879	-0.264614	0.297137
F148	F	0.153121	0.235386	0.797137
H149	H	-0.868345	-1.133528	0.258061
H150	H	-0.368345	-0.633528	0.758061
F151	F	-1.027503	-0.858635	0.511411
F152	F	-0.527503	-0.358635	1.011411
F153	F	-0.322523	-0.747274	0.276346
F154	F	0.177477	-0.247274	0.776346
F155	F	-0.325295	-1.111265	0.973291
F156	F	0.174705	-0.611265	1.473291
F157	F	-0.331815	-1.105197	1.124777
F158	F	0.168185	-0.605197	1.624777
H159	H	-1.141778	-1.086833	0.301189
H160	H	-0.641778	-0.586833	0.801189
H161	H	-1.018111	-1.133562	0.258080
H162	H	-0.518111	-0.633562	0.758080
H163	H	-0.366855	-1.072724	0.650831
H164	H	0.133145	-0.572724	1.150831
F165	F	-0.531766	-0.919572	1.117268
F166	F	-0.031766	-0.419572	1.617268
F167	F	-0.734076	-1.098398	0.290368
F168	F	-0.234076	-0.598398	0.790368
H169	H	-0.525964	-0.731126	0.449970
H170	H	-0.025964	-0.231126	0.949970
F171	F	-0.560817	-0.892637	0.786084
F172	F	-0.060817	-0.392637	1.286084
H173	H	-0.557420	-0.399959	0.476832
H174	H	-0.057420	0.100041	0.976832
F175	F	-0.532420	-0.588371	0.455495
F176	F	-0.032420	-0.088371	0.955495
H177	H	-0.366694	-0.406472	0.314052
H178	H	0.133306	0.093528	0.814052
F179	F	-0.563885	-0.257197	0.482351
F180	F	-0.063885	0.242803	0.982351
H181	H	-0.328988	-0.604506	0.281870
H182	H	0.171012	-0.104506	0.781870
