data_functionalizedCrystal
_audit_creation_method	'MofGen! by Chris Wilmer'
_symmetry_space_group_name_H-M	'P1'
_symmetry_Int_Tables_number	1
_symmetry_cell_setting	triclinic
loop_
_symmetry_equiv_pos_as_xyz
  x,y,z
_cell_length_a	23.096457
_cell_length_b	23.196402
_cell_length_c	23.196402
_cell_angle_alpha	90.003332
_cell_angle_beta	59.998579
_cell_angle_gamma	60.005245
loop_
_atom_site_label
_atom_site_type_symbol
_atom_site_fract_x
_atom_site_fract_y
_atom_site_fract_z
Zr1	Zr	0.633714	-0.075639	0.555383
O2	O	0.754500	-0.167682	0.463326
O3	O	0.512928	-0.047426	0.583601
O4	O	0.633712	-0.167689	0.583594
O5	O	0.633718	0.047452	0.463341
O6	O	0.633709	-0.167691	0.678466
O7	O	0.633716	-0.047418	0.463333
O8	O	0.417649	0.047438	0.678479
O9	O	0.849778	-0.167678	0.463328
O10	O	0.562607	-0.035391	0.666440
O11	O	0.562609	0.035411	0.595644
O12	O	0.704817	-0.106184	0.595636
O13	O	0.704820	-0.035382	0.524840
Zr14	Zr	0.633712	0.075665	0.706705
Zr15	Zr	0.633710	-0.075642	0.706693
Zr16	Zr	0.633716	0.075668	0.555396
Zr17	Zr	0.785671	-0.075632	0.555387
Zr18	Zr	0.481755	0.075658	0.706702
O19	O	0.754498	0.047452	0.678487
O20	O	0.754495	-0.167686	0.678469
O21	O	0.754504	0.047457	0.463344
O22	O	0.512925	0.167708	0.798762
O23	O	0.512922	-0.047431	0.798744
O24	O	0.512931	0.167713	0.583619
O25	O	0.633708	-0.047425	0.798747
O26	O	0.633714	0.167716	0.678494
O27	O	0.633717	0.167718	0.583622
O28	O	0.633709	0.047444	0.798755
O29	O	0.849775	-0.167680	0.583599
O30	O	0.417651	0.167707	0.678489
O31	O	0.417647	0.167704	0.798760
O32	O	0.417646	0.047435	0.798750
O33	O	0.849780	-0.047409	0.463339
O34	O	0.849777	-0.047412	0.583610
O35	O	0.562609	0.106210	0.666452
O36	O	0.562606	0.035408	0.737248
O37	O	0.704816	-0.035385	0.666444
O38	O	0.704819	0.035417	0.595648
C39	C	0.443637	0.000005	0.631039
C40	C	0.379128	0.000002	0.631038
C41	C	0.633718	0.000017	0.441779
C42	C	0.633719	0.000019	0.377544
C43	C	0.633716	0.189275	0.631060
C44	C	0.633717	0.253508	0.631066
C45	C	0.348825	-0.036958	0.667988
C46	C	0.288203	-0.036952	0.667994
C47	C	0.257897	0.000004	0.631038
C48	C	0.288203	0.036973	0.594086
C49	C	0.348819	0.036972	0.594086
N50	N	0.195503	-0.005119	0.570892
N51	N	0.137922	-0.005122	0.570893
C52	C	0.075265	0.000011	0.631037
N53	N	0.072371	0.005133	0.691178
N54	N	0.129960	0.005132	0.691175
C55	C	0.192169	0.000010	0.631034
C56	C	-0.020772	-0.036945	0.667998
C57	C	-0.081399	-0.036934	0.668007
C58	C	-0.081391	0.036986	0.594092
C59	C	-0.020771	0.036980	0.594089
C60	C	0.009537	0.000011	0.631041
C61	C	0.823788	0.000021	0.631049
C62	C	0.888298	0.000024	0.631051
C63	C	0.633710	-0.189248	0.631028
C64	C	0.633709	-0.253482	0.631023
C65	C	0.707947	0.246730	0.594110
C66	C	0.707948	0.307085	0.594099
C67	C	0.633715	0.374217	0.631059
C68	C	0.559475	0.380992	0.668016
C69	C	0.559476	0.320638	0.668020
C70	C	0.576841	0.498150	0.692960
C71	C	0.576843	0.558501	0.692959
C72	C	0.633709	0.560370	0.631047
C73	C	0.690586	0.501874	0.569137
C74	C	0.690587	0.441519	0.569140
C75	C	0.633705	0.439665	0.631059
C76	C	0.707945	0.619033	0.594076
C77	C	0.707943	0.679390	0.594064
C78	C	0.559468	0.753297	0.667988
C79	C	0.559472	0.692940	0.667993
C80	C	0.633713	0.625811	0.631039
C81	C	0.633725	-0.052249	0.347367
C82	C	0.633717	-0.052249	0.287016
C83	C	0.633721	0.000014	0.256836
C84	C	0.633711	0.052291	0.287022
C85	C	0.633710	0.052293	0.347376
C86	C	0.681433	0.016301	0.137463
C87	C	0.681439	0.016294	0.077108
C88	C	0.633720	0.000010	0.070685
C89	C	0.586006	-0.016282	0.124621
C90	C	0.586005	-0.016280	0.184975
C91	C	0.633722	0.000017	0.191392
C92	C	0.633716	-0.052261	-0.024930
C93	C	0.633704	-0.052256	-0.085280
C94	C	0.633706	0.052281	-0.085277
C95	C	0.633710	0.052279	-0.024924
C96	C	0.633719	0.000004	0.005243
C97	C	0.633708	0.000009	0.820309
C98	C	0.633706	0.000008	0.884544
C99	C	0.443633	0.000001	0.820305
C100	C	0.379121	-0.000003	0.884538
C101	C	0.443640	0.189267	0.631055
C102	C	0.379131	0.253497	0.631059
C103	C	0.443635	0.189263	0.820321
C104	C	0.379125	0.253492	0.884559
C105	C	0.823790	-0.189236	0.441768
C106	C	0.888301	-0.253466	0.377529
C107	C	0.823793	0.000025	0.441784
C108	C	0.888305	0.000029	0.377550
C109	C	0.823785	-0.189240	0.631033
C110	C	0.888294	-0.253471	0.631029
C111	C	0.348826	-0.036968	0.877742
C112	C	0.288219	-0.036986	0.938090
C113	C	0.257904	-0.000034	1.005234
C114	C	0.288205	0.036931	1.012029
C115	C	0.348815	0.036945	0.951681
C116	C	0.348837	0.320624	0.668022
C117	C	0.288233	0.380981	0.668023
C118	C	0.257920	0.374211	0.631065
C119	C	0.288220	0.307078	0.594097
C120	C	0.348827	0.246722	0.594093
C121	C	0.348829	0.246697	0.951688
C122	C	0.288223	0.307042	1.012053
C123	C	0.257910	0.374181	1.005288
C124	C	0.288212	0.380974	0.938152
C125	C	0.348821	0.320630	0.877789
C126	C	0.918605	-0.246671	0.310401
C127	C	0.979229	-0.307015	0.250036
C128	C	1.009545	-0.374154	0.256801
C129	C	0.979239	-0.380948	0.323936
C130	C	0.918620	-0.320604	0.384299
C131	C	0.918606	0.036987	0.384347
C132	C	0.979230	0.036989	0.323998
C133	C	1.009547	0.000036	0.256854
C134	C	0.979243	-0.036927	0.250060
C135	C	0.918625	-0.036932	0.310407
C136	C	0.918588	-0.246678	0.667994
C137	C	0.979193	-0.307024	0.668005
C138	C	1.009507	-0.374163	0.631045
C139	C	0.979207	-0.380954	0.594079
C140	C	0.918599	-0.320609	0.594073
H141	H	0.263526	-0.067051	0.698085
H142	H	1.058906	-0.423285	0.207643
C143	C	0.885292	-0.328089	0.553399
H144	H	0.912037	-0.376718	0.531384
H145	H	0.828066	-0.306089	0.585286
H146	H	0.895244	-0.306088	0.518418
C147	C	0.753141	0.503916	0.501028
H148	H	0.787016	0.460434	0.464161
H149	H	0.724982	0.541473	0.488034
H150	H	0.786032	0.511092	0.508871
H151	H	0.263555	-0.067087	0.932543
C152	C	0.254893	0.299556	1.085892
H153	H	0.281619	0.250927	1.081270
H154	H	0.264830	0.321552	1.110982
H155	H	0.197664	0.321562	1.110973
C156	C	1.012586	-0.454803	0.331368
H157	H	1.053020	-0.489763	0.285800
H158	H	1.036233	-0.460110	0.356446
H159	H	0.969070	-0.460103	0.356434
C160	C	1.012548	-0.299530	0.176196
H161	H	0.985797	-0.250901	0.180818
H162	H	1.069772	-0.321522	0.151110
H163	H	1.002613	-0.321539	0.151111
H164	H	0.893947	-0.326145	0.438956
H165	H	0.263524	0.067064	0.563996
C166	C	0.191235	0.440553	1.071691
H167	H	0.177531	0.426884	1.112637
H168	H	0.211093	0.467863	1.071708
H169	H	0.143935	0.467852	1.071702
H170	H	0.893955	-0.067026	0.304864
H171	H	0.373485	0.192067	0.563996
H172	H	0.768396	0.564372	0.563982
C173	C	0.633709	-0.109751	0.008265
H174	H	0.633696	-0.140874	-0.018346
H175	H	0.681197	-0.135567	0.008166
H176	H	0.586212	-0.088274	0.055456
C177	C	0.382172	0.077612	0.553424
H178	H	0.422615	0.072316	0.558715
H179	H	0.405815	0.059357	0.504803
H180	H	0.338666	0.126239	0.571675
H181	H	0.373499	-0.067059	0.698078
C182	C	0.753137	0.377182	0.501043
H183	H	0.787002	0.386936	0.464166
H184	H	0.786026	0.337267	0.508885
H185	H	0.724965	0.367661	0.488059
H186	H	0.633706	0.094857	0.371947
H187	H	0.263569	0.435638	0.698128
H188	H	1.003893	0.067091	0.329545
H189	H	0.893926	0.067084	0.439013
H190	H	0.003904	-0.067045	0.698089
H191	H	0.547153	-0.029543	0.228888
C192	C	0.633720	0.109778	0.253827
H193	H	0.633712	0.140911	0.280448
H194	H	0.681211	0.088309	0.206639
H195	H	0.586226	0.135592	0.253929
H196	H	0.373511	0.326149	0.698118
C197	C	1.076224	0.000049	0.190479
H198	H	1.089918	0.027360	0.204149
H199	H	1.123520	-0.047031	0.163168
H200	H	1.056356	0.019844	0.163176
H201	H	0.499027	0.326162	0.698114
H202	H	0.208569	0.423363	0.631074
H203	H	0.263530	0.301576	0.564007
C204	C	0.885251	-0.172835	0.708656
H205	H	0.911973	-0.177442	0.730676
H206	H	0.895188	-0.147750	0.676762
H207	H	0.828021	-0.147760	0.743632
C208	C	1.012606	-0.454806	0.553376
H209	H	0.985898	-0.450216	0.531345
H210	H	1.069829	-0.479839	0.518416
H211	H	1.002696	-0.479922	0.585246
C212	C	0.382164	0.172852	0.959143
H213	H	0.355440	0.177458	1.007771
H214	H	0.372228	0.147769	0.937138
H215	H	0.439394	0.147777	0.937132
H216	H	-0.106075	-0.067029	0.698100
C217	C	0.382135	0.077608	0.959162
H218	H	0.422580	0.072323	0.913609
H219	H	0.338616	0.126225	0.984249
H220	H	0.405782	0.059348	0.984239
C221	C	1.012592	-0.077566	0.176200
H222	H	1.053026	-0.072259	0.141238
H223	H	1.036242	-0.126190	0.170888
H224	H	0.969077	-0.059307	0.170902
H225	H	0.633705	0.094837	-0.109847
H226	H	0.263523	0.435647	0.932655
H227	H	0.373481	0.326173	0.823132
C228	C	0.885277	-0.172826	0.302945
H229	H	0.912022	-0.177432	0.254317
H230	H	0.828052	-0.147742	0.324947
H231	H	0.895217	-0.147752	0.324960
H232	H	1.003857	-0.301481	0.698106
C233	C	1.076181	-0.440536	0.631051
H234	H	1.089883	-0.426869	0.658355
H235	H	1.056322	-0.467847	0.650835
H236	H	1.123481	-0.467834	0.583960
H237	H	0.003904	0.067075	0.563998
C238	C	-0.114721	0.077638	0.553440
H239	H	-0.155159	0.072343	0.558728
H240	H	-0.138363	0.126258	0.571693
H241	H	-0.071202	0.059384	0.504813
H242	H	0.768397	0.301565	0.564002
C243	C	0.789609	0.172893	0.553454
H244	H	0.833818	0.177503	0.531437
H245	H	0.792697	0.147813	0.585353
H246	H	0.792696	0.147810	0.518476
H247	H	0.768393	0.673865	0.563965
H248	H	0.499025	0.807956	0.698076
H249	H	0.530534	0.606125	0.743370
C250	C	0.477820	0.700391	0.708651
H251	H	0.488452	0.654832	0.703355
H252	H	0.447315	0.725471	0.757273
H253	H	0.447321	0.725460	0.690393
C254	C	0.514277	0.496106	0.761065
H255	H	0.480410	0.539583	0.797935
H256	H	0.481392	0.488932	0.753217
H257	H	0.542434	0.458547	0.774062
H258	H	0.499034	0.435655	0.698107
H259	H	0.633729	-0.094813	0.371929
H260	H	0.633721	-0.094814	0.262442
H261	H	0.263513	0.067015	1.066705
C262	C	0.533501	-0.034183	0.117572
H263	H	0.540323	-0.031840	0.073909
H264	H	0.550266	-0.080475	0.119109
H265	H	0.477516	-0.001262	0.155344
C266	C	0.633711	-0.109755	-0.118475
H267	H	0.633724	-0.140889	-0.091866
H268	H	0.586221	-0.088293	-0.118374
H269	H	0.681206	-0.135567	-0.165667
H270	H	0.633711	0.094838	-0.000355
H271	H	0.720294	0.029556	0.033195
H272	H	0.720241	0.029620	0.142710
H273	H	0.373508	-0.067066	0.823075
C274	C	0.191227	-0.000048	1.071610
H275	H	0.177524	-0.027350	1.057939
H276	H	0.211083	-0.019834	1.098919
H277	H	0.143927	0.047038	1.098913
