data_functionalizedCrystal
_audit_creation_method	'MofGen! by Chris Wilmer'
_symmetry_space_group_name_H-M	'P1'
_symmetry_Int_Tables_number	1
_symmetry_cell_setting	triclinic
loop_
_symmetry_equiv_pos_as_xyz
  x,y,z
_cell_length_a	12.784905
_cell_length_b	10.489716
_cell_length_c	11.295483
_cell_angle_alpha	94.140629
_cell_angle_beta	86.327249
_cell_angle_gamma	78.818228
loop_
_atom_site_label
_atom_site_type_symbol
_atom_site_fract_x
_atom_site_fract_y
_atom_site_fract_z
O1	O	1.417464	-0.001392	-0.099032
O2	O	1.108423	0.053187	-0.099029
O3	O	1.269990	-0.160562	-0.099035
O4	O	1.255898	0.212357	-0.099026
O5	O	1.255799	-0.141815	0.099016
O6	O	1.094232	0.071934	0.099022
O7	O	1.403273	0.017356	0.099019
Cu8	Cu	1.247457	0.046357	0.117104
Cu9	Cu	1.264239	0.024186	-0.117114
O10	O	1.241707	0.231104	0.099025
C11	C	1.061755	0.066110	-0.000003
C12	C	0.943841	0.076672	-0.000003
C13	C	0.745828	-0.138510	-0.000029
C14	C	0.635038	-0.128592	-0.000029
C15	C	0.611470	0.106422	-0.000010
C16	C	0.722260	0.096505	-0.000011
C17	C	0.789435	-0.025965	-0.000018
C18	C	0.900227	-0.035881	-0.000010
C19	C	0.876658	0.199132	-0.000000
C20	C	0.765868	0.209049	0.000000
C21	C	1.261836	-0.198592	-0.000013
C22	C	1.258669	-0.339837	-0.000024
C23	C	1.357745	-0.449592	-0.000014
C24	C	1.312387	-0.529812	-0.097660
C25	C	1.298373	-0.511289	0.097603
C26	C	1.213358	-0.418204	-0.097750
C27	C	1.199352	-0.399670	0.097600
C28	C	1.153923	-0.479834	-0.000070
C29	C	1.449942	0.004432	-0.000009
C30	C	1.567856	-0.006130	-0.000017
C31	C	1.249861	0.269134	0.000000
C32	C	1.253028	0.410379	0.000003
N33	N	1.235661	0.061949	0.281841
N34	N	1.276044	0.008582	-0.281851
C35	C	1.360958	-0.103731	0.531126
C36	C	1.352052	-0.091940	0.655790
C37	C	1.208936	0.097317	0.655835
C38	C	1.217843	0.085526	0.531171
C39	C	1.293857	-0.015001	0.468821
C40	C	1.302769	-0.026786	0.344155
C41	C	1.159649	0.162465	0.344202
C42	C	1.150742	0.174256	0.468866
H43	H	0.912173	0.290775	0.000015
H44	H	1.364666	-0.108636	0.293390
H45	H	1.422860	-0.185576	0.480360
O46	O	1.341387	-0.560024	0.195969
C47	C	1.478088	-0.717350	0.272512
C48	C	1.429487	-0.662264	0.161024
H49	H	1.549311	-0.800038	0.244300
H50	H	1.505704	-0.636809	0.328063
H51	H	1.415167	-0.756043	0.327721
H52	H	1.492351	-0.623582	0.105723
H53	H	1.401845	-0.742849	0.105562
O54	O	0.700512	0.327922	-0.000148
C55	C	0.569148	0.465838	-0.102771
C56	C	0.643092	0.331149	-0.102743
H57	H	0.522721	0.468500	-0.185723
H58	H	0.510681	0.484210	-0.019944
H59	H	0.619366	0.544558	-0.102702
H60	H	0.592961	0.252345	-0.102855
H61	H	0.701563	0.312889	-0.185564
O62	O	1.170750	-0.369811	-0.196446
C63	C	1.199926	-0.266042	-0.375783
C64	C	1.248310	-0.320824	-0.264071
H65	H	1.262604	-0.226397	-0.430476
H66	H	1.173224	-0.346980	-0.431758
H67	H	1.128094	-0.184103	-0.347767
H68	H	1.320175	-0.402743	-0.291981
H69	H	1.274937	-0.239809	-0.208124
H70	H	1.443933	-0.435434	-0.000114
H71	H	0.599538	-0.220238	-0.000040
O72	O	1.369165	-0.597134	-0.196237
C73	C	1.365533	-0.734255	-0.375915
C74	C	1.301094	-0.658052	-0.264346
H75	H	1.310530	-0.783550	-0.430999
H76	H	1.400993	-0.664226	-0.431571
H77	H	1.432812	-0.811483	-0.347719
H78	H	1.233767	-0.580822	-0.292435
H79	H	1.265713	-0.728162	-0.208717
H80	H	1.088849	0.256100	0.519646
H81	H	1.147039	0.179155	0.706617
O82	O	1.051039	-0.496405	-0.000335
C83	C	0.889967	-0.467448	-0.103491
C84	C	1.006473	-0.448629	-0.103346
H85	H	0.853893	-0.428807	-0.186753
H86	H	0.888151	-0.575622	-0.102772
H87	H	0.841578	-0.411762	-0.020994
H88	H	1.054930	-0.504238	-0.185829
H89	H	1.008207	-0.340430	-0.104003
H90	H	1.105014	0.234718	0.293459
O91	O	1.142441	-0.332548	0.196178
C92	C	1.035719	-0.343427	0.377521
C93	C	1.100148	-0.419606	0.265936
H94	H	1.001489	-0.413777	0.433939
H95	H	1.090367	-0.292681	0.431824
H96	H	0.967538	-0.267395	0.349360
H97	H	1.168332	-0.495701	0.293992
H98	H	1.045429	-0.470261	0.211660
H99	H	1.406690	-0.164195	0.706515
H100	H	0.954919	-0.135602	-0.000014
H101	H	0.800523	-0.238229	-0.000027
H102	H	0.556759	0.206129	-0.000020
