data_functionalizedCrystal
_audit_creation_method	'MofGen! by Chris Wilmer'
_symmetry_space_group_name_H-M	'P1'
_symmetry_Int_Tables_number	1
_symmetry_cell_setting	triclinic
loop_
_symmetry_equiv_pos_as_xyz
  x,y,z
_cell_length_a	14.044220
_cell_length_b	8.140239
_cell_length_c	9.065218
_cell_angle_alpha	90.001686
_cell_angle_beta	89.102381
_cell_angle_gamma	89.997843
loop_
_atom_site_label
_atom_site_type_symbol
_atom_site_fract_x
_atom_site_fract_y
_atom_site_fract_z
O1	O	1.260761	0.136426	0.356074
O2	O	0.984682	0.136468	0.343225
O3	O	1.128428	0.136443	0.135640
O4	O	1.117015	0.136451	0.563660
O5	O	1.128420	-0.136784	0.135636
O6	O	0.984674	-0.136759	0.343222
O7	O	1.260753	-0.136801	0.356071
Zn8	Zn	1.122712	-0.180160	0.349646
Zn9	Zn	1.122723	0.179828	0.349650
O10	O	1.117007	-0.136776	0.563656
C11	C	0.949315	-0.000140	0.337599
C12	C	0.843945	-0.000124	0.320822
N13	N	1.122712	-0.425843	0.349642
C14	C	0.651021	-0.000157	0.290150
C15	C	0.594409	-0.000161	0.409139
C16	C	0.487059	-0.000180	0.392073
C17	C	0.758381	-0.000138	0.307214
C18	C	1.296120	-0.000189	0.361697
C19	C	1.401490	-0.000195	0.378474
C20	C	1.127327	-0.000168	0.080530
C21	C	1.124048	-0.000159	-0.083677
N22	N	1.122731	0.425511	0.349643
C23	C	1.118108	-0.000161	0.618766
C24	C	1.121388	-0.000159	0.782972
H25	H	0.626565	-0.000151	0.523826
H26	H	0.618867	-0.000168	0.175472
