data_functionalizedCrystal
_audit_creation_method	'MofGen! by Chris Wilmer'
_symmetry_space_group_name_H-M	'P1'
_symmetry_Int_Tables_number	1
_symmetry_cell_setting	triclinic
loop_
_symmetry_equiv_pos_as_xyz
  x,y,z
_cell_length_a	21.295420
_cell_length_b	21.295417
_cell_length_c	10.686551
_cell_angle_alpha	85.588773
_cell_angle_beta	85.602548
_cell_angle_gamma	90.025484
loop_
_atom_site_label
_atom_site_type_symbol
_atom_site_fract_x
_atom_site_fract_y
_atom_site_fract_z
Zn1	Zn	0.989670	-0.223330	-0.713467
Zn2	Zn	1.489670	0.276670	-0.213467
Zn3	Zn	0.981496	-0.336692	-0.502439
Zn4	Zn	1.481496	0.163308	-0.002439
Zn5	Zn	0.876317	-0.231432	-0.502474
Zn6	Zn	1.376317	0.268568	-0.002474
Zn7	Zn	0.884361	-0.328560	-0.713385
Zn8	Zn	1.384361	0.171440	-0.213385
O9	O	0.932961	-0.280003	-0.607941
O10	O	1.432961	0.219997	-0.107941
O11	O	1.076676	-0.238380	-0.685494
O12	O	1.576676	0.261620	-0.185494
O13	O	0.960756	-0.329523	-0.325860
O14	O	1.460756	0.170477	0.174140
O15	O	0.891408	-0.142266	-0.530512
O16	O	1.391408	0.357734	-0.030512
O17	O	1.070671	-0.321667	-0.530452
O18	O	1.570671	0.178333	-0.030452
O19	O	0.974688	-0.136313	-0.685528
O20	O	1.474688	0.363687	-0.185528
O21	O	0.883481	-0.252189	-0.325886
O22	O	1.383481	0.247811	0.174114
O23	O	0.789294	-0.244304	-0.530432
O24	O	1.289294	0.255696	-0.030432
O25	O	0.905119	-0.307807	-0.889979
O26	O	1.405119	0.192193	-0.389979
O27	O	0.795204	-0.315663	-0.685388
O28	O	1.295204	0.184337	-0.185388
O29	O	0.982489	-0.230494	-0.890040
O30	O	1.482489	0.269506	-0.390040
O31	O	0.968557	-0.423705	-0.530372
O32	O	1.468557	0.076295	-0.030372
O33	O	0.897192	-0.417730	-0.685353
O34	O	1.397192	0.082270	-0.185353
C35	C	0.769408	-0.279981	-0.607906
C36	C	1.269408	0.220019	-0.107906
C37	C	0.699441	-0.279985	-0.607920
C38	C	1.199441	0.220015	-0.107920
C39	C	0.203116	-0.236725	-0.688822
C40	C	0.703116	0.263275	-0.188822
C41	C	0.268858	-0.236720	-0.688822
C42	C	0.768858	0.263280	-0.188822
C43	C	0.298603	-0.280021	-0.607971
C44	C	0.798603	0.219979	-0.107971
C45	C	0.262601	-0.323341	-0.527137
C46	C	0.762601	0.176659	-0.027137
C47	C	0.196860	-0.323349	-0.527148
C48	C	0.696860	0.176651	-0.027148
N49	N	0.397563	-0.289004	-0.497478
N50	N	0.897563	0.210996	0.002522
N51	N	0.460015	-0.288993	-0.497471
N52	N	0.960015	0.211007	0.002529
C53	C	0.496676	-0.280002	-0.607933
C54	C	0.996676	0.219998	-0.107933
N55	N	0.468528	-0.271010	-0.718406
N56	N	0.968528	0.228990	-0.218406
N57	N	0.406071	-0.271018	-0.718412
N58	N	0.906071	0.228982	-0.218412
C59	C	0.369888	-0.280018	-0.607950
C60	C	0.869888	0.219982	-0.107950
C61	C	0.603957	-0.236683	-0.688769
C62	C	1.103957	0.263317	-0.188769
C63	C	0.669700	-0.236683	-0.688771
C64	C	1.169700	0.263317	-0.188771
C65	C	0.663441	-0.323301	-0.527074
C66	C	1.163441	0.176699	-0.027074
C67	C	0.597699	-0.323304	-0.527084
C68	C	1.097699	0.176696	-0.027084
C69	C	0.567961	-0.279992	-0.607929
C70	C	1.067961	0.220008	-0.107929
C71	C	0.932879	-0.443558	-0.607877
C72	C	1.432879	0.056442	-0.107877
C73	C	0.932902	-0.513525	-0.607892
C74	C	1.432902	-0.013525	-0.107892
C75	C	0.976246	-0.543233	-0.688667
C76	C	1.476246	-0.043233	-0.188667
C77	C	0.976269	-0.608974	-0.688698
C78	C	1.476269	-0.108974	-0.188698
C79	C	0.932955	-0.645006	-0.607932
C80	C	1.432955	-0.145006	-0.107932
C81	C	0.889604	-0.615291	-0.527152
C82	C	1.389604	-0.115291	-0.027152
C83	C	0.889577	-0.549550	-0.527132
C84	C	1.389577	-0.049550	-0.027132
N85	N	0.923968	-0.752503	-0.497497
N86	N	1.423968	-0.252503	0.002503
N87	N	0.923997	-0.814953	-0.497519
N88	N	1.423997	-0.314953	0.002481
C89	C	0.933031	-0.843079	-0.607989
C90	C	1.433031	-0.343079	-0.107989
N91	N	0.942047	-0.806394	-0.718438
N92	N	1.442047	-0.306394	-0.218438
N93	N	0.942021	-0.743938	-0.718414
N94	N	1.442021	-0.243938	-0.218414
C95	C	0.932978	-0.716291	-0.607945
C96	C	1.432978	-0.216291	-0.107945
C97	C	0.976402	-0.944070	-0.688804
C98	C	1.476402	-0.444070	-0.188804
C99	C	0.976421	-1.009813	-0.688837
C100	C	1.476421	-0.509813	-0.188837
C101	C	0.889758	-1.016128	-0.527280
C102	C	1.389758	-0.516128	-0.027280
C103	C	0.889736	-0.950387	-0.527258
C104	C	1.389736	-0.450387	-0.027258
C105	C	0.933061	-0.914362	-0.608018
C106	C	1.433061	-0.414362	-0.108018
C107	C	1.097153	-0.280027	-0.607978
C108	C	1.597153	0.219973	-0.107978
C109	C	1.167122	-0.280037	-0.607993
C110	C	1.667122	0.219963	-0.107993
C111	C	0.945613	-0.267340	-0.937076
C112	C	1.445613	0.232660	-0.437076
C113	C	0.951004	-0.261943	-1.077333
C114	C	1.451004	0.238057	-0.577333
C115	C	0.933062	-0.115810	-0.608033
C116	C	1.433062	0.384190	-0.108033
C117	C	0.933106	-0.045840	-0.608072
C118	C	1.433106	0.454160	-0.108072
C119	C	0.920395	-0.292572	-0.280087
C120	C	1.420395	0.207428	0.219913
C121	C	0.915126	-0.297792	-0.139830
C122	C	1.415126	0.202208	0.360170
H123	H	0.699006	-0.201415	-0.754600
H124	H	1.199006	0.298585	-0.254600
N125	N	0.868968	-0.343907	-1.068567
N126	N	1.368968	0.156093	-0.568567
H127	H	0.824867	-0.333249	-1.091435
H128	H	1.324867	0.166751	-0.591435
H129	H	0.879634	-0.388002	-1.091431
H130	H	1.379634	0.111998	-0.591431
N131	N	0.997165	-0.215820	-1.148584
N132	N	1.497165	0.284180	-0.648584
H133	H	0.994606	-0.218373	-1.242041
H134	H	1.494606	0.281627	-0.742041
H135	H	0.986522	-0.171734	-1.125636
H136	H	1.486522	0.328266	-0.625636
N137	N	0.571878	-0.189979	-0.775980
N138	N	1.071878	0.310021	-0.275980
H139	H	0.524769	-0.196552	-0.763717
H140	H	1.024769	0.303448	-0.263717
H141	H	0.582636	-0.145754	-0.756505
H142	H	1.082636	0.354246	-0.256505
N143	N	0.171044	-0.190020	-0.776037
N144	N	0.671044	0.309980	-0.276037
H145	H	0.123935	-0.196596	-0.763784
H146	H	0.623935	0.303404	-0.263784
H147	H	0.181798	-0.145795	-0.756558
H148	H	0.681798	0.354205	-0.256558
H149	H	1.011560	-0.633166	-0.754489
H150	H	1.511560	-0.133166	-0.254489
H151	H	0.286823	-0.358599	-0.461311
H152	H	0.786823	0.141401	0.038689
N153	N	0.307692	-0.190005	-0.776005
N154	N	0.807692	0.309995	-0.276005
H155	H	0.278877	-0.162569	-0.827222
H156	H	0.778877	0.337431	-0.327222
H157	H	0.333001	-0.162808	-0.724729
H158	H	0.833001	0.337192	-0.224729
H159	H	0.854487	-1.045465	-0.461527
H160	H	1.354487	-0.545465	0.038473
N161	N	0.158033	-0.370064	-0.439964
N162	N	0.658033	0.129936	0.060036
H163	H	0.186849	-0.397497	-0.388745
H164	H	0.686849	0.102503	0.111255
H165	H	0.128520	-0.346641	-0.381663
H166	H	0.628520	0.153359	0.118337
N167	N	1.023123	-0.905215	-0.775928
N168	N	1.523123	-0.405215	-0.275928
H169	H	0.999750	-0.875699	-0.834344
H170	H	1.499750	-0.375699	-0.334344
H171	H	1.050329	-0.879938	-0.724611
H172	H	1.550329	-0.379938	-0.224611
H173	H	0.854336	-0.644632	-0.461395
H174	H	1.354336	-0.144632	0.038605
H175	H	0.854445	-0.926197	-0.461478
H176	H	1.354445	-0.426197	0.038522
H177	H	0.687659	-0.358562	-0.461254
H178	H	1.187659	0.141438	0.038746
H179	H	0.568392	-0.358570	-0.461259
H180	H	1.068392	0.141430	0.038741
H181	H	0.854281	-0.525362	-0.461355
H182	H	1.354281	-0.025362	0.038645
H183	H	1.011522	-0.513903	-0.754429
H184	H	1.511522	-0.013903	-0.254429
H185	H	1.011716	-1.033999	-0.754619
H186	H	1.511716	-0.533999	-0.254619
