data_functionalizedCrystal
_audit_creation_method	'MofGen! by Chris Wilmer'
_symmetry_space_group_name_H-M	'P1'
_symmetry_Int_Tables_number	1
_symmetry_cell_setting	triclinic
loop_
_symmetry_equiv_pos_as_xyz
  x,y,z
_cell_length_a	19.077269
_cell_length_b	18.101397
_cell_length_c	19.076919
_cell_angle_alpha	92.268541
_cell_angle_beta	94.669058
_cell_angle_gamma	87.723702
loop_
_atom_site_label
_atom_site_type_symbol
_atom_site_fract_x
_atom_site_fract_y
_atom_site_fract_z
Zn1	Zn	1.061679	-0.354727	-0.355251
Zn2	Zn	1.311679	-0.104727	-0.105251
Zn3	Zn	1.561679	0.145273	0.144749
Zn4	Zn	1.811679	0.395273	0.394749
Zn5	Zn	1.066342	-0.473784	-0.237364
Zn6	Zn	1.316342	-0.223784	0.012636
Zn7	Zn	1.566342	0.026216	0.262636
Zn8	Zn	1.816342	0.276216	0.512636
Zn9	Zn	0.948536	-0.345184	-0.242119
Zn10	Zn	1.198536	-0.095184	0.007881
Zn11	Zn	1.448536	0.154816	0.257881
Zn12	Zn	1.698536	0.404816	0.507881
Zn13	Zn	0.943773	-0.473747	-0.359946
Zn14	Zn	1.193773	-0.223747	-0.109946
Zn15	Zn	1.443773	0.026253	0.140054
Zn16	Zn	1.693773	0.276253	0.390054
O17	O	1.005083	-0.411861	-0.298670
O18	O	1.255083	-0.161861	-0.048670
O19	O	1.505083	0.088139	0.201330
O20	O	1.755083	0.338139	0.451330
O21	O	1.160945	-0.374529	-0.335658
O22	O	1.410945	-0.124529	-0.085658
O23	O	1.660945	0.125471	0.164342
O24	O	1.910945	0.375471	0.414342
O25	O	1.054660	-0.452747	-0.139347
O26	O	1.304660	-0.202747	0.110653
O27	O	1.554660	0.047253	0.360653
O28	O	1.804660	0.297253	0.610653
O29	O	0.963586	-0.242820	-0.257151
O30	O	1.213586	0.007180	-0.007151
O31	O	1.463586	0.257180	0.242849
O32	O	1.713586	0.507180	0.492849
O33	O	1.164370	-0.462000	-0.249046
O34	O	1.414370	-0.212000	0.000954
O35	O	1.664370	0.038000	0.250954
O36	O	1.914370	0.288000	0.500954
O37	O	1.046712	-0.249831	-0.340269
O38	O	1.296712	0.000169	-0.090269
O39	O	1.546712	0.250169	0.159731
O40	O	1.796712	0.500169	0.409731
O41	O	0.968108	-0.358265	-0.142841
O42	O	1.218108	-0.108265	0.107159
O43	O	1.468108	0.141735	0.357159
O44	O	1.718108	0.391735	0.607159
O45	O	0.849258	-0.358229	-0.261704
O46	O	1.099258	-0.108229	-0.011704
O47	O	1.349258	0.141771	0.238296
O48	O	1.599258	0.391771	0.488296
O49	O	0.955469	-0.461937	-0.457971
O50	O	1.205469	-0.211937	-0.207971
O51	O	1.455469	0.038063	0.042029
O52	O	1.705469	0.288063	0.292029
O53	O	0.845759	-0.452684	-0.348272
O54	O	1.095759	-0.202684	-0.098272
O55	O	1.345759	0.047316	0.151728
O56	O	1.595759	0.297316	0.401728
O57	O	1.042094	-0.374493	-0.454521
O58	O	1.292094	-0.124493	-0.204521
O59	O	1.542094	0.125507	0.045479
O60	O	1.792094	0.375507	0.295479
O61	O	1.050042	-0.577410	-0.253599
O62	O	1.300042	-0.327410	-0.003599
O63	O	1.550042	-0.077410	0.246401
O64	O	1.800042	0.172590	0.496401
O65	O	0.959991	-0.577382	-0.343661
O66	O	1.209991	-0.327382	-0.093661
O67	O	1.459991	-0.077382	0.156339
O68	O	1.709991	0.172618	0.406339
C69	C	0.821930	-0.404417	-0.306014
C70	C	1.071930	-0.154417	-0.056014
C71	C	1.321930	0.095583	0.193986
C72	C	1.571930	0.345583	0.443986
C73	C	0.743576	-0.401252	-0.309172
C74	C	0.993576	-0.151252	-0.059172
C75	C	1.243576	0.098748	0.190828
C76	C	1.493576	0.348748	0.440828
C77	C	1.005024	-0.604267	-0.298638
C78	C	1.255024	-0.354267	-0.048638
C79	C	1.505024	-0.104267	0.201362
C80	C	1.755024	0.145733	0.451362
C81	C	1.005062	-0.686583	-0.298646
C82	C	1.255062	-0.436583	-0.048646
C83	C	1.505062	-0.186583	0.201354
C84	C	1.755062	0.063417	0.451354
C85	C	0.708548	-0.445226	-0.265495
C86	C	0.958548	-0.195226	-0.015495
C87	C	1.208548	0.054774	0.234505
C88	C	1.458548	0.304774	0.484505
C89	C	0.634926	-0.442252	-0.268472
C90	C	0.884926	-0.192252	-0.018472
C91	C	1.134926	0.057748	0.231528
C92	C	1.384926	0.307748	0.481528
C93	C	0.596332	-0.395299	-0.315123
C94	C	0.846332	-0.145299	-0.065123
C95	C	1.096332	0.104701	0.184877
C96	C	1.346332	0.354701	0.434877
C97	C	0.631365	-0.351323	-0.358805
C98	C	0.881365	-0.101323	-0.108805
C99	C	1.131365	0.148677	0.141195
C100	C	1.381365	0.398677	0.391195
C101	C	0.704986	-0.354301	-0.355831
C102	C	0.954986	-0.104301	-0.105831
C103	C	1.204986	0.145699	0.144169
C104	C	1.454986	0.395699	0.394169
C105	C	0.375958	-0.381520	-0.328864
C106	C	0.625958	-0.131520	-0.078864
C107	C	0.875958	0.118480	0.171136
C108	C	1.125958	0.368480	0.421136
C109	C	0.302332	-0.378544	-0.331833
C110	C	0.552332	-0.128544	-0.081833
C111	C	0.802332	0.121456	0.168167
C112	C	1.052332	0.371456	0.418167
C113	C	0.305898	-0.469474	-0.241501
C114	C	0.555898	-0.219474	0.008499
C115	C	0.805898	0.030526	0.258499
C116	C	1.055898	0.280526	0.508499
C117	C	0.379520	-0.472445	-0.238528
C118	C	0.629520	-0.222445	0.011472
C119	C	0.879520	0.027555	0.261472
C120	C	1.129520	0.277555	0.511472
C121	C	0.414546	-0.428472	-0.282212
C122	C	0.664546	-0.178472	-0.032212
C123	C	0.914546	0.071528	0.217788
C124	C	1.164546	0.321528	0.467788
N125	N	0.521078	-0.392257	-0.318166
N126	N	0.771078	-0.142257	-0.068166
N127	N	1.021078	0.107743	0.181834
N128	N	1.271078	0.357743	0.431834
N129	N	0.489799	-0.431519	-0.279173
N130	N	0.739799	-0.181519	-0.029173
N131	N	0.989799	0.068481	0.220827
N132	N	1.239799	0.318481	0.470827
C133	C	1.005150	-0.985681	-0.298706
C134	C	1.255150	-0.735681	-0.048706
C135	C	1.505150	-0.485681	0.201294
C136	C	1.755150	-0.235681	0.451294
C137	C	1.061661	-0.954330	-0.241902
C138	C	1.311661	-0.704330	0.008098
C139	C	1.561661	-0.454330	0.258098
C140	C	1.811661	-0.204330	0.508098
C141	C	1.061844	-0.868724	-0.242036
C142	C	1.311844	-0.618724	0.007964
C143	C	1.561844	-0.368724	0.257964
C144	C	1.811844	-0.118724	0.507964
C145	C	1.005106	-0.837295	-0.298676
C146	C	1.255106	-0.587295	-0.048676
C147	C	1.505106	-0.337295	0.201324
C148	C	1.755106	-0.087295	0.451324
C149	C	1.022257	-0.872135	-0.372172
C150	C	1.272257	-0.622135	-0.122172
C151	C	1.522257	-0.372135	0.127828
C152	C	1.772257	-0.122135	0.377828
C153	C	1.022689	-0.957785	-0.371858
C154	C	1.272689	-0.707785	-0.121858
C155	C	1.522689	-0.457785	0.128142
C156	C	1.772689	-0.207785	0.378142
C157	C	0.931317	-0.950391	-0.282663
C158	C	1.181317	-0.700391	-0.032663
C159	C	1.431317	-0.450391	0.217337
C160	C	1.681317	-0.200391	0.467337
C161	C	0.931752	-0.864689	-0.280989
C162	C	1.181752	-0.614689	-0.030989
C163	C	1.431752	-0.364689	0.219011
C164	C	1.681752	-0.114689	0.469011
C165	C	1.005080	-0.753434	-0.298663
C166	C	1.255080	-0.503434	-0.048663
C167	C	1.505080	-0.253434	0.201337
C168	C	1.755080	-0.003434	0.451337
C169	C	1.005177	-1.069542	-0.298724
C170	C	1.255177	-0.819542	-0.048724
C171	C	1.505177	-0.569542	0.201276
C172	C	1.755177	-0.319542	0.451276
C173	C	1.188951	-0.419333	-0.291298
C174	C	1.438951	-0.169333	-0.041298
C175	C	1.688951	0.080667	0.208702
C176	C	1.938951	0.330667	0.458702
C177	C	1.267304	-0.422518	-0.288156
C178	C	1.517304	-0.172518	-0.038156
C179	C	1.767304	0.077482	0.211844
C180	C	2.017304	0.327482	0.461844
C181	C	0.997730	-0.419275	-0.482539
C182	C	1.247730	-0.169275	-0.232539
C183	C	1.497730	0.080725	0.017461
C184	C	1.747730	0.330725	0.267461
C185	C	0.994597	-0.422435	-0.560894
C186	C	1.244597	-0.172435	-0.310894
C187	C	1.494597	0.077565	-0.060894
C188	C	1.744597	0.327565	0.189106
C189	C	1.005161	-0.218704	-0.298716
C190	C	1.255161	0.031296	-0.048716
C191	C	1.505161	0.281296	0.201284
C192	C	1.755161	0.531296	0.451284
C193	C	1.005194	-0.136392	-0.298736
C194	C	1.255194	0.113608	-0.048736
C195	C	1.505194	0.363608	0.201264
C196	C	1.755194	0.613608	0.451264
C197	C	1.038224	-0.378394	-0.595910
C198	C	1.288224	-0.128394	-0.345910
C199	C	1.538224	0.121606	-0.095910
C200	C	1.788224	0.371606	0.154090
C201	C	1.035272	-0.381360	-0.669532
C202	C	1.285272	-0.131360	-0.419532
C203	C	1.535272	0.118640	-0.169532
C204	C	1.785272	0.368640	0.080468
C205	C	0.988695	-0.428371	-0.708137
C206	C	1.238695	-0.178371	-0.458137
C207	C	1.488695	0.071629	-0.208137
C208	C	1.738695	0.321629	0.041863
C209	C	0.945064	-0.472414	-0.673116
C210	C	1.195064	-0.222414	-0.423116
C211	C	1.445064	0.027586	-0.173116
C212	C	1.695064	0.277586	0.076884
C213	C	0.948013	-0.469443	-0.599495
C214	C	1.198013	-0.219443	-0.349495
C215	C	1.448013	0.030557	-0.099495
C216	C	1.698013	0.280557	0.150505
C217	C	0.975035	-0.442132	-0.928513
C218	C	1.225035	-0.192132	-0.678513
C219	C	1.475035	0.057868	-0.428513
C220	C	1.725035	0.307868	-0.178513
C221	C	0.972090	-0.445101	-1.002139
C222	C	1.222090	-0.195101	-0.752139
C223	C	1.472090	0.054899	-0.502139
C224	C	1.722090	0.304899	-0.252139
C225	C	1.062297	-0.354046	-0.998550
C226	C	1.312297	-0.104046	-0.748550
C227	C	1.562297	0.145954	-0.498550
C228	C	1.812297	0.395954	-0.248550
C229	C	1.065246	-0.351083	-0.924927
C230	C	1.315246	-0.101083	-0.674927
C231	C	1.565246	0.148917	-0.424927
C232	C	1.815246	0.398917	-0.174927
C233	C	1.021611	-0.395123	-0.889913
C234	C	1.271611	-0.145123	-0.639913
C235	C	1.521611	0.104877	-0.389913
C236	C	1.771611	0.354877	-0.139913
N237	N	0.985678	-0.431405	-0.783391
N238	N	1.235678	-0.181405	-0.533391
N239	N	1.485678	0.068595	-0.283391
N240	N	1.735678	0.318595	-0.033391
N241	N	1.024626	-0.392084	-0.814661
N242	N	1.274626	-0.142084	-0.564661
N243	N	1.524626	0.107916	-0.314661
N244	N	1.774626	0.357916	-0.064661
C245	C	1.012447	-0.404423	-0.115514
C246	C	1.262447	-0.154423	0.134486
C247	C	1.512447	0.095577	0.384486
C248	C	1.762447	0.345577	0.634486
C249	C	1.015717	-0.401060	-0.037155
C250	C	1.265717	-0.151060	0.212845
C251	C	1.515717	0.098940	0.462845
C252	C	1.765717	0.348940	0.712845
H253	H	0.739966	-0.483457	-0.227504
H254	H	0.989966	-0.233457	0.022496
H255	H	1.239966	0.016543	0.272496
H256	H	1.489966	0.266543	0.522496
H257	H	0.606410	-0.478061	-0.232906
H258	H	0.856410	-0.228061	0.017094
H259	H	1.106410	0.021939	0.267094
H260	H	1.356410	0.271939	0.517094
H261	H	0.918766	-0.841595	-0.226916
H262	H	1.168766	-0.591595	0.023084
H263	H	1.418766	-0.341595	0.273084
H264	H	1.668766	-0.091595	0.523084
F265	F	1.091869	-0.847754	-0.390781
F266	F	1.341869	-0.597754	-0.140781
F267	F	1.591869	-0.347754	0.109219
F268	F	1.841869	-0.097754	0.359219
F269	F	0.895491	-0.522443	-0.714204
F270	F	1.145491	-0.272443	-0.464204
F271	F	1.395491	-0.022443	-0.214204
F272	F	1.645491	0.227557	0.035796
F273	F	0.971008	-0.985105	-0.428847
F274	F	1.221008	-0.735105	-0.178847
F275	F	1.471008	-0.485105	0.071153
F276	F	1.721008	-0.235105	0.321153
H277	H	0.915137	-0.969147	-0.230155
H278	H	1.165137	-0.719147	0.019845
H279	H	1.415137	-0.469147	0.269845
H280	H	1.665137	-0.219147	0.519845
H281	H	0.982225	-0.851917	-0.415504
H282	H	1.232225	-0.601917	-0.165504
H283	H	1.482225	-0.351917	0.084496
H284	H	1.732225	-0.101917	0.334496
F285	F	1.132840	-0.985961	-0.255293
F286	F	1.382840	-0.735961	-0.005293
F287	F	1.632840	-0.485961	0.244707
F288	F	1.882840	-0.235961	0.494707
F289	F	0.876329	-0.976846	-0.336785
F290	F	1.126329	-0.726846	-0.086785
F291	F	1.376329	-0.476846	0.163215
F292	F	1.626329	-0.226846	0.413215
H293	H	0.939515	-0.478004	-0.900013
H294	H	1.189515	-0.228004	-0.650013
H295	H	1.439515	0.021996	-0.400013
H296	H	1.689515	0.271996	-0.150013
F297	F	0.742264	-0.307499	-0.402320
F298	F	0.992264	-0.057499	-0.152320
F299	F	1.242264	0.192501	0.097680
F300	F	1.492264	0.442501	0.347680
F301	F	0.413226	-0.334720	-0.375358
F302	F	0.663226	-0.084720	-0.125358
F303	F	0.913226	0.165280	0.124642
F304	F	1.163226	0.415280	0.374642
H305	H	0.599936	-0.313097	-0.396793
H306	H	0.849936	-0.063097	-0.146793
H307	H	1.099936	0.186903	0.103207
H308	H	1.349936	0.436903	0.353207
F309	F	0.901578	-0.516316	-0.562229
F310	F	1.151578	-0.266316	-0.312229
F311	F	1.401578	-0.016316	-0.062229
F312	F	1.651578	0.233684	0.187771
F313	F	1.093113	-0.987569	-0.390075
F314	F	1.343113	-0.737569	-0.140075
F315	F	1.593113	-0.487569	0.109925
F316	F	1.843113	-0.237569	0.359925
H317	H	1.097821	-0.318191	-1.027067
H318	H	1.347821	-0.068191	-0.777067
H319	H	1.597821	0.181809	-0.527067
H320	H	1.847821	0.431809	-0.277067
H321	H	0.887624	-0.843071	-0.319573
H322	H	1.137624	-0.593071	-0.069573
H323	H	1.387624	-0.343071	0.180427
H324	H	1.637624	-0.093071	0.430427
F325	F	1.087801	-0.328362	-0.554830
F326	F	1.337801	-0.078362	-0.304830
F327	F	1.587801	0.171638	-0.054830
F328	F	1.837801	0.421638	0.195170
H329	H	1.070799	-0.345499	-0.698039
H330	H	1.320799	-0.095499	-0.448039
H331	H	1.570799	0.154501	-0.198039
H332	H	1.820799	0.404501	0.051961
H333	H	1.103175	-0.312804	-0.893500
H334	H	1.353175	-0.062804	-0.643500
H335	H	1.603175	0.187196	-0.393500
H336	H	1.853175	0.437196	-0.143500
H337	H	0.934160	-0.483384	-1.033569
H338	H	1.184160	-0.233384	-0.783569
H339	H	1.434160	0.016616	-0.533569
H340	H	1.684160	0.266616	-0.283569
H341	H	0.410938	-0.510678	-0.200539
H342	H	0.660938	-0.260678	0.049461
H343	H	0.910938	-0.010678	0.299461
H344	H	1.160938	0.239322	0.549461
H345	H	0.270911	-0.340303	-0.369820
H346	H	0.520911	-0.090303	-0.119820
H347	H	0.770911	0.159697	0.130180
H348	H	1.020911	0.409697	0.380180
F349	F	0.268615	-0.516272	-0.195014
F350	F	0.518615	-0.266272	0.054986
F351	F	0.768615	-0.016272	0.304986
F352	F	1.018615	0.233728	0.554986
H353	H	1.051460	-0.845015	-0.187446
H354	H	1.301460	-0.595015	0.062554
H355	H	1.551460	-0.345015	0.312554
H356	H	1.801460	-0.095015	0.562554
F357	F	1.048302	-0.977723	-0.170324
F358	F	1.298302	-0.727723	0.079676
F359	F	1.548302	-0.477723	0.329676
F360	F	1.798302	-0.227723	0.579676
F361	F	1.133407	-0.845467	-0.255604
F362	F	1.383407	-0.595467	-0.005604
F363	F	1.633407	-0.345467	0.244396
F364	F	1.883407	-0.095467	0.494396
