data_functionalizedCrystal
_audit_creation_method	'MofGen! by Chris Wilmer'
_symmetry_space_group_name_H-M	'P1'
_symmetry_Int_Tables_number	1
_symmetry_cell_setting	triclinic
loop_
_symmetry_equiv_pos_as_xyz
  x,y,z
_cell_length_a	6.817900
_cell_length_b	14.160835
_cell_length_c	14.125465
_cell_angle_alpha	83.930828
_cell_angle_beta	79.601122
_cell_angle_gamma	101.151809
loop_
_atom_site_label
_atom_site_type_symbol
_atom_site_fract_x
_atom_site_fract_y
_atom_site_fract_z
V1	V	3.979482	0.132289	-0.299607
O2	O	3.980153	-0.007207	-0.294286
O3	O	3.919533	0.263124	-0.297191
O4	O	3.915839	0.129881	-0.430444
O5	O	3.983872	0.126958	-0.160110
V6	V	4.466581	0.115647	-0.282967
O7	O	4.232895	0.168793	-0.336109
O8	O	4.663365	0.079143	-0.246465
O9	O	4.303323	-0.015188	-0.285384
O10	O	4.583307	0.255143	-0.288288
O11	O	4.579588	0.120978	-0.422464
O12	O	4.307017	0.118055	-0.152130
C13	C	3.762218	0.295031	-0.292370
C14	C	3.794388	0.401988	-0.291266
C15	C	3.853353	0.597819	-0.289259
C16	C	4.039827	0.650130	-0.293321
C17	C	4.072639	0.759097	-0.292205
C18	C	3.820534	0.488842	-0.290376
C19	C	3.757505	0.125064	-0.462346
C20	C	3.786678	0.123961	-0.569304
C21	C	4.130953	0.952911	-0.290203
C22	C	4.098799	0.845955	-0.291315
C23	C	3.840149	0.121938	-0.765132
C24	C	4.025283	0.125996	-0.817442
C25	C	4.055037	0.124870	-0.926408
C26	C	3.810387	0.123064	-0.656156
C27	C	4.128694	0.122875	-0.120223
C28	C	4.078761	0.123973	-0.013265
H29	H	3.718360	0.634869	-0.284943
H30	H	4.174830	0.613077	-0.297635
H31	H	4.161439	0.130325	-0.780392
O32	O	3.659802	0.116231	-0.814202
H33	H	3.711854	0.116245	-0.893330
