data_functionalizedCrystal
_audit_creation_method	'MofGen! by Chris Wilmer'
_symmetry_space_group_name_H-M	'P1'
_symmetry_Int_Tables_number	1
_symmetry_cell_setting	triclinic
loop_
_symmetry_equiv_pos_as_xyz
  x,y,z
_cell_length_a	14.519709
_cell_length_b	14.519731
_cell_length_c	10.868271
_cell_angle_alpha	89.995592
_cell_angle_beta	89.998940
_cell_angle_gamma	96.315501
loop_
_atom_site_label
_atom_site_type_symbol
_atom_site_fract_x
_atom_site_fract_y
_atom_site_fract_z
O1	O	-0.120985	1.223855	-0.102307
O2	O	0.379015	1.723855	0.397693
O3	O	-0.135201	0.955381	-0.102307
O4	O	0.364799	1.455381	0.397693
O5	O	0.006145	1.096736	-0.102319
O6	O	0.506145	1.596736	0.397681
O7	O	-0.262331	1.082500	-0.102296
O8	O	0.237669	1.582500	0.397704
O9	O	0.006150	1.096725	0.102326
O10	O	0.506150	1.596725	0.602326
O11	O	-0.135196	0.955369	0.102337
O12	O	0.364804	1.455369	0.602337
O13	O	-0.120980	1.223843	0.102337
O14	O	0.379020	1.723843	0.602337
Zn15	Zn	-0.128087	1.089604	0.134829
Zn16	Zn	0.371913	1.589604	0.634829
Zn17	Zn	-0.128094	1.089620	-0.134799
Zn18	Zn	0.371906	1.589620	0.365201
O19	O	-0.262326	1.082488	0.102349
O20	O	0.237674	1.582488	0.602349
C21	C	-0.134532	0.921016	0.000015
C22	C	0.365468	1.421016	0.500015
C23	C	-0.132536	0.818635	0.000014
C24	C	0.367464	1.318635	0.500014
C25	C	-0.130915	0.735491	0.000009
C26	C	0.369085	1.235491	0.500009
C27	C	-0.128888	0.631182	0.000008
C28	C	0.371112	1.131182	0.500008
C29	C	-0.127280	0.548043	0.000008
C30	C	0.372720	1.048043	0.500008
C31	C	-0.125253	0.443728	0.000005
C32	C	0.374747	0.943728	0.500005
C33	C	-0.296688	1.083157	0.000029
C34	C	0.203312	1.583157	0.500029
C35	C	-0.399070	1.085146	0.000037
C36	C	0.100930	1.585146	0.500037
C37	C	-0.773966	1.092465	-0.000012
C38	C	-0.273966	1.592465	0.499988
C39	C	-0.669658	1.090432	0.000002
C40	C	-0.169658	1.590432	0.500002
C41	C	-0.586521	1.088806	0.000014
C42	C	-0.086521	1.588806	0.500014
C43	C	-0.482207	1.086773	0.000026
C44	C	0.017793	1.586773	0.500026
C45	C	0.040507	1.096067	-0.000002
C46	C	0.540507	1.596067	0.499998
C47	C	0.142889	1.094079	-0.000018
C48	C	0.642889	1.594079	0.499982
C49	C	-0.121649	1.258209	0.000012
C50	C	0.378351	1.758209	0.500012
C51	C	-0.123645	1.360589	0.000005
C52	C	0.376355	1.860589	0.500005
N53	N	-0.128081	1.089601	0.318843
N54	N	0.371919	1.589601	0.818843
N55	N	-0.128092	1.089631	-0.318813
N56	N	0.371908	1.589631	0.181187
C57	C	-0.128092	1.089615	0.569849
C58	C	0.371908	1.589615	1.069849
C59	C	-0.128089	1.089604	0.430172
C60	C	0.371911	1.589604	0.930172
