data_functionalizedCrystal
_audit_creation_method	'MofGen! by Chris Wilmer'
_symmetry_space_group_name_H-M	'P1'
_symmetry_Int_Tables_number	1
_symmetry_cell_setting	triclinic
loop_
_symmetry_equiv_pos_as_xyz
  x,y,z
_cell_length_a	35.288061
_cell_length_b	35.282844
_cell_length_c	35.277682
_cell_angle_alpha	120.000030
_cell_angle_beta	89.998984
_cell_angle_gamma	120.014633
loop_
_atom_site_label
_atom_site_type_symbol
_atom_site_fract_x
_atom_site_fract_y
_atom_site_fract_z
O1	O	0.259854	-0.334378	-0.011293
O2	O	0.204773	-0.256752	0.011211
O3	O	0.204747	-0.334376	-0.066417
O4	O	0.259880	-0.256754	0.066334
O5	O	0.267796	-0.271325	-0.066411
O6	O	0.267821	-0.193701	0.011217
O7	O	0.322903	-0.271327	-0.011287
Zn8	Zn	0.305373	-0.222504	-0.000034
Zn9	Zn	0.222303	-0.305575	-0.000042
O10	O	0.322929	-0.193703	0.066340
C11	C	0.095943	0.006465	0.034092
C12	C	0.118848	-0.016236	0.034415
C13	C	0.027301	-0.062176	0.034097
C14	C	0.050311	-0.084772	0.034419
C15	C	0.095924	-0.062175	0.034097
C16	C	0.050330	-0.016237	0.034414
C17	C	0.137886	0.159559	0.021653
C18	C	0.159497	0.202920	0.018136
C19	C	0.204697	0.224670	0.016371
C20	C	0.228127	0.271679	0.012549
C21	C	0.228286	0.203061	0.018127
C22	C	0.206678	0.159708	0.021650
C23	C	0.161476	0.137957	0.023413
C24	C	0.207065	-0.116517	0.021674
C25	C	0.228810	-0.141635	0.018162
C26	C	0.205350	-0.188605	0.016399
C27	C	0.228920	-0.215848	0.012584
C28	C	0.160144	-0.210452	0.018154
C29	C	0.138404	-0.185330	0.021674
C30	C	0.161869	-0.138360	0.023431
C31	C	-0.138198	-0.116521	0.021670
C32	C	-0.185070	-0.141644	0.018151
C33	C	-0.208592	-0.188614	0.016390
C34	C	-0.259415	-0.215858	0.012573
C35	C	-0.185241	-0.210460	0.018144
C36	C	-0.138371	-0.185337	0.021661
C37	C	-0.114851	-0.138363	0.023428
C38	C	0.138047	0.090945	0.027229
C39	C	0.119371	0.053473	0.030272
C40	C	-0.023519	-0.089416	0.030281
C41	C	-0.064029	-0.111127	0.027241
C42	C	0.119498	-0.089414	0.030283
C43	C	0.138290	-0.111125	0.027243
O44	O	-0.276163	-0.193711	0.011206
O45	O	-0.408893	-0.271340	-0.011300
O46	O	-0.331276	-0.193707	0.066328
O47	O	-0.353781	-0.271344	-0.066422
O48	O	-0.331292	-0.256751	0.066333
O49	O	-0.408910	-0.334384	-0.011295
O50	O	-0.276180	-0.256754	0.011211
Zn51	Zn	-0.342547	-0.305578	-0.000041
Zn52	Zn	-0.342525	-0.222516	-0.000048
O53	O	-0.353797	-0.334387	-0.066417
C54	C	0.095800	-0.466213	-0.438585
C55	C	0.050179	-0.512156	-0.461507
C56	C	0.095800	-0.466213	-0.369942
C57	C	0.050179	-0.512156	-0.392969
C58	C	0.027156	-0.534859	-0.438591
C59	C	0.118719	-0.443614	-0.392963
C60	C	0.206996	-0.342590	-0.480491
C61	C	0.228756	-0.317317	-0.502094
C62	C	0.205300	-0.339010	-0.547303
C63	C	0.228888	-0.311605	-0.570726
C64	C	0.160085	-0.385980	-0.570909
C65	C	0.138331	-0.411253	-0.549308
C66	C	0.161789	-0.389556	-0.504097
C67	C	-0.138377	-0.687971	-0.549791
C68	C	-0.185254	-0.731337	-0.571552
C69	C	-0.208772	-0.753090	-0.548101
C70	C	-0.259600	-0.800103	-0.571688
C71	C	-0.185407	-0.731477	-0.502886
C72	C	-0.138529	-0.688119	-0.481128
C73	C	-0.115018	-0.666367	-0.504586
C74	C	0.206996	-0.342590	-0.204400
C75	C	0.228754	-0.317313	-0.157519
C76	C	0.205299	-0.339006	-0.134005
C77	C	0.228886	-0.311600	-0.083173
C78	C	0.160085	-0.385972	-0.157372
C79	C	0.138330	-0.411245	-0.204252
C80	C	0.161791	-0.389552	-0.227764
C81	C	0.138195	-0.416962	-0.480675
C82	C	0.119390	-0.438807	-0.462006
C83	C	0.119390	-0.438807	-0.319112
C84	C	0.138195	-0.416962	-0.278596
C85	C	-0.023672	-0.581873	-0.462182
C86	C	-0.064188	-0.619349	-0.480989
C87	C	0.364257	-0.456772	-0.023618
C88	C	0.340856	-0.503559	-0.020404
C89	C	0.409871	-0.434070	-0.023937
C90	C	0.364281	-0.388124	-0.023609
C91	C	0.340906	-0.361510	-0.020386
C92	C	0.409895	-0.365525	-0.023928
C93	C	0.432902	-0.388126	-0.023611
C94	C	0.482898	-0.361514	-0.020390
C95	C	0.341353	-0.434068	-0.023935
C96	C	0.523290	-0.340015	-0.017786
C97	C	0.321951	-0.541357	-0.017806
C98	C	0.322022	-0.340008	-0.017782
C99	C	0.573963	-0.313043	-0.014521
C100	C	0.298234	-0.588776	-0.014548
C101	C	0.298330	-0.313034	-0.014515
O102	O	0.322788	0.397308	-0.011326
O103	O	0.267651	0.287068	0.011177
O104	O	0.267644	0.287051	-0.066450
O105	O	0.322794	0.397325	0.066301
O106	O	0.204616	0.287050	-0.066451
O107	O	0.204623	0.287067	0.011176
O108	O	0.259760	0.397308	-0.011327
Zn109	Zn	0.222184	0.342188	-0.000075
Zn110	Zn	0.305226	0.342188	-0.000074
O111	O	0.259766	0.397325	0.066300
O112	O	-0.409100	-0.925748	-0.602679
O113	O	-0.276360	-0.815493	-0.547548
O114	O	-0.353955	-0.815491	-0.547544
O115	O	-0.331505	-0.925750	-0.602682
O116	O	-0.353956	-0.815492	-0.610592
O117	O	-0.276362	-0.815495	-0.610595
O118	O	-0.409102	-0.925750	-0.665726
Zn119	Zn	-0.342732	-0.870622	-0.648171
Zn120	Zn	-0.342730	-0.870620	-0.565103
O121	O	-0.331507	-0.925752	-0.665730
O122	O	0.259884	-0.256750	-0.665375
O123	O	0.204747	-0.334375	-0.610259
O124	O	0.204774	-0.256749	-0.610249
O125	O	0.259856	-0.334375	-0.665385
O126	O	0.267822	-0.193701	-0.547197
O127	O	0.267795	-0.271326	-0.547207
O128	O	0.322932	-0.193701	-0.602323
Zn129	Zn	0.305373	-0.222503	-0.564754
Zn130	Zn	0.222305	-0.305573	-0.647828
O131	O	0.322904	-0.271327	-0.602332
C132	C	0.433012	-0.071314	0.293208
C133	C	0.483014	-0.024529	0.316603
C134	C	0.409989	-0.094017	0.316125
C135	C	0.364366	-0.139961	0.224560
C136	C	0.340973	-0.166574	0.174556
C137	C	0.341448	-0.162560	0.247581
C138	C	0.364367	-0.139960	0.293203
C139	C	0.340974	-0.166572	0.316593
C140	C	0.409988	-0.094018	0.247586
C141	C	0.322076	-0.188072	0.335489
C142	C	0.523411	0.013268	0.335503
C143	C	0.322073	-0.188074	0.134157
C144	C	0.298366	-0.215044	0.359195
C145	C	0.574091	0.060686	0.359214
C146	C	0.298363	-0.215047	0.083476
C147	C	-0.318988	-0.139954	0.293194
C148	C	-0.322217	-0.166562	0.316587
C149	C	-0.318659	-0.094014	0.316109
C150	C	-0.318979	-0.139959	0.224548
C151	C	-0.322197	-0.166572	0.174546
C152	C	-0.318649	-0.094019	0.247568
C153	C	-0.318970	-0.071315	0.293188
C154	C	-0.322180	-0.024533	0.316576
C155	C	-0.318667	-0.162553	0.247574
C156	C	-0.324773	0.013261	0.335471
C157	C	-0.324826	-0.188059	0.335486
C158	C	-0.324799	-0.188073	0.134149
C159	C	-0.328027	0.060676	0.359175
C160	C	-0.328099	-0.215027	0.359197
C161	C	-0.328061	-0.215047	0.083469
C162	C	0.364296	0.611918	0.293170
C163	C	0.340921	0.638533	0.316563
C164	C	0.409911	0.634519	0.316089
C165	C	0.364269	0.543262	0.224524
C166	C	0.340867	0.496470	0.174519
C167	C	0.409884	0.565967	0.247547
C168	C	0.432917	0.611916	0.293169
C169	C	0.482914	0.638530	0.316560
C170	C	0.341367	0.565969	0.247548
C171	C	0.523306	0.660032	0.335458
C172	C	0.322037	0.660036	0.335461
C173	C	0.321960	0.458668	0.134121
C174	C	0.573980	0.687007	0.359166
C175	C	0.298346	0.687012	0.359171
C176	C	0.298241	0.411243	0.083439
C177	C	-0.376688	-0.534583	-0.438578
C178	C	-0.376999	-0.511884	-0.461499
C179	C	-0.376679	-0.465939	-0.369938
C180	C	-0.376991	-0.443344	-0.392964
C181	C	-0.376670	-0.465944	-0.438584
C182	C	-0.377009	-0.511879	-0.392958
C183	C	-0.364299	-0.687681	-0.480482
C184	C	-0.360794	-0.731043	-0.502084
C185	C	-0.359030	-0.752796	-0.547290
C186	C	-0.355222	-0.799806	-0.570712
C187	C	-0.360775	-0.731188	-0.570895
C188	C	-0.364285	-0.687834	-0.549295
C189	C	-0.366047	-0.666080	-0.504086
C190	C	-0.364215	-0.411609	-0.549777
C191	C	-0.360692	-0.386492	-0.571537
C192	C	-0.358917	-0.339521	-0.548085
C193	C	-0.355091	-0.312280	-0.571671
C194	C	-0.360671	-0.317671	-0.502872
C195	C	-0.364202	-0.342792	-0.481117
C196	C	-0.365971	-0.389763	-0.504574
C197	C	-0.364263	-0.411584	-0.204402
C198	C	-0.360744	-0.386458	-0.157522
C199	C	-0.358971	-0.339487	-0.134009
C200	C	-0.355154	-0.312241	-0.083179
C201	C	-0.360714	-0.317643	-0.157375
C202	C	-0.364231	-0.342768	-0.204253
C203	C	-0.366010	-0.389743	-0.227764
C204	C	-0.369849	-0.619066	-0.480666
C205	C	-0.372882	-0.581593	-0.461998
C206	C	-0.372864	-0.438696	-0.319110
C207	C	-0.369823	-0.416982	-0.278595
C208	C	-0.372843	-0.438706	-0.462173
C209	C	-0.369795	-0.416996	-0.480978
O210	O	-0.353838	-0.271294	0.452806
O211	O	-0.331321	-0.193683	0.397676
O212	O	-0.408944	-0.271309	0.397664
O213	O	-0.276215	-0.193668	0.452817
O214	O	-0.408952	-0.334358	0.334621
O215	O	-0.331329	-0.256731	0.334633
O216	O	-0.353846	-0.334343	0.389763
Zn217	Zn	-0.342589	-0.305548	0.352188
Zn218	Zn	-0.342578	-0.222478	0.435250
O219	O	-0.276223	-0.256717	0.389774
C220	C	0.027256	-0.062279	-0.438625
C221	C	0.050263	-0.084881	-0.461545
C222	C	0.095904	0.006376	-0.369980
C223	C	0.118807	-0.016331	-0.393003
C224	C	0.095878	-0.062280	-0.438625
C225	C	0.050288	-0.016330	-0.393003
C226	C	-0.138246	-0.116628	-0.480541
C227	C	-0.185117	-0.141751	-0.502147
C228	C	-0.208643	-0.188730	-0.547356
C229	C	-0.259468	-0.215977	-0.570782
C230	C	-0.185293	-0.210582	-0.570960
C231	C	-0.138423	-0.185456	-0.549356
C232	C	-0.114899	-0.138477	-0.504145
C233	C	0.137737	-0.185915	-0.549818
C234	C	0.159327	-0.211190	-0.571577
C235	C	0.204527	-0.189499	-0.548122
C236	C	0.227937	-0.216903	-0.571707
C237	C	0.228139	-0.142524	-0.502907
C238	C	0.206553	-0.117244	-0.481153
C239	C	0.161347	-0.138948	-0.504613
C240	C	0.137865	0.159510	-0.204440
C241	C	0.159479	0.202878	-0.157559
C242	C	0.204681	0.224633	-0.134042
C243	C	0.228117	0.271654	-0.083210
C244	C	0.228265	0.203017	-0.157407
C245	C	0.206650	0.159650	-0.204286
C246	C	0.161450	0.137902	-0.227800
C247	C	-0.064077	-0.111237	-0.480721
C248	C	-0.023566	-0.089523	-0.462049
C249	C	0.119338	0.053396	-0.319149
C250	C	0.138018	0.090878	-0.278633
C251	C	0.119285	-0.089688	-0.462214
C252	C	0.137942	-0.111535	-0.481018
H253	H	-0.204080	-0.123853	0.016723
H254	H	0.428474	-0.075014	0.229106
H255	H	0.303963	-0.199530	0.229093
H256	H	0.031859	0.002766	0.034933
O257	O	-0.317966	-0.071279	0.360851
C258	C	-0.277771	-0.018210	0.389083
H259	H	-0.250185	-0.013791	0.371540
H260	H	-0.286688	0.010623	0.394350
C261	C	-0.292965	-0.010587	0.458050
C262	C	-0.259082	-0.005160	0.436505
H263	H	-0.281437	-0.002536	0.487304
H264	H	-0.320045	-0.046340	0.439031
H265	H	-0.300393	0.013441	0.462436
H266	H	-0.251658	-0.029193	0.432115
H267	H	-0.231999	0.030589	0.455525
H268	H	-0.359341	-0.748906	-0.607703
O269	O	-0.318044	-0.206643	0.225597
C270	C	-0.317861	-0.221825	0.255709
H271	H	-0.303607	-0.185739	0.293218
H272	H	-0.354793	-0.255032	0.248036
C273	C	-0.304536	-0.286619	0.202232
C274	C	-0.287024	-0.242296	0.248301
H275	H	-0.285516	-0.299249	0.197661
H276	H	-0.304661	-0.276393	0.181944
H277	H	-0.335312	-0.314286	0.195843
H278	H	-0.256251	-0.214628	0.254688
H279	H	-0.286893	-0.252519	0.268590
H280	H	0.428401	0.671492	0.353574
H281	H	0.428385	-0.328553	-0.024438
O282	O	0.431842	0.543208	0.225440
C283	C	0.401721	0.497708	0.180147
H284	H	0.364223	0.482047	0.178723
H285	H	0.409395	0.509085	0.154600
C286	C	0.455161	0.473027	0.168853
C287	C	0.409104	0.453790	0.167106
H288	H	0.459716	0.445937	0.160807
H289	H	0.475455	0.503683	0.199368
H290	H	0.461550	0.482507	0.147564
H291	H	0.402717	0.444316	0.188399
H292	H	0.388809	0.423132	0.136594
O293	O	-0.365963	-0.457197	-0.227166
C294	C	-0.363680	-0.471096	-0.196494
H295	H	-0.346586	-0.433875	-0.159192
H296	H	-0.400254	-0.502375	-0.201324
C297	C	-0.355864	-0.540022	-0.252672
C298	C	-0.334866	-0.494306	-0.206856
H299	H	-0.338093	-0.554341	-0.259064
H300	H	-0.357405	-0.530660	-0.273337
H301	H	-0.386342	-0.566082	-0.256691
H302	H	-0.304391	-0.468245	-0.202839
H303	H	-0.333320	-0.503664	-0.186191
O304	O	-0.358969	-0.407606	-0.134784
C305	C	-0.317058	-0.369898	-0.097091
H306	H	-0.290231	-0.340310	-0.103785
H307	H	-0.323405	-0.347315	-0.063935
C308	C	-0.331893	-0.435522	-0.083443
C309	C	-0.298942	-0.399184	-0.091666
H310	H	-0.320719	-0.453587	-0.080095
H311	H	-0.360130	-0.460927	-0.108836
H312	H	-0.337179	-0.416697	-0.055814
H313	H	-0.293661	-0.418010	-0.119298
H314	H	-0.270704	-0.373784	-0.066277
H315	H	0.101599	-0.203118	0.023105
O316	O	0.296647	0.543348	0.225571
C317	C	0.281285	0.573270	0.255685
H318	H	0.303126	0.596538	0.293193
H319	H	0.285009	0.602524	0.248010
C320	C	0.203146	0.506426	0.202210
C321	C	0.229969	0.535001	0.248279
H322	H	0.171491	0.482821	0.197641
H323	H	0.213495	0.486268	0.181921
H324	H	0.206255	0.530810	0.195821
H325	H	0.226864	0.510617	0.254666
H326	H	0.219617	0.555154	0.268569
O327	O	0.136598	0.223901	0.016369
C328	C	0.132352	0.219640	-0.025559
H329	H	0.160564	0.216432	-0.039393
H330	H	0.096782	0.182354	-0.052130
C331	C	0.103003	0.273626	0.000215
C332	C	0.137655	0.269690	-0.016775
H333	H	0.106272	0.304498	0.005632
H334	H	0.105862	0.276495	0.028462
H335	H	0.073365	0.242552	-0.021930
H336	H	0.167292	0.300761	0.005372
H337	H	0.134802	0.266828	-0.045018
H338	H	-0.377495	-0.406374	-0.374479
H339	H	-0.119415	-0.203249	-0.568576
H340	H	-0.119051	-0.078274	0.023107
O341	O	0.093986	0.138515	0.023385
C342	C	0.077797	0.166876	0.021072
H343	H	0.108646	0.208523	0.033142
H344	H	0.055934	0.144300	-0.016250
C345	C	0.010087	0.120943	0.037831
C346	C	0.047976	0.172096	0.052659
H347	H	-0.008310	0.124161	0.057313
H348	H	0.020992	0.101833	0.039388
H349	H	-0.008127	0.102135	0.006729
H350	H	0.066193	0.190900	0.083758
H351	H	0.037073	0.191209	0.051108
H352	H	0.031815	0.002671	-0.374520
O353	O	0.093946	0.138427	-0.227205
C354	C	0.077766	0.166807	-0.196534
H355	H	0.097898	0.187027	-0.159231
H356	H	0.083066	0.198552	-0.201363
C357	C	0.001008	0.102778	-0.252713
C358	C	0.025733	0.127609	-0.206898
H359	H	-0.031088	0.078600	-0.259107
H360	H	0.011909	0.083659	-0.273378
H361	H	0.005430	0.129237	-0.256732
H362	H	0.021315	0.101151	-0.202882
H363	H	0.014830	0.146723	-0.186232
H364	H	0.303876	-0.453068	-0.024449
O365	O	0.137366	-0.256021	0.016531
C366	C	0.125825	-0.245581	0.057272
H367	H	0.150187	-0.200906	0.086120
H368	H	0.088483	-0.258159	0.050294
C369	C	0.100832	-0.332409	0.036804
C370	C	0.130756	-0.277538	0.072236
H371	H	0.103871	-0.352122	0.046034
H372	H	0.108605	-0.339443	0.009355
H373	H	0.069716	-0.342882	0.030992
H374	H	0.161871	-0.267064	0.078043
H375	H	0.122988	-0.270502	0.099687
O376	O	-0.365954	-0.666895	-0.572281
C377	C	-0.363657	-0.695399	-0.616817
H378	H	-0.346581	-0.715566	-0.616770
H379	H	-0.400226	-0.727195	-0.643279
C380	C	-0.355789	-0.631569	-0.629840
C381	C	-0.334812	-0.656336	-0.629782
H382	H	-0.337998	-0.607474	-0.637839
H383	H	-0.357338	-0.612366	-0.599836
H384	H	-0.386262	-0.658071	-0.651892
H385	H	-0.304342	-0.629834	-0.607726
H386	H	-0.333257	-0.675533	-0.659783
O387	O	-0.377697	-0.534583	-0.506243
C388	C	-0.417884	-0.549936	-0.534464
H389	H	-0.445466	-0.555565	-0.516916
H390	H	-0.408952	-0.517439	-0.539725
C391	C	-0.402713	-0.596085	-0.603443
C392	C	-0.436591	-0.603004	-0.581891
H393	H	-0.414252	-0.628818	-0.632699
H394	H	-0.375637	-0.585740	-0.584430
H395	H	-0.395272	-0.569002	-0.607823
H396	H	-0.444027	-0.630081	-0.577507
H397	H	-0.463669	-0.613354	-0.600905
O398	O	-0.207797	-0.120497	-0.479268
C399	C	-0.224348	-0.107760	-0.504371
H400	H	-0.202887	-0.102083	-0.527631
H401	H	-0.262284	-0.141753	-0.526675
C402	C	-0.246534	-0.062571	-0.441676
C403	C	-0.220172	-0.055593	-0.470241
H404	H	-0.243960	-0.030394	-0.420623
H405	H	-0.235385	-0.071154	-0.424764
H406	H	-0.278145	-0.090900	-0.460267
H407	H	-0.188561	-0.027270	-0.451650
H408	H	-0.231316	-0.047005	-0.487149
H409	H	0.140098	-0.249439	-0.608389
O410	O	-0.365861	-0.457188	-0.572514
C411	C	-0.328027	-0.448553	-0.547313
H412	H	-0.299080	-0.403821	-0.524138
H413	H	-0.339713	-0.464048	-0.524915
C414	C	-0.345569	-0.533554	-0.609811
C415	C	-0.310014	-0.478614	-0.581349
H416	H	-0.334458	-0.552099	-0.630805
H417	H	-0.371059	-0.539373	-0.626789
H418	H	-0.355304	-0.546459	-0.591141
H419	H	-0.300283	-0.465708	-0.600019
H420	H	-0.284521	-0.472794	-0.564375
H421	H	-0.365735	-0.669974	-0.443672
H422	H	0.031694	-0.531150	-0.374482
H423	H	-0.365631	-0.325000	-0.444306
H424	H	-0.377530	-0.530877	-0.374474
O425	O	-0.207952	-0.752402	-0.615496
C426	C	-0.224526	-0.806807	-0.644804
H427	H	-0.203065	-0.814282	-0.629025
H428	H	-0.262458	-0.833055	-0.648747
C429	C	-0.246740	-0.811501	-0.712188
C430	C	-0.220379	-0.820681	-0.692809
H431	H	-0.244184	-0.820060	-0.741800
H432	H	-0.235576	-0.774848	-0.692442
H433	H	-0.278347	-0.833376	-0.715470
H434	H	-0.188772	-0.798801	-0.689522
H435	H	-0.231538	-0.857330	-0.712555
H436	H	0.156199	-0.406635	-0.374473
H437	H	-0.359366	-0.748627	-0.482859
H438	H	0.428473	-0.075008	0.353613
O439	O	-0.318007	-0.071409	0.225455
C440	C	-0.317817	-0.101329	0.180162
H441	H	-0.303574	-0.124581	0.178743
H442	H	-0.354745	-0.130599	0.154618
C443	C	-0.304458	-0.034507	0.168848
C444	C	-0.286961	-0.063061	0.167107
H445	H	-0.285427	-0.010903	0.160794
H446	H	-0.304588	-0.014350	0.199363
H447	H	-0.335231	-0.058904	0.147562
H448	H	-0.256192	-0.038665	0.188397
H449	H	-0.286826	-0.083213	0.136596
O450	O	0.431969	-0.456683	-0.024576
C451	C	0.477255	-0.426765	-0.024777
H452	H	0.478677	-0.403514	-0.039029
H453	H	0.502800	-0.397496	0.012153
C454	C	0.488548	-0.493590	-0.038129
C455	C	0.490293	-0.465036	-0.055637
H456	H	0.496592	-0.517196	-0.057163
H457	H	0.458039	-0.513745	-0.037992
H458	H	0.509836	-0.469193	-0.007354
H459	H	0.469002	-0.489432	-0.086409
H460	H	0.520799	-0.444886	-0.055781
O461	O	0.229811	-0.070943	0.023303
C462	C	0.204619	-0.079585	-0.014547
H463	H	0.181437	-0.124319	-0.043487
H464	H	0.182235	-0.064083	-0.002868
C465	C	0.267124	0.005404	0.002965
C466	C	0.238655	-0.049538	-0.032580
H467	H	0.288119	0.023940	-0.008157
H468	H	0.284096	0.011228	0.028467
H469	H	0.248466	0.018315	0.012695
H470	H	0.257313	-0.062449	-0.042306
H471	H	0.221687	-0.055363	-0.058084
H472	H	0.265088	0.220776	0.016692
H473	H	0.031696	-0.531156	-0.498993
H474	H	-0.359263	-0.404285	-0.608348
H475	H	-0.119361	-0.203127	0.023091
O476	O	-0.359010	-0.272084	-0.480160
C477	C	-0.396857	-0.280732	-0.505353
H478	H	-0.409633	-0.315256	-0.543310
H479	H	-0.426139	-0.291102	-0.490299
C480	C	-0.365695	-0.187129	-0.455317
C481	C	-0.381384	-0.229530	-0.501937
H482	H	-0.356152	-0.155545	-0.453208
H483	H	-0.340198	-0.181303	-0.438343
H484	H	-0.390100	-0.195778	-0.442777
H485	H	-0.356978	-0.220884	-0.514474
H486	H	-0.406878	-0.235353	-0.518913
O487	O	-0.208291	-0.752566	-0.480094
C488	C	-0.245970	-0.748340	-0.475974
H489	H	-0.239172	-0.714735	-0.478649
H490	H	-0.279090	-0.787811	-0.505005
C491	C	-0.259922	-0.777071	-0.425358
C492	C	-0.251570	-0.735794	-0.428640
H493	H	-0.263378	-0.769335	-0.396161
H494	H	-0.234538	-0.779921	-0.428135
H495	H	-0.287521	-0.809960	-0.449553
H496	H	-0.223968	-0.702908	-0.404449
H497	H	-0.276950	-0.732939	-0.425858
O498	O	-0.365944	-0.321494	-0.226887
C499	C	-0.363615	-0.274644	-0.196081
H500	H	-0.375689	-0.276043	-0.166551
H501	H	-0.326294	-0.238018	-0.181279
C502	C	-0.380348	-0.269336	-0.258584
C503	C	-0.395181	-0.271056	-0.222317
H504	H	-0.399817	-0.267121	-0.274767
H505	H	-0.381915	-0.300898	-0.279338
H506	H	-0.349246	-0.238814	-0.246243
H507	H	-0.426280	-0.301581	-0.234658
H508	H	-0.393620	-0.239498	-0.201564
O509	O	-0.359075	-0.272067	-0.134540
C510	C	-0.396918	-0.280705	-0.117987
H511	H	-0.425859	-0.325438	-0.139546
H512	H	-0.385240	-0.265199	-0.080088
C513	C	-0.379387	-0.195717	-0.095502
C514	C	-0.414935	-0.250659	-0.121983
H515	H	-0.390500	-0.177182	-0.097964
H516	H	-0.353891	-0.189896	-0.106652
H517	H	-0.369659	-0.182803	-0.063921
H518	H	-0.424659	-0.263574	-0.153563
H519	H	-0.440434	-0.256481	-0.110838
O520	O	0.163525	0.006419	-0.370893
C521	C	0.178915	0.051915	-0.325597
H522	H	0.157092	0.067587	-0.324174
H523	H	0.175192	0.040529	-0.300057
C524	C	0.257036	0.076575	-0.314291
C525	C	0.230235	0.095826	-0.312544
H526	H	0.288693	0.103661	-0.306238
H527	H	0.246668	0.045922	-0.344807
H528	H	0.253929	0.067086	-0.293007
H529	H	0.233338	0.105308	-0.333832
H530	H	0.240605	0.126482	-0.282031
H531	H	-0.204451	-0.248831	-0.607769
O532	O	0.028128	-0.129008	-0.506255
C533	C	-0.017151	-0.144179	-0.521639
H534	H	-0.028482	-0.127932	-0.490417
H535	H	-0.017547	-0.127100	-0.541709
C536	C	-0.036853	-0.225724	-0.591856
C537	C	-0.050772	-0.205773	-0.553509
H538	H	-0.057592	-0.263717	-0.611516
H539	H	-0.006347	-0.215502	-0.581492
H540	H	-0.037183	-0.211486	-0.608575
H541	H	-0.050436	-0.220005	-0.536787
H542	H	-0.081278	-0.215998	-0.563870
H543	H	0.140271	0.220473	-0.138537
O544	O	-0.115460	-0.070984	-0.436631
C545	C	-0.146120	-0.057091	-0.420429
H546	H	-0.175693	-0.075868	-0.451276
H547	H	-0.160870	-0.072548	-0.398568
C548	C	-0.083417	0.027390	-0.352705
C549	C	-0.119737	0.004331	-0.390592
H550	H	-0.067143	0.065279	-0.334299
H551	H	-0.062761	0.018030	-0.363620
H552	H	-0.095715	0.014505	-0.334493
H553	H	-0.107439	0.017212	-0.408807
H554	H	-0.140391	0.013695	-0.379680
H555	H	0.100931	-0.203587	-0.568924
H556	H	0.264945	-0.124858	-0.483812
O557	O	0.229546	-0.071634	-0.437226
C558	C	0.274075	-0.057896	-0.421190
H559	H	0.274021	-0.095196	-0.441403
H560	H	0.300530	-0.026662	-0.426528
C561	C	0.287117	0.011119	-0.344334
C562	C	0.287050	-0.034695	-0.369157
H563	H	0.295122	0.025432	-0.312236
H564	H	0.257117	0.001865	-0.355137
H565	H	0.309163	0.037141	-0.348787
H566	H	0.265000	-0.060719	-0.364708
H567	H	0.317046	-0.025445	-0.358351
H568	H	0.225857	0.142053	-0.223307
H569	H	0.265074	0.220736	-0.138258
H570	H	0.031822	-0.121736	0.034940
H571	H	0.265565	-0.279067	-0.138494
O572	O	0.163585	0.006465	0.035112
C573	C	0.191799	0.021821	0.075312
H574	H	0.174253	0.027450	0.102897
H575	H	0.197054	-0.010673	0.066388
C576	C	0.260771	0.067974	0.060132
C577	C	0.239223	0.074891	0.094014
H578	H	0.290025	0.100709	0.071668
H579	H	0.241763	0.057627	0.033048
H580	H	0.265146	0.040894	0.052699
H581	H	0.234843	0.101966	0.101443
H582	H	0.258231	0.085245	0.121100
H583	H	0.225887	0.142119	0.023082
H584	H	0.265615	-0.123845	0.016732
H585	H	-0.204395	-0.248706	0.016711
H586	H	0.226102	-0.324921	-0.223541
H587	H	0.226102	-0.324921	-0.443679
H588	H	0.265569	-0.279075	-0.482871
O589	O	-0.115603	-0.666852	-0.572606
C590	C	-0.137557	-0.648073	-0.584142
H591	H	-0.175132	-0.669796	-0.585286
H592	H	-0.118573	-0.603145	-0.556875
C593	C	-0.090275	-0.632227	-0.630627
C594	C	-0.136427	-0.658911	-0.632036
H595	H	-0.089576	-0.638909	-0.660169
H596	H	-0.075483	-0.644876	-0.622854
H597	H	-0.074460	-0.594789	-0.607902
H598	H	-0.152239	-0.696348	-0.654756
H599	H	-0.151221	-0.646268	-0.639814
O600	O	0.137303	-0.406955	-0.134473
C601	C	0.133174	-0.369159	-0.096801
H602	H	0.161377	-0.327159	-0.086311
H603	H	0.097601	-0.378159	-0.107448
C604	C	0.103981	-0.424037	-0.068324
C605	C	0.138623	-0.372451	-0.055437
H606	H	0.107340	-0.426069	-0.042809
H607	H	0.106761	-0.449502	-0.093705
H608	H	0.074340	-0.431531	-0.077196
H609	H	0.168263	-0.364961	-0.046570
H610	H	0.135848	-0.346984	-0.030053
H611	H	0.101519	-0.449496	-0.568531
O612	O	0.137293	-0.406975	-0.614790
C613	C	0.133188	-0.369173	-0.614680
H614	H	0.135876	-0.339679	-0.578396
H615	H	0.162214	-0.346497	-0.625120
C616	C	0.082563	-0.434580	-0.694033
C617	C	0.085860	-0.398358	-0.649470
H618	H	0.053370	-0.452582	-0.715495
H619	H	0.085329	-0.460048	-0.694109
H620	H	0.106753	-0.415678	-0.702727
H621	H	0.061673	-0.417261	-0.640775
H622	H	0.083088	-0.372894	-0.649394
H623	H	-0.119508	-0.670527	-0.444316
H624	H	0.101516	-0.449485	-0.223274
