data_functionalizedCrystal
_audit_creation_method	'MofGen! by Chris Wilmer'
_symmetry_space_group_name_H-M	'P1'
_symmetry_Int_Tables_number	1
_symmetry_cell_setting	triclinic
loop_
_symmetry_equiv_pos_as_xyz
  x,y,z
_cell_length_a	10.654550
_cell_length_b	15.944480
_cell_length_c	14.421503
_cell_angle_alpha	89.996942
_cell_angle_beta	89.990376
_cell_angle_gamma	83.977375
loop_
_atom_site_label
_atom_site_type_symbol
_atom_site_fract_x
_atom_site_fract_y
_atom_site_fract_z
O1	O	-1.666272	-0.117985	0.077174
O2	O	-1.300644	-0.129226	0.077158
O3	O	-1.493489	-0.001385	0.077175
O4	O	-1.473427	-0.245826	0.077157
O5	O	-1.493468	-0.001370	-0.077049
O6	O	-1.300623	-0.129211	-0.077066
O7	O	-1.666251	-0.117971	-0.077049
Cu8	Cu	-1.483435	-0.123590	-0.091139
Cu9	Cu	-1.483460	-0.123607	0.091248
O10	O	-1.473406	-0.245812	-0.077066
C11	C	-1.253847	-0.128393	0.000044
C12	C	-1.114436	-0.125924	0.000039
C13	C	-1.492661	0.029922	0.000067
C14	C	-1.490211	0.123186	0.000079
N15	N	-1.483427	-0.123577	-0.219421
C16	C	-1.713049	-0.118803	0.000066
C17	C	-1.852459	-0.121273	0.000078
C18	C	-1.033948	-0.201195	0.000047
C19	C	-0.902958	-0.198869	0.000063
C20	C	-0.932958	-0.045996	0.000067
C21	C	-1.063945	-0.048322	0.000044
C22	C	-1.016627	-0.289455	0.000049
C23	C	-0.885637	-0.287130	0.000065
C24	C	-1.603735	0.358290	0.000068
C25	C	-1.542538	0.409205	0.076105
C26	C	-1.485672	0.293934	0.000068
C27	C	-1.542490	0.409196	-0.075947
C28	C	-1.481296	0.458870	0.000054
C29	C	-1.424507	0.343621	0.076168
C30	C	-1.424476	0.343608	-0.075952
C31	C	-1.363193	0.394491	0.000104
C32	C	-1.488196	0.198919	0.000077
C33	C	-1.478762	0.553882	0.000051
C34	C	-1.474251	0.722883	0.000045
C35	C	-1.476752	0.629623	0.000042
N36	N	-1.483478	-0.123613	0.219529
C37	C	-1.572827	-0.064584	0.469160
C38	C	-1.596889	-0.140679	0.530993
C39	C	-1.483461	-0.123603	0.408690
C40	C	-1.459442	-0.047498	0.530951
C41	C	-1.483448	-0.123586	0.591412
C42	C	-1.507579	-0.199736	0.469163
C43	C	-1.370083	-0.106505	0.469115
C44	C	-1.394096	-0.182655	0.530921
C45	C	-1.483472	-0.123611	0.303429
C46	C	-1.483436	-0.123586	0.696671
H47	H	-1.129475	0.012971	0.000024
H48	H	-1.527992	-0.264107	0.442136
N49	N	-1.060844	-0.324751	0.083575
N50	N	-1.021693	-0.398539	0.106284
H51	H	-1.052905	-0.423474	0.165277
H52	H	-1.318511	-0.232613	0.557868
N53	N	-1.717167	-0.158813	0.565084
N54	N	-1.814174	-0.111152	0.545298
H55	H	-1.899125	-0.123953	0.569371
H56	H	-0.839602	-0.313797	-0.066519
N57	N	-1.249846	-0.088330	0.434999
N58	N	-1.209013	-0.019848	0.454752
H59	H	-1.124094	-0.007002	0.430658
N60	N	-1.433974	0.033235	0.564997
N61	N	-1.506510	0.097494	0.545196
H62	H	-1.488534	0.154514	0.569238
N63	N	-1.605076	0.445170	0.156752
N64	N	-1.545926	0.485180	0.213667
H65	H	-1.590099	0.510580	0.270621
N66	N	-0.881358	0.033261	0.000066
N67	N	-0.764404	0.035329	0.000079
H68	H	-0.727962	0.091306	0.000078
H69	H	-1.045490	-0.323967	-0.064500
N70	N	-0.832752	-0.328833	0.081051
N71	N	-0.902913	-0.360116	0.138098
H72	H	-0.865567	-0.389559	0.195299
H73	H	-1.261422	0.410546	0.000141
N74	N	-1.731308	0.337952	0.000173
N75	N	-1.803394	0.361796	0.065571
H76	H	-1.893491	0.347433	0.065650
N77	N	-1.362034	0.307818	0.156906
N78	N	-1.420971	0.267349	0.213536
H79	H	-1.376856	0.242061	0.270557
N80	N	-1.361978	0.307653	-0.156612
N81	N	-1.402247	0.328832	-0.235509
H82	H	-1.358116	0.303440	-0.292483
H83	H	-1.592366	0.437844	-0.140227
N84	N	-1.667709	-0.002056	0.435146
N85	N	-1.781068	-0.006311	0.455003
H86	H	-1.848081	0.037846	0.430981
