data_functionalizedCrystal
_audit_creation_method	'MofGen! by Chris Wilmer'
_symmetry_space_group_name_H-M	'P1'
_symmetry_Int_Tables_number	1
_symmetry_cell_setting	triclinic
loop_
_symmetry_equiv_pos_as_xyz
  x,y,z
_cell_length_a	14.853566
_cell_length_b	23.532407
_cell_length_c	13.330367
_cell_angle_alpha	89.990692
_cell_angle_beta	89.995295
_cell_angle_gamma	83.241546
loop_
_atom_site_label
_atom_site_type_symbol
_atom_site_fract_x
_atom_site_fract_y
_atom_site_fract_z
O1	O	1.195556	0.074349	-0.083368
O2	O	0.933000	0.083207	-0.083386
O3	O	1.072195	-0.004119	-0.083358
O4	O	1.056361	0.161675	-0.083396
O5	O	1.072175	-0.004121	0.083489
O6	O	0.932980	0.083205	0.083461
O7	O	1.195536	0.074347	0.083479
Cu8	Cu	1.064256	0.078776	0.098705
Cu9	Cu	1.064280	0.078778	-0.098611
O10	O	1.056341	0.161673	0.083451
C11	C	0.899405	0.082805	0.000036
C12	C	0.799335	0.081603	0.000030
C13	C	0.376216	0.076518	-0.090900
C14	C	0.376216	0.076516	0.091003
C15	C	0.470238	0.077646	0.091000
C16	C	0.517253	0.078212	0.000045
C17	C	0.470247	0.077649	-0.090906
C18	C	0.517250	0.078214	0.181950
C19	C	0.611277	0.079344	0.181950
C20	C	0.658295	0.079906	0.090994
C21	C	0.611283	0.079343	0.000039
C22	C	0.658298	0.079909	-0.090915
C23	C	0.611289	0.079342	-0.181871
C24	C	0.517264	0.078211	-0.181862
C25	C	0.752320	0.081036	0.090985
C26	C	0.752328	0.081040	-0.090921
C27	C	1.071782	-0.025338	0.000068
C28	C	1.070570	-0.088560	0.000076
C29	C	1.145339	-0.487337	0.000026
C30	C	1.144213	-0.546742	0.000018
O31	O	1.213524	-0.583184	-0.000014
N32	N	1.061461	-0.569729	0.000013
C33	C	0.979830	-0.533308	0.000006
O34	O	0.909340	-0.558315	0.000000
C35	C	0.980957	-0.473904	0.000006
C36	C	1.063714	-0.450920	0.000022
C37	C	1.228089	-0.464353	0.000040
C38	C	1.229215	-0.404952	0.000049
C39	C	1.147591	-0.368535	0.000045
C40	C	1.064840	-0.391519	0.000031
C41	C	0.899327	-0.437483	-0.000008
C42	C	0.900462	-0.378076	-0.000008
C43	C	0.983219	-0.355092	0.000007
C44	C	0.984341	-0.295701	0.000036
N45	N	1.067093	-0.272714	0.000041
C46	C	1.148718	-0.309131	0.000046
C47	C	0.977469	-0.658060	0.000003
C48	C	0.976341	-0.717463	0.000010
C49	C	1.140724	-0.730894	0.000020
C50	C	1.141851	-0.671490	0.000021
C51	C	1.060221	-0.635073	0.000008
C52	C	1.151076	-0.184384	0.000067
C53	C	1.152194	-0.124977	0.000080
C54	C	0.987812	-0.111552	0.000065
C55	C	0.986693	-0.170953	0.000056
C56	C	1.068332	-0.207369	0.000054
O57	O	0.915066	-0.259224	0.000065
O58	O	1.219196	-0.284115	0.000038
C59	C	1.229131	0.074750	0.000056
C60	C	1.329201	0.075952	0.000055
C61	C	1.056754	0.182892	0.000023
C62	C	1.057966	0.246115	0.000009
N63	N	1.064246	0.078774	0.237486
N64	N	1.064297	0.078776	-0.237393
C65	C	1.002642	0.117431	0.710097
C66	C	1.125943	0.040121	0.710090
C67	C	1.125932	0.040119	0.605071
C68	C	1.064277	0.078775	0.552561
C69	C	1.002631	0.117432	0.605069
C70	C	1.187583	0.001467	0.552555
C71	C	1.187576	0.001464	0.447531
C72	C	1.125915	0.040117	0.395018
C73	C	1.064266	0.078775	0.447533
C74	C	1.002611	0.117431	0.395022
C75	C	0.940957	0.156087	0.447535
C76	C	0.940971	0.156085	0.552557
C77	C	1.125902	0.040119	0.289997
C78	C	1.002601	0.117431	0.289994
H79	H	0.337938	0.076054	-0.164954
O80	O	0.942795	0.155061	0.239035
C81	C	0.889033	0.254027	0.206940
C82	C	0.956825	0.211475	0.264694
H83	H	0.900339	0.299646	0.227680
H84	H	0.899613	0.247441	0.122845
H85	H	0.816907	0.246490	0.227592
H86	H	1.028978	0.218985	0.244126
H87	H	0.946166	0.218071	0.348775
H88	H	0.790589	0.081504	0.165040
H89	H	1.296604	-0.386244	0.000058
O90	O	1.222320	-0.649260	-0.000019
C91	C	1.385245	-0.668867	0.000048
C92	C	1.294174	-0.694113	0.000075
H93	H	1.443363	-0.705119	0.000146
H94	H	1.389955	-0.641410	-0.069796
H95	H	1.389831	-0.641376	0.069855
H96	H	1.289526	-0.721630	-0.069684
H97	H	1.289502	-0.721538	0.069966
O98	O	0.330569	0.076069	0.179379
C99	C	0.291192	0.125001	0.334873
C100	C	0.342912	0.125587	0.234809
H101	H	0.301168	0.165026	0.379725
H102	H	0.215895	0.124134	0.319316
H103	H	0.318277	0.085379	0.379687
H104	H	0.315903	0.165203	0.189944
H105	H	0.418202	0.126424	0.250436
H106	H	0.910992	-0.628413	0.000001
O107	O	0.656919	0.079788	0.270327
C108	C	0.696283	0.030846	0.425835
C109	C	0.644570	0.030267	0.325775
H110	H	0.686302	-0.009182	0.470702
H111	H	0.771581	0.031712	0.410272
H112	H	0.669197	0.070465	0.470637
H113	H	0.671580	-0.009346	0.280922
H114	H	0.569278	0.029431	0.341408
H115	H	0.890760	0.187563	0.404769
O116	O	1.307469	-0.499642	0.000092
C117	C	1.470631	-0.506673	0.000062
C118	C	1.380794	-0.466649	0.000015
H119	H	1.529938	-0.480014	-0.000022
H120	H	1.474271	-0.534814	0.069907
H121	H	1.474188	-0.534829	-0.069744
H122	H	1.377177	-0.438457	0.069774
H123	H	1.377191	-0.438547	-0.069875
O124	O	0.881178	0.193614	0.603722
C125	C	0.826527	0.227856	0.765521
C126	C	0.894300	0.185332	0.707697
H127	H	0.837099	0.221167	0.849594
H128	H	0.837862	0.273497	0.744928
H129	H	0.754395	0.220360	0.744836
H130	H	0.966459	0.192776	0.728350
H131	H	0.882886	0.139706	0.728294
O132	O	0.657047	0.079971	-0.270158
C133	C	0.752511	0.130570	-0.375756
C134	C	0.700744	0.129922	-0.275731
H135	H	0.787838	0.170957	-0.380304
H136	H	0.805200	0.091306	-0.380303
H137	H	0.702759	0.129941	-0.440749
H138	H	0.750427	0.130570	-0.210681
H139	H	0.648042	0.169182	-0.271271
H140	H	0.478962	0.077757	0.256000
H141	H	0.831938	-0.456186	-0.000026
O142	O	1.219994	-0.766298	-0.000165
C143	C	1.314089	-0.841180	-0.086588
C144	C	1.224299	-0.801108	-0.086514
H145	H	1.317590	-0.869343	-0.156383
H146	H	1.373468	-0.814581	-0.086648
H147	H	1.317652	-0.869311	-0.016736
H148	H	1.220647	-0.772969	-0.156354
H149	H	1.164962	-0.827742	-0.086401
O150	O	0.895871	-0.739691	-0.000038
C151	C	0.732947	-0.720084	0.000011
C152	C	0.824017	-0.694838	0.000050
H153	H	0.674829	-0.683833	0.000103
H154	H	0.728251	-0.747529	-0.069835
H155	H	0.728346	-0.747588	0.069815
H156	H	0.828680	-0.667309	-0.069707
H157	H	0.828675	-0.667426	0.069942
O158	O	1.247250	-0.036216	0.396519
C159	C	1.266817	-0.114176	0.278358
C160	C	1.199196	-0.071456	0.335981
H161	H	1.227992	-0.142686	0.229415
H162	H	1.311752	-0.089727	0.228995
H163	H	1.310777	-0.141768	0.334071
H164	H	1.155176	-0.043853	0.280341
H165	H	1.154324	-0.095940	0.385359
O166	O	1.232668	-0.102746	0.000046
C167	C	1.395593	-0.122348	0.000114
C168	C	1.304526	-0.147597	0.000132
H169	H	1.453714	-0.158597	0.000204
H170	H	1.400303	-0.094884	-0.069723
H171	H	1.400177	-0.094862	0.069927
H172	H	1.299881	-0.175109	-0.069634
H173	H	1.299856	-0.175028	0.070015
O174	O	1.185787	0.002494	0.760989
C175	C	1.239443	-0.096475	0.793205
C176	C	1.171638	-0.053920	0.735474
H177	H	1.228015	-0.142094	0.772614
H178	H	1.311603	-0.089027	0.772528
H179	H	1.228867	-0.089802	0.877281
H180	H	1.182131	-0.060567	0.651385
H181	H	1.099502	-0.061379	0.756235
O182	O	1.247422	-0.036162	0.603460
C183	C	1.301071	-0.135131	0.635677
C184	C	1.233276	-0.092574	0.577936
H185	H	1.289646	-0.180750	0.615078
H186	H	1.373235	-0.127683	0.615014
H187	H	1.290482	-0.128460	0.719751
H188	H	1.243782	-0.099219	0.493849
H189	H	1.161136	-0.100033	0.598682
H190	H	1.176103	0.008648	0.247246
O191	O	0.906283	-0.193258	-0.000131
C192	C	0.765435	-0.199909	-0.086566
C193	C	0.856474	-0.174627	-0.086476
H194	H	0.725130	-0.184846	-0.156358
H195	H	0.778597	-0.248624	-0.086645
H196	H	0.725150	-0.184940	-0.016711
H197	H	0.896805	-0.189551	-0.156320
H198	H	0.843248	-0.125914	-0.086345
H199	H	0.833987	-0.348428	-0.000020
O200	O	1.230355	-0.219775	-0.000108
C201	C	1.324495	-0.294646	-0.086506
C202	C	1.234691	-0.254590	-0.086454
H203	H	1.328022	-0.322812	-0.156298
H204	H	1.383861	-0.268035	-0.086557
H205	H	1.328060	-0.322775	-0.016651
H206	H	1.231038	-0.226453	-0.156297
H207	H	1.175367	-0.281235	-0.086350
O208	O	0.908550	-0.076146	-0.000120
C209	C	0.814485	-0.001241	-0.086547
C210	C	0.904271	-0.041316	-0.086464
H211	H	0.811004	0.026937	-0.156337
H212	H	0.755102	-0.027838	-0.086624
H213	H	0.810906	0.026874	-0.016690
H214	H	0.907938	-0.069439	-0.156309
H215	H	0.963612	-0.014685	-0.086334
H216	H	0.790602	0.081499	-0.164989
H217	H	0.952441	0.148903	0.752855
H218	H	0.478981	0.077749	-0.255913
