data_functionalizedCrystal
_audit_creation_method	'MofGen! by Chris Wilmer'
_symmetry_space_group_name_H-M	'P1'
_symmetry_Int_Tables_number	1
_symmetry_cell_setting	triclinic
loop_
_symmetry_equiv_pos_as_xyz
  x,y,z
_cell_length_a	16.992695
_cell_length_b	17.699083
_cell_length_c	16.776229
_cell_angle_alpha	90.001114
_cell_angle_beta	89.993259
_cell_angle_gamma	93.024381
loop_
_atom_site_label
_atom_site_type_symbol
_atom_site_fract_x
_atom_site_fract_y
_atom_site_fract_z
O1	O	0.099146	-1.010251	-0.066177
O2	O	0.599146	-0.510251	0.433823
O3	O	0.112045	-0.790676	-0.066203
O4	O	0.612045	-0.290676	0.433797
O5	O	-0.008546	-0.899583	-0.066184
O6	O	0.491454	-0.399583	0.433816
O7	O	0.219736	-0.901344	-0.066196
O8	O	0.719736	-0.401344	0.433804
O9	O	-0.008553	-0.899568	0.066393
O10	O	0.491447	-0.399568	0.566393
O11	O	0.112037	-0.790660	0.066374
O12	O	0.612037	-0.290660	0.566374
O13	O	0.099138	-1.010235	0.066400
O14	O	0.599138	-0.510235	0.566400
Zn15	Zn	0.105587	-0.900445	0.087436
Zn16	Zn	0.605587	-0.400445	0.587436
Zn17	Zn	0.105596	-0.900466	-0.087239
Zn18	Zn	0.605596	-0.400466	0.412761
O19	O	0.219729	-0.901328	0.066381
O20	O	0.719729	-0.401328	0.566381
C21	C	0.111579	-0.762442	0.000082
C22	C	0.611579	-0.262442	0.500082
C23	C	0.110192	-0.678338	0.000072
C24	C	0.610192	-0.178338	0.500072
C25	C	-0.037758	-0.897311	0.000104
C26	C	0.462242	-0.397311	0.500104
C27	C	-0.124789	-0.890554	0.000103
C28	C	0.375211	-0.390554	0.500103
C29	C	0.099604	-1.038469	0.000113
C30	C	0.599604	-0.538469	0.500113
C31	C	0.100991	-1.122574	0.000118
C32	C	0.600991	-0.622574	0.500118
C33	C	-0.175154	-0.955751	0.000112
C34	C	0.324846	-0.455751	0.500112
C35	C	-0.256928	-0.949398	0.000104
C36	C	0.243072	-0.449398	0.500104
C37	C	-0.288336	-0.877846	0.000092
C38	C	0.211664	-0.377846	0.500092
C39	C	-0.237965	-0.812643	0.000081
C40	C	0.262035	-0.312643	0.500081
C41	C	-0.156192	-0.818998	0.000084
C42	C	0.343808	-0.318998	0.500084
C43	C	-0.531884	-0.851510	0.000078
C44	C	-0.031884	-0.351510	0.500078
C45	C	-0.613663	-0.845160	0.000078
C46	C	-0.113663	-0.345160	0.500078
C47	C	-0.632621	-0.981915	0.000099
C48	C	-0.132621	-0.481915	0.500099
C49	C	-0.550845	-0.988263	0.000106
C50	C	-0.050845	-0.488263	0.500106
C51	C	-0.500481	-0.923061	0.000091
C52	C	-0.000481	-0.423061	0.500091
N53	N	-0.371923	-0.871350	0.000086
N54	N	0.128077	-0.371350	0.500086
N55	N	-0.416897	-0.929558	0.000091
N56	N	0.083103	-0.429558	0.500091
C57	C	0.248941	-0.903601	0.000091
C58	C	0.748941	-0.403601	0.500091
C59	C	0.335972	-0.910358	0.000087
C60	C	0.835972	-0.410358	0.500087
N61	N	0.105579	-0.900437	0.206647
N62	N	0.605579	-0.400437	0.706647
C63	C	0.180976	-0.634124	0.000069
C64	C	0.680976	-0.134124	0.500069
C65	C	0.179669	-0.555099	0.000079
C66	C	0.679669	-0.055099	0.500079
C67	C	0.107576	-0.520290	0.000087
C68	C	0.607576	-0.020290	0.500087
C69	C	0.036787	-0.564510	0.000093
C70	C	0.536787	-0.064510	0.500093
C71	C	0.038095	-0.643533	0.000089
C72	C	0.538095	-0.143533	0.500089
C73	C	0.031509	-0.245818	0.000113
C74	C	0.531509	0.254182	0.500113
C75	C	0.030206	-0.166789	0.000116
C76	C	0.530206	0.333211	0.500116
C77	C	0.173082	-0.157384	0.000104
C78	C	0.673082	0.342616	0.500104
C79	C	0.174391	-0.236408	0.000099
C80	C	0.674391	0.263592	0.500099
C81	C	0.103602	-0.280621	0.000109
C82	C	0.603602	0.219379	0.500109
C83	C	0.105020	-0.366308	0.000099
C84	C	0.605020	0.133692	0.500099
C85	C	0.106157	-0.434604	0.000091
C86	C	0.606157	0.065396	0.500091
N87	N	0.105597	-0.900481	-0.206450
N88	N	0.605597	-0.400481	0.293550
C89	C	0.052204	-0.948678	0.248373
C90	C	0.552204	-0.448678	0.748373
C91	C	0.052203	-0.948682	0.331825
C92	C	0.552203	-0.448682	0.831825
C93	C	0.105582	-0.900448	0.373550
C94	C	0.605582	-0.400448	0.873550
C95	C	0.158961	-0.852202	0.331819
C96	C	0.658961	-0.352202	0.831819
C97	C	0.158957	-0.852194	0.248368
C98	C	0.658957	-0.352194	0.748368
C99	C	0.158976	-0.852230	0.668366
C100	C	0.658976	-0.352230	1.168366
C101	C	0.158977	-0.852243	0.751822
C102	C	0.658977	-0.352243	1.251822
C103	C	0.052222	-0.948718	0.751823
C104	C	0.552222	-0.448718	1.251823
C105	C	0.052219	-0.948710	0.668372
C106	C	0.552219	-0.448710	1.168372
C107	C	0.105594	-0.900461	0.626648
C108	C	0.605594	-0.400461	1.126648
C109	C	0.105593	-0.900456	0.536160
C110	C	0.605593	-0.400456	1.036160
C111	C	0.105588	-0.900456	0.464037
C112	C	0.605588	-0.400456	0.964037
H113	H	-0.297933	-1.002489	0.000112
H114	H	0.202067	-0.502489	0.500112
C115	C	-0.006509	-1.001745	0.377724
C116	C	0.493491	-0.501745	0.877724
H117	H	0.001129	-0.994836	0.433400
H118	H	0.501129	-0.494836	0.933400
H119	H	0.001939	-1.052765	0.364043
H120	H	0.501939	-0.552765	0.864043
H121	H	-0.058826	-0.990358	0.364053
H122	H	0.441174	-0.490358	0.864053
C123	C	-0.688018	-1.053634	0.000107
C124	C	-0.188018	-0.553634	0.500107
H125	H	-0.657600	-1.097156	0.000119
H126	H	-0.157600	-0.597156	0.500119
H127	H	-0.720306	-1.054004	-0.046126
H128	H	-0.220306	-0.554004	0.453874
H129	H	-0.720317	-1.053993	0.046345
H130	H	-0.220317	-0.553993	0.546345
H131	H	-0.019545	-0.679531	0.000091
H132	H	0.480455	-0.179531	0.500091
C133	C	0.217692	-0.799181	0.797723
C134	C	0.717692	-0.299181	1.297723
H135	H	0.210053	-0.806104	0.853398
H136	H	0.710053	-0.306104	1.353398
H137	H	0.209239	-0.748159	0.784059
H138	H	0.709239	-0.248159	1.284059
H139	H	0.270011	-0.810560	0.784036
H140	H	0.770011	-0.310560	1.284036
H141	H	-0.490887	-0.798417	0.000066
H142	H	0.009113	-0.298417	0.500066
C143	C	-0.046354	-0.294446	0.000113
C144	C	0.453646	0.205554	0.500113
H145	H	-0.035255	-0.346495	0.000116
H146	H	0.464745	0.153505	0.500116
H147	H	-0.075916	-0.283424	-0.046118
H148	H	0.424084	0.216576	0.453882
H149	H	-0.075924	-0.283428	0.046352
H150	H	0.424076	0.216572	0.546352
H151	H	-0.525279	-1.046528	0.000115
H152	H	-0.025279	-0.546528	0.500115
H153	H	-0.028504	-0.138450	0.000123
H154	H	0.471496	0.361550	0.500123
H155	H	0.008740	-0.987959	0.214406
H156	H	0.508740	-0.487959	0.714406
C157	C	0.217655	-0.799120	0.377710
C158	C	0.717655	-0.299120	0.877710
H159	H	0.249432	-0.770376	0.340906
H160	H	0.749432	-0.270376	0.840906
H161	H	0.250268	-0.828295	0.410268
H162	H	0.750268	-0.328295	0.910268
H163	H	0.189465	-0.765922	0.410260
H164	H	0.689465	-0.265922	0.910260
C165	C	-0.648211	-0.766450	0.000052
C166	C	-0.148211	-0.266450	0.500052
H167	H	-0.606505	-0.728527	0.000034
H168	H	-0.106505	-0.228527	0.500034
H169	H	-0.679723	-0.761115	0.046281
H170	H	-0.179723	-0.261115	0.546281
H171	H	-0.679710	-0.761147	-0.046189
H172	H	-0.179710	-0.261147	0.453811
H173	H	0.202437	-0.812945	0.634401
H174	H	0.702437	-0.312945	1.134401
H175	H	0.008755	-0.987989	0.634402
H176	H	0.508755	-0.487989	1.134402
H177	H	-0.021912	-0.536162	0.000112
H178	H	0.478088	-0.036162	0.500112
H179	H	-0.263544	-0.754384	0.000067
H180	H	0.236456	-0.254384	0.500067
H181	H	0.008759	-0.988002	0.785804
H182	H	0.508759	-0.488002	1.285804
C183	C	0.217673	-0.799132	0.202470
C184	C	0.717673	-0.299132	0.702470
H185	H	0.249470	-0.770412	0.239270
H186	H	0.749470	-0.270412	0.739270
H187	H	0.189510	-0.765923	0.169924
H188	H	0.689510	-0.265923	0.669924
H189	H	0.250276	-0.828329	0.169908
H190	H	0.750276	-0.328329	0.669908
H191	H	0.230722	-0.121377	0.000100
H192	H	0.730722	0.378623	0.500100
C193	C	-0.100791	-0.747280	0.000077
C194	C	0.399209	-0.247280	0.500077
H195	H	-0.131207	-0.703756	0.000076
H196	H	0.368793	-0.203756	0.500076
H197	H	-0.068492	-0.746923	-0.046155
H198	H	0.431508	-0.246923	0.453845
H199	H	-0.068504	-0.746910	0.046315
H200	H	0.431496	-0.246910	0.546315
H201	H	-0.149588	-1.014017	0.000126
H202	H	0.350412	-0.514017	0.500126
H203	H	0.239682	-0.662460	0.000061
H204	H	0.739682	-0.162460	0.500061
C205	C	0.253690	-0.274698	0.000087
C206	C	0.753690	0.225302	0.500087
H207	H	0.244331	-0.328093	0.000078
H208	H	0.744331	0.171907	0.500078
H209	H	0.282829	-0.259817	0.046318
H210	H	0.782829	0.240183	0.546318
H211	H	0.282829	-0.259812	-0.046153
H212	H	0.782829	0.240188	0.453847
C213	C	0.257531	-0.506467	0.000072
C214	C	0.757531	-0.006467	0.500072
H215	H	0.300654	-0.538516	0.000057
H216	H	0.800654	-0.038516	0.500057
H217	H	0.259993	-0.475447	0.046307
H218	H	0.759993	0.024553	0.546307
H219	H	0.259990	-0.475443	-0.046163
H220	H	0.759990	0.024557	0.453837
