data_functionalizedCrystal
_audit_creation_method	'MofGen! by Chris Wilmer'
_symmetry_space_group_name_H-M	'P1'
_symmetry_Int_Tables_number	1
_symmetry_cell_setting	triclinic
loop_
_symmetry_equiv_pos_as_xyz
  x,y,z
_cell_length_a	16.109318
_cell_length_b	10.654551
_cell_length_c	14.586319
_cell_angle_alpha	89.997973
_cell_angle_beta	90.000075
_cell_angle_gamma	83.976996
loop_
_atom_site_label
_atom_site_type_symbol
_atom_site_fract_x
_atom_site_fract_y
_atom_site_fract_z
O1	O	1.104083	0.161523	-0.076160
O2	O	0.862142	0.181588	-0.076179
O3	O	0.988674	-0.011259	-0.076167
O4	O	0.977550	0.354369	-0.076172
O5	O	0.988666	-0.011262	0.076314
O6	O	0.862133	0.181585	0.076302
O7	O	1.104074	0.161520	0.076320
Cu8	Cu	0.983103	0.171552	0.090234
Cu9	Cu	0.983113	0.171556	-0.090092
O10	O	0.977541	0.354367	0.076309
C11	C	0.831158	0.180770	0.000060
C12	C	0.738849	0.178322	0.000052
C13	C	0.439733	0.170416	-0.083049
C14	C	0.526468	0.172708	-0.083054
C15	C	0.526477	0.172688	0.083189
C16	C	0.439744	0.170387	0.083193
C17	C	0.396374	0.169257	0.000072
C18	C	0.569842	0.173850	0.000062
C19	C	0.663883	0.176336	0.000056
C20	C	0.302326	0.166770	0.000077
C21	C	0.987853	-0.058047	0.000072
C22	C	0.985409	-0.197457	0.000067
C23	C	0.984266	-0.262944	-0.083051
C24	C	0.981962	-0.393933	-0.083052
C25	C	0.981947	-0.393938	0.083191
C26	C	0.984245	-0.262950	0.083191
C27	C	0.930207	-0.563307	-0.182916
C28	C	0.929079	-0.628801	-0.266039
C29	C	0.978462	-0.595924	-0.339421
C30	C	1.028994	-0.497560	-0.329684
C31	C	1.030130	-0.432074	-0.246560
C32	C	0.980727	-0.464944	-0.173181
C33	C	1.036007	-0.093576	0.183050
C34	C	1.037149	-0.028089	0.266175
C35	C	0.987770	-0.060964	0.339564
C36	C	0.937251	-0.159335	0.329836
C37	C	0.936109	-0.224822	0.246711
C38	C	0.985487	-0.191938	0.173321
C39	C	1.135058	0.162338	0.000080
C40	C	1.227367	0.164786	0.000081
C41	C	0.978363	0.401155	0.000068
C42	C	0.980807	0.540565	0.000066
N43	N	0.983101	0.171549	0.217066
N44	N	0.983121	0.171549	-0.216924
C45	C	1.039149	0.086185	0.452077
C46	C	1.039151	0.086182	0.548059
C47	C	0.927068	0.256917	0.548058
C48	C	0.927062	0.256913	0.452078
C49	C	0.983107	0.171549	0.404091
C50	C	0.983115	0.171549	0.596051
C51	C	0.983117	0.171547	0.700118
C52	C	0.983104	0.171549	0.300017
H53	H	0.561799	0.173610	0.150863
O54	O	1.093477	0.003138	0.594713
C55	C	1.110198	-0.168315	0.703120
C56	C	1.048581	-0.074354	0.650326
H57	H	1.073924	-0.230974	0.748110
H58	H	1.150239	-0.229416	0.652373
H59	H	1.152057	-0.114047	0.748012
H60	H	1.006668	-0.128520	0.605433
H61	H	1.008598	-0.013254	0.701122
H62	H	1.071273	-0.351989	-0.238631
H63	H	0.404441	0.169442	0.150884
H64	H	0.881422	0.326427	0.413005
H65	H	1.084783	0.016674	0.413008
O66	O	1.084024	-0.061861	0.111731
C67	C	1.194774	-0.130539	0.006369
C68	C	1.140437	-0.166633	0.087116
H69	H	1.240410	-0.215218	-0.013544
H70	H	1.153137	-0.100682	-0.054697
H71	H	1.231043	-0.048951	0.027614
H72	H	1.104160	-0.248245	0.065958
H73	H	1.182120	-0.196412	0.148161
O74	O	0.889160	-0.191281	0.401020
C75	C	0.750095	-0.212418	0.455491
C76	C	0.804456	-0.176232	0.374791
H77	H	0.681600	-0.200238	0.434320
H78	H	0.768813	-0.314976	0.475353
H79	H	0.759631	-0.148739	0.516573
H80	H	0.794949	-0.239824	0.313657
H81	H	0.785727	-0.073649	0.355008
H82	H	0.881438	0.326421	0.587139
O83	O	0.568641	0.173618	-0.163774
C84	C	0.675381	0.067539	-0.260246
C85	C	0.627672	0.066339	-0.168804
H86	H	0.723130	-0.019173	-0.264334
H87	H	0.629526	0.066256	-0.319686
H88	H	0.708847	0.156487	-0.264386
H89	H	0.594203	-0.022594	-0.164575
H90	H	0.673566	0.067688	-0.109407
H91	H	0.985211	-0.209623	-0.150736
H92	H	0.404424	0.169495	-0.150731
H93	H	0.889983	-0.590073	-0.123172
O94	O	1.076895	-0.465758	-0.401072
C95	C	1.119464	-0.508536	-0.557317
C96	C	1.065163	-0.544668	-0.476549
H97	H	1.110011	-0.572333	-0.618355
H98	H	1.100684	-0.406024	-0.577255
H99	H	1.187949	-0.520556	-0.536107
H100	H	0.996663	-0.532726	-0.497693
H101	H	1.084013	-0.647167	-0.456629
O102	O	0.886982	-0.320291	0.237107
C103	C	0.773660	-0.399431	0.154842
C104	C	0.829247	-0.291240	0.165608
H105	H	0.726956	-0.375969	0.097051
H106	H	0.814232	-0.490682	0.137965
H107	H	0.738601	-0.411702	0.221597
H108	H	0.864316	-0.278853	0.098880
H109	H	0.788631	-0.200048	0.182529
H110	H	0.977543	-0.649258	-0.407101
H111	H	0.981001	-0.447279	0.150867
O112	O	0.988808	0.002484	0.420390
C113	C	0.935580	0.024496	0.574582
C114	C	0.934346	-0.047478	0.483110
H115	H	0.891539	-0.015853	0.625310
H116	H	1.001645	0.014033	0.603631
H117	H	0.914429	0.128666	0.562498
H118	H	0.955459	-0.151673	0.495117
H119	H	0.868272	-0.036911	0.454090
H120	H	0.887930	-0.708888	-0.273961
H121	H	1.078291	0.052006	0.274092
