data_functionalizedCrystal
_audit_creation_method	'MofGen! by Chris Wilmer'
_symmetry_space_group_name_H-M	'P1'
_symmetry_Int_Tables_number	1
_symmetry_cell_setting	triclinic
loop_
_symmetry_equiv_pos_as_xyz
  x,y,z
_cell_length_a	19.805407
_cell_length_b	17.640280
_cell_length_c	17.639306
_cell_angle_alpha	87.821350
_cell_angle_beta	78.774374
_cell_angle_gamma	78.800112
loop_
_atom_site_label
_atom_site_type_symbol
_atom_site_fract_x
_atom_site_fract_y
_atom_site_fract_z
Zn1	Zn	1.165915	-0.389132	-0.368358
Zn2	Zn	1.665915	0.110868	0.131642
Zn3	Zn	1.156987	-0.490457	-0.215728
Zn4	Zn	1.656987	0.009543	0.284272
Zn5	Zn	1.026316	-0.363488	-0.241376
Zn6	Zn	1.526316	0.136512	0.258624
Zn7	Zn	1.070255	-0.516075	-0.342683
Zn8	Zn	1.570255	-0.016075	0.157317
O9	O	1.104868	-0.439788	-0.292036
O10	O	1.604868	0.060212	0.207964
O11	O	1.259451	-0.402584	-0.348123
O12	O	1.759451	0.097416	0.151877
O13	O	1.117528	-0.452161	-0.112857
O14	O	1.617528	0.047839	0.387143
O15	O	1.030182	-0.260628	-0.279699
O16	O	1.530182	0.239372	0.220301
O17	O	1.252892	-0.477026	-0.235987
O18	O	1.752892	0.022974	0.264013
O19	O	1.132745	-0.279468	-0.372993
O20	O	1.632745	0.220532	0.127007
O21	O	1.021524	-0.358878	-0.131700
O22	O	1.521524	0.141122	0.368300
O23	O	0.937424	-0.383718	-0.254803
O24	O	1.437424	0.116282	0.245197
O25	O	1.105070	-0.520689	-0.452362
O26	O	1.605070	-0.020689	0.047638
O27	O	0.969706	-0.495823	-0.329232
O28	O	1.469706	0.004177	0.170768
O29	O	1.175351	-0.427425	-0.471225
O30	O	1.675351	0.072575	0.028775
O31	O	1.160134	-0.600117	-0.211090
O32	O	1.660134	-0.100117	0.288910
O33	O	1.096412	-0.618939	-0.304363
O34	O	1.596412	-0.118939	0.195637
C35	C	0.929005	-0.439768	-0.292015
C36	C	1.429005	0.060232	0.207985
C37	C	0.853776	-0.439782	-0.292020
C38	C	1.353776	0.060218	0.207980
C39	C	0.835253	-0.498212	-0.330682
C40	C	1.335253	0.001788	0.169318
C41	C	0.764567	-0.498215	-0.330692
C42	C	1.264567	0.001785	0.169308
C43	C	0.712405	-0.439791	-0.292036
C44	C	1.212405	0.060209	0.207964
C45	C	0.730932	-0.381356	-0.253372
C46	C	1.230932	0.118644	0.246628
C47	C	0.801618	-0.381350	-0.253367
C48	C	1.301618	0.118650	0.246633
C49	C	0.445867	-0.381377	-0.253394
C50	C	0.945867	0.118623	0.246606
C51	C	0.375178	-0.381389	-0.253401
C52	C	0.875178	0.118611	0.246599
C53	C	0.408816	-0.498243	-0.330719
C54	C	0.908816	0.001757	0.169281
C55	C	0.479501	-0.498237	-0.330714
C56	C	0.979501	0.001763	0.169286
C57	C	0.498022	-0.439800	-0.292054
C58	C	0.998022	0.060200	0.207946
C59	C	0.574668	-0.439796	-0.292045
C60	C	1.074668	0.060204	0.207955
C61	C	0.635760	-0.439798	-0.292040
C62	C	1.135760	0.060202	0.207960
C63	C	1.132094	-0.637084	-0.252174
C64	C	1.632094	-0.137084	0.247826
C65	C	1.143808	-0.721493	-0.235146
C66	C	1.643808	-0.221493	0.264854
C67	C	1.016210	-1.048181	-0.421671
C68	C	1.516210	-0.548181	0.078329
C69	C	1.027214	-1.127492	-0.405647
C70	C	1.527214	-0.627492	0.094353
C71	C	1.093641	-1.107847	-0.308620
C72	C	1.593641	-0.607847	0.191380
C73	C	1.082646	-1.028534	-0.324639
C74	C	1.582646	-0.528534	0.175361
C75	C	1.043929	-0.998708	-0.381165
C76	C	1.543929	-0.498708	0.118835
C77	C	1.110365	-0.979061	-0.284133
C78	C	1.610365	-0.479061	0.215867
C79	C	1.099368	-0.899754	-0.300148
C80	C	1.599368	-0.399754	0.199852
C81	C	1.060651	-0.869921	-0.356669
C82	C	1.560651	-0.369921	0.143331
C83	C	1.032932	-0.919401	-0.397180
C84	C	1.532932	-0.419401	0.102820
C85	C	1.149078	-1.008888	-0.227604
C86	C	1.649078	-0.508888	0.272396
C87	C	1.176797	-0.959414	-0.187097
C88	C	1.676797	-0.459414	0.312903
C89	C	1.165803	-0.880107	-0.203116
C90	C	1.665803	-0.380107	0.296884
C91	C	1.127087	-0.850274	-0.259637
C92	C	1.627087	-0.350274	0.240363
C93	C	1.193523	-0.830626	-0.162605
C94	C	1.693523	-0.330626	0.337395
C95	C	1.182525	-0.751320	-0.178620
C96	C	1.682525	-0.251320	0.321380
C97	C	1.116089	-0.770967	-0.275652
C98	C	1.616089	-0.270967	0.224348
C99	C	1.281418	-0.439808	-0.292058
C100	C	1.781418	0.060192	0.207942
C101	C	1.356653	-0.439817	-0.292068
C102	C	1.856653	0.060183	0.207932
C103	C	1.146107	-0.479775	-0.490119
C104	C	1.646107	0.020225	0.009881
C105	C	1.163681	-0.496815	-0.574531
C106	C	1.663681	0.003185	-0.074531
C107	C	1.077558	-0.241725	-0.332071
C108	C	1.577558	0.258275	0.167929
C109	C	1.065920	-0.157322	-0.349131
C110	C	1.565920	0.342678	0.150869
C111	C	0.971586	-0.310054	-0.901218
C112	C	1.471586	0.189946	-0.401218
C113	C	0.988117	-0.326081	-0.980532
C114	C	1.488117	0.173919	-0.480532
C115	C	1.088075	-0.423207	-0.960893
C116	C	1.588075	0.076793	-0.460893
C117	C	1.071554	-0.407185	-0.881577
C118	C	1.571554	0.092815	-0.381577
C119	C	1.013309	-0.350608	-0.851746
C120	C	1.513309	0.149392	-0.351746
C121	C	1.113277	-0.447739	-0.832104
C122	C	1.613277	0.052261	-0.332104
C123	C	1.096756	-0.431720	-0.752793
C124	C	1.596756	0.068280	-0.252793
C125	C	1.038512	-0.375148	-0.722956
C126	C	1.538512	0.124852	-0.222956
C127	C	0.996787	-0.334589	-0.772435
C128	C	1.496787	0.165411	-0.272435
C129	C	1.171520	-0.504319	-0.861935
C130	C	1.671520	-0.004319	-0.361935
C131	C	1.213242	-0.544873	-0.812463
C132	C	1.713242	-0.044873	-0.312463
C133	C	1.196724	-0.528851	-0.733151
C134	C	1.696724	-0.028851	-0.233151
C135	C	1.138480	-0.472279	-0.703314
C136	C	1.638480	0.027721	-0.203314
C137	C	1.238448	-0.569410	-0.683672
C138	C	1.738448	-0.069410	-0.183672
C139	C	1.221927	-0.553392	-0.604362
C140	C	1.721927	-0.053392	-0.104362
C141	C	1.121959	-0.456261	-0.624004
C142	C	1.621959	0.043739	-0.124004
C143	C	1.063821	-0.399902	-0.094735
C144	C	1.563821	0.100098	0.405265
C145	C	1.046348	-0.382648	-0.010367
C146	C	1.546348	0.117352	0.489633
H147	H	0.521969	-0.545814	-0.362189
H148	H	1.021969	-0.045814	0.137811
H149	H	1.001411	-0.895117	-0.443215
H150	H	1.501411	-0.395117	0.056785
H151	H	1.004649	-1.167774	-0.438645
H152	H	1.504649	-0.667774	0.061355
H153	H	0.393728	-0.545824	-0.362201
H154	H	0.893728	-0.045824	0.137799
H155	H	0.949364	-0.288511	-0.748147
H156	H	1.449364	0.211489	-0.248147
C157	C	1.136225	-1.140666	-0.246441
C158	C	1.636225	-0.640666	0.253559
N159	N	1.168301	-1.165384	-0.199607
N160	N	1.668301	-0.665384	0.300393
C161	C	0.466230	-0.317098	-0.210862
C162	C	0.966230	0.182902	0.289138
N163	N	0.481569	-0.268681	-0.178823
N164	N	0.981569	0.231319	0.321177
C165	C	1.073487	-0.738152	-0.337824
C166	C	1.573487	-0.238152	0.162176
N167	N	1.041394	-0.713433	-0.384643
N168	N	1.541394	-0.213433	0.115357
C169	C	0.317799	-0.317110	-0.210880
C170	C	0.817799	0.182890	0.289120
N171	N	0.274583	-0.268697	-0.178856
N172	N	0.774583	0.231303	0.321144
C173	C	0.973609	-1.015366	-0.483843
C174	C	1.473609	-0.515366	0.016157
N175	N	0.941516	-0.990648	-0.530662
N176	N	1.441516	-0.490648	-0.030662
C177	C	1.020338	-0.357527	-0.635711
C178	C	1.520338	0.142473	-0.135711
N179	N	1.006651	-0.344254	-0.569999
N180	N	1.506651	0.155746	-0.069999
C181	C	0.673552	-0.317087	-0.210852
C182	C	1.173552	0.182913	0.289148
N183	N	0.630333	-0.268680	-0.178822
N184	N	1.130333	0.231320	0.321178
C185	C	1.219381	-0.992233	-0.124918
C186	C	1.719381	-0.492233	0.375082
N187	N	1.251456	-1.016950	-0.078084
N188	N	1.751456	-0.516950	0.421916
H189	H	1.074535	-0.410182	-0.599716
H190	H	1.574535	0.089818	-0.099716
H191	H	0.816697	-0.333767	-0.221889
H192	H	1.316697	0.166233	0.278111
H193	H	1.051691	-0.805342	-0.369702
H194	H	1.551691	-0.305342	0.130298
C195	C	0.907515	-0.247813	-0.868401
C196	C	1.407515	0.252187	-0.368401
N197	N	0.859258	-0.200937	-0.843682
N198	N	1.359258	0.299063	-0.343682
C199	C	0.942214	-0.281463	-1.034952
C200	C	1.442214	0.218537	-0.534952
N201	N	0.907640	-0.247858	-1.075939
N202	N	1.407640	0.252142	-0.575939
C203	C	0.744194	-0.562505	-0.373206
C204	C	1.244194	-0.062505	0.126794
N205	N	0.728851	-0.610934	-0.405224
N206	N	1.228851	-0.110934	0.094776
C207	C	1.236101	-0.863446	-0.100421
C208	C	1.736101	-0.363446	0.399579
N209	N	1.268170	-0.888165	-0.053582
N210	N	1.768170	-0.388165	0.446418
C211	C	1.277183	-0.607275	-0.845252
C212	C	1.777183	-0.107275	-0.345252
N213	N	1.325298	-0.654337	-0.869935
N214	N	1.825298	-0.154337	-0.369935
H215	H	0.877719	-0.545790	-0.362158
H216	H	1.377719	-0.045790	0.137842
C217	C	1.213024	-0.696897	-0.134068
C218	C	1.713024	-0.196897	0.365932
N219	N	1.235998	-0.655905	-0.100509
N220	N	1.735998	-0.155905	0.399491
H221	H	1.135496	-0.469274	-0.985192
H222	H	1.635496	0.030726	-0.485192
C223	C	1.189694	-0.521935	-0.949181
C224	C	1.689694	-0.021935	-0.449181
N225	N	1.203384	-0.535200	-1.014895
N226	N	1.703384	-0.035200	-0.514895
H227	H	1.158033	-1.073466	-0.214568
H228	H	1.658033	-0.573466	0.285432
H229	H	1.285867	-0.615480	-0.707972
H230	H	1.785867	-0.115480	-0.207972
C231	C	1.267820	-0.598008	-0.549937
C232	C	1.767820	-0.098008	-0.049937
N233	N	1.302385	-0.631619	-0.508944
N234	N	1.802385	-0.131619	-0.008944
