data_functionalizedCrystal
_audit_creation_method	'MofGen! by Chris Wilmer'
_symmetry_space_group_name_H-M	'P1'
_symmetry_Int_Tables_number	1
_symmetry_cell_setting	triclinic
loop_
_symmetry_equiv_pos_as_xyz
  x,y,z
_cell_length_a	10.540539
_cell_length_b	9.065218
_cell_length_c	7.540329
_cell_angle_alpha	90.003038
_cell_angle_beta	89.998539
_cell_angle_gamma	95.229312
loop_
_atom_site_label
_atom_site_type_symbol
_atom_site_fract_x
_atom_site_fract_y
_atom_site_fract_z
O1	O	0.186143	-1.959469	-0.147478
O2	O	0.201412	-1.530108	-0.147479
O3	O	0.009107	-1.754584	-0.147476
O4	O	0.378448	-1.734993	-0.147481
O5	O	0.009105	-1.754570	0.147489
O6	O	0.201409	-1.530094	0.147486
O7	O	0.186141	-1.959455	0.147487
Cu8	Cu	0.193775	-1.744773	0.174419
Cu9	Cu	0.193778	-1.744789	-0.174411
O10	O	0.378445	-1.734979	0.147484
C11	C	0.199943	-1.475122	0.000003
C12	C	0.195556	-1.311301	0.000002
C13	C	-0.038202	-1.753108	0.000003
C14	C	-0.179167	-1.748712	-0.000007
C15	C	0.187610	-2.014441	0.000001
C16	C	0.191997	-2.178262	-0.000009
C17	C	-0.363216	-1.580278	-0.000669
C18	C	-0.216582	-1.584734	-0.000005
C19	C	-0.240534	-1.827618	0.168433
C20	C	-0.387099	-1.822022	0.168575
C21	C	-0.387602	-1.825372	-0.166855
C22	C	-0.240615	-1.826883	-0.169082
C23	C	0.425755	-1.736455	0.000001
C24	C	0.566719	-1.740851	-0.000001
N25	N	0.193772	-1.744773	0.419768
N26	N	0.193771	-1.744801	-0.419760
H27	H	-0.392055	-1.515508	-0.121460
H28	H	-0.415515	-1.763695	0.294487
C29	C	-0.404062	-1.494348	0.159425
C30	C	-0.535872	-1.485213	0.153187
C31	C	-0.573549	-1.406090	0.300651
H32	H	-0.361429	-1.397409	0.158177
H33	H	-0.382858	-1.543835	0.264947
H34	H	-0.557064	-1.435724	0.047693
H35	H	-0.578536	-1.582129	0.154459
H36	H	-0.552346	-1.455577	0.406172
H37	H	-0.530908	-1.309157	0.299390
H38	H	-0.662987	-1.399893	0.296447
H39	H	-0.199969	-1.769148	-0.293689
H40	H	-0.198138	-1.772795	0.293780
H41	H	-0.419350	-1.772306	-0.294522
H42	H	-0.175058	-1.522200	0.120940
C43	C	-0.449813	-1.983375	-0.168649
C44	C	-0.408370	-2.057497	-0.317788
C45	C	-0.465643	-2.203049	-0.319472
H46	H	-0.539766	-1.982065	-0.173065
H47	H	-0.426801	-2.033151	-0.064210
H48	H	-0.431390	-2.007734	-0.422201
H49	H	-0.318425	-2.058848	-0.313405
H50	H	-0.442632	-2.252825	-0.215032
H51	H	-0.555594	-2.201724	-0.323883
H52	H	-0.437524	-2.253362	-0.420651
H53	H	-0.215951	-1.946436	-0.179253
C54	C	-0.160304	-1.501808	-0.161047
C55	C	-0.258328	-1.447242	-0.259836
C56	C	-0.206538	-1.370815	-0.408185
H57	H	-0.116680	-1.567151	-0.232510
H58	H	-0.102315	-1.421610	-0.123194
H59	H	-0.316295	-1.527430	-0.297691
H60	H	-0.301961	-1.381879	-0.188425
H61	H	-0.148549	-1.290616	-0.370332
H62	H	-0.162914	-1.436168	-0.479633
H63	H	-0.273037	-1.333771	-0.475223
C64	C	-0.209942	-1.988127	0.176539
C65	C	-0.135236	-2.019115	0.029987
C66	C	-0.107015	-2.166953	0.037404
H67	H	-0.286875	-2.051439	0.174899
H68	H	-0.164517	-2.004071	0.282619
H69	H	-0.180663	-2.003185	-0.076066
H70	H	-0.058289	-1.955841	0.031597
H71	H	-0.061589	-2.182898	0.143484
H72	H	-0.183953	-2.230253	0.035768
H73	H	-0.056315	-2.187995	-0.062019
C74	C	-0.450729	-1.979155	0.178717
C75	C	-0.583218	-1.975306	0.178889
C76	C	-0.641869	-2.120024	0.188226
H77	H	-0.425186	-2.025001	0.284534
H78	H	-0.426197	-2.034084	0.079086
H79	H	-0.607740	-1.920399	0.278511
H80	H	-0.608797	-1.929489	0.073082
H81	H	-0.617337	-2.174954	0.088595
H82	H	-0.616316	-2.165859	0.294043
H83	H	-0.731768	-2.117434	0.188328
