data_functionalizedCrystal
_audit_creation_method	'MofGen! by Chris Wilmer'
_symmetry_space_group_name_H-M	'P1'
_symmetry_Int_Tables_number	1
_symmetry_cell_setting	triclinic
loop_
_symmetry_equiv_pos_as_xyz
  x,y,z
_cell_length_a	6.817900
_cell_length_b	19.551823
_cell_length_c	12.908943
_cell_angle_alpha	96.125540
_cell_angle_beta	100.860631
_cell_angle_gamma	101.663376
loop_
_atom_site_label
_atom_site_type_symbol
_atom_site_fract_x
_atom_site_fract_y
_atom_site_fract_z
V1	V	-3.987271	-0.095801	-0.329170
O2	O	-3.984823	0.005501	-0.322397
O3	O	-3.930125	-0.190821	-0.327407
O4	O	-3.925722	-0.093934	-0.472510
O5	O	-3.989257	-0.092057	-0.176289
V6	V	-4.473735	-0.083731	-0.310825
O7	O	-4.242076	-0.122279	-0.369412
O8	O	-4.669128	-0.057254	-0.270584
O9	O	-4.307674	0.011289	-0.312589
O10	O	-4.593580	-0.185034	-0.317599
O11	O	-4.589146	-0.087476	-0.463707
O12	O	-4.312078	-0.085598	-0.167485
C13	C	-3.773424	-0.213997	-0.322340
C14	C	-3.807900	-0.291675	-0.321854
C15	C	-4.005379	-0.331707	-0.326897
C16	C	-4.037776	-0.404694	-0.326450
C17	C	-3.872677	-0.437644	-0.320939
C18	C	-3.675172	-0.397603	-0.315902
C19	C	-3.642784	-0.324619	-0.316359
C20	C	-3.765580	-0.544309	-0.254094
C21	C	-3.797974	-0.617292	-0.253630
C22	C	-3.972568	-0.662754	-0.319534
C23	C	-4.114794	-0.635223	-0.385889
C24	C	-4.082406	-0.562238	-0.386346
C25	C	-3.907777	-0.516784	-0.320444
C26	C	-4.205189	-0.781928	-0.324095
C27	C	-4.237582	-0.854917	-0.323655
C28	C	-3.874968	-0.847823	-0.313096
C29	C	-3.842585	-0.774837	-0.313547
C30	C	-4.007701	-0.741893	-0.319041
C31	C	-3.767806	-0.090407	-0.507433
C32	C	-3.798709	-0.089509	-0.624617
C33	C	-4.219391	-0.094755	-0.855590
C34	C	-4.248436	-0.093912	-0.965696
C35	C	-3.885845	-0.086974	-0.954934
C36	C	-3.856800	-0.087817	-0.844829
C37	C	-4.023581	-0.091709	-0.795161
C38	C	-3.994536	-0.092558	-0.685055
C39	C	-3.631944	-0.085614	-0.674294
C40	C	-3.660990	-0.084771	-0.784400
C41	C	-4.127718	0.034461	-0.317653
C42	C	-4.072479	0.112138	-0.318146
C43	C	-4.133336	-0.089128	-0.132558
C44	C	-4.081672	-0.090022	-0.015372
H45	H	-4.198593	-0.437295	-0.330557
C46	C	-3.693354	-0.884058	-0.307023
H47	H	-3.740922	-0.933259	-0.307464
H48	H	-3.632962	-0.876860	-0.366714
H49	H	-3.594142	-0.864418	-0.243125
H50	H	-3.525207	-0.081600	-0.824854
C51	C	-4.177977	-0.096838	-0.630416
H52	H	-4.132644	-0.096911	-0.556187
H53	H	-4.236215	-0.057216	-0.640830
H54	H	-4.278238	-0.139040	-0.660516
H55	H	-4.139835	-0.304890	-0.331378
C56	C	-4.463822	-0.097264	-1.032170
H57	H	-4.457237	-0.096199	-1.104858
H58	H	-4.554567	-0.139737	-1.026176
H59	H	-4.512530	-0.057912	-1.006493
C60	C	-3.641530	-0.647571	-0.180647
H61	H	-3.532890	-0.610045	-0.141477
H62	H	-3.707228	-0.672362	-0.132547
H63	H	-3.587921	-0.678976	-0.222898
H64	H	-4.198211	-0.539826	-0.440376
C65	C	-3.573520	-0.494305	-0.181598
H66	H	-3.574587	-0.446896	-0.191380
H67	H	-3.573406	-0.499275	-0.109186
H68	H	-3.454070	-0.505890	-0.199523
H69	H	-3.750067	-0.083800	-0.995392
C70	C	-3.425544	-0.280580	-0.310799
H71	H	-3.331848	-0.310654	-0.307447
H72	H	-3.424792	-0.258175	-0.372544
H73	H	-3.385952	-0.245746	-0.248954
H74	H	-3.681775	-0.742241	-0.309433
H75	H	-4.256771	-0.672247	-0.439700
H76	H	-3.540750	-0.424436	-0.311417
C77	C	-4.386802	-0.745687	-0.330139
H78	H	-4.509063	-0.779986	-0.333090
H79	H	-4.362267	-0.711147	-0.268739
H80	H	-4.401140	-0.723578	-0.392330
H81	H	-4.355196	-0.097932	-0.815152
H82	H	-4.398399	-0.887511	-0.327769
H83	H	-3.472499	-0.083137	-0.625081
