data_functionalizedCrystal
_audit_creation_method	'MofGen! by Chris Wilmer'
_symmetry_space_group_name_H-M	'P1'
_symmetry_Int_Tables_number	1
_symmetry_cell_setting	triclinic
loop_
_symmetry_equiv_pos_as_xyz
  x,y,z
_cell_length_a	15.995343
_cell_length_b	15.995350
_cell_length_c	8.140239
_cell_angle_alpha	89.998714
_cell_angle_beta	90.001598
_cell_angle_gamma	83.490779
loop_
_atom_site_label
_atom_site_type_symbol
_atom_site_fract_x
_atom_site_fract_y
_atom_site_fract_z
O1	O	1.110988	0.107894	-0.136440
O2	O	0.867211	0.121229	-0.136479
O3	O	0.995763	-0.007326	-0.136457
O4	O	0.982436	0.236449	-0.136462
O5	O	0.995756	-0.007328	0.136770
O6	O	0.867204	0.121227	0.136748
O7	O	1.110981	0.107893	0.136787
Zn8	Zn	0.989091	0.114560	0.180148
Zn9	Zn	0.989101	0.114562	-0.179840
O10	O	0.982429	0.236448	0.136765
C11	C	0.836013	0.120678	0.000130
C12	C	0.743062	0.119028	0.000115
C13	C	0.572876	0.116035	0.000137
C14	C	0.549530	0.023238	0.000138
C15	C	0.452852	0.021492	0.000768
C16	C	0.405316	0.113086	0.000157
C17	C	0.434404	0.159745	0.155871
C18	C	0.531196	0.160846	0.155992
C19	C	0.531115	0.162206	-0.154729
C20	C	0.434620	0.158781	-0.156766
C21	C	0.310618	0.111425	0.000173
C22	C	0.667574	0.117699	0.000131
C23	C	0.995209	-0.038522	0.000153
C24	C	0.993557	-0.131472	0.000144
C25	C	0.987625	-0.469220	0.000148
C26	C	0.896072	-0.421783	-0.000479
C27	C	0.897725	-0.325093	0.000137
C28	C	0.990567	-0.301659	0.000145
C29	C	1.035720	-0.342739	0.156175
C30	C	1.033420	-0.439374	0.156306
C31	C	1.035319	-0.439731	-0.154404
C32	C	1.035298	-0.342786	-0.156466
C33	C	0.992235	-0.206962	0.000149
C34	C	0.985960	-0.563917	0.000156
C35	C	1.142179	0.108444	0.000175
C36	C	1.235130	0.110093	0.000179
C37	C	0.982983	0.267643	0.000151
C38	C	0.984635	0.360594	0.000150
N39	N	0.989091	0.114558	0.425831
N40	N	0.989108	0.114557	-0.425523
H41	H	0.577541	-0.012730	-0.111509
C42	C	0.988922	-0.464099	0.313856
N43	N	0.955401	-0.482717	0.432524
H44	H	1.004353	-0.314357	0.272282
C45	C	0.409546	0.112883	-0.312400
N46	N	0.390654	0.078312	-0.429621
C47	C	0.390120	0.249081	-0.170093
N48	N	0.356605	0.317100	-0.180116
C49	C	1.124224	-0.482945	0.165903
N50	N	1.192616	-0.515758	0.173142
C51	C	0.427935	-0.027605	0.152471
N52	N	0.409168	-0.064580	0.266749
C53	C	0.569304	0.122649	-0.314229
N54	N	0.598070	0.092845	-0.434357
H55	H	0.557979	0.128909	0.272836
C56	C	0.994883	-0.467473	-0.314171
N57	N	0.964416	-0.488366	-0.434499
C58	C	0.550887	0.252778	0.164969
N59	N	0.565714	0.322020	0.171742
H60	H	0.861987	-0.297228	0.112166
C61	C	0.846634	-0.446825	-0.151630
N62	N	0.809395	-0.465695	-0.265478
H63	H	0.433836	-0.015033	-0.110832
C64	C	0.588673	-0.024563	0.150780
N65	N	0.618153	-0.060564	0.264250
H66	H	1.002285	-0.315535	-0.271893
C67	C	1.126768	-0.322042	-0.169181
N68	N	1.195668	-0.306421	-0.178742
H69	H	0.402557	0.227156	0.161224
H70	H	1.103929	-0.328615	0.161984
H71	H	0.545128	0.230511	-0.156231
H72	H	1.102821	-0.471494	-0.155447
H73	H	0.862231	-0.296669	-0.111712
H74	H	0.859639	-0.441377	0.110779
C75	C	0.407263	0.116492	0.313024
N76	N	0.386824	0.083908	0.431388
