data_functionalizedCrystal
_audit_creation_method	'MofGen! by Chris Wilmer'
_symmetry_space_group_name_H-M	'P1'
_symmetry_Int_Tables_number	1
_symmetry_cell_setting	triclinic
loop_
_symmetry_equiv_pos_as_xyz
  x,y,z
_cell_length_a	13.897449
_cell_length_b	29.839131
_cell_length_c	13.897441
_cell_angle_alpha	90.042797
_cell_angle_beta	90.020733
_cell_angle_gamma	90.036508
loop_
_atom_site_label
_atom_site_type_symbol
_atom_site_fract_x
_atom_site_fract_y
_atom_site_fract_z
Zn1	Zn	1.474585	-0.178824	0.545299
Zn2	Zn	1.474430	-0.253959	0.383966
Zn3	Zn	1.313274	-0.178845	0.384018
Zn4	Zn	1.313207	-0.253929	0.545219
O5	O	1.393874	-0.216389	0.464626
O6	O	1.609546	-0.188794	0.523910
O7	O	1.453015	-0.244016	0.248992
O8	O	1.334766	-0.115975	0.405467
O9	O	1.609432	-0.243995	0.405380
O10	O	1.453280	-0.115959	0.523960
O11	O	1.334615	-0.188830	0.249029
O12	O	1.178284	-0.188802	0.405389
O13	O	1.334650	-0.243945	0.680211
O14	O	1.178234	-0.243966	0.523823
O15	O	1.453215	-0.188765	0.680270
O16	O	1.452950	-0.316822	0.405302
O17	O	1.334500	-0.316800	0.523773
C18	C	1.143260	-0.216383	0.464604
C19	C	1.036046	-0.216391	0.464617
C20	C	0.839750	-0.216393	0.464642
C21	C	0.948983	-0.216391	0.464626
C22	C	1.393727	-0.333112	0.464544
C23	C	1.393752	-0.383046	0.464542
C24	C	1.455571	-0.692646	0.526413
C25	C	1.455676	-0.880319	0.526471
O26	O	1.508092	-0.904548	0.579015
N27	N	1.394038	-0.903831	0.464733
C28	C	1.332365	-0.880422	0.402980
O29	O	1.279933	-0.904726	0.350476
C30	C	1.332256	-0.692750	0.402928
C31	C	1.393905	-0.669240	0.464663
C32	C	1.517214	-0.669137	0.588144
C33	C	1.517191	-0.622222	0.588125
C34	C	1.455525	-0.598816	0.526375
C35	C	1.393882	-0.622325	0.464644
C36	C	1.270579	-0.669341	0.341181
C37	C	1.270555	-0.622420	0.341175
C38	C	1.332204	-0.598911	0.402910
C39	C	1.332192	-0.552003	0.402876
N40	N	1.393830	-0.528492	0.464614
C41	C	1.455496	-0.551898	0.526364
C42	C	1.332428	-0.978952	0.403011
C43	C	1.332456	-1.025870	0.403022
C44	C	1.455766	-1.025765	0.526515
C45	C	1.455742	-0.978846	0.526497
C46	C	1.394065	-0.955441	0.464749
C47	C	1.455444	-0.453372	0.526319
C48	C	1.455418	-0.406452	0.526292
C49	C	1.332105	-0.406562	0.402804
C50	C	1.332134	-0.453477	0.402827
C51	C	1.393807	-0.476881	0.464592
O52	O	1.279796	-0.527746	0.350366
O53	O	1.507905	-0.527585	0.578874
C54	C	1.455594	-0.739562	0.526432
C55	C	1.393951	-0.763071	0.464701
C56	C	1.332285	-0.739665	0.402951
C57	C	1.393979	-0.809989	0.464712
C58	C	1.455645	-0.833395	0.526462
C59	C	1.517283	-0.809883	0.588200
C60	C	1.517260	-0.762968	0.588181
C61	C	1.270647	-0.763177	0.341213
C62	C	1.270676	-0.810092	0.341236
C63	C	1.332342	-0.833498	0.402986
C64	C	1.645467	-0.216395	0.464648
C65	C	1.752681	-0.216398	0.464658
C66	C	1.393942	-0.216349	0.716219
C67	C	1.393971	-0.216332	0.823433
C68	C	1.394048	-0.099211	0.464728
C69	C	1.394122	-0.049276	0.464772
C70	C	1.393861	-0.216396	0.214011
C71	C	1.394019	-0.216287	0.106798
C72	C	1.393998	-0.216302	1.019728
C73	C	1.393980	-0.216320	0.910495
H74	H	1.505623	-0.387312	0.576564
C75	C	1.522818	-1.051101	0.593602
C76	C	1.576812	-1.020475	0.647662
C77	C	1.638589	-1.043801	0.709465
H78	H	1.486003	-1.069403	0.635677
H79	H	1.564930	-1.069393	0.556771
H80	H	1.534705	-1.002191	0.684490
H81	H	1.613647	-1.002172	0.605612
H82	H	1.680701	-1.062092	0.672635
H83	H	1.601766	-1.062102	0.751535
H84	H	1.675238	-1.023025	0.746146
H85	H	1.281942	-0.472620	0.352549
C86	C	1.522462	-0.478832	0.593221
C87	C	1.584322	-0.505774	0.538679
C88	C	1.646068	-0.529238	0.600272
H89	H	1.559257	-0.458156	0.629997
H90	H	1.485585	-0.497158	0.635216
H91	H	1.621196	-0.487450	0.496701
H92	H	1.547554	-0.526459	0.501904
H93	H	1.609191	-0.547563	0.642267
H94	H	1.682856	-0.508558	0.637046
H95	H	1.688041	-0.547524	0.563275
C96	C	1.522511	-0.953266	0.593586
C97	C	1.467847	-0.926322	0.655344
C98	C	1.529322	-0.902750	0.717155
H99	H	1.559262	-0.973877	0.630452
H100	H	1.564535	-0.934933	0.556752
H101	H	1.425840	-0.944654	0.692175
H102	H	1.431098	-0.905703	0.618505
H103	H	1.571346	-0.884417	0.680321
H104	H	1.566070	-0.923364	0.754014
H105	H	1.492242	-0.884463	0.759059
C106	C	1.264993	-0.381200	0.335828
C107	C	1.169554	-0.392650	0.356747
C108	C	1.107698	-0.369298	0.295069
H109	H	1.273681	-0.349884	0.344610
H110	H	1.279078	-0.388915	0.271011
H111	H	1.155474	-0.384932	0.421548
H112	H	1.160836	-0.423961	0.347959
H113	H	1.121782	-0.377013	0.230251
H114	H	1.116393	-0.337984	0.303855
H115	H	1.042936	-0.377067	0.309247
C116	C	1.584156	-0.596782	0.655265
C117	C	1.638139	-0.627330	0.709358
C118	C	1.699830	-0.603915	0.771231
H119	H	1.626285	-0.578475	0.618514
H120	H	1.547248	-0.578488	0.697310
H121	H	1.675045	-0.645617	0.667318
H122	H	1.596035	-0.645638	0.746128
H123	H	1.662922	-0.585621	0.813276
H124	H	1.741953	-0.585609	0.734472
H125	H	1.736458	-0.624639	0.807947
C126	C	1.584225	-0.737528	0.655321
C127	C	1.638209	-0.768077	0.709414
C128	C	1.699900	-0.744662	0.771287
H129	H	1.626355	-0.719222	0.618570
H130	H	1.547318	-0.719234	0.697367
H131	H	1.675114	-0.786363	0.667374
H132	H	1.596105	-0.786384	0.746185
H133	H	1.662992	-0.726368	0.813332
H134	H	1.742023	-0.726356	0.734528
H135	H	1.736528	-0.765385	0.808002
C136	C	1.203572	-0.694912	0.274319
C137	C	1.141747	-0.721854	0.328897
C138	C	1.080005	-0.745418	0.267337
H139	H	1.166752	-0.674296	0.237535
H140	H	1.240454	-0.713245	0.232330
H141	H	1.104868	-0.703522	0.370869
H142	H	1.178540	-0.742478	0.365679
H143	H	1.116887	-0.763752	0.225348
H144	H	1.043192	-0.724799	0.230555
H145	H	1.038055	-0.763704	0.304358
C146	C	1.265424	-1.051310	0.335950
C147	C	1.211399	-1.020764	0.281894
C148	C	1.149625	-1.044182	0.220109
H149	H	1.302244	-1.069617	0.293871
H150	H	1.223332	-1.069606	0.372793
H151	H	1.253486	-1.002477	0.245054
H152	H	1.174560	-1.002457	0.323948
H153	H	1.107532	-1.062477	0.256952
H154	H	1.186452	-1.062487	0.178036
H155	H	1.112955	-1.023460	0.183431
H156	H	1.567497	-0.828949	0.638476
H157	H	1.220475	-0.829229	0.290955
H158	H	1.567430	-0.688189	0.638434
H159	H	1.220430	-0.744123	0.290930
C160	C	1.265346	-0.953522	0.336118
C161	C	1.203446	-0.926599	0.390658
C162	C	1.141632	-0.903174	0.329066
H163	H	1.302141	-0.935184	0.294095
H164	H	1.228592	-0.974234	0.299371
H165	H	1.240196	-0.905889	0.427388
H166	H	1.166630	-0.944926	0.432678
H167	H	1.104878	-0.923886	0.292320
H168	H	1.178435	-0.884839	0.287047
H169	H	1.099620	-0.884907	0.366063
H170	H	1.220328	-0.603366	0.290893
