data_functionalizedCrystal
_audit_creation_method	'MofGen! by Chris Wilmer'
_symmetry_space_group_name_H-M	'P1'
_symmetry_Int_Tables_number	1
_symmetry_cell_setting	triclinic
loop_
_symmetry_equiv_pos_as_xyz
  x,y,z
_cell_length_a	14.971486
_cell_length_b	10.723023
_cell_length_c	9.198806
_cell_angle_alpha	89.997575
_cell_angle_beta	90.001262
_cell_angle_gamma	84.040838
loop_
_atom_site_label
_atom_site_type_symbol
_atom_site_fract_x
_atom_site_fract_y
_atom_site_fract_z
O1	O	1.187817	0.162612	-0.120722
O2	O	0.927521	0.182085	-0.120761
O3	O	1.063673	-0.009291	-0.120735
O4	O	1.051664	0.353987	-0.120748
O5	O	1.063663	-0.009292	0.121050
O6	O	0.927511	0.182084	0.121024
O7	O	1.187806	0.162610	0.121063
Cu8	Cu	1.057658	0.172347	0.143120
Cu9	Cu	1.057670	0.172348	-0.142818
O10	O	1.051654	0.353986	0.121037
C11	C	0.894187	0.181214	0.000126
C12	C	0.794875	0.178604	0.000111
C13	C	0.738254	0.291032	0.000109
C14	C	0.644941	0.288572	0.000131
C15	C	0.608252	0.173683	0.000145
C16	C	0.664881	0.061246	0.000151
C17	C	0.758192	0.063707	0.000140
C18	C	0.470391	0.056125	0.000171
C19	C	0.377074	0.053663	0.000180
C20	C	0.357140	0.280990	0.000163
C21	C	0.450451	0.283451	0.000151
C22	C	0.507074	0.171013	0.000155
C23	C	1.062794	-0.055782	0.000156
C24	C	1.060180	-0.194309	0.000151
C25	C	1.059020	-0.256062	-0.125103
C26	C	1.056318	-0.399237	-0.125111
C27	C	1.221141	0.163482	0.000172
C28	C	1.320452	0.166092	0.000178
C29	C	1.052533	0.400477	0.000143
C30	C	1.055147	0.539004	0.000138
N31	N	1.057656	0.172345	0.344234
N32	N	1.057679	0.172341	-0.343932
C33	C	1.114963	0.091817	0.583846
C34	C	1.114952	0.091819	0.416434
H35	H	0.768118	0.384588	0.000097
Br36	Br	0.568099	0.441160	0.000123
Br37	Br	1.058491	-0.282843	0.178884
H38	H	1.163992	0.022874	0.354327
H39	H	0.311033	0.372540	0.000166
Br40	Br	0.500243	0.439373	0.000111
H41	H	1.008606	0.241284	0.406332
H42	H	0.516492	-0.035434	0.000177
Br43	Br	0.327282	-0.102259	0.000247
H44	H	0.635002	-0.032298	0.000183
H45	H	0.804293	-0.027843	0.000141
Br46	Br	0.975924	0.287263	0.552564
H47	H	1.164020	0.022880	0.645952
H48	H	1.060023	-0.202933	-0.232331
H49	H	1.055325	-0.452343	-0.232346
H50	H	1.056150	-0.407899	0.107378
