data_functionalizedCrystal
_audit_creation_method	'MofGen! by Chris Wilmer'
_symmetry_space_group_name_H-M	'P1'
_symmetry_Int_Tables_number	1
_symmetry_cell_setting	triclinic
loop_
_symmetry_equiv_pos_as_xyz
  x,y,z
_cell_length_a	12.594517
_cell_length_b	12.594516
_cell_length_c	19.805399
_cell_angle_alpha	89.976121
_cell_angle_beta	89.982860
_cell_angle_gamma	90.011248
loop_
_atom_site_label
_atom_site_type_symbol
_atom_site_fract_x
_atom_site_fract_y
_atom_site_fract_z
Zn1	Zn	1.627245	-0.423768	-0.382748
Zn2	Zn	1.627165	-0.601766	-0.269570
Zn3	Zn	1.449265	-0.423800	-0.269572
Zn4	Zn	1.449244	-0.601703	-0.382716
O5	O	1.538230	-0.512759	-0.326152
O6	O	1.776180	-0.447393	-0.367747
O7	O	1.603541	-0.578198	-0.174854
O8	O	1.472916	-0.274850	-0.284600
O9	O	1.776121	-0.578167	-0.284596
O10	O	1.603678	-0.274827	-0.367750
O11	O	1.472838	-0.447447	-0.174855
O12	O	1.300316	-0.447386	-0.284569
O13	O	1.472881	-0.578060	-0.477437
O14	O	1.300301	-0.578091	-0.367695
O15	O	1.603658	-0.447332	-0.477461
O16	O	1.603521	-0.750703	-0.284565
O17	O	1.472804	-0.750657	-0.367693
C18	C	1.261689	-0.512736	-0.326129
C19	C	1.143383	-0.512752	-0.326135
C20	C	1.538180	-0.789300	-0.326140
C21	C	1.538257	-0.907606	-0.326158
C22	C	1.003344	-0.441584	-0.281026
C23	C	1.074192	-0.415657	-0.342790
C24	C	1.074107	-0.538631	-0.264379
C25	C	1.003446	-0.486817	-0.387981
C26	C	1.003354	-0.609836	-0.309528
C27	C	1.074171	-0.583946	-0.371334
C28	C	1.609436	-0.976845	-0.280992
C29	C	1.635438	-1.047549	-0.342771
C30	C	1.512388	-1.047701	-0.264418
C31	C	1.564308	-0.976751	-0.387969
C32	C	1.441213	-0.976897	-0.309574
C33	C	1.467178	-1.047569	-0.371395
C34	C	1.815850	-0.512783	-0.326175
C35	C	1.934156	-0.512794	-0.326185
C36	C	1.538276	-0.512685	-0.502695
C37	C	1.538296	-0.512654	-0.577927
C38	C	1.538308	-0.235138	-0.326178
C39	C	1.538342	-0.116833	-0.326190
C40	C	1.470259	-0.444566	-0.613271
C41	C	1.470273	-0.444545	-0.683960
C42	C	1.538332	-0.512608	-0.719302
C43	C	1.606372	-0.580704	-0.683953
C44	C	1.606351	-0.580729	-0.613266
C45	C	1.606456	-0.580604	-0.969026
C46	C	1.606474	-0.580571	-1.039718
C47	C	1.470379	-0.444420	-1.039720
C48	C	1.470358	-0.444445	-0.969033
C49	C	1.538394	-0.512545	-0.933690
C50	C	1.538376	-0.512568	-0.857041
C51	C	1.538356	-0.512580	-0.795949
C52	C	1.538244	-0.512756	-0.150296
C53	C	1.538431	-0.512488	-0.075064
H54	H	0.972249	-0.381336	-0.242906
H55	H	1.414942	-0.389018	-0.940260
O56	O	0.966152	-0.707766	-0.292843
C57	C	0.904635	-0.748138	-0.346475
H58	H	0.928870	-0.707467	-0.395550
H59	H	0.817013	-0.732278	-0.336133
C60	C	0.893297	-0.918555	-0.292466
C61	C	0.923070	-0.868608	-0.352741
H62	H	0.904663	-0.992867	-0.296330
H63	H	0.934739	-0.891355	-0.256331
H64	H	0.820280	-0.905327	-0.283854
H65	H	0.996088	-0.881825	-0.361348
H66	H	0.881640	-0.895814	-0.388878
H67	H	1.414867	-0.389105	-0.712734
H68	H	1.586142	-0.945719	-0.440239
O69	O	1.404162	-0.378428	-1.074083
C70	C	1.335422	-0.439001	-1.114969
H71	H	1.328818	-0.522839	-1.093657
H72	H	1.368339	-0.442651	-1.168545
C73	C	1.232901	-0.284018	-1.142223
C74	C	1.224782	-0.386986	-1.116044
H75	H	1.164654	-0.251932	-1.142889
H76	H	1.279214	-0.243207	-1.114680
H77	H	1.260335	-0.287073	-1.186868
H78	H	1.197361	-0.383929	-1.071397
H79	H	1.178461	-0.427796	-1.143580
O80	O	1.672439	-0.646745	-1.074128
C81	C	1.611827	-0.715477	-1.114996
H82	H	1.531180	-0.677921	-1.125578
H83	H	1.600100	-0.794369	-1.087750
C84	C	1.769451	-0.780844	-1.169148
C85	C	1.670402	-0.734712	-1.182151
H86	H	1.805584	-0.792714	-1.210572
H87	H	1.810288	-0.734541	-1.141613
H88	H	1.759665	-0.846582	-1.146442
H89	H	1.680190	-0.668970	-1.204849
H90	H	1.629568	-0.781005	-1.209692
H91	H	1.490473	-1.078865	-0.212192
O92	O	1.110958	-0.564793	-0.202016
C93	C	1.024490	-0.582156	-0.158145
H94	H	0.951036	-0.603353	-0.188943
H95	H	1.008454	-0.506983	-0.127764
C96	C	1.141144	-0.647999	-0.071834
C97	C	1.050927	-0.674043	-0.109660
H98	H	1.157451	-0.704676	-0.041923
H99	H	1.199399	-0.636298	-0.101389
H100	H	1.127768	-0.585353	-0.046522
H101	H	1.064308	-0.736680	-0.134977
H102	H	0.992674	-0.685757	-0.080107
H103	H	1.717543	-1.078586	-0.356816
O104	O	1.111273	-0.317670	-0.359466
C105	C	1.075171	-0.242848	-0.311766
H106	H	1.055253	-0.285082	-0.262441
H107	H	1.001136	-0.201584	-0.331957
C108	C	1.187115	-0.107936	-0.359596
C109	C	1.162660	-0.159807	-0.299012
H110	H	1.241078	-0.056709	-0.351731
H111	H	1.211434	-0.158343	-0.391735
H112	H	1.125411	-0.073557	-0.376416
H113	H	1.224358	-0.194195	-0.282198
H114	H	1.138352	-0.109403	-0.266870
H115	H	1.359132	-0.945837	-0.295511
H116	H	1.669640	-0.945791	-0.242832
O117	O	1.111174	-0.655635	-0.416959
C118	C	1.174207	-0.603074	-0.465406
H119	H	1.205407	-0.525612	-0.443221
H120	H	1.124273	-0.585156	-0.512039
C121	C	1.230049	-0.769641	-0.512550
C122	C	1.268377	-0.674506	-0.485300
H123	H	1.288136	-0.813704	-0.524824
H124	H	1.187579	-0.805053	-0.479913
H125	H	1.188437	-0.754696	-0.551408
H126	H	1.309977	-0.689451	-0.446438
H127	H	1.310857	-0.639098	-0.517931
H128	H	1.407020	-1.078426	-0.409648
O129	O	1.404044	-0.378416	-0.579047
C130	C	1.344013	-0.318299	-0.625405
H131	H	1.340334	-0.361878	-0.675787
H132	H	1.383011	-0.237461	-0.632934
C133	C	1.235243	-0.249440	-0.535932
C134	C	1.230718	-0.302969	-0.597812
H135	H	1.165358	-0.239978	-0.518911
H136	H	1.275689	-0.289938	-0.504699
H137	H	1.267746	-0.182080	-0.542215
H138	H	1.198227	-0.370332	-0.591526
H139	H	1.190263	-0.262481	-0.629043
H140	H	1.661844	-0.636066	-0.940258
O141	O	1.672448	-0.646723	-0.718387
C142	C	1.657861	-0.632120	-0.788357
H143	H	1.623032	-0.549971	-0.798019
H144	H	1.601166	-0.695239	-0.808406
C145	C	1.808342	-0.742771	-0.812788
C146	C	1.765572	-0.641871	-0.824655
H147	H	1.874780	-0.748791	-0.835179
H148	H	1.818167	-0.752614	-0.765648
H149	H	1.761085	-0.795360	-0.829495
H150	H	1.812821	-0.589285	-0.807940
H151	H	1.755756	-0.632020	-0.871793
O152	O	0.966707	-0.460458	-0.450337
C153	C	1.003655	-0.358418	-0.467863
H154	H	1.078366	-0.339554	-0.437679
H155	H	0.939739	-0.297125	-0.455969
C156	C	0.937673	-0.378401	-0.580920
C157	C	1.029440	-0.355236	-0.543851
H158	H	0.953574	-0.376435	-0.627793
H159	H	0.912776	-0.447145	-0.569112
H160	H	0.884418	-0.327320	-0.571001
H161	H	1.082688	-0.406324	-0.553764
H162	H	1.054346	-0.286500	-0.555663
H163	H	1.661762	-0.636166	-0.584489
