data_functionalizedCrystal
_audit_creation_method	'MofGen! by Chris Wilmer'
_symmetry_space_group_name_H-M	'P1'
_symmetry_Int_Tables_number	1
_symmetry_cell_setting	triclinic
loop_
_symmetry_equiv_pos_as_xyz
  x,y,z
_cell_length_a	23.532361
_cell_length_b	23.532357
_cell_length_c	22.010155
_cell_angle_alpha	89.998697
_cell_angle_beta	89.995873
_cell_angle_gamma	82.828980
loop_
_atom_site_label
_atom_site_type_symbol
_atom_site_fract_x
_atom_site_fract_y
_atom_site_fract_z
O1	O	0.755269	0.069002	-0.050471
O2	O	1.255269	0.569002	0.449529
O3	O	0.589400	0.079033	-0.050487
O4	O	1.089400	0.579033	0.449513
O5	O	0.677351	-0.008917	-0.050466
O6	O	1.177351	0.491083	0.449534
O7	O	0.667317	0.156952	-0.050492
O8	O	1.167317	0.656952	0.449508
O9	O	0.677335	-0.008903	0.050584
O10	O	1.177335	0.491097	0.550584
O11	O	0.589384	0.079047	0.050563
O12	O	1.089384	0.579047	0.550563
O13	O	0.755253	0.069015	0.050579
O14	O	1.255253	0.569015	0.550579
Cu15	Cu	0.672317	0.074032	0.059798
Cu16	Cu	1.172317	0.574032	0.559798
Cu17	Cu	0.672336	0.074017	-0.059706
Cu18	Cu	1.172336	0.574017	0.440294
O19	O	0.667302	0.156966	0.050558
O20	O	1.167302	0.656966	0.550558
C21	C	0.568175	0.078789	0.000036
C22	C	1.068175	0.578789	0.500036
C23	C	0.504957	0.078034	0.000031
C24	C	1.004957	0.578034	0.500031
C25	C	0.231722	0.074723	-0.055047
C26	C	0.731722	0.574723	0.444953
C27	C	0.291122	0.075438	-0.055049
C28	C	0.791122	0.575438	0.444951
O29	O	0.321855	0.075782	-0.101894
O30	O	0.821855	0.575782	0.398106
N31	N	0.320819	0.075806	0.000034
N32	N	0.820819	0.575806	0.500034
C33	C	0.291114	0.075454	0.055122
C34	C	0.791114	0.575454	0.555122
O35	O	0.321828	0.075832	0.101974
O36	O	0.821828	0.575832	0.601974
C37	C	0.231716	0.074735	0.055123
C38	C	0.731716	0.574735	0.555123
C39	C	0.202021	0.074372	0.000036
C40	C	0.702021	0.574372	0.500036
C41	C	0.202028	0.074360	-0.110129
C42	C	0.702028	0.574360	0.389871
C43	C	0.142632	0.073646	-0.110127
C44	C	0.642632	0.573646	0.389873
C45	C	0.112931	0.073295	-0.055044
C46	C	0.612931	0.573295	0.444956
C47	C	0.142626	0.073658	0.000038
C48	C	0.642626	0.573658	0.500038
C49	C	0.202013	0.074378	0.110210
C50	C	0.702013	0.574378	0.610210
C51	C	0.142611	0.073659	0.110206
C52	C	0.642611	0.573659	0.610206
C53	C	0.112916	0.073296	0.055120
C54	C	0.612916	0.573296	0.555120
C55	C	0.053529	0.072594	0.055124
C56	C	0.553529	0.572594	0.555124
N57	N	0.023832	0.072225	0.000041
N58	N	0.523832	0.572225	0.500041
C59	C	0.053533	0.072576	-0.055043
C60	C	0.553533	0.572576	0.444957
C61	C	0.415854	0.076963	0.055115
C62	C	0.915854	0.576963	0.555115
C63	C	0.475250	0.077686	0.055115
C64	C	0.975250	0.577686	0.555115
C65	C	0.475254	0.077669	-0.055056
C66	C	0.975254	0.577669	0.444944
C67	C	0.415856	0.076950	-0.055055
C68	C	0.915856	0.576950	0.444945
C69	C	0.386157	0.076594	0.000033
C70	C	0.886157	0.576594	0.500033
C71	C	-0.071202	0.071078	-0.055035
C72	C	0.428798	0.571078	0.444965
C73	C	-0.130604	0.070366	-0.055028
C74	C	0.369396	0.570366	0.444972
C75	C	-0.130602	0.070380	0.055142
C76	C	0.369398	0.570380	0.555142
C77	C	-0.071206	0.071095	0.055136
C78	C	0.428794	0.571095	0.555136
C79	C	-0.041508	0.071441	0.000043
C80	C	0.458492	0.571441	0.500043
O81	O	0.022758	0.072247	0.101944
O82	O	0.522758	0.572247	0.601944
O83	O	0.022813	0.072190	-0.101887
O84	O	0.522813	0.572190	0.398113
C85	C	0.677092	-0.030127	0.000061
C86	C	1.177092	0.469873	0.500061
C87	C	0.676337	-0.093345	0.000066
C88	C	1.176337	0.406655	0.500066
C89	C	0.671609	-0.485363	-0.055049
C90	C	1.171609	0.014637	0.444951
C91	C	0.670892	-0.544762	-0.055053
C92	C	1.170892	-0.044762	0.444947
O93	O	0.670509	-0.575484	-0.101899
O94	O	1.170509	-0.075484	0.398101
N95	N	0.670527	-0.574466	0.000029
N96	N	1.170527	-0.074466	0.500029
C97	C	0.670875	-0.544767	0.055118
C98	C	1.170875	-0.044767	0.555118
O99	O	0.670498	-0.575486	0.101969
O100	O	1.170498	-0.075486	0.601969
C101	C	0.671588	-0.485368	0.055121
C102	C	1.171588	0.014632	0.555121
C103	C	0.671958	-0.455668	0.000035
C104	C	1.171958	0.044332	0.500035
C105	C	0.671979	-0.455663	-0.110130
C106	C	1.171979	0.044337	0.389870
C107	C	0.672697	-0.396267	-0.110127
C108	C	1.172697	0.103733	0.389873
C109	C	0.673046	-0.366573	-0.055042
C110	C	1.173046	0.133427	0.444958
C111	C	0.672676	-0.396273	0.000039
C112	C	1.172676	0.103727	0.500039
C113	C	0.671931	-0.455669	0.110209
C114	C	1.171931	0.044331	0.610209
C115	C	0.672643	-0.396266	0.110207
C116	C	1.172643	0.103734	0.610207
C117	C	0.673014	-0.366566	0.055122
C118	C	1.173014	0.133434	0.555122
C119	C	0.673743	-0.307183	0.055127
C120	C	1.173743	0.192817	0.555127
N121	N	0.674108	-0.277479	0.000046
N122	N	1.174108	0.222521	0.500046
C123	C	0.673759	-0.307174	-0.055039
C124	C	1.173759	0.192826	0.444961
C125	C	0.669376	-0.669508	0.055107
C126	C	1.169376	-0.169508	0.555107
C127	C	0.668667	-0.728906	0.055105
C128	C	1.168667	-0.228906	0.555105
C129	C	0.668683	-0.728897	-0.055066
C130	C	1.168683	-0.228897	0.444934
C131	C	0.669396	-0.669499	-0.055063
C132	C	1.169396	-0.169499	0.444937
C133	C	0.669740	-0.639804	0.000026
C134	C	1.169740	-0.139804	0.500026
C135	C	0.675268	-0.182440	-0.055027
C136	C	1.175268	0.317560	0.444973
C137	C	0.675988	-0.123040	-0.055018
C138	C	1.175988	0.376960	0.444982
C139	C	0.675969	-0.123054	0.055152
C140	C	1.175969	0.376946	0.555152
C141	C	0.675251	-0.182449	0.055144
C142	C	1.175251	0.317551	0.555144
C143	C	0.674899	-0.212140	0.000049
C144	C	1.174899	0.287860	0.500049
O145	O	0.674124	-0.276422	0.101949
O146	O	1.174124	0.223578	0.601949
O147	O	0.674128	-0.276446	-0.101882
O148	O	1.174128	0.223554	0.398118
C149	C	0.776477	0.069260	0.000054
C150	C	1.276477	0.569260	0.500054
C151	C	0.839695	0.070015	0.000056
C152	C	1.339695	0.570015	0.500056
C153	C	0.667560	0.178176	0.000030
C154	C	1.167560	0.678176	0.500030
C155	C	0.668315	0.241394	0.000020
C156	C	1.168315	0.741394	0.500020
N157	N	0.672308	0.074043	0.143850
N158	N	1.172308	0.574043	0.643850
N159	N	0.672349	0.074002	-0.143758
N160	N	1.172349	0.574002	0.356242
C161	C	0.711283	0.035078	0.563639
C162	C	1.211283	0.535078	1.063639
C163	C	0.711285	0.035074	0.627246
C164	C	1.211285	0.535074	1.127246
O165	O	0.744400	0.001952	0.660146
O166	O	1.244400	0.501952	1.160146
N167	N	0.672335	0.074005	0.659057
N168	N	1.172335	0.574005	1.159057
C169	C	0.633376	0.112938	0.627257
C170	C	1.133376	0.612938	1.127257
O171	O	0.600246	0.146051	0.660156
O172	O	1.100246	0.646051	1.160156
C173	C	0.633371	0.112939	0.563651
C174	C	1.133371	0.612939	1.063651
C175	C	0.672328	0.074009	0.531843
C176	C	1.172328	0.574009	1.031843
C177	C	0.750235	-0.003849	0.531831
C178	C	1.250235	0.496151	1.031831
C179	C	0.750233	-0.003844	0.468228
C180	C	1.250233	0.496156	0.968228
C181	C	0.711278	0.035087	0.436432
C182	C	1.211278	0.535087	0.936432
C183	C	0.672326	0.074014	0.468240
C184	C	1.172326	0.574014	0.968240
C185	C	0.594410	0.151869	0.531852
C186	C	1.094410	0.651869	1.031852
C187	C	0.594408	0.151866	0.468241
C188	C	1.094408	0.651866	0.968241
C189	C	0.633365	0.112937	0.436434
C190	C	1.133365	0.612937	0.936434
C191	C	0.633369	0.112951	0.372841
C192	C	1.133369	0.612951	0.872841
N193	N	0.672319	0.074020	0.341030
N194	N	1.172319	0.574020	0.841030
C195	C	0.711273	0.035088	0.372826
C196	C	1.211273	0.535088	0.872826
C197	C	0.633389	0.112933	0.760835
C198	C	1.133389	0.612933	1.260835
C199	C	0.633396	0.112935	0.824440
C200	C	1.133396	0.612935	1.324440
C201	C	0.711304	0.035070	0.824425
C202	C	1.211304	0.535070	1.324425
C203	C	0.711299	0.035071	0.760819
C204	C	1.211299	0.535071	1.260819
C205	C	0.672339	0.074002	0.729024
C206	C	1.172339	0.574002	1.229024
C207	C	0.711266	0.035101	0.239255
C208	C	1.211266	0.535101	0.739255
C209	C	0.711262	0.035111	0.175646
C210	C	1.211262	0.535111	0.675646
C211	C	0.633352	0.112974	0.175667
C212	C	1.133352	0.612974	0.675667
C213	C	0.633358	0.112967	0.239270
C214	C	1.133358	0.612967	0.739270
C215	C	0.672317	0.074026	0.271062
C216	C	1.172317	0.574026	0.771062
O217	O	0.600269	0.146054	0.339902
O218	O	1.100269	0.646054	0.839902
O219	O	0.744393	0.001976	0.339920
O220	O	1.244393	0.501976	0.839920
H221	H	0.118460	0.073348	-0.154984
H222	H	0.618460	0.573348	0.345016
N223	N	-0.040862	0.071429	-0.111305
N224	N	0.459138	0.571429	0.388695
N225	N	-0.002231	0.031675	-0.123597
N226	N	0.497769	0.531675	0.376403
H227	H	0.019197	0.031925	-0.163338
H228	H	0.519197	0.531925	0.336662
H229	H	0.742987	0.003410	0.149750
H230	H	1.242987	0.503410	0.649750
H231	H	-0.154778	0.070073	-0.099888
H232	H	0.345222	0.570073	0.400112
H233	H	0.676256	-0.098866	0.100001
H234	H	1.176256	0.401134	0.600001
N235	N	0.385508	0.076606	0.111384
N236	N	0.885508	0.576606	0.611384
N237	N	0.357850	0.036058	0.123689
N238	N	0.857850	0.536058	0.623689
H239	H	0.336419	0.035805	0.163428
H240	H	0.836419	0.535805	0.663428
N241	N	-0.040878	0.071462	0.111408
N242	N	0.459122	0.571462	0.611408
N243	N	-0.002253	0.031708	0.123716
N244	N	0.497747	0.531708	0.623716
H245	H	0.019162	0.031964	0.163462
H246	H	0.519162	0.531964	0.663462
H247	H	0.226204	0.074643	-0.154988
H248	H	0.726204	0.574643	0.345012
N249	N	0.112266	0.073293	0.166473
N250	N	0.612266	0.573293	0.666473
N251	N	0.084607	0.032744	0.178771
N252	N	0.584607	0.532744	0.678771
H253	H	0.063175	0.032486	0.218508
H254	H	0.563175	0.532486	0.718508
H255	H	0.781957	-0.035554	0.557713
H256	H	1.281957	0.464446	1.057713
N257	N	0.385535	0.076580	-0.111329
N258	N	0.885535	0.576580	0.388671
N259	N	0.412068	0.076896	-0.160504
N260	N	0.912068	0.576896	0.339496
H261	H	0.390657	0.076634	-0.200251
H262	H	0.890657	0.576634	0.299749
N263	N	0.593559	0.152729	0.271758
N264	N	1.093559	0.652729	0.771758
N265	N	0.540926	0.152218	0.264652
N266	N	1.040926	0.652218	0.764652
H267	H	0.512813	0.180296	0.287594
H268	H	1.012813	0.680296	0.787594
N269	N	0.232341	0.074747	0.166477
N270	N	0.732341	0.574747	0.666477
N271	N	0.259997	0.115295	0.178778
N272	N	0.759997	0.615295	0.678778
H273	H	0.281416	0.115554	0.218520
H274	H	0.781416	0.615554	0.718520
N275	N	0.593587	0.152709	0.728370
N276	N	1.093587	0.652709	1.228370
N277	N	0.558816	0.187463	0.756786
N278	N	1.058816	0.687463	1.256786
H279	H	0.530705	0.215555	0.733861
H280	H	1.030705	0.715555	1.233861
H281	H	0.499448	0.077954	-0.099908
H282	H	0.999448	0.577954	0.400092
H283	H	0.671693	-0.479834	-0.154989
H284	H	1.171693	0.020166	0.345011
N285	N	0.505568	0.078070	0.111390
N286	N	1.005568	0.578070	0.611390
N287	N	0.479034	0.077761	0.160565
N288	N	0.979034	0.577761	0.660565
H289	H	0.500444	0.078030	0.200312
H290	H	1.000444	0.578030	0.700312
N291	N	0.669748	-0.639181	0.111383
N292	N	1.169748	-0.139181	0.611383
N293	N	0.710299	-0.611528	0.123682
N294	N	1.210299	-0.111528	0.623682
H295	H	0.710562	-0.590112	0.163427
H296	H	1.210562	-0.090112	0.663427
N297	N	-0.160945	0.070008	0.111407
N298	N	0.339055	0.570008	0.611407
N299	N	-0.148828	0.029936	0.148290
N300	N	0.351172	0.529936	0.648290
H301	H	-0.170258	0.029668	0.188028
H302	H	0.329742	0.529668	0.688028
N303	N	0.671558	-0.485989	0.166484
N304	N	1.171558	0.014011	0.666484
N305	N	0.671867	-0.459457	0.215657
N306	N	1.171867	0.040543	0.715657
H307	H	0.671604	-0.480869	0.255405
H308	H	1.171604	0.019131	0.755405
H309	H	0.676291	-0.098861	-0.099877
H310	H	1.176291	0.401139	0.400123
H311	H	0.562688	0.183569	0.557741
H312	H	1.062688	0.683569	1.057741
H313	H	0.742990	0.003391	0.265133
H314	H	1.242990	0.503391	0.765133
H315	H	0.674978	-0.206607	-0.099890
H316	H	1.174978	0.293393	0.400110
N317	N	0.673073	-0.365943	-0.166401
N318	N	1.173073	0.134057	0.333599
N319	N	0.672759	-0.392473	-0.215575
N320	N	1.172759	0.107527	0.284425
H321	H	0.673022	-0.371059	-0.255322
H322	H	1.173022	0.128941	0.244678
H323	H	0.781953	-0.035545	0.442334
H324	H	1.281953	0.464455	0.942334
N325	N	0.668288	-0.759249	0.111368
N326	N	1.168288	-0.259249	0.611368
N327	N	0.667644	-0.812282	0.111366
N328	N	1.167644	-0.312282	0.611366
H329	H	0.667373	-0.833711	0.151103
H330	H	1.167373	-0.333711	0.651103
N331	N	0.672989	-0.365943	0.166486
N332	N	1.172989	0.134057	0.666486
N333	N	0.672656	-0.392473	0.215660
N334	N	1.172656	0.107527	0.715660
H335	H	0.672900	-0.371059	0.255407
H336	H	1.172900	0.128941	0.755407
N337	N	0.669777	-0.639173	-0.111336
N338	N	1.169777	-0.139173	0.388664
N339	N	0.669469	-0.665701	-0.160512
N340	N	1.169469	-0.165701	0.339488
H341	H	0.669738	-0.644286	-0.200258
H342	H	1.169738	-0.144286	0.299742
N343	N	0.751067	-0.004727	0.728340
N344	N	1.251067	0.495273	1.228340
N345	N	0.785825	-0.039500	0.756744
N346	N	1.285825	0.460500	1.256744
H347	H	0.813902	-0.067621	0.733810
H348	H	1.313902	0.432379	1.233810
N349	N	0.668311	-0.759237	-0.111333
N350	N	1.168311	-0.259237	0.388667
N351	N	0.628242	-0.747121	-0.148218
N352	N	1.128242	-0.247121	0.351782
H353	H	0.627979	-0.768551	-0.187954
H354	H	1.127979	-0.268551	0.312046
H355	H	0.674955	-0.206633	0.099999
H356	H	1.174955	0.293367	0.599999
H357	H	0.743023	0.003369	0.850325
H358	H	1.243023	0.503369	1.350325
N359	N	0.593608	0.152713	0.856918
N360	N	1.093608	0.652713	1.356918
N361	N	0.558833	0.187470	0.828514
N362	N	1.058833	0.687470	1.328514
H363	H	0.530729	0.215564	0.851448
H364	H	1.030729	0.715564	1.351448
N365	N	0.554604	0.191637	0.435775
N366	N	1.054604	0.691637	0.935775
N367	N	0.519827	0.226388	0.464187
N368	N	1.019827	0.726388	0.964187
H369	H	0.491716	0.254477	0.441259
H370	H	0.991716	0.754477	0.941259
N371	N	0.593569	0.152739	0.143172
N372	N	1.093569	0.652739	0.643172
N373	N	0.593576	0.152731	0.086381
N374	N	1.093576	0.652731	0.586381
H375	H	0.565477	0.180812	0.063430
H376	H	1.065477	0.680812	0.563430
