data_functionalizedCrystal
_audit_creation_method	'MofGen! by Chris Wilmer'
_symmetry_space_group_name_H-M	'P1'
_symmetry_Int_Tables_number	1
_symmetry_cell_setting	triclinic
loop_
_symmetry_equiv_pos_as_xyz
  x,y,z
_cell_length_a	14.044220
_cell_length_b	14.853568
_cell_length_c	13.930277
_cell_angle_alpha	89.999968
_cell_angle_beta	89.997723
_cell_angle_gamma	91.587968
loop_
_atom_site_label
_atom_site_type_symbol
_atom_site_fract_x
_atom_site_fract_y
_atom_site_fract_z
O1	O	1.257997	-0.217372	-0.079710
O2	O	1.757997	0.282628	0.420290
O3	O	0.982018	-0.209528	-0.079735
O4	O	1.482018	0.290472	0.420265
O5	O	1.127379	-0.082805	-0.079727
O6	O	1.627379	0.417195	0.420273
O7	O	1.112636	-0.344096	-0.079719
O8	O	1.612636	0.155904	0.420281
O9	O	1.127359	-0.082800	0.079935
O10	O	1.627359	0.417200	0.579935
O11	O	0.981997	-0.209524	0.079926
O12	O	1.481997	0.290476	0.579926
O13	O	1.257977	-0.217368	0.079951
O14	O	1.757977	0.282632	0.579951
Zn15	Zn	1.119984	-0.213445	0.105289
Zn16	Zn	1.619984	0.286555	0.605289
Zn17	Zn	1.120011	-0.213451	-0.105073
Zn18	Zn	1.620011	0.286549	0.394927
O19	O	1.112616	-0.344091	0.079943
O20	O	1.612616	0.155909	0.579943
C21	C	0.946689	-0.206092	0.000092
C22	C	1.446689	0.293908	0.500092
C23	C	0.841449	-0.195851	0.000082
C24	C	1.341449	0.304149	0.500082
C25	C	1.126701	-0.049161	0.000100
C26	C	1.626701	0.450839	0.500100
C27	C	1.124699	0.051082	0.000090
C28	C	1.624699	0.551082	0.500090
N29	N	1.119973	-0.213441	0.248855
N30	N	1.619973	0.286559	0.748855
C31	C	0.648763	-0.177127	0.000101
C32	C	1.148763	0.322873	0.500101
C33	C	0.591226	-0.249765	0.000107
C34	C	1.091226	0.250235	0.500107
C35	C	0.484009	-0.239347	0.000117
C36	C	0.984009	0.260653	0.500117
C37	C	0.755990	-0.187544	0.000090
C38	C	1.255990	0.312456	0.500090
C39	C	1.293306	-0.220803	0.000122
C40	C	1.793306	0.279197	0.500122
C41	C	1.398545	-0.231045	0.000125
C42	C	1.898545	0.268955	0.500125
C43	C	1.029887	0.471127	0.000094
C44	C	1.529887	0.971127	0.500094
C45	C	1.202580	0.478726	0.000109
C46	C	1.702580	0.978726	0.500109
C47	C	1.204463	0.384543	0.000105
C48	C	1.704463	0.884543	0.500105
C49	C	1.119056	0.333648	0.000097
C50	C	1.619056	0.833648	0.500097
C51	C	1.031767	0.376935	0.000093
C52	C	1.531767	0.876935	0.500093
C53	C	1.291750	0.341248	0.000119
C54	C	1.791750	0.841248	0.500119
C55	C	1.293636	0.247060	0.000116
C56	C	1.793636	0.747060	0.500116
C57	C	1.208229	0.196163	0.000101
C58	C	1.708229	0.696163	0.500101
C59	C	1.120936	0.239456	0.000096
C60	C	1.620936	0.739456	0.500096
C61	C	1.035530	0.188561	0.000088
C62	C	1.535530	0.688561	0.500088
C63	C	0.948236	0.231852	0.000075
C64	C	1.448236	0.731852	0.500075
C65	C	0.946360	0.326038	0.000078
C66	C	1.446360	0.826038	0.500078
C67	C	1.210105	0.101977	0.000099
C68	C	1.710105	0.601977	0.500099
C69	C	1.037410	0.094369	0.000086
C70	C	1.537410	0.594369	0.500086
C71	C	1.113293	0.622265	0.000110
C72	C	1.613293	1.122265	0.500110
C73	C	1.115294	0.522022	0.000102
C74	C	1.615294	1.022022	0.500102
N75	N	1.120029	-0.213449	-0.248639
N76	N	1.620029	0.286551	0.251361
C77	C	1.055642	-0.269540	0.701120
C78	C	1.555642	0.230460	1.201120
C79	C	1.184405	-0.157357	0.701097
C80	C	1.684405	0.342643	1.201097
C81	C	1.184394	-0.157353	0.600601
C82	C	1.684394	0.342647	1.100601
C83	C	1.120007	-0.213445	0.550360
C84	C	1.620007	0.286555	1.050360
C85	C	1.055631	-0.269540	0.600615
C86	C	1.555631	0.230460	1.100615
C87	C	1.248775	-0.101266	0.550339
C88	C	1.748775	0.398734	1.050339
C89	C	1.248767	-0.101260	0.449837
C90	C	1.748767	0.398740	0.949837
C91	C	1.184375	-0.157348	0.399594
C92	C	1.684375	0.342652	0.899594
C93	C	1.119995	-0.213445	0.449855
C94	C	1.619995	0.286555	0.949855
C95	C	1.055608	-0.269536	0.399615
C96	C	1.555608	0.230464	0.899615
C97	C	0.991224	-0.325629	0.449874
C98	C	1.491224	0.174371	0.949874
C99	C	0.991238	-0.325627	0.550373
C100	C	1.491238	0.174373	1.050373
C101	C	1.184360	-0.157349	0.299096
C102	C	1.684360	0.342651	0.799096
C103	C	1.055597	-0.269536	0.299110
C104	C	1.555597	0.230464	0.799110
H105	H	0.622489	-0.319778	0.000105
H106	H	1.122489	0.180222	0.500105
H107	H	0.617502	-0.107120	0.000104
H108	H	1.117502	0.392880	0.500104
H109	H	0.967860	0.052936	0.000075
H110	H	1.467860	0.552936	0.500075
H111	H	1.301191	-0.055586	0.408922
H112	H	1.801191	0.444414	0.908922
H113	H	0.878698	0.190401	0.000075
H114	H	1.378698	0.690401	0.500075
H115	H	0.958815	0.506379	0.000080
H116	H	1.458815	1.006379	0.500080
H117	H	0.875290	0.361295	0.000069
H118	H	1.375290	0.861295	0.500069
H119	H	1.272114	0.520170	0.000124
H120	H	1.772114	1.020170	0.500124
H121	H	1.361283	0.382694	0.000135
H122	H	1.861283	0.882694	0.500135
H123	H	1.364716	0.211820	0.000125
H124	H	1.864716	0.711820	0.500125
H125	H	1.281178	0.066733	0.000115
H126	H	1.781178	0.566733	0.500115
H127	H	1.003161	-0.315209	0.258209
H128	H	1.503161	0.184791	0.758209
H129	H	0.938803	-0.371303	0.408956
H130	H	1.438803	0.128697	0.908956
H131	H	0.938819	-0.371297	0.591300
H132	H	1.438819	0.128703	1.091300
H133	H	1.236785	-0.111684	0.258179
H134	H	1.736785	0.388316	0.758179
H135	H	1.301202	-0.055602	0.591248
H136	H	1.801202	0.444398	1.091248
H137	H	1.003218	-0.315207	0.742044
H138	H	1.503218	0.184793	1.242044
H139	H	1.236832	-0.111694	0.742006
H140	H	1.736832	0.388306	1.242006
