data_functionalizedCrystal
_audit_creation_method	'MofGen! by Chris Wilmer'
_symmetry_space_group_name_H-M	'P1'
_symmetry_Int_Tables_number	1
_symmetry_cell_setting	triclinic
loop_
_symmetry_equiv_pos_as_xyz
  x,y,z
_cell_length_a	18.627244
_cell_length_b	18.627297
_cell_length_c	18.627434
_cell_angle_alpha	90.003138
_cell_angle_beta	120.000854
_cell_angle_gamma	60.000462
loop_
_atom_site_label
_atom_site_type_symbol
_atom_site_fract_x
_atom_site_fract_y
_atom_site_fract_z
O1	O	0.633164	-0.611816	1.125673
O2	O	0.486173	-0.507436	0.874280
O3	O	0.633167	-0.507423	1.021276
O4	O	0.486171	-0.611829	0.978678
O5	O	0.513764	-0.388023	1.021276
O6	O	0.366771	-0.388036	0.874280
O7	O	0.513762	-0.492416	1.125673
Cu8	Cu	0.429364	-0.429324	0.999977
Cu9	Cu	0.570571	-0.570528	0.999977
O10	O	0.366769	-0.492429	0.978677
C11	C	0.355974	-0.386928	0.742987
C12	C	0.406372	-0.431232	0.837680
C13	C	0.398767	-0.430326	0.699380
C14	C	0.225978	-0.256926	0.613002
C15	C	0.137381	-0.162232	0.568713
C16	C	0.268967	-0.300521	0.569591
C17	C	0.355970	-0.386917	0.612986
C18	C	0.406362	-0.431211	0.568679
C19	C	0.268972	-0.300532	0.699396
C20	C	0.643963	-0.256920	1.030971
C21	C	0.593567	-0.162224	1.024875
C22	C	0.730969	-0.300521	1.031578
C23	C	0.643962	-0.386920	1.030971
C24	C	0.593565	-0.431221	1.024875
C25	C	0.730968	-0.430324	1.031578
C26	C	0.773963	-0.386919	1.030971
C27	C	0.862563	-0.431219	1.024875
C28	C	0.601166	-0.300522	1.031578
C29	C	0.225971	-0.612930	0.968983
C30	C	0.137370	-0.568629	0.975079
C31	C	0.268964	-0.699328	0.968375
C32	C	0.355972	-0.612931	0.968982
C33	C	0.406369	-0.568631	0.975079
C34	C	0.398768	-0.699329	0.968375
C35	C	0.355970	-0.742930	0.968982
C36	C	0.406365	-0.837626	0.975079
C37	C	0.268966	-0.569526	0.968375
O38	O	1.104365	-0.611827	0.978678
O39	O	0.895565	-0.507421	1.021276
O40	O	0.895570	-0.507434	0.874280
O41	O	1.104360	-0.611814	1.125673
O42	O	0.895573	-0.388034	0.874280
O43	O	0.895568	-0.388021	1.021276
O44	O	1.104369	-0.492427	0.978677
Cu45	Cu	0.999969	-0.429322	0.999977
Cu46	Cu	0.999965	-0.570526	0.999977
O47	O	1.104364	-0.492414	1.125673
O48	O	-0.104405	0.125755	0.507550
O49	O	0.104383	-0.125637	0.611918
O50	O	0.104391	0.021359	0.611940
O51	O	-0.104413	-0.021241	0.507528
O52	O	0.104386	0.021369	0.492536
O53	O	0.104378	-0.125626	0.492514
O54	O	-0.104410	0.125765	0.388147
Cu55	Cu	-0.000017	0.000070	0.429428
Cu56	Cu	-0.000011	0.000058	0.570636
O57	O	-0.104418	-0.021230	0.388125
O58	O	0.486165	0.125774	0.978677
O59	O	0.633167	-0.125620	1.021276
O60	O	0.486171	0.021367	0.874280
O61	O	0.633161	-0.021213	1.125673
O62	O	0.366771	0.021363	0.874280
O63	O	0.513767	-0.125624	1.021276
O64	O	0.366765	0.125770	0.978677
Cu65	Cu	0.429364	0.000073	0.999977
Cu66	Cu	0.570568	0.000077	0.999976
O67	O	0.513761	-0.021217	1.125673
O68	O	0.486152	-0.611801	0.507457
O69	O	0.633159	-0.507406	0.611875
O70	O	0.486159	-0.507410	0.611870
O71	O	0.633152	-0.611797	0.507462
O72	O	0.366762	-0.388009	0.492481
O73	O	0.513762	-0.388004	0.492486
O74	O	0.366755	-0.492400	0.388067
Cu75	Cu	0.429357	-0.429300	0.429375
Cu76	Cu	0.570557	-0.570506	0.570567
O77	O	0.513755	-0.492395	0.388072
C78	C	0.773953	-0.742899	1.386966
C79	C	0.862552	-0.837591	1.431265
C80	C	0.730957	-0.699295	1.430369
C81	C	0.643956	-0.612908	1.256969
C82	C	0.593562	-0.568615	1.162274
C83	C	0.601158	-0.569502	1.300570
C84	C	0.643952	-0.612900	1.386966
C85	C	0.593554	-0.568598	1.431266
C86	C	0.730961	-0.699303	1.300569
C87	C	0.643978	-0.256955	0.612986
C88	C	0.593583	-0.162262	0.568686
C89	C	0.601181	-0.300560	0.569584
C90	C	0.773973	-0.386944	0.742985
C91	C	0.862570	-0.431236	0.837679
C92	C	0.730979	-0.430352	0.699385
C93	C	0.643976	-0.386955	0.612989
C94	C	0.593580	-0.431258	0.568691
C95	C	0.730981	-0.300549	0.699383
C96	C	1.355960	-0.612903	1.386968
C97	C	1.406359	-0.568602	1.431269
C98	C	1.398752	-0.699298	1.430370
C99	C	1.225961	-0.612909	1.256969
C100	C	1.137364	-0.568614	1.162274
C101	C	1.268950	-0.699303	1.300568
C102	C	1.355953	-0.742900	1.386965
C103	C	1.406345	-0.837593	1.431262
C104	C	1.268957	-0.569503	1.300571
C105	C	0.355991	0.031065	0.613043
C106	C	0.406384	0.024975	0.568741
C107	C	0.398792	0.031667	0.699443
C108	C	0.225993	0.031059	0.613042
C109	C	0.137392	0.024962	0.568740
C110	C	0.268992	0.031661	0.699443
C111	C	0.355999	0.031054	0.743046
C112	C	0.406400	0.024952	0.837744
C113	C	0.268985	0.031672	0.569637
O114	O	0.366776	0.125727	0.388096
O115	O	0.513785	-0.125667	0.492485
O116	O	0.366787	0.021322	0.492495
O117	O	0.513774	-0.021262	0.388086
O118	O	0.486186	0.021332	0.611893
O119	O	0.633183	-0.125657	0.611883
O120	O	0.486174	0.125737	0.507493
Cu121	Cu	0.570581	0.000041	0.570590
Cu122	Cu	0.429378	0.000029	0.429388
O123	O	0.633172	-0.021253	0.507483
C124	C	-0.356027	-0.030926	0.257020
C125	C	-0.406428	-0.024824	0.162322
C126	C	-0.398820	-0.031539	0.300623
C127	C	-0.226021	-0.030931	0.387023
C128	C	-0.137419	-0.024834	0.431325
C129	C	-0.269011	-0.031544	0.430429
C130	C	-0.356018	-0.030937	0.387024
C131	C	-0.406410	-0.024846	0.431327
C132	C	-0.269020	-0.031533	0.300622
H133	H	0.232976	-0.265511	0.498604
C134	C	0.506603	-0.253272	0.473684
N135	N	0.435368	-0.217654	0.401455
H136	H	1.232956	-0.734303	1.265561
C137	C	0.779571	-0.746598	1.253278
N138	N	0.816182	-0.782218	1.217659
C139	C	1.493331	-0.746583	1.526269
N140	N	1.564567	-0.782199	1.598497
C141	C	0.779576	-0.526224	1.032895
N142	N	0.816187	-0.598454	1.033886
C143	C	0.506579	-0.473603	1.253281
N144	N	0.435347	-0.401374	1.217666
H145	H	0.531136	-0.265504	1.032529
H146	H	-0.233021	-0.032525	0.501419
H147	H	0.766960	-0.265538	0.734383
C148	C	0.493343	-0.526226	0.746659
N149	N	0.564575	-0.598454	0.782267
H150	H	0.232997	-0.265534	0.734411
H151	H	0.766961	-0.501336	0.734396
H152	H	0.232966	-0.734325	0.967381
H153	H	-0.468831	-0.032518	0.265614
H154	H	-0.233089	-0.032436	0.265588
H155	H	0.766950	-0.265512	1.032558
H156	H	0.232978	-0.498537	0.967395
C157	C	0.220385	0.032974	0.746735
N158	N	0.183776	0.033963	0.782355
C159	C	1.220364	-0.473612	1.253277
N160	N	1.183768	-0.401390	1.217654
H161	H	0.468780	-0.734332	0.967399
H162	H	0.766941	-0.734300	1.501356
C163	C	0.493378	0.032983	0.746737
N164	N	0.564620	0.033971	0.782359
C165	C	0.220373	0.032993	0.473735
N166	N	0.183759	0.033988	0.401504
