data_functionalizedCrystal
_audit_creation_method	'MofGen! by Chris Wilmer'
_symmetry_space_group_name_H-M	'P1'
_symmetry_Int_Tables_number	1
_symmetry_cell_setting	triclinic
loop_
_symmetry_equiv_pos_as_xyz
  x,y,z
_cell_length_a	16.109318
_cell_length_b	12.811415
_cell_length_c	15.186229
_cell_angle_alpha	84.565396
_cell_angle_beta	90.000224
_cell_angle_gamma	83.757608
loop_
_atom_site_label
_atom_site_type_symbol
_atom_site_fract_x
_atom_site_fract_y
_atom_site_fract_z
O1	O	1.103618	0.134999	-0.083934
O2	O	1.436951	0.468332	0.249399
O3	O	1.770284	0.801665	0.582733
O4	O	0.861619	0.151769	-0.085291
O5	O	1.194953	0.485103	0.248042
O6	O	1.528286	0.818436	0.581376
O7	O	0.988707	-0.009410	-0.072407
O8	O	1.322040	0.323923	0.260927
O9	O	1.655373	0.657257	0.594260
O10	O	0.976531	0.296178	-0.096819
O11	O	1.309864	0.629512	0.236515
O12	O	1.643197	0.962845	0.569848
O13	O	0.988698	-0.009412	0.074051
O14	O	1.322031	0.323921	0.407384
O15	O	1.655365	0.657254	0.740718
O16	O	0.861611	0.151767	0.061166
O17	O	1.194944	0.485100	0.394500
O18	O	1.528278	0.818434	0.727833
O19	O	1.103609	0.134997	0.062523
O20	O	1.436943	0.468330	0.395857
O21	O	1.770276	0.801663	0.729190
Zn22	Zn	0.982609	0.143381	0.085098
Zn23	Zn	1.315942	0.476715	0.418431
Zn24	Zn	1.649275	0.810048	0.751765
Zn25	Zn	0.982620	0.143384	-0.107866
Zn26	Zn	1.315953	0.476718	0.225467
Zn27	Zn	1.649287	0.810051	0.558801
O28	O	0.976522	0.296176	0.049639
O29	O	1.309855	0.629509	0.382972
O30	O	1.643189	0.962843	0.716306
C31	C	0.830638	0.151086	-0.012010
C32	C	1.163971	0.484419	0.321323
C33	C	1.497305	0.817752	0.654657
C34	C	0.738336	0.149040	-0.011853
C35	C	1.071669	0.482373	0.321480
C36	C	1.405003	0.815706	0.654813
C37	C	0.439243	0.142432	-0.091144
C38	C	0.772576	0.475765	0.242189
C39	C	1.105909	0.809099	0.575523
C40	C	0.525971	0.144348	-0.091302
C41	C	0.859304	0.477681	0.242031
C42	C	1.192638	0.811014	0.575364
C43	C	0.525980	0.144331	0.068375
C44	C	0.859314	0.477664	0.401708
C45	C	1.192647	0.810997	0.735041
C46	C	0.439254	0.142408	0.068533
C47	C	0.772588	0.475741	0.401866
C48	C	1.105921	0.809074	0.735200
C49	C	0.395887	0.141464	-0.011229
C50	C	0.729221	0.474797	0.322104
C51	C	1.062554	0.808130	0.655437
C52	C	0.569342	0.145302	-0.011546
C53	C	0.902675	0.478636	0.321787
C54	C	1.236008	0.811969	0.655121
C55	C	0.663376	0.147379	-0.011717
C56	C	0.996710	0.480713	0.321616
C57	C	1.330043	0.814046	0.654949
C58	C	0.301847	0.139384	-0.011058
C59	C	0.635180	0.472718	0.322275
C60	C	0.968513	0.806051	0.655608
C61	C	0.988020	-0.048515	0.003944
C62	C	1.321353	0.284818	0.337277
C63	C	1.654687	0.618152	0.670611
C64	C	0.985977	-0.165033	0.013246
C65	C	1.319310	0.168301	0.346579
C66	C	1.652643	0.501634	0.679913
C67	C	0.982131	-0.383968	-0.128961
C68	C	1.315464	-0.050634	0.204372
C69	C	1.648798	0.282699	0.537706
C70	C	0.980211	-0.493446	-0.120225
C71	C	1.313545	-0.160113	0.213108
C72	C	1.646878	0.173220	0.546441
C73	C	0.980211	-0.493470	0.039452
C74	C	1.313544	-0.160136	0.372786
C75	C	1.646877	0.173197	0.706119
C76	C	0.982131	-0.383991	0.030717
C77	C	1.315464	-0.050658	0.364050
C78	C	1.648797	0.282676	0.697383
C79	C	0.983092	-0.329244	-0.053493
C80	C	1.316425	0.004089	0.279840
C81	C	1.649759	0.337423	0.613174
C82	C	0.985018	-0.219764	-0.062228
C83	C	1.318351	0.113569	0.271106
C84	C	1.651685	0.446902	0.604439
C85	C	0.985012	-0.219789	0.097449
C86	C	1.318345	0.113545	0.430782
C87	C	1.651678	0.446878	0.764116
C88	C	0.983092	-0.329267	0.106185
C89	C	1.316425	0.004066	0.439518
C90	C	1.649758	0.337399	0.772851
C91	C	1.134591	0.135680	-0.010760
C92	C	1.467924	0.469014	0.322574
C93	C	1.801257	0.802347	0.655907
C94	C	1.226893	0.137726	-0.010922
C95	C	1.560226	0.471060	0.322411
C96	C	1.893559	0.804393	0.655745
C97	C	0.977209	0.335281	-0.026714
C98	C	1.310542	0.668614	0.306620
C99	C	1.643875	1.001948	0.639953
C100	C	0.979252	0.451799	-0.036021
C101	C	1.312585	0.785132	0.297312
C102	C	1.645919	1.118465	0.630645
N103	N	0.982607	0.143379	0.216791
N104	N	1.315940	0.476712	0.550124
N105	N	1.649274	0.810045	0.883458
N106	N	0.982628	0.143379	-0.239558
N107	N	1.315961	0.476712	0.093775
N108	N	1.649295	0.810046	0.427109
C109	C	1.038901	0.072033	0.448217
C110	C	1.372234	0.405366	0.781551
C111	C	1.705567	0.738699	1.114884
C112	C	1.038903	0.072030	0.540407
C113	C	1.372237	0.405363	0.873740
C114	C	1.705570	0.738697	1.207074
C115	C	0.926329	0.214728	0.529009
C116	C	1.259662	0.548062	0.862342
C117	C	1.592995	0.881395	1.195676
C118	C	0.926323	0.214725	0.436821
C119	C	1.259656	0.548058	0.770155
C120	C	1.592989	0.881392	1.103488
C121	C	0.982613	0.143378	0.396428
C122	C	1.315947	0.476712	0.729761
C123	C	1.649280	0.810045	1.063094
C124	C	0.982622	0.143379	0.580805
C125	C	1.315955	0.476713	0.914139
C126	C	1.649289	0.810046	1.247472
C127	C	0.982624	0.143377	0.680762
C128	C	1.315958	0.476710	1.014095
C129	C	1.649291	0.810044	1.347428
C130	C	0.982610	0.143379	0.296465
C131	C	1.315943	0.476712	0.629798
C132	C	1.649277	0.810046	0.963132
H133	H	0.561300	0.145101	0.133314
H134	H	0.894634	0.478435	0.466648
H135	H	1.227967	0.811768	0.799981
H136	H	0.561267	0.145135	-0.156377
H137	H	0.894601	0.478468	0.176957
H138	H	1.227934	0.811801	0.510290
F139	F	0.866425	0.290660	0.572005
F140	F	1.199758	0.623993	0.905338
F141	F	1.533091	0.957327	1.238671
H142	H	0.403954	0.141618	0.133613
H143	H	0.737287	0.474951	0.466946
H144	H	1.070620	0.808285	0.800280
H145	H	1.084735	0.013936	0.415331
H146	H	1.418068	0.347270	0.748665
H147	H	1.751402	0.680603	1.081998
F148	F	0.983165	-0.325701	-0.218581
F149	F	1.316499	0.007632	0.114752
F150	F	1.649832	0.340965	0.448085
H151	H	0.985797	-0.175222	0.158901
H152	H	1.319131	0.158112	0.492234
H153	H	1.652464	0.491445	0.825568
F154	F	1.098810	-0.003908	0.595523
F155	F	1.432143	0.329426	0.928856
F156	F	1.765477	0.662759	1.262189
F157	F	0.986044	-0.161501	-0.151850
F158	F	1.319378	0.171833	0.181484
F159	F	1.652711	0.505166	0.514817
F160	F	0.982062	-0.387543	0.195801
F161	F	1.315395	-0.054210	0.529135
F162	F	1.648728	0.279123	0.862468
H163	H	0.979426	-0.537998	-0.181679
H164	H	1.312759	-0.204664	0.151654
H165	H	1.646092	0.128669	0.484987
H166	H	0.979421	-0.538063	0.108012
H167	H	1.312754	-0.204729	0.441345
H168	H	1.646088	0.128604	0.774678
F169	F	0.866408	0.290661	0.381699
F170	F	1.199741	0.623994	0.715032
F171	F	1.533074	0.957327	1.048366
H172	H	0.403936	0.141662	-0.156091
H173	H	0.737269	0.474995	0.177242
H174	H	1.070602	0.808329	0.510575
