data_functionalizedCrystal
_audit_creation_method	'MofGen! by Chris Wilmer'
_symmetry_space_group_name_H-M	'P1'
_symmetry_Int_Tables_number	1
_symmetry_cell_setting	triclinic
loop_
_symmetry_equiv_pos_as_xyz
  x,y,z
_cell_length_a	17.038272
_cell_length_b	17.038272
_cell_length_c	15.500227
_cell_angle_alpha	93.043705
_cell_angle_beta	93.033254
_cell_angle_gamma	88.888444
loop_
_atom_site_label
_atom_site_type_symbol
_atom_site_fract_x
_atom_site_fract_y
_atom_site_fract_z
O1	O	0.167139	-1.052160	-0.071836
O2	O	0.667139	-0.552160	0.428164
O3	O	0.164430	-0.824350	-0.071862
O4	O	0.664430	-0.324350	0.428138
O5	O	0.051879	-0.936901	-0.071842
O6	O	0.551879	-0.436901	0.428158
O7	O	0.279690	-0.939609	-0.071856
O8	O	0.779690	-0.439609	0.428144
O9	O	0.058680	-0.930069	0.072045
O10	O	0.558680	-0.430069	0.572045
O11	O	0.171231	-0.817518	0.072026
O12	O	0.671231	-0.317518	0.572026
O13	O	0.173940	-1.045328	0.072051
O14	O	0.673940	-0.545328	0.572051
Cu15	Cu	0.173207	-0.930799	0.085177
Cu16	Cu	0.673207	-0.430799	0.585177
Cu17	Cu	0.165164	-0.938879	-0.084987
Cu18	Cu	0.665164	-0.438879	0.415013
O19	O	0.286491	-0.932777	0.072032
O20	O	0.786491	-0.432777	0.572032
C21	C	0.165368	-0.791641	0.000079
C22	C	0.665368	-0.291641	0.500079
C23	C	0.158019	-0.704358	0.000069
C24	C	0.658019	-0.204358	0.500069
C25	C	0.025987	-0.931022	0.000101
C26	C	0.525987	-0.431022	0.500101
C27	C	-0.061297	-0.923674	0.000100
C28	C	0.438703	-0.423674	0.500100
C29	C	0.173003	-1.078037	0.000109
C30	C	0.673003	-0.578037	0.500109
C31	C	0.180351	-1.165320	0.000113
C32	C	0.680351	-0.665320	0.500113
C33	C	-0.106906	-0.991137	0.000108
C34	C	0.393094	-0.491137	0.500108
C35	C	-0.188918	-0.984229	0.000100
C36	C	0.311082	-0.484229	0.500100
C37	C	-0.225320	-0.909856	0.000088
C38	C	0.274680	-0.409856	0.500088
C39	C	-0.179705	-0.842388	0.000077
C40	C	0.320295	-0.342388	0.500077
C41	C	-0.097694	-0.849297	0.000080
C42	C	0.402306	-0.349297	0.500080
C43	C	-0.472708	-0.885446	0.000074
C44	C	0.027292	-0.385446	0.500074
C45	C	-0.554725	-0.878541	0.000074
C46	C	-0.054725	-0.378541	0.500074
C47	C	-0.563932	-1.020383	0.000094
C48	C	-0.063932	-0.520383	0.500094
C49	C	-0.481919	-1.027286	0.000102
C50	C	0.018081	-0.527286	0.500102
C51	C	-0.436312	-0.959818	0.000087
C52	C	0.063688	-0.459818	0.500087
C53	C	-0.309149	-0.902792	0.000082
C54	C	0.190851	-0.402792	0.500082
C55	C	-0.352484	-0.966882	0.000087
C56	C	0.147516	-0.466882	0.500087
C57	C	0.312383	-0.938656	0.000087
C58	C	0.812383	-0.438656	0.500087
C59	C	0.399667	-0.946004	0.000082
C60	C	0.899667	-0.446004	0.500082
N61	N	0.178864	-0.925122	0.204861
N62	N	0.678864	-0.425122	0.704861
C63	C	0.225482	-0.658749	0.000066
C64	C	0.725482	-0.158749	0.500066
C65	C	0.218574	-0.576737	0.000078
C66	C	0.718574	-0.076737	0.500078
C67	C	0.144201	-0.540335	0.000088
C68	C	0.644201	-0.040335	0.500088
C69	C	0.076733	-0.585950	0.000094
C70	C	0.576733	-0.085950	0.500094
C71	C	0.083642	-0.667961	0.000088
C72	C	0.583642	-0.167961	0.500088
C73	C	0.119792	-0.292946	0.000112
C74	C	0.619792	0.207054	0.500112
C75	C	0.112887	-0.210929	0.000116
C76	C	0.612887	0.289071	0.500116
C77	C	0.254729	-0.201721	0.000102
C78	C	0.754729	0.298279	0.500102
C79	C	0.261632	-0.283734	0.000091
C80	C	0.761632	0.216266	0.500091
C81	C	0.194164	-0.329342	0.000101
C82	C	0.694164	0.170658	0.500101
C83	C	0.137138	-0.456505	0.000098
C84	C	0.637138	0.043495	0.500098
C85	C	0.201228	-0.413170	0.000098
C86	C	0.701228	0.086830	0.500098
N87	N	0.159501	-0.944561	-0.204671
N88	N	0.659501	-0.444561	0.295329
C89	C	0.131192	-0.972833	0.250145
C90	C	0.631192	-0.472833	0.750145
C91	C	0.135478	-0.968547	0.340718
C92	C	0.635478	-0.468547	0.840718
C93	C	0.187440	-0.916555	0.386003
C94	C	0.687440	-0.416555	0.886003
C95	C	0.235114	-0.868839	0.340712
C96	C	0.735114	-0.368839	0.840712
C97	C	0.230823	-0.873121	0.250142
C98	C	0.730823	-0.373121	0.750142
C99	C	0.202884	-0.901128	0.659467
C100	C	0.702884	-0.401128	1.159467
C101	C	0.207172	-0.896851	0.750044
C102	C	0.707172	-0.396851	1.250044
C103	C	0.107535	-0.996559	0.750044
C104	C	0.607535	-0.496559	1.250044
C105	C	0.103252	-1.000840	0.659471
C106	C	0.603252	-0.500840	1.159471
C107	C	0.150923	-0.953121	0.614188
C108	C	0.650923	-0.453121	1.114188
C109	C	0.191824	-0.912174	0.478582
C110	C	0.691824	-0.412174	0.978582
C111	C	0.146534	-0.957498	0.521610
C112	C	0.646534	-0.457498	1.021610
H113	H	-0.077273	-1.051699	0.000123
H114	H	0.422727	-0.551699	0.500123
O115	O	0.047218	-1.056925	0.610622
O116	O	0.547218	-0.556925	1.110622
H117	H	0.004881	-1.023288	0.569357
H118	H	0.504881	-0.523288	1.069357
O119	O	-0.238113	-1.056991	0.000123
O120	O	0.261887	-0.556991	0.500123
H121	H	-0.199022	-1.109866	0.000147
H122	H	0.300978	-0.609866	0.500147
H123	H	-0.584359	-0.817974	0.000078
H124	H	-0.084359	-0.317974	0.500078
O125	O	0.047024	-0.342129	0.000125
O126	O	0.547024	0.157871	0.500125
H127	H	0.008919	-0.331379	-0.058520
H128	H	0.508919	0.168621	0.441480
H129	H	0.076584	-0.426857	0.000130
H130	H	0.576584	0.073143	0.500130
H131	H	-0.322844	-1.027437	0.000077
H132	H	0.177156	-0.527437	0.500077
H133	H	-0.435584	-0.830508	0.000061
H134	H	0.064416	-0.330508	0.500061
H135	H	-0.209350	-0.781832	0.000063
H136	H	0.290650	-0.281832	0.500063
H137	H	0.277420	-0.826501	0.377589
H138	H	0.777420	-0.326501	0.877589
H139	H	-0.060560	-0.794361	0.000073
H140	H	0.439440	-0.294361	0.500073
O141	O	0.056113	-1.048019	0.798882
O142	O	0.556113	-0.548019	1.298882
H143	H	0.067818	-1.036304	0.869469
H144	H	0.567818	-0.536304	1.369469
O145	O	0.247876	-0.856107	0.527433
O146	O	0.747876	-0.356107	1.027433
H147	H	0.232942	-0.795040	0.510071
H148	H	0.732942	-0.295040	1.010071
H149	H	-0.338796	-0.842237	0.000075
H150	H	0.161204	-0.342237	0.500075
H151	H	-0.452287	-1.087848	0.000111
H152	H	0.047713	-0.587848	0.500111
H153	H	0.322194	-0.313367	0.000073
H154	H	0.822194	0.186633	0.500073
H155	H	0.249490	-0.854510	0.786912
H156	H	0.749490	-0.354510	1.286912
H157	H	0.269642	-0.834269	0.213271
H158	H	0.769642	-0.334269	0.713271
O159	O	0.291337	-0.527541	0.000075
O160	O	0.791337	-0.027541	0.500075
H161	H	0.344213	-0.566631	0.000057
H162	H	0.844213	-0.066631	0.500057
O163	O	-0.003486	-0.546694	0.000107
O164	O	0.496514	-0.046694	0.500107
H165	H	0.003041	-0.482005	0.000103
H166	H	0.503041	0.017995	0.500103
O167	O	0.084070	-1.020024	0.389553
O168	O	0.584070	-0.520024	0.889553
H169	H	0.021352	-1.006788	0.372175
H170	H	0.521352	-0.506788	0.872175
H171	H	0.241701	-0.862274	0.622605
H172	H	0.741701	-0.362274	1.122605
O173	O	0.305700	-0.698010	0.000064
O174	O	0.805700	-0.198010	0.500064
H175	H	0.351450	-0.652513	0.000076
H176	H	0.851450	-0.152513	0.500076
O177	O	0.327498	-0.152532	0.000109
O178	O	0.827498	0.347468	0.500109
H179	H	0.310203	-0.089389	0.000125
H180	H	0.810203	0.410611	0.500125
O181	O	0.032668	-0.171662	0.000134
O182	O	0.532668	0.328338	0.500134
H183	H	-0.013087	-0.217153	0.000150
H184	H	0.486913	0.282847	0.500150
O185	O	0.010879	-0.717160	0.000088
O186	O	0.510879	-0.217160	0.500088
H187	H	-0.041999	-0.678072	0.000088
H188	H	0.458001	-0.178072	0.500088
O189	O	0.281445	-0.452423	0.000091
O190	O	0.781445	0.047577	0.500091
H191	H	0.285210	-0.492339	-0.058561
H192	H	0.785210	0.007661	0.441439
O193	O	0.090477	-1.013557	0.472764
O194	O	0.590477	-0.513557	0.972764
H195	H	0.124136	-1.055873	0.431482
H196	H	0.624136	-0.555873	0.931482
H197	H	-0.601074	-1.075311	0.000105
H198	H	-0.101074	-0.575311	0.500105
O199	O	0.075143	-1.028908	0.201302
O200	O	0.575143	-0.528908	0.701302
H201	H	0.042708	-1.061357	0.248012
H202	H	0.542708	-0.561357	0.748012
