data_functionalizedCrystal
_audit_creation_method	'MofGen! by Chris Wilmer'
_symmetry_space_group_name_H-M	'P1'
_symmetry_Int_Tables_number	1
_symmetry_cell_setting	triclinic
loop_
_symmetry_equiv_pos_as_xyz
  x,y,z
_cell_length_a	14.971486
_cell_length_b	19.288865
_cell_length_c	13.448316
_cell_angle_alpha	89.988163
_cell_angle_beta	89.998199
_cell_angle_gamma	83.375189
loop_
_atom_site_label
_atom_site_type_symbol
_atom_site_fract_x
_atom_site_fract_y
_atom_site_fract_z
O1	O	1.186458	0.090517	-0.082589
O2	O	1.686458	0.590517	0.417411
O3	O	0.925999	0.101357	-0.082618
O4	O	1.425999	0.601357	0.417382
O5	O	1.063755	-0.005169	-0.082583
O6	O	1.563755	0.494831	0.417417
O7	O	1.048703	0.197043	-0.082624
O8	O	1.548703	0.697043	0.417376
O9	O	1.063737	-0.005175	0.082801
O10	O	1.563737	0.494825	0.582801
O11	O	0.925982	0.101350	0.082766
O12	O	1.425982	0.601350	0.582766
O13	O	1.186441	0.090511	0.082794
O14	O	1.686441	0.590511	0.582794
Cu15	Cu	1.056210	0.095930	0.097881
Cu16	Cu	1.556210	0.595930	0.597881
Cu17	Cu	1.056230	0.095938	-0.097704
Cu18	Cu	1.556230	0.595938	0.402296
O19	O	1.048685	0.197036	0.082760
O20	O	1.548685	0.697036	0.582760
C21	C	0.892669	0.100869	0.000071
C22	C	1.392669	0.600869	0.500071
C23	C	0.793379	0.099416	0.000061
C24	C	1.293379	0.599416	0.500061
C25	C	1.063262	-0.031050	0.000112
C26	C	1.563262	0.468950	0.500112
C27	C	1.061808	-0.108158	0.000120
C28	C	1.561808	0.391842	0.500120
C29	C	0.735816	0.161997	0.000049
C30	C	1.235816	0.661997	0.500049
C31	C	0.642524	0.160628	0.000065
C32	C	1.142524	0.660628	0.500065
C33	C	0.606797	0.096677	0.000084
C34	C	1.106797	0.596677	0.500084
C35	C	0.664368	0.034092	0.000098
C36	C	1.164368	0.534092	0.500098
C37	C	0.757658	0.035461	0.000090
C38	C	1.257658	0.535461	0.500090
C39	C	0.469921	0.031241	0.000112
C40	C	0.969921	0.531241	0.500112
C41	C	0.376624	0.029871	0.000118
C42	C	0.876624	0.529871	0.500118
C43	C	0.354786	0.156407	0.000087
C44	C	0.854786	0.656407	0.500087
C45	C	0.448077	0.157777	0.000079
C46	C	0.948077	0.657777	0.500079
C47	C	0.505641	0.095191	0.000091
C48	C	1.005641	0.595191	0.500091
C49	C	1.142636	-0.152591	0.000134
C50	C	1.642636	0.347409	0.500134
C51	C	1.141271	-0.225043	0.000118
C52	C	1.641271	0.274957	0.500118
C53	C	1.059071	-0.253058	0.000109
C54	C	1.559071	0.246942	0.500109
C55	C	0.978232	-0.208615	0.000089
C56	C	1.478232	0.291385	0.500089
C57	C	0.979600	-0.136166	0.000095
C58	C	1.479600	0.363834	0.500095
C59	C	0.994447	-0.361558	0.058032
C60	C	1.494447	0.138442	0.558032
C61	C	0.993083	-0.434007	0.058032
C62	C	1.493083	0.065993	0.558032
C63	C	1.054848	-0.476517	0.000086
C64	C	1.554848	0.023483	0.500086
C65	C	1.117994	-0.446571	-0.057848
C66	C	1.617994	0.053429	0.442152
C67	C	1.119362	-0.374121	-0.057842
C68	C	1.619362	0.125879	0.442158
C69	C	1.057579	-0.331617	0.000101
C70	C	1.557579	0.168383	0.500101
C71	C	1.134201	-0.599511	0.000081
C72	C	1.634201	-0.099511	0.500081
C73	C	1.132832	-0.671963	0.000059
C74	C	1.632832	-0.171963	0.500059
C75	C	0.969791	-0.655535	0.000040
C76	C	1.469791	-0.155535	0.500040
C77	C	0.971163	-0.583084	0.000052
C78	C	1.471163	-0.083084	0.500052
C79	C	1.053370	-0.555077	0.000077
C80	C	1.553370	-0.055077	0.500077
C81	C	1.219771	0.090999	0.000104
C82	C	1.719771	0.590999	0.500104
C83	C	1.319061	0.092452	0.000107
C84	C	1.819061	0.592452	0.500107
C85	C	1.049178	0.222918	0.000063
C86	C	1.549178	0.722918	0.500063
C87	C	1.050632	0.300026	0.000048
C88	C	1.550632	0.800026	0.500048
N89	N	1.056202	0.095924	0.235445
N90	N	1.556202	0.595924	0.735445
N91	N	1.056245	0.095938	-0.235269
N92	N	1.556245	0.595938	0.264731
C93	C	1.117219	0.048774	0.287501
C94	C	1.617219	0.548774	0.787501
C95	C	1.117224	0.048773	0.391604
C96	C	1.617224	0.548773	0.891604
C97	C	1.056217	0.095927	0.443650
C98	C	1.556217	0.595927	0.943650
C99	C	0.995193	0.143079	0.391587
C100	C	1.495193	0.643079	0.891587
C101	C	0.995184	0.143076	0.287486
C102	C	1.495184	0.643076	0.787486
C103	C	0.995218	0.143084	0.608567
C104	C	1.495218	0.643084	1.108567
C105	C	0.995228	0.143088	0.712675
C106	C	1.495228	0.643088	1.212675
C107	C	1.117258	0.048781	0.712686
C108	C	1.617258	0.548781	1.212686
C109	C	1.117249	0.048778	0.608584
C110	C	1.617249	0.548778	1.108584
C111	C	1.056227	0.095932	0.556529
C112	C	1.556227	0.595932	1.056529
H113	H	0.764896	0.214073	0.000033
H114	H	1.264896	0.714073	0.500033
H115	H	0.945549	0.181485	0.755046
H116	H	1.445549	0.681485	1.255046
H117	H	0.941662	-0.458383	0.105199
H118	H	1.441662	0.041617	0.605199
H119	H	0.945524	0.181479	0.566187
H120	H	1.445524	0.681479	1.066187
H121	H	0.945515	0.181470	0.433968
H122	H	1.445515	0.681470	0.933968
H123	H	0.945497	0.181469	0.245103
H124	H	1.445497	0.681469	0.745103
H125	H	0.516788	-0.019723	0.000124
H126	H	1.016788	0.480277	0.500124
N127	N	1.183093	-0.002069	0.768818
N128	N	1.683093	0.497931	1.268818
H129	H	1.173016	-0.051386	0.750720
H130	H	1.673016	0.448614	1.250720
H131	H	1.246497	0.006094	0.750649
H132	H	1.746497	0.506094	1.250649
H133	H	0.595658	0.211588	0.000054
H134	H	1.095658	0.711588	0.500054
H135	H	0.477162	0.209852	0.000054
H136	H	0.977162	0.709852	0.500054
H137	H	0.307912	0.207367	0.000081
H138	H	0.807912	0.707367	0.500081
N139	N	0.889571	-0.238823	0.000090
N140	N	1.389571	0.261177	0.500090
H141	H	0.854177	-0.222616	-0.061222
H142	H	1.354177	0.277384	0.438778
H143	H	0.901040	-0.291458	0.000131
H144	H	1.401040	0.208542	0.500131
N145	N	0.338075	-0.039098	0.000147
N146	N	0.838075	0.460902	0.500147
H147	H	0.359079	-0.066526	-0.061150
H148	H	0.859079	0.433474	0.438850
H149	H	0.359088	-0.066462	0.061507
H150	H	0.859088	0.433538	0.561507
N151	N	0.625830	-0.034881	0.000130
N152	N	1.125830	0.465119	0.500130
H153	H	0.587608	-0.038270	-0.061173
H154	H	1.087608	0.461730	0.438827
H155	H	0.676500	-0.074281	0.000179
H156	H	1.176500	0.425719	0.500179
H157	H	0.902863	-0.678344	0.000027
H158	H	1.402863	-0.178344	0.500027
H159	H	1.209576	-0.129793	0.000151
H160	H	1.709576	0.370207	0.500151
H161	H	0.944148	-0.326952	0.105224
H162	H	1.444148	0.173048	0.605224
N163	N	0.819749	-0.032036	0.000110
N164	N	1.319749	0.467964	0.500110
H165	H	0.782963	-0.072757	0.000123
H166	H	1.282963	0.427243	0.500123
H167	H	0.858933	-0.034224	-0.061200
H168	H	1.358933	0.465776	0.438800
H169	H	0.913778	-0.099988	0.000084
H170	H	1.413778	0.400012	0.500084
N171	N	1.228453	-0.272979	0.000131
N172	N	1.728453	0.227021	0.500131
H173	H	1.280737	-0.244242	0.000146
H174	H	1.780737	0.255758	0.500146
H175	H	1.231421	-0.303405	0.061440
H176	H	1.731421	0.196595	0.561440
H177	H	1.170776	-0.349742	-0.105015
H178	H	1.670776	0.150258	0.394985
N179	N	1.184622	-0.492410	-0.120350
N180	N	1.684622	0.007590	0.379650
H181	H	1.174174	-0.542851	-0.111569
H182	H	1.674174	-0.042851	0.388431
H183	H	1.176507	-0.478887	-0.192620
H184	H	1.676507	0.021113	0.307380
H185	H	0.905343	-0.546906	0.000046
H186	H	1.405343	-0.046906	0.500046
N187	N	1.183052	-0.002081	0.552454
N188	N	1.683052	0.497919	1.052454
H189	H	1.148995	-0.032878	0.509277
H190	H	1.648995	0.467122	1.009277
H191	H	1.222523	0.024564	0.509304
H192	H	1.722523	0.524564	1.009304
N193	N	1.222862	-0.569296	0.000104
N194	N	1.722862	-0.069296	0.500104
H195	H	1.273861	-0.608441	0.000102
H196	H	1.773861	-0.108441	0.500102
H197	H	1.226986	-0.539580	-0.061200
H198	H	1.726986	-0.039580	0.438800
N199	N	1.220016	-0.719892	0.000069
N200	N	1.720016	-0.219892	0.500069
H201	H	1.272297	-0.691152	0.000090
H202	H	1.772297	-0.191152	0.500090
H203	H	1.222985	-0.750321	0.061376
H204	H	1.722985	-0.250321	0.561376
N205	N	1.183026	-0.002081	0.231370
N206	N	1.683026	0.497919	0.731370
H207	H	1.221679	-0.031951	0.280148
H208	H	1.721679	0.468049	0.780148
H209	H	1.148908	-0.032834	0.188193
H210	H	1.648908	0.467166	0.688193
N211	N	1.183067	-0.002065	0.447737
N212	N	1.683067	0.497935	0.947737
H213	H	1.172997	-0.051383	0.429641
H214	H	1.672997	0.448617	0.929641
H215	H	1.246466	0.006105	0.429560
H216	H	1.746466	0.506105	0.929560
