data_functionalizedCrystal
_audit_creation_method	'MofGen! by Chris Wilmer'
_symmetry_space_group_name_H-M	'P1'
_symmetry_Int_Tables_number	1
_symmetry_cell_setting	triclinic
loop_
_symmetry_equiv_pos_as_xyz
  x,y,z
_cell_length_a	17.699097
_cell_length_b	17.699083
_cell_length_c	15.500346
_cell_angle_alpha	93.175894
_cell_angle_beta	93.191228
_cell_angle_gamma	83.285707
loop_
_atom_site_label
_atom_site_type_symbol
_atom_site_fract_x
_atom_site_fract_y
_atom_site_fract_z
O1	O	-1.007207	-0.098881	-0.072031
O2	O	-0.673873	0.234453	0.261303
O3	O	-0.340540	0.567786	0.594636
O4	O	-0.786829	-0.111322	-0.072014
O5	O	-0.453496	0.222011	0.261319
O6	O	-0.120162	0.555345	0.594653
O7	O	-0.903244	0.005088	-0.072015
O8	O	-0.569910	0.338421	0.261318
O9	O	-0.236577	0.671755	0.594651
O10	O	-0.890792	-0.215290	-0.072030
O11	O	-0.557459	0.118043	0.261304
O12	O	-0.224125	0.451376	0.594637
O13	O	-0.896967	0.011328	0.071872
O14	O	-0.563634	0.344661	0.405205
O15	O	-0.230300	0.677994	0.738539
O16	O	-0.780552	-0.105082	0.071873
O17	O	-0.447219	0.228251	0.405207
O18	O	-0.113886	0.561585	0.738540
O19	O	-1.000930	-0.092641	0.071856
O20	O	-0.667597	0.240693	0.405190
O21	O	-0.334263	0.574026	0.738523
Cu22	Cu	-0.890168	-0.098292	0.085003
Cu23	Cu	-0.556835	0.235042	0.418336
Cu24	Cu	-0.223501	0.568375	0.751670
Cu25	Cu	-0.897591	-0.105671	-0.085160
Cu26	Cu	-0.564257	0.227662	0.248173
Cu27	Cu	-0.230924	0.560996	0.581506
O28	O	-0.884515	-0.209051	0.071858
O29	O	-0.551182	0.124283	0.405191
O30	O	-0.217849	0.457616	0.738524
C31	C	-0.755494	-0.107754	-0.000068
C32	C	-0.422160	0.225579	0.333265
C33	C	-0.088827	0.558912	0.666599
C34	C	-0.671476	-0.106412	-0.000061
C35	C	-0.338142	0.226922	0.333272
C36	C	-0.004809	0.560255	0.666605
N37	N	-0.884953	-0.093101	0.204686
N38	N	-0.551619	0.240232	0.538020
N39	N	-0.218286	0.573566	0.871353
C40	C	-0.159180	-0.101585	-0.078522
C41	C	0.174153	0.231749	0.254812
C42	C	0.507487	0.565082	0.588145
C43	C	-0.238124	-0.102841	-0.078519
C44	C	0.095209	0.230492	0.254815
C45	C	0.428543	0.563826	0.588148
C46	C	-0.274168	-0.100069	-0.000083
C47	C	0.059165	0.233264	0.333251
C48	C	0.392498	0.566598	0.666584
C49	C	-0.231266	-0.096033	0.078355
C50	C	0.102068	0.237301	0.411688
C51	C	0.435401	0.570634	0.745022
C52	C	-0.152324	-0.094771	0.078351
C53	C	0.181009	0.238562	0.411684
C54	C	0.514343	0.571896	0.745018
C55	C	-0.549629	-0.101119	0.078373
C56	C	-0.216296	0.232214	0.411707
C57	C	0.117038	0.565547	0.745040
C58	C	-0.628576	-0.102383	0.078371
C59	C	-0.295243	0.230950	0.411705
C60	C	0.038090	0.564283	0.745038
C61	C	-0.635429	-0.109189	-0.078496
C62	C	-0.302096	0.224144	0.254837
C63	C	0.031238	0.557478	0.588170
C64	C	-0.556487	-0.107927	-0.078501
C65	C	-0.223154	0.225406	0.254833
C66	C	0.110179	0.558739	0.588166
C67	C	-0.513592	-0.103887	-0.000063
C68	C	-0.180259	0.229446	0.333270
C69	C	0.153075	0.562779	0.666603
C70	C	-0.427992	-0.102524	-0.000068
C71	C	-0.094659	0.230809	0.333266
C72	C	0.238674	0.564143	0.666599
C73	C	-0.359766	-0.101438	-0.000077
C74	C	-0.026433	0.231896	0.333256
C75	C	0.306901	0.565229	0.666589
C76	C	-0.899659	0.036405	-0.000071
C77	C	-0.566326	0.369738	0.333262
C78	C	-0.232992	0.703072	0.666595
C79	C	-0.898320	0.120423	-0.000071
C80	C	-0.564987	0.453756	0.333262
C81	C	-0.231654	0.787090	0.666596
C82	C	-0.032265	-0.096208	-0.000088
C83	C	0.301068	0.237125	0.333245
C84	C	0.634402	0.570458	0.666579
C85	C	-0.116283	-0.097551	-0.000090
C86	C	0.217051	0.235782	0.333243
C87	C	0.550384	0.569115	0.666577
C88	C	-0.888100	-0.240368	-0.000088
C89	C	-0.554766	0.092966	0.333245
C90	C	-0.221433	0.426299	0.666579
C91	C	-0.889439	-0.324386	-0.000094
C92	C	-0.556105	0.008947	0.333239
C93	C	-0.222772	0.342281	0.666573
C94	C	-0.966654	0.169041	-0.000075
C95	C	-0.633320	0.502374	0.333258
C96	C	-0.299987	0.835707	0.666592
C97	C	-0.965392	0.247984	-0.000083
C98	C	-0.632058	0.581317	0.333251
C99	C	-0.298725	0.914650	0.666584
C100	C	-0.895796	0.278308	-0.000080
C101	C	-0.562462	0.611641	0.333253
C102	C	-0.229129	0.944975	0.666587
C103	C	-0.827457	0.229684	-0.000079
C104	C	-0.494124	0.563017	0.333255
C105	C	-0.160791	0.896351	0.666588
C106	C	-0.828720	0.150742	-0.000077
C107	C	-0.495387	0.484076	0.333256
C108	C	-0.162054	0.817409	0.666589
C109	C	-0.822362	0.548047	-0.000085
C110	C	-0.489029	0.881380	0.333248
C111	C	-0.155696	1.214714	0.666581
C112	C	-0.821104	0.626995	-0.000084
C113	C	-0.487771	0.960328	0.333249
C114	C	-0.154438	1.293662	0.666583
C115	C	-0.959034	0.645288	-0.000091
C116	C	-0.625700	0.978622	0.333243
C117	C	-0.292367	1.311955	0.666576
C118	C	-0.960297	0.566347	-0.000089
C119	C	-0.626963	0.899680	0.333244
C120	C	-0.293630	1.233013	0.666577
C121	C	-0.891959	0.517730	-0.000092
C122	C	-0.558626	0.851063	0.333241
C123	C	-0.225292	1.184396	0.666574
C124	C	-0.893328	0.432131	-0.000086
C125	C	-0.559995	0.765464	0.333248
C126	C	-0.226662	1.098797	0.666581
C127	C	-0.894425	0.363906	-0.000080
C128	C	-0.561092	0.697239	0.333253
C129	C	-0.227759	1.030572	0.666586
N130	N	-0.902812	-0.110856	-0.204844
N131	N	-0.569479	0.222478	0.128489
N132	N	-0.236145	0.555811	0.461823
C133	C	-0.858968	-0.066984	0.749869
C134	C	-0.525635	0.266350	1.083202
C135	C	-0.192302	0.599683	1.416535
C136	C	-0.862908	-0.070939	0.659297
C137	C	-0.529574	0.262395	0.992630
C138	C	-0.196241	0.595728	1.325963
C139	C	-0.910687	-0.118770	0.614014
C140	C	-0.577354	0.214563	0.947347
C141	C	-0.244020	0.547897	1.280681
C142	C	-0.954536	-0.162643	0.659308
C143	C	-0.621202	0.170690	0.992641
C144	C	-0.287869	0.504023	1.325974
C145	C	-0.950600	-0.158684	0.749878
C146	C	-0.617267	0.174649	1.083211
C147	C	-0.283933	0.507983	1.416545
C148	C	-0.924866	-0.133015	0.340550
C149	C	-0.591532	0.200318	0.673884
C150	C	-0.258199	0.533652	1.007217
C151	C	-0.928796	-0.136973	0.249974
C152	C	-0.595463	0.196360	0.583307
C153	C	-0.262130	0.529694	0.916641
C154	C	-0.837169	-0.045267	0.249969
C155	C	-0.503836	0.288067	0.583302
C156	C	-0.170502	0.621400	0.916636
C157	C	-0.833234	-0.041315	0.340541
C158	C	-0.499901	0.292018	0.673874
C159	C	-0.166568	0.625352	1.007208
C160	C	-0.877086	-0.085185	0.385827
C161	C	-0.543752	0.248148	0.719160
C162	C	-0.210419	0.581481	1.052494
C163	C	-0.914713	-0.122815	0.521435
C164	C	-0.581380	0.210518	0.854768
C165	C	-0.248046	0.543851	1.188102
C166	C	-0.873064	-0.081135	0.478404
C167	C	-0.539730	0.252198	0.811738
C168	C	-0.206397	0.585531	1.145071
H169	H	-0.129838	-0.103848	-0.142394
H170	H	0.203495	0.229486	0.190940
H171	H	0.536829	0.562819	0.524273
H172	H	-0.117397	-0.091494	0.142218
H173	H	0.215937	0.241839	0.475552
H174	H	0.549270	0.575172	0.808885
Br175	Br	-0.726646	0.668149	-0.000079
Br176	Br	-0.393313	1.001482	0.333254
Br177	Br	-0.059979	1.334815	0.666587
H178	H	-0.773076	0.111158	-0.000074
H179	H	-0.439743	0.444491	0.333259
H180	H	-0.106410	0.777824	0.666593
H181	H	-0.794328	-0.002364	0.377404
H182	H	-0.460995	0.330969	0.710738
H183	H	-0.127662	0.664302	1.044071
H184	H	-0.986303	-0.194409	0.786750
H185	H	-0.652969	0.138924	1.120083
H186	H	-0.319636	0.472258	1.453416
Br187	Br	-0.984375	-0.192559	0.401999
Br188	Br	-0.651041	0.140775	0.735332
Br189	Br	-0.317708	0.474108	1.068665
H190	H	-0.967703	-0.175928	0.213107
H191	H	-0.634369	0.157405	0.546441
H192	H	-0.301036	0.490738	0.879774
Br193	Br	-1.058134	0.313963	-0.000088
Br194	Br	-0.724800	0.647296	0.333245
Br195	Br	-0.391467	0.980629	0.666578
Br196	Br	-1.061110	0.127895	-0.000066
Br197	Br	-0.727777	0.461228	0.333267
Br198	Br	-0.394444	0.794562	0.666601
Br199	Br	-0.507573	-0.111696	-0.184953
Br200	Br	-0.174240	0.221638	0.148381
Br201	Br	0.159094	0.554971	0.481714
H202	H	-0.766717	0.508472	-0.000087
H203	H	-0.433384	0.841805	0.333246
H204	H	-0.100051	1.175138	0.666579
Br205	Br	-1.054752	0.525196	-0.000093
Br206	Br	-0.721418	0.858530	0.333240
Br207	Br	-0.388085	1.191863	0.666573
Br208	Br	-1.019386	-0.227552	0.597854
Br209	Br	-0.686052	0.105781	0.931187
Br210	Br	-0.352719	0.439114	1.264520
H211	H	-1.014678	0.684882	-0.000092
H212	H	-0.681344	1.018216	0.333241
H213	H	-0.348011	1.351549	0.666574
Br214	Br	-0.794116	-0.002072	0.811315
Br215	Br	-0.460783	0.331261	1.144648
Br216	Br	-0.127449	0.664594	1.477982
H217	H	-0.827208	-0.035211	0.622428
H218	H	-0.493874	0.298122	0.955761
H219	H	-0.160541	0.631455	1.289094
H220	H	-0.273048	-0.106121	-0.142386
H221	H	0.060285	0.227213	0.190948
H222	H	0.393618	0.560546	0.524281
Br223	Br	-0.808226	-0.016220	0.539860
Br224	Br	-0.474893	0.317114	0.873194
Br225	Br	-0.141559	0.650447	1.206527
H226	H	-0.801468	-0.009549	0.213088
H227	H	-0.468135	0.323784	0.546421
H228	H	-0.134802	0.657117	0.879754
Br229	Br	-0.733005	0.270836	-0.000089
Br230	Br	-0.399671	0.604170	0.333244
Br231	Br	-0.066338	0.937503	0.666577
H232	H	-0.670365	-0.112476	-0.142364
H233	H	-0.337031	0.220858	0.190969
H234	H	-0.003698	0.554191	0.524303
H235	H	-0.657921	-0.100126	0.142247
H236	H	-0.324588	0.233208	0.475580
H237	H	0.008746	0.566541	0.808914
H238	H	-0.514714	-0.097818	0.142242
H239	H	-0.181381	0.235515	0.475575
H240	H	0.151952	0.568848	0.808908
H241	H	-0.953614	-0.161761	0.484556
H242	H	-0.620281	0.171573	0.817889
H243	H	-0.286948	0.504906	1.151222
H244	H	-0.260620	-0.093771	0.142219
H245	H	0.072713	0.239563	0.475552
H246	H	0.406047	0.572896	0.808886
