data_functionalizedCrystal
_audit_creation_method	'MofGen! by Chris Wilmer'
_symmetry_space_group_name_H-M	'P1'
_symmetry_Int_Tables_number	1
_symmetry_cell_setting	triclinic
loop_
_symmetry_equiv_pos_as_xyz
  x,y,z
_cell_length_a	13.635800
_cell_length_b	9.514072
_cell_length_c	19.551833
_cell_angle_alpha	87.724634
_cell_angle_beta	101.663477
_cell_angle_gamma	61.156579
loop_
_atom_site_label
_atom_site_type_symbol
_atom_site_fract_x
_atom_site_fract_y
_atom_site_fract_z
V1	V	2.045821	-0.223892	0.218410
O2	O	1.995402	0.009026	0.213689
O3	O	2.063250	-0.442274	0.217458
O4	O	2.016657	-0.221209	0.313418
O5	O	2.042318	-0.213570	0.117064
V6	V	2.282884	-0.195943	0.206222
O7	O	2.186757	-0.285202	0.245144
O8	O	2.367047	-0.134633	0.179487
O9	O	2.153852	0.022439	0.207174
O10	O	2.392001	-0.428861	0.210943
O11	O	2.345086	-0.206265	0.307568
O12	O	2.200445	-0.198626	0.111213
V13	V	2.545821	-0.223892	0.218410
O14	O	2.495402	0.009026	0.213689
O15	O	2.563250	-0.442274	0.217458
O16	O	2.516657	-0.221209	0.313418
O17	O	2.542318	-0.213570	0.117064
V18	V	2.782884	-0.195943	0.206222
O19	O	2.686757	-0.285202	0.245144
O20	O	2.867047	-0.134633	0.179487
O21	O	2.653852	0.022439	0.207174
O22	O	2.892001	-0.428861	0.210943
O23	O	2.845086	-0.206265	0.307568
O24	O	2.700445	-0.198626	0.111213
C25	C	1.996038	-0.495488	0.214152
C26	C	2.050899	-0.674023	0.214007
C27	C	1.936603	-0.213494	0.336558
C28	C	1.953675	-0.212745	0.414232
C29	C	2.052737	0.075644	0.210478
C30	C	1.987495	0.254178	0.210627
C31	C	2.112171	-0.206346	0.088069
C32	C	2.084717	-0.207087	0.010395
C33	C	2.496038	-0.495488	0.214152
C34	C	2.550899	-0.674023	0.214007
C35	C	2.436603	-0.213494	0.336558
C36	C	2.453675	-0.212745	0.414232
C37	C	2.054119	-0.220455	0.454299
C38	C	2.070160	-0.219751	0.527281
C39	C	1.985762	-0.211369	0.560197
C40	C	1.885301	-0.203650	0.520121
C41	C	1.869258	-0.204337	0.447138
C42	C	1.971007	-0.298695	0.679724
C43	C	1.987058	-0.298018	0.752706
C44	C	2.035240	-0.209241	0.785298
C45	C	2.067394	-0.121163	0.744902
C46	C	2.051350	-0.121851	0.671920
C47	C	2.003148	-0.210622	0.639334
C48	C	2.153084	-0.216185	0.904501
C49	C	2.169118	-0.215471	0.977485
C50	C	1.984261	-0.199386	0.970324
C51	C	1.968224	-0.200084	0.897341
C52	C	2.052642	-0.208492	0.864435
C53	C	2.552737	0.075644	0.210478
C54	C	2.487495	0.254178	0.210627
C55	C	2.612171	-0.206346	0.088069
C56	C	2.584717	-0.207087	0.010395
C57	C	2.554120	-0.220428	0.454290
C58	C	2.570168	-0.219703	0.527272
C59	C	2.485774	-0.211306	0.560195
C60	C	2.385319	-0.203618	0.520131
C61	C	2.369269	-0.204331	0.447150
C62	C	2.486877	-0.215466	-0.022510
C63	C	2.461059	-0.216143	-0.095495
C64	C	2.533088	-0.208453	-0.135571
C65	C	2.630935	-0.200069	-0.102661
C66	C	2.656746	-0.199380	-0.029679
H67	H	1.891231	-0.670696	0.207810
F68	F	2.085570	-0.028116	0.628930
F69	F	2.760892	-0.190483	0.005334
F70	F	2.361668	-0.647629	0.206944
F71	F	2.410201	-0.223651	0.020130
H72	H	2.147167	-0.749154	0.216814
F73	F	1.795478	-0.194725	0.555152
F74	F	2.143963	-0.229395	0.419281
F75	F	2.676730	-0.772219	0.217680
H76	H	2.106631	-0.048877	0.771438
F77	F	2.177069	-0.227948	0.569931
H78	H	2.221820	-0.223026	0.877707
F79	F	2.276028	-0.223673	1.020126
H80	H	1.915538	-0.192548	0.997122
H81	H	1.886438	-0.193823	0.864719
H82	H	2.622852	-0.227270	0.427494
F83	F	1.952846	-0.391768	0.795693
F84	F	1.919709	-0.393171	0.645042
H85	H	1.787459	-0.198047	0.414515
F86	F	2.356923	-0.225077	-0.130506
H87	H	2.651972	-0.225970	0.559882
H88	H	2.498858	-0.210727	0.619622
H89	H	2.316611	-0.196782	0.546949
F90	F	2.262363	-0.196171	0.404526
H91	H	2.512065	-0.209035	-0.194996
H92	H	2.689572	-0.193804	-0.135303
