data_functionalizedCrystal
_audit_creation_method	'MofGen! by Chris Wilmer'
_symmetry_space_group_name_H-M	'P1'
_symmetry_Int_Tables_number	1
_symmetry_cell_setting	triclinic
loop_
_symmetry_equiv_pos_as_xyz
  x,y,z
_cell_length_a	17.019311
_cell_length_b	15.500227
_cell_length_c	10.654551
_cell_angle_alpha	87.142580
_cell_angle_beta	83.940128
_cell_angle_gamma	96.714751
loop_
_atom_site_label
_atom_site_type_symbol
_atom_site_fract_x
_atom_site_fract_y
_atom_site_fract_z
O1	O	1.055166	0.150550	0.147826
O2	O	0.824745	0.133385	0.169610
O3	O	0.945253	0.142360	-0.024135
O4	O	0.934658	0.141575	0.341571
O5	O	0.937940	-0.002073	-0.012424
O6	O	0.817432	-0.011048	0.181321
O7	O	1.047853	0.006117	0.159537
Cu8	Cu	0.931975	-0.015654	0.171498
Cu9	Cu	0.940623	0.155155	0.157649
O10	O	0.927345	-0.002859	0.353283
C11	C	0.791584	0.058971	0.174869
C12	C	0.703670	0.052422	0.173076
C13	C	0.206243	0.011434	0.163297
C14	C	0.288847	0.017589	0.164982
C15	C	0.334137	0.099399	0.159430
C16	C	0.296817	0.175058	0.152207
C17	C	0.214213	0.168902	0.150532
C18	C	0.583746	0.121925	0.164177
C19	C	0.666356	0.128075	0.165849
C20	C	0.658380	-0.029394	0.178626
C21	C	0.575776	-0.035543	0.176942
C22	C	0.538463	0.040116	0.169726
C23	C	0.418573	0.105692	0.161148
C24	C	0.454028	0.033822	0.168018
N25	N	0.925898	-0.135791	0.181239
C26	C	0.976979	-0.177263	0.099172
C27	C	0.972391	-0.268178	0.106550
C28	C	0.916724	-0.317619	0.196002
C29	C	0.865637	-0.276140	0.278072
C30	C	0.870222	-0.185228	0.270687
C31	C	0.900205	-0.592316	0.222584
C32	C	0.895625	-0.683234	0.229965
C33	C	1.002378	-0.675266	0.058441
C34	C	1.006962	-0.584351	0.051069
C35	C	0.955872	-0.542881	0.133135
C36	C	0.912034	-0.410548	0.203548
C37	C	0.960559	-0.449954	0.125582
C38	C	1.081014	0.080533	0.154278
C39	C	1.168929	0.087088	0.156071
C40	C	0.940818	0.070087	-0.065061
C41	C	0.938491	0.069918	-0.204454
N42	N	0.946707	0.275293	0.147898
C43	C	0.941384	0.148568	-0.276318
C44	C	0.939190	0.148405	-0.407291
C45	C	0.931212	-0.009065	-0.394525
C46	C	0.933400	-0.008901	-0.263553
C47	C	0.894683	0.239323	-0.583968
C48	C	0.897590	0.317978	-0.655840
C49	C	0.948138	0.390994	-0.628952
C50	C	0.995798	0.385360	-0.530198
C51	C	0.992897	0.306704	-0.458335
C52	C	0.942331	0.233689	-0.485217
C53	C	0.977915	-0.099813	-0.086876
C54	C	0.975020	-0.178470	-0.015011
C55	C	0.924476	-0.251493	-0.041897
C56	C	0.876828	-0.245866	-0.140657
C57	C	0.879723	-0.167209	-0.212521
C58	C	0.930265	-0.094186	-0.185626
C59	C	0.931780	0.069417	0.394208
C60	C	0.934108	0.069592	0.533601
H61	H	0.333698	0.241669	0.147695
H62	H	1.022312	-0.137014	0.026336
H63	H	1.052290	-0.544098	-0.021769
Cl64	Cl	0.475516	0.208536	0.154153
H65	H	1.043972	-0.709039	-0.008375
H66	H	0.828626	-0.151462	0.337513
Cl67	Cl	1.036607	-0.320316	0.003378
H68	H	0.922130	-0.315540	0.016619
Cl69	Cl	0.825638	-0.745383	0.342432
H70	H	0.183833	0.230508	0.144651
Cl71	Cl	0.837674	0.325061	-0.779979
Cl72	Cl	0.335753	-0.077523	0.174074
H73	H	1.019067	-0.040351	-0.064965
H74	H	0.858607	-0.558558	0.289408
Cl75	Cl	0.795651	-0.338293	0.390521
H76	H	0.417149	-0.032787	0.172544
Cl77	Cl	1.059357	0.477154	-0.496417
Cl78	Cl	0.951802	0.489869	-0.719321
Cl79	Cl	1.030535	-0.387800	0.013128
Cl80	Cl	1.052806	0.299615	-0.334195
Cl81	Cl	0.149316	-0.091418	0.170265
Cl82	Cl	0.842055	-0.472705	0.316003
Cl83	Cl	0.947779	0.247654	-0.202026
H84	H	0.538908	-0.102161	0.181435
Cl85	Cl	1.034931	-0.185547	0.109134
Cl86	Cl	0.705293	-0.124502	0.187708
Cl87	Cl	0.831118	0.147536	-0.617761
Cl88	Cl	0.924813	-0.108146	-0.468830
Cl89	Cl	0.819823	-0.160136	-0.336682
H90	H	0.835654	-0.305320	-0.162524
H91	H	0.553376	0.183532	0.158297
Cl92	Cl	0.723291	0.230930	0.158871
