data_functionalizedCrystal
_audit_creation_method	'MofGen! by Chris Wilmer'
_symmetry_space_group_name_H-M	'P1'
_symmetry_Int_Tables_number	1
_symmetry_cell_setting	triclinic
loop_
_symmetry_equiv_pos_as_xyz
  x,y,z
_cell_length_a	10.540539
_cell_length_b	10.540539
_cell_length_c	9.016244
_cell_angle_alpha	90.005301
_cell_angle_beta	89.999933
_cell_angle_gamma	95.474508
loop_
_atom_site_label
_atom_site_type_symbol
_atom_site_fract_x
_atom_site_fract_y
_atom_site_fract_z
O1	O	0.178895	-1.685893	-0.123263
O2	O	0.195751	-1.316480	-0.123280
O3	O	0.002617	-1.509614	-0.123269
O4	O	0.372030	-1.492759	-0.123274
O5	O	0.002621	-1.509586	0.123411
O6	O	0.195755	-1.316452	0.123400
O7	O	0.178900	-1.685865	0.123418
Cu8	Cu	0.187328	-1.501156	0.145933
Cu9	Cu	0.187323	-1.501189	-0.145795
O10	O	0.372034	-1.492730	0.123407
C11	C	0.194489	-1.269163	0.000058
C12	C	0.190707	-1.128215	0.000051
C13	C	-0.044684	-1.508336	0.000068
C14	C	-0.185632	-1.504554	0.000060
C15	C	0.180161	-1.733182	0.000077
C16	C	0.183943	-1.874130	0.000074
C17	C	-0.369059	-1.359637	-0.000500
C18	C	-0.222441	-1.363471	0.000055
C19	C	-0.247287	-1.572434	0.140930
C20	C	-0.393832	-1.567619	0.141049
C21	C	-0.394355	-1.570520	-0.139473
C22	C	-0.247373	-1.571820	-0.141336
C23	C	0.419335	-1.494008	0.000066
C24	C	0.560283	-1.497790	0.000064
N25	N	0.187331	-1.501141	0.351119
C26	C	0.045790	-0.944788	0.000628
C27	C	0.049624	-1.091406	0.000057
C28	C	0.258600	-1.066558	-0.140811
C29	C	0.253785	-0.920014	-0.140914
C30	C	0.256660	-0.919493	0.139608
C31	C	0.257960	-1.066475	0.141455
N32	N	0.187310	-1.501213	-0.350982
C33	C	0.290298	-1.397510	0.586146
C34	C	0.290684	-1.397739	0.414255
C35	C	0.217464	-1.633864	0.413464
C36	C	0.218193	-1.633298	0.585409
C37	C	0.053892	-1.473367	0.585663
C38	C	0.054757	-1.470322	0.413709
H39	H	-0.179839	-1.310059	-0.100926
H40	H	0.315531	-1.657653	0.625498
F41	F	0.123860	-1.737181	0.639771
H42	H	-0.422030	-1.517429	0.246347
F43	F	0.420075	-1.421094	0.360466
F44	F	-0.027058	-0.907404	0.132671
H45	H	-0.441800	-1.669083	0.147444
F46	F	0.016425	-1.349517	0.642403
F47	F	-0.020203	-1.147094	0.132039
H48	H	-0.224933	-1.676041	0.146173
F49	F	0.418951	-1.420612	0.642577
F50	F	0.266950	-1.268199	0.640215
H51	H	0.358564	-0.872266	0.140559
H52	H	-0.180683	-1.309661	0.101200
H53	H	-0.204686	-1.525258	0.245756
H54	H	-0.009712	-0.914592	-0.099828
H55	H	0.203602	-0.891816	-0.246209
F56	F	0.386404	-0.857312	-0.149273
F57	F	0.267050	-1.268823	0.359159
H58	H	-0.425910	-1.524871	-0.246244
H59	H	0.031916	-1.372684	0.372962
F60	F	0.122095	-1.737198	0.360012
H61	H	-0.025564	-1.540849	0.370737
H62	H	-0.397661	-1.303918	-0.101521
H63	H	0.211434	-1.109159	-0.245643
F64	F	0.343253	-1.666412	0.357160
F65	F	0.394013	-1.095804	-0.147692
H66	H	-0.206517	-1.522153	-0.245547
H67	H	-0.223152	-1.674681	-0.149837
H68	H	-0.441581	-1.672424	-0.140416
F69	F	-0.046302	-1.572195	0.638803
H70	H	-0.004177	-1.133163	-0.101092
F71	F	-0.408968	-1.286883	0.130434
H72	H	0.211004	-0.887935	0.246381
F73	F	0.193028	-1.119873	0.277663
H74	H	0.360819	-1.090700	0.149959
