data_functionalizedCrystal
_audit_creation_method	'MofGen! by Chris Wilmer'
_symmetry_space_group_name_H-M	'P1'
_symmetry_Int_Tables_number	1
_symmetry_cell_setting	triclinic
loop_
_symmetry_equiv_pos_as_xyz
  x,y,z
_cell_length_a	12.970454
_cell_length_b	14.395555
_cell_length_c	12.970454
_cell_angle_alpha	90.001507
_cell_angle_beta	59.999776
_cell_angle_gamma	59.999613
loop_
_atom_site_label
_atom_site_type_symbol
_atom_site_fract_x
_atom_site_fract_y
_atom_site_fract_z
Zr1	Zr	1.128475	0.894915	-0.135252
O2	O	1.343573	0.746586	-0.299886
O3	O	0.913383	0.940386	-0.084782
O4	O	1.128472	0.940388	-0.299873
O5	O	1.128484	0.746583	0.084872
O6	O	1.128465	1.093262	-0.299864
O7	O	1.128483	0.746585	-0.084795
O8	O	0.743708	1.093259	0.084894
O9	O	1.513240	0.746586	-0.299887
O10	O	1.001846	1.073867	-0.063252
O11	O	1.001852	0.959778	0.063362
O12	O	1.255093	0.959780	-0.189880
O13	O	1.255099	0.845691	-0.063267
Zr14	Zr	1.128465	1.138730	0.135361
Zr15	Zr	1.128463	1.138732	-0.135238
Zr16	Zr	1.128477	0.894914	0.135346
Zr17	Zr	1.399075	0.894915	-0.135254
Zr18	Zr	0.857865	1.138730	0.135362
O19	O	1.343557	1.093259	0.084891
O20	O	1.343555	1.093262	-0.299865
O21	O	1.343575	0.746583	0.084870
O22	O	0.913367	1.287059	0.299994
O23	O	0.913365	1.287062	-0.084762
O24	O	0.913385	0.940384	0.299974
O25	O	1.128456	1.287062	-0.084763
O26	O	1.128468	1.093258	0.299982
O27	O	1.128475	0.940384	0.299973
O28	O	1.128457	1.287061	0.084903
O29	O	1.513230	0.940388	-0.299875
O30	O	0.743710	1.093258	0.299984
O31	O	0.743700	1.287059	0.299995
O32	O	0.743699	1.287061	0.084905
O33	O	1.513241	0.746585	-0.084797
O34	O	1.513232	0.940386	-0.084785
O35	O	1.001847	1.073866	0.189989
O36	O	1.001841	1.187955	0.063375
O37	O	1.255088	1.073867	-0.063253
O38	O	1.255094	0.959778	0.063360
C39	C	0.789991	1.016823	0.000056
C40	C	0.675114	1.016823	0.000057
C41	C	1.128485	0.711845	0.000036
C42	C	1.128490	0.608339	0.000030
C43	C	1.266572	0.485545	-0.069002
C44	C	1.197544	0.454709	-0.119030
C45	C	1.197513	0.454751	0.050049
C46	C	1.059462	0.578867	-0.050067
C47	C	1.059450	0.578905	0.119077
C48	C	0.990322	0.548143	0.069079
C49	C	1.466949	1.016823	0.000053
C50	C	1.581826	1.016823	0.000052
C51	C	1.128468	1.016825	-0.338423
C52	C	1.128468	1.016826	-0.453299
C53	C	1.128455	1.321800	0.000072
C54	C	1.128450	1.425307	0.000078
C55	C	1.128472	1.016821	0.338532
C56	C	1.128472	1.016820	0.453408
C57	C	0.789975	1.321800	0.000074
C58	C	0.675094	1.425306	0.000081
C59	C	0.789993	1.016820	0.338533
C60	C	0.675116	1.016820	0.453410
C61	C	0.789977	1.321798	0.338552
C62	C	0.675096	1.425304	0.453434
C63	C	1.466963	0.711848	-0.338443
C64	C	1.581844	0.608342	-0.453326
C65	C	1.466964	0.711845	0.000035
C66	C	1.581846	0.608339	0.000028
C67	C	1.466947	1.016825	-0.338425
C68	C	1.581824	1.016826	-0.453302
C69	C	0.527659	1.473915	0.093560
C70	C	0.419700	1.571160	0.093571
C71	C	0.459179	1.619800	0.000106
C72	C	0.606629	1.571183	-0.093383
C73	C	0.714584	1.473935	-0.093398
C74	C	0.527661	1.473919	0.507384
C75	C	0.419701	1.571184	0.615317
C76	C	0.459179	1.619828	0.669303
C77	C	0.606628	1.571208	0.615343
C78	C	0.714585	1.473949	0.507407
C79	C	1.729279	0.559735	-0.507285
C80	C	1.837238	0.462491	-0.615242
C81	C	1.797760	0.413851	-0.669232
C82	C	1.650311	0.462467	-0.615267
C83	C	1.542354	0.559714	-0.507317
C84	C	1.542322	0.559729	0.093509
C85	C	1.650251	0.462484	0.093529
C86	C	1.797703	0.413845	0.000060
C87	C	1.837228	0.462463	-0.093426
C88	C	1.729300	0.559712	-0.093439
H89	H	1.383332	0.460101	-0.127470
H90	H	1.885571	0.334658	0.000085
Br91	Br	0.474040	1.407924	0.220419
Br92	Br	0.962264	0.668105	0.286812
Br93	Br	1.294823	0.365568	0.120521
H94	H	0.834632	1.434371	0.463494
H95	H	1.957290	0.422920	-0.659163
Br96	Br	0.962301	0.667778	-0.120770
Br97	Br	0.474045	1.407924	0.434141
Br98	Br	0.312645	1.751824	0.815789
H99	H	0.299650	1.610752	0.659240
H100	H	1.255902	0.401192	-0.219687
Br101	Br	0.660182	1.637235	0.688630
H102	H	1.957297	0.422847	-0.169524
H103	H	1.761451	0.599322	-0.463338
Br104	Br	0.312647	1.751782	0.000144
Br105	Br	0.219604	1.637121	0.220459
Br106	Br	1.944293	0.281871	-0.815736
H107	H	1.618187	0.422849	-0.659241
Br108	Br	0.795609	0.590786	0.166310
Br109	Br	0.660184	1.637208	-0.220222
Br110	Br	1.342216	0.625717	0.220373
Br111	Br	0.914675	1.407973	-0.220283
H112	H	1.422307	0.599277	-0.463387
Br113	Br	1.596578	0.396522	0.220411
H114	H	1.761502	0.599279	-0.169568
