data_functionalizedCrystal
_audit_creation_method	'MofGen! by Chris Wilmer'
_symmetry_space_group_name_H-M	'P1'
_symmetry_Int_Tables_number	1
_symmetry_cell_setting	triclinic
loop_
_symmetry_equiv_pos_as_xyz
  x,y,z
_cell_length_a	19.188933
_cell_length_b	17.666332
_cell_length_c	10.654541
_cell_angle_alpha	89.993802
_cell_angle_beta	96.185251
_cell_angle_gamma	90.007939
loop_
_atom_site_label
_atom_site_type_symbol
_atom_site_fract_x
_atom_site_fract_y
_atom_site_fract_z
O1	O	0.927173	0.062923	-0.156794
O2	O	1.260507	0.396256	0.176540
O3	O	1.593840	0.729589	0.509873
O4	O	0.724000	0.062930	-0.177897
O5	O	1.057334	0.396263	0.155437
O6	O	1.390667	0.729596	0.488770
O7	O	0.830259	0.062922	0.015493
O8	O	1.163592	0.396255	0.348826
O9	O	1.496926	0.729588	0.682160
O10	O	0.820915	0.062931	-0.350184
O11	O	1.154248	0.396264	-0.016850
O12	O	1.487581	0.729598	0.316483
O13	O	0.830240	-0.062975	0.015503
O14	O	1.163573	0.270358	0.348837
O15	O	1.496907	0.603691	0.682170
O16	O	0.723981	-0.062967	-0.177886
O17	O	1.057315	0.270366	0.155447
O18	O	1.390648	0.603700	0.488780
O19	O	0.927155	-0.062974	-0.156784
O20	O	1.260488	0.270359	0.176550
O21	O	1.593821	0.603693	0.509883
Cu22	Cu	0.825566	-0.074466	-0.167334
Cu23	Cu	1.158900	0.258867	0.165999
Cu24	Cu	1.492233	0.592201	0.499333
Cu25	Cu	0.825588	0.074422	-0.167346
Cu26	Cu	1.158922	0.407755	0.165987
Cu27	Cu	1.492255	0.741088	0.499321
O28	O	0.820896	-0.062966	-0.350173
O29	O	1.154229	0.270368	-0.016840
O30	O	1.487562	0.603701	0.316493
C31	C	0.697975	-0.000018	-0.177208
C32	C	1.031309	0.333316	0.156126
C33	C	1.364642	0.666649	0.489459
C34	C	0.620457	-0.000015	-0.175155
C35	C	0.953791	0.333318	0.158178
C36	C	1.287124	0.666652	0.491512
C37	C	0.067117	0.068603	-0.160511
C38	C	0.400450	0.401936	0.172823
C39	C	0.733783	0.735269	0.506156
C40	C	0.139953	0.068606	-0.162432
C41	C	0.473287	0.401939	0.170902
C42	C	0.806620	0.735272	0.504235
C43	C	0.176366	-0.000020	-0.163393
C44	C	0.509700	0.333313	0.169941
C45	C	0.843033	0.666646	0.503274
C46	C	0.139939	-0.068655	-0.162400
C47	C	0.473272	0.264679	0.170933
C48	C	0.806605	0.598012	0.504267
C49	C	0.067104	-0.068656	-0.160466
C50	C	0.400438	0.264678	0.172867
C51	C	0.733771	0.598011	0.506201
N52	N	0.285866	-0.051100	-0.237884
N53	N	0.619199	0.282233	0.095449
N54	N	0.952532	0.615567	0.428783
N55	N	0.355055	-0.051094	-0.239724
N56	N	0.688389	0.282239	0.093610
N57	N	1.021722	0.615572	0.426943
C58	C	0.395813	-0.000022	-0.169216
C59	C	0.729146	0.333312	0.164117
C60	C	1.062480	0.666645	0.497450
N61	N	0.364767	0.051057	-0.096815
N62	N	0.698100	0.384390	0.236518
N63	N	1.031433	0.717724	0.569851
N64	N	0.295570	0.051054	-0.094981
N65	N	0.628903	0.384387	0.238352
N66	N	0.962237	0.717720	0.571685
C67	C	0.255343	-0.000027	-0.165489
C68	C	0.588677	0.333306	0.167845
C69	C	0.922010	0.666640	0.501178
C70	C	0.511211	0.068611	-0.172283
C71	C	0.844544	0.401945	0.161050
C72	C	1.177877	0.735278	0.494384
C73	C	0.584049	0.068612	-0.174196
C74	C	0.917383	0.401945	0.159137
C75	C	1.250716	0.735278	0.492470
C76	C	0.584032	-0.068651	-0.174177
C77	C	0.917366	0.264683	0.159156
C78	C	1.250699	0.598016	0.492489
C79	C	0.511196	-0.068649	-0.172251
C80	C	0.844529	0.264685	0.161082
C81	C	1.177863	0.598018	0.494415
C82	C	0.474789	-0.000016	-0.171310
C83	C	0.808122	0.333318	0.162023
C84	C	1.141456	0.666651	0.495356
N85	N	0.825556	-0.179185	-0.167325
N86	N	1.158889	0.154148	0.166009
N87	N	1.492222	0.487481	0.499342
C88	C	0.872623	-0.218799	-0.081734
C89	C	1.205956	0.114535	0.251600
C90	C	1.539289	0.447868	0.584933
C91	C	0.872627	-0.298046	-0.081727
C92	C	1.205960	0.035287	0.251606
C93	C	1.539293	0.368620	0.584939
C94	C	0.825570	-0.337677	-0.167334
C95	C	1.158904	-0.004344	0.165999
C96	C	1.492237	0.328989	0.499332
C97	C	0.778495	-0.298054	-0.252932
C98	C	1.111828	0.035279	0.080401
C99	C	1.445161	0.368612	0.413735
C100	C	0.778487	-0.218808	-0.252927
C101	C	1.111820	0.114525	0.080406
C102	C	1.445154	0.447858	0.413739
N103	N	0.817221	-0.462093	-0.278501
N104	N	1.150554	-0.128760	0.054832
N105	N	1.483887	0.204574	0.388165
N106	N	0.817232	-0.537373	-0.278502
N107	N	1.150565	-0.204040	0.054832
N108	N	1.483899	0.129293	0.388165
C109	C	0.825589	-0.576441	-0.167352
C110	C	1.158922	-0.243108	0.165981
C111	C	1.492256	0.090225	0.499315
N112	N	0.833948	-0.537385	-0.056198
N113	N	1.167281	-0.204052	0.277136
N114	N	1.500615	0.129282	0.610469
N115	N	0.833940	-0.462098	-0.056198
N116	N	1.167274	-0.128764	0.277135
N117	N	1.500607	0.204569	0.610468
C118	C	0.825573	-0.423607	-0.167348
C119	C	1.158906	-0.090273	0.165985
C120	C	1.492240	0.243060	0.499318
C121	C	0.872663	-0.701984	-0.081747
C122	C	1.205996	-0.368651	0.251586
C123	C	1.539330	-0.035317	0.584920
C124	C	0.872662	-0.781233	-0.081739
C125	C	1.205995	-0.447900	0.251594
C126	C	1.539329	-0.114567	0.584928
C127	C	0.778533	-0.781240	-0.252955
C128	C	1.111867	-0.447907	0.080379
C129	C	1.445200	-0.114573	0.413712
C130	C	0.778531	-0.701992	-0.252952
C131	C	1.111864	-0.368659	0.080382
C132	C	1.445197	-0.035326	0.413715
C133	C	0.825599	-0.662369	-0.167349
C134	C	1.158933	-0.329036	0.165984
C135	C	1.492266	0.004297	0.499318
C136	C	0.953179	-0.000025	-0.157473
C137	C	1.286513	0.333309	0.175861
C138	C	1.619846	0.666642	0.509194
C139	C	1.030697	-0.000022	-0.159525
C140	C	1.364031	0.333311	0.173808
C141	C	1.697364	0.666644	0.507142
C142	C	0.829564	-0.000026	0.062282
C143	C	1.162897	0.333307	0.395615
C144	C	1.496230	0.666640	0.728948
C145	C	0.827512	-0.000025	0.201682
C146	C	1.160845	0.333308	0.535015
C147	C	1.494179	0.666642	0.868349
N148	N	0.825605	0.179141	-0.167345
N149	N	1.158938	0.512474	0.165988
N150	N	1.492271	0.845808	0.499321
C151	C	0.821591	-0.000016	-0.396962
C152	C	1.154924	0.333317	-0.063629
C153	C	1.488258	0.666651	0.269705
C154	C	0.823643	-0.000012	-0.536362
C155	C	1.156976	0.333321	-0.203029
C156	C	1.490309	0.666654	0.130305
C157	C	0.954573	-0.000039	0.232340
C158	C	1.287907	0.333294	0.565673
C159	C	1.621240	0.666628	0.899007
C160	C	1.017137	-0.000048	0.313157
C161	C	1.350470	0.333286	0.646491
C162	C	1.683804	0.666619	0.979824
C163	C	1.015205	-0.000045	0.444134
C164	C	1.348538	0.333288	0.777468
C165	C	1.681872	0.666622	1.110801
C166	C	0.950702	-0.000032	0.494295
C167	C	1.284036	0.333301	0.827629
C168	C	1.617369	0.666635	1.160962
C169	C	0.888138	-0.000023	0.413478
C170	C	1.221472	0.333310	0.746811
C171	C	1.554805	0.666643	1.080145
C172	C	0.890077	-0.000028	0.282500
C173	C	1.223411	0.333305	0.615833
C174	C	1.556744	0.666639	0.949166
C175	C	0.761079	-0.000004	0.382821
C176	C	1.094412	0.333329	0.716154
C177	C	1.427745	0.666663	1.049487
C178	C	0.763009	-0.000012	0.251843
C179	C	1.096343	0.333321	0.585176
C180	C	1.429676	0.666655	0.918510
C181	C	0.696576	0.000009	0.432982
C182	C	1.029909	0.333343	0.766315
C183	C	1.363243	0.666676	1.099648
C184	C	0.634011	0.000012	0.352164
C185	C	0.967344	0.333346	0.685497
C186	C	1.300677	0.666679	1.018831
C187	C	0.635945	0.000009	0.221179
C188	C	0.969279	0.333342	0.554513
C189	C	1.302612	0.666676	0.887846
C190	C	0.700445	-0.000003	0.171026
C191	C	1.033779	0.333330	0.504359
C192	C	1.367112	0.666663	0.837692
H193	H	0.613701	0.124497	-0.174989
H194	H	0.947035	0.457830	0.158344
H195	H	1.280368	0.791163	0.491677
H196	H	0.037452	-0.124540	-0.159668
H197	H	0.370785	0.208793	0.173665
H198	H	0.704118	0.542127	0.506998
F199	F	0.622782	-0.141688	-0.175183
F200	F	0.956115	0.191645	0.158150
F201	F	1.289449	0.524978	0.491483
F202	F	0.472433	-0.141690	-0.171219
F203	F	0.805767	0.191643	0.162114
F204	F	1.139100	0.524977	0.495448
F205	F	0.472462	0.141656	-0.171274
F206	F	0.805795	0.474989	0.162059
F207	F	1.139128	0.808322	0.495392
F208	F	0.694521	0.000051	0.572380
F209	F	1.027855	0.333384	0.905713
F210	F	1.361188	0.666717	1.239047
H211	H	0.910947	-0.186540	-0.012028
H212	H	1.244280	0.146794	0.321305
H213	H	1.577613	0.480127	0.654639
H214	H	0.740179	-0.330326	-0.322633
H215	H	1.073513	0.003007	0.010701
H216	H	1.406846	0.336341	0.344034
H217	H	0.581497	0.000028	0.393017
H218	H	0.914831	0.333361	0.726350
H219	H	1.248164	0.666695	1.059683
F220	F	0.922725	-0.340213	0.009375
F221	F	1.256058	-0.006879	0.342709
F222	F	1.589391	0.326454	0.676042
F223	F	0.956635	-0.000056	0.092943
F224	F	1.289968	0.333277	0.426277
F225	F	1.623302	0.666610	0.759610
F226	F	0.922754	-0.659813	0.009364
F227	F	1.256088	-0.326480	0.342697
F228	F	1.589421	0.006853	0.676030
F229	F	0.728390	-0.176647	-0.344029
F230	F	1.061723	0.156686	-0.010696
F231	F	1.395057	0.490020	0.322637
F232	F	0.028374	0.141649	-0.159502
F233	F	0.361708	0.474982	0.173831
F234	F	0.695041	0.808315	0.507165
H235	H	0.910988	-0.813487	-0.012034
H236	H	1.244321	-0.480154	0.321300
H237	H	1.577654	-0.146820	0.654633
H238	H	0.740217	-0.813507	-0.322653
H239	H	1.073550	-0.480174	0.010681
H240	H	1.406883	-0.146840	0.344014
F241	F	0.728439	-0.659830	-0.344055
F242	F	1.061772	-0.326496	-0.010722
F243	F	1.395105	0.006837	0.322612
H244	H	0.584998	0.000019	0.155384
H245	H	0.918331	0.333352	0.488717
H246	H	1.251665	0.666686	0.822050
H247	H	0.949135	-0.000021	0.600945
H248	H	1.282468	0.333313	0.934279
H249	H	1.615801	0.666646	1.267612
F250	F	0.702510	-0.000012	0.031630
F251	F	1.035843	0.333321	0.364963
F252	F	1.369177	0.666655	0.698296
F253	F	1.081792	-0.000048	0.530148
F254	F	1.415125	0.333285	0.863482
F255	F	1.748459	0.666619	1.196815
F256	F	1.085782	-0.000058	0.259763
F257	F	1.419116	0.333276	0.593096
F258	F	1.752449	0.666609	0.926430
H259	H	0.169591	-0.124530	-0.163180
H260	H	0.502924	0.208803	0.170153
H261	H	0.836258	0.542136	0.503487
F262	F	0.178721	0.141649	-0.163482
F263	F	0.512055	0.474982	0.169851
F264	F	0.845388	0.808315	0.503184
