data_functionalizedCrystal
_audit_creation_method	'MofGen! by Chris Wilmer'
_symmetry_space_group_name_H-M	'P1'
_symmetry_Int_Tables_number	1
_symmetry_cell_setting	triclinic
loop_
_symmetry_equiv_pos_as_xyz
  x,y,z
_cell_length_a	13.032831
_cell_length_b	16.959454
_cell_length_c	13.034296
_cell_angle_alpha	82.791768
_cell_angle_beta	74.814550
_cell_angle_gamma	82.825094
loop_
_atom_site_label
_atom_site_type_symbol
_atom_site_fract_x
_atom_site_fract_y
_atom_site_fract_z
Zn1	Zn	1.700179	-0.400710	-0.806474
Zn2	Zn	2.200179	0.099290	-0.306474
Zn3	Zn	1.677485	-0.547792	-0.628852
Zn4	Zn	2.177485	-0.047792	-0.128852
Zn5	Zn	1.499982	-0.400717	-0.606355
Zn6	Zn	1.999982	0.099283	-0.106355
Zn7	Zn	1.522518	-0.517929	-0.783904
Zn8	Zn	2.022518	-0.017929	-0.283904
O9	O	1.600041	-0.466787	-0.706396
O10	O	2.100041	0.033213	-0.206396
O11	O	1.845806	-0.432716	-0.801772
O12	O	2.345806	0.067284	-0.301772
O13	O	1.635010	-0.540783	-0.477227
O14	O	2.135010	-0.040783	0.022773
O15	O	1.526605	-0.290109	-0.632931
O16	O	2.026605	0.209891	-0.132931
O17	O	1.829133	-0.540776	-0.671274
O18	O	2.329133	-0.040776	-0.171274
O19	O	1.673689	-0.290104	-0.779958
O20	O	2.173689	0.209896	-0.279958
O21	O	1.504600	-0.432728	-0.460699
O22	O	2.004600	0.067272	0.039301
O23	O	1.354334	-0.403771	-0.611046
O24	O	1.854334	0.096229	-0.111046
O25	O	1.565014	-0.489879	-0.935538
O26	O	2.065014	0.010121	-0.435538
O27	O	1.370891	-0.489886	-0.741491
O28	O	1.870891	0.010114	-0.241491
O29	O	1.695541	-0.403759	-0.952120
O30	O	2.195541	0.096241	-0.452120
O31	O	1.656862	-0.654438	-0.649390
O32	O	2.156862	-0.154438	-0.149390
O33	O	1.543008	-0.632497	-0.763306
O34	O	2.043008	-0.132497	-0.263306
C35	C	1.324073	-0.443589	-0.671379
C36	C	1.824073	0.056411	-0.171379
C37	C	1.206015	-0.433682	-0.656424
C38	C	1.706015	0.066318	-0.156424
C39	C	1.161589	-0.471958	-0.714201
C40	C	1.661589	0.028042	-0.214201
C41	C	1.039571	-0.461719	-0.698746
C42	C	1.539571	0.038281	-0.198746
C43	C	1.599950	-0.672147	-0.706367
C44	C	2.099950	-0.172147	-0.206367
C45	C	1.600012	-0.760007	-0.706402
C46	C	2.100012	-0.260007	-0.206402
C47	C	1.540855	-1.120100	-0.765717
C48	C	2.040855	-0.620100	-0.265717
C49	C	1.659537	-1.142887	-0.647220
C50	C	2.159537	-0.642887	-0.147220
C51	C	1.659498	-1.060338	-0.647206
C52	C	2.159498	-0.560338	-0.147206
C53	C	1.600136	-1.007667	-0.706447
C54	C	2.100136	-0.507667	-0.206447
C55	C	1.540812	-1.037544	-0.765702
C56	C	2.040812	-0.537544	-0.265702
C57	C	1.718813	-1.030455	-0.587943
C58	C	2.218813	-0.530455	-0.087943
C59	C	1.718776	-0.947903	-0.587925
C60	C	2.218776	-0.447903	-0.087925
C61	C	1.659419	-0.895229	-0.647173
C62	C	2.159419	-0.395229	-0.147173
C63	C	1.600094	-0.925111	-0.706432
C64	C	2.100094	-0.425111	-0.206432
C65	C	1.540731	-0.872439	-0.765673
C66	C	2.040731	-0.372439	-0.265673
C67	C	1.481411	-0.902319	-0.824938
C68	C	1.981411	-0.402319	-0.324938
C69	C	1.481456	-0.984871	-0.824950
C70	C	1.981456	-0.484871	-0.324950
C71	C	1.659375	-0.812678	-0.647161
C72	C	2.159375	-0.312678	-0.147161
C73	C	1.540689	-0.789883	-0.765657
C74	C	2.040689	-0.289883	-0.265657
C75	C	1.877087	-0.490076	-0.741550
C76	C	2.377087	0.009924	-0.241550
C77	C	1.995148	-0.500000	-0.756531
C78	C	2.495148	-0.000000	-0.256531
C79	C	1.635323	-0.443487	-0.983448
C80	C	2.135323	0.056513	-0.483448
C81	C	1.650358	-0.433557	-1.101510
C82	C	2.150358	0.066443	-0.601510
C83	C	1.600165	-0.260625	-0.706453
C84	C	2.100165	0.239375	-0.206453
C85	C	1.600217	-0.172771	-0.706477
C86	C	2.100217	0.327229	-0.206477
C87	C	1.592478	-0.471741	-1.145942
C88	C	2.092478	0.028259	-0.645942
C89	C	1.608016	-0.461480	-1.267966
C90	C	2.108016	0.038520	-0.767966
C91	C	1.564958	-0.489945	-0.430430
C92	C	2.064958	0.010055	0.069570
C93	C	1.550129	-0.499669	-0.312394
C94	C	2.050129	0.000331	0.187606
H95	H	1.213888	-0.512304	-0.775112
H96	H	1.713888	-0.012304	-0.275112
H97	H	1.531427	-0.512032	-1.093645
H98	H	2.031427	-0.012032	-0.593645
H99	H	1.047443	-0.540348	-0.817449
H100	H	1.547443	-0.040348	-0.317449
F101	F	1.730169	-0.380902	-1.169863
F102	F	2.230169	0.119098	-0.669863
F103	F	1.137663	-0.380936	-0.576817
F104	F	1.637663	0.119064	-0.076817
H105	H	1.433159	-1.009207	-0.873199
H106	H	1.933159	-0.509207	-0.373199
H107	H	1.492353	-0.747002	-0.813903
H108	H	1.992353	-0.247002	-0.313903
F109	F	1.418231	-0.846253	-0.887979
F110	F	1.918231	-0.346253	-0.387979
H111	H	1.489073	-0.539962	-1.260101
H112	H	1.989073	-0.039962	-0.760101
H113	H	0.987276	-0.421363	-0.637838
H114	H	1.487276	0.078637	-0.137838
F115	F	1.781990	-1.086515	-0.524904
F116	F	2.281990	-0.586515	-0.024904
F117	F	1.687832	-0.408822	-1.336316
F118	F	2.187832	0.091178	-0.836316
H119	H	1.492562	-1.144432	-0.813973
H120	H	1.992562	-0.644432	-0.313973
H121	H	1.707860	-1.185776	-0.598982
H122	H	2.207860	-0.685776	-0.098982
H123	H	1.767078	-0.923580	-0.539670
H124	H	2.267078	-0.423580	-0.039670
H125	H	1.707666	-0.788353	-0.598902
H126	H	2.207666	-0.288353	-0.098902
