data_functionalizedCrystal
_audit_creation_method	'MofGen! by Chris Wilmer'
_symmetry_space_group_name_H-M	'P1'
_symmetry_Int_Tables_number	1
_symmetry_cell_setting	triclinic
loop_
_symmetry_equiv_pos_as_xyz
  x,y,z
_cell_length_a	14.395555
_cell_length_b	14.446369
_cell_length_c	14.446369
_cell_angle_alpha	59.999833
_cell_angle_beta	90.003477
_cell_angle_gamma	60.000723
loop_
_atom_site_label
_atom_site_type_symbol
_atom_site_fract_x
_atom_site_fract_y
_atom_site_fract_z
Zr1	Zr	0.894922	1.013197	-0.121473
O2	O	0.746592	1.206317	-0.269293
O3	O	0.940392	0.820077	-0.076153
O4	O	0.940392	1.013189	-0.269274
O5	O	0.746594	1.013211	0.076158
O6	O	1.093266	1.013182	-0.269265
O7	O	0.746592	1.013205	-0.076172
O8	O	1.093266	0.667741	0.076192
O9	O	0.746593	1.358653	-0.269300
O10	O	1.073874	0.899505	-0.056825
O11	O	0.959787	0.899514	0.056851
O12	O	0.959787	1.126878	-0.170524
O13	O	0.845700	1.126888	-0.056848
Zr14	Zr	1.138741	1.013195	0.121488
Zr15	Zr	1.138739	1.013186	-0.121461
Zr16	Zr	0.894925	1.013206	0.121475
Zr17	Zr	0.894924	1.256155	-0.121485
Zr18	Zr	1.138739	0.770237	0.121499
O19	O	1.093271	1.206315	0.076168
O20	O	1.093267	1.206301	-0.269274
O21	O	0.746595	1.206330	0.076149
O22	O	1.287072	0.820075	0.269308
O23	O	1.287068	0.820062	-0.076134
O24	O	0.940396	0.820091	0.269289
O25	O	1.287069	1.013181	-0.076143
O26	O	1.093272	1.013203	0.269288
O27	O	0.940398	1.013210	0.269280
O28	O	1.287071	1.013187	0.076187
O29	O	0.940395	1.358644	-0.269289
O30	O	1.093268	0.667748	0.269304
O31	O	1.287070	0.667739	0.269314
O32	O	1.287068	0.667732	0.076203
O33	O	0.746595	1.358660	-0.076188
O34	O	0.940397	1.358651	-0.076178
O35	O	1.073877	0.899513	0.170539
O36	O	1.187964	0.899504	0.056863
O37	O	1.073876	1.126878	-0.056836
O38	O	0.959789	1.126887	0.056840
C39	C	1.016829	0.709293	0.000021
C40	C	1.016828	0.606151	0.000026
C41	C	0.945218	0.459147	0.072050
C42	C	0.944829	0.566767	0.071759
C43	C	0.964336	0.655144	-0.123513
C44	C	0.963798	0.547912	-0.123139
C45	C	1.140981	0.372689	0.050478
C46	C	1.140798	0.478840	0.052998
C47	C	0.711854	1.013210	-0.000009
C48	C	0.608348	1.013214	-0.000014
C49	C	0.485553	1.137189	-0.061998
C50	C	0.454717	1.075210	-0.106911
C51	C	0.454761	1.075187	0.044891
C52	C	0.578875	0.951236	-0.044990
C53	C	0.578916	0.951230	0.106871
C54	C	0.548152	0.889162	0.061985
C55	C	1.321809	1.013182	0.000024
C56	C	1.425315	1.013178	0.000029
C57	C	1.016828	1.013184	-0.303885
C58	C	1.016827	1.013180	-0.407023
C59	C	1.016834	1.317099	-0.000007
C60	C	1.016835	1.420241	-0.000011
C61	C	1.088794	0.869761	-0.374592
C62	C	1.089184	0.869710	-0.481847
C63	C	1.068940	1.084847	-0.589815
C64	C	1.069480	1.083894	-0.482025
C65	C	0.892717	1.086006	-0.482992
C66	C	0.892909	1.083342	-0.588981
C67	C	1.016835	1.013208	0.303899
C68	C	1.016836	1.013212	0.407037
C69	C	1.321806	0.709279	0.000038
C70	C	1.425312	0.606132	0.000048
C71	C	1.016832	0.709304	0.303913
C72	C	1.016832	0.606166	0.407056
C73	C	1.321810	0.709291	0.303929
C74	C	1.425316	0.606148	0.407078
C75	C	0.711854	1.317101	-0.303915
C76	C	0.608347	1.420244	-0.407063
C77	C	0.711857	1.317113	-0.000023
C78	C	0.608351	1.420260	-0.000033
C79	C	1.016831	1.317088	-0.303898
C80	C	1.016831	1.420226	-0.407041
C81	C	1.644450	0.459812	0.071391
C82	C	1.536841	0.566739	0.071791
C83	C	1.428651	0.479275	0.052350
C84	C	1.536799	0.371893	0.052874
C85	C	1.535421	0.546866	-0.123686
C86	C	1.429079	0.655342	-0.123492
C87	C	0.944529	0.459854	0.482042
C88	C	0.944834	0.566776	0.374708
C89	C	1.140800	0.479306	0.481623
C90	C	1.140412	0.371930	0.588487
C91	C	0.966195	0.546910	0.590056
C92	C	0.963678	0.655382	0.481379
C93	C	1.500568	0.459811	0.625447
C94	C	1.392855	0.566755	0.518210
C95	C	1.500121	0.479295	0.410398
C96	C	1.607363	0.371897	0.518173
C97	C	1.608985	0.546841	0.516826
C98	C	1.499924	0.655335	0.410852
H99	H	1.194591	0.346710	-0.001759
H100	H	0.573809	0.784244	0.114408
H101	H	1.498236	0.497037	0.679412
C102	C	1.429776	0.777589	-0.176288
H103	H	1.432065	0.806885	-0.251011
H104	H	1.362889	0.844933	-0.178840
H105	H	1.494820	0.756356	-0.131586
C106	C	0.819953	1.228737	-0.520059
H107	H	0.864929	1.243925	-0.489409
H108	H	0.792870	1.286317	-0.600454
H109	H	0.757186	1.244016	-0.493163
C110	C	1.027443	0.698765	0.515874
H111	H	1.087591	0.687371	0.485271
H112	H	0.976254	0.788396	0.487452
H113	H	1.057851	0.647262	0.596195
H114	H	0.834811	1.188010	-0.668111
C115	C	0.820893	0.510162	0.478869
H116	H	0.778673	0.533549	0.411240
H117	H	0.820144	0.443312	0.542653
H118	H	0.787576	0.584682	0.480740
C119	C	1.218987	0.507883	-0.010469
H120	H	1.293275	0.429283	0.023353
H121	H	1.189751	0.542456	-0.087639
H122	H	1.222192	0.569828	-0.006247
C123	C	0.992252	0.516189	0.302022
H124	H	1.011420	0.430127	0.338062
H125	H	0.936320	0.572319	0.229423
H126	H	1.058279	0.514892	0.293750
H127	H	1.184838	0.278944	0.140047
H128	H	1.159382	1.035698	-0.592113
H129	H	1.613130	0.586398	0.566853
C130	C	1.430234	0.777580	0.411545
H131	H	1.355976	0.798571	0.409537
H132	H	1.466587	0.760518	0.478485
H133	H	1.425122	0.849086	0.347018
C134	C	1.534535	0.698727	0.303928
H135	H	1.503809	0.687353	0.255373
H136	H	1.506025	0.788353	0.265317
H137	H	1.615138	0.647215	0.325133
C138	C	0.991554	0.338732	0.480636
H139	H	1.055071	0.264138	0.547381
H140	H	0.934065	0.324794	0.477712
H141	H	1.014564	0.352534	0.415948
H142	H	0.854185	0.494912	0.037340
C143	C	1.430153	0.427215	0.407516
H144	H	1.355369	0.482578	0.404295
H145	H	1.426533	0.425933	0.342545
H146	H	1.465384	0.341002	0.473956
H147	H	1.687479	0.522041	0.489387
H148	H	0.980039	0.530059	0.162728
C149	C	1.499137	0.338700	0.699699
H150	H	1.566109	0.264103	0.711002
H151	H	1.496210	0.324757	0.770927
H152	H	1.434213	0.352518	0.662959
H153	H	1.338865	0.529307	0.520653
H154	H	0.853256	0.655570	0.036756
H155	H	0.632431	0.898881	0.197226
H156	H	0.980243	0.370281	0.163246
H157	H	1.012592	0.525939	-0.179747
C158	C	1.717606	0.510108	0.024253
H159	H	1.728944	0.507403	-0.039372
H160	H	1.679866	0.597651	0.001787
H161	H	1.789162	0.456273	0.081263
H162	H	1.699630	0.370145	0.162094
C163	C	0.840389	0.602881	-0.177726
H164	H	0.791055	0.690406	-0.199916
H165	H	0.834770	0.601421	-0.242438
H166	H	0.819199	0.550738	-0.124483
C167	C	1.192837	1.015912	-0.414211
H168	H	1.242150	0.989131	-0.452665
H169	H	1.198226	1.075181	-0.407209
H170	H	1.214248	0.941459	-0.340922
H171	H	1.180014	0.439241	0.144010
C172	C	1.031406	0.694038	-0.199189
H173	H	1.092159	0.680716	-0.156012
H174	H	1.061208	0.641706	-0.227263
H175	H	0.982225	0.783704	-0.260974
C176	C	0.842119	0.779869	-0.178506
H177	H	0.822897	0.802259	-0.126371
H178	H	0.837259	0.849699	-0.244749
H179	H	0.790800	0.764591	-0.198308
C180	C	1.195970	0.427195	0.411927
H181	H	1.270976	0.350409	0.457790
H182	H	1.152168	0.407052	0.386851
H183	H	1.198816	0.491973	0.348145
H184	H	0.401199	1.127604	-0.197286
C185	C	0.451205	1.278794	-0.132914
H186	H	0.407980	1.322638	-0.208841
H187	H	0.406779	1.323275	-0.101778
H188	H	0.517679	1.277823	-0.131890
C189	C	0.382509	1.145989	0.096192
H190	H	0.359508	1.234066	0.052049
H191	H	0.317132	1.144784	0.096492
H192	H	0.426330	1.102807	0.171682
C193	C	0.650941	0.880506	-0.096418
H194	H	0.614829	0.850937	-0.117830
H195	H	0.658187	0.939248	-0.161279
H196	H	0.724269	0.807678	-0.041859
C197	C	1.211745	0.794477	-0.300532
H198	H	1.219410	0.850071	-0.289293
H199	H	1.228899	0.720217	-0.229267
H200	H	1.262779	0.766722	-0.337367
H201	H	1.607080	0.281149	0.568508
H202	H	1.054268	0.813531	-0.480104
C203	C	1.212862	0.794178	-0.478766
H204	H	1.263063	0.763415	-0.411888
H205	H	1.229649	0.721891	-0.479148
H206	H	1.222183	0.850649	-0.543360
C207	C	1.001513	1.227400	-0.695536
H208	H	0.940844	1.244533	-0.742650
H209	H	0.971572	1.285148	-0.672880
H210	H	1.050526	1.240456	-0.736317
H211	H	1.054063	0.813153	-0.320494
H212	H	0.872350	0.745879	0.429950
C213	C	0.833860	1.023555	-0.415227
H214	H	0.884436	0.952473	-0.339960
H215	H	0.767383	1.087071	-0.413558
H216	H	0.813477	0.992558	-0.450343
H217	H	1.020417	1.189138	-0.508661
C218	C	0.840309	1.012789	-0.588117
H219	H	0.893638	0.940897	-0.590180
H220	H	0.821238	0.981884	-0.521100
H221	H	0.773605	1.072064	-0.652563
C222	C	1.539027	0.687441	0.024412
H223	H	1.605844	0.671414	0.004751
H224	H	1.473881	0.761302	-0.041036
H225	H	1.538733	0.704054	0.080311
C226	C	1.540158	0.516131	0.195063
H227	H	1.607348	0.430061	0.245091
H228	H	1.539753	0.572237	0.211567
H229	H	1.475421	0.514847	0.204587
H230	H	1.587324	0.281139	0.143905
H231	H	1.507875	0.522075	-0.177112
C232	C	1.500674	0.331396	-0.012787
H233	H	1.420030	0.380578	-0.039657
H234	H	1.527859	0.347867	-0.075246
H235	H	1.531834	0.240749	0.036057
H236	H	1.686223	0.341930	0.491525
C237	C	1.425769	0.427173	0.174158
H238	H	1.427818	0.350390	0.205085
H239	H	1.489785	0.407028	0.219382
H240	H	1.357912	0.491958	0.173149
C241	C	1.603238	0.600286	-0.182728
H242	H	1.678816	0.545847	-0.132477
H243	H	1.604794	0.601166	-0.248891
H244	H	1.567961	0.686786	-0.203223
C245	C	0.821516	0.687474	0.301365
H246	H	0.770781	0.671449	0.337050
H247	H	0.812529	0.761343	0.292937
H248	H	0.805151	0.704071	0.228858
C249	C	1.195180	0.249329	0.588126
H250	H	1.217451	0.265489	0.522796
H251	H	1.260117	0.177559	0.654309
H252	H	1.141742	0.229322	0.587024
H253	H	1.350107	0.501523	0.002869
H254	H	1.349641	0.687470	-0.181144
C255	C	1.217161	0.331450	0.694650
H256	H	1.248447	0.380633	0.672336
H257	H	1.173432	0.347935	0.740622
H258	H	1.276974	0.240802	0.736475
H259	H	1.197019	0.501552	0.508856
H260	H	0.876288	0.586486	0.594166
H261	H	1.018618	0.522120	0.668275
H262	H	1.338403	0.656102	0.519828
H263	H	1.527455	0.501541	0.332138
