data_functionalizedCrystal
_audit_creation_method	'MofGen! by Chris Wilmer'
_symmetry_space_group_name_H-M	'P1'
_symmetry_Int_Tables_number	1
_symmetry_cell_setting	triclinic
loop_
_symmetry_equiv_pos_as_xyz
  x,y,z
_cell_length_a	12.759401
_cell_length_b	12.759399
_cell_length_c	21.395355
_cell_angle_alpha	89.986209
_cell_angle_beta	89.978602
_cell_angle_gamma	90.016494
loop_
_atom_site_label
_atom_site_type_symbol
_atom_site_fract_x
_atom_site_fract_y
_atom_site_fract_z
Zn1	Zn	1.606274	-0.418380	-0.354229
Zn2	Zn	1.606155	-0.594045	-0.249460
Zn3	Zn	1.430567	-0.418381	-0.249472
Zn4	Zn	1.430560	-0.594019	-0.354206
O5	O	1.518389	-0.506206	-0.301842
O6	O	1.753279	-0.441693	-0.340336
O7	O	1.582816	-0.570754	-0.161784
O8	O	1.453928	-0.271360	-0.263382
O9	O	1.753192	-0.570753	-0.263363
O10	O	1.583019	-0.271359	-0.340347
O11	O	1.453812	-0.441695	-0.161792
O12	O	1.283545	-0.441669	-0.263360
O13	O	1.453915	-0.570708	-0.441887
O14	O	1.283540	-0.570709	-0.340308
O15	O	1.583012	-0.441668	-0.441904
O16	O	1.582809	-0.741062	-0.263341
O17	O	1.453800	-0.741043	-0.340297
C18	C	1.245422	-0.506187	-0.301833
C19	C	1.128645	-0.506205	-0.301845
C20	C	0.964077	-0.573514	-0.341853
C21	C	1.073801	-0.573502	-0.341846
C22	C	1.073759	-0.438922	-0.261842
C23	C	0.964037	-0.438940	-0.261846
C24	C	1.223751	-0.697439	-0.364099
C25	C	1.278633	-0.764710	-0.404107
C26	C	1.243064	-0.780998	-0.465227
C27	C	1.152616	-0.730001	-0.486353
C28	C	1.097740	-0.662723	-0.446348
C29	C	1.133307	-0.646454	-0.385219
C30	C	0.814085	-0.315002	-0.239599
C31	C	0.759207	-0.247717	-0.199598
C32	C	0.794773	-0.231418	-0.138476
C33	C	0.885225	-0.282397	-0.117353
C34	C	0.940103	-0.349681	-0.157355
C35	C	0.904529	-0.365982	-0.218476
C36	C	1.518319	-0.779174	-0.301829
C37	C	1.518386	-0.895950	-0.301844
C38	C	1.451264	-0.950906	-0.261751
C39	C	1.451338	-1.060630	-0.261767
C40	C	1.585659	-1.060433	-0.341975
C41	C	1.585589	-0.950711	-0.341955
C42	C	1.413954	-1.210681	-0.187882
C43	C	1.346816	-1.265641	-0.147795
C44	C	1.244287	-1.230133	-0.138117
C45	C	1.208875	-1.139668	-0.168535
C46	C	1.276008	-1.084715	-0.208628
C47	C	1.378552	-1.120220	-0.218294
C48	C	1.622962	-0.800658	-0.415841
C49	C	1.690090	-0.745702	-0.455937
C50	C	1.792621	-0.781207	-0.465622
C51	C	1.828029	-0.871676	-0.435214
C52	C	1.760901	-0.926631	-0.395118
C53	C	1.658371	-0.891118	-0.385432
C54	C	1.792422	-0.506226	-0.301851
C55	C	1.909199	-0.506234	-0.301855
C56	C	1.518476	-0.506185	-0.465265
C57	C	1.518513	-0.506176	-0.534907
C58	C	1.518487	-0.232173	-0.301869
C59	C	1.518529	-0.115396	-0.301880
C60	C	1.585731	-0.438982	-0.567629
C61	C	1.585729	-0.438936	-0.633065
C62	C	1.518521	-0.506104	-0.665775
C63	C	1.451291	-0.573303	-0.633044
C64	C	1.451287	-0.573339	-0.567610
C65	C	1.510202	-0.600703	-0.769445
C66	C	1.510213	-0.600669	-0.834878
C67	C	1.518528	-0.505993	-0.867596
C68	C	1.526853	-0.411348	-0.834872
C69	C	1.526849	-0.411384	-0.769438
C70	C	1.518518	-0.506073	-0.736727
C71	C	1.585748	-0.438744	-0.971271
C72	C	1.585739	-0.438697	-1.036708
C73	C	1.451306	-0.573074	-1.036686
C74	C	1.451309	-0.573111	-0.971251
C75	C	1.518536	-0.505948	-0.938547
C76	C	1.518363	-0.506152	-0.139054
C77	C	1.518529	-0.505865	-0.069413
H78	H	1.123670	-0.743259	-0.536126
Cl79	Cl	1.231501	-0.970994	-0.246866
H80	H	1.118422	-0.384132	-0.229270
H81	H	1.640471	-0.384291	-0.541006
Cl82	Cl	1.670217	-0.354436	-0.674211
H83	H	1.539481	-0.771723	-0.407945
H84	H	0.750088	-0.176619	-0.105910
Cl85	Cl	0.645499	-0.183621	-0.226155
H86	H	1.013756	-0.391188	-0.140152
H87	H	1.847275	-0.736453	-0.498273
H88	H	1.252712	-0.684196	-0.314328
Cl89	Cl	0.769372	-0.335480	-0.316443
H90	H	1.533626	-0.334321	-0.742797
Cl91	Cl	1.537312	-0.292319	-0.875995
Cl92	Cl	0.929946	-0.261903	-0.040514
Cl93	Cl	1.366806	-0.657594	-0.930111
Cl94	Cl	1.366786	-0.882067	-0.211323
Cl95	Cl	1.391334	-1.379362	-0.109554
H96	H	1.125381	-1.110772	-0.160658
Cl97	Cl	1.670253	-0.354307	-0.930155
Cl98	Cl	1.159876	-1.299247	-0.087737
Cl99	Cl	1.542858	-1.255320	-0.200040
Cl100	Cl	1.366797	-0.657739	-0.674164
H101	H	1.640474	-0.383974	-1.063350
H102	H	1.503440	-0.677735	-0.861517
H103	H	1.396573	-0.627752	-1.063318
H104	H	1.503150	-0.677780	-0.742813
Cl105	Cl	1.670133	-1.129283	-0.392400
H106	H	1.396545	-0.628055	-0.540967
H107	H	0.919430	-0.628310	-0.374430
H108	H	1.024101	-0.621199	-0.463549
Cl109	Cl	1.805415	-1.040366	-0.356890
H110	H	1.911491	-0.900634	-0.443139
H111	H	1.287757	-0.835772	-0.497802
H112	H	1.661251	-0.672038	-0.480697
H113	H	1.352276	-0.806231	-0.386901
