data_functionalizedCrystal
_audit_creation_method	'MofGen! by Chris Wilmer'
_symmetry_space_group_name_H-M	'P1'
_symmetry_Int_Tables_number	1
_symmetry_cell_setting	triclinic
loop_
_symmetry_equiv_pos_as_xyz
  x,y,z
_cell_length_a	14.853567
_cell_length_b	11.026607
_cell_length_c	10.065875
_cell_angle_alpha	100.697662
_cell_angle_beta	98.805381
_cell_angle_gamma	83.889526
loop_
_atom_site_label
_atom_site_type_symbol
_atom_site_fract_x
_atom_site_fract_y
_atom_site_fract_z
O1	O	0.367252	-1.628533	-0.113466
O2	O	0.324252	-1.275155	-0.113471
O3	O	0.216045	-1.461284	-0.113472
O4	O	0.475459	-1.442404	-0.113464
O5	O	0.236785	-1.425792	0.113517
O6	O	0.344992	-1.239663	0.113518
O7	O	0.387992	-1.593041	0.113524
Zn8	Zn	0.369785	-1.410717	0.149560
Zn9	Zn	0.342459	-1.457479	-0.149507
O10	O	0.496199	-1.406912	0.113525
C11	C	0.326689	-1.212185	0.000023
C12	C	0.303041	-1.077432	0.000021
C13	C	0.192688	-1.442683	0.000018
C14	C	0.092190	-1.440122	0.000007
C15	C	0.385555	-1.656012	0.000027
C16	C	0.409202	-1.790767	0.000020
C17	C	-0.339931	-1.318718	0.000031
C18	C	-0.325531	-1.539843	0.000034
C19	C	-0.231109	-1.542254	0.000026
C20	C	-0.191094	-1.432895	0.000022
C21	C	-0.245500	-1.321126	0.000027
C22	C	-0.176694	-1.654020	0.000035
C23	C	-0.082266	-1.656436	0.000029
C24	C	-0.042250	-1.547077	0.000016
C25	C	-0.096663	-1.435303	0.000019
C26	C	-0.056648	-1.325944	0.000015
C27	C	-0.111060	-1.214170	0.000008
C28	C	-0.205484	-1.211767	0.000014
C29	C	0.052174	-1.549480	0.000010
C30	C	0.037783	-1.328352	0.000011
C31	C	0.519556	-1.425514	0.000031
C32	C	0.620053	-1.428077	0.000034
N33	N	0.388434	-1.378812	0.353666
C34	C	0.368337	-1.003736	0.000022
C35	C	0.343897	-0.864461	0.000019
N36	N	0.323804	-1.489394	-0.353613
C37	C	0.348941	-1.446371	0.421444
C38	C	0.363303	-1.421825	0.578612
H39	H	-0.078466	-1.125130	0.000015
N40	N	0.466356	-1.056718	0.000026
H41	H	0.486774	-1.095469	0.084172
H42	H	0.471327	-1.121731	-0.084174
H43	H	-0.358117	-1.628875	0.000048
N44	N	0.422179	-1.321133	0.655856
H45	H	0.446560	-1.279418	0.589032
H46	H	0.384406	-1.258062	0.715150
N47	N	-0.219864	-1.771954	0.000036
H48	H	-0.207975	-1.833870	-0.084106
H49	H	-0.192585	-1.807450	0.084239
H50	H	0.229043	-1.037421	-0.000017
N51	N	0.245875	-0.811476	0.000033
H52	H	0.242311	-0.719492	0.000035
H53	H	0.207186	-0.852960	-0.084114
H54	H	-0.037972	-1.747449	0.000032
H55	H	0.070355	-1.239298	0.000002
H56	H	0.432874	-1.302796	0.411993
N57	N	0.507227	-0.843745	0.000037
H58	H	0.510794	-0.935727	0.000040
H59	H	0.530536	-0.828572	-0.084110
N60	N	0.290041	-1.547030	0.344200
H61	H	0.288119	-1.550283	0.242874
H62	H	0.316540	-1.629368	0.369069
N63	N	0.264922	-1.590082	0.569151
H64	H	0.263005	-1.593346	0.467824
H65	H	0.291440	-1.672406	0.594037
H66	H	-0.384238	-1.227715	0.000020
N67	N	-0.264164	-1.091215	0.000019
H68	H	-0.311358	-1.098443	-0.084118
H69	H	-0.295904	-1.072200	0.084227
N70	N	0.110863	-1.670017	0.000032
H71	H	0.071186	-1.738928	0.000043
H72	H	0.142662	-1.688998	-0.084118
