data_functionalizedCrystal
_audit_creation_method	'MofGen! by Chris Wilmer'
_symmetry_space_group_name_H-M	'P1'
_symmetry_Int_Tables_number	1
_symmetry_cell_setting	triclinic
loop_
_symmetry_equiv_pos_as_xyz
  x,y,z
_cell_length_a	21.295420
_cell_length_b	21.295411
_cell_length_c	16.959454
_cell_angle_alpha	89.986811
_cell_angle_beta	90.018326
_cell_angle_gamma	89.975307
loop_
_atom_site_label
_atom_site_type_symbol
_atom_site_fract_x
_atom_site_fract_y
_atom_site_fract_z
Zn1	Zn	0.962401	-0.355951	-0.314808
Zn2	Zn	1.295734	-0.022617	0.018525
Zn3	Zn	1.629068	0.310716	0.351858
Zn4	Zn	0.962323	-0.250692	-0.446970
Zn5	Zn	1.295656	0.082642	-0.113636
Zn6	Zn	1.628989	0.415975	0.219697
Zn7	Zn	0.857124	-0.250695	-0.314805
Zn8	Zn	1.190458	0.082638	0.018528
Zn9	Zn	1.523791	0.415971	0.351862
Zn10	Zn	0.857113	-0.355923	-0.446945
Zn11	Zn	1.190446	-0.022590	-0.113612
Zn12	Zn	1.523779	0.310744	0.219722
O13	O	0.909740	-0.303315	-0.380882
O14	O	1.243073	0.030018	-0.047549
O15	O	1.576407	0.363351	0.285785
O16	O	1.050480	-0.341998	-0.332352
O17	O	1.383813	-0.008664	0.000982
O18	O	1.717147	0.324669	0.334315
O19	O	0.948340	-0.162603	-0.429447
O20	O	1.281673	0.170731	-0.096113
O21	O	1.615006	0.504064	0.237220
O22	O	0.871127	-0.264671	-0.204195
O23	O	1.204460	0.068662	0.129139
O24	O	1.537794	0.401996	0.462472
O25	O	1.050422	-0.264664	-0.429450
O26	O	1.383756	0.068669	-0.096117
O27	O	1.717089	0.402002	0.237217
O28	O	0.948473	-0.342001	-0.204197
O29	O	1.281807	-0.008668	0.129136
O30	O	1.615140	0.324665	0.462470
O31	O	0.871051	-0.162606	-0.332346
O32	O	1.204384	0.170728	0.000987
O33	O	1.537718	0.504061	0.334321
O34	O	0.769033	-0.264644	-0.332322
O35	O	1.102367	0.068689	0.001011
O36	O	1.435700	0.402023	0.334345
O37	O	0.871107	-0.444016	-0.429408
O38	O	1.204441	-0.110683	-0.096074
O39	O	1.537774	0.222651	0.237259
O40	O	0.769025	-0.341954	-0.429404
O41	O	1.102358	-0.008621	-0.096071
O42	O	1.435692	0.324712	0.237262
O43	O	0.948462	-0.444036	-0.332328
O44	O	1.281796	-0.110703	0.001006
O45	O	1.615129	0.222630	0.334339
O46	O	0.948329	-0.264638	-0.557577
O47	O	1.281662	0.068696	-0.224244
O48	O	1.614995	0.402029	0.109089
O49	O	0.871031	-0.341951	-0.557559
O50	O	1.204365	-0.008617	-0.224226
O51	O	1.537698	0.324716	0.109108
C52	C	0.746189	-0.303297	-0.380861
C53	C	1.079522	0.030036	-0.047527
C54	C	1.412855	0.363370	0.285806
C55	C	0.676220	-0.303304	-0.380870
C56	C	1.009554	0.030029	-0.047537
C57	C	1.342887	0.363362	0.285796
C58	C	0.176775	-0.343532	-0.431526
C59	C	0.510108	-0.010198	-0.098193
C60	C	0.843441	0.323135	0.235141
C61	C	0.242517	-0.343525	-0.431526
C62	C	0.575850	-0.010192	-0.098193
C63	C	0.909184	0.323142	0.235140
C64	C	0.275381	-0.303335	-0.380900
C65	C	0.608714	0.029998	-0.047567
C66	C	0.942048	0.363332	0.285767
C67	C	0.242497	-0.263137	-0.330284
C68	C	0.575830	0.070196	0.003049
C69	C	0.909164	0.403530	0.336383
C70	C	0.176756	-0.263140	-0.330291
C71	C	0.510089	0.070193	0.003043
C72	C	0.843422	0.403526	0.336376
N73	N	0.378612	-0.298594	-0.311691
N74	N	0.711945	0.034739	0.021643
N75	N	1.045278	0.368072	0.354976
N76	N	0.441063	-0.298595	-0.311687
N77	N	0.774396	0.034739	0.021647
N78	N	1.107730	0.368072	0.354980
C79	C	0.473456	-0.303322	-0.380878
C80	C	0.806789	0.030012	-0.047544
C81	C	1.140122	0.363345	0.285789
N82	N	0.441038	-0.308060	-0.450075
N83	N	0.774371	0.025273	-0.116741
N84	N	1.107704	0.358607	0.216592
N85	N	0.378580	-0.308063	-0.450078
N86	N	0.711914	0.025270	-0.116745
N87	N	1.045247	0.358604	0.216589
C88	C	0.346666	-0.303327	-0.380887
C89	C	0.680000	0.030007	-0.047554
C90	C	1.013333	0.363340	0.285779
C91	C	0.577617	-0.343506	-0.431495
C92	C	0.910951	-0.010173	-0.098161
C93	C	1.244284	0.323160	0.235172
C94	C	0.643361	-0.343495	-0.431496
C95	C	0.976694	-0.010162	-0.098163
C96	C	1.310028	0.323171	0.235170
C97	C	0.643340	-0.263111	-0.330247
C98	C	0.976673	0.070222	0.003086
C99	C	1.310006	0.403556	0.336420
C100	C	0.577597	-0.263119	-0.330252
C101	C	0.910931	0.070215	0.003081
C102	C	1.244264	0.403548	0.336414
C103	C	0.544740	-0.303320	-0.380875
C104	C	0.878073	0.030014	-0.047542
C105	C	1.211407	0.363347	0.285791
C106	C	0.909792	-0.467506	-0.380865
C107	C	1.243126	-0.134172	-0.047532
C108	C	1.576459	0.199161	0.285801
C109	C	0.909815	-0.537474	-0.380858
C110	C	1.243148	-0.204140	-0.047525
C111	C	1.576481	0.129193	0.285808
C112	C	0.950092	-0.570352	-0.330306
C113	C	1.283425	-0.237019	0.003027
C114	C	1.616758	0.096315	0.336360
C115	C	0.950091	-0.636094	-0.330272
C116	C	1.283424	-0.302761	0.003061
C117	C	1.616757	0.030572	0.336395
C118	C	0.909820	-0.668956	-0.380804
C119	C	1.243153	-0.335623	-0.047470
C120	C	1.576486	-0.002290	0.285863
C121	C	0.869535	-0.636070	-0.431359
C122	C	1.202868	-0.302737	-0.098026
C123	C	1.536201	0.030597	0.235308
C124	C	0.869532	-0.570329	-0.431386
C125	C	1.202866	-0.236995	-0.098053
C126	C	1.536199	0.096338	0.235280
N127	N	0.904973	-0.772180	-0.449950
N128	N	1.238306	-0.438846	-0.116617
N129	N	1.571640	-0.105513	0.216716
N130	N	0.904979	-0.834631	-0.449922
N131	N	1.238312	-0.501298	-0.116589
N132	N	1.571646	-0.167965	0.216744
C133	C	0.909823	-0.867031	-0.380724
C134	C	1.243157	-0.533698	-0.047390
C135	C	1.576490	-0.200364	0.285943
N136	N	0.914674	-0.834620	-0.311553
N137	N	1.248008	-0.501287	0.021781
N138	N	1.581341	-0.167953	0.355114
N139	N	0.914671	-0.772163	-0.311582
N140	N	1.248005	-0.438830	0.021752
N141	N	1.581338	-0.105496	0.355085
C142	C	0.909817	-0.740242	-0.380780
C143	C	1.243151	-0.406908	-0.047446
C144	C	1.576484	-0.073575	0.285887
C145	C	0.950102	-0.971195	-0.330130
C146	C	1.283435	-0.637861	0.003203
C147	C	1.616768	-0.304528	0.336536
C148	C	0.950096	-1.036939	-0.330095
C149	C	1.283430	-0.703605	0.003239
C150	C	1.616763	-0.370272	0.336572
C151	C	0.869544	-1.036913	-0.431189
C152	C	1.202877	-0.703580	-0.097856
C153	C	1.536210	-0.370246	0.235478
C154	C	0.869546	-0.971170	-0.431217
C155	C	1.202879	-0.637837	-0.097884
C156	C	1.536212	-0.304504	0.235449
C157	C	0.909828	-0.938315	-0.380689
C158	C	1.243161	-0.604982	-0.047356
C159	C	1.576495	-0.271649	0.285977
C160	C	1.073930	-0.303334	-0.380904
C161	C	1.407264	0.030000	-0.047571
C162	C	1.740597	0.363333	0.285763
C163	C	1.143898	-0.303342	-0.380913
C164	C	1.477232	0.029992	-0.047580
C165	C	1.810565	0.363325	0.285753
C166	C	0.909687	-0.303304	-0.586248
C167	C	1.243021	0.030029	-0.252915
C168	C	1.576354	0.363362	0.080418
C169	C	0.909722	-0.303321	-0.674105
C170	C	1.243056	0.030012	-0.340772
C171	C	1.576389	0.363346	-0.007438
C172	C	0.909724	-0.139764	-0.380842
C173	C	1.243058	0.193570	-0.047508
C174	C	1.576391	0.526903	0.285825
C175	C	0.909824	-0.069796	-0.380626
C176	C	1.243157	0.263537	-0.047293
C177	C	1.576491	0.596871	0.286041
C178	C	0.869550	-0.343568	-1.045601
C179	C	1.202883	-0.010234	-0.712268
C180	C	1.536217	0.323099	-0.378934
C181	C	0.950106	-0.263127	-1.045560
C182	C	1.283439	0.070207	-0.712227
C183	C	1.616772	0.403540	-0.378893
C184	C	0.950084	-0.263121	-0.963014
C185	C	1.283417	0.070212	-0.629681
C186	C	1.616750	0.403546	-0.296347
C187	C	0.909794	-0.303338	-0.921758
C188	C	1.243127	0.029995	-0.588424
C189	C	1.576460	0.363328	-0.255091
C190	C	0.869525	-0.343562	-0.963047
C191	C	1.202859	-0.010229	-0.629714
C192	C	1.536192	0.323105	-0.296381
C193	C	0.990347	-0.222894	-0.921718
C194	C	1.323680	0.110440	-0.588385
C195	C	1.657013	0.443773	-0.255052
C196	C	0.990326	-0.222886	-0.839167
C197	C	1.323659	0.110448	-0.505834
C198	C	1.656992	0.443781	-0.172501
C199	C	0.950038	-0.263107	-0.797910
C200	C	1.283372	0.070226	-0.464576
C201	C	1.616705	0.403560	-0.131243
C202	C	0.909769	-0.303333	-0.839204
C203	C	1.243102	0.030001	-0.505871
C204	C	1.576436	0.363334	-0.172538
C205	C	0.869479	-0.343550	-0.797948
C206	C	1.202812	-0.010217	-0.464615
C207	C	1.536145	0.323116	-0.131281
C208	C	0.829212	-0.383779	-0.839241
C209	C	1.162545	-0.050446	-0.505908
C210	C	1.495879	0.282887	-0.172574
C211	C	0.829238	-0.383783	-0.921790
C212	C	1.162571	-0.050450	-0.588456
C213	C	1.495904	0.282883	-0.255123
C214	C	0.950013	-0.263103	-0.715361
C215	C	1.283346	0.070230	-0.382028
C216	C	1.616679	0.403563	-0.048695
C217	C	0.869454	-0.343544	-0.715394
C218	C	1.202788	-0.010211	-0.382061
C219	C	1.536121	0.323122	-0.048728
C220	C	0.909810	-0.303340	-0.174714
C221	C	1.243144	0.029994	0.158620
C222	C	1.576477	0.363327	0.491953
C223	C	0.909840	-0.303350	-0.086857
C224	C	1.243173	0.029983	0.246476
C225	C	1.576507	0.363317	0.579809
H226	H	0.670128	-0.376221	-0.472717
H227	H	1.003461	-0.042888	-0.139383
H228	H	1.336794	0.290445	0.193950
H229	H	0.982904	-0.230380	-1.079156
H230	H	1.316238	0.102954	-0.745822
H231	H	1.649571	0.436287	-0.412489
N232	N	1.031502	-0.181813	-0.963852
N233	N	1.364835	0.151520	-0.630518
N234	N	1.698168	0.484854	-0.297185
N235	N	1.089584	-0.186029	-0.954580
N236	N	1.422917	0.147304	-0.621247
N237	N	1.756250	0.480637	-0.287913
H238	H	1.118651	-0.157012	-0.984337
H239	H	1.451984	0.176321	-0.651004
H240	H	1.785317	0.509655	-0.317671
N241	N	0.788066	-0.424860	-0.797082
N242	N	1.121399	-0.091526	-0.463749
N243	N	1.454733	0.241807	-0.130415
N244	N	0.810185	-0.464982	-0.750976
N245	N	1.143518	-0.131649	-0.417643
N246	N	1.476851	0.201684	-0.084309
H247	H	0.781127	-0.493994	-0.721197
H248	H	1.114460	-0.160661	-0.387864
H249	H	1.447793	0.172672	-0.054531
N250	N	0.991249	-1.070526	-0.278465
N251	N	1.324582	-0.737192	0.054868
N252	N	1.657915	-0.403859	0.388202
N253	N	1.031350	-1.107229	-0.306271
N254	N	1.364684	-0.773896	0.027063
N255	N	1.698017	-0.440562	0.360396
H256	H	1.060416	-1.130951	-0.269807
H257	H	1.393749	-0.797618	0.063526
H258	H	1.727083	-0.464285	0.396859
H259	H	0.836731	-0.543560	-0.472551
H260	H	1.170064	-0.210226	-0.139217
H261	H	1.503398	0.123107	0.194116
H262	H	0.796454	-0.416535	-0.955418
H263	H	1.129788	-0.083202	-0.622084
H264	H	1.463121	0.250132	-0.288751
N265	N	0.544060	-0.384571	-0.483208
N266	N	0.877393	-0.051238	-0.149875
N267	N	1.210726	0.282096	0.183458
N268	N	0.573425	-0.420449	-0.528402
N269	N	0.906758	-0.087116	-0.195069
N270	N	1.240091	0.246218	0.138264
H271	H	0.549727	-0.449452	-0.564926
H272	H	0.883060	-0.116118	-0.231593
H273	H	1.216393	0.217215	0.101740
N274	N	0.676911	-0.222056	-0.278544
N275	N	1.010244	0.111277	0.054789
N276	N	1.343577	0.444611	0.388123
N277	N	0.735608	-0.222055	-0.278547
N278	N	1.068941	0.111278	0.054787
N279	N	1.402274	0.444612	0.388120
H280	H	0.759321	-0.193057	-0.242033
H281	H	1.092654	0.140276	0.091301
H282	H	1.425988	0.473610	0.424634
N283	N	0.828429	-0.384660	-1.087787
N284	N	1.161762	-0.051326	-0.754454
N285	N	1.495095	0.282007	-0.421121
N286	N	0.828457	-0.384666	-1.161491
N287	N	1.161790	-0.051333	-0.828158
N288	N	1.495124	0.282001	-0.494824
H289	H	0.799416	-0.413688	-1.191287
H290	H	1.132749	-0.080355	-0.857954
H291	H	1.466082	0.252979	-0.524620
H292	H	0.269290	-0.376255	-0.472741
H293	H	0.602623	-0.042921	-0.139408
H294	H	0.935957	0.290412	0.193926
H295	H	0.550829	-0.230394	-0.289036
H296	H	0.884162	0.102940	0.044298
H297	H	1.217496	0.436273	0.377631
H298	H	0.836647	-0.376297	-0.681809
H299	H	1.169981	-0.042964	-0.348475
H300	H	1.503314	0.290370	-0.015142
H301	H	0.836748	-1.063668	-0.472325
H302	H	1.170081	-0.730335	-0.138991
H303	H	1.503414	-0.397002	0.194342
H304	H	1.023113	-0.190130	-0.805552
H305	H	1.356447	0.143203	-0.472218
H306	H	1.689780	0.476537	-0.138885
H307	H	0.982892	-0.543605	-0.289161
H308	H	1.316225	-0.210272	0.044172
H309	H	1.649558	0.123061	0.377505
N310	N	0.991234	-0.669678	-0.278622
N311	N	1.324567	-0.336345	0.054712
N312	N	1.657900	-0.003012	0.388045
N313	N	1.027192	-0.640336	-0.233508
N314	N	1.360525	-0.307003	0.099825
N315	N	1.693858	0.026331	0.433158
H316	H	1.056249	-0.664052	-0.197028
H317	H	1.389582	-0.330719	0.136305
H318	H	1.722915	0.002614	0.469638
N319	N	0.143171	-0.222098	-0.278572
N320	N	0.476504	0.111235	0.054762
N321	N	0.809838	0.444568	0.388095
N322	N	0.106512	-0.244320	-0.228244
N323	N	0.439846	0.089014	0.105090
N324	N	0.773179	0.422347	0.438423
H325	H	0.082792	-0.215335	-0.191713
H326	H	0.416125	0.117998	0.141620
H327	H	0.749459	0.451332	0.474953
H328	H	0.150026	-0.376264	-0.472750
H329	H	0.483360	-0.042931	-0.139416
H330	H	0.816693	0.290402	0.193917
H331	H	0.269259	-0.230413	-0.289065
H332	H	0.602592	0.102920	0.044268
H333	H	0.935926	0.436253	0.377602
N334	N	0.991137	-0.222006	-0.673194
N335	N	1.324470	0.111327	-0.339861
N336	N	1.657803	0.444661	-0.006527
N337	N	1.027101	-0.186096	-0.710039
N338	N	1.360435	0.147238	-0.376706
N339	N	1.693768	0.480571	-0.043372
H340	H	1.056148	-0.157068	-0.680260
H341	H	1.389481	0.176266	-0.346926
H342	H	1.722814	0.509599	-0.013593
H343	H	0.836744	-0.662830	-0.472500
H344	H	1.170077	-0.329497	-0.139167
H345	H	1.503410	0.003836	0.194167
H346	H	0.982898	-0.944443	-0.288983
H347	H	1.316232	-0.611109	0.044350
H348	H	1.649565	-0.277776	0.377684
H349	H	0.836752	-0.944401	-0.472387
H350	H	1.170085	-0.611067	-0.139054
H351	H	1.503418	-0.277734	0.194280
