data_functionalizedCrystal
_audit_creation_method	'MofGen! by Chris Wilmer'
_symmetry_space_group_name_H-M	'P1'
_symmetry_Int_Tables_number	1
_symmetry_cell_setting	triclinic
loop_
_symmetry_equiv_pos_as_xyz
  x,y,z
_cell_length_a	16.625548
_cell_length_b	25.639239
_cell_length_c	16.625548
_cell_angle_alpha	90.014267
_cell_angle_beta	90.008236
_cell_angle_gamma	90.039754
loop_
_atom_site_label
_atom_site_type_symbol
_atom_site_fract_x
_atom_site_fract_y
_atom_site_fract_z
Zn1	Zn	1.232491	-0.208223	0.455892
Zn2	Zn	1.732491	0.291777	0.955892
Zn3	Zn	1.232385	-0.295635	0.321053
Zn4	Zn	1.732385	0.204365	0.821053
Zn5	Zn	1.097682	-0.208217	0.321073
Zn6	Zn	1.597682	0.291783	0.821073
Zn7	Zn	1.097585	-0.295631	0.455843
Zn8	Zn	1.597585	0.204369	0.955843
O9	O	1.165036	-0.251926	0.388465
O10	O	1.665036	0.248074	0.888465
O11	O	1.345310	-0.219822	0.438018
O12	O	1.845310	0.280178	0.938018
O13	O	1.214513	-0.284038	0.208223
O14	O	1.714513	0.215962	0.708223
O15	O	1.115650	-0.135052	0.338987
O16	O	1.615650	0.364948	0.838987
O17	O	1.345232	-0.284043	0.338952
O18	O	1.845232	0.215957	0.838952
O19	O	1.214693	-0.135057	0.438038
O20	O	1.714693	0.364943	0.938038
O21	O	1.115547	-0.219812	0.208238
O22	O	1.615547	0.280188	0.708238
O23	O	0.984837	-0.219808	0.338938
O24	O	1.484837	0.280192	0.838938
O25	O	1.115485	-0.284036	0.568682
O26	O	1.615485	0.215964	1.068682
O27	O	0.984766	-0.284031	0.437953
O28	O	1.484766	0.215969	0.937953
O29	O	1.214600	-0.219818	0.568718
O30	O	1.714600	0.280182	1.068718
O31	O	1.214419	-0.368799	0.338904
O32	O	1.714419	0.131201	0.838904
O33	O	1.115382	-0.368796	0.437933
O34	O	1.615382	0.131204	0.937933
C35	C	0.955545	-0.251919	0.388443
C36	C	1.455545	0.248081	0.888443
C37	C	0.865924	-0.251928	0.388452
C38	C	1.365924	0.248072	0.888452
C39	C	1.164901	-0.387769	0.388428
C40	C	1.664901	0.112231	0.888428
C41	C	1.164916	-0.445883	0.388440
C42	C	1.664916	0.054117	0.888440
C43	C	0.537749	-0.251931	0.388487
C44	C	1.037749	0.248069	0.888487
C45	C	0.629057	-0.251929	0.388474
C46	C	1.129057	0.248071	0.888474
C47	C	0.701833	-0.251930	0.388469
C48	C	1.201833	0.248070	0.888469
C49	C	0.793148	-0.251927	0.388458
C50	C	1.293148	0.248073	0.888458
C51	C	1.216739	-0.806235	0.336988
C52	C	1.716739	-0.306235	0.836988
C53	C	1.216770	-0.860839	0.336999
C54	C	1.716770	-0.360839	0.836999
O55	O	1.260692	-0.889066	0.293213
O56	O	1.760692	-0.389066	0.793213
N57	N	1.165178	-0.888165	0.388519
N58	N	1.665178	-0.388165	0.888519
C59	C	1.113556	-0.860884	0.440036
C60	C	1.613556	-0.360884	0.940036
O61	O	1.069676	-0.889141	0.483859
O62	O	1.569676	-0.389141	0.983859
C63	C	1.113530	-0.806281	0.440029
C64	C	1.613530	-0.306281	0.940029
C65	C	1.165120	-0.778958	0.388501
C66	C	1.665120	-0.278958	0.888501
C67	C	1.268326	-0.778911	0.285465
C68	C	1.768326	-0.278911	0.785465
C69	C	1.268293	-0.724311	0.285453
C70	C	1.768293	-0.224311	0.785453
C71	C	1.216674	-0.697034	0.336965
C72	C	1.716674	-0.197034	0.836965
C73	C	1.165088	-0.724357	0.388489
C74	C	1.665088	-0.224357	0.888489
C75	C	1.061913	-0.779001	0.491550
C76	C	1.561913	-0.279001	0.991550
C77	C	1.061891	-0.724394	0.491539
C78	C	1.561891	-0.224394	0.991539
C79	C	1.113482	-0.697070	0.440011
C80	C	1.613482	-0.197070	0.940011
C81	C	1.113436	-0.642479	0.439989
C82	C	1.613436	-0.142479	0.939989
N83	N	1.165028	-0.615153	0.388470
N84	N	1.665028	-0.115153	0.888470
C85	C	1.216648	-0.642430	0.336958
C86	C	1.716648	-0.142430	0.836958
C87	C	1.113617	-0.975555	0.440049
C88	C	1.613617	-0.475555	0.940049
C89	C	1.113639	-1.030157	0.440053
C90	C	1.613639	-0.530157	0.940053
C91	C	1.216854	-1.030108	0.337016
C92	C	1.716854	-0.530108	0.837016
C93	C	1.216828	-0.975505	0.337009
C94	C	1.716828	-0.475505	0.837009
C95	C	1.165210	-0.948229	0.388529
C96	C	1.665210	-0.448229	0.888529
C97	C	1.216575	-0.527765	0.336937
C98	C	1.716575	-0.027765	0.836937
C99	C	1.216535	-0.473160	0.336927
C100	C	1.716535	0.026840	0.836927
C101	C	1.113323	-0.473214	0.439966
C102	C	1.613323	0.026786	0.939966
C103	C	1.113360	-0.527814	0.439973
C104	C	1.613360	-0.027814	0.939973
C105	C	1.164992	-0.555089	0.388456
C106	C	1.664992	-0.055089	0.888456
O107	O	1.069539	-0.614217	0.483755
O108	O	1.569539	-0.114217	0.983755
O109	O	1.260528	-0.614167	0.293150
O110	O	1.760528	-0.114167	0.793150
C111	C	1.375345	-0.251934	0.388488
C112	C	1.875345	0.248066	0.888488
C113	C	1.464966	-0.251937	0.388498
C114	C	1.964966	0.248063	0.888498
C115	C	1.165043	-0.251928	0.598774
C116	C	1.665043	0.248072	1.098774
C117	C	1.165046	-0.251928	0.688395
C118	C	1.665046	0.248072	1.188395
C119	C	1.165194	-0.115553	0.388520
C120	C	1.665194	0.384447	0.888520
C121	C	1.165262	-0.057439	0.388543
C122	C	1.665262	0.442561	0.888543
C123	C	1.165013	-0.251933	1.016571
C124	C	1.665013	0.248067	1.516571
C125	C	1.165020	-0.251933	0.925262
C126	C	1.665020	0.248067	1.425262
C127	C	1.165030	-0.251931	0.852486
C128	C	1.665030	0.248069	1.352486
C129	C	1.165036	-0.251931	0.761172
C130	C	1.665036	0.248069	1.261172
C131	C	1.165021	-0.251935	1.178974
C132	C	1.665021	0.248065	1.678974
C133	C	1.165013	-0.251931	1.089353
C134	C	1.665013	0.248069	1.589353
H135	H	1.258546	-0.450915	0.294964
H136	H	1.758546	0.049085	0.794964
H137	H	1.071622	-1.052399	0.482005
H138	H	1.571622	-0.552399	0.982005
H139	H	1.258621	-0.549966	0.294988
H140	H	1.758621	-0.049966	0.794988
O141	O	1.266906	-0.949022	0.286846
O142	O	1.766906	-0.449022	0.786846
C143	C	1.249336	-0.962386	0.206470
C144	C	1.749336	-0.462386	0.706470
H145	H	1.218355	-1.002050	0.204779
H146	H	1.718355	-0.502050	0.704779
H147	H	1.307556	-0.964229	0.170369
H148	H	1.807556	-0.464229	0.670369
H149	H	1.207892	-0.931686	0.179269
H150	H	1.707892	-0.431686	0.679269
H151	H	1.071577	-0.953349	0.482001
H152	H	1.571577	-0.453349	0.982001
O153	O	1.267032	-1.056692	0.287110
O154	O	1.767032	-0.556692	0.787110
C155	C	1.256004	-1.110744	0.298189
C156	C	1.756004	-0.610744	0.798189
H157	H	1.229474	-1.118187	0.360363
H158	H	1.729474	-0.618187	0.860363
H159	H	1.316436	-1.131441	0.292881
H160	H	1.816436	-0.631441	0.792881
H161	H	1.213186	-1.126311	0.250284
H162	H	1.713186	-0.626311	0.750284
H163	H	1.310365	-0.801115	0.243517
H164	H	1.810365	-0.301115	0.743517
O165	O	1.318453	-0.697714	0.235517
O166	O	1.818453	-0.197714	0.735517
C167	C	1.370494	-0.666096	0.281467
C168	C	1.870494	-0.166096	0.781467
H169	H	1.342002	-0.657915	0.342541
H170	H	1.842002	-0.157915	0.842541
H171	H	1.381315	-0.627701	0.248624
H172	H	1.881315	-0.127701	0.748624
H173	H	1.430247	-0.687102	0.290391
H174	H	1.930247	-0.187102	0.790391
O175	O	1.011775	-0.805453	0.541685
O176	O	1.511775	-0.305453	1.041685
C177	C	0.966206	-0.769658	0.587131
C178	C	1.466206	-0.269658	1.087131
H179	H	0.999217	-0.730714	0.589932
H180	H	1.499217	-0.230714	1.089932
H181	H	0.957569	-0.785417	0.650660
H182	H	1.457569	-0.285417	1.150660
H183	H	0.904986	-0.763897	0.557553
H184	H	1.404986	-0.263897	1.057553
H185	H	1.019858	-0.702188	0.533496
H186	H	1.519858	-0.202188	1.033496
H187	H	1.071353	-0.550062	0.481934
H188	H	1.571353	-0.050062	0.981934
O189	O	1.063303	-0.446685	0.490091
O190	O	1.563303	0.053315	0.990091
C191	C	1.109167	-0.415049	0.542179
C192	C	1.609167	0.084951	1.042179
H193	H	1.172672	-0.431467	0.547215
H194	H	1.672672	0.068533	1.047215
H195	H	1.079965	-0.414426	0.604208
H196	H	1.579965	0.085574	1.104208
H197	H	1.111949	-0.373672	0.517236
H198	H	1.611949	0.126328	1.017236
