data_functionalizedCrystal
_audit_creation_method	'MofGen! by Chris Wilmer'
_symmetry_space_group_name_H-M	'P1'
_symmetry_Int_Tables_number	1
_symmetry_cell_setting	triclinic
loop_
_symmetry_equiv_pos_as_xyz
  x,y,z
_cell_length_a	18.215407
_cell_length_b	18.215405
_cell_length_c	18.215399
_cell_angle_alpha	89.970580
_cell_angle_beta	90.020595
_cell_angle_gamma	89.976259
loop_
_atom_site_label
_atom_site_type_symbol
_atom_site_fract_x
_atom_site_fract_y
_atom_site_fract_z
Zn1	Zn	-1.125077	-0.292993	-0.416123
Zn2	Zn	-0.791744	0.040340	-0.082790
Zn3	Zn	-0.458411	0.373673	0.250543
Zn4	Zn	-1.124988	-0.416065	-0.293054
Zn5	Zn	-0.791655	-0.082731	0.040279
Zn6	Zn	-0.458321	0.250602	0.373613
Zn7	Zn	-1.002010	-0.293016	-0.293069
Zn8	Zn	-0.668677	0.040317	0.040264
Zn9	Zn	-0.335343	0.373650	0.373598
Zn10	Zn	-1.001978	-0.416023	-0.416077
Zn11	Zn	-0.668645	-0.082689	-0.082744
Zn12	Zn	-0.335311	0.250644	0.250590
O13	O	-1.063513	-0.354524	-0.354581
O14	O	-0.730180	-0.021191	-0.021248
O15	O	-0.396847	0.312142	0.312086
O16	O	-1.228050	-0.309327	-0.399811
O17	O	-0.894716	0.024006	-0.066478
O18	O	-0.561383	0.357340	0.266856
O19	O	-1.108651	-0.399769	-0.190072
O20	O	-0.775317	-0.066436	0.143262
O21	O	-0.441984	0.266897	0.476595
O22	O	-1.018386	-0.190029	-0.309418
O23	O	-0.685052	0.143304	0.023915
O24	O	-0.351719	0.476638	0.357249
O25	O	-1.227984	-0.399747	-0.309392
O26	O	-0.894651	-0.066414	0.023941
O27	O	-0.561318	0.266920	0.357274
O28	O	-1.108803	-0.190012	-0.399826
O29	O	-0.775470	0.143321	-0.066492
O30	O	-0.442136	0.476655	0.266841
O31	O	-1.018299	-0.309366	-0.190083
O32	O	-0.684966	0.023967	0.143251
O33	O	-0.351633	0.357301	0.476584
O34	O	-0.899021	-0.309325	-0.309373
O35	O	-0.565688	0.024008	0.023960
O36	O	-0.232355	0.357341	0.357293
O37	O	-1.018332	-0.399675	-0.519068
O38	O	-0.684998	-0.066342	-0.185734
O39	O	-0.351665	0.266991	0.147599
O40	O	-0.898998	-0.399697	-0.399747
O41	O	-0.565665	-0.066364	-0.066414
O42	O	-0.232331	0.266969	0.266920
O43	O	-1.108772	-0.309286	-0.519102
O44	O	-0.775439	0.024047	-0.185768
O45	O	-0.442105	0.357380	0.147565
O46	O	-1.108620	-0.519043	-0.309347
O47	O	-0.775287	-0.185710	0.023986
O48	O	-0.441953	0.147623	0.357319
O49	O	-1.018245	-0.519012	-0.399732
O50	O	-0.684912	-0.185679	-0.066399
O51	O	-0.351578	0.147654	0.266935
C52	C	-0.872307	-0.354510	-0.354557
C53	C	-0.538974	-0.021177	-0.021224
C54	C	-0.205640	0.312157	0.312109
C55	C	-0.790508	-0.354521	-0.354565
C56	C	-0.457175	-0.021188	-0.021231
C57	C	-0.123842	0.312145	0.312102
C58	C	-1.063439	-0.545731	-0.354549
C59	C	-0.730106	-0.212397	-0.021216
C60	C	-0.396773	0.120936	0.312117
C61	C	-1.063475	-0.627529	-0.354560
C62	C	-0.730142	-0.294196	-0.021227
C63	C	-0.396808	0.039137	0.312106
C64	C	-0.602321	-0.401650	-0.401560
C65	C	-0.268988	-0.068317	-0.068227
C66	C	0.064345	0.265016	0.265106
C67	C	-0.525463	-0.401652	-0.401569
C68	C	-0.192129	-0.068319	-0.068235
C69	C	0.141204	0.265015	0.265098
C70	C	-0.525457	-0.307402	-0.307604
C71	C	-0.192124	0.025931	0.025729
C72	C	0.141209	0.359265	0.359063
C73	C	-0.602315	-0.307397	-0.307600
C74	C	-0.268981	0.025936	0.025733
C75	C	0.064352	0.359269	0.359067
C76	C	-0.640745	-0.354526	-0.354577
C77	C	-0.307411	-0.021192	-0.021244
C78	C	0.025922	0.312141	0.312089
C79	C	-0.487029	-0.354532	-0.354589
C80	C	-0.153695	-0.021199	-0.021256
C81	C	0.179638	0.312135	0.312077
C82	C	-0.403695	-0.354533	-0.354598
C83	C	-0.070362	-0.021200	-0.021264
C84	C	0.262972	0.312133	0.312069
C85	C	-0.724084	-0.354524	-0.354570
C86	C	-0.390750	-0.021190	-0.021237
C87	C	-0.057417	0.312143	0.312097
C88	C	-0.255466	-0.354537	-0.354602
C89	C	0.077867	-0.021204	-0.021268
C90	C	0.411200	0.312130	0.312065
C91	C	-0.337265	-0.354536	-0.354602
C92	C	-0.003932	-0.021203	-0.021269
C93	C	0.329401	0.312130	0.312065
C94	C	-1.110671	-0.892579	-0.307596
C95	C	-0.777338	-0.559245	0.025737
C96	C	-0.444004	-0.225912	0.359070
C97	C	-1.110641	-0.815720	-0.307580
C98	C	-0.777307	-0.482387	0.025754
C99	C	-0.443974	-0.149053	0.359087
C100	C	-1.016447	-0.815729	-0.401615
C101	C	-0.683114	-0.482395	-0.068282
C102	C	-0.349780	-0.149062	0.265052
C103	C	-1.016474	-0.892586	-0.401628
C104	C	-0.683141	-0.559253	-0.068294
C105	C	-0.349807	-0.225919	0.265039
C106	C	-1.063590	-0.931009	-0.354619
C107	C	-0.730257	-0.597676	-0.021286
C108	C	-0.396924	-0.264342	0.312047
C109	C	-1.063533	-0.777293	-0.354590
C110	C	-0.730199	-0.443960	-0.021257
C111	C	-0.396866	-0.110626	0.312077
C112	C	-1.063500	-0.693959	-0.354572
C113	C	-0.730166	-0.360626	-0.021239
C114	C	-0.396833	-0.027293	0.312095
C115	C	-1.063623	-1.014348	-0.354636
C116	C	-0.730289	-0.681015	-0.021303
C117	C	-0.396956	-0.347681	0.312031
C118	C	-1.063558	-0.354473	-0.546534
C119	C	-0.730225	-0.021140	-0.213201
C120	C	-0.396892	0.312193	0.120133
C121	C	-1.063577	-0.354452	-0.628333
C122	C	-0.730244	-0.021119	-0.294999
C123	C	-0.396911	0.312215	0.038334
C124	C	-1.063608	-0.162571	-0.354629
C125	C	-0.730275	0.170762	-0.021295
C126	C	-0.396941	0.504095	0.312038
C127	C	-1.063648	-0.080772	-0.354649
C128	C	-0.730315	0.252561	-0.021316
C129	C	-0.396981	0.585894	0.312018
C130	C	-1.110687	-0.307342	-0.816546
C131	C	-0.777353	0.025991	-0.483212
C132	C	-0.444020	0.359324	-0.149879
C133	C	-1.110695	-0.307321	-0.893404
C134	C	-0.777362	0.026013	-0.560071
C135	C	-0.444029	0.359346	-0.226738
C136	C	-1.016520	-0.401448	-0.893358
C137	C	-0.683187	-0.068114	-0.560025
C138	C	-0.349853	0.265219	-0.226691
C139	C	-1.016508	-0.401465	-0.816500
C140	C	-0.683175	-0.068131	-0.483167
C141	C	-0.349841	0.265202	-0.149834
C142	C	-1.063596	-0.354413	-0.778096
C143	C	-0.730262	-0.021080	-0.444763
C144	C	-0.396929	0.312253	-0.111430
C145	C	-1.063616	-0.354375	-0.931813
C146	C	-0.730283	-0.021041	-0.598479
C147	C	-0.396950	0.312292	-0.265146
C148	C	-1.063625	-0.354352	-1.015146
C149	C	-0.730292	-0.021018	-0.681813
C150	C	-0.396959	0.312315	-0.348480
C151	C	-1.063586	-0.354435	-0.694757
C152	C	-0.730252	-0.021102	-0.361424
C153	C	-0.396919	0.312232	-0.028091
C154	C	-1.063511	-0.354522	-0.163375
C155	C	-0.730178	-0.021188	0.169959
C156	C	-0.396844	0.312145	0.503292
C157	C	-1.063635	-0.354336	-0.081576
C158	C	-0.730301	-0.021003	0.251757
C159	C	-0.396968	0.312331	0.585091
H160	H	-0.633609	-0.440024	-0.439814
H161	H	-0.300275	-0.106690	-0.106481
H162	H	0.033058	0.226643	0.226853
H163	H	-0.633600	-0.269018	-0.269341
H164	H	-0.300267	0.064315	0.063993
H165	H	0.033067	0.397649	0.397326
H166	H	-0.494158	-0.269033	-0.269356
H167	H	-0.160825	0.064300	0.063978
H168	H	0.172508	0.397634	0.397311
H169	H	-1.149026	-0.269028	-0.785279
H170	H	-0.815693	0.064306	-0.451946
H171	H	-0.482360	0.397639	-0.118613
H172	H	-1.149035	-0.923860	-0.269319
H173	H	-0.815702	-0.590527	0.064015
H174	H	-0.482369	-0.257194	0.397348
H175	H	-1.148977	-0.784432	-0.269288
H176	H	-0.815644	-0.451099	0.064045
H177	H	-0.482310	-0.117765	0.397378
H178	H	-0.494182	-0.440025	-0.439828
H179	H	-0.160848	-0.106691	-0.106495
H180	H	0.172485	0.226642	0.226839
H181	H	-0.978132	-0.923877	-0.439921
H182	H	-0.644799	-0.590543	-0.106588
H183	H	-0.311466	-0.257210	0.226746
H184	H	-0.978087	-0.784437	-0.439889
H185	H	-0.644754	-0.451104	-0.106556
H186	H	-0.311420	-0.117770	0.226777
H187	H	-1.149040	-0.268990	-0.924706
H188	H	-0.815707	0.064344	-0.591373
H189	H	-0.482374	0.397677	-0.258040
H190	H	-0.978185	-0.439757	-0.924636
H191	H	-0.644851	-0.106424	-0.591303
H192	H	-0.311518	0.226910	-0.257969
H193	H	-0.978156	-0.439795	-0.785194
H194	H	-0.644822	-0.106462	-0.451861
H195	H	-0.311489	0.226872	-0.118528
