data_functionalizedCrystal
_audit_creation_method	'MofGen! by Chris Wilmer'
_symmetry_space_group_name_H-M	'P1'
_symmetry_Int_Tables_number	1
_symmetry_cell_setting	triclinic
loop_
_symmetry_equiv_pos_as_xyz
  x,y,z
_cell_length_a	18.050591
_cell_length_b	19.077068
_cell_length_c	19.077174
_cell_angle_alpha	85.342852
_cell_angle_beta	87.678658
_cell_angle_gamma	87.676702
loop_
_atom_site_label
_atom_site_type_symbol
_atom_site_fract_x
_atom_site_fract_y
_atom_site_fract_z
Zn1	Zn	1.140100	0.296758	-0.409971
Zn2	Zn	1.390100	0.546758	-0.159971
Zn3	Zn	1.640100	0.796758	0.090029
Zn4	Zn	1.890100	1.046758	0.340029
Zn5	Zn	1.130417	0.409912	-0.296814
Zn6	Zn	1.380417	0.659912	-0.046814
Zn7	Zn	1.630417	0.909912	0.203186
Zn8	Zn	1.880417	1.159912	0.453186
Zn9	Zn	1.011121	0.292035	-0.292087
Zn10	Zn	1.261121	0.542035	-0.042087
Zn11	Zn	1.511121	0.792035	0.207913
Zn12	Zn	1.761121	1.042035	0.457913
Zn13	Zn	1.011071	0.414599	-0.414646
Zn14	Zn	1.261071	0.664599	-0.164646
Zn15	Zn	1.511071	0.914599	0.085354
Zn16	Zn	1.761071	1.164599	0.335354
O17	O	1.073177	0.353326	-0.353379
O18	O	1.323177	0.603326	-0.103379
O19	O	1.573177	0.853326	0.146621
O20	O	1.823177	1.103326	0.396621
O21	O	1.242740	0.311783	-0.394982
O22	O	1.492740	0.561783	-0.144982
O23	O	1.742740	0.811783	0.105018
O24	O	1.992740	1.061783	0.355018
O25	O	1.110560	0.390337	-0.197538
O26	O	1.360560	0.640337	0.052462
O27	O	1.610560	0.890337	0.302462
O28	O	1.860560	1.140337	0.552462
O29	O	1.032303	0.194012	-0.303789
O30	O	1.282303	0.444012	-0.053789
O31	O	1.532303	0.694012	0.196211
O32	O	1.782303	0.944012	0.446211
O33	O	1.235626	0.394917	-0.311846
O34	O	1.485626	0.644917	-0.061846
O35	O	1.735626	0.894917	0.188154
O36	O	1.985626	1.144917	0.438154
O37	O	1.127064	0.197483	-0.390399
O38	O	1.377064	0.447483	-0.140399
O39	O	1.627064	0.697483	0.109601
O40	O	1.877064	0.947483	0.359601
O41	O	1.022914	0.303733	-0.194065
O42	O	1.272914	0.553733	0.055935
O43	O	1.522914	0.803733	0.305935
O44	O	1.772914	1.053733	0.555935
O45	O	0.907189	0.308278	-0.308323
O46	O	1.157189	0.558278	-0.058323
O47	O	1.407189	0.808278	0.191677
O48	O	1.657189	1.058278	0.441677
O49	O	1.032219	0.402905	-0.512674
O50	O	1.282219	0.652905	-0.262674
O51	O	1.532219	0.902905	-0.012674
O52	O	1.782219	1.152905	0.237326
O53	O	0.907153	0.398325	-0.398366
O54	O	1.157153	0.648325	-0.148366
O55	O	1.407153	0.898325	0.101634
O56	O	1.657153	1.148325	0.351634
O57	O	1.127016	0.316328	-0.509240
O58	O	1.377016	0.566328	-0.259240
O59	O	1.627016	0.816328	-0.009240
O60	O	1.877016	1.066328	0.240760
O61	O	1.110512	0.509183	-0.316379
O62	O	1.360512	0.759183	-0.066379
O63	O	1.610512	1.009183	0.183621
O64	O	1.860512	1.259183	0.433621
O65	O	1.022829	0.512626	-0.402950
O66	O	1.272829	0.762626	-0.152950
O67	O	1.522829	1.012626	0.097050
O68	O	1.772829	1.262626	0.347050
C69	C	0.880224	0.353298	-0.353339
C70	C	1.130224	0.603298	-0.103339
C71	C	1.380224	0.853298	0.146661
C72	C	1.630224	1.103298	0.396661
C73	C	0.797678	0.353304	-0.353340
C74	C	1.047678	0.603304	-0.103340
C75	C	1.297678	0.853304	0.146660
C76	C	1.547678	1.103304	0.396660
C77	C	1.065635	0.536484	-0.360700
C78	C	1.315635	0.786484	-0.110700
C79	C	1.565635	1.036484	0.139300
C80	C	1.815635	1.286484	0.389300
C81	C	1.062478	0.614840	-0.363856
C82	C	1.312478	0.864840	-0.113856
C83	C	1.562478	1.114840	0.136144
C84	C	1.812478	1.364840	0.386144
C85	C	1.080692	0.360666	-0.537251
C86	C	1.330692	0.610666	-0.287251
C87	C	1.580692	0.860666	-0.037251
C88	C	1.830692	1.110666	0.212749
C89	C	1.083894	0.363795	-0.615606
C90	C	1.333894	0.613795	-0.365606
C91	C	1.583894	0.863795	-0.115606
C92	C	1.833894	1.113795	0.134394
C93	C	0.598233	0.304286	-0.304480
C94	C	0.848233	0.554286	-0.054480
C95	C	1.098233	0.804286	0.195520
C96	C	1.348233	1.054286	0.445520
C97	C	0.545491	0.367888	-0.289711
C98	C	0.795491	0.617888	-0.039711
C99	C	1.045491	0.867888	0.210289
C100	C	1.295491	1.117888	0.460289
C101	C	0.646548	0.353327	-0.353372
C102	C	0.896548	0.603327	-0.103372
C103	C	1.146548	0.853327	0.146628
C104	C	1.396548	1.103327	0.396628
C105	C	0.552207	0.289746	-0.368141
C106	C	0.802207	0.539746	-0.118141
C107	C	1.052207	0.789746	0.131859
C108	C	1.302207	1.039746	0.381859
C109	C	0.500564	0.353343	-0.353402
C110	C	0.750564	0.603343	-0.103402
C111	C	1.000564	0.853343	0.146598
C112	C	1.250564	1.103343	0.396598
C113	C	0.594891	0.416961	-0.338571
C114	C	0.844891	0.666961	-0.088571
C115	C	1.094891	0.916961	0.161429
C116	C	1.344891	1.166961	0.411429
C117	C	0.601615	0.338777	-0.417029
C118	C	0.851615	0.588777	-0.167029
C119	C	1.101615	0.838777	0.082971
C120	C	1.351615	1.088777	0.332971
C121	C	0.548895	0.402425	-0.402286
C122	C	0.798895	0.652425	-0.152286
C123	C	1.048895	0.902425	0.097714
C124	C	1.298895	1.152425	0.347714
C125	C	0.730646	0.353316	-0.353353
C126	C	0.980646	0.603316	-0.103353
C127	C	1.230646	0.853316	0.146647
C128	C	1.480646	1.103316	0.396647
C129	C	0.416467	0.353360	-0.353422
C130	C	0.666467	0.603360	-0.103422
C131	C	0.916467	0.853360	0.146578
C132	C	1.166467	1.103360	0.396578
C133	C	1.266883	0.353354	-0.353420
C134	C	1.516883	0.603354	-0.103420
C135	C	1.766883	0.853354	0.146580
C136	C	2.016883	1.103354	0.396580
C137	C	1.349429	0.353367	-0.353437
C138	C	1.599429	0.603367	-0.103437
C139	C	1.849429	0.853367	0.146563
C140	C	2.099429	1.103367	0.396563
C141	C	1.080769	0.169454	-0.346045
C142	C	1.330769	0.419454	-0.096045
C143	C	1.580769	0.669454	0.153955
C144	C	1.830769	0.919454	0.403955
C145	C	1.084004	0.091098	-0.342920
C146	C	1.334004	0.341098	-0.092920
C147	C	1.584004	0.591098	0.157080
C148	C	1.834004	0.841098	0.407080
C149	C	1.106684	0.649838	-0.320303
C150	C	1.356684	0.899838	-0.070303
C151	C	1.606684	1.149838	0.179697
C152	C	1.856684	1.399838	0.429697
C153	C	1.103719	0.723462	-0.323275
C154	C	1.353719	0.973462	-0.073275
C155	C	1.603719	1.223462	0.176725
C156	C	1.853719	1.473462	0.426725
C157	C	1.056543	0.762088	-0.369797
C158	C	1.306543	1.012088	-0.119797
C159	C	1.556543	1.262088	0.130203
C160	C	1.806543	1.512088	0.380203
C161	C	1.012335	0.727086	-0.413354
C162	C	1.262335	0.977086	-0.163354
C163	C	1.512335	1.227086	0.086646
C164	C	1.762335	1.477086	0.336646
C165	C	1.015304	0.653463	-0.410386
C166	C	1.265304	0.903463	-0.160386
C167	C	1.515304	1.153463	0.089614
C168	C	1.765304	1.403463	0.339614
C169	C	1.042766	0.982473	-0.383509
C170	C	1.292766	1.232473	-0.133509
C171	C	1.542766	1.482473	0.116491
C172	C	1.792766	1.732473	0.366491
C173	C	1.039798	1.056101	-0.386473
C174	C	1.289798	1.306101	-0.136473
C175	C	1.539798	1.556101	0.113527
C176	C	1.789798	1.806101	0.363527
C177	C	1.131184	1.052472	-0.296394
C178	C	1.381184	1.302472	-0.046394
C179	C	1.631184	1.552472	0.203606
C180	C	1.881184	1.802472	0.453606
C181	C	1.134146	0.978848	-0.293426
C182	C	1.384146	1.228848	-0.043426
C183	C	1.634146	1.478848	0.206574
C184	C	1.884146	1.728848	0.456574
C185	C	1.089940	0.943852	-0.336986
C186	C	1.339940	1.193852	-0.086986
C187	C	1.589940	1.443852	0.163014
C188	C	1.839940	1.693852	0.413014
N189	N	1.053509	0.837344	-0.372834
N190	N	1.303509	1.087344	-0.122834
N191	N	1.553509	1.337344	0.127166
N192	N	1.803509	1.587344	0.377166
N193	N	1.092979	0.868597	-0.333952
N194	N	1.342979	1.118597	-0.083952
N195	N	1.592979	1.368597	0.166048
N196	N	1.842979	1.618597	0.416048
C197	C	1.039768	0.320175	-0.650608
C198	C	1.289768	0.570175	-0.400608
C199	C	1.539768	0.820175	-0.150608
C200	C	1.789768	1.070175	0.099392
C201	C	1.042774	0.323120	-0.724231
C202	C	1.292774	0.573120	-0.474231
C203	C	1.542774	0.823120	-0.224231
C204	C	1.792774	1.073120	0.025769
C205	C	1.089911	0.369682	-0.762850
C206	C	1.339911	0.619682	-0.512850
C207	C	1.589911	0.869682	-0.262850
C208	C	1.839911	1.119682	-0.012850
C209	C	1.134039	0.413306	-0.727843
C210	C	1.384039	0.663306	-0.477843
C211	C	1.634039	0.913306	-0.227843
C212	C	1.884039	1.163306	0.022157
C213	C	1.131028	0.410364	-0.654221
C214	C	1.381028	0.660364	-0.404221
C215	C	1.631028	0.910364	-0.154221
C216	C	1.881028	1.160364	0.095779
C217	C	1.103803	0.383319	-0.983230
C218	C	1.353803	0.633319	-0.733230
C219	C	1.603803	0.883319	-0.483230
C220	C	1.853803	1.133319	-0.233230
C221	C	1.106812	0.386256	-1.056856
C222	C	1.356812	0.636256	-0.806856
C223	C	1.606812	0.886256	-0.556856
C224	C	1.856812	1.136256	-0.306856
C225	C	1.015546	0.296071	-1.053240
C226	C	1.265546	0.546071	-0.803240
C227	C	1.515546	0.796071	-0.553240
C228	C	1.765546	1.046071	-0.303240
C229	C	1.012543	0.293130	-0.979617
C230	C	1.262543	0.543130	-0.729617
C231	C	1.512543	0.793130	-0.479617
C232	C	1.762543	1.043130	-0.229617
C233	C	1.056668	0.336757	-0.944616
C234	C	1.306668	0.586757	-0.694616
C235	C	1.556668	0.836757	-0.444616
C236	C	1.806668	1.086757	-0.194616
N237	N	1.092986	0.372692	-0.838105
N238	N	1.342986	0.622692	-0.588105
N239	N	1.592986	0.872692	-0.338105
N240	N	1.842986	1.122692	-0.088105
N241	N	1.053588	0.333750	-0.869363
N242	N	1.303588	0.583750	-0.619363
N243	N	1.553588	0.833750	-0.369363
N244	N	1.803588	1.083750	-0.119363
C245	C	1.065736	0.345963	-0.170221
C246	C	1.315736	0.595963	0.079779
C247	C	1.565736	0.845963	0.329779
C248	C	1.815736	1.095963	0.579779
C249	C	1.062686	0.342636	-0.091859
C250	C	1.312686	0.592636	0.158141
C251	C	1.562686	0.842636	0.408141
C252	C	1.812686	1.092636	0.658141
H253	H	0.619891	0.262855	-0.263092
H254	H	0.869891	0.512855	-0.013092
H255	H	1.119891	0.762855	0.236908
H256	H	1.369891	1.012855	0.486908
H257	H	0.520949	0.380206	-0.235890
H258	H	0.770949	0.630206	0.014110
H259	H	1.020949	0.880206	0.264110
H260	H	1.270949	1.130206	0.514110
H261	H	1.139725	0.418851	-0.954741
H262	H	1.389725	0.668851	-0.704741
H263	H	1.639725	0.918851	-0.454741
H264	H	1.889725	1.168851	-0.204741
F265	F	1.178230	1.089723	-0.250040
F266	F	1.428230	1.339723	-0.000040
F267	F	1.678230	1.589723	0.249960
F268	F	1.928230	1.839723	0.499960
H269	H	0.979621	0.260553	-1.081746
H270	H	1.229621	0.510553	-0.831746
H271	H	1.479621	0.760553	-0.581746
H272	H	1.729621	1.010553	-0.331746
F273	F	0.989576	1.097208	-0.435983
F274	F	1.239576	1.347208	-0.185983
F275	F	1.489576	1.597208	0.064017
F276	F	1.739576	1.847208	0.314017
H277	H	0.979308	0.624968	-0.445852
H278	H	1.229308	0.874968	-0.195852
H279	H	1.479308	1.124968	0.054148
H280	H	1.729308	1.374968	0.304148
F281	F	0.962130	0.768196	-0.462871
F282	F	1.212130	1.018196	-0.212871
F283	F	1.462130	1.268196	0.037129
F284	F	1.712130	1.518196	0.287129
H285	H	1.006770	0.953985	-0.418976
H286	H	1.256770	1.203985	-0.168976
H287	H	1.506770	1.453985	0.081024
H288	H	1.756770	1.703985	0.331024
F289	F	0.995780	0.276720	-0.761481
F290	F	1.245780	0.526720	-0.511481
F291	F	1.495780	0.776720	-0.261481
F292	F	1.745780	1.026720	-0.011481
H293	H	1.139716	0.751954	-0.287809
H294	H	1.389716	1.001954	-0.037809
H295	H	1.639716	1.251954	0.212191
H296	H	1.889716	1.501954	0.462191
H297	H	1.145199	0.424173	-1.088298
H298	H	1.395199	0.674173	-0.838298
H299	H	1.645199	0.924173	-0.588298
H300	H	1.895199	1.174173	-0.338298
H301	H	0.533307	0.235977	-0.380596
H302	H	0.783307	0.485977	-0.130596
H303	H	1.033307	0.735977	0.119404
H304	H	1.283307	0.985977	0.369404
F305	F	1.184200	0.462865	-0.768946
F306	F	1.434200	0.712865	-0.518946
F307	F	1.684200	0.962865	-0.268946
F308	F	1.934200	1.212865	-0.018946
F309	F	0.520755	0.456699	-0.456349
F310	F	0.770755	0.706699	-0.206349
F311	F	1.020755	0.956699	0.043651
F312	F	1.270755	1.206699	0.293651
H313	H	1.166966	0.445879	-0.625723
H314	H	1.416966	0.695879	-0.375723
H315	H	1.666966	0.945879	-0.125723
H316	H	1.916966	1.195879	0.124277
F317	F	0.989602	0.270614	-0.609513
F318	F	1.239602	0.520614	-0.359513
F319	F	1.489602	0.770614	-0.109513
F320	F	1.739602	1.020614	0.140487
H321	H	0.613658	0.470751	-0.326032
H322	H	0.863658	0.720751	-0.076032
H323	H	1.113658	0.970751	0.173968
H324	H	1.363658	1.220751	0.423968
F325	F	0.962375	0.243571	-0.938521
F326	F	1.212375	0.493571	-0.688521
F327	F	1.462375	0.743571	-0.438521
F328	F	1.712375	0.993571	-0.188521
H329	H	0.626175	0.326439	-0.470832
H330	H	0.876175	0.576439	-0.220832
H331	H	1.126175	0.826439	0.029168
H332	H	1.376175	1.076439	0.279168
F333	F	1.156892	0.608735	-0.270783
F334	F	1.406892	0.858735	-0.020783
F335	F	1.656892	1.108735	0.229217
F336	F	1.906892	1.358735	0.479217
H337	H	1.172560	0.947400	-0.255544
H338	H	1.422560	1.197400	-0.005544
H339	H	1.672560	1.447400	0.244456
H340	H	1.922560	1.697400	0.494456
