data_functionalizedCrystal
_audit_creation_method	'MofGen! by Chris Wilmer'
_symmetry_space_group_name_H-M	'P1'
_symmetry_Int_Tables_number	1
_symmetry_cell_setting	triclinic
loop_
_symmetry_equiv_pos_as_xyz
  x,y,z
_cell_length_a	10.489741
_cell_length_b	9.565339
_cell_length_c	10.723023
_cell_angle_alpha	90.002568
_cell_angle_beta	84.503361
_cell_angle_gamma	89.997686
loop_
_atom_site_label
_atom_site_type_symbol
_atom_site_fract_x
_atom_site_fract_y
_atom_site_fract_z
O1	O	1.693943	-0.116170	0.176052
O2	O	1.322736	-0.116192	0.192578
O3	O	1.516903	-0.116175	0.002744
O4	O	1.499777	-0.116187	0.365886
O5	O	1.516881	0.116345	0.002761
O6	O	1.322715	0.116328	0.192595
O7	O	1.693922	0.116350	0.176069
Zn8	Zn	1.508315	0.153257	0.184335
Zn9	Zn	1.508343	-0.153098	0.184312
O10	O	1.499756	0.116333	0.365903
C11	C	1.275195	0.000066	0.191338
C12	C	1.133568	0.000058	0.187604
C13	C	1.065505	0.000075	0.066818
C14	C	0.973352	-0.114569	0.123868
C15	C	0.973366	0.114678	0.123913
C16	C	1.043280	-0.114681	0.244703
C17	C	1.043303	0.114669	0.244732
C18	C	0.951177	-0.000003	0.301869
N19	N	1.508305	0.362336	0.184349
C20	C	1.418480	0.453531	0.272114
C21	C	1.533959	0.546716	0.297366
C22	C	1.392870	0.546707	0.159113
C23	C	1.623842	0.453469	0.209659
C24	C	1.482678	0.453452	0.071356
C25	C	1.598239	0.546594	0.096561
C26	C	1.741463	0.000090	0.177308
C27	C	1.883090	0.000089	0.181043
C28	C	1.515646	0.000084	-0.043748
C29	C	1.511918	0.000079	-0.182305
N30	N	1.508338	0.637822	0.184311
C31	C	1.510267	-0.120375	-0.244080
C32	C	1.506413	-0.120383	-0.387286
C33	C	1.501012	0.000071	0.412395
C34	C	1.504740	0.000067	0.550951
H35	H	1.074084	-0.211712	0.295763
H36	H	1.505000	-0.223508	-0.440412
O37	O	1.124776	-0.000306	-0.051671
C38	C	1.156510	-0.121568	-0.249184
C39	C	1.089322	-0.121317	-0.115027
H40	H	1.127850	-0.219380	-0.300454
H41	H	1.264735	-0.120668	-0.245290
H42	H	1.126616	-0.024773	-0.301154
H43	H	1.119112	-0.218096	-0.062980
H44	H	0.981110	-0.122145	-0.119011
O45	O	0.936541	-0.230342	0.063013
C46	C	0.931977	-0.482094	0.056619
C47	C	0.973749	-0.351105	0.125650
H48	H	0.962018	-0.579763	0.107248
H49	H	0.979436	-0.482057	-0.043576
H50	H	0.823456	-0.481426	0.055124
H51	H	1.082254	-0.351687	0.127241
H52	H	0.926196	-0.351192	0.225809
H53	H	1.460942	0.412454	-0.024154
O54	O	1.510372	0.123194	-0.245565
C55	C	1.619619	0.339773	-0.298867
C56	C	1.621519	0.200410	-0.227145
H57	H	1.709485	0.402229	-0.284022
H58	H	1.531247	0.402408	-0.262706
H59	H	1.616752	0.317806	-0.403055
H60	H	1.624432	0.222251	-0.122946
H61	H	1.709880	0.137818	-0.263409
H62	H	0.901690	-0.000069	0.401268
H63	H	1.721500	0.412686	0.231101
O64	O	1.080271	0.230438	0.305477
C65	C	1.086896	0.482171	0.310540
C66	C	1.044980	0.351166	0.241622
H67	H	1.058356	0.579813	0.258955
H68	H	1.195229	0.480587	0.313556
H69	H	1.038050	0.483091	0.410195
H70	H	1.093735	0.350161	0.141936
H71	H	0.936636	0.352801	0.238707
O72	O	1.506206	0.123069	-0.385603
C73	C	1.399874	0.269934	-0.225247
C74	C	1.398042	0.130602	-0.297036
H75	H	1.312447	0.276056	-0.153606
H76	H	1.397932	0.360680	-0.293960
H77	H	1.490666	0.276173	-0.174968
H78	H	1.307265	0.124226	-0.347318
H79	H	1.400052	0.039922	-0.228263
O80	O	0.936393	0.230165	0.062756
C81	C	0.831689	0.320035	-0.110945
C82	C	0.873510	0.189141	-0.041813
H83	H	0.780816	0.286915	-0.195487
H84	H	0.919538	0.385259	-0.143674
H85	H	0.763669	0.384847	-0.044787
H86	H	0.941501	0.124221	-0.107897
H87	H	0.785602	0.124023	-0.009064
H88	H	1.555659	0.587682	0.392906
O89	O	1.328084	0.404832	0.360894
C90	C	1.252995	0.397174	0.580311
C91	C	1.355459	0.452395	0.479900
H92	H	1.275077	0.435630	0.676548
H93	H	1.253207	0.277998	0.579003
H94	H	1.154782	0.437093	0.559697
H95	H	1.453723	0.412579	0.500445
H96	H	1.355134	0.571569	0.481231
O97	O	1.688898	0.594878	0.007841
C98	C	1.765471	0.600220	-0.211270
C99	C	1.662731	0.545415	-0.110927
H100	H	1.744336	0.560275	-0.307320
H101	H	1.863808	0.561660	-0.189642
H102	H	1.764280	0.719395	-0.211134
H103	H	1.663805	0.426243	-0.111008
H104	H	1.564441	0.584081	-0.132591
H105	H	1.295235	0.587666	0.137786
H106	H	1.511700	-0.223495	-0.190949
