data_functionalizedCrystal
_audit_creation_method	'MofGen! by Chris Wilmer'
_symmetry_space_group_name_H-M	'P1'
_symmetry_Int_Tables_number	1
_symmetry_cell_setting	triclinic
loop_
_symmetry_equiv_pos_as_xyz
  x,y,z
_cell_length_a	27.732048
_cell_length_b	27.731996
_cell_length_c	9.730223
_cell_angle_alpha	89.992740
_cell_angle_beta	90.005317
_cell_angle_gamma	82.632022
loop_
_atom_site_label
_atom_site_type_symbol
_atom_site_fract_x
_atom_site_fract_y
_atom_site_fract_z
O1	O	0.640914	0.057516	-0.114130
O2	O	0.500119	0.066262	-0.114174
O3	O	0.574902	-0.008509	-0.114121
O4	O	0.566130	0.132288	-0.114183
O5	O	0.574901	-0.008507	0.114459
O6	O	0.500118	0.066264	0.114405
O7	O	0.640913	0.057518	0.114450
Zn8	Zn	0.570515	0.061891	0.150720
Zn9	Zn	0.570516	0.061889	-0.150444
O10	O	0.566129	0.132290	0.114396
C11	C	0.482111	0.066079	0.000110
C12	C	0.428456	0.065527	0.000095
C13	C	0.089634	0.106231	0.000136
C14	C	-0.112026	0.104180	0.000150
O15	O	-0.143288	0.141402	0.000193
N16	N	-0.131141	0.059844	0.000167
C17	C	-0.099838	0.016017	0.000190
O18	O	-0.120724	-0.021740	0.000219
C19	C	0.101820	0.018069	0.000186
C20	C	0.120933	0.062408	0.000155
C21	C	0.108747	0.150567	0.000107
C22	C	0.159159	0.151079	0.000096
C23	C	0.190457	0.107256	0.000115
C24	C	0.171344	0.062920	0.000144
C25	C	0.133122	-0.025757	0.000219
C26	C	0.183539	-0.025240	0.000222
C27	C	0.202652	0.019099	0.000190
C28	C	0.253055	0.019609	0.000152
N29	N	0.272171	0.063946	0.000135
C30	C	0.240872	0.107769	0.000116
C31	C	-0.205712	0.014943	0.000189
C32	C	-0.256126	0.014430	0.000187
C33	C	-0.268310	0.102594	0.000150
C34	C	-0.217895	0.103106	0.000141
C35	C	-0.186597	0.059280	0.000171
C36	C	0.346741	0.108842	0.000093
C37	C	0.397158	0.109350	0.000076
C38	C	0.409337	0.021187	0.000121
C39	C	0.358925	0.020678	0.000130
C40	C	0.327627	0.064510	0.000121
O41	O	0.284346	-0.017592	0.000125
O42	O	0.261767	0.145521	0.000118
C43	C	0.039222	0.105719	0.000147
C44	C	0.020109	0.061384	0.000177
C45	C	0.051408	0.017560	0.000195
C46	C	-0.030305	0.060871	0.000175
C47	C	-0.061604	0.104694	0.000156
C48	C	-0.042489	0.149030	0.000139
C49	C	0.007923	0.149543	0.000128
C50	C	0.032292	-0.026776	0.000213
C51	C	-0.018120	-0.027285	0.000222
C52	C	-0.049419	0.016539	0.000203
C53	C	0.574721	-0.026516	0.000173
C54	C	0.574179	-0.080172	0.000187
C55	C	0.570764	-0.412889	-0.124480
C56	C	0.568703	-0.614548	-0.124505
O57	O	0.568416	-0.640619	-0.230472
N58	N	0.568447	-0.639764	0.000093
C59	C	0.568702	-0.614562	0.124706
O60	O	0.568432	-0.640636	0.230683
C61	C	0.570760	-0.412904	0.124729
C62	C	0.571021	-0.387691	0.000123
C63	C	0.571025	-0.387676	-0.249076
C64	C	0.571543	-0.337265	-0.249068
C65	C	0.571800	-0.312067	-0.124465
C66	C	0.571539	-0.337280	0.000131
C67	C	0.571012	-0.387702	0.249340
C68	C	0.571525	-0.337285	0.249335
C69	C	0.571787	-0.312072	0.124729
C70	C	0.572314	-0.261670	0.124741
N71	N	0.572571	-0.236454	0.000144
C72	C	0.572314	-0.261653	-0.124460
C73	C	0.567623	-0.720435	0.124685
C74	C	0.567110	-0.770849	0.124679
C75	C	0.567110	-0.770832	-0.124532
C76	C	0.567627	-0.720417	-0.124525
C77	C	0.567880	-0.695219	0.000087
C78	C	0.573402	-0.155786	-0.124435
C79	C	0.573922	-0.105370	-0.124416
C80	C	0.573919	-0.105392	0.124794
C81	C	0.573402	-0.155803	0.124776
C82	C	0.573141	-0.180999	0.000151
O83	O	0.572596	-0.235567	0.230653
O84	O	0.572573	-0.235568	-0.230421
C85	C	0.570246	-0.463300	-0.124487
C86	C	0.569986	-0.488513	0.000108
C87	C	0.570243	-0.463315	0.124711
C88	C	0.569472	-0.538928	0.000103
C89	C	0.569215	-0.564126	-0.124500
C90	C	0.569472	-0.538910	-0.249098
C91	C	0.569989	-0.488499	-0.249091
C92	C	0.569986	-0.488531	0.249309
C93	C	0.569469	-0.538943	0.249291
C94	C	0.569212	-0.564141	0.124688
C95	C	0.658920	0.057701	0.000162
C96	C	0.712575	0.058254	0.000168
C97	C	0.566310	0.150296	0.000099
C98	C	0.566853	0.203952	0.000076
N99	N	0.570518	0.061893	0.356256
N100	N	0.570517	0.061884	-0.355981
C101	C	0.603640	0.028795	0.428205
C102	C	0.603639	0.028789	0.572088
C103	C	0.537391	0.094983	0.572060
C104	C	0.537391	0.094986	0.428179
C105	C	0.641889	-0.009420	0.428223
C106	C	0.641888	-0.009426	0.572106
H107	H	0.343363	-0.015426	0.000135
F108	F	0.502133	0.130207	0.351606
F109	F	0.442656	-0.025450	0.000143
F110	F	0.570732	-0.414525	0.381965
F111	F	0.502137	0.130201	0.648616
H112	H	-0.202337	0.139211	0.000124
F113	F	-0.172407	-0.031706	0.000219
F114	F	0.574194	-0.078566	0.257399
H115	H	0.209021	-0.060930	0.000247
F116	F	0.573132	-0.182639	0.257395
F117	F	0.566835	-0.797658	-0.257145
H118	H	0.676797	0.001787	0.383602
H119	H	0.117570	-0.061863	0.000245
H120	H	0.630717	-0.044353	0.616733
H121	H	0.569260	-0.559467	0.350768
H122	H	0.570196	-0.468020	0.350778
F123	F	0.028257	0.196735	0.000096
F124	F	0.631895	-0.057816	0.377188
F125	F	0.573124	-0.182593	-0.257075
F126	F	0.417495	0.156544	0.000038
H127	H	0.566904	-0.791374	0.226146
F128	F	0.690270	0.000612	0.623165
F129	F	-0.075808	0.195670	0.000112
H130	H	0.321264	0.144533	0.000089
F131	F	0.567904	-0.693588	-0.257146
F132	F	0.179493	0.198272	0.000070
F133	F	0.569201	-0.565737	-0.381710
F134	F	0.571794	-0.310470	0.381968
F135	F	-0.301629	0.149234	0.000131
F136	F	0.075443	0.197214	0.000087
H137	H	-0.271683	-0.021675	0.000191
H138	H	-0.033676	-0.063394	0.000236
H139	H	0.574135	-0.084844	-0.225889
F140	F	0.065597	-0.073422	0.000235
H141	H	0.571754	-0.316741	-0.350535
F142	F	0.570751	-0.414487	-0.381707
F143	F	0.570267	-0.461672	-0.381714
F144	F	0.567890	-0.693623	0.257323
