data_functionalizedCrystal
_audit_creation_method	'MofGen! by Chris Wilmer'
_symmetry_space_group_name_H-M	'P1'
_symmetry_Int_Tables_number	1
_symmetry_cell_setting	triclinic
loop_
_symmetry_equiv_pos_as_xyz
  x,y,z
_cell_length_a	13.033855
_cell_length_b	13.033304
_cell_length_c	18.050582
_cell_angle_alpha	82.793347
_cell_angle_beta	97.195636
_cell_angle_gamma	90.900605
loop_
_atom_site_label
_atom_site_type_symbol
_atom_site_fract_x
_atom_site_fract_y
_atom_site_fract_z
Zn1	Zn	-0.210061	-1.624402	0.547871
Zn2	Zn	0.289939	-1.124402	1.047871
Zn3	Zn	-0.382035	-1.646178	0.410149
Zn4	Zn	0.117965	-1.146178	0.910149
Zn5	Zn	-0.231889	-1.452428	0.406176
Zn6	Zn	0.268111	-0.952428	0.906176
Zn7	Zn	-0.403797	-1.474247	0.516788
Zn8	Zn	0.096203	-0.974247	1.016788
O9	O	-0.306945	-1.549314	0.470246
O10	O	0.193055	-1.049314	0.970246
O11	O	-0.214631	-1.771217	0.544273
O12	O	0.285369	-1.271217	1.044273
O13	O	-0.362145	-1.620458	0.305693
O14	O	0.137855	-1.120458	0.805693
O15	O	-0.085077	-1.456996	0.436319
O16	O	0.414923	-0.956996	0.936319
O17	O	-0.340979	-1.787215	0.443089
O18	O	0.159021	-1.287215	0.943089
O19	O	-0.069040	-1.583345	0.540422
O20	O	0.430960	-1.083345	1.040422
O21	O	-0.251833	-1.478111	0.302775
O22	O	0.248167	-0.978111	0.802775
O23	O	-0.272935	-1.311396	0.406178
O24	O	0.227065	-0.811396	0.906178
O25	O	-0.378071	-1.494184	0.624840
O26	O	0.121929	-0.994184	1.124840
O27	O	-0.399236	-1.327427	0.487444
O28	O	0.100764	-0.827427	0.987444
O29	O	-0.235733	-1.604502	0.647677
O30	O	0.264267	-1.104502	1.147677
O31	O	-0.528838	-1.641615	0.412948
O32	O	-0.028838	-1.141615	0.912948
O33	O	-0.544827	-1.515299	0.491296
O34	O	-0.044827	-1.015299	0.991296
C35	C	-0.340817	-1.282094	0.443007
C36	C	0.159183	-0.782094	0.943007
C37	C	-0.355332	-1.167779	0.431370
C38	C	0.144668	-0.667779	0.931370
C39	C	-0.299385	-1.108910	0.476308
C40	C	0.200615	-0.608910	0.976308
C41	C	-0.314386	-0.990760	0.464282
C42	C	0.185614	-0.490760	0.964282
C43	C	-0.574144	-1.583216	0.449199
C44	C	-0.074144	-1.083216	0.949199
C45	C	-0.688441	-1.597813	0.440229
C46	C	-0.188441	-1.097813	0.940229
C47	C	-0.747350	-1.541776	0.474950
C48	C	-0.247350	-1.041776	0.974950
C49	C	-0.865482	-1.556861	0.465681
C50	C	-0.365482	-1.056861	0.965681
C51	C	-0.038699	-1.515307	0.491394
C52	C	0.461301	-1.015307	0.991394
C53	C	0.075611	-1.500816	0.500407
C54	C	0.575611	-1.000816	1.000407
C55	C	-0.306895	-1.549348	0.663959
C56	C	0.193105	-1.049348	1.163959
C57	C	-0.306873	-1.549363	0.746508
C58	C	0.193127	-1.049363	1.246508
C59	C	-0.272937	-0.817577	0.497587
C60	C	0.227063	-0.317577	0.997587
C61	C	-0.258432	-0.931893	0.509226
C62	C	0.241568	-0.431893	1.009226
C63	C	-0.306914	-1.549329	0.277298
C64	C	0.193086	-1.049329	0.777298
C65	C	-0.306621	-1.549477	0.194793
C66	C	0.193379	-1.049477	0.694793
C67	C	-0.384176	-1.489412	0.933553
C68	C	0.115824	-0.989412	1.433553
C69	C	-0.397412	-1.586447	0.990526
C70	C	0.102588	-1.086447	1.490526
C71	C	-0.306788	-1.549404	0.897650
C72	C	0.193212	-1.049404	1.397650
C73	C	-0.293516	-1.452417	0.987767
C74	C	0.206484	-0.952417	1.487767
C75	C	-0.306709	-1.549435	1.043645
C76	C	0.193291	-1.049435	1.543645
C77	C	-0.320067	-1.646494	0.953537
C78	C	0.179933	-1.146494	1.453537
C79	C	-0.216136	-1.512395	0.950770
C80	C	0.283864	-1.012395	1.450770
C81	C	-0.229329	-1.609490	1.007730
C82	C	0.270671	-1.109490	1.507730
C83	C	-0.306836	-1.549385	0.813546
C84	C	0.193164	-1.049385	1.313546
C85	C	-0.306659	-1.549465	1.127749
C86	C	0.193341	-1.049465	1.627749
H87	H	-0.373391	-0.953693	0.416900
H88	H	0.126609	-0.453693	0.916900
Br89	Br	-0.088460	-1.460150	0.921358
Br90	Br	0.411540	-0.960150	1.421358
Br91	Br	-0.160068	-0.993659	0.588190
Br92	Br	0.339932	-0.493659	1.088190
H93	H	-0.240378	-1.145980	0.523682
H94	H	0.259622	-0.645980	1.023682
H95	H	-0.414333	-1.130708	0.383992
H96	H	0.085667	-0.630708	0.883992
Br97	Br	-0.493362	-1.404959	0.879948
Br98	Br	0.006638	-0.904959	1.379948
Br99	Br	-0.750138	-1.696387	0.379236
Br100	Br	-0.250138	-1.196387	0.879236
H101	H	-0.710330	-1.482627	0.511536
H102	H	-0.210330	-0.982627	1.011536
H103	H	-0.887372	-1.441663	0.536995
H104	H	-0.387372	-0.941663	1.036995
Br105	Br	-0.525127	-1.638656	1.019902
Br106	Br	-0.025127	-1.138656	1.519902
Br107	Br	-0.274858	-1.315691	1.013245
Br108	Br	0.225142	-0.815691	1.513245
Br109	Br	-0.927174	-1.655439	0.404685
Br110	Br	-0.427174	-1.155439	0.904685
Br111	Br	-0.338880	-1.783281	0.928212
Br112	Br	0.161120	-1.283281	1.428212
H113	H	-0.163842	-1.660303	1.039765
H114	H	0.336158	-1.160303	1.539765
