data_functionalizedCrystal
_audit_creation_method	'MofGen! by Chris Wilmer'
_symmetry_space_group_name_H-M	'P1'
_symmetry_Int_Tables_number	1
_symmetry_cell_setting	triclinic
loop_
_symmetry_equiv_pos_as_xyz
  x,y,z
_cell_length_a	19.188933
_cell_length_b	17.666332
_cell_length_c	19.288865
_cell_angle_alpha	90.011714
_cell_angle_beta	83.140908
_cell_angle_gamma	90.007939
loop_
_atom_site_label
_atom_site_type_symbol
_atom_site_fract_x
_atom_site_fract_y
_atom_site_fract_z
O1	O	0.926142	0.062932	0.086724
O2	O	1.426142	0.562932	0.586724
O3	O	0.722830	0.062940	0.098397
O4	O	1.222830	0.562940	0.598397
O5	O	0.830361	0.062921	-0.008569
O6	O	1.330361	0.562921	0.491431
O7	O	0.818611	0.062951	0.193690
O8	O	1.318611	0.562951	0.693690
O9	O	0.830342	-0.062976	-0.008575
O10	O	1.330342	0.437024	0.491425
O11	O	0.722811	-0.062957	0.098391
O12	O	1.222811	0.437043	0.598391
O13	O	0.926123	-0.062965	0.086719
O14	O	1.426123	0.437035	0.586719
Cu15	Cu	0.824466	-0.074456	0.092554
Cu16	Cu	1.324466	0.425544	0.592554
Cu17	Cu	0.824488	0.074431	0.092561
Cu18	Cu	1.324488	0.574431	0.592561
O19	O	0.818593	-0.062946	0.193685
O20	O	1.318593	0.437054	0.693685
C21	C	0.696810	-0.000008	0.098015
C22	C	1.196810	0.499992	0.598015
C23	C	0.619305	-0.000005	0.096880
C24	C	1.119305	0.499995	0.596880
N25	N	0.824455	-0.179176	0.092549
N26	N	1.324455	0.320824	0.592549
C27	C	0.066061	0.068612	0.088780
C28	C	0.566061	0.568612	0.588780
C29	C	0.138885	0.068615	0.089843
C30	C	0.638885	0.568615	0.589843
C31	C	0.175292	-0.000011	0.090374
C32	C	0.675292	0.499989	0.590374
C33	C	0.138871	-0.068645	0.089825
C34	C	0.638871	0.431355	0.589825
C35	C	0.066049	-0.068646	0.088756
C36	C	0.566049	0.431354	0.588756
N37	N	0.284301	-0.051086	0.131576
N38	N	0.784301	0.448914	0.631576
N39	N	0.353479	-0.051081	0.132594
N40	N	0.853479	0.448919	0.632594
C41	C	0.394700	-0.000012	0.093595
C42	C	0.894700	0.499988	0.593595
N43	N	0.364130	0.051063	0.053550
N44	N	0.864130	0.551063	0.553550
N45	N	0.294945	0.051059	0.052535
N46	N	0.794945	0.551059	0.552535
C47	C	0.254255	-0.000017	0.091534
C48	C	0.754255	0.499983	0.591534
C49	C	0.510077	0.068621	0.095292
C50	C	1.010077	0.568621	0.595292
C51	C	0.582904	0.068622	0.096350
C52	C	1.082904	0.568622	0.596350
C53	C	0.582887	-0.068641	0.096339
C54	C	1.082887	0.431359	0.596339
C55	C	0.510063	-0.068639	0.095274
C56	C	1.010063	0.431361	0.595274
C57	C	0.473662	-0.000006	0.094754
C58	C	0.973662	0.499994	0.594754
C59	C	0.872085	-0.218794	0.045208
C60	C	1.372085	0.281206	0.545208
C61	C	0.872089	-0.298042	0.045204
C62	C	1.372089	0.201958	0.545204
C63	C	0.824470	-0.337668	0.092554
C64	C	1.324470	0.162332	0.592554
C65	C	0.776831	-0.298040	0.139899
C66	C	1.276831	0.201960	0.639899
C67	C	0.776824	-0.218794	0.139897
C68	C	1.276824	0.281206	0.639897
N69	N	0.815389	-0.462077	0.154042
N70	N	1.315389	0.037923	0.654042
N71	N	0.815400	-0.537357	0.154042
N72	N	1.315400	-0.037357	0.654042
C73	C	0.824488	-0.576432	0.092564
C74	C	1.324488	-0.076432	0.592564
N75	N	0.833578	-0.537382	0.031084
N76	N	1.333578	-0.037382	0.531084
N77	N	0.833571	-0.462094	0.031084
N78	N	1.333571	0.037906	0.531084
C79	C	0.824472	-0.423597	0.092562
C80	C	1.324472	0.076403	0.592562
C81	C	0.872125	-0.701979	0.045215
C82	C	1.372125	-0.201979	0.545215
C83	C	0.872124	-0.781229	0.045211
C84	C	1.372124	-0.281229	0.545211
C85	C	0.776870	-0.781225	0.139912
C86	C	1.276870	-0.281225	0.639912
C87	C	0.776867	-0.701978	0.139910
C88	C	1.276867	-0.201978	0.639910
C89	C	0.824499	-0.662360	0.092563
C90	C	1.324499	-0.162360	0.592563
C91	C	0.952144	-0.000016	0.087100
C92	C	1.452144	0.499984	0.587100
C93	C	1.029648	-0.000013	0.088235
C94	C	1.529648	0.499987	0.588235
C95	C	0.829973	-0.000030	-0.034449
C96	C	1.329973	0.499970	0.465551
C97	C	0.828839	-0.000037	-0.111552
C98	C	1.328839	0.499963	0.388448
N99	N	0.824504	0.179151	0.092561
N100	N	1.324504	0.679151	0.592561
C101	C	0.891933	-0.000043	-0.156244
C102	C	1.391933	0.499957	0.343756
C103	C	0.890867	-0.000031	-0.228691
C104	C	1.390867	0.499969	0.271309
C105	C	0.826703	-0.000028	-0.256443
C106	C	1.326703	0.499972	0.243557
C107	C	0.763600	-0.000017	-0.211742
C108	C	1.263600	0.499983	0.288258
C109	C	0.764668	-0.000022	-0.139297
C110	C	1.264668	0.499978	0.360703
C111	C	0.776256	-0.044125	-0.364737
C112	C	1.276256	0.455875	0.135263
C113	C	0.775190	-0.044125	-0.437182
C114	C	1.275190	0.455875	0.062818
C115	C	0.823406	-0.000011	-0.479889
C116	C	1.323406	0.499989	0.020111
C117	C	0.872699	0.044094	-0.450145
C118	C	1.372699	0.544094	0.049855
C119	C	0.873767	0.044090	-0.377700
C120	C	1.373767	0.544090	0.122300
C121	C	0.825537	-0.000022	-0.334998
C122	C	1.325537	0.499978	0.165002
C123	C	0.885348	-0.000003	-0.603137
C124	C	1.385348	0.499997	-0.103137
C125	C	0.884279	0.000014	-0.675585
C126	C	1.384279	0.500014	-0.175585
C127	C	0.757011	0.000020	-0.658635
C128	C	1.257011	0.500020	-0.158635
C129	C	0.758082	0.000011	-0.586188
C130	C	1.258082	0.500011	-0.086188
C131	C	0.822252	-0.000004	-0.558444
C132	C	1.322252	0.499996	-0.058444
C133	C	0.818980	0.000007	0.219564
C134	C	1.318980	0.500007	0.719564
C135	C	0.820115	0.000018	0.296668
C136	C	1.320115	0.500018	0.796668
H137	H	0.036428	0.124498	0.088353
H138	H	0.536428	0.624498	0.588353
H139	H	0.913901	0.080002	-0.353485
H140	H	1.413901	0.580002	0.146515
O141	O	0.722026	-0.091694	-0.469257
O142	O	1.222026	0.408306	0.030743
H143	H	0.749781	-0.133122	-0.506027
H144	H	1.249781	0.366878	-0.006027
H145	H	0.480439	0.124507	0.094866
H146	H	0.980439	0.624507	0.594866
H147	H	0.612550	0.124507	0.096788
H148	H	1.112550	0.624507	0.596788
O149	O	0.622142	-0.142662	0.096915
O150	O	1.122142	0.357338	0.596915
H151	H	0.678897	-0.131134	0.097754
H152	H	1.178897	0.368866	0.597754
H153	H	0.711357	-0.000013	-0.234343
H154	H	1.211357	0.499987	0.265657
O155	O	0.952337	0.000010	-0.723788
O156	O	1.452337	0.500010	-0.223788
H157	H	0.940816	0.000025	-0.778826
H158	H	1.440816	0.500025	-0.278826
H159	H	0.738085	-0.669718	0.178463
H160	H	1.238085	-0.169718	0.678463
O161	O	0.724249	-0.091714	-0.318680
O162	O	1.224249	0.408286	0.181320
H163	H	0.733269	-0.084305	-0.263307
H164	H	1.233269	0.415695	0.236693
H165	H	0.910868	-0.186539	0.006653
H166	H	1.410868	0.313461	0.506653
O167	O	0.961142	-0.000038	-0.126317
O168	O	1.461142	0.499962	0.373683
H169	H	1.004836	-0.000029	-0.169570
H170	H	1.504836	0.499971	0.330430
O171	O	0.725482	-0.340779	0.190981
O172	O	1.225482	0.159221	0.690981
H173	H	0.692360	-0.299912	0.223902
H174	H	1.192360	0.200088	0.723902
O175	O	0.923476	-0.659229	-0.005860
O176	O	1.423476	-0.159229	0.494140
H177	H	0.977881	-0.674416	0.002840
H178	H	1.477881	-0.174416	0.502840
H179	H	0.480415	-0.124521	0.094833
H180	H	0.980415	0.375479	0.594833
O181	O	0.687806	0.000022	-0.688562
O182	O	1.187806	0.500022	-0.188562
H183	H	0.644110	0.000027	-0.645310
H184	H	1.144110	0.500027	-0.145310
H185	H	0.168518	-0.124521	0.090257
H186	H	0.668518	0.375479	0.590257
H187	H	0.942247	-0.000033	-0.265085
H188	H	1.442247	0.499967	0.234915
O189	O	0.923470	-0.340788	-0.005851
O190	O	1.423470	0.159212	0.494149
H191	H	0.956593	-0.299925	-0.038771
H192	H	1.456593	0.200075	0.461229
O193	O	0.696614	-0.000028	-0.091087
O194	O	1.196614	0.499972	0.408913
H195	H	0.651816	-0.000029	-0.122553
H196	H	1.151816	0.499971	0.377447
H197	H	0.706704	0.000012	-0.549800
H198	H	1.206704	0.500012	-0.049800
H199	H	0.911960	0.080016	-0.484917
H200	H	1.411960	0.580016	0.015083
H201	H	0.738037	-0.186536	0.178449
H202	H	1.238037	0.313464	0.678449
O203	O	0.923506	-0.823966	-0.005845
O204	O	1.423506	-0.323966	0.494155
H205	H	0.956631	-0.783100	-0.038760
H206	H	1.456631	-0.283100	0.461240
O207	O	0.725510	-0.823942	0.190997
O208	O	1.225510	-0.323942	0.690997
H209	H	0.691668	-0.860070	0.161856
H210	H	1.191668	-0.360070	0.661856
O211	O	0.178172	0.142634	0.090439
O212	O	0.678172	0.642634	0.590439
H213	H	0.140625	0.190358	0.089902
H214	H	0.640625	0.690358	0.589902
O215	O	0.026680	-0.142616	0.088232
O216	O	0.526680	0.357384	0.588232
H217	H	0.046944	-0.175608	0.041126
H218	H	0.546944	0.324392	0.541126
O219	O	0.954556	-0.000004	-0.573203
O220	O	1.454556	0.499996	-0.073203
H221	H	0.998252	0.000008	-0.616454
H222	H	1.498252	0.500008	-0.116454
