data_functionalizedCrystal
_audit_creation_method	'MofGen! by Chris Wilmer'
_symmetry_space_group_name_H-M	'P1'
_symmetry_Int_Tables_number	1
_symmetry_cell_setting	triclinic
loop_
_symmetry_equiv_pos_as_xyz
  x,y,z
_cell_length_a	11.792254
_cell_length_b	14.044209
_cell_length_c	10.868271
_cell_angle_alpha	89.995960
_cell_angle_beta	90.004308
_cell_angle_gamma	91.306725
loop_
_atom_site_label
_atom_site_type_symbol
_atom_site_fract_x
_atom_site_fract_y
_atom_site_fract_z
O1	O	1.519107	-0.130040	0.102330
O2	O	1.190024	-0.143424	0.102334
O3	O	1.349627	0.001279	0.102314
O4	O	1.359504	-0.274742	0.102349
O5	O	1.349612	0.001274	-0.102330
O6	O	1.190009	-0.143428	-0.102311
O7	O	1.519092	-0.130044	-0.102315
Zn8	Zn	1.354548	-0.136737	-0.134805
Zn9	Zn	1.354568	-0.136731	0.134824
O10	O	1.359488	-0.274747	-0.102295
C11	C	1.147647	-0.142583	0.000011
C12	C	1.021397	-0.140059	0.000012
C13	C	0.918868	-0.138009	0.000017
C14	C	0.790240	-0.135445	0.000018
C15	C	1.345296	0.036613	-0.000010
C16	C	1.332398	0.141906	-0.000015
C17	C	1.308818	0.334690	-0.000005
C18	C	1.400303	0.391849	-0.000004
C19	C	1.387182	0.499121	0.000002
C20	C	1.321936	0.227408	-0.000011
C21	C	1.561469	-0.130885	0.000010
C22	C	1.687719	-0.133409	0.000018
C23	C	1.363823	0.689919	0.000022
C24	C	1.376728	0.584627	0.000006
N25	N	1.354542	-0.136741	-0.318819
C26	C	1.354551	-0.136741	-0.430156
C27	C	1.354565	-0.136732	-0.569834
N28	N	1.354582	-0.136720	0.318838
H29	H	1.488479	0.360222	0.000079
H30	H	1.220648	0.366315	-0.000002
