data_functionalizedCrystal
_audit_creation_method	'MofGen! by Chris Wilmer'
_symmetry_space_group_name_H-M	'P1'
_symmetry_Int_Tables_number	1
_symmetry_cell_setting	triclinic
loop_
_symmetry_equiv_pos_as_xyz
  x,y,z
_cell_length_a	19.077105
_cell_length_b	18.050589
_cell_length_c	19.076919
_cell_angle_alpha	92.275255
_cell_angle_beta	90.076224
_cell_angle_gamma	87.724731
loop_
_atom_site_label
_atom_site_type_symbol
_atom_site_fract_x
_atom_site_fract_y
_atom_site_fract_z
Zn1	Zn	1.058247	-0.359281	-0.440438
Zn2	Zn	1.062879	-0.478689	-0.322938
Zn3	Zn	0.945466	-0.349333	-0.318231
Zn4	Zn	0.940701	-0.478241	-0.435691
O5	O	1.001823	-0.416386	-0.379325
O6	O	1.157193	-0.379472	-0.428809
O7	O	1.051237	-0.457554	-0.223983
O8	O	0.960482	-0.246731	-0.334459
O9	O	1.160596	-0.467201	-0.342482
O10	O	1.043342	-0.254040	-0.424244
O11	O	0.964973	-0.362516	-0.220524
O12	O	0.846502	-0.362082	-0.329856
O13	O	0.952361	-0.466437	-0.534652
O14	O	0.843002	-0.456790	-0.416153
O15	O	1.038722	-0.379038	-0.538140
O16	O	1.046617	-0.582551	-0.337879
O17	O	0.956853	-0.582222	-0.420717
C18	C	0.819256	-0.408308	-0.371979
C19	C	0.741152	-0.404871	-0.368853
C20	C	0.702657	-0.452635	-0.412244
C21	C	0.629270	-0.449396	-0.409310
C22	C	0.594379	-0.398396	-0.362981
C23	C	0.632879	-0.350627	-0.319588
C24	C	0.706264	-0.353863	-0.322526
C25	C	0.375093	-0.383419	-0.349388
C26	C	0.301702	-0.380188	-0.346452
C27	C	0.298098	-0.478956	-0.436175
C28	C	0.371485	-0.482191	-0.439105
C29	C	0.409979	-0.434419	-0.395715
N30	N	0.519366	-0.395085	-0.359980
N31	N	0.484990	-0.437727	-0.398721
C32	C	1.001739	-0.609334	-0.379310
C33	C	1.001766	-0.691882	-0.379329
C34	C	0.952999	-0.891182	-0.424363
C35	C	0.938449	-0.937256	-0.359556
C36	C	1.001835	-0.843016	-0.379341
C37	C	1.016419	-0.944025	-0.444157
C38	C	1.001900	-0.989004	-0.379358
C39	C	0.987253	-0.887999	-0.314499
C40	C	1.065250	-0.894768	-0.399145
C41	C	1.050726	-0.940818	-0.334295
C42	C	1.001796	-0.758915	-0.379332
C43	C	1.001939	-1.073102	-0.379360
C44	C	1.185104	-0.424496	-0.386700
C45	C	1.263207	-0.427952	-0.389843
C46	C	0.994493	-0.423797	-0.562605
C47	C	0.991370	-0.426955	-0.640709
C48	C	1.001926	-0.222686	-0.379356
C49	C	1.001970	-0.140143	-0.379369
C50	C	1.034863	-0.382937	-0.679219
C51	C	1.031920	-0.385901	-0.752605
C52	C	0.985486	-0.432888	-0.787479
C53	C	0.941988	-0.476908	-0.748964
C54	C	0.944928	-0.473940	-0.675579
C55	C	0.971867	-0.446642	-1.006761
C56	C	0.968931	-0.449609	-1.080151
C57	C	1.058863	-0.358601	-1.083787
C58	C	1.061802	-0.355639	-1.010401
C59	C	1.018301	-0.399657	-0.971892
N60	N	0.982478	-0.435921	-0.862492
N61	N	1.021307	-0.396619	-0.896881
C62	C	1.009165	-0.408952	-0.196759
C63	C	1.012425	-0.405591	-0.118661
H64	H	0.273296	-0.338649	-0.308729
H65	H	1.094278	-0.322763	-1.115149
C66	C	1.112087	-0.304537	-0.972461
C67	C	1.073992	-0.253488	-0.928740
C68	C	1.120285	-0.206395	-0.893779
H69	H	1.137573	-0.278672	-1.005840
H70	H	1.143842	-0.333089	-0.945011
H71	H	1.042250	-0.224939	-0.956188
H72	H	1.048508	-0.279332	-0.895348
H73	H	1.152040	-0.234947	-0.866329
H74	H	1.145768	-0.180535	-0.927163
H75	H	1.094445	-0.171757	-0.864105
H76	H	0.974881	-0.863588	-0.259675
H77	H	1.118835	-0.875974	-0.415910
H78	H	0.904177	-0.515163	-0.777365
C79	C	1.105818	-0.969847	-0.283541
C80	C	1.105659	-1.047441	-0.284521
C81	C	1.156402	-1.074210	-0.237781
H82	H	1.095428	-0.950565	-0.237508
H83	H	1.150744	-0.954660	-0.297212
H84	H	1.060744	-1.062620	-0.270846
H85	H	1.116057	-1.066742	-0.330542
H86	H	1.201327	-1.059024	-0.251451
H87	H	1.146007	-1.054923	-0.191752
H88	H	1.156305	-1.126860	-0.238444
H89	H	1.028729	-0.968523	-0.498964
C90	C	0.256179	-0.530727	-0.483255
C91	C	0.184442	-0.516967	-0.470783
C92	C	0.145805	-0.564637	-0.514151
H93	H	0.268511	-0.580747	-0.473415
H94	H	0.266291	-0.522365	-0.530981
H95	H	0.174334	-0.525335	-0.423069
H96	H	0.172089	-0.466956	-0.480628
H97	H	0.155918	-0.556275	-0.561877
H98	H	0.158143	-0.614654	-0.504308
H99	H	0.097128	-0.555303	-0.505700
C100	C	0.416756	-0.331517	-0.302198
C101	C	0.370490	-0.286176	-0.260985
C102	C	0.408848	-0.238358	-0.217499
H103	H	0.444327	-0.301485	-0.330201
H104	H	0.446582	-0.359872	-0.272640
H105	H	0.340676	-0.257824	-0.290539
H106	H	0.342918	-0.316188	-0.232967
H107	H	0.438674	-0.266713	-0.187941
H108	H	0.436418	-0.208331	-0.245508
H109	H	0.377463	-0.207594	-0.189526
H110	H	0.604465	-0.309099	-0.281869
H111	H	0.597931	-0.488291	-0.444643
H112	H	0.911645	-0.869387	-0.462377
C113	C	1.085300	-0.331846	-0.641486
C114	C	1.122746	-0.293916	-0.690922
C115	C	1.169207	-0.246834	-0.656191
H116	H	1.117113	-0.360369	-0.614088
H117	H	1.059599	-0.297102	-0.611797
H118	H	1.148445	-0.328655	-0.720599
H119	H	1.090952	-0.265379	-0.718323
H120	H	1.143506	-0.212091	-0.626501
H121	H	1.201014	-0.275363	-0.628793
H122	H	1.194614	-0.221088	-0.689727
C123	C	0.918441	-0.500645	-1.117887
C124	C	0.880960	-0.538544	-1.068456
C125	C	0.834440	-0.585556	-1.103192
H126	H	0.944079	-0.535413	-1.147590
H127	H	0.886659	-0.472052	-1.145272
H128	H	0.912737	-0.567135	-1.041083
H129	H	0.855307	-0.503795	-1.038752
H130	H	0.802659	-0.556963	-1.130577
H131	H	0.860085	-0.620320	-1.132894
H132	H	0.809000	-0.611271	-1.069659
C133	C	0.866925	-0.962261	-0.337357
C134	C	0.815965	-0.937142	-0.384665
C135	C	0.750070	-0.960168	-0.364248
H136	H	0.856155	-0.942281	-0.291647
H137	H	0.867560	-1.014907	-0.337138
H138	H	0.815328	-0.884507	-0.384877
H139	H	0.826712	-0.957120	-0.430378
H140	H	0.750705	-1.012813	-0.364030
H141	H	0.739307	-0.940186	-0.318538
H142	H	0.715487	-0.943134	-0.396347
C143	C	0.747938	-0.301973	-0.275329
C144	C	0.701678	-0.256631	-0.234111
C145	C	0.740041	-0.208825	-0.190618
H146	H	0.775514	-0.271941	-0.303327
H147	H	0.777760	-0.330337	-0.245774
H148	H	0.671868	-0.228269	-0.263662
H149	H	0.674100	-0.286643	-0.206098
H150	H	0.769863	-0.237189	-0.161063
H151	H	0.767616	-0.178798	-0.218622
H152	H	0.708660	-0.178060	-0.162642
H153	H	0.936456	-0.482496	-0.975416
H154	H	1.067339	-0.350058	-0.783957
H155	H	0.909504	-0.509777	-0.644225
H156	H	0.399888	-0.523722	-0.476830
C157	C	0.740405	-0.508033	-0.462618
C158	C	0.690981	-0.549154	-0.500004
C159	C	0.725726	-0.600185	-0.546424
H160	H	0.770091	-0.540590	-0.436912
H161	H	0.767807	-0.482193	-0.494464
H162	H	0.663591	-0.574992	-0.468162
H163	H	0.661293	-0.516616	-0.525724
H164	H	0.753128	-0.574346	-0.578270
H165	H	0.755411	-0.632738	-0.520713
H166	H	0.692198	-0.628087	-0.571801
