data_functionalizedCrystal
_audit_creation_method	'MofGen! by Chris Wilmer'
_symmetry_space_group_name_H-M	'P1'
_symmetry_Int_Tables_number	1
_symmetry_cell_setting	triclinic
loop_
_symmetry_equiv_pos_as_xyz
  x,y,z
_cell_length_a	13.101039
_cell_length_b	14.853567
_cell_length_c	14.853567
_cell_angle_alpha	83.634930
_cell_angle_beta	93.370803
_cell_angle_gamma	86.640591
loop_
_atom_site_label
_atom_site_type_symbol
_atom_site_fract_x
_atom_site_fract_y
_atom_site_fract_z
O1	O	0.085135	-1.201313	-0.112739
O2	O	0.585135	-0.701313	0.387261
O3	O	0.085152	-0.938855	-0.126760
O4	O	0.585152	-0.438855	0.373240
O5	O	0.085146	-1.077095	0.011481
O6	O	0.585146	-0.577095	0.511481
O7	O	0.085141	-1.063073	-0.250979
O8	O	0.585141	-0.563073	0.249021
O9	O	-0.085283	-1.067176	0.001546
O10	O	0.414717	-0.567176	0.501546
O11	O	-0.085278	-0.928936	-0.136695
O12	O	0.414722	-0.428936	0.363305
O13	O	-0.085294	-1.191395	-0.122674
O14	O	0.414706	-0.691395	0.377326
Zn15	Zn	-0.112345	-1.058591	-0.131262
Zn16	Zn	0.387655	-0.558591	0.368738
Zn17	Zn	0.112203	-1.071659	-0.118172
Zn18	Zn	0.612203	-0.571659	0.381828
O19	O	-0.085289	-1.053155	-0.260914
O20	O	0.414711	-0.553155	0.239086
C21	C	-0.000061	-0.900307	-0.131092
C22	C	0.499939	-0.400307	0.368908
C23	C	-0.000054	-0.800224	-0.129187
C24	C	0.499946	-0.300224	0.370813
C25	C	-0.000066	-1.071501	0.040102
C26	C	0.499934	-0.571501	0.540102
C27	C	-0.000057	-1.069597	0.140186
C28	C	0.499943	-0.569597	0.640186
N29	N	-0.265594	-1.049679	-0.140195
N30	N	0.234406	-0.549679	0.359805
C31	C	-0.474636	-1.037554	-0.152356
C32	C	0.025364	-0.537554	0.347644
C33	C	-0.525514	-1.092700	-0.097073
C34	C	-0.025514	-0.592700	0.402927
C35	C	-0.641832	-1.085954	-0.103840
C36	C	-0.141832	-0.585954	0.396160
C37	C	-0.358307	-1.044299	-0.145591
C38	C	0.141693	-0.544299	0.354409
N39	N	0.265451	-1.080578	-0.109232
N40	N	0.765451	-0.580578	0.390768
C41	C	-0.000080	-1.229943	-0.118342
C42	C	0.499920	-0.729943	0.381658
C43	C	-0.000080	-1.330027	-0.120246
C44	C	0.499920	-0.830027	0.379754
C45	C	-0.000075	-0.387689	-0.039023
C46	C	0.499925	0.112311	0.460977
C47	C	-0.000078	-0.366408	-0.203256
C48	C	0.499922	0.133592	0.296744
C49	C	-0.000074	-0.460441	-0.205046
C50	C	0.499926	0.039559	0.294954
C51	C	-0.000070	-0.518104	-0.123823
C52	C	0.499930	-0.018104	0.376177
C53	C	-0.000069	-0.481732	-0.040810
C54	C	0.499931	0.018268	0.459190
C55	C	-0.000065	-0.496821	-0.288057
C56	C	0.499935	0.003179	0.211943
C57	C	-0.000061	-0.590860	-0.289850
C58	C	0.499939	-0.090860	0.210150
C59	C	-0.000064	-0.648524	-0.208626
C60	C	0.499936	-0.148524	0.291374
C61	C	-0.000064	-0.612147	-0.125610
C62	C	0.499936	-0.112147	0.374390
C63	C	-0.000059	-0.669809	-0.044387
C64	C	0.499941	-0.169809	0.455613
C65	C	-0.000067	-0.633433	0.038629
C66	C	0.499933	-0.133433	0.538629
C67	C	-0.000072	-0.539395	0.040413
C68	C	0.499928	-0.039395	0.540413
C69	C	-0.000058	-0.742562	-0.210410
C70	C	0.499942	-0.242562	0.289590
C71	C	-0.000053	-0.763852	-0.046175
C72	C	0.499947	-0.263852	0.453825
C73	C	-0.000075	-1.058749	-0.289536
C74	C	0.499925	-0.558749	0.210464
C75	C	-0.000077	-1.060653	-0.389619
C76	C	0.499923	-0.560653	0.110381
C77	C	-0.000070	-0.979431	0.552719
C78	C	0.499930	-0.479431	1.052719
C79	C	-0.000081	-1.143663	0.573999
C80	C	0.499919	-0.643663	1.073999
C81	C	-0.000075	-1.145453	0.479966
C82	C	0.499925	-0.645453	0.979966
C83	C	-0.000068	-1.064231	0.422305
C84	C	0.499932	-0.564231	0.922305
C85	C	-0.000068	-0.981219	0.458677
C86	C	0.499932	-0.481219	0.958677
C87	C	-0.000086	-1.228464	0.443586
C88	C	0.499914	-0.728464	0.943586
C89	C	-0.000081	-1.230258	0.349548
C90	C	0.499919	-0.730258	0.849548
C91	C	-0.000067	-1.149035	0.291885
C92	C	0.499933	-0.649035	0.791885
C93	C	-0.000065	-1.066019	0.328262
C94	C	0.499935	-0.566019	0.828262
C95	C	-0.000059	-0.984797	0.270601
C96	C	0.499941	-0.484797	0.770601
C97	C	-0.000050	-0.901780	0.306977
C98	C	0.499950	-0.401780	0.806977
C99	C	-0.000054	-0.899996	0.401014
C100	C	0.499946	-0.399996	0.901014
C101	C	-0.000063	-1.150819	0.197848
C102	C	0.499937	-0.650819	0.697848
C103	C	-0.000056	-0.986585	0.176558
C104	C	0.499944	-0.486585	0.676558
H105	H	-0.518431	-0.985278	-0.204765
H106	H	-0.018431	-0.485278	0.295235
H107	H	-0.000101	-1.294590	0.490540
H108	H	0.499899	-0.794590	0.990540
H109	H	-0.000058	-0.449867	-0.354183
H110	H	0.499942	0.050133	0.145817
H111	H	-0.481713	-1.144980	-0.044662
H112	H	0.018287	-0.644980	0.455338
N113	N	-0.000083	-0.815204	0.438173
N114	N	0.499917	-0.315204	0.938173
N115	N	-0.071930	-0.756250	0.416355
N116	N	0.428070	-0.256250	0.916355
H117	H	-0.071958	-0.696366	0.442603
H118	H	0.428042	-0.196366	0.942603
N119	N	-0.000062	-0.822736	0.036803
N120	N	0.499938	-0.322736	0.536803
N121	N	-0.000073	-0.790243	0.110911
N122	N	0.499927	-0.290243	0.610911
H123	H	-0.000081	-0.831828	0.169515
H124	H	0.499919	-0.331828	0.669515
H125	H	-0.000059	-0.911841	0.582341
H126	H	0.499941	-0.411841	1.082341
N127	N	-0.000062	-1.315053	0.312395
N128	N	0.499938	-0.815053	0.812395
N129	N	0.071787	-1.338552	0.266494
N130	N	0.571787	-0.838552	0.766494
H131	H	0.071805	-1.398440	0.240253
H132	H	0.571805	-0.898440	0.740253
H133	H	-0.000077	-1.218410	0.168234
H134	H	0.499923	-0.718410	0.668234
H135	H	-0.000094	-1.209790	0.620952
H136	H	0.499906	-0.709790	1.120952
N137	N	-0.000033	-0.818826	0.248058
N138	N	0.499967	-0.318826	0.748058
N139	N	0.071806	-0.805697	0.197394
N140	N	0.571806	-0.305697	0.697394
H141	H	0.071819	-0.747113	0.155778
H142	H	0.571819	-0.247113	0.655778
N143	N	-0.000042	-0.779705	-0.295206
N144	N	0.499958	-0.279705	0.204794
N145	N	-0.000037	-0.728212	-0.367718
N146	N	0.499963	-0.228212	0.132282
H147	H	-0.000027	-0.754442	-0.427611
H148	H	0.499973	-0.254442	0.072389
N149	N	-0.000072	-0.692351	0.121584
N150	N	0.499928	-0.192351	0.621584
N151	N	-0.071905	-0.743034	0.134708
N152	N	0.428095	-0.243034	0.634708
H153	H	-0.071909	-0.784650	0.193292
H154	H	0.428091	-0.284650	0.693292
H155	H	-0.000054	-0.620469	-0.357447
H156	H	0.499946	-0.120469	0.142553
H157	H	-0.000102	-0.509768	0.107999
H158	H	0.499898	-0.009768	0.607999
N159	N	-0.000103	-0.350537	0.045771
N160	N	0.499897	0.149463	0.545771
N161	N	-0.071953	-0.296270	0.060903
N162	N	0.428047	0.203730	0.560903
H163	H	-0.071975	-0.270031	0.120790
H164	H	0.428025	0.229969	0.620790
N165	N	-0.000101	-0.307507	-0.286217
N166	N	0.499899	0.192493	0.213783
N167	N	-0.071947	-0.306701	-0.345584
N168	N	0.428053	0.193299	0.154416
H169	H	-0.071966	-0.265097	-0.404179
H170	H	0.428034	0.234903	0.095821
N171	N	-0.000026	-0.903618	0.117662
N172	N	0.499974	-0.403618	0.617662
N173	N	0.071826	-0.852624	0.125227
N174	N	0.571826	-0.352624	0.625227
H175	H	0.071850	-0.794028	0.083631
H176	H	0.571850	-0.294028	0.583631
