data_functionalizedCrystal
_audit_creation_method	'MofGen! by Chris Wilmer'
_symmetry_space_group_name_H-M	'P1'
_symmetry_Int_Tables_number	1
_symmetry_cell_setting	triclinic
loop_
_symmetry_equiv_pos_as_xyz
  x,y,z
_cell_length_a	14.908558
_cell_length_b	21.295416
_cell_length_c	14.908308
_cell_angle_alpha	93.263115
_cell_angle_beta	89.824401
_cell_angle_gamma	93.274638
loop_
_atom_site_label
_atom_site_type_symbol
_atom_site_fract_x
_atom_site_fract_y
_atom_site_fract_z
Zn1	Zn	1.345219	0.328518	0.587537
Zn2	Zn	1.845219	0.828518	1.087537
Zn3	Zn	1.353775	0.428084	0.437167
Zn4	Zn	1.853775	0.928084	0.937167
Zn5	Zn	1.203536	0.316425	0.428537
Zn6	Zn	1.703536	0.816425	0.928537
Zn7	Zn	1.194802	0.427335	0.578820
Zn8	Zn	1.694802	0.927335	1.078820
O9	O	1.274333	0.375091	0.508016
O10	O	1.774333	0.875091	1.008016
O11	O	1.472178	0.347100	0.574850
O12	O	1.972178	0.847100	1.074850
O13	O	1.341081	0.408526	0.310198
O14	O	1.841081	0.908526	0.810198
O15	O	1.222405	0.229945	0.449665
O16	O	1.722405	0.729945	0.949665
O17	O	1.478465	0.420251	0.464374
O18	O	1.978465	0.920251	0.964374
O19	O	1.326498	0.238829	0.566482
O20	O	1.826498	0.738829	1.066482
O21	O	1.230702	0.326490	0.303858
O22	O	1.730702	0.826490	0.803858
O23	O	1.076553	0.325763	0.441213
O24	O	1.576553	0.825763	0.941213
O25	O	1.207519	0.418973	0.705801
O26	O	1.707519	0.918973	1.205801
O27	O	1.070136	0.407248	0.551625
O28	O	1.570136	0.907248	1.051625
O29	O	1.318029	0.346373	0.712205
O30	O	1.818029	0.846373	1.212205
O31	O	1.332612	0.516070	0.455922
O32	O	1.832612	1.016070	0.955922
O33	O	1.215816	0.515519	0.559994
O34	O	1.715816	1.015519	1.059994
C35	C	1.040719	0.365113	0.494538
C36	C	1.540719	0.865113	0.994538
C37	C	0.940777	0.360860	0.488793
C38	C	1.440777	0.860860	0.988793
C39	C	0.803223	0.312386	0.423305
C40	C	1.303223	0.812386	0.923305
C41	C	0.897127	0.316379	0.428699
C42	C	1.397127	0.816379	0.928699
C43	C	0.890516	0.401351	0.543499
C44	C	1.390516	0.901351	1.043499
C45	C	0.796611	0.397358	0.538105
C46	C	1.296611	0.897358	1.038105
C47	C	0.752968	0.352875	0.478005
C48	C	1.252968	0.852875	0.978005
C49	C	0.659062	0.348886	0.472607
C50	C	1.159062	0.848886	0.972607
C51	C	0.652451	0.433855	0.587411
C52	C	1.152451	0.933855	1.087411
C53	C	0.746356	0.437847	0.592805
C54	C	1.246356	0.937847	1.092805
C55	C	1.274218	0.538636	0.507969
C56	C	1.774218	1.038636	1.007969
C57	C	1.274250	0.608606	0.507984
C58	C	1.774250	1.108606	1.007984
C59	C	1.335113	0.641743	0.453858
C60	C	1.835113	1.141743	0.953858
C61	C	1.335154	0.707488	0.453884
C62	C	1.835154	1.207488	0.953884
C63	C	1.274316	0.740093	0.508027
C64	C	1.774316	1.240093	1.008027
C65	C	1.213448	0.706948	0.562164
C66	C	1.713448	1.206948	1.062164
C67	C	1.213415	0.641204	0.562143
C68	C	1.713415	1.141204	1.062143
N69	N	1.195263	0.840263	0.510350
N70	N	1.695263	1.340263	1.010350
N71	N	1.195298	0.902716	0.510365
N72	N	1.695298	1.402716	1.010365
C73	C	1.274414	0.938174	0.508097
C74	C	1.774414	1.438174	1.008097
N75	N	1.353497	0.908818	0.505795
N76	N	1.853497	1.408818	1.005795
N77	N	1.353462	0.846359	0.505775
N78	N	1.853462	1.346359	1.005775
C79	C	1.274346	0.811380	0.508057
C80	C	1.774346	1.311380	1.008057
C81	C	1.335327	1.042600	0.453997
C82	C	1.835327	1.542600	0.953997
C83	C	1.335369	1.108346	0.454030
C84	C	1.835369	1.608346	0.954030
C85	C	1.213655	1.107805	0.562305
C86	C	1.713655	1.607805	1.062305
C87	C	1.213621	1.042060	0.562277
C88	C	1.713621	1.542060	1.062277
C89	C	1.274456	1.009461	0.508118
C90	C	1.774456	1.509461	1.008118
C91	C	1.508859	0.385108	0.521547
C92	C	2.008859	0.885108	1.021547
C93	C	1.608800	0.389377	0.527313
C94	C	2.108800	0.889377	1.027313
C95	C	1.260846	0.383938	0.742540
C96	C	1.760846	0.883938	1.242540
C97	C	1.255098	0.387709	0.842481
C98	C	1.755098	0.887709	1.342481
C99	C	1.274472	1.210909	0.508099
C100	C	1.774472	1.710909	1.008099
C101	C	1.274532	1.140947	0.508174
C102	C	1.774532	1.640947	1.008174
C103	C	1.287820	0.366234	0.274407
C104	C	1.787820	0.866234	0.774407
C105	C	1.293741	0.362294	0.174477
C106	C	1.793741	0.862294	0.674477
C107	C	1.359370	0.319180	1.036949
C108	C	1.859370	0.819180	1.536949
C109	C	1.353972	0.322721	1.130852
C110	C	1.853972	0.822721	1.630852
C111	C	1.238902	0.398327	1.124191
C112	C	1.738902	0.898327	1.624191
C113	C	1.244299	0.394786	1.030288
C114	C	1.744299	0.894786	1.530288
C115	C	1.304536	0.355212	0.986671
C116	C	1.804536	0.855212	1.486671
C117	C	1.309938	0.351676	0.892766
C118	C	1.809938	0.851676	1.392766
C119	C	1.194863	0.427278	0.886106
C120	C	1.694863	0.927278	1.386106
C121	C	1.189466	0.430818	0.980009
C122	C	1.689466	0.930818	1.480009
H123	H	0.781903	0.474063	0.641739
H124	H	1.281903	0.974063	1.141739
Br125	Br	1.391690	0.297972	0.833571
Br126	Br	1.891690	0.797972	1.333571
Br127	Br	1.441129	0.265485	0.977750
Br128	Br	1.941129	0.765485	1.477750
Br129	Br	1.107717	0.484521	1.039212
Br130	Br	1.607717	0.984521	1.539212
H131	H	1.398621	0.293378	1.171786
H132	H	1.898621	0.793378	1.671786
H133	H	0.767688	0.276167	0.374367
H134	H	1.267688	0.776167	0.874367
H135	H	0.623529	0.312665	0.423671
H136	H	1.123529	0.812665	0.923671
Br137	Br	1.417761	0.752470	0.380422
Br138	Br	1.917761	1.252470	0.880422
H139	H	1.384937	1.135326	0.409956
H140	H	1.884937	1.635326	0.909956
Br141	Br	0.965329	0.261424	0.354464
Br142	Br	1.465329	0.761424	0.854464
Br143	Br	1.157150	0.452023	1.183401
Br144	Br	1.657150	0.952023	1.683401
Br145	Br	1.417686	0.597505	0.380370
Br146	Br	1.917686	1.097505	0.880370
Br147	Br	0.949762	0.461724	0.625043
Br148	Br	1.449762	0.961724	1.125043
Br149	Br	0.584243	0.488805	0.661657
Br150	Br	1.084243	0.988805	1.161657
Br151	Br	1.130888	0.751196	0.635652
Br152	Br	1.630888	1.251196	1.135652
H153	H	1.163851	0.614224	0.606220
H154	H	1.663851	1.114224	1.106220
Br155	Br	1.417884	0.998354	0.380495
Br156	Br	1.917884	1.498354	0.880495
Br157	Br	1.131096	1.152047	0.635795
Br158	Br	1.631096	1.652047	1.135795
H159	H	1.164056	1.015077	0.606347
H160	H	1.664056	1.515077	1.106347
H161	H	1.150216	0.456620	0.845159
H162	H	1.650216	0.956620	1.345159
