data_functionalizedCrystal
_audit_creation_method	'MofGen! by Chris Wilmer'
_symmetry_space_group_name_H-M	'P1'
_symmetry_Int_Tables_number	1
_symmetry_cell_setting	triclinic
loop_
_symmetry_equiv_pos_as_xyz
  x,y,z
_cell_length_a	10.686220
_cell_length_b	14.908178
_cell_length_c	10.685880
_cell_angle_alpha	91.292343
_cell_angle_beta	89.641569
_cell_angle_gamma	97.932243
loop_
_atom_site_label
_atom_site_type_symbol
_atom_site_fract_x
_atom_site_fract_y
_atom_site_fract_z
Zn1	Zn	1.947885	-0.281830	-0.541457
Zn2	Zn	1.919527	-0.422223	-0.321286
Zn3	Zn	1.721855	-0.283670	-0.347643
Zn4	Zn	1.723960	-0.445171	-0.545355
O5	O	1.828306	-0.358223	-0.438935
O6	O	2.120563	-0.290079	-0.499589
O7	O	1.880556	-0.395009	-0.149897
O8	O	1.762825	-0.157082	-0.382753
O9	O	2.099728	-0.393225	-0.337830
O10	O	1.928888	-0.155730	-0.525147
O11	O	1.735328	-0.293215	-0.169261
O12	O	1.545694	-0.315467	-0.386532
O13	O	1.766412	-0.432337	-0.719723
O14	O	1.547241	-0.434122	-0.531789
O15	O	1.930929	-0.312331	-0.716860
O16	O	1.882597	-0.551611	-0.341609
O17	O	1.738915	-0.568471	-0.506232
C18	C	1.500719	-0.377485	-0.462444
C19	C	1.360575	-0.385748	-0.472530
C20	C	1.807944	-0.592799	-0.421508
C21	C	1.799351	-0.693147	-0.414086
C22	C	1.956015	-0.880170	-0.548595
C23	C	1.947946	-0.974456	-0.541625
C24	C	1.775138	-0.976007	-0.393185
C25	C	1.783207	-0.881721	-0.400154
C26	C	1.873650	-0.833806	-0.477861
C27	C	1.881724	-0.739518	-0.484823
C28	C	1.708911	-0.741072	-0.336390
C29	C	1.700842	-0.835357	-0.329420
C30	C	2.157173	-0.338887	-0.415335
C31	C	2.297317	-0.330647	-0.405278
C32	C	1.852069	-0.374689	-0.764905
C33	C	1.862195	-0.381706	-0.903814
C34	C	1.848785	-0.122731	-0.456455
C35	C	1.857512	-0.022378	-0.463921
C36	C	1.804715	-0.341752	-0.114233
C37	C	1.794855	-0.334467	0.024674
H38	H	1.307513	-0.439253	-0.537820
Cl39	Cl	1.693858	-0.263737	-0.905781
Cl40	Cl	1.963172	-0.452443	-0.973355
H41	H	1.955370	-0.700506	-0.548092
Cl42	Cl	1.379226	-0.248051	-0.304465
Cl43	Cl	1.587141	-0.895603	-0.231747
Cl44	Cl	2.069724	-0.819929	-0.646264
Cl45	Cl	1.661421	-1.036262	-0.295538
Cl46	Cl	2.051493	-1.032740	-0.630556
Cl47	Cl	1.605369	-0.682779	-0.247451
