data_functionalizedCrystal
_audit_creation_method	'MofGen! by Chris Wilmer'
_symmetry_space_group_name_H-M	'P1'
_symmetry_Int_Tables_number	1
_symmetry_cell_setting	triclinic
loop_
_symmetry_equiv_pos_as_xyz
  x,y,z
_cell_length_a	13.897449
_cell_length_b	18.101395
_cell_length_c	13.897441
_cell_angle_alpha	89.969302
_cell_angle_beta	89.979267
_cell_angle_gamma	90.032384
loop_
_atom_site_label
_atom_site_type_symbol
_atom_site_fract_x
_atom_site_fract_y
_atom_site_fract_z
Zn1	Zn	1.474613	-0.294781	-0.545380
Zn2	Zn	1.474469	-0.418636	-0.384082
Zn3	Zn	1.313302	-0.294816	-0.384099
Zn4	Zn	1.313246	-0.418588	-0.545334
O5	O	1.393907	-0.356705	-0.464724
O6	O	1.609575	-0.311216	-0.523996
O7	O	1.453053	-0.402246	-0.249102
O8	O	1.334784	-0.191178	-0.405520
O9	O	1.609470	-0.402212	-0.405490
O10	O	1.453298	-0.191152	-0.524013
O11	O	1.334644	-0.311276	-0.249115
O12	O	1.178313	-0.311229	-0.405475
O13	O	1.334688	-0.402129	-0.680322
O14	O	1.178272	-0.402164	-0.523934
O15	O	1.453244	-0.311169	-0.680356
O16	O	1.452999	-0.522263	-0.405445
O17	O	1.334549	-0.522227	-0.523917
C18	C	1.143293	-0.356695	-0.464702
C19	C	1.036079	-0.356709	-0.464715
C20	C	0.839784	-0.356712	-0.464741
C21	C	0.949016	-0.356708	-0.464724
C22	C	1.393778	-0.549116	-0.464695
C23	C	1.393811	-0.631430	-0.464716
C24	C	1.394023	-0.930521	-0.464767
C25	C	1.319670	-0.899204	-0.539492
C26	C	1.319317	-0.813586	-0.539258
C27	C	1.393918	-0.782138	-0.464743
C28	C	1.366392	-0.813295	-0.363084
C29	C	1.365913	-0.898940	-0.363531
C30	C	1.496064	-0.898862	-0.490807
C31	C	1.495464	-0.813210	-0.493037
C32	C	1.393860	-0.698279	-0.464722
C33	C	1.394078	-1.014380	-0.464781
C34	C	1.645500	-0.356716	-0.464746
C35	C	1.752714	-0.356720	-0.464756
C36	C	1.393976	-0.356640	-0.716317
C37	C	1.394005	-0.356612	-0.823531
C38	C	1.394063	-0.163543	-0.464773
C39	C	1.394130	-0.081229	-0.464795
C40	C	1.394031	-0.356562	-1.019826
C41	C	1.394014	-0.356592	-0.910594
C42	C	1.393895	-0.356717	-0.214109
C43	C	1.394052	-0.356536	-0.106896
H44	H	1.336539	-0.792518	-0.614637
C45	C	1.265145	-0.926026	-0.333738
C46	C	1.243849	-1.009408	-0.327980
C47	C	1.143078	-1.036489	-0.298189
C48	C	1.063603	-0.980190	-0.274155
C49	C	1.084898	-0.896804	-0.279913
C50	C	1.185668	-0.869722	-0.309704
H51	H	1.302682	-1.051088	-0.345771
H52	H	1.127315	-1.098218	-0.293927
H53	H	0.989007	-1.000238	-0.252102
H54	H	1.026064	-0.855123	-0.262121
H55	H	1.201431	-0.807993	-0.313966
C56	C	1.570907	-0.926220	-0.417293
C57	C	1.627845	-0.870192	-0.356398
C58	C	1.702679	-0.897556	-0.282882
C59	C	1.720575	-0.980947	-0.270260
C60	C	1.663636	-1.036980	-0.331156
C61	C	1.588802	-1.009617	-0.404672
H62	H	1.614598	-0.808456	-0.365740
H63	H	1.744828	-0.856076	-0.237802
H64	H	1.775971	-1.001203	-0.215838
H65	H	1.676882	-1.098716	-0.321814
H66	H	1.546652	-1.051097	-0.449752
H67	H	1.243682	-0.793165	-0.522009
C68	C	1.435873	-0.926937	-0.285736
C69	C	1.491997	-0.871362	-0.223400
C70	C	1.561944	-0.899355	-0.145596
C71	C	1.575768	-0.982923	-0.130128
C72	C	1.519643	-1.038503	-0.192466
C73	C	1.449696	-1.010510	-0.270269
H74	H	1.481765	-0.809495	-0.234849
H75	H	1.603492	-0.858210	-0.099450
H76	H	1.627548	-1.003645	-0.072533
H77	H	1.529875	-1.100370	-0.181017
H78	H	1.408148	-1.051655	-0.316415
H79	H	1.418843	-0.792926	-0.305891
C80	C	1.529967	-0.927959	-0.589248
C81	C	1.551885	-0.873417	-0.671468
C82	C	1.585774	-0.902516	-0.769912
C83	C	1.597744	-0.986157	-0.786136
C84	C	1.575825	-1.040704	-0.703914
C85	C	1.541936	-1.011606	-0.605469
H86	H	1.543025	-0.811496	-0.659460
H87	H	1.602000	-0.862135	-0.830779
H88	H	1.622830	-1.007697	-0.859011
H89	H	1.584685	-1.102625	-0.715922
H90	H	1.525710	-1.051986	-0.544603
H91	H	1.292590	-0.791912	-0.340630
H92	H	1.336722	-0.919748	-0.615115
C93	C	1.523513	-0.785689	-0.594102
C94	C	1.459982	-0.804919	-0.681338
C95	C	1.488025	-0.777391	-0.782404
C96	C	1.579599	-0.730632	-0.796234
C97	C	1.643136	-0.711400	-0.708996
C98	C	1.615093	-0.738928	-0.607930
H99	H	1.392188	-0.839534	-0.671102
H100	H	1.440990	-0.791628	-0.846983
H101	H	1.600359	-0.710254	-0.871049
H102	H	1.710930	-0.676784	-0.719231
H103	H	1.662128	-0.724690	-0.543351
C104	C	1.218111	-0.928363	-0.516483
C105	C	1.136372	-0.873815	-0.493198
C106	C	1.034815	-0.902976	-0.470185
C107	C	1.014995	-0.986685	-0.470456
C108	C	1.096736	-1.041238	-0.493741
C109	C	1.198293	-1.012077	-0.516755
H110	H	1.151042	-0.811844	-0.492997
H111	H	0.974305	-0.862592	-0.452947
H112	H	0.939816	-1.008272	-0.453420
H113	H	1.082066	-1.103209	-0.493943
H114	H	1.258803	-1.052461	-0.533993
C115	C	1.574254	-0.784346	-0.424817
C116	C	1.547647	-0.731818	-0.341855
C117	C	1.626427	-0.702981	-0.273600
C118	C	1.731815	-0.726673	-0.288306
C119	C	1.758427	-0.779204	-0.371271
C120	C	1.679647	-0.808041	-0.439527
H121	H	1.469628	-0.714277	-0.330966
H122	H	1.606727	-0.664094	-0.212183
H123	H	1.790133	-0.705326	-0.237779
H124	H	1.836446	-0.796745	-0.382161
H125	H	1.699348	-0.846928	-0.500943
