data_functionalizedCrystal
_audit_creation_method	'MofGen! by Chris Wilmer'
_symmetry_space_group_name_H-M	'P1'
_symmetry_Int_Tables_number	1
_symmetry_cell_setting	triclinic
loop_
_symmetry_equiv_pos_as_xyz
  x,y,z
_cell_length_a	6.817900
_cell_length_b	9.582860
_cell_length_c	16.306216
_cell_angle_alpha	93.087094
_cell_angle_beta	103.467292
_cell_angle_gamma	111.206767
loop_
_atom_site_label
_atom_site_type_symbol
_atom_site_fract_x
_atom_site_fract_y
_atom_site_fract_z
V1	V	-4.066585	-0.208226	-0.262870
O2	O	-4.012241	0.008801	-0.258025
O3	O	-4.057357	-0.411718	-0.260920
O4	O	-4.017519	-0.205551	-0.377587
O5	O	-4.052355	-0.198792	-0.140550
V6	V	-4.545223	-0.182204	-0.248259
O7	O	-4.338558	-0.265306	-0.294923
O8	O	-4.723447	-0.125124	-0.216206
O9	O	-4.331244	0.021288	-0.250209
O10	O	-4.716964	-0.399231	-0.253103
O11	O	-4.676850	-0.191637	-0.370579
O12	O	-4.371083	-0.184879	-0.133542
C13	C	-3.911909	-0.461308	-0.256733
C14	C	-3.985647	-0.627669	-0.255903
C15	C	-3.861090	-0.198320	-0.405553
C16	C	-3.902516	-0.197480	-0.499334
C17	C	-4.052892	-0.194465	-0.840088
C18	C	-4.259225	-0.204393	-0.809632
C19	C	-4.216013	-0.204692	-0.712041
C20	C	-3.978290	-0.195962	-0.671036
C21	C	-3.813962	-0.047531	-0.691353
C22	C	-3.858412	-0.046608	-0.788952
C23	C	-3.992909	-0.332441	-0.813868
C24	C	-3.954908	-0.335370	-0.716549
C25	C	-3.936114	-0.196802	-0.575494
C26	C	-4.095056	-0.193614	-0.935629
C27	C	-4.140036	0.070871	-0.254393
C28	C	-4.045537	0.237230	-0.255229
C29	C	-4.190855	-0.192114	-0.105571
C30	C	-4.128666	-0.192947	-0.011790
H31	H	-4.406716	-0.310730	-0.844114
C32	C	-3.947834	0.096932	-0.897539
C33	C	-3.907238	0.094281	-0.809532
H34	H	-3.977966	0.183917	-0.910238
H35	H	-4.069956	0.008317	-0.926844
H36	H	-3.823088	0.100385	-0.915216
H37	H	-4.031990	0.090817	-0.791855
H38	H	-3.785103	0.182919	-0.780217
C39	C	-3.480568	0.107929	-0.771597
C40	C	-3.648512	-0.028524	-0.814933
H41	H	-3.350990	0.119107	-0.787639
H42	H	-3.454865	0.107222	-0.711843
H43	H	-3.521944	0.190003	-0.785930
H44	H	-3.607142	-0.110599	-0.800594
H45	H	-3.674214	-0.027829	-0.874699
C46	C	-4.417809	-0.124927	-0.630191
C47	C	-4.251855	-0.070536	-0.671146
H48	H	-4.439947	-0.042099	-0.604951
H49	H	-4.376744	-0.179844	-0.587177
H50	H	-4.549298	-0.189709	-0.670673
H51	H	-4.120362	-0.005763	-0.630662
H52	H	-4.292911	-0.015594	-0.714164
H53	H	-4.306908	-0.105287	-0.827257
H54	H	-3.637961	-0.035743	-0.663873
C55	C	-3.783833	0.094007	-0.559774
C56	C	-3.832534	0.092266	-0.648215
H57	H	-3.795318	0.180306	-0.533145
H58	H	-3.639265	0.098166	-0.539084
H59	H	-3.883919	0.004736	-0.547113
H60	H	-3.732437	0.181532	-0.660876
H61	H	-3.977123	0.088120	-0.668912
H62	H	-4.127674	-0.443979	-0.849628
H63	H	-3.839867	-0.326347	-0.833033
H64	H	-4.076654	-0.445103	-0.704544
H65	H	-4.341912	-0.311382	-0.699093
C66	C	-3.750123	-0.473034	-0.645857
C67	C	-3.727506	-0.338458	-0.679550
H68	H	-3.609721	-0.474922	-0.623011
H69	H	-3.834201	-0.557072	-0.689746
H70	H	-3.821758	-0.478363	-0.601954
H71	H	-3.655886	-0.333134	-0.723458
H72	H	-3.643394	-0.254398	-0.635657
