data_functionalizedCrystal
_audit_creation_method	'MofGen! by Chris Wilmer'
_symmetry_space_group_name_H-M	'P1'
_symmetry_Int_Tables_number	1
_symmetry_cell_setting	triclinic
loop_
_symmetry_equiv_pos_as_xyz
  x,y,z
_cell_length_a	16.625547
_cell_length_b	29.839131
_cell_length_c	16.625539
_cell_angle_alpha	90.027924
_cell_angle_beta	90.024822
_cell_angle_gamma	90.041640
loop_
_atom_site_label
_atom_site_type_symbol
_atom_site_fract_x
_atom_site_fract_y
_atom_site_fract_z
Zn1	Zn	1.232573	-0.178853	0.456003
Zn2	Zn	1.232431	-0.253984	0.321171
Zn3	Zn	1.097735	-0.178869	0.321173
Zn4	Zn	1.097660	-0.253957	0.455951
O5	O	1.165099	-0.216416	0.388575
O6	O	1.345386	-0.188824	0.438138
O7	O	1.214535	-0.244038	0.208339
O8	O	1.115712	-0.116000	0.339082
O9	O	1.345282	-0.244023	0.339078
O10	O	1.214777	-0.115988	0.438140
O11	O	1.115574	-0.188851	0.208341
O12	O	0.984892	-0.188825	0.339031
O13	O	1.115584	-0.243976	0.568790
O14	O	0.984837	-0.243991	0.438052
O15	O	1.214704	-0.188798	0.568828
O16	O	1.214462	-0.316848	0.339027
O17	O	1.115447	-0.316828	0.438049
C18	C	0.955609	-0.216407	0.388536
C19	C	0.865987	-0.216414	0.388539
C20	C	0.793205	-0.216415	0.388549
C21	C	0.701897	-0.216417	0.388569
C22	C	0.629120	-0.216422	0.388590
C23	C	0.537806	-0.216425	0.388609
C24	C	1.164953	-0.333138	0.388550
C25	C	1.164964	-0.383073	0.388566
C26	C	1.113575	-0.739665	0.440132
C27	C	1.113469	-0.551992	0.440107
O28	O	1.069600	-0.527732	0.483935
N29	N	1.165049	-0.528518	0.388590
C30	C	1.216664	-0.551965	0.337080
O31	O	1.260539	-0.527692	0.293268
C32	C	1.216774	-0.739637	0.337110
C33	C	1.165184	-0.763109	0.388624
C34	C	1.061990	-0.763137	0.491642
C35	C	1.062014	-0.810052	0.491645
C36	C	1.113623	-0.833496	0.440137
C37	C	1.165208	-0.810024	0.388627
C38	C	1.268392	-0.763083	0.285605
C39	C	1.268416	-0.810004	0.285618
C40	C	1.216826	-0.833476	0.337132
C41	C	1.216841	-0.880383	0.337122
N42	N	1.165260	-0.903858	0.388638
C43	C	1.113652	-0.880414	0.440146
C44	C	1.216601	-0.453434	0.337067
C45	C	1.216573	-0.406516	0.337058
C46	C	1.113379	-0.406547	0.440086
C47	C	1.113403	-0.453466	0.440090
C48	C	1.165021	-0.476908	0.388584
C49	C	1.113706	-0.978940	0.440147
C50	C	1.113732	-1.025859	0.440143
C51	C	1.216929	-1.025825	0.337119
C52	C	1.216900	-0.978909	0.337119
C53	C	1.165285	-0.955468	0.388640
O54	O	1.260692	-0.904672	0.293323
O55	O	1.069795	-0.904694	0.483965
C56	C	1.113551	-0.692750	0.440129
C57	C	1.165136	-0.669278	0.388619
C58	C	1.216745	-0.692722	0.337111
C59	C	1.165107	-0.622360	0.388610
C60	C	1.113499	-0.598916	0.440118
C61	C	1.061918	-0.622391	0.491634
C62	C	1.061942	-0.669306	0.491637
C63	C	1.268325	-0.669247	0.285595
C64	C	1.268296	-0.622332	0.285595
C65	C	1.216687	-0.598888	0.337103
C66	C	1.375408	-0.216425	0.388613
C67	C	1.465029	-0.216429	0.388630
C68	C	1.165152	-0.216382	0.598884
C69	C	1.165174	-0.216368	0.688505
C70	C	1.165269	-0.099237	0.388617
C71	C	1.165341	-0.049303	0.388635
C72	C	1.165094	-0.216417	0.179084
C73	C	1.165228	-0.216304	0.089463
C74	C	1.165211	-0.216318	1.016681
C75	C	1.165199	-0.216333	0.925372
C76	C	1.165193	-0.216343	0.852596
C77	C	1.165180	-0.216358	0.761281
H78	H	1.071720	-1.044968	0.482094
H79	H	1.020004	-0.829159	0.533592
H80	H	1.071399	-0.472573	0.482042
H81	H	1.019934	-0.688413	0.533586
H82	H	1.258900	-0.959798	0.295164
H83	H	1.071355	-0.387451	0.482025
H84	H	1.258944	-1.044921	0.295179
H85	H	1.019965	-0.744053	0.533590
H86	H	1.019893	-0.603295	0.533571
H87	H	1.310353	-0.688330	0.243651
H88	H	1.071678	-0.959859	0.482101
H89	H	1.258573	-0.387409	0.295102
H90	H	1.258636	-0.472517	0.295121
H91	H	1.310401	-0.743979	0.243658
H92	H	1.310452	-0.829089	0.243677
H93	H	1.310305	-0.603224	0.243639
