data_functionalizedCrystal
_audit_creation_method	'MofGen! by Chris Wilmer'
_symmetry_space_group_name_H-M	'P1'
_symmetry_Int_Tables_number	1
_symmetry_cell_setting	triclinic
loop_
_symmetry_equiv_pos_as_xyz
  x,y,z
_cell_length_a	10.654546
_cell_length_b	10.868271
_cell_length_c	10.654550
_cell_angle_alpha	90.000241
_cell_angle_beta	95.515787
_cell_angle_gamma	89.988038
loop_
_atom_site_label
_atom_site_type_symbol
_atom_site_fract_x
_atom_site_fract_y
_atom_site_fract_z
O1	O	-1.667844	0.102536	0.176372
O2	O	-1.302365	0.102491	0.193183
O3	O	-1.493508	0.102510	0.002038
O4	O	-1.476701	0.102517	0.367517
O5	O	-1.493490	-0.102135	0.002044
O6	O	-1.302348	-0.102154	0.193189
O7	O	-1.667827	-0.102108	0.176378
Zn8	Zn	-1.485084	-0.134623	0.184785
Zn9	Zn	-1.485107	0.135005	0.184777
O10	O	-1.476684	-0.102128	0.367523
C11	C	-1.255558	0.000163	0.191953
C12	C	-1.116115	0.000145	0.188262
N13	N	-1.485078	-0.318637	0.184790
C14	C	-1.036629	0.000160	0.300805
C15	C	-0.905608	0.000172	0.297330
C16	C	-0.933571	0.000160	0.068760
C17	C	-1.064590	0.000139	0.072236
C18	C	-1.020483	0.000173	0.432768
C19	C	-0.889462	0.000185	0.429293
C20	C	-1.485088	-0.429975	0.184790
C21	C	-1.485104	-0.569652	0.184778
C22	C	-0.714633	0.000205	0.177612
C23	C	-0.854075	0.000178	0.181311
C24	C	-1.492265	0.000189	-0.044757
C25	C	-1.488573	0.000193	-0.184200
N26	N	-1.485124	0.319019	0.184762
C27	C	-1.601115	0.000203	-0.263687
C28	C	-1.597638	0.000211	-0.394708
C29	C	-1.369068	0.000194	-0.366741
C30	C	-1.372546	0.000194	-0.235723
C31	C	-1.733078	0.000208	-0.279834
C32	C	-1.729601	0.000216	-0.410855
C33	C	-1.477927	0.000196	0.414318
C34	C	-1.481619	0.000200	0.553761
H35	H	-1.129304	0.000109	-0.019407
H36	H	-1.779316	-0.085419	-0.452613
Cl37	Cl	-0.868787	0.000152	-0.077093
Cl38	Cl	-1.065767	-0.132049	0.512457
H39	H	-0.843783	-0.088168	0.469177
H40	H	-0.847737	0.085833	0.479013
H41	H	-1.274603	0.000196	-0.408708
Cl42	Cl	-1.231059	0.000212	-0.135800
H43	H	-1.769490	0.088581	-0.456501
Cl44	Cl	-1.797923	-0.136213	-0.224812
Cl45	Cl	-1.075555	0.136586	0.497635
H46	H	-1.784701	0.085852	-0.250479
