data_functionalizedCrystal
_audit_creation_method	'MofGen! by Chris Wilmer'
_symmetry_space_group_name_H-M	'P1'
_symmetry_Int_Tables_number	1
_symmetry_cell_setting	triclinic
loop_
_symmetry_equiv_pos_as_xyz
  x,y,z
_cell_length_a	11.792241
_cell_length_b	11.792241
_cell_length_c	7.540329
_cell_angle_alpha	90.001242
_cell_angle_beta	89.998613
_cell_angle_gamma	95.806585
loop_
_atom_site_label
_atom_site_type_symbol
_atom_site_fract_x
_atom_site_fract_y
_atom_site_fract_z
O1	O	-0.155566	1.506906	-0.147289
O2	O	0.344434	2.006906	0.352711
O3	O	-0.171599	1.176565	-0.147328
O4	O	0.328401	1.676565	0.352672
O5	O	0.001588	1.349752	-0.147318
O6	O	0.501588	1.849752	0.352682
O7	O	-0.328753	1.333719	-0.147299
O8	O	0.171247	1.833719	0.352701
O9	O	0.001590	1.349742	0.147647
O10	O	0.501590	1.849742	0.647647
O11	O	-0.171597	1.176555	0.147637
O12	O	0.328403	1.676555	0.647637
O13	O	-0.155564	1.506896	0.147676
O14	O	0.344436	2.006896	0.647676
Cu15	Cu	-0.163580	1.341725	0.174589
Cu16	Cu	0.336420	1.841725	0.674589
Cu17	Cu	-0.163583	1.341737	-0.174241
Cu18	Cu	0.336417	1.841737	0.325759
O19	O	-0.328751	1.333709	0.147666
O20	O	0.171249	1.833709	0.647666
C21	C	-0.170591	1.134269	0.000149
C22	C	0.329409	1.634269	0.500149
C23	C	-0.167576	1.008255	0.000133
C24	C	0.332424	1.508255	0.500133
C25	C	-0.162034	0.777543	0.000184
C26	C	0.337966	1.277543	0.500184
C27	C	-0.165113	0.905928	0.000156
C28	C	0.334887	1.405928	0.500156
C29	C	-0.371043	1.334721	0.000186
C30	C	0.128957	1.834721	0.500186
C31	C	-0.497057	1.337736	0.000194
C32	C	0.002943	1.837736	0.500194
C33	C	-0.727769	1.343279	0.000150
C34	C	-0.227769	1.843279	0.500150
C35	C	-0.599384	1.340199	0.000174
C36	C	-0.099384	1.840199	0.500174
C37	C	0.043880	1.348740	0.000158
C38	C	0.543880	1.848740	0.500158
C39	C	0.169894	1.345726	0.000138
C40	C	0.669894	1.845726	0.500138
C41	C	-0.156572	1.549192	0.000195
C42	C	0.343428	2.049192	0.500195
C43	C	-0.159587	1.675206	0.000199
C44	C	0.340413	2.175206	0.500199
N45	N	-0.163578	1.341724	0.419937
N46	N	0.336422	1.841724	0.919937
N47	N	-0.163576	1.341746	-0.419590
N48	N	0.336424	1.841746	0.080410
