data_functionalizedCrystal
_audit_creation_method	'MofGen! by Chris Wilmer'
_symmetry_space_group_name_H-M	'P1'
_symmetry_Int_Tables_number	1
_symmetry_cell_setting	triclinic
loop_
_symmetry_equiv_pos_as_xyz
  x,y,z
_cell_length_a	23.532355
_cell_length_b	14.044220
_cell_length_c	22.010155
_cell_angle_alpha	89.984852
_cell_angle_beta	89.995895
_cell_angle_gamma	91.991812
loop_
_atom_site_label
_atom_site_type_symbol
_atom_site_fract_x
_atom_site_fract_y
_atom_site_fract_z
O1	O	0.761497	-0.114787	0.050444
O2	O	0.596534	-0.131479	0.050463
O3	O	0.676540	0.014828	0.050448
O4	O	0.681492	-0.261093	0.050459
O5	O	0.676537	0.014859	-0.050603
O6	O	0.596532	-0.131448	-0.050587
O7	O	0.761495	-0.114756	-0.050607
Cu8	Cu	0.679013	-0.123099	-0.059824
Cu9	Cu	0.679016	-0.123135	0.059680
O10	O	0.681489	-0.261062	-0.050591
C11	C	0.575294	-0.131046	-0.000060
C12	C	0.512007	-0.129792	-0.000052
C13	C	0.119565	-0.121893	-0.055161
C14	C	0.060101	-0.120699	-0.055163
O15	O	0.029346	-0.120035	-0.102008
N16	N	0.030361	-0.120124	-0.000081
C17	C	0.060090	-0.120733	0.055008
O18	O	0.029334	-0.120134	0.101859
C19	C	0.119553	-0.121920	0.055009
C20	C	0.149289	-0.122504	-0.000077
C21	C	0.149301	-0.122476	-0.110242
C22	C	0.208761	-0.123671	-0.110239
C23	C	0.238485	-0.124283	-0.055155
C24	C	0.208749	-0.123700	-0.000074
C25	C	0.149280	-0.122522	0.110097
C26	C	0.208748	-0.123708	0.110094
C27	C	0.238484	-0.124293	0.055008
C28	C	0.297933	-0.125507	0.055013
N29	N	0.327672	-0.126082	-0.000070
C30	C	0.297948	-0.125470	-0.055154
C31	C	-0.064787	-0.118239	0.055000
C32	C	-0.124249	-0.117060	0.054999
C33	C	-0.124234	-0.117024	-0.055172
C34	C	-0.064771	-0.118211	-0.055171
C35	C	-0.035048	-0.118814	-0.000083
C36	C	0.422818	-0.127981	-0.055144
C37	C	0.482283	-0.129180	-0.055136
C38	C	0.482263	-0.129211	0.055034
C39	C	0.422803	-0.128016	0.055027
C40	C	0.393082	-0.127398	-0.000067
O41	O	0.328726	-0.126167	0.101834
O42	O	0.328711	-0.126057	-0.101997
C43	C	0.674371	0.050137	-0.000078
C44	C	0.667905	0.155300	-0.000078
C45	C	0.782735	-0.115188	-0.000083
C46	C	0.846022	-0.116443	-0.000086
C47	C	0.683658	-0.296371	-0.000065
C48	C	0.690124	-0.401534	-0.000061
N49	N	0.679015	-0.123073	-0.143876
C50	C	0.656083	0.347846	-0.000067
C51	C	0.701943	0.405925	-0.000071
C52	C	0.695365	0.513065	-0.000065
C53	C	0.662660	0.240696	-0.000073
N54	N	0.679018	-0.123154	0.143733
C55	C	0.716402	-0.180395	0.436338
C56	C	0.716402	-0.180400	0.372731
O57	O	0.748200	-0.229092	0.339834
N58	N	0.679026	-0.123126	0.340917
C59	C	0.641650	-0.065835	0.372713
O60	O	0.609858	-0.017119	0.339812
C61	C	0.641652	-0.065825	0.436320
C62	C	0.679028	-0.123111	0.468131
C63	C	0.753774	-0.237675	0.468149
C64	C	0.753773	-0.237670	0.531753
C65	C	0.716399	-0.180386	0.563545
C66	C	0.679026	-0.123106	0.531734
C67	C	0.604280	-0.008530	0.468116
C68	C	0.604286	-0.008524	0.531726
C69	C	0.641661	-0.065810	0.563537
C70	C	0.641651	-0.065818	0.627130
N71	N	0.679027	-0.123092	0.658944
C72	C	0.716401	-0.180376	0.627151
C73	C	0.641648	-0.065859	0.239136
C74	C	0.641642	-0.065873	0.175530
C75	C	0.716395	-0.180437	0.175552
C76	C	0.716398	-0.180428	0.239159
C77	C	0.679024	-0.123133	0.270950
C78	C	0.716395	-0.180363	0.760723
C79	C	0.716389	-0.180357	0.824331
C80	C	0.641638	-0.065789	0.824304
C81	C	0.641642	-0.065799	0.760701
C82	C	0.679025	-0.123089	0.728912
O83	O	0.609871	-0.017148	0.660066
O84	O	0.748193	-0.229075	0.660060
H85	H	0.232966	-0.124142	-0.155096
H86	H	0.573846	0.038119	0.442226
C87	C	0.514592	-0.130005	-0.114929
C88	C	0.546446	-0.212220	-0.118154
C89	C	0.576207	-0.213016	-0.173226
H90	H	0.539374	-0.075280	-0.117279
H91	H	0.488386	-0.129517	-0.147752
H92	H	0.572648	-0.212699	-0.085340
H93	H	0.521677	-0.266959	-0.115814
H94	H	0.550002	-0.212529	-0.206049
H95	H	0.600986	-0.158288	-0.175572
H96	H	0.597820	-0.268802	-0.175424
H97	H	0.784210	-0.284314	0.557647
H98	H	0.398626	-0.127486	-0.100007
C99	C	-0.156434	-0.116201	-0.115027
C100	C	-0.139684	-0.034970	-0.148266
C101	C	-0.169330	-0.034187	-0.203406
H102	H	-0.196114	-0.115358	-0.107222
H103	H	-0.148216	-0.171614	-0.137694
H104	H	-0.147907	0.020428	-0.125603
H105	H	-0.100010	-0.035797	-0.156086
H106	H	-0.161112	-0.089600	-0.226074
H107	H	-0.209008	-0.033346	-0.195596
H108	H	-0.157965	0.020923	-0.225968
C109	C	-0.032484	-0.118717	0.114796
C110	C	0.003914	-0.037871	0.118029
C111	C	0.033672	-0.038272	0.173107
H112	H	-0.010779	-0.174375	0.117149
H113	H	-0.058696	-0.118156	0.147614
H114	H	0.030124	-0.038441	0.085220
H115	H	-0.017776	0.017799	0.115686
H116	H	0.007459	-0.037711	0.205925
H117	H	0.055373	-0.093933	0.175455
H118	H	0.058367	0.016585	0.175310
C119	C	0.760834	0.364760	-0.000116
C120	C	0.755737	0.265135	-0.000136
C121	C	0.809972	0.227177	-0.000188
H122	H	0.780982	0.385625	0.035109
H123	H	0.780931	0.385715	-0.035372
H124	H	0.735648	0.244188	0.035117
H125	H	0.735598	0.244244	-0.035359
H126	H	0.830069	0.248132	-0.035445
H127	H	0.830116	0.248048	0.035038
H128	H	0.806521	0.159578	-0.000208
C129	C	0.597197	0.389012	-0.000095
C130	C	0.602299	0.488636	-0.000108
C131	C	0.548066	0.526603	-0.000144
H132	H	0.577049	0.368114	0.035134
H133	H	0.577097	0.368096	-0.035348
H134	H	0.622391	0.509544	0.035142
H135	H	0.622437	0.509561	-0.035334
H136	H	0.527966	0.505687	-0.035398
H137	H	0.527923	0.505698	0.035084
H138	H	0.551521	0.594201	-0.000159
H139	H	0.746824	-0.227010	0.850229
H140	H	0.746837	-0.227014	0.734847
C141	C	0.794377	-0.299982	0.433749
C142	C	0.827092	-0.350152	0.475234
C143	C	0.864495	-0.407578	0.443572
H144	H	0.818702	-0.261118	0.408920
H145	H	0.773229	-0.343783	0.408964
H146	H	0.848239	-0.306356	0.500008
H147	H	0.802783	-0.389033	0.500064
H148	H	0.843347	-0.451380	0.418787
H149	H	0.888816	-0.368707	0.418744
H150	H	0.886693	-0.441632	0.471714
H151	H	0.746832	-0.227075	0.265055
H152	H	0.746827	-0.227083	0.149655
C153	C	0.601035	-0.003584	0.141106
C154	C	0.568302	0.046573	0.182568
C155	C	0.530896	0.103978	0.150880
H156	H	0.576722	-0.042461	0.116289
H157	H	0.622182	0.040225	0.116307
H158	H	0.547157	0.002769	0.207356
H159	H	0.592599	0.085467	0.207386
H160	H	0.552043	0.147788	0.126082
H161	H	0.506587	0.065095	0.126065
H162	H	0.508686	0.138023	0.179008
H163	H	0.611208	-0.019207	0.265016
H164	H	-0.148455	-0.116599	0.099855
H165	H	0.573852	0.038133	0.557607
C166	C	0.601036	-0.003508	0.726271
C167	C	0.568307	0.046657	0.767733
C168	C	0.530904	0.104066	0.736044
H169	H	0.576722	-0.042382	0.701455
H170	H	0.622185	0.040297	0.701471
H171	H	0.547159	0.002857	0.792522
H172	H	0.592606	0.085549	0.792550
H173	H	0.552052	0.147871	0.711244
H174	H	0.506592	0.065185	0.711229
H175	H	0.508695	0.138116	0.764170
H176	H	0.125106	-0.121976	-0.155101
H177	H	-0.040564	-0.118688	-0.100026
H178	H	0.125080	-0.122045	0.154954
C179	C	0.240913	-0.124418	0.169970
C180	C	0.202139	-0.123678	0.218205
C181	C	0.231747	-0.124350	0.273370
H182	H	0.265653	-0.069646	0.172347
H183	H	0.262555	-0.180164	0.172297
H184	H	0.180508	-0.067939	0.215879
H185	H	0.177398	-0.178446	0.215848
H186	H	0.253388	-0.180095	0.275698
H187	H	0.256486	-0.069577	0.275741
H188	H	0.205443	-0.123856	0.306105
H189	H	0.398590	-0.127556	0.099882
H190	H	0.611207	-0.019153	0.850201
H191	H	0.506475	-0.129713	0.099882
