data_functionalizedCrystal
_audit_creation_method	'MofGen! by Chris Wilmer'
_symmetry_space_group_name_H-M	'P1'
_symmetry_Int_Tables_number	1
_symmetry_cell_setting	triclinic
loop_
_symmetry_equiv_pos_as_xyz
  x,y,z
_cell_length_a	12.759401
_cell_length_b	19.121063
_cell_length_c	12.759393
_cell_angle_alpha	92.404035
_cell_angle_beta	89.979062
_cell_angle_gamma	92.470439
loop_
_atom_site_label
_atom_site_type_symbol
_atom_site_fract_x
_atom_site_fract_y
_atom_site_fract_z
Zn1	Zn	1.588334	-0.279551	-0.611809
Zn2	Zn	2.088334	0.220449	-0.111809
Zn3	Zn	1.580690	-0.397017	-0.443603
Zn4	Zn	2.080690	0.102983	0.056397
Zn5	Zn	1.412630	-0.279588	-0.436146
Zn6	Zn	1.912630	0.220412	0.063854
Zn7	Zn	1.405092	-0.396968	-0.619238
Zn8	Zn	1.905092	0.103032	-0.119238
O9	O	1.496686	-0.338281	-0.527699
O10	O	1.996686	0.161719	-0.027699
O11	O	1.734340	-0.295138	-0.589508
O12	O	2.234340	0.204862	-0.089508
O13	O	1.558352	-0.381476	-0.295595
O14	O	2.058352	0.118524	0.204405
O15	O	1.442291	-0.181299	-0.453218
O16	O	1.942291	0.318701	0.046782
O17	O	1.728724	-0.381440	-0.465928
O18	O	2.228724	0.118560	0.034072
O19	O	1.571380	-0.181271	-0.582277
O20	O	2.071380	0.318729	-0.082277
O21	O	1.434879	-0.295201	-0.290117
O22	O	1.934879	0.204799	0.209883
O23	O	1.264609	-0.295154	-0.460422
O24	O	1.764609	0.204846	0.039578
O25	O	1.429444	-0.381356	-0.765271
O26	O	1.929444	0.118644	-0.265271
O27	O	1.259071	-0.381393	-0.594938
O28	O	1.759071	0.118607	-0.094938
O29	O	1.564071	-0.295090	-0.759813
O30	O	2.064071	0.204910	-0.259813
O31	O	1.551042	-0.495295	-0.473132
O32	O	2.051042	0.004705	0.026868
O33	O	1.422032	-0.495259	-0.602169
O34	O	1.922032	0.004741	-0.102169
C35	C	1.223720	-0.338272	-0.527678
C36	C	1.723720	0.161728	-0.027678
C37	C	1.106942	-0.338286	-0.527694
C38	C	1.606942	0.161714	-0.027694
C39	C	1.484918	-0.520761	-0.539289
C40	C	1.984918	-0.020761	-0.039289
C41	C	1.479980	-0.598827	-0.544282
C42	C	1.979980	-0.098827	-0.044282
C43	C	1.049220	-0.383259	-0.597636
C44	C	1.549220	0.116741	-0.097636
C45	C	0.939495	-0.383261	-0.597657
C46	C	1.439495	0.116739	-0.097657
C47	C	0.945226	-0.293316	-0.457786
C48	C	1.445226	0.206684	0.042214
C49	C	1.054948	-0.293311	-0.457771
C50	C	1.554948	0.206689	0.042229
C51	C	1.544881	-0.635498	-0.479500
C52	C	2.044881	-0.135498	0.020500
C53	C	1.540243	-0.708849	-0.484203
C54	C	2.040243	-0.208849	0.015797
C55	C	1.470697	-0.745528	-0.553682
C56	C	1.970697	-0.245528	-0.053682
C57	C	1.405794	-0.708852	-0.618471
C58	C	1.905794	-0.208852	-0.118471
C59	C	1.410438	-0.635502	-0.613773
C60	C	1.910438	-0.135502	-0.113773
C61	C	1.453316	-0.966997	-0.571229
C62	C	1.953316	-0.466997	-0.071229
C63	C	1.448675	-1.040352	-0.575920
C64	C	1.948675	-0.540352	-0.075920
C65	C	1.583126	-1.040344	-0.441653
C66	C	2.083126	-0.540344	0.058347
C67	C	1.587759	-0.966993	-0.436957
C68	C	2.087759	-0.466993	0.063043
C69	C	1.522860	-0.930323	-0.501749
C70	C	2.022860	-0.430323	-0.001749
C71	C	1.465952	-0.820504	-0.558488
C72	C	1.965952	-0.320504	-0.058488
C73	C	1.527611	-0.855348	-0.496948
C74	C	2.027611	-0.355348	0.003052
C75	C	1.770719	-0.338290	-0.527721
C76	C	2.270719	0.161710	-0.027721
C77	C	1.887495	-0.338294	-0.527731
C78	C	2.387495	0.161706	-0.027731
C79	C	1.496769	-0.338214	-0.801728
C80	C	1.996769	0.161786	-0.301728
C81	C	1.496805	-0.338185	-0.918503
C82	C	1.996805	0.161815	-0.418503
C83	C	1.508529	-0.155088	-0.516087
C84	C	2.008529	0.344912	-0.016087
C85	C	1.513576	-0.077023	-0.511139
C86	C	2.013576	0.422977	-0.011139
C87	C	1.566910	-0.293259	-0.970524
C88	C	2.066910	0.206741	-0.470524
C89	C	1.566930	-0.293229	-1.080246
C90	C	2.066930	0.206771	-0.580246
C91	C	1.426735	-0.383056	-1.085917
C92	C	1.926735	0.116944	-0.585917
C93	C	1.426711	-0.383083	-0.976196
C94	C	1.926711	0.116917	-0.476196
C95	C	1.496667	-0.338298	-0.254733
C96	C	1.996667	0.161702	0.245267
C97	C	1.496848	-0.338128	-0.137946
C98	C	1.996848	0.161872	0.362054
H99	H	1.091550	-0.419879	-0.654575
H100	H	1.591550	0.080121	-0.154575
H101	H	1.624015	-0.256644	-1.122597
H102	H	2.124015	0.243356	-0.622597
H103	H	1.349173	-0.738721	-0.675047
H104	H	1.849173	-0.238721	-0.175047
H105	H	0.892502	-0.419882	-0.654611
H106	H	1.392502	0.080118	-0.154611
O107	O	0.894883	-0.249569	-0.389821
O108	O	1.394883	0.250431	0.110179
C109	C	0.969363	-0.209885	-0.328068
C110	C	1.469363	0.290115	0.171932
H111	H	1.047751	-0.207481	-0.370946
H112	H	1.547751	0.292519	0.129054
H113	H	0.941220	-0.154541	-0.313483
H114	H	1.441220	0.345459	0.186517
H115	H	0.979342	-0.235542	-0.249841
H116	H	1.479342	0.264458	0.250159
O117	O	1.111136	-0.249720	-0.389778
O118	O	1.611136	0.250280	0.110222
C119	C	1.171978	-0.289650	-0.324334
C120	C	1.671978	0.210350	0.175666
H121	H	1.184997	-0.342906	-0.364637
H122	H	1.684997	0.157094	0.135363
H123	H	1.250975	-0.261028	-0.308502
H124	H	1.750975	0.238972	0.191498
H125	H	1.129164	-0.297305	-0.246947
H126	H	1.629164	0.202695	0.253053
O127	O	1.398507	-0.856106	-0.626121
O128	O	1.898507	-0.356106	-0.126121
C129	C	1.422527	-0.838103	-0.729703
C130	C	1.922527	-0.338103	-0.229703
H131	H	1.507732	-0.817882	-0.733794
H132	H	2.007732	-0.317882	-0.233794
H133	H	1.410404	-0.886322	-0.784681
H134	H	1.910404	-0.386322	-0.284681
H135	H	1.368869	-0.795551	-0.754393
H136	H	1.868869	-0.295551	-0.254393
O137	O	1.358755	-0.426649	-1.142124
O138	O	1.858755	0.073351	-0.642124
C139	C	1.373791	-0.416982	-1.250121
C140	C	1.873791	0.083018	-0.750121
H141	H	1.456362	-0.393980	-1.263662
H142	H	1.956362	0.106020	-0.763662
H143	H	1.363270	-0.469580	-1.295152
H144	H	1.863270	0.030420	-0.795152
H145	H	1.313900	-0.379569	-1.278878
H146	H	1.813900	0.120431	-0.778878
H147	H	1.601508	-0.605639	-0.422919
H148	H	2.101508	-0.105639	0.077081
O149	O	1.358570	-0.426794	-0.925823
O150	O	1.858570	0.073206	-0.425823
C151	C	1.296698	-0.466409	-1.000269
C152	C	1.796698	0.033591	-0.500269
H153	H	1.339588	-0.468827	-1.078645
H154	H	1.839588	0.031173	-0.578645
H155	H	1.281906	-0.521752	-0.972068
H156	H	1.781906	-0.021752	-0.472068
H157	H	1.218572	-0.440682	-1.010294
H158	H	1.718572	0.059318	-0.510294
H159	H	1.593091	-0.738703	-0.431450
H160	H	2.093091	-0.238703	0.068550
O161	O	1.595106	-0.819798	-0.429315
O162	O	2.095106	-0.319798	0.070685
C163	C	1.571035	-0.837773	-0.325733
C164	C	2.071035	-0.337773	0.174267
H165	H	1.527283	-0.891056	-0.326929
H166	H	2.027283	-0.391056	0.173071
H167	H	1.646721	-0.840257	-0.278840
H168	H	2.146721	-0.340257	0.221160
H169	H	1.519638	-0.796542	-0.287670
H170	H	2.019638	-0.296542	0.212330
O171	O	1.635091	-0.249741	-0.914437
O172	O	2.135091	0.250259	-0.414437
C173	C	1.700335	-0.289740	-0.853492
C174	C	2.200335	0.210260	-0.353492
H175	H	1.703264	-0.345049	-0.890062
H176	H	2.203264	0.154951	-0.390062
H177	H	1.782828	-0.264337	-0.850649
H178	H	2.282828	0.235663	-0.350649
H179	H	1.667674	-0.292179	-0.770486
H180	H	2.167674	0.207821	-0.270486
H181	H	1.357590	-0.605645	-0.666526
H182	H	1.857590	-0.105645	-0.166526
H183	H	1.644389	-0.937130	-0.380382
H184	H	2.144389	-0.437130	0.119618
O185	O	1.646138	-1.076074	-0.378837
O186	O	2.146138	-0.576074	0.121163
C187	C	1.627116	-1.148679	-0.397863
C188	C	2.127116	-0.648679	0.102137
H189	H	1.592020	-1.158673	-0.479547
H190	H	2.092020	-0.658673	0.020453
H191	H	1.704058	-1.176511	-0.392603
H192	H	2.204058	-0.676511	0.107397
H193	H	1.569891	-1.169564	-0.336824
H194	H	2.069891	-0.669564	0.163176
O195	O	1.381095	-1.075874	-0.643516
O196	O	1.881095	-0.575874	-0.143516
C197	C	1.324792	-1.027781	-0.699681
C198	C	1.824792	-0.527781	-0.199681
H199	H	1.371132	-0.975467	-0.700007
H200	H	1.871132	-0.475467	-0.200007
H201	H	1.312214	-1.048940	-0.783803
H202	H	1.812214	-0.548940	-0.283803
H203	H	1.245503	-1.020046	-0.660653
H204	H	1.745503	-0.520046	-0.160653
H205	H	1.400470	-0.937146	-0.623984
H206	H	1.900470	-0.437146	-0.123984
