data_functionalizedCrystal
_audit_creation_method	'MofGen! by Chris Wilmer'
_symmetry_space_group_name_H-M	'P1'
_symmetry_Int_Tables_number	1
_symmetry_cell_setting	triclinic
loop_
_symmetry_equiv_pos_as_xyz
  x,y,z
_cell_length_a	16.625548
_cell_length_b	21.295417
_cell_length_c	21.295396
_cell_angle_alpha	89.893877
_cell_angle_beta	89.929970
_cell_angle_gamma	90.031575
loop_
_atom_site_label
_atom_site_type_symbol
_atom_site_fract_x
_atom_site_fract_y
_atom_site_fract_z
Zn1	Zn	1.233029	-0.250138	-0.355912
Zn2	Zn	1.483029	-0.000138	-0.105912
Zn3	Zn	1.733029	0.249862	0.144088
Zn4	Zn	1.983029	0.499862	0.394088
Zn5	Zn	1.232797	-0.355545	-0.250637
Zn6	Zn	1.482797	-0.105545	-0.000637
Zn7	Zn	1.732797	0.144455	0.249363
Zn8	Zn	1.982797	0.394455	0.499363
Zn9	Zn	1.098075	-0.250296	-0.250657
Zn10	Zn	1.348075	-0.000296	-0.000657
Zn11	Zn	1.598075	0.249704	0.249343
Zn12	Zn	1.848075	0.499704	0.499343
Zn13	Zn	1.098143	-0.355375	-0.355869
Zn14	Zn	1.348143	-0.105375	-0.105869
Zn15	Zn	1.598143	0.144625	0.144131
Zn16	Zn	1.848143	0.394625	0.394131
O17	O	1.165511	-0.302839	-0.303269
O18	O	1.415511	-0.052839	-0.053269
O19	O	1.665511	0.197161	0.196731
O20	O	1.915511	0.447161	0.446731
O21	O	1.345831	-0.264126	-0.341957
O22	O	1.595831	-0.014126	-0.091957
O23	O	1.845831	0.235874	0.158043
O24	O	2.095831	0.485874	0.408043
O25	O	1.214800	-0.341721	-0.162550
O26	O	1.464800	-0.091721	0.087450
O27	O	1.714800	0.158279	0.337450
O28	O	1.964800	0.408279	0.587450
O29	O	1.116045	-0.162185	-0.264645
O30	O	1.366045	0.087815	-0.014645
O31	O	1.616045	0.337815	0.235355
O32	O	1.866045	0.587815	0.485355
O33	O	1.345660	-0.341568	-0.264612
O34	O	1.595660	-0.091568	-0.014612
O35	O	1.845660	0.158432	0.235388
O36	O	2.095660	0.408432	0.485388
O37	O	1.215196	-0.162070	-0.341976
O38	O	1.465196	0.087930	-0.091976
O39	O	1.715196	0.337930	0.158024
O40	O	1.965196	0.587930	0.408024
O41	O	1.115820	-0.264394	-0.162564
O42	O	1.365820	-0.014394	0.087436
O43	O	1.615820	0.235606	0.337436
O44	O	1.865820	0.485606	0.587436
O45	O	0.985251	-0.264230	-0.264604
O46	O	1.235251	-0.014230	-0.014604
O47	O	1.485251	0.235770	0.235396
O48	O	1.735251	0.485770	0.485396
O49	O	1.116161	-0.341278	-0.443964
O50	O	1.366161	-0.091278	-0.193964
O51	O	1.616161	0.158722	0.056036
O52	O	1.866161	0.408722	0.306036
O53	O	0.985301	-0.341431	-0.341903
O54	O	1.235301	-0.091431	-0.091903
O55	O	1.485301	0.158569	0.158097
O56	O	1.735301	0.408569	0.408097
O57	O	1.215262	-0.263961	-0.443996
O58	O	1.465262	-0.013961	-0.193996
O59	O	1.715262	0.236039	0.056004
O60	O	1.965262	0.486039	0.306004
O61	O	1.214866	-0.443612	-0.264570
O62	O	1.464866	-0.193612	-0.014570
O63	O	1.714866	0.056388	0.235430
O64	O	1.964866	0.306388	0.485430
O65	O	1.115936	-0.443487	-0.341884
O66	O	1.365936	-0.193487	-0.091884
O67	O	1.615936	0.056513	0.158116
O68	O	1.865936	0.306513	0.408116
C69	C	0.956020	-0.302830	-0.303251
C70	C	1.206020	-0.052830	-0.053251
C71	C	1.456020	0.197170	0.196749
C72	C	1.706020	0.447170	0.446749
C73	C	0.866399	-0.302841	-0.303258
C74	C	1.116399	-0.052841	-0.053258
C75	C	1.366399	0.197159	0.196742
C76	C	1.616399	0.447159	0.446742
C77	C	1.165405	-0.466390	-0.303234
C78	C	1.415405	-0.216390	-0.053234
C79	C	1.665405	0.033610	0.196766
C80	C	1.915405	0.283610	0.446766
C81	C	1.165434	-0.536358	-0.303240
C82	C	1.415434	-0.286358	-0.053240
C83	C	1.665434	-0.036358	0.196760
C84	C	1.915434	0.213642	0.446760
C85	C	0.538223	-0.302845	-0.303285
C86	C	0.788223	-0.052845	-0.053285
C87	C	1.038223	0.197155	0.196715
C88	C	1.288223	0.447155	0.446715
C89	C	0.629532	-0.302842	-0.303276
C90	C	0.879532	-0.052842	-0.053276
C91	C	1.129532	0.197158	0.196724
C92	C	1.379532	0.447158	0.446724
C93	C	0.702308	-0.302843	-0.303271
C94	C	0.952308	-0.052843	-0.053271
C95	C	1.202308	0.197157	0.196729
C96	C	1.452308	0.447157	0.446729
C97	C	0.793622	-0.302840	-0.303263
C98	C	1.043622	-0.052840	-0.053263
C99	C	1.293622	0.197160	0.196737
C100	C	1.543622	0.447160	0.446737
C101	C	1.216992	-0.569269	-0.263024
C102	C	1.466992	-0.319269	-0.013024
C103	C	1.716992	-0.069269	0.236976
C104	C	1.966992	0.180731	0.486976
C105	C	1.217030	-0.635011	-0.263038
C106	C	1.467030	-0.385011	-0.013038
C107	C	1.717030	-0.135011	0.236962
C108	C	1.967030	0.114989	0.486962
C109	C	1.165495	-0.667841	-0.303262
C110	C	1.415495	-0.417841	-0.053262
C111	C	1.665495	-0.167841	0.196738
C112	C	1.915495	0.082159	0.446738
C113	C	1.113933	-0.634922	-0.343485
C114	C	1.363933	-0.384922	-0.093485
C115	C	1.613933	-0.134922	0.156515
C116	C	1.863933	0.115078	0.406515
C117	C	1.113902	-0.569181	-0.343474
C118	C	1.363902	-0.319181	-0.093474
C119	C	1.613902	-0.069181	0.156526
C120	C	1.863902	0.180819	0.406526
N121	N	1.094965	-0.771101	-0.308055
N122	N	1.344965	-0.521101	-0.058055
N123	N	1.594965	-0.271101	0.191945
N124	N	1.844965	-0.021101	0.441945
N125	N	1.094997	-0.833553	-0.308061
N126	N	1.344997	-0.583553	-0.058061
N127	N	1.594997	-0.333553	0.191939
N128	N	1.844997	-0.083553	0.441939
C129	C	1.165585	-0.865915	-0.303298
C130	C	1.415585	-0.615915	-0.053298
C131	C	1.665585	-0.365915	0.196702
C132	C	1.915585	-0.115915	0.446702
N133	N	1.236143	-0.833467	-0.298515
N134	N	1.486143	-0.583467	-0.048515
N135	N	1.736143	-0.333467	0.201485
N136	N	1.986143	-0.083467	0.451485
N137	N	1.236111	-0.771010	-0.298505
N138	N	1.486111	-0.521010	-0.048505
N139	N	1.736111	-0.271010	0.201495
N140	N	1.986111	-0.021010	0.451495
C141	C	1.165523	-0.739126	-0.303278
C142	C	1.415523	-0.489126	-0.053278
C143	C	1.665523	-0.239126	0.196722
C144	C	1.915523	0.010874	0.446722
C145	C	1.217189	-0.970112	-0.263095
C146	C	1.467189	-0.720112	-0.013095
C147	C	1.717189	-0.470112	0.236905
C148	C	1.967189	-0.220112	0.486905
C149	C	1.217229	-1.035855	-0.263114
C150	C	1.467229	-0.785855	-0.013114
C151	C	1.717229	-0.535855	0.236886
C152	C	1.967229	-0.285855	0.486886
C153	C	1.114124	-1.035765	-0.343557
C154	C	1.364124	-0.785765	-0.093557
C155	C	1.614124	-0.535765	0.156443
C156	C	1.864124	-0.285765	0.406443
C157	C	1.114092	-0.970022	-0.343542
C158	C	1.364092	-0.720022	-0.093542
C159	C	1.614092	-0.470022	0.156458
C160	C	1.864092	-0.220022	0.406458
C161	C	1.165623	-0.937200	-0.303308
C162	C	1.415623	-0.687200	-0.053308
C163	C	1.665623	-0.437200	0.196692
C164	C	1.915623	-0.187200	0.446692
C165	C	1.375820	-0.302848	-0.303287
C166	C	1.625820	-0.052848	-0.053287
C167	C	1.875820	0.197152	0.196713
C168	C	2.125820	0.447152	0.446713
C169	C	1.465441	-0.302852	-0.303294
C170	C	1.715441	-0.052852	-0.053294
C171	C	1.965441	0.197148	0.196706
C172	C	2.215441	0.447148	0.446706
C173	C	1.165745	-0.302583	-0.467459
C174	C	1.415745	-0.052583	-0.217459
C175	C	1.665745	0.197417	0.032541
C176	C	1.915745	0.447417	0.282541
C177	C	1.165845	-0.302474	-0.537428
C178	C	1.415845	-0.052474	-0.287428
C179	C	1.665845	0.197526	-0.037428
C180	C	1.915845	0.447526	0.212572
C181	C	1.165639	-0.138648	-0.303317
C182	C	1.415639	0.111352	-0.053317
C183	C	1.665639	0.361352	0.196683
C184	C	1.915639	0.611352	0.446683
C185	C	1.165694	-0.068680	-0.303338
C186	C	1.415694	0.181320	-0.053338
C187	C	1.665694	0.431320	0.196662
C188	C	1.915694	0.681320	0.446662
C189	C	1.165324	-0.303048	-0.139717
C190	C	1.415324	-0.053048	0.110283
C191	C	1.665324	0.196952	0.360283
C192	C	1.915324	0.446952	0.610283
C193	C	1.165381	-0.302979	-0.069749
C194	C	1.415381	-0.052979	0.180251
C195	C	1.665381	0.197021	0.430251
C196	C	1.915381	0.447021	0.680251
C197	C	1.113918	-0.262536	0.429671
C198	C	1.363918	-0.012536	0.679671
C199	C	1.613918	0.237464	0.929671
C200	C	1.863918	0.487464	1.179671
C201	C	1.113855	-0.262600	0.363929
C202	C	1.363855	-0.012600	0.613929
C203	C	1.613855	0.237400	0.863929
C204	C	1.863855	0.487400	1.113929
C205	C	1.165733	-0.302596	0.331090
C206	C	1.415733	-0.052596	0.581090
C207	C	1.665733	0.197404	0.831090
C208	C	1.915733	0.447404	1.081090
C209	C	1.217663	-0.342543	0.363999
C210	C	1.467663	-0.092543	0.613999
C211	C	1.717663	0.157457	0.863999
C212	C	1.967663	0.407457	1.113999
C213	C	1.217719	-0.342482	0.429740
C214	C	1.467719	-0.092482	0.679740
C215	C	1.717719	0.157518	0.929740
C216	C	1.967719	0.407518	1.179740
N217	N	1.236264	-0.307124	0.227779
N218	N	1.486264	-0.057124	0.477779
N219	N	1.736264	0.192876	0.727779
N220	N	1.986264	0.442876	0.977779
N221	N	1.236209	-0.307179	0.165327
N222	N	1.486209	-0.057179	0.415327
N223	N	1.736209	0.192821	0.665327
N224	N	1.986209	0.442821	0.915327
C225	C	1.165567	-0.302784	0.133016
C226	C	1.415567	-0.052784	0.383016
C227	C	1.665567	0.197216	0.633016
C228	C	1.915567	0.447216	0.883016
N229	N	1.094980	-0.298320	0.165515
N230	N	1.344980	-0.048320	0.415515
N231	N	1.594980	0.201680	0.665515
N232	N	1.844980	0.451680	0.915515
N233	N	1.095037	-0.298262	0.227972
N234	N	1.345037	-0.048262	0.477972
N235	N	1.595037	0.201738	0.727972
N236	N	1.845037	0.451738	0.977972
C237	C	1.165678	-0.302667	0.259805
C238	C	1.415678	-0.052667	0.509805
C239	C	1.665678	0.197333	0.759805
C240	C	1.915678	0.447333	1.009805
C241	C	1.113568	-0.262913	0.028829
C242	C	1.363568	-0.012913	0.278829
C243	C	1.613568	0.237087	0.528829
C244	C	1.863568	0.487087	0.778829
C245	C	1.113503	-0.262982	-0.036914
C246	C	1.363503	-0.012982	0.213086
C247	C	1.613503	0.237018	0.463086
C248	C	1.863503	0.487018	0.713086
C249	C	1.217318	-0.342921	-0.036843
C250	C	1.467318	-0.092921	0.213157
C251	C	1.717318	0.157079	0.463157
C252	C	1.967318	0.407079	0.713157
C253	C	1.217375	-0.342856	0.028899
C254	C	1.467375	-0.092856	0.278899
C255	C	1.717375	0.157144	0.528899
C256	C	1.967375	0.407144	0.778899
C257	C	1.165501	-0.302848	0.061732
C258	C	1.415501	-0.052848	0.311732
C259	C	1.665501	0.197152	0.561732
C260	C	1.915501	0.447152	0.811732
H261	H	1.258955	-0.542547	-0.230264
H262	H	1.508955	-0.292547	0.019736
H263	H	1.758955	-0.042547	0.269736
H264	H	2.008955	0.207453	0.519736
H265	H	1.071572	-0.230074	0.337136
H266	H	1.321572	0.019926	0.587136
H267	H	1.571572	0.269926	0.837136
H268	H	1.821572	0.519926	1.087136
O269	O	1.058337	-0.670325	-0.386864
O270	O	1.308337	-0.420325	-0.136864
O271	O	1.558337	-0.170325	0.113136
O272	O	1.808337	0.079675	0.363136
H273	H	1.067011	-0.721569	-0.380109
H274	H	1.317011	-0.471569	-0.130109
H275	H	1.567011	-0.221569	0.119891
H276	H	1.817011	0.028431	0.369891
O277	O	1.057497	-0.219901	-0.072406
O278	O	1.307497	0.030099	0.177594
O279	O	1.557497	0.280099	0.427594
O280	O	1.807497	0.530099	0.677594
H281	H	1.021445	-0.192068	-0.038528
H282	H	1.271445	0.057932	0.211472
H283	H	1.521445	0.307932	0.461472
H284	H	1.771445	0.557932	0.711472
H285	H	1.259662	-0.375376	0.055688
H286	H	1.509662	-0.125376	0.305688
H287	H	1.759662	0.124624	0.555688
H288	H	2.009662	0.374624	0.805688
O289	O	1.058533	-1.071166	-0.386939
O290	O	1.308533	-0.821166	-0.136939
O291	O	1.558533	-0.571166	0.113061
O292	O	1.808533	-0.321166	0.363061
H293	H	1.094646	-1.101031	-0.418994
H294	H	1.344646	-0.851031	-0.168994
H295	H	1.594646	-0.601031	0.081006
H296	H	1.844646	-0.351031	0.331006
H297	H	1.259018	-0.661813	-0.230290
H298	H	1.509018	-0.411813	0.019710
H299	H	1.759018	-0.161813	0.269710
H300	H	2.009018	0.088187	0.519710
H301	H	1.260007	-0.375004	0.456528
H302	H	1.510007	-0.125004	0.706528
H303	H	1.760007	0.124996	0.956528
H304	H	2.010007	0.374996	1.206528
O305	O	1.057615	-0.219766	0.064244
O306	O	1.307615	0.030234	0.314244
O307	O	1.557615	0.280234	0.564244
O308	O	1.807615	0.530234	0.814244
H309	H	1.066387	-0.226425	0.115486
H310	H	1.316387	0.023575	0.365486
H311	H	1.566387	0.273575	0.615486
H312	H	1.816387	0.523575	0.865486
H313	H	1.259560	-0.375486	-0.063580
H314	H	1.509560	-0.125486	0.186420
H315	H	1.759560	0.124514	0.436420
H316	H	2.009560	0.374514	0.686420
H317	H	1.071916	-0.542385	-0.376224
H318	H	1.321916	-0.292385	-0.126224
H319	H	1.571916	-0.042385	0.123776
H320	H	1.821916	0.207615	0.373776
H321	H	1.259152	-0.943386	-0.230335
H322	H	1.509152	-0.693386	0.019665
H323	H	1.759152	-0.443386	0.269665
H324	H	2.009152	-0.193386	0.519665
H325	H	1.259219	-1.062650	-0.230366
H326	H	1.509219	-0.812650	0.019634
H327	H	1.759219	-0.562650	0.269634
H328	H	2.009219	-0.312650	0.519634
H329	H	1.072104	-0.943225	-0.376287
H330	H	1.322104	-0.693225	-0.126287
H331	H	1.572104	-0.443225	0.123713
H332	H	1.822104	-0.193225	0.373713
H333	H	1.259902	-0.375108	0.337257
H334	H	1.509902	-0.125108	0.587257
H335	H	1.759902	0.124892	0.837257
H336	H	2.009902	0.374892	1.087257
H337	H	1.071675	-0.229961	0.456399
H338	H	1.321675	0.020039	0.706399
H339	H	1.571675	0.270039	0.956399
H340	H	1.821675	0.520039	1.206399
