data_functionalizedCrystal
_audit_creation_method	'MofGen! by Chris Wilmer'
_symmetry_space_group_name_H-M	'P1'
_symmetry_Int_Tables_number	1
_symmetry_cell_setting	triclinic
loop_
_symmetry_equiv_pos_as_xyz
  x,y,z
_cell_length_a	12.759401
_cell_length_b	12.759399
_cell_length_c	12.759393
_cell_angle_alpha	90.030270
_cell_angle_beta	90.020459
_cell_angle_gamma	90.016641
loop_
_atom_site_label
_atom_site_type_symbol
_atom_site_fract_x
_atom_site_fract_y
_atom_site_fract_z
Zn1	Zn	1.606258	-0.418179	0.594017
Zn2	Zn	1.606150	-0.593893	0.418336
Zn3	Zn	1.430559	-0.418233	0.418352
Zn4	Zn	1.430548	-0.593821	0.593973
O5	O	1.518379	-0.506032	0.506170
O6	O	1.753265	-0.441495	0.570724
O7	O	1.582816	-0.570644	0.271317
O8	O	1.453916	-0.271205	0.441680
O9	O	1.753185	-0.570591	0.441652
O10	O	1.583001	-0.271165	0.570740
O11	O	1.453810	-0.441587	0.271329
O12	O	1.283536	-0.441518	0.441637
O13	O	1.453897	-0.570470	0.741000
O14	O	1.283528	-0.570522	0.570665
O15	O	1.582991	-0.441426	0.741032
O16	O	1.582806	-0.740904	0.441609
O17	O	1.453792	-0.740852	0.570649
C18	C	1.245411	-0.506019	0.506149
C19	C	1.128635	-0.506039	0.506165
C20	C	1.518314	-0.778999	0.506146
C21	C	1.518383	-0.895776	0.506171
C22	C	1.073796	-0.573313	0.573244
C23	C	0.964072	-0.573317	0.573265
C24	C	0.964035	-0.438769	0.439118
C25	C	1.073757	-0.438761	0.439104
C26	C	1.585637	-0.950630	0.439056
C27	C	1.585704	-1.060354	0.439091
C28	C	1.451254	-1.060360	0.573359
C29	C	1.451193	-0.950638	0.573328
C30	C	1.792412	-0.506045	0.506191
C31	C	1.909188	-0.506051	0.506200
C32	C	1.518455	-0.505934	0.780203
C33	C	1.518487	-0.505892	0.896980
C34	C	1.518472	-0.231998	0.506217
C35	C	1.518512	-0.115222	0.506237
C36	C	1.518363	-0.506053	0.233202
C37	C	1.518534	-0.505799	0.116426
C38	C	1.585689	-0.573014	1.061571
C39	C	1.585663	-0.573064	0.951847
C40	C	1.451325	-0.438674	0.951843
C41	C	1.451346	-0.438631	1.061565
H42	H	0.919427	-0.628097	0.627889
C43	C	1.718583	-1.049320	0.306361
C44	C	1.659627	-1.120650	0.365311
H45	H	1.764217	-1.086546	0.260808
H46	H	1.758722	-1.006454	0.352156
H47	H	1.672789	-1.006596	0.266127
H48	H	1.705422	-1.163369	0.405552
H49	H	1.619485	-1.163534	0.319510
H50	H	1.640347	-0.627796	0.907189
C51	C	1.391653	-0.379060	0.783643
C52	C	1.377486	-0.364835	0.891535
H53	H	1.346072	-0.333466	0.746416
H54	H	1.376244	-0.449647	0.765653
H55	H	1.462250	-0.363696	0.765689
H56	H	1.306891	-0.380206	0.909490
H57	H	1.392888	-0.294232	0.909533
C58	C	1.391640	-1.228559	0.633015
C59	C	1.377391	-1.120668	0.647165
H60	H	1.346031	-1.265787	0.678575
H61	H	1.462222	-1.246466	0.648462
H62	H	1.376311	-1.246597	0.562411
H63	H	1.392727	-1.102629	0.717767
H64	H	1.306792	-1.102755	0.631724
H65	H	1.396656	-0.383895	1.106229
H66	H	1.640348	-0.905964	0.384374
H67	H	1.396426	-0.905972	0.627986
C68	C	1.718463	-0.705864	1.050551
C69	C	1.659530	-0.646854	1.121876
H70	H	1.764043	-0.751457	1.087780
H71	H	1.758658	-0.660110	1.007771
H72	H	1.672651	-0.746060	1.007740
H73	H	1.705341	-0.606652	1.164682
H74	H	1.619331	-0.692614	1.164674
C75	C	0.930177	-0.387372	0.261311
C76	C	0.903709	-0.364827	0.365401
H77	H	0.892938	-0.341718	0.215802
H78	H	0.912169	-0.457936	0.245822
H79	H	1.003373	-0.377733	0.251716
H80	H	0.830513	-0.374472	0.374998
H81	H	0.921710	-0.294245	0.380895
C82	C	1.062808	-0.706296	0.705854
C83	C	1.134119	-0.647252	0.646968
H84	H	1.100049	-0.751936	0.751376
H85	H	1.019985	-0.746433	0.660017
H86	H	1.020038	-0.660558	0.746120
H87	H	1.176883	-0.692990	0.606696
H88	H	1.176959	-0.607112	0.692811
C89	C	1.197094	-0.423982	0.297793
C90	C	1.134047	-0.364809	0.365364
H91	H	1.234318	-0.378326	0.252280
H92	H	1.154261	-0.469698	0.257530
H93	H	1.245473	-0.464040	0.337747
H94	H	1.085662	-0.324756	0.325411
H95	H	1.176884	-0.319074	0.405631
