data_functionalizedCrystal
_audit_creation_method	'MofGen! by Chris Wilmer'
_symmetry_space_group_name_H-M	'P1'
_symmetry_Int_Tables_number	1
_symmetry_cell_setting	triclinic
loop_
_symmetry_equiv_pos_as_xyz
  x,y,z
_cell_length_a	10.654550
_cell_length_b	14.853567
_cell_length_c	13.330367
_cell_angle_alpha	90.002715
_cell_angle_beta	89.998046
_cell_angle_gamma	84.059930
loop_
_atom_site_label
_atom_site_type_symbol
_atom_site_fract_x
_atom_site_fract_y
_atom_site_fract_z
O1	O	1.666528	0.126621	-0.083339
O2	O	1.300924	0.138685	-0.083357
O3	O	1.493492	0.001476	-0.083351
O4	O	1.473960	0.263831	-0.083346
O5	O	1.493471	0.001481	0.083496
O6	O	1.300903	0.138691	0.083490
O7	O	1.666507	0.126627	0.083508
Cu8	Cu	1.483703	0.132659	0.098733
Cu9	Cu	1.483728	0.132653	-0.098583
O10	O	1.473939	0.263836	0.083502
C11	C	1.254125	0.137802	0.000064
C12	C	1.114709	0.135152	0.000057
C13	C	1.492596	-0.032115	0.000070
C14	C	1.489944	-0.132213	0.000061
C15	C	1.034384	0.215939	0.000062
C16	C	0.903389	0.213443	0.000079
C17	C	0.933057	0.049367	0.000083
C18	C	1.064049	0.051864	0.000073
C19	C	1.364344	-0.545419	0.000074
C20	C	1.593119	-0.565475	0.000085
C21	C	1.595613	-0.471428	0.000079
C22	C	1.482470	-0.414372	0.000072
C23	C	1.366834	-0.451363	0.000071
C24	C	1.711247	-0.434430	0.000090
C25	C	1.713745	-0.340378	0.000086
C26	C	1.600601	-0.283320	0.000072
C27	C	1.484961	-0.320316	0.000070
C28	C	1.371818	-0.263260	0.000063
C29	C	1.256176	-0.300254	0.000053
C30	C	1.253691	-0.394305	0.000057
C31	C	1.603087	-0.189269	0.000068
C32	C	1.374308	-0.169204	0.000060
C33	C	1.713306	0.127510	0.000084
C34	C	1.852722	0.130160	0.000085
C35	C	1.474835	0.297427	0.000079
C36	C	1.477487	0.397525	0.000081
N37	N	1.483695	0.132663	0.237515
C38	C	1.398414	0.193401	0.290037
C39	C	1.568983	0.071923	0.290020
C40	C	1.568996	0.071920	0.395039
C41	C	1.483715	0.132658	0.447561
C42	C	1.398421	0.193399	0.395066
C43	C	1.654279	0.011175	0.447542
C44	C	1.654294	0.011169	0.552567
C45	C	1.569017	0.071912	0.605092
C46	C	1.483722	0.132656	0.552589
C47	C	1.398441	0.193394	0.605112
C48	C	1.313150	0.254143	0.552612
C49	C	1.313145	0.254142	0.447590
C50	C	1.569022	0.071913	0.710113
C51	C	1.398448	0.193391	0.710140
N52	N	1.483741	0.132651	0.762636
H53	H	1.075626	0.283758	0.000056
Cl54	Cl	1.761517	-0.065195	0.618561
H55	H	0.891793	-0.018444	0.000102
Cl56	Cl	1.165037	-0.049706	0.000076
Cl57	Cl	1.113946	-0.228516	0.000053
H58	H	1.723706	-0.038281	0.404775
H59	H	1.282172	-0.122754	0.000050
Cl60	Cl	1.676229	-0.004457	0.776107
H61	H	1.697240	-0.159152	0.000082
H62	H	1.243703	0.303601	0.404838
H63	H	1.328975	0.242865	0.247289
Cl64	Cl	1.205935	0.330491	0.618651
Cl65	Cl	1.735347	-0.637203	0.000110
H66	H	0.837993	0.279228	0.000085
Cl67	Cl	1.108326	-0.440819	0.000043
H68	H	1.329006	0.242855	0.752898
H69	H	1.803361	-0.480891	0.000105
Cl70	Cl	1.218973	-0.591924	0.000053
Cl71	Cl	1.676182	-0.004436	0.223995
Cl72	Cl	1.859120	-0.293879	0.000081
