data_functionalizedCrystal
_audit_creation_method	'MofGen! by Chris Wilmer'
_symmetry_space_group_name_H-M	'P1'
_symmetry_Int_Tables_number	1
_symmetry_cell_setting	triclinic
loop_
_symmetry_equiv_pos_as_xyz
  x,y,z
_cell_length_a	15.298708
_cell_length_b	18.050590
_cell_length_c	18.050583
_cell_angle_alpha	90.033223
_cell_angle_beta	80.351280
_cell_angle_gamma	99.713060
loop_
_atom_site_label
_atom_site_type_symbol
_atom_site_fract_x
_atom_site_fract_y
_atom_site_fract_z
Zn1	Zn	1.379137	-0.098909	0.223748
Zn2	Zn	1.379045	-0.223127	0.099570
Zn3	Zn	1.228285	-0.120460	0.121029
Zn4	Zn	1.228256	-0.244584	0.245166
O5	O	1.303681	-0.171770	0.172378
O6	O	1.505362	-0.097387	0.189332
O7	O	1.359020	-0.209547	-0.001505
O8	O	1.248346	-0.013669	0.134672
O9	O	1.505295	-0.188650	0.098098
O10	O	1.359176	0.002164	0.210140
O11	O	1.248257	-0.134118	0.014261
O12	O	1.102043	-0.154924	0.155440
O13	O	1.248297	-0.225220	0.346245
O14	O	1.102022	-0.246117	0.246642
O15	O	1.359148	-0.118193	0.330510
O16	O	1.358992	-0.329905	0.118866
O17	O	1.248208	-0.345669	0.225835
C18	C	1.069300	-0.205188	0.205694
C19	C	0.969032	-0.219503	0.219964
C20	C	0.686334	-0.069648	0.070568
C21	C	0.780542	-0.056194	0.057162
C22	C	0.827669	-0.097021	0.097861
C23	C	0.780579	-0.151302	0.151970
C24	C	0.686362	-0.164753	0.165382
C25	C	0.827697	-0.192125	0.192675
C26	C	0.780607	-0.246407	0.246784
C27	C	0.686400	-0.259856	0.260193
C28	C	0.639273	-0.219030	0.219494
C29	C	0.921914	-0.178675	0.179262
C30	C	0.921942	-0.273780	0.274076
C31	C	0.827734	-0.287233	0.287483
C32	C	1.303611	-0.364732	0.172358
C33	C	1.303664	-0.447270	0.172363
C34	C	1.364034	-0.638103	0.114245
C35	C	1.386068	-0.684287	0.178891
C36	C	1.303715	-0.598393	0.172385
C37	C	1.281773	-0.699278	0.107757
C38	C	1.303766	-0.744371	0.172401
C39	C	1.325792	-0.643484	0.237061
C40	C	1.221458	-0.658475	0.165886
C41	C	1.243461	-0.704642	0.230584
C42	C	1.303688	-0.514299	0.172375
C43	C	1.303793	-0.828463	0.172419
C44	C	1.538976	-0.138221	0.138932
C45	C	1.639245	-0.123925	0.124680
C46	C	1.303729	-0.171696	0.366077
C47	C	1.303750	-0.171665	0.448620
C48	C	1.303775	0.021949	0.172411
C49	C	1.303815	0.104501	0.172425
C50	C	1.303684	-0.171782	-0.020574
C51	C	1.303838	-0.171579	-0.103142
C52	C	1.364088	-0.113406	0.688881
C53	C	1.386114	-0.178027	0.636333
C54	C	1.303809	-0.171610	0.745732
C55	C	1.281796	-0.107014	0.651196
C56	C	1.303782	-0.171633	0.599751
C57	C	1.325878	-0.236260	0.694265
C58	C	1.221521	-0.165207	0.709138
C59	C	1.243516	-0.229879	0.656617
C60	C	1.303826	-0.171595	0.829828
C61	C	1.303765	-0.171655	0.515657
H62	H	0.818876	-0.012000	0.013104
C63	C	0.775929	-0.346937	0.347006
C64	C	0.711127	-0.414450	0.323941
C65	C	0.659321	-0.474152	0.383464
C66	C	0.672316	-0.466342	0.466052
C67	C	0.737121	-0.398826	0.489120
C68	C	0.788928	-0.339123	0.429597
H69	H	0.701504	-0.420234	0.262802
H70	H	0.611348	-0.524132	0.366387
H71	H	0.633966	-0.510538	0.510114
H72	H	0.746744	-0.393042	0.550260
H73	H	0.836901	-0.289144	0.446674
H74	H	1.415114	-0.064222	0.703318
C75	C	1.256662	-0.732238	0.033916
C76	C	1.236930	-0.680380	-0.026690
C77	C	1.211827	-0.713336	-0.100533
C78	C	1.206455	-0.798151	-0.113769
C79	C	1.226187	-0.850015	-0.053161
C80	C	1.251291	-0.817059	0.020681
H81	H	1.240906	-0.617590	-0.016893
H82	H	1.197220	-0.674943	-0.145399
H83	H	1.187872	-0.822548	-0.168432
H84	H	1.222211	-0.912805	-0.062958
H85	H	1.265898	-0.855452	0.065547
H86	H	1.344302	-0.619186	0.291782
C87	C	1.480105	-0.185366	0.593645
C88	C	1.497086	-0.187411	0.507192
C89	C	1.591079	-0.194743	0.464507
C90	C	1.668090	-0.200028	0.508275
C91	C	1.651111	-0.197983	0.594733
C92	C	1.557118	-0.190652	0.637418
H93	H	1.440076	-0.183498	0.474787
H94	H	1.603647	-0.196257	0.400504
H95	H	1.737669	-0.205455	0.476677
H96	H	1.708121	-0.201896	0.627137
H97	H	1.544550	-0.189137	0.701420
C98	C	1.127482	-0.642599	0.158414
C99	C	1.115716	-0.594415	0.091573
C100	C	1.021739	-0.578537	0.084090
C101	C	0.939529	-0.610843	0.143448
C102	C	0.951294	-0.659030	0.210293
C103	C	1.045270	-0.674908	0.217776
H104	H	1.176575	-0.570498	0.047628
H105	H	1.013031	-0.542866	0.034606
H106	H	0.869962	-0.599090	0.137909
H107	H	0.890435	-0.682947	0.254238
H108	H	1.053978	-0.710579	0.267260
C109	C	0.634500	-0.024734	0.025809
C110	C	0.647398	-0.028834	-0.060465
C111	C	0.595566	0.016089	-0.105225
C112	C	0.530836	0.065112	-0.063711
C113	C	0.517936	0.069214	0.022568
C114	C	0.569768	0.024291	0.067328
H115	H	0.695317	-0.065126	-0.091200
H116	H	0.605116	0.013052	-0.169095
H117	H	0.492467	0.098367	-0.096845
H118	H	0.470017	0.105506	0.053303
H119	H	0.560218	0.027328	0.131198
H120	H	1.192529	-0.279159	0.642311
H121	H	1.344586	-0.290895	0.713187
H122	H	1.151964	-0.159751	0.740746
H123	H	0.960245	-0.134476	0.135208
C124	C	1.174580	-0.743558	0.297075
C125	C	1.184676	-0.722370	0.378232
C126	C	1.115800	-0.761288	0.444724
C127	C	1.036828	-0.821393	0.430060
C128	C	1.026729	-0.842584	0.348900
C129	C	1.095605	-0.803666	0.282407
H130	H	1.243138	-0.677874	0.389090
H131	H	1.123276	-0.745600	0.504804
H132	H	0.985842	-0.850202	0.479281
H133	H	0.968267	-0.887080	0.338041
H134	H	1.088129	-0.819354	0.222327
C135	C	1.256650	-0.033208	0.625487
C136	C	1.322803	0.018917	0.566206
C137	C	1.297667	0.092724	0.540495
C138	C	1.206377	0.114407	0.574067
C139	C	1.140218	0.062281	0.633352
C140	C	1.165355	-0.011526	0.659062
H141	H	1.390386	0.002867	0.541351
H142	H	1.346642	0.131311	0.496608
H143	H	1.187770	0.169043	0.555034
H144	H	1.072635	0.078331	0.658206
H145	H	1.116379	-0.050113	0.702949
C146	C	0.931298	-0.082228	0.083109
C147	C	0.983085	-0.146175	0.056480
C148	C	1.086718	-0.131382	0.041722
C149	C	1.138565	-0.052642	0.053594
C150	C	1.086779	0.011310	0.080226
C151	C	0.983145	-0.003483	0.094983
H152	H	0.944705	-0.204467	0.047690
H153	H	1.125054	-0.178724	0.022008
H154	H	1.215281	-0.041692	0.042670
H155	H	1.125159	0.069603	0.089015
H156	H	0.944810	0.043860	0.114697
C157	C	0.634602	-0.319563	0.319716
C158	C	0.569803	-0.387078	0.296652
C159	C	0.518007	-0.446786	0.356174
C160	C	0.531012	-0.438978	0.438760
C161	C	0.595814	-0.371460	0.461827
C162	C	0.647609	-0.311752	0.402305
H163	H	0.560174	-0.392860	0.235514
H164	H	0.470037	-0.496767	0.339098
H165	H	0.492670	-0.483177	0.482821
H166	H	0.605443	-0.365677	0.522965
H167	H	0.695580	-0.261770	0.419382
H168	H	0.562561	-0.229984	0.230403
H169	H	1.415060	-0.609159	0.065118
H170	H	0.960312	-0.307021	0.307219
H171	H	1.455653	-0.696015	0.184401
