data_functionalizedCrystal
_audit_creation_method	'MofGen! by Chris Wilmer'
_symmetry_space_group_name_H-M	'P1'
_symmetry_Int_Tables_number	1
_symmetry_cell_setting	triclinic
loop_
_symmetry_equiv_pos_as_xyz
  x,y,z
_cell_length_a	23.096457
_cell_length_b	14.628931
_cell_length_c	23.096457
_cell_angle_alpha	60.000252
_cell_angle_beta	60.000612
_cell_angle_gamma	89.998385
loop_
_atom_site_label
_atom_site_type_symbol
_atom_site_fract_x
_atom_site_fract_y
_atom_site_fract_z
Zr1	Zr	0.557780	-0.119978	0.633747
O2	O	0.465335	-0.265931	0.754534
O3	O	0.586118	-0.075237	0.512960
O4	O	0.586121	-0.265940	0.633748
O5	O	0.465332	0.075205	0.633745
O6	O	0.681401	-0.265946	0.633750
O7	O	0.465332	-0.075228	0.633746
O8	O	0.681396	0.075187	0.417682
O9	O	0.465337	-0.265928	0.849813
O10	O	0.669313	-0.056158	0.562643
O11	O	0.598206	0.056112	0.562642
O12	O	0.598209	-0.168416	0.704854
O13	O	0.527103	-0.056146	0.704853
Zr14	Zr	0.709742	0.119935	0.633750
Zr15	Zr	0.709742	-0.119987	0.633750
Zr16	Zr	0.557781	0.119944	0.633747
Zr17	Zr	0.557784	-0.119974	0.785707
Zr18	Zr	0.709738	0.119932	0.481790
O19	O	0.681404	0.075195	0.754537
O20	O	0.681404	-0.265943	0.754537
O21	O	0.465335	0.075207	0.754533
O22	O	0.802187	0.265888	0.512963
O23	O	0.802187	-0.075250	0.512964
O24	O	0.586118	0.265901	0.512960
O25	O	0.802190	-0.075247	0.633751
O26	O	0.681402	0.265898	0.633749
O27	O	0.586121	0.265903	0.633747
O28	O	0.802190	0.075185	0.633751
O29	O	0.586126	-0.265935	0.849815
O30	O	0.681396	0.265893	0.417682
O31	O	0.802185	0.265886	0.417684
O32	O	0.802185	0.075180	0.417684
O33	O	0.465337	-0.075222	0.849812
O34	O	0.586126	-0.075229	0.849815
O35	O	0.669313	0.168374	0.562643
O36	O	0.740419	0.056104	0.562644
O37	O	0.669316	-0.056154	0.704855
O38	O	0.598210	0.056115	0.704854
C39	C	0.443681	-0.000010	0.633745
C40	C	0.379169	-0.000007	0.633744
C41	C	0.633756	-0.000026	0.443670
C42	C	0.633755	-0.000027	0.379160
C43	C	0.633761	0.300084	0.633748
C44	C	0.633761	0.401938	0.633748
C45	C	0.385979	0.058580	0.559514
C46	C	0.325363	0.058585	0.559513
C47	C	0.257939	-0.000019	0.633746
C48	C	0.251132	-0.058608	0.707986
C49	C	0.311747	-0.058602	0.707985
N50	N	0.135144	-0.095395	0.689002
N51	N	0.077565	-0.095399	0.688998
C52	C	0.075306	-0.000039	0.633753
N53	N	0.132808	0.095324	0.578501
N54	N	0.190394	0.095326	0.578503
C55	C	0.192207	-0.000031	0.633755
C56	C	0.016392	0.058559	0.559517
C57	C	-0.044226	0.058567	0.559519
C58	C	-0.118458	-0.058637	0.707994
C59	C	-0.057840	-0.058634	0.707990
C60	C	0.009582	-0.000039	0.633749
C61	C	0.823841	-0.000032	0.633752
C62	C	0.888353	-0.000036	0.633753
C63	C	0.633761	-0.300127	0.633749
C64	C	0.633761	-0.401980	0.633749
C65	C	0.598490	0.391659	0.704294
C66	C	0.598489	0.496928	0.704295
C67	C	0.581283	-0.082892	-0.028872
C68	C	0.581277	-0.082892	0.031747
C69	C	0.633766	-0.000022	0.009570
C70	C	0.686256	0.082870	-0.073235
C71	C	0.686256	0.082873	-0.133851
N72	N	0.696014	0.025066	0.065673
N73	N	0.696010	0.025056	0.123259
C74	C	0.633767	-0.000026	0.192200
N75	N	0.571524	-0.025119	0.201387
N76	N	0.571527	-0.025115	0.143797
C77	C	0.633771	-0.000016	0.075292
C78	C	0.581271	-0.082907	0.340724
C79	C	0.581265	-0.082899	0.401341
C80	C	0.686250	0.082858	0.296357
C81	C	0.686251	0.082854	0.235742
C82	C	0.633762	-0.000034	0.257930
C83	C	0.633766	-0.000017	0.823827
C84	C	0.633767	-0.000015	0.888337
C85	C	0.823837	-0.000037	0.443674
C86	C	0.888347	-0.000042	0.379164
C87	C	0.633757	0.300080	0.443670
C88	C	0.633755	0.401931	0.379159
C89	C	0.823837	0.300069	0.443673
C90	C	0.888347	0.401917	0.379163
C91	C	0.443685	-0.300111	0.823824
C92	C	0.379175	-0.401959	0.888334
C93	C	0.443686	-0.000006	0.823823
C94	C	0.379176	-0.000000	0.888333
C95	C	0.633766	-0.300122	0.823827
C96	C	0.633767	-0.401974	0.888338
C97	C	0.881524	-0.058654	0.348869
C98	C	0.942132	-0.058682	0.288264
C99	C	1.009562	-0.000090	0.257950
C100	C	1.016383	0.058524	0.288251
C101	C	0.955776	0.058544	0.348860
C102	C	0.670871	0.508371	0.348864
C103	C	0.670867	0.604081	0.288258
C104	C	0.633751	0.593348	0.257943
C105	C	0.596630	0.486897	0.288244
C106	C	0.596630	0.391190	0.348853
C107	C	0.955765	0.391142	0.348869
C108	C	1.016385	0.486829	0.288264
C109	C	1.009585	0.593291	0.257949
C110	C	0.942160	0.604064	0.288249
C111	C	0.881542	0.508377	0.348858
C112	C	0.311757	-0.391184	0.918635
C113	C	0.251138	-0.486872	0.979259
C114	C	0.257937	-0.593333	1.009577
C115	C	0.325362	-0.604106	0.979273
C116	C	0.385980	-0.508420	0.918654
C117	C	0.385998	0.058602	0.918634
C118	C	0.325390	0.058603	0.979256
C119	C	0.257960	0.000007	1.009572
C120	C	0.251139	-0.058602	0.979268
C121	C	0.311746	-0.058609	0.918651
C122	C	0.670891	-0.391205	0.918634
C123	C	0.670906	-0.486896	0.979241
C124	C	0.633793	-0.593355	1.009555
C125	C	0.596668	-0.604122	0.979253
C126	C	0.596657	-0.508432	0.918643
H127	H	0.440873	0.106287	0.499061
Cl128	Cl	0.964332	0.257316	0.386972
H129	H	-0.038675	0.106283	0.499069
Cl130	Cl	0.717555	-0.257382	0.880536
H131	H	0.728985	0.150338	0.278299
H132	H	0.633807	-0.671263	1.058907
Cl133	Cl	1.085748	-0.000124	0.181754
H134	H	0.538527	-0.150369	0.099167
Cl135	Cl	0.717577	-0.473335	1.017326
H136	H	0.306197	-0.106308	0.768434
H137	H	0.701096	0.517132	0.373540
H138	H	0.663962	0.606654	0.573349
Cl139	Cl	0.181774	0.000030	1.085775
H140	H	0.728992	0.150345	-0.091288
H141	H	0.566451	-0.690814	1.003944
H142	H	0.663955	0.488671	0.573352
Cl143	Cl	0.717540	0.737891	0.250176
H144	H	0.961341	0.106280	0.373518
H145	H	0.538531	-0.150398	0.358792
Cl146	Cl	1.101158	0.132183	0.250131
Cl147	Cl	0.333898	-0.737952	1.017393
Cl148	Cl	0.633759	0.713679	0.181746
Cl149	Cl	0.515291	-0.187087	-0.000975
H150	H	0.196230	-0.106308	1.003960
H151	H	0.208572	-0.671239	1.058937
Cl152	Cl	0.549974	0.473423	0.250123
H153	H	0.566408	0.304525	0.373511
Cl154	Cl	0.303191	-0.257358	0.880533
Cl155	Cl	1.101138	0.473261	0.250182
Cl156	Cl	0.933624	0.737910	0.250129
H157	H	1.058950	0.671196	0.208598
Cl158	Cl	0.796790	0.521942	0.386929
H159	H	0.728997	0.150365	-0.201267
Cl160	Cl	0.166384	-0.473303	1.017339
H161	H	0.568294	0.488303	0.764692
Cl162	Cl	0.470732	-0.521985	0.880563
H163	H	0.440897	0.106324	0.893956
H164	H	0.330958	0.106333	1.003919
H165	H	0.306182	-0.106326	0.893982
Cl166	Cl	0.549975	-0.521990	0.880572
H167	H	0.196231	-0.106323	0.768427
H168	H	0.728992	0.150338	0.168328
Cl169	Cl	0.933541	-0.132368	0.250180
H170	H	0.330908	0.106295	0.499064
H171	H	0.071290	0.106295	0.499065
Cl172	Cl	-0.203215	-0.132303	0.801317
H173	H	-0.063388	-0.106350	0.768437
Cl174	Cl	0.515273	-0.187090	0.505428
H175	H	0.568290	0.304926	0.764690
H176	H	0.826625	-0.106380	0.373550
