data_functionalizedCrystal
_audit_creation_method	'MofGen! by Chris Wilmer'
_symmetry_space_group_name_H-M	'P1'
_symmetry_Int_Tables_number	1
_symmetry_cell_setting	triclinic
loop_
_symmetry_equiv_pos_as_xyz
  x,y,z
_cell_length_a	10.967926
_cell_length_b	15.944551
_cell_length_c	9.482900
_cell_angle_alpha	99.334197
_cell_angle_beta	92.549900
_cell_angle_gamma	84.118690
loop_
_atom_site_label
_atom_site_type_symbol
_atom_site_fract_x
_atom_site_fract_y
_atom_site_fract_z
O1	O	1.610220	0.148272	0.282513
O2	O	1.261007	0.150114	0.195021
O3	O	1.445148	0.027234	0.241169
O4	O	1.426080	0.271152	0.236365
O5	O	1.407745	0.052299	0.473588
O6	O	1.223604	0.175178	0.427440
O7	O	1.572817	0.173337	0.514932
Cu8	Cu	1.394795	0.176546	0.492407
Cu9	Cu	1.439029	0.146904	0.217545
O10	O	1.388676	0.296217	0.468784
C11	C	1.197618	0.160618	0.300034
C12	C	1.064464	0.154566	0.266674
C13	C	0.985724	0.164851	0.372201
C14	C	0.848102	0.158596	0.337724
C15	C	1.425655	0.008446	0.357180
C16	C	1.423281	-0.084878	0.356586
C17	C	1.303470	-0.303688	0.326548
C18	C	1.340665	-0.350512	0.455085
C19	C	1.418988	-0.255747	0.355499
C20	C	1.377569	-0.375206	0.225945
C21	C	1.414834	-0.420798	0.354442
C22	C	1.456200	-0.301332	0.484138
C23	C	1.493105	-0.326031	0.254891
C24	C	1.530380	-0.372832	0.383476
C25	C	1.421378	-0.160664	0.356109
C26	C	1.412452	-0.515878	0.353844
C27	C	1.636207	0.162832	0.409915
C28	C	1.769362	0.168883	0.443266
C29	C	1.408170	0.315004	0.352770
C30	C	1.410546	0.408327	0.353354
N31	N	1.363693	0.197395	0.685733
N32	N	1.470141	0.126049	0.024222
C33	C	1.429847	0.153049	0.774511
C34	C	1.403977	0.170402	0.935445
H35	H	0.803828	0.182319	0.559144
H36	H	1.029992	0.141126	0.150805
C37	C	1.175526	-0.263482	0.294943
C38	C	1.096241	-0.275342	0.400197
C39	C	0.978377	-0.238305	0.371148
H40	H	1.146882	-0.289674	0.204034
H41	H	1.177998	-0.204112	0.294774
H42	H	1.093764	-0.334701	0.400351
H43	H	1.124845	-0.249149	0.491117
H44	H	0.980849	-0.178935	0.370979
H45	H	0.949745	-0.264500	0.280236
H46	H	0.924570	-0.246340	0.442564
C47	C	1.254832	-0.365725	0.567913
C48	C	1.254635	-0.453633	0.566742
C49	C	1.175586	-0.467676	0.670663
H50	H	1.174189	-0.341970	0.547710
H51	H	1.282004	-0.339383	0.659419
H52	H	1.227458	-0.479964	0.475257
H53	H	1.335259	-0.477407	0.586962
H54	H	1.202758	-0.441335	0.762169
H55	H	1.094948	-0.443917	0.650450
H56	H	1.175451	-0.527322	0.669891
C57	C	1.500396	-0.258427	0.629702
C58	C	1.502019	-0.170845	0.628597
C59	C	1.542704	-0.131291	0.762668
H60	H	1.580732	-0.282571	0.650303
H61	H	1.446539	-0.266849	0.700801
H62	H	1.555875	-0.162429	0.557520
H63	H	1.421697	-0.146677	0.608021
H64	H	1.488847	-0.139713	0.833767
H65	H	1.623037	-0.155442	0.783257
H66	H	1.543800	-0.071862	0.761940
H67	H	1.287899	0.248204	0.728868
C68	C	1.658306	-0.412751	0.415910
C69	C	1.698871	-0.374828	0.551116
C70	C	1.816700	-0.411588	0.581056
H71	H	1.712754	-0.403877	0.345765
H72	H	1.656264	-0.472291	0.414674
H73	H	1.700922	-0.315302	0.552340
H74	H	1.644457	-0.383700	0.621289
H75	H	1.814657	-0.471128	0.579820
H76	H	1.871136	-0.402711	0.510903
H77	H	1.844233	-0.385868	0.672800
C78	C	1.530919	0.085228	0.717274
C79	C	1.586918	0.047664	0.830362
C80	C	1.680021	-0.014825	0.777692
H81	H	1.590228	0.110789	0.672731
H82	H	1.496770	0.042746	0.649388
H83	H	1.621068	0.090139	0.898223
H84	H	1.527642	0.022086	0.874916
H85	H	1.645872	-0.057307	0.709806
H86	H	1.739321	0.010744	0.733150
H87	H	1.718020	-0.040324	0.854411
H88	H	1.328179	0.221215	0.978574
C89	C	1.578811	-0.311018	0.141797
C90	C	1.537176	-0.348621	0.006872
C91	C	1.616080	-0.334797	-0.097360
H92	H	1.659140	-0.335761	0.160862
H93	H	1.580231	-0.251381	0.143536
H94	H	1.535770	-0.408246	0.005137
H95	H	1.456859	-0.323885	-0.012238
H96	H	1.617499	-0.275160	-0.095621
H97	H	1.696404	-0.359541	-0.078282
H98	H	1.587836	-0.360302	-0.188919
C99	C	0.802300	0.140806	0.183140
C100	C	0.831495	0.205701	0.110868
C101	C	0.789335	0.189337	-0.031537
H102	H	0.715915	0.139004	0.180299
H103	H	0.840304	0.087488	0.138396
H104	H	0.793488	0.259005	0.155599
H105	H	0.917872	0.207514	0.113669
H106	H	0.827338	0.136019	-0.076281
H107	H	0.702952	0.187535	-0.034363
H108	H	0.809148	0.233361	-0.080595
H109	H	1.344286	-0.407344	0.116810
H110	H	1.020198	0.178284	0.488070
H111	H	1.545931	0.075230	0.981092
