data_functionalizedCrystal
_audit_creation_method	'MofGen! by Chris Wilmer'
_symmetry_space_group_name_H-M	'P1'
_symmetry_Int_Tables_number	1
_symmetry_cell_setting	triclinic
loop_
_symmetry_equiv_pos_as_xyz
  x,y,z
_cell_length_a	15.711784
_cell_length_b	14.750779
_cell_length_c	16.992695
_cell_angle_alpha	103.520651
_cell_angle_beta	105.128512
_cell_angle_gamma	73.498376
loop_
_atom_site_label
_atom_site_type_symbol
_atom_site_fract_x
_atom_site_fract_y
_atom_site_fract_z
O1	O	1.159289	0.079876	0.450616
O2	O	0.903419	0.079867	0.389703
O3	O	1.030330	0.079864	0.305722
O4	O	1.032378	0.079879	0.534598
O5	O	1.066206	-0.079787	0.281985
O6	O	0.939296	-0.079784	0.365966
O7	O	1.195165	-0.079775	0.426880
Zn8	Zn	1.072927	-0.105128	0.392654
Zn9	Zn	1.025658	0.105220	0.423928
O10	O	1.068254	-0.079772	0.510861
C11	C	0.888466	0.000040	0.367884
C12	C	0.790460	0.000037	0.338225
N13	N	1.105193	-0.248684	0.371312
C14	C	0.657801	0.000029	0.226568
C15	C	0.749892	0.000031	0.254446
C16	C	0.738944	0.000045	0.394160
C17	C	0.646849	0.000046	0.366295
C18	C	0.606285	0.000037	0.282498
C19	C	0.595333	0.000055	0.422225
C20	C	0.503247	0.000052	0.394361
C21	C	0.462677	0.000040	0.310567
C22	C	0.514199	0.000034	0.254634
C23	C	0.635900	0.000057	0.506020
C24	C	0.584383	0.000066	0.561950
C25	C	0.492294	0.000070	0.534087
C26	C	0.451724	0.000058	0.450293
C27	C	0.440772	0.000076	0.590020
C28	C	0.348686	0.000073	0.562156
C29	C	0.359639	0.000055	0.422429
C30	C	0.903282	-0.600497	0.504837
C31	C	0.925898	-0.700997	0.489889
C32	C	1.038305	-0.700963	0.415571
C33	C	1.015695	-0.600461	0.430509
C34	C	0.948183	-0.550236	0.475144
C35	C	1.060596	-0.550200	0.400816
C36	C	1.037991	-0.449707	0.415757
C37	C	0.970483	-0.399475	0.460392
C38	C	0.925577	-0.449743	0.490085
C39	C	1.128112	-0.600426	0.356187
C40	C	1.173014	-0.550165	0.326493
C41	C	1.150404	-0.449670	0.341429
C42	C	1.082897	-0.399438	0.386064
C43	C	1.195310	-0.399402	0.311736
C44	C	1.172704	-0.298909	0.326677
C45	C	1.060291	-0.298945	0.401005
C46	C	1.210118	0.000054	0.448699
C47	C	1.308123	0.000063	0.478359
C48	C	1.045629	0.000038	0.263884
C49	C	1.037755	0.000038	0.174581
N50	N	0.993398	0.248776	0.445266
C51	C	1.113730	0.000040	0.146133
C52	C	1.106324	0.000049	0.062224
C53	C	1.022944	0.000049	0.006763
C54	C	0.946963	0.000050	0.035216
C55	C	0.954368	0.000048	0.119125
C56	C	0.992252	0.000061	-0.245635
C57	C	0.984853	0.000060	-0.329549
C58	C	1.144214	0.000061	-0.302536
C59	C	1.151613	0.000053	-0.218628
C60	C	1.075631	0.000059	-0.190181
N61	N	1.015373	0.000055	-0.079006
N62	N	1.083202	0.000060	-0.104412
C63	C	1.052955	0.000056	0.552699
C64	C	1.060828	0.000062	0.642003
H65	H	0.326607	0.000057	0.354195
H66	H	0.848300	-0.559602	0.541176
Cl67	Cl	0.463198	0.000020	0.149287
H68	H	0.710883	0.000056	0.528704
H69	H	0.624770	0.000031	0.158334
H70	H	0.617424	0.000070	0.630177
Cl71	Cl	0.491780	0.000077	0.695359
Cl72	Cl	0.896730	0.000072	-0.209884
H73	H	1.219510	0.000052	-0.173476
Cl74	Cl	0.975407	-0.235802	0.457108
H75	H	1.146518	-0.682254	0.344027
H76	H	0.306741	0.000076	0.607699
H77	H	1.227985	-0.591070	0.290154
Cl78	Cl	0.858852	0.000050	0.154888
Cl79	Cl	0.942068	-0.273139	0.479180
H80	H	0.879072	0.000057	-0.009946
H81	H	1.250285	-0.440308	0.275401
Cl82	Cl	0.840693	-0.386600	0.546188
H83	H	0.387696	0.000028	0.287880
H84	H	0.889329	-0.741915	0.514074
H85	H	0.791833	0.000028	0.208895
H86	H	1.093277	-0.741867	0.379231
H87	H	1.209269	-0.257986	0.302498
H88	H	1.181628	0.000034	0.191284
H89	H	0.771984	0.000049	0.462387
Cl90	Cl	1.201840	0.000048	0.026465
H91	H	0.916955	0.000045	-0.374708
Cl92	Cl	1.239727	0.000055	-0.338302
