data_functionalizedCrystal
_audit_creation_method	'MofGen! by Chris Wilmer'
_symmetry_space_group_name_H-M	'P1'
_symmetry_Int_Tables_number	1
_symmetry_cell_setting	triclinic
loop_
_symmetry_equiv_pos_as_xyz
  x,y,z
_cell_length_a	14.519709
_cell_length_b	17.699083
_cell_length_c	16.176319
_cell_angle_alpha	89.998611
_cell_angle_beta	89.992256
_cell_angle_gamma	83.481580
loop_
_atom_site_label
_atom_site_type_symbol
_atom_site_fract_x
_atom_site_fract_y
_atom_site_fract_z
O1	O	0.116624	1.004413	-0.068632
O2	O	0.616624	1.504413	0.431368
O3	O	0.131798	0.784078	-0.068660
O4	O	0.631798	1.284078	0.431340
O5	O	-0.010052	0.900087	-0.068638
O6	O	0.489948	1.400087	0.431362
O7	O	0.258474	0.888403	-0.068654
O8	O	0.758474	1.388403	0.431346
O9	O	-0.010061	0.900071	0.068855
O10	O	0.489939	1.400071	0.568855
O11	O	0.131789	0.784062	0.068833
O12	O	0.631789	1.284062	0.568833
O13	O	0.116615	1.004397	0.068861
O14	O	0.616615	1.504397	0.568861
Cu15	Cu	0.124201	0.894228	0.081401
Cu16	Cu	0.624201	1.394228	0.581401
Cu17	Cu	0.124212	0.894247	-0.081200
Cu18	Cu	0.624212	1.394247	0.418800
O19	O	0.258465	0.888387	0.068839
O20	O	0.758465	1.388387	0.568839
C21	C	0.131249	0.755871	0.000083
C22	C	0.631249	1.255871	0.500083
C23	C	0.129618	0.671848	0.000073
C24	C	0.629618	1.171848	0.500073
C25	C	0.212881	0.623466	0.000068
C26	C	0.712881	1.123466	0.500068
C27	C	0.211343	0.544518	0.000079
C28	C	0.711343	1.044518	0.500079
C29	C	0.126541	0.513954	0.000089
C30	C	0.626541	1.013954	0.500089
C31	C	0.043272	0.562343	0.000096
C32	C	0.543272	1.062343	0.500096
C33	C	0.044811	0.641289	0.000091
C34	C	0.544811	1.141289	0.500091
C35	C	0.037064	0.243962	0.000117
C36	C	0.537064	0.743962	0.500117
C37	C	0.035531	0.165010	0.000119
C38	C	0.535531	0.665010	0.500119
C39	C	0.203596	0.147191	0.000105
C40	C	0.703596	0.647191	0.500105
C41	C	0.205135	0.226137	0.000100
C42	C	0.705135	0.726137	0.500100
C43	C	0.121866	0.274519	0.000112
C44	C	0.621866	0.774519	0.500112
C45	C	0.123535	0.360123	0.000102
C46	C	0.623535	0.860123	0.500102
C47	C	0.124872	0.428352	0.000093
C48	C	0.624872	0.928352	0.500093
C49	C	-0.044414	0.899534	0.000109
C50	C	0.455586	1.399534	0.500109
C51	C	-0.146789	0.897903	0.000109
C52	C	0.353211	1.397903	0.500109
C53	C	-0.521659	0.891896	0.000087
C54	C	-0.021659	1.391896	0.500087
C55	C	-0.417358	0.893564	0.000093
C56	C	0.082642	1.393564	0.500093
C57	C	-0.334227	0.894899	0.000099
C58	C	0.165773	1.394899	0.500099
C59	C	-0.229920	0.896568	0.000104
C60	C	0.270080	1.396568	0.500104
C61	C	0.292827	0.888940	0.000090
C62	C	0.792827	1.388940	0.500090
C63	C	0.395202	0.890572	0.000085
C64	C	0.895202	1.390572	0.500085
N65	N	0.124193	0.894220	0.195767
N66	N	0.624193	1.394220	0.695767
C67	C	0.117164	1.032603	0.000116
C68	C	0.617164	1.532603	0.500116
C69	C	0.118795	1.116626	0.000121
C70	C	0.618795	1.616626	0.500121
N71	N	0.124213	0.894260	-0.195565
N72	N	0.624213	1.394260	0.304435
C73	C	0.061408	0.945604	0.239040
C74	C	0.561408	1.445604	0.739040
C75	C	0.061407	0.945608	0.325588
C76	C	0.561407	1.445608	0.825588
C77	C	0.124196	0.894231	0.368859
C78	C	0.624196	1.394231	0.868859
C79	C	0.186985	0.842841	0.325579
C80	C	0.686985	1.342841	0.825579
C81	C	0.186981	0.842834	0.239034
C82	C	0.686981	1.342834	0.739034
C83	C	0.187002	0.842867	0.674608
C84	C	0.687002	1.342867	1.174608
C85	C	0.187003	0.842879	0.761159
C86	C	0.687003	1.342879	1.261159
C87	C	0.061428	0.945641	0.761161
C88	C	0.561428	1.445641	1.261161
C89	C	0.061424	0.945634	0.674616
C90	C	0.561424	1.445634	1.174616
C91	C	0.124209	0.894242	0.631343
C92	C	0.624209	1.394242	1.131343
C93	C	0.124208	0.894237	0.537499
C94	C	0.624208	1.394237	1.037499
C95	C	0.124202	0.894238	0.462702
C96	C	0.624202	1.394238	0.962702
H97	H	0.271397	0.107789	0.000100
H98	H	0.771397	0.607789	0.500100
H99	H	0.238125	0.801023	0.639382
H100	H	0.738125	1.301023	1.139382
O101	O	0.254715	0.787427	0.372245
O102	O	0.754715	1.287427	0.872245
H103	H	0.244179	0.796069	0.439696
H104	H	0.744179	1.296069	0.939696
O105	O	0.254703	0.787416	0.192353
O106	O	0.754703	1.287416	0.692353
H107	H	0.298372	0.751696	0.236981
H108	H	0.798372	1.251696	0.736981
O109	O	-0.052743	0.296142	0.000129
O110	O	0.447257	0.796142	0.500129
H111	H	-0.111966	0.261623	0.000130
H112	H	0.388034	0.761623	0.500130
O113	O	0.301152	0.492337	0.000073
O114	O	0.801152	0.992337	0.500073
H115	H	0.285838	0.432306	0.000089
H116	H	0.785838	0.932306	0.500089
H117	H	-0.033529	0.140129	0.000128
H118	H	0.466471	0.640129	0.500128
O119	O	-0.006311	1.001040	0.627944
O120	O	0.493689	1.501040	1.127944
H121	H	0.032444	1.037877	0.588502
H122	H	0.532444	1.537877	1.088502
H123	H	0.010302	0.987485	0.796403
H124	H	0.510302	1.487485	1.296403
O125	O	0.254746	0.787469	0.807827
O126	O	0.754746	1.287469	1.307827
H127	H	0.243088	0.728450	0.791240
H128	H	0.743088	1.228450	1.291240
O129	O	0.304347	0.656430	0.000066
O130	O	0.804347	1.156430	0.500066
H131	H	0.361985	0.609520	0.000075
H132	H	0.861985	1.109520	0.500075
O133	O	0.296598	0.259105	0.000102
O134	O	0.796598	0.759105	0.500102
H135	H	0.354240	0.212197	0.000112
H136	H	0.854240	0.712197	0.500112
H137	H	0.010281	0.987445	0.203814
H138	H	0.510281	1.487445	0.703814
O139	O	-0.044994	0.693478	0.000103
O140	O	0.455006	1.193478	0.500103
H141	H	-0.048312	0.729879	-0.055932
H142	H	0.451688	1.229879	0.444068
O143	O	-0.048197	0.529385	0.000110
O144	O	0.451803	1.029385	0.500110
H145	H	-0.035281	0.466360	0.000105
H146	H	0.464719	0.966360	0.500105
H147	H	0.010281	0.987449	0.360821
H148	H	0.510281	1.487449	0.860821
