data_functionalizedCrystal
_audit_creation_method	'MofGen! by Chris Wilmer'
_symmetry_space_group_name_H-M	'P1'
_symmetry_Int_Tables_number	1
_symmetry_cell_setting	triclinic
loop_
_symmetry_equiv_pos_as_xyz
  x,y,z
_cell_length_a	14.044191
_cell_length_b	10.489741
_cell_length_c	13.101039
_cell_angle_alpha	93.396862
_cell_angle_beta	86.337551
_cell_angle_gamma	88.865475
loop_
_atom_site_label
_atom_site_type_symbol
_atom_site_fract_x
_atom_site_fract_y
_atom_site_fract_z
O1	O	1.264977	0.301339	-0.085164
O2	O	1.598310	0.634672	0.248170
O3	O	1.931643	0.968006	0.581503
O4	O	0.988932	0.290224	-0.085177
O5	O	1.322265	0.623557	0.248157
O6	O	1.655599	0.956890	0.581490
O7	O	1.133235	0.110821	-0.085164
O8	O	1.466569	0.444155	0.248170
O9	O	1.799902	0.777488	0.581503
O10	O	1.120673	0.480741	-0.085176
O11	O	1.454007	0.814075	0.248157
O12	O	1.787340	1.147408	0.581490
O13	O	1.122882	0.123716	0.085265
O14	O	1.456215	0.457050	0.418599
O15	O	1.789549	0.790383	0.751932
O16	O	0.978579	0.303119	0.085252
O17	O	1.311912	0.636452	0.418586
O18	O	1.645245	0.969785	0.751919
O19	O	1.254623	0.314234	0.085265
O20	O	1.587957	0.647567	0.418599
O21	O	1.921290	0.980901	0.751932
Zn22	Zn	1.114957	0.310724	0.112318
Zn23	Zn	1.448290	0.644057	0.445651
Zn24	Zn	1.781624	0.977391	0.778985
Zn25	Zn	1.128598	0.293734	-0.112229
Zn26	Zn	1.461932	0.627067	0.221104
Zn27	Zn	1.795265	0.960401	0.554437
O28	O	1.110320	0.493637	0.085252
O29	O	1.443653	0.826970	0.418586
O30	O	1.776987	1.160303	0.751919
C31	C	0.948408	0.291809	0.000036
C32	C	1.281741	0.625142	0.333370
C33	C	1.615074	0.958476	0.666703
C34	C	0.843083	0.277305	0.000031
C35	C	1.176416	0.610639	0.333365
C36	C	1.509750	0.943972	0.666698
C37	C	0.593317	0.353651	0.000039
C38	C	0.926651	0.686985	0.333372
C39	C	1.259984	1.020318	0.666706
C40	C	0.650244	0.250811	0.000041
C41	C	0.983578	0.584145	0.333374
C42	C	1.316911	0.917478	0.666707
C43	C	0.757550	0.265556	0.000036
C44	C	1.090883	0.598889	0.333369
C45	C	1.424216	0.932223	0.666702
C46	C	0.486002	0.338909	0.000044
C47	C	0.819335	0.672242	0.333378
C48	C	1.152669	1.005575	0.666711
C49	C	1.127110	0.069641	0.000050
C50	C	1.460443	0.402974	0.333383
C51	C	1.793776	0.736307	0.666717
C52	C	1.124271	-0.072277	0.000048
C53	C	1.457605	0.261057	0.333382
C54	C	1.790938	0.594390	0.666715
C55	C	1.032455	-0.149733	0.000036
C56	C	1.365789	0.183600	0.333370
C57	C	1.699122	0.516933	0.666703
C58	C	1.070724	-0.231097	0.084069
C59	C	1.404057	0.102236	0.417402
C60	C	1.737390	0.435570	0.750735
C61	C	1.080953	-0.243783	-0.083961
C62	C	1.414287	0.089550	0.249372
C63	C	1.747620	0.422883	0.582706
C64	C	1.162573	-0.151766	0.084150
C65	C	1.495906	0.181567	0.417483
C66	C	1.829240	0.514901	0.750817
C67	C	1.172794	-0.164450	-0.083955
C68	C	1.506128	0.168884	0.249378
C69	C	1.839461	0.502217	0.582712
C70	C	1.211128	-0.245778	0.000098
C71	C	1.544461	0.087556	0.333431
C72	C	1.877795	0.420889	0.666764
C73	C	1.295148	0.312649	0.000050
C74	C	1.628481	0.645982	0.333384
C75	C	1.961814	0.979315	0.666717
C76	C	1.400473	0.327152	0.000048
C77	C	1.733806	0.660485	0.333382
C78	C	2.067139	0.993819	0.666715
C79	C	1.116446	0.534817	0.000036
C80	C	1.449779	0.868150	0.333370
C81	C	1.783112	1.201483	0.666703
C82	C	1.119285	0.676734	0.000032
C83	C	1.452618	1.010067	0.333365
C84	C	1.785951	1.343401	0.666698
N85	N	1.105654	0.322319	0.265566
N86	N	1.438988	0.655652	0.598899
N87	N	1.772321	0.988986	0.932233
N88	N	1.137908	0.282129	-0.265477
N89	N	1.471242	0.615463	0.067856
N90	N	1.804575	0.948796	0.401190
C91	C	1.092998	0.338106	0.474607
C92	C	1.426331	0.671440	0.807941
C93	C	1.759664	1.004773	1.141274
C94	C	1.150562	0.266346	0.525488
C95	C	1.483895	0.599679	0.858821
C96	C	1.817229	0.933013	1.192155
C97	C	1.143520	0.275130	0.641806
C98	C	1.476853	0.608464	0.975139
C99	C	1.810186	0.941797	1.308473
C100	C	1.100039	0.329324	0.358279
C101	C	1.433372	0.662657	0.691612
C102	C	1.766705	0.995990	1.024946
H103	H	0.625168	0.452761	0.000033
H104	H	0.958501	0.786094	0.333366
H105	H	1.291834	1.119428	0.666699
H106	H	0.618396	0.151688	-0.000028
H107	H	0.951730	0.485021	0.333305
H108	H	1.285063	0.818355	0.666639
Br109	Br	0.906626	-0.079736	0.000161
Br110	Br	1.239959	0.253597	0.333495
Br111	Br	1.573292	0.586931	0.666828
H112	H	1.205134	0.198314	0.481691
H113	H	1.538467	0.531647	0.815024
H114	H	1.871801	0.864980	1.148357
Br115	Br	0.998784	-0.280394	0.202476
Br116	Br	1.332117	0.052939	0.535809
Br117	Br	1.665450	0.386272	0.869142
H118	H	1.197068	-0.111614	0.155272
H119	H	1.530402	0.221719	0.488606
H120	H	1.863735	0.555052	0.821939
Br121	Br	1.002047	0.451497	0.547599
Br122	Br	1.335380	0.784830	0.880932
Br123	Br	1.668713	1.118164	1.214266
H124	H	1.215927	-0.134842	-0.154999
H125	H	1.549260	0.198491	0.178335
H126	H	1.882593	0.531825	0.511668
Br127	Br	1.023367	-0.310962	-0.202362
Br128	Br	1.356701	0.022371	0.130971
Br129	Br	1.690034	0.355704	0.464304
H130	H	1.286684	-0.287532	0.000148
H131	H	1.620017	0.045802	0.333481
H132	H	1.953351	0.379135	0.666815
