data_functionalizedCrystal
_audit_creation_method	'MofGen! by Chris Wilmer'
_symmetry_space_group_name_H-M	'P1'
_symmetry_Int_Tables_number	1
_symmetry_cell_setting	triclinic
loop_
_symmetry_equiv_pos_as_xyz
  x,y,z
_cell_length_a	21.395362
_cell_length_b	14.908520
_cell_length_c	21.395356
_cell_angle_alpha	93.272765
_cell_angle_beta	89.964230
_cell_angle_gamma	93.337688
loop_
_atom_site_label
_atom_site_type_symbol
_atom_site_fract_x
_atom_site_fract_y
_atom_site_fract_z
Zn1	Zn	0.943463	-0.358826	-0.368962
Zn2	Zn	1.443463	0.141174	0.131038
Zn3	Zn	0.937350	-0.509688	-0.270229
Zn4	Zn	1.437350	-0.009688	0.229771
Zn5	Zn	0.838691	-0.358886	-0.264166
Zn6	Zn	1.338691	0.141114	0.235834
Zn7	Zn	0.832616	-0.509688	-0.374934
Zn8	Zn	1.332616	-0.009688	0.125066
O9	O	0.888030	-0.434272	-0.319573
O10	O	1.388030	0.065728	0.180427
O11	O	1.030331	-0.378813	-0.355904
O12	O	1.530331	0.121187	0.144096
O13	O	0.924246	-0.489709	-0.181748
O14	O	1.424246	0.010291	0.318252
O15	O	0.857690	-0.232631	-0.273031
O16	O	1.357690	0.267369	0.226969
O17	O	1.025839	-0.489651	-0.283365
O18	O	1.525839	0.010349	0.216635
O19	O	0.934666	-0.232586	-0.350024
O20	O	1.434666	0.267414	0.149976
O21	O	0.851762	-0.378916	-0.177293
O22	O	1.351762	0.121084	0.322707
O23	O	0.750206	-0.378916	-0.278821
O24	O	1.250206	0.121084	0.221179
O25	O	0.847337	-0.489650	-0.461819
O26	O	1.347337	0.010350	0.038181
O27	O	0.745743	-0.489709	-0.360202
O28	O	1.245743	0.010291	0.139798
O29	O	0.928776	-0.378812	-0.457431
O30	O	1.428776	0.121188	0.042569
O31	O	0.918355	-0.635936	-0.289155
O32	O	1.418355	-0.135936	0.210845
O33	O	0.841408	-0.635936	-0.366081
O34	O	1.341408	-0.135936	0.133919
C35	C	0.725240	-0.434320	-0.319502
C36	C	1.225240	0.065680	0.180498
C37	C	0.655597	-0.434362	-0.319488
C38	C	1.155597	0.065638	0.180512
C39	C	0.620574	-0.492128	-0.361806
C40	C	1.120574	0.007872	0.138194
C41	C	0.555139	-0.492106	-0.361833
C42	C	1.055139	0.007894	0.138167
C43	C	0.524731	-0.434327	-0.319531
C44	C	1.024731	0.065673	0.180469
C45	C	0.559763	-0.376549	-0.277210
C46	C	1.059763	0.123451	0.222790
C47	C	0.625196	-0.376567	-0.277188
C48	C	1.125196	0.123433	0.222812
C49	C	0.421304	-0.427069	-0.262835
C50	C	0.921304	0.072931	0.237165
C51	C	0.355872	-0.427058	-0.262856
C52	C	0.855872	0.072942	0.237144
C53	C	0.322912	-0.434268	-0.319598
C54	C	0.822912	0.065732	0.180402
C55	C	0.355393	-0.441508	-0.376321
C56	C	0.855393	0.058492	0.123679
C57	C	0.420826	-0.441526	-0.376300
C58	C	0.920826	0.058474	0.123700
C59	C	0.453779	-0.434301	-0.319550
C60	C	0.953779	0.065699	0.180450
C61	C	0.216937	-0.492014	-0.361949
C62	C	0.716937	0.007986	0.138051
C63	C	0.151501	-0.491986	-0.361976
C64	C	0.651501	0.008014	0.138024
C65	C	0.156126	-0.376433	-0.277348
C66	C	0.656126	0.123567	0.222652
C67	C	0.221560	-0.376457	-0.277325
C68	C	0.721560	0.123543	0.222675
C69	C	0.251962	-0.434252	-0.319625
C70	C	0.751962	0.065748	0.180375
C71	C	0.878576	-0.668670	-0.328938
C72	C	1.378576	-0.168670	0.171062
C73	C	0.874589	-0.768947	-0.332965
C74	C	1.374589	-0.268947	0.167035
C75	C	0.947305	-0.957316	-0.260495
C76	C	1.447305	-0.457316	0.239505
C77	C	0.943561	-1.051534	-0.264277
C78	C	1.443561	-0.551534	0.235723
C79	C	0.863361	-1.051604	-0.344314
C80	C	1.363361	-0.551604	0.155686
C81	C	0.867105	-0.957386	-0.340532
C82	C	1.367105	-0.457386	0.159468
C83	C	0.909077	-0.910245	-0.298620
C84	C	1.409077	-0.410245	0.201380
C85	C	0.912818	-0.816024	-0.294836
C86	C	1.412818	-0.316024	0.205164
C87	C	0.832622	-0.816096	-0.374876
C88	C	1.332622	-0.316096	0.125124
C89	C	0.828878	-0.910315	-0.378658
C90	C	1.328878	-0.410315	0.121342
C91	C	1.051455	-0.434225	-0.319644
C92	C	1.551455	0.065775	0.180356
C93	C	1.121097	-0.434205	-0.319675
C94	C	1.621097	0.065795	0.180325
C95	C	0.888061	-0.434225	-0.482994
C96	C	1.388061	0.065775	0.017006
C97	C	0.888074	-0.434204	-0.552635
C98	C	1.388074	0.065796	-0.052635
C99	C	0.897538	-0.198959	-0.310185
C100	C	1.397538	0.301041	0.189815
C101	C	0.901589	-0.098682	-0.306184
C102	C	1.401589	0.401318	0.193816
C103	C	0.925894	-0.491705	-1.056744
C104	C	1.425894	0.008295	-0.556744
C105	C	0.925882	-0.491734	-0.991309
C106	C	1.425882	0.008266	-0.491309
C107	C	0.888139	-0.434061	-0.956268
C108	C	1.388139	0.065939	-0.456268
C109	C	0.850394	-0.376372	-0.986666
C110	C	1.350394	0.123628	-0.486666
C111	C	0.850403	-0.376352	-1.052099
C112	C	1.350403	0.123648	-0.552099
C113	C	0.886462	-0.352814	-0.849356
C114	C	1.386462	0.147186	-0.349356
C115	C	0.886457	-0.352833	-0.783923
C116	C	1.386457	0.147167	-0.283923
C117	C	0.888108	-0.434125	-0.754449
C118	C	1.388108	0.065875	-0.254449
C119	C	0.889777	-0.515401	-0.790416
C120	C	1.389777	-0.015401	-0.290416
C121	C	0.889785	-0.515381	-0.855849
C122	C	1.389785	-0.015381	-0.355849
C123	C	0.888125	-0.434078	-0.885316
C124	C	1.388125	0.065922	-0.385316
C125	C	0.925834	-0.491846	-0.653108
C126	C	1.425834	0.008154	-0.153108
C127	C	0.925817	-0.491877	-0.587672
C128	C	1.425817	0.008123	-0.087672
C129	C	0.850334	-0.376507	-0.583030
C130	C	1.350334	0.123493	-0.083030
C131	C	0.850347	-0.376485	-0.648464
C132	C	1.350347	0.123515	-0.148464
C133	C	0.888100	-0.434153	-0.683499
C134	C	1.388100	0.065847	-0.183499
C135	C	0.888038	-0.434254	-0.156785
C136	C	1.388038	0.065746	0.343215
C137	C	0.888157	-0.434020	-0.087134
C138	C	1.388157	0.065980	0.412866
H139	H	0.122986	-0.539024	-0.396441
H140	H	0.622986	-0.039024	0.103559
H141	H	0.946992	-0.777643	-0.260707
H142	H	1.446992	-0.277643	0.239293
F143	F	0.966014	-0.553222	-0.690397
F144	F	1.466014	-0.053222	-0.190397
F145	F	0.791928	-0.765993	-0.415448
F146	F	1.291928	-0.265993	0.084552
H147	H	0.974690	-1.089856	-0.233232
H148	H	1.474690	-0.589856	0.266768
H149	H	0.819663	-0.329416	-0.958131
H150	H	1.319663	0.170584	-0.458131
H151	H	0.819601	-0.329551	-0.554499
H152	H	1.319601	0.170449	-0.054499
H153	H	0.535000	-0.329504	-0.242768
H154	H	1.035000	0.170496	0.257232
H155	H	0.131368	-0.329384	-0.242908
H156	H	0.631368	0.170616	0.257092
H157	H	0.250077	-0.329422	-0.242862
H158	H	0.750077	0.170578	0.257138
H159	H	0.329431	-0.421169	-0.216668
H160	H	0.829431	0.078831	0.283332
H161	H	0.956622	-0.538698	-0.966560
H162	H	1.456622	-0.038698	-0.466560
F163	F	0.818701	-1.101790	-0.388923
F164	F	1.318701	-0.601790	0.111077
H165	H	0.981476	-0.918933	-0.226364
H166	H	1.481476	-0.418933	0.273636
F167	F	0.784212	-0.960495	-0.423263
F168	F	1.284212	-0.460495	0.076737
F169	F	0.652926	-0.553637	-0.406827
F170	F	1.152926	-0.053637	0.093173
H171	H	0.448134	-0.421194	-0.216625
H172	H	0.948134	0.078806	0.283375
H173	H	0.956634	-0.538666	-1.085266
H174	H	1.456634	-0.038666	-0.585266
F175	F	0.810232	-0.314957	-1.084444
F176	F	1.310232	0.185043	-0.584444
F177	F	0.891558	-0.601878	-0.894125
F178	F	1.391558	-0.101878	-0.394125
F179	F	0.810174	-0.315097	-0.680810
F180	F	1.310174	0.184903	-0.180810
F181	F	0.891536	-0.601925	-0.759053
F182	F	1.391536	-0.101925	-0.259053
H183	H	0.328559	-0.447378	-0.422526
H184	H	0.828559	0.052622	0.077474
H185	H	0.956544	-0.538859	-0.562930
H186	H	1.456544	-0.038859	-0.062930
H187	H	0.885159	-0.286606	-0.873347
H188	H	1.385159	0.213394	-0.373347
F189	F	0.517857	-0.553592	-0.406875
F190	F	1.017857	-0.053592	0.093125
F191	F	0.455392	-0.449227	-0.436667
F192	F	0.955392	0.050773	0.063333
H193	H	0.653712	-0.329524	-0.242727
H194	H	1.153712	0.170476	0.257273
F195	F	0.249295	-0.553519	-0.406970
F196	F	0.749295	-0.053519	0.093030
H197	H	0.885103	-0.286653	-0.754644
H198	H	1.385103	0.213347	-0.254644
