data_functionalizedCrystal
_audit_creation_method	'MofGen! by Chris Wilmer'
_symmetry_space_group_name_H-M	'P1'
_symmetry_Int_Tables_number	1
_symmetry_cell_setting	triclinic
loop_
_symmetry_equiv_pos_as_xyz
  x,y,z
_cell_length_a	10.268362
_cell_length_b	11.792254
_cell_length_c	11.792241
_cell_angle_alpha	95.803993
_cell_angle_beta	89.994572
_cell_angle_gamma	90.005778
loop_
_atom_site_label
_atom_site_type_symbol
_atom_site_fract_x
_atom_site_fract_y
_atom_site_fract_z
O1	O	-0.108338	-1.506900	0.155637
O2	O	0.391662	-1.006900	0.655637
O3	O	-0.108332	-1.176561	0.171655
O4	O	0.391668	-0.676561	0.671655
O5	O	-0.108326	-1.349747	-0.001524
O6	O	0.391674	-0.849747	0.498476
O7	O	-0.108344	-1.333714	0.328816
O8	O	0.391656	-0.833714	0.828816
O9	O	0.108275	-1.349732	-0.001531
O10	O	0.608275	-0.849732	0.498469
O11	O	0.108268	-1.176546	0.171648
O12	O	0.608268	-0.676546	0.671648
O13	O	0.108263	-1.506885	0.155630
O14	O	0.608263	-1.006885	0.655630
Cu15	Cu	0.128043	-1.341714	0.163638
Cu16	Cu	0.628043	-0.841714	0.663638
Cu17	Cu	-0.128112	-1.341732	0.163647
Cu18	Cu	0.371888	-0.841732	0.663647
O19	O	0.108257	-1.333699	0.328809
O20	O	0.608257	-0.833699	0.828809
C21	C	-0.000031	-1.134263	0.170642
C22	C	0.499969	-0.634263	0.670642
C23	C	-0.000029	-1.008250	0.167622
C24	C	0.499971	-0.508250	0.667622
N25	N	0.308209	-1.341710	0.163632
N26	N	0.808209	-0.841710	0.663632
N27	N	-0.308278	-1.341745	0.163645
N28	N	0.191722	-0.841745	0.663645
C29	C	-0.000032	-0.905913	0.165168
C30	C	0.499968	-0.405913	0.665168
C31	C	-0.000029	-0.777527	0.162100
C32	C	0.499971	-0.277527	0.662100
C33	C	0.573880	-1.341726	0.163644
C34	C	1.073880	-0.841726	0.663644
C35	C	0.426042	-1.341713	0.163641
C36	C	0.926042	-0.841713	0.663641
C37	C	-0.000026	-1.348732	-0.043819
C38	C	0.499974	-0.848732	0.456181
C39	C	-0.000027	-1.345718	-0.169832
C40	C	0.499973	-0.845718	0.330168
C41	C	-0.000035	-0.549183	0.156643
C42	C	0.499965	-0.049183	0.656643
C43	C	-0.000027	-0.675196	0.159663
C44	C	0.499973	-0.175196	0.659663
C45	C	-0.000049	-1.340175	-0.400545
C46	C	0.499951	-0.840175	0.099455
C47	C	-0.000037	-1.343255	-0.272160
C48	C	0.499963	-0.843255	0.227840
C49	C	-0.000046	-1.334714	0.371104
C50	C	0.499954	-0.834714	0.871104
C51	C	-0.000053	-1.337728	0.497118
C52	C	0.499947	-0.837728	0.997118
