data_functionalizedCrystal
_audit_creation_method	'MofGen! by Chris Wilmer'
_symmetry_space_group_name_H-M	'P1'
_symmetry_Int_Tables_number	1
_symmetry_cell_setting	triclinic
loop_
_symmetry_equiv_pos_as_xyz
  x,y,z
_cell_length_a	12.837939
_cell_length_b	12.837942
_cell_length_c	11.295483
_cell_angle_alpha	94.530417
_cell_angle_beta	94.539116
_cell_angle_gamma	85.171210
loop_
_atom_site_label
_atom_site_type_symbol
_atom_site_fract_x
_atom_site_fract_y
_atom_site_fract_z
O1	O	-1.408690	0.265784	-0.099013
O2	O	-1.105557	0.252341	-0.099017
O3	O	-1.250401	0.107496	-0.099008
O4	O	-1.263845	0.410629	-0.099022
O5	O	-1.237677	0.120197	0.099042
O6	O	-1.092833	0.265042	0.099033
O7	O	-1.395966	0.278484	0.099037
Cu8	Cu	-1.243237	0.272923	0.117119
Cu9	Cu	-1.258285	0.257903	-0.117098
O10	O	-1.251121	0.423329	0.099028
C11	C	-1.060126	0.254150	0.000007
C12	C	-0.943711	0.240606	0.000005
C13	C	-1.239498	0.074777	0.000017
C14	C	-1.225954	-0.041638	0.000014
C15	C	-0.718836	0.403437	0.000016
C16	C	-0.609453	0.390715	0.000015
C17	C	-0.615561	0.202444	0.000012
C18	C	-0.724943	0.215165	0.000012
C19	C	-0.776577	0.315664	0.000013
C20	C	-0.885962	0.328384	0.000005
C21	C	-0.892067	0.140114	0.000010
C22	C	-0.782684	0.127393	0.000009
C23	C	-1.388784	-0.266514	-0.000008
C24	C	-1.376063	-0.375896	-0.000010
C25	C	-1.187791	-0.369788	-0.000001
C26	C	-1.200513	-0.260405	0.000001
C27	C	-1.301012	-0.208772	-0.000000
C28	C	-1.313732	-0.099387	0.000010
C29	C	-1.125462	-0.093281	0.000011
C30	C	-1.112740	-0.202664	0.000009
C31	C	-0.441397	0.276676	0.000012
C32	C	-0.557812	0.290222	0.000011
C33	C	-1.262025	0.456048	0.000001
C34	C	-1.275570	0.572463	-0.000005
N35	N	-1.232661	0.283487	0.281854
N36	N	-1.268869	0.247332	-0.281834
C37	C	-1.344997	0.171227	0.531151
C38	C	-1.337012	0.179219	0.655814
C39	C	-1.208703	0.307455	0.655846
C40	C	-1.216688	0.299464	0.531183
C41	C	-1.284838	0.231349	0.468840
C42	C	-1.292827	0.223363	0.344174
C43	C	-1.164513	0.351594	0.344208
C44	C	-1.156528	0.359585	0.468871
H45	H	-0.760877	0.485267	0.000015
H46	H	-1.105970	-0.411848	-0.000012
N47	N	-0.562825	0.099787	0.000010
N48	N	-0.614388	0.021422	0.000008
H49	H	-0.577144	-0.051081	0.000009
H50	H	-1.153209	0.362905	0.706622
N51	N	-1.465731	-0.434860	0.000000
N52	N	-1.524820	-0.419333	0.083482
H53	H	-1.588153	-0.460975	0.083489
N54	N	-1.398445	0.117798	0.719477
N55	N	-1.354346	0.053978	0.789043
H56	H	-1.397730	0.010592	0.834005
N57	N	-1.035786	-0.034312	0.000032
N58	N	-0.965979	-0.039143	0.083522
H59	H	-0.902646	0.002504	0.083544
N60	N	-1.010096	-0.255427	0.000000
N61	N	-0.998750	-0.353090	-0.000008
H62	H	-0.926255	-0.390354	-0.000013
N63	N	-1.362379	0.153720	0.280508
N64	N	-1.416038	0.099999	0.336164
H65	H	-1.465134	0.050783	0.291204
N66	N	-1.491438	-0.213769	-0.000028
N67	N	-1.524905	-0.158766	-0.083512
H68	H	-1.597406	-0.121516	-0.083528
H69	H	-0.740628	0.045570	0.000022
H70	H	-1.101039	0.415041	0.519645
N71	N	-0.951032	0.050439	0.000018
N72	N	-0.904913	-0.039281	0.000018
H73	H	-0.946556	-0.102614	0.000019
H74	H	-1.395563	-0.057349	0.000013
N75	N	-1.414509	0.101547	0.467481
N76	N	-1.468150	0.047803	0.523131
H77	H	-1.517203	-0.001453	0.478167
H78	H	-1.115531	0.400552	0.293460
N79	N	-0.938705	0.431039	0.000036
N80	N	-0.993693	0.464485	0.083526
H81	H	-1.030941	0.536988	0.083554
H82	H	-0.562444	0.462189	0.000021
