data_functionalizedCrystal
_audit_creation_method	'MofGen! by Chris Wilmer'
_symmetry_space_group_name_H-M	'P1'
_symmetry_Int_Tables_number	1
_symmetry_cell_setting	triclinic
loop_
_symmetry_equiv_pos_as_xyz
  x,y,z
_cell_length_a	15.297475
_cell_length_b	19.121063
_cell_length_c	19.120904
_cell_angle_alpha	85.258387
_cell_angle_beta	96.854753
_cell_angle_gamma	83.156694
loop_
_atom_site_label
_atom_site_type_symbol
_atom_site_fract_x
_atom_site_fract_y
_atom_site_fract_z
Zn1	Zn	1.320044	-0.483150	0.595230
Zn2	Zn	1.820044	0.016850	1.095230
Zn3	Zn	1.319934	-0.595782	0.482565
Zn4	Zn	1.819934	-0.095782	0.982565
Zn5	Zn	1.178098	-0.458146	0.457640
Zn6	Zn	1.678098	0.041854	0.957640
Zn7	Zn	1.164808	-0.578899	0.578391
Zn8	Zn	1.664808	-0.078899	1.078391
O9	O	1.245721	-0.528994	0.528457
O10	O	1.745721	-0.028994	1.028457
O11	O	1.444356	-0.515621	0.597763
O12	O	1.944356	-0.015621	1.097763
O13	O	1.306636	-0.574125	0.381573
O14	O	1.806636	-0.074125	0.881573
O15	O	1.202536	-0.363791	0.472507
O16	O	1.702536	0.136209	0.972507
O17	O	1.444275	-0.598371	0.514989
O18	O	1.944275	-0.098371	1.014989
O19	O	1.306823	-0.382161	0.573594
O20	O	1.806823	0.117839	1.073594
O21	O	1.202430	-0.473005	0.363261
O22	O	1.702430	0.026995	0.863261
O23	O	1.052009	-0.456634	0.456180
O24	O	1.552009	0.043366	0.956180
O25	O	1.179884	-0.569597	0.678310
O26	O	1.679884	-0.069597	1.178310
O27	O	1.042245	-0.545351	0.544895
O28	O	1.542245	-0.045351	1.044895
O29	O	1.293936	-0.499251	0.690681
O30	O	1.793936	0.000749	1.190681
O31	O	1.293748	-0.691215	0.498661
O32	O	1.793748	-0.191215	0.998661
O33	O	1.179777	-0.678811	0.569064
O34	O	1.679777	-0.178811	1.069064
C35	C	1.014891	-0.496448	0.496006
C36	C	1.514891	0.003552	0.996006
C37	C	0.916138	-0.482542	0.482140
C38	C	1.416138	0.017458	0.982140
C39	C	0.617535	-0.628388	0.627557
C40	C	1.117535	-0.128388	1.127557
C41	C	0.710317	-0.641459	0.640582
C42	C	1.210317	-0.141459	1.140582
C43	C	0.761777	-0.601730	0.600973
C44	C	1.261777	-0.101730	1.100973
C45	C	0.720446	-0.548930	0.548336
C46	C	1.220446	-0.048930	1.048336
C47	C	0.627654	-0.535862	0.535305
C48	C	1.127654	-0.035862	1.035305
C49	C	0.771896	-0.509204	0.508722
C50	C	1.271896	-0.009204	1.008722
C51	C	0.730565	-0.456403	0.456084
C52	C	1.230565	0.043597	0.956084
C53	C	0.637782	-0.443337	0.443057
C54	C	1.137782	0.056663	0.943057
C55	C	0.586322	-0.483066	0.482666
C56	C	1.086322	0.016934	0.982666
C57	C	0.864688	-0.522272	0.521752
C58	C	1.364688	-0.022272	1.021752
C59	C	0.874807	-0.429746	0.429501
C60	C	1.374807	0.070254	0.929501
C61	C	0.782024	-0.416675	0.416475
C62	C	1.282024	0.083325	0.916475
C63	C	1.235332	-0.710342	0.534758
C64	C	1.735332	-0.210342	1.034758
C65	C	1.230967	-0.787936	0.537489
C66	C	1.730967	-0.287936	1.037489
C67	C	1.288297	-0.830831	0.502160
C68	C	1.788297	-0.330831	1.002160
C69	C	1.284197	-0.903739	0.504733
C70	C	1.784197	-0.403739	1.004733
C71	C	1.222762	-0.933749	0.542632
C72	C	1.722762	-0.433749	1.042632
C73	C	1.165430	-0.890848	0.577965
C74	C	1.665430	-0.390848	1.077965
C75	C	1.169534	-0.817943	0.575396
C76	C	1.669534	-0.317943	1.075396
C77	C	1.207401	-1.153556	0.552225
C78	C	1.707401	-0.653556	1.052225
C79	C	1.203299	-1.226467	0.554790
C80	C	1.703299	-0.726467	1.054790
C81	C	1.322068	-1.239353	0.481559
C82	C	1.822068	-0.739353	0.981559
C83	C	1.326164	-1.166445	0.478989
C84	C	1.826164	-0.666445	0.978989
C85	C	1.268835	-1.123551	0.514326
C86	C	1.768835	-0.623551	1.014326
C87	C	1.218568	-1.008272	0.545261
C88	C	1.718568	-0.508272	1.045261
C89	C	1.273034	-1.049030	0.511700
C90	C	1.773034	-0.549030	1.011700
C91	C	1.477453	-0.561668	0.561034
C92	C	1.977453	-0.061668	1.061034
C93	C	1.576203	-0.575592	0.574917
C94	C	2.076203	-0.075592	1.074917
C95	C	1.235439	-0.535330	0.710533
C96	C	1.735439	-0.035330	1.210533
C97	C	1.231058	-0.538029	0.788123
C98	C	1.731058	-0.038029	1.288123
C99	C	1.256175	-0.346942	0.522149
C100	C	1.756175	0.153058	1.022149
C101	C	1.260629	-0.269363	0.519461
C102	C	1.760629	0.230637	1.019461
C103	C	1.256017	-0.522641	0.347094
C104	C	1.756017	-0.022641	0.847094
C105	C	1.260582	-0.519768	0.269522
C106	C	1.760582	-0.019768	0.769522
C107	C	1.288377	-0.502674	0.831017
C108	C	1.788377	-0.002674	1.331017
C109	C	1.284250	-0.505206	0.903919
C110	C	1.784250	-0.005206	1.403919
C111	C	1.222806	-0.543099	0.933927
C112	C	1.722806	-0.043099	1.433927
C113	C	1.165481	-0.578456	0.891027
C114	C	1.665481	-0.078456	1.391027
C115	C	1.169605	-0.575919	0.818125
C116	C	1.669605	-0.075919	1.318125
C117	C	1.207380	-0.552588	1.153720
C118	C	1.707380	-0.052588	1.653720
C119	C	1.203263	-0.555124	1.226628
C120	C	1.703263	-0.055124	1.726628
C121	C	1.322030	-0.481873	1.239515
C122	C	1.822030	0.018127	1.739515
C123	C	1.326152	-0.479343	1.166611
C124	C	1.826152	0.020657	1.666611
C125	C	1.268824	-0.514697	1.123718
C126	C	1.768824	-0.014697	1.623718
C127	C	1.218588	-0.545690	1.008445
C128	C	1.718588	-0.045690	1.508445
C129	C	1.273039	-0.512101	1.049200
C130	C	1.773039	-0.012101	1.549200
H131	H	0.575628	-0.660733	0.659797
H132	H	1.075628	-0.160733	1.159797
Br133	Br	0.920769	-0.593929	0.593185
Br134	Br	1.420769	-0.093929	1.093185
H135	H	1.338413	-0.471820	0.806591
H136	H	1.838413	0.028180	1.306591
Br137	Br	0.460397	-0.465323	0.464996
Br138	Br	0.960397	0.034677	0.964996
Br139	Br	1.135195	-1.049007	0.596694
Br140	Br	1.635195	-0.549007	1.096694
H141	H	0.604133	-0.400351	0.400189
H142	H	1.104133	0.099649	0.900189
Br143	Br	1.409545	-0.427918	1.125892
Br144	Br	1.909545	0.072082	1.625892
H145	H	1.168565	-0.576547	1.032886
H146	H	1.668565	-0.076547	1.532886
H147	H	1.122851	-0.783017	0.604165
H148	H	1.622851	-0.283017	1.104165
H149	H	1.115412	-0.915289	0.608826
H150	H	1.615412	-0.415289	1.108826
H151	H	1.368744	-1.274285	0.452791
H152	H	1.868744	-0.774285	0.952791
Br153	Br	0.725921	-0.345018	0.345043
Br154	Br	1.225921	0.154982	0.845043
Br155	Br	1.119903	-1.267192	0.606212
Br156	Br	1.619903	-0.767192	1.106212
Br157	Br	0.944637	-0.375831	0.375737
Br158	Br	1.444637	0.124169	0.875737
H159	H	1.323057	-1.024594	0.480847
H160	H	1.823057	-0.524594	0.980847
H161	H	1.338320	-0.806402	0.471296
H162	H	1.838320	-0.306402	0.971296
Br163	Br	0.766405	-0.713116	0.712013
Br164	Br	1.266405	-0.213116	1.212013
Br165	Br	1.362011	-0.961954	0.456790
Br166	Br	1.862011	-0.461954	0.956790
H167	H	1.330927	-0.476418	0.938841
H168	H	1.830927	0.023582	1.438841
Br169	Br	1.399827	-0.433895	1.297730
Br170	Br	1.899827	0.066105	1.797730
Br171	Br	1.409554	-1.125724	0.427565
Br172	Br	1.909554	-0.625724	0.927565
Br173	Br	1.119867	-0.606550	1.267352
Br174	Br	1.619867	-0.106550	1.767352
H175	H	1.160720	-1.118637	0.580995
H176	H	1.660720	-0.618637	1.080995
Br177	Br	1.129575	-0.600566	1.095516
Br178	Br	1.629575	-0.100566	1.595516
H179	H	1.115450	-0.609306	0.915465
H180	H	1.615450	-0.109306	1.415465
Br181	Br	1.091806	-0.623898	0.759910
Br182	Br	1.591806	-0.123898	1.259910
H183	H	0.837325	-0.612375	0.611582
H184	H	1.337325	-0.112375	1.111582
Br185	Br	1.356412	-0.460666	1.008472
Br186	Br	1.856412	0.039334	1.508472
