data_functionalizedCrystal
_audit_creation_method	'MofGen! by Chris Wilmer'
_symmetry_space_group_name_H-M	'P1'
_symmetry_Int_Tables_number	1
_symmetry_cell_setting	triclinic
loop_
_symmetry_equiv_pos_as_xyz
  x,y,z
_cell_length_a	15.995350
_cell_length_b	11.026607
_cell_length_c	10.065875
_cell_angle_alpha	100.731764
_cell_angle_beta	81.256382
_cell_angle_gamma	96.039196
loop_
_atom_site_label
_atom_site_type_symbol
_atom_site_fract_x
_atom_site_fract_y
_atom_site_fract_z
O1	O	1.144114	0.138601	-0.113371
O2	O	0.903252	0.157912	-0.113398
O3	O	1.003720	-0.028396	-0.113382
O4	O	1.043646	0.324909	-0.113387
O5	O	0.984584	0.007273	0.113604
O6	O	0.884116	0.193581	0.113587
O7	O	1.124978	0.174270	0.113615
Zn8	Zn	1.001509	0.189589	0.149640
Zn9	Zn	1.026722	0.142593	-0.149423
O10	O	1.024510	0.360578	0.113598
C11	C	0.986787	-0.055773	0.000108
C12	C	0.964831	-0.190488	0.000101
C13	C	0.862369	0.174948	0.000091
C14	C	0.769059	0.172552	0.000080
C15	C	1.025457	-0.264293	0.000106
C16	C	1.002765	-0.403528	0.000098
C17	C	0.430013	0.163959	0.000109
C18	C	0.457405	0.031352	0.000617
C19	C	0.554500	0.033664	0.000096
C20	C	0.598218	0.168221	0.000096
C21	C	0.577923	0.213299	-0.129520
C22	C	0.480793	0.209950	-0.129619
C23	C	0.459105	0.253254	0.128506
C24	C	0.555902	0.253491	0.130210
C25	C	0.693281	0.170637	0.000083
C26	C	0.334952	0.161546	0.000112
C27	C	1.165861	0.157234	0.000123
C28	C	1.259172	0.159628	0.000124
C29	C	1.041443	0.387955	0.000105
C30	C	1.063400	0.522668	0.000103
N31	N	0.984307	0.221661	0.353743
N32	N	1.043928	0.110511	-0.353526
C33	C	1.020730	0.153745	0.421527
C34	C	1.007500	0.178438	0.578693
H35	H	0.934059	-0.443417	0.000082
C36	C	1.041569	-0.063348	0.377171
C37	C	1.076057	0.050588	0.342774
H38	H	1.075727	-0.127026	0.328536
H39	H	1.039953	-0.060313	0.472443
H40	H	0.985641	-0.079982	0.353839
H41	H	1.131983	0.067227	0.366115
H42	H	1.077683	0.047555	0.247480
H43	H	1.132117	-0.437462	0.000009
C44	C	0.436682	-0.138573	0.123708
C45	C	0.411018	-0.020545	0.126086
H46	H	0.408040	-0.170608	0.201173
H47	H	0.423228	-0.191935	0.042922
H48	H	0.496182	-0.133213	0.125440
H49	H	0.351519	-0.025906	0.124344
H50	H	0.424466	0.032830	0.206893
C51	C	0.527264	-0.111984	-0.200666
C52	C	0.592171	-0.055985	-0.125557
H53	H	0.550523	-0.167325	-0.278247
H54	H	0.486514	-0.156497	-0.145147
H55	H	0.500744	-0.050105	-0.229560
H56	H	0.618687	-0.117863	-0.096654
H57	H	0.632936	-0.011471	-0.181086
C58	C	0.438648	0.296677	0.373493
C59	C	0.411384	0.215538	0.261140
H60	H	0.409181	0.273385	0.455367
H61	H	0.497864	0.292965	0.371814
H62	H	0.427374	0.378710	0.369501
H63	H	0.422664	0.133505	0.265127
H64	H	0.352154	0.219238	0.262820
C65	C	0.616752	0.304674	0.339402
C66	C	0.572126	0.209343	0.259671
H67	H	0.626765	0.277419	0.419329
H68	H	0.669428	0.326466	0.288506
H69	H	0.584316	0.374782	0.364462
H70	H	0.604565	0.139238	0.234602
H71	H	0.519441	0.187534	0.310577
C72	C	0.867555	-0.371839	0.000086
C73	C	0.872081	-0.244328	0.000090
H74	H	0.810292	-0.405070	0.000087
H75	H	0.901315	-0.410894	-0.079062
H76	H	0.887976	-0.386024	0.079248
H77	H	0.851666	-0.230143	-0.079078
H78	H	0.838308	-0.205260	0.079247
H79	H	0.567342	-0.003179	0.093010
C80	C	0.530815	0.077532	-0.337938
C81	C	0.457385	0.124960	-0.260407
H82	H	0.516364	0.025054	-0.418677
H83	H	0.569631	0.143897	-0.361617
H84	H	0.556242	0.031461	-0.286105
H85	H	0.431962	0.171038	-0.312238
H86	H	0.418555	0.058584	-0.236731
C87	C	0.531413	0.420901	-0.142263
C88	C	0.457745	0.340199	-0.137593
H89	H	0.517186	0.501304	-0.147205
H90	H	0.557021	0.424277	-0.062343
H91	H	0.569986	0.391860	-0.220426
H92	H	0.419174	0.369235	-0.059425
H93	H	0.432124	0.336827	-0.217522
H94	H	0.437647	-0.035968	-0.091821
H95	H	1.094159	-0.224399	0.000122
C96	C	0.659303	0.396191	0.030030
C97	C	0.595706	0.387623	0.140776
H98	H	0.683870	0.479004	0.036543
H99	H	0.701797	0.342490	0.031128
H100	H	0.635368	0.372908	-0.052689
H101	H	0.619643	0.410898	0.223495
H102	H	0.553205	0.441342	0.139691
C103	C	0.869742	0.257062	0.622988
C104	C	0.952173	0.281616	0.657407
H105	H	0.835586	0.320755	0.671592
H106	H	0.871381	0.254013	0.527709
H107	H	0.846349	0.179770	0.646344
H108	H	0.975568	0.358903	0.634041
H109	H	0.950537	0.284677	0.752707
H110	H	0.607354	0.311398	-0.134340
H111	H	1.084905	0.034075	0.588160
C112	C	0.846552	0.300280	0.398043
C113	C	0.928983	0.324834	0.432462
H114	H	0.812397	0.363973	0.446647
H115	H	0.848192	0.297232	0.302764
H116	H	0.823160	0.222989	0.421399
H117	H	0.952378	0.402122	0.409097
H118	H	0.927347	0.327896	0.527762
H119	H	0.442015	0.351221	0.129382
H120	H	0.607578	0.152685	-0.225982
