data_functionalizedCrystal
_audit_creation_method	'MofGen! by Chris Wilmer'
_symmetry_space_group_name_H-M	'P1'
_symmetry_Int_Tables_number	1
_symmetry_cell_setting	triclinic
loop_
_symmetry_equiv_pos_as_xyz
  x,y,z
_cell_length_a	12.811457
_cell_length_b	23.532357
_cell_length_c	11.892095
_cell_angle_alpha	93.858312
_cell_angle_beta	91.498327
_cell_angle_gamma	83.439233
loop_
_atom_site_label
_atom_site_type_symbol
_atom_site_fract_x
_atom_site_fract_y
_atom_site_fract_z
O1	O	1.388364	0.078564	0.048312
O2	O	1.084928	0.085706	0.017201
O3	O	1.245822	-0.000711	0.033720
O4	O	1.227470	0.164982	0.031792
O5	O	1.232407	0.006483	0.220350
O6	O	1.071513	0.092901	0.203831
O7	O	1.374949	0.085758	0.234942
Zn8	Zn	1.221101	0.090472	0.249018
Zn9	Zn	1.238776	0.080993	0.003125
O10	O	1.214056	0.172176	0.218422
C11	C	1.039407	0.088683	0.106537
C12	C	0.923757	0.086827	0.094680
C13	C	0.691813	0.091172	0.275888
C14	C	0.583149	0.089427	0.264754
C15	C	0.597765	0.081590	0.061278
C16	C	0.706428	0.083334	0.072413
C17	C	0.753448	0.088126	0.179721
C18	C	0.862113	0.089874	0.190854
C19	C	0.876728	0.082033	-0.012620
C20	C	0.768064	0.080289	-0.023754
C21	C	1.238655	-0.018335	0.126992
C22	C	1.237274	-0.081566	0.126861
C23	C	1.235925	-0.477583	0.024180
C24	C	1.234613	-0.536995	0.024039
O25	O	1.240118	-0.571053	-0.062554
N26	N	1.226650	-0.562791	0.125703
C27	C	1.219988	-0.529171	0.227513
O28	O	1.213093	-0.556567	0.313973
C29	C	1.221292	-0.469759	0.227652
C30	C	1.229266	-0.443967	0.125982
C31	C	1.243897	-0.451790	-0.077482
C32	C	1.245211	-0.392383	-0.077340
C33	C	1.238552	-0.358767	0.024463
C34	C	1.230580	-0.384559	0.126124
C35	C	1.214622	-0.436140	0.329461
C36	C	1.215927	-0.376724	0.329591
C37	C	1.223901	-0.350932	0.227921
C38	C	1.225235	-0.291536	0.228069
N39	N	1.233198	-0.265740	0.126405
C40	C	1.239856	-0.299356	0.024602
C41	C	1.217248	-0.653939	0.227213
C42	C	1.215951	-0.713349	0.227076
C43	C	1.230574	-0.721170	0.023601
C44	C	1.231879	-0.661758	0.023740
C45	C	1.225211	-0.628143	0.125549
C46	C	1.242615	-0.174595	0.024907
C47	C	1.243933	-0.115181	0.025058
C48	C	1.229303	-0.107366	0.228531
C49	C	1.227992	-0.166775	0.228382
C50	C	1.234645	-0.200387	0.126560
O51	O	1.219729	-0.257442	0.314616
O52	O	1.246736	-0.271950	-0.061845
C53	C	1.420470	0.082782	0.145603
C54	C	1.536121	0.084638	0.157452
C55	C	1.221222	0.189799	0.125148
C56	C	1.222604	0.253030	0.125272
N57	N	1.209046	0.096940	0.416834
N58	N	1.250839	0.074520	-0.164691
C59	C	1.334723	0.029476	0.666386
C60	C	1.326304	0.034002	0.783863
C61	C	1.183786	0.110514	0.769268
C62	C	1.192204	0.105988	0.651791
C63	C	1.267677	0.065469	0.600354
C64	C	1.276100	0.060946	0.482875
C65	C	1.133577	0.137455	0.468282
C66	C	1.125158	0.141981	0.585759
H67	H	0.926923	0.079556	-0.090926
H68	H	0.900394	0.093779	0.278230
C69	C	0.516380	0.092652	0.369265
C70	C	0.550666	0.046560	0.434627
C71	C	0.489194	0.049515	0.530922
H72	H	0.444908	0.090904	0.347428
H73	H	0.522911	0.127671	0.412099
H74	H	0.544126	0.011550	0.391801
H75	H	0.622129	0.048299	0.456492
H76	H	0.495725	0.084534	0.573756
H77	H	0.417725	0.047768	0.509075
H78	H	0.512455	0.018246	0.575287
H79	H	1.122331	0.143500	0.811163
C80	C	1.251070	-0.488376	-0.187910
C81	C	1.248202	-0.545929	-0.166304
C82	C	1.254803	-0.579644	-0.268011
H83	H	1.315045	-0.484271	-0.223532
H84	H	1.193502	-0.476316	-0.235934
H85	H	1.305765	-0.557986	-0.118300
H86	H	1.184233	-0.550052	-0.130698
H87	H	1.197234	-0.567583	-0.316034
H88	H	1.318778	-0.575534	-0.303625
H89	H	1.252848	-0.618696	-0.253366
C90	C	1.205897	-0.464020	0.439959
C91	C	1.200310	-0.421852	0.529125
C92	C	1.192253	-0.447512	0.630938
H93	H	1.265815	-0.490991	0.450543
H94	H	1.144285	-0.483054	0.437960
H95	H	1.261915	-0.402828	0.531126
H96	H	1.140394	-0.394879	0.518579
H97	H	1.130642	-0.466545	0.628939
H98	H	1.252173	-0.474482	0.641510
H99	H	1.188452	-0.418904	0.691448
C100	C	1.060956	0.176563	0.396466
C101	C	1.120926	0.209183	0.334642
C102	C	1.054073	0.245213	0.268465
H103	H	1.014788	0.201392	0.443801
H104	H	1.021105	0.154043	0.346159
H105	H	1.160760	0.231702	0.384943
H106	H	1.167092	0.184369	0.287286
H107	H	1.014221	0.222693	0.218158
H108	H	1.007907	0.270038	0.315809
H109	H	1.094753	0.267346	0.226502
H110	H	1.251700	-0.371388	-0.160131
C111	C	1.399229	-0.005109	0.855365
C112	C	1.467137	-0.041552	0.785170
C113	C	1.534339	-0.077586	0.850998
H114	H	1.358839	-0.027350	0.897407
H115	H	1.439158	0.017413	0.905584
H116	H	1.427212	-0.064071	0.734971
H117	H	1.507551	-0.019327	0.743128
H118	H	1.574268	-0.055065	0.901217
H119	H	1.493940	-0.099823	0.893037
H120	H	1.580429	-0.102314	0.803382
H121	H	0.730095	0.095081	0.363263
C122	C	1.252354	-0.087211	-0.085408
C123	C	1.166772	-0.098182	-0.155968
C124	C	1.174477	-0.072427	-0.257737
H125	H	1.315842	-0.102500	-0.121149
H126	H	1.252128	-0.047004	-0.070836
H127	H	1.167008	-0.138381	-0.170543
H128	H	1.103272	-0.082893	-0.120263
H129	H	1.174251	-0.032220	-0.243164
H130	H	1.237968	-0.087718	-0.293468
H131	H	1.116407	-0.079863	-0.305620
C132	C	0.546610	0.076503	-0.055191
C133	C	0.472420	0.124166	-0.068792
C134	C	0.425283	0.119504	-0.176073
H135	H	0.512739	0.042555	-0.063016
H136	H	0.598836	0.074968	-0.110917
H137	H	0.420203	0.125695	-0.013081
H138	H	0.506265	0.158122	-0.060989
H139	H	0.477509	0.117968	-0.231799
H140	H	0.391418	0.085553	-0.183888
H141	H	0.374948	0.151844	-0.185319
C142	C	1.249620	-0.211103	-0.085623
C143	C	1.159633	-0.239581	-0.100859
C144	C	1.166047	-0.273214	-0.202668
H145	H	1.310113	-0.238450	-0.083794
H146	H	1.254502	-0.187246	-0.146187
H147	H	1.154762	-0.263436	-0.040311
H148	H	1.099127	-0.212248	-0.102710
H149	H	1.170928	-0.249357	-0.263232
H150	H	1.226543	-0.300558	-0.200830
H151	H	1.104989	-0.292536	-0.213024
H152	H	1.337555	0.027955	0.440997
H153	H	1.396182	-0.003513	0.624506
H154	H	1.211821	-0.626572	0.310124
C155	C	0.716918	0.075207	-0.140228
C156	C	0.642735	0.122873	-0.153829
C157	C	0.595610	0.118218	-0.261117
H158	H	0.683044	0.041260	-0.148068
H159	H	0.769151	0.073674	-0.195947
H160	H	0.590510	0.124400	-0.098127
H161	H	0.676582	0.156827	-0.146012
H162	H	0.647843	0.116684	-0.316835
H163	H	0.561742	0.084269	-0.268947
H164	H	0.545279	0.150560	-0.270363
H165	H	1.238370	-0.640763	-0.059048
H166	H	1.063707	0.174970	0.627653
H167	H	1.235993	-0.748550	-0.059293
H168	H	1.209473	-0.734345	0.309867
H169	H	1.210481	-0.349356	0.412496
H170	H	1.221508	-0.187776	0.311170
C171	C	1.221851	-0.070814	0.338993
C172	C	1.132509	-0.030646	0.335798
C173	C	1.125590	0.003035	0.437537
H174	H	1.282741	-0.051377	0.349609
H175	H	1.216852	-0.094652	0.399561
H176	H	1.137516	-0.006811	0.275247
H177	H	1.071603	-0.050067	0.325200
H178	H	1.120592	-0.020804	0.498105
H179	H	1.186485	0.022467	0.448144
H180	H	1.064967	0.030289	0.435387
