data_functionalizedCrystal
_audit_creation_method	'MofGen! by Chris Wilmer'
_symmetry_space_group_name_H-M	'P1'
_symmetry_Int_Tables_number	1
_symmetry_cell_setting	triclinic
loop_
_symmetry_equiv_pos_as_xyz
  x,y,z
_cell_length_a	10.654541
_cell_length_b	10.968094
_cell_length_c	9.482900
_cell_angle_alpha	92.548310
_cell_angle_beta	99.425331
_cell_angle_gamma	84.598946
loop_
_atom_site_label
_atom_site_type_symbol
_atom_site_fract_x
_atom_site_fract_y
_atom_site_fract_z
O1	O	0.221734	1.612027	0.282918
O2	O	0.224497	1.262842	0.195445
O3	O	0.040700	1.445463	0.241201
O4	O	0.405531	1.429406	0.237161
O5	O	0.078191	1.408370	0.473700
O6	O	0.261987	1.225749	0.427943
O7	O	0.259225	1.574934	0.515417
Cu8	Cu	0.264029	1.396954	0.492909
Cu9	Cu	0.219692	1.440821	0.217952
O10	O	0.443021	1.392313	0.469660
C11	C	0.240210	1.199583	0.300493
C12	C	0.231160	1.066357	0.267119
C13	C	0.237179	0.850042	0.338178
C14	C	0.246543	0.987736	0.372686
C15	C	0.012600	1.425738	0.357155
C16	C	-0.126986	1.422212	0.356269
C17	C	-0.146171	1.640584	0.410991
C18	C	-0.221339	1.748108	0.437939
C19	C	-0.352492	1.744788	0.437103
C20	C	-0.408479	1.633933	0.409312
C21	C	-0.333311	1.526409	0.382364
C22	C	-0.202156	1.529740	0.383207
C23	C	-0.314127	1.308041	0.327632
C24	C	-0.182973	1.311357	0.328478
C25	C	-0.370114	1.197186	0.299841
C26	C	-0.294944	1.089658	0.272903
C27	C	-0.163784	1.092982	0.273742
C28	C	-0.107805	1.203833	0.301530
C29	C	0.471121	1.412038	0.353704
C30	C	0.610705	1.415565	0.354580
C31	C	0.243511	1.638193	0.410365
C32	C	0.252559	1.771421	0.443730
N33	N	0.295213	1.366109	0.686301
N34	N	0.188499	1.471676	0.024563
C35	C	0.228883	1.431715	0.774938
C36	C	0.254839	1.406060	0.935927
H37	H	0.211059	1.031736	0.151197
C38	C	-0.355956	0.969422	0.242831
C39	C	-0.486897	0.989526	0.247887
C40	C	-0.543144	0.878788	0.220212
H41	H	-0.343724	0.937946	0.150651
H42	H	-0.317528	0.912145	0.312834
H43	H	-0.525313	1.046783	0.177888
H44	H	-0.499165	1.020984	0.340057
H45	H	-0.504716	0.821511	0.290215
H46	H	-0.530903	0.847320	0.128033
H47	H	-0.631991	0.892411	0.223652
H48	H	0.266640	1.022359	0.488608
C49	C	-0.082381	0.976095	0.244517
C50	C	-0.159485	0.878309	0.220033
C51	C	-0.084544	0.770610	0.193123
H52	H	-0.043863	0.985622	0.162611
H53	H	-0.017769	0.959832	0.324798
H54	H	-0.224074	0.894569	0.139760
H55	H	-0.198003	0.868744	0.301922
H56	H	-0.019932	0.754347	0.273404
H57	H	-0.046029	0.780149	0.111220
H58	H	-0.136845	0.704247	0.176521
H59	H	-0.001013	1.206549	0.302224
C60	C	0.279414	0.817811	0.598201
C61	C	0.283405	0.945156	0.601716
C62	C	0.308157	0.987926	0.743991
H63	H	0.213707	0.797706	0.647462
H64	H	0.359226	0.780557	0.643063
H65	H	0.203604	0.982396	0.556874
H66	H	0.349113	0.965294	0.552485
H67	H	0.387969	0.950673	0.788854
H68	H	0.242446	0.967813	0.793240
H69	H	0.310880	1.074332	0.746395
C70	C	0.127364	1.531791	0.717222
C71	C	0.008681	1.505369	0.747461
C72	C	-0.084862	1.597528	0.694287
H73	H	0.148435	1.608317	0.761169
H74	H	0.123331	1.535688	0.616677
H75	H	0.012716	1.501486	0.847987
H76	H	-0.012430	1.428860	0.703515
H77	H	-0.088895	1.601424	0.593743
H78	H	-0.063779	1.674047	0.738238
H79	H	-0.165401	1.579607	0.714785
H80	H	0.330842	1.330891	0.979217
C81	C	0.086845	1.571720	0.967062
C82	C	-0.031699	1.545086	0.997508
C83	C	-0.125420	1.637195	0.944620
H84	H	0.107877	1.648233	1.011074
H85	H	0.082637	1.575739	0.866506
H86	H	-0.027489	1.541081	1.098046
H87	H	-0.052771	1.468590	0.953497
H88	H	-0.129629	1.641214	0.844064
H89	H	-0.104376	1.713702	0.988637
H90	H	-0.205865	1.619131	0.965259
C91	C	-0.160303	1.868330	0.468156
C92	C	-0.029351	1.848226	0.463163
C93	C	0.026914	1.958941	0.491007
H94	H	-0.198658	1.925682	0.398235
H95	H	-0.172594	1.899708	0.560375
H96	H	-0.017069	1.816864	0.370957
H97	H	0.009039	1.790893	0.533083
H98	H	0.014623	1.990320	0.583226
H99	H	-0.011451	2.016285	0.421082
H100	H	0.115772	1.945313	0.487636
C101	C	0.210572	0.804027	0.183544
C102	C	0.307639	0.834022	0.111480
C103	C	0.283166	0.791668	-0.030978
H104	H	0.207873	0.717621	0.180693
H105	H	0.130825	0.841377	0.138632
H106	H	0.387365	0.796667	0.156379
H107	H	0.310354	0.920419	0.114290
H108	H	0.203419	0.829019	-0.075889
H109	H	0.280466	0.705264	-0.033814
H110	H	0.349015	0.812023	-0.079894
C111	C	0.396548	1.265981	0.744305
C112	C	0.402175	1.260469	0.892458
C113	C	0.495523	1.168254	0.945938
H114	H	0.375416	1.189439	0.700452
H115	H	0.477198	1.283724	0.723956
H116	H	0.321543	1.242718	0.912795
H117	H	0.423323	1.336988	0.936348
H118	H	0.576173	1.185998	0.925589
H119	H	0.474383	1.091719	0.902076
H120	H	0.499361	1.164510	1.046467
H121	H	-0.039378	1.643295	0.411694
H122	H	-0.413696	1.832346	0.459035
H123	H	-0.476907	1.194492	0.299154
H124	H	-0.515273	1.631243	0.408616
