data_functionalizedCrystal
_audit_creation_method	'MofGen! by Chris Wilmer'
_symmetry_space_group_name_H-M	'P1'
_symmetry_Int_Tables_number	1
_symmetry_cell_setting	triclinic
loop_
_symmetry_equiv_pos_as_xyz
  x,y,z
_cell_length_a	25.639233
_cell_length_b	18.050591
_cell_length_c	18.050589
_cell_angle_alpha	90.024227
_cell_angle_beta	90.012314
_cell_angle_gamma	90.019409
loop_
_atom_site_label
_atom_site_type_symbol
_atom_site_fract_x
_atom_site_fract_y
_atom_site_fract_z
Zn1	Zn	-0.295727	-1.135281	0.295829
Zn2	Zn	0.037606	-0.801948	0.629162
Zn3	Zn	0.370939	-0.468615	0.962496
Zn4	Zn	-0.208301	-1.135195	0.419999
Zn5	Zn	0.125032	-0.801862	0.753333
Zn6	Zn	0.458365	-0.468529	1.086666
Zn7	Zn	-0.208295	-1.011104	0.295819
Zn8	Zn	0.125038	-0.677771	0.629152
Zn9	Zn	0.458371	-0.344437	0.962486
Zn10	Zn	-0.295695	-1.011049	0.419973
Zn11	Zn	0.037638	-0.677715	0.753306
Zn12	Zn	0.370971	-0.344382	1.086640
O13	O	-0.252005	-1.073157	0.357905
O14	O	0.081328	-0.739824	0.691238
O15	O	0.414662	-0.406491	1.024572
O16	O	-0.284146	-1.239195	0.312316
O17	O	0.049188	-0.905861	0.645649
O18	O	0.382521	-0.572528	0.978982
O19	O	-0.135135	-1.118722	0.403534
O20	O	0.198198	-0.785388	0.736867
O21	O	0.531531	-0.452055	1.070200
O22	O	-0.219904	-1.027635	0.191896
O23	O	0.113429	-0.694302	0.525229
O24	O	0.446762	-0.360969	0.858563
O25	O	-0.219914	-1.239131	0.403543
O26	O	0.113419	-0.905798	0.736876
O27	O	0.446752	-0.572465	1.070210
O28	O	-0.284140	-1.118868	0.191903
O29	O	0.049193	-0.785535	0.525236
O30	O	0.382527	-0.452201	0.858570
O31	O	-0.135131	-1.027552	0.312299
O32	O	0.198202	-0.694219	0.645632
O33	O	0.531536	-0.360885	0.978966
O34	O	-0.219874	-0.907172	0.312273
O35	O	0.113460	-0.573839	0.645607
O36	O	0.446793	-0.240505	0.978940
O37	O	-0.368865	-1.027541	0.403498
O38	O	-0.035532	-0.694208	0.736831
O39	O	0.297802	-0.360875	1.070165
O40	O	-0.284086	-0.907131	0.403489
O41	O	0.049247	-0.573798	0.736822
O42	O	0.382581	-0.240465	1.070155
O43	O	-0.368888	-1.118815	0.312290
O44	O	-0.035555	-0.785481	0.645623
O45	O	0.297778	-0.452148	0.978957
O46	O	-0.219884	-1.118668	0.523921
O47	O	0.113450	-0.785335	0.857254
O48	O	0.446783	-0.452001	1.190587
O49	O	-0.284092	-1.027458	0.523901
O50	O	0.049242	-0.694124	0.857234
O51	O	0.382575	-0.360791	1.190568
C52	C	-0.251976	-0.880205	0.357877
C53	C	0.081357	-0.546872	0.691211
C54	C	0.414691	-0.213539	1.024544
C55	C	-0.251976	-0.797659	0.357884
C56	C	0.081357	-0.464326	0.691217
C57	C	0.414691	-0.130993	1.024550
C58	C	-0.251996	-1.073068	0.550857
C59	C	0.081337	-0.739734	0.884191
C60	C	0.414670	-0.406401	1.217524
C61	C	-0.252010	-1.073097	0.633403
C62	C	0.081323	-0.739764	0.966736
C63	C	0.414657	-0.406431	1.300070
C64	C	-0.388378	-1.073181	0.357892
C65	C	-0.055045	-0.739848	0.691225
C66	C	0.278289	-0.406515	1.024559
C67	C	-0.446492	-1.073192	0.357887
C68	C	-0.113159	-0.739858	0.691220
C69	C	0.220175	-0.406525	1.024553
C70	C	-0.806873	-1.120778	0.310253
C71	C	-0.473540	-0.787444	0.643587
C72	C	-0.140206	-0.454111	0.976920
C73	C	-0.861477	-1.120787	0.310233
C74	C	-0.528144	-0.787454	0.643566
C75	C	-0.194811	-0.454120	0.976900
O76	O	-0.889729	-1.161186	0.269821
O77	O	-0.556396	-0.827853	0.603154
O78	O	-0.223062	-0.494520	0.936488
N79	N	-0.888775	-1.073273	0.357712
N80	N	-0.555441	-0.739940	0.691046
N81	N	-0.222108	-0.406607	1.024379
C82	C	-0.861465	-1.025742	0.405210
C83	C	-0.528132	-0.692409	0.738544
C84	C	-0.194798	-0.359076	1.071877
O85	O	-0.889697	-0.985329	0.445593
O86	O	-0.556364	-0.651995	0.778926
O87	O	-0.223031	-0.318662	1.112260
C88	C	-0.806861	-1.025730	0.405227
C89	C	-0.473528	-0.692396	0.738560
C90	C	-0.140195	-0.359063	1.071893
C91	C	-0.779567	-1.073252	0.357749
C92	C	-0.446234	-0.739918	0.691083
C93	C	-0.112900	-0.406585	1.024416
C94	C	-0.779578	-1.168295	0.262779
C95	C	-0.446245	-0.834962	0.596113
C96	C	-0.112912	-0.501629	0.929446
C97	C	-0.724978	-1.168287	0.262801
C98	C	-0.391644	-0.834954	0.596134
C99	C	-0.058311	-0.501620	0.929468
C100	C	-0.697672	-1.120761	0.310297
C101	C	-0.364338	-0.787428	0.643630
C102	C	-0.031005	-0.454094	0.976963
C103	C	-0.724966	-1.073243	0.357771
C104	C	-0.391633	-0.739910	0.691104
C105	C	-0.058300	-0.406577	1.024438
C106	C	-0.779553	-0.978195	0.452720
C107	C	-0.446219	-0.644862	0.786053
C108	C	-0.112886	-0.311529	1.119387
C109	C	-0.724946	-0.978187	0.452732
C110	C	-0.391612	-0.644853	0.786065
C111	C	-0.058279	-0.311520	1.119399
C112	C	-0.697651	-1.025709	0.405255
C113	C	-0.364318	-0.692375	0.738588
C114	C	-0.030984	-0.359042	1.071921
C115	C	-0.643060	-1.025709	0.405288
C116	C	-0.309727	-0.692376	0.738622
C117	C	0.023607	-0.359042	1.071955
N118	N	-0.615762	-1.073223	0.357809
N119	N	-0.282429	-0.739889	0.691142
N120	N	0.050904	-0.406556	1.024475
C121	C	-0.643068	-1.120749	0.310313
C122	C	-0.309735	-0.787415	0.643646
C123	C	0.023598	-0.454082	0.976980
C124	C	-0.976136	-1.025771	0.405172
C125	C	-0.642802	-0.692438	0.738505
C126	C	-0.309469	-0.359104	1.071838
C127	C	-1.030738	-1.025786	0.405160
C128	C	-0.697405	-0.692453	0.738493
C129	C	-0.364071	-0.359120	1.071826
C130	C	-1.030747	-1.120830	0.310181
C131	C	-0.697413	-0.787497	0.643514
C132	C	-0.364080	-0.454164	0.976848
C133	C	-0.976143	-1.120818	0.310197
C134	C	-0.642810	-0.787485	0.643531
C135	C	-0.309477	-0.454151	0.976864
C136	C	-0.948838	-1.073284	0.357692
C137	C	-0.615505	-0.739951	0.691025
C138	C	-0.282171	-0.406618	1.024359
C139	C	-0.528403	-1.120728	0.310363
C140	C	-0.195070	-0.787395	0.643696
C141	C	0.138263	-0.454061	0.977029
C142	C	-0.473798	-1.120717	0.310391
C143	C	-0.140465	-0.787384	0.643724
C144	C	0.192869	-0.454051	0.977057
C145	C	-0.473794	-1.025671	0.405366
C146	C	-0.140461	-0.692338	0.738700
C147	C	0.192873	-0.359004	1.072033
C148	C	-0.528395	-1.025684	0.405341
C149	C	-0.195061	-0.692351	0.738675
C150	C	0.138272	-0.359017	1.072008
C151	C	-0.555698	-1.073215	0.357833
C152	C	-0.222365	-0.739881	0.691167
C153	C	0.110969	-0.406548	1.024500
O154	O	-0.614773	-0.985328	0.445678
O155	O	-0.281440	-0.651995	0.779011
O156	O	0.051893	-0.318661	1.112344
O157	O	-0.614829	-1.161149	0.269930
O158	O	-0.281496	-0.827815	0.603264
O159	O	0.051837	-0.494482	0.936597
C160	C	-0.116162	-1.073176	0.357865
C161	C	0.217171	-0.739843	0.691198
C162	C	0.550504	-0.406510	1.024531
C163	C	-0.058049	-1.073310	0.357661
C164	C	0.275285	-0.739977	0.690994
C165	C	0.608618	-0.406643	1.024328
C166	C	-0.252034	-1.266863	0.357933
C167	C	0.081299	-0.933530	0.691267
C168	C	0.414632	-0.600196	1.024600
C169	C	-0.252047	-1.349409	0.357945
C170	C	0.081287	-1.016075	0.691279
C171	C	0.414620	-0.682742	1.024612
C172	C	-0.217138	-0.598209	0.308223
C173	C	0.116196	-0.264876	0.641556
C174	C	0.449529	0.068457	0.974890
C175	C	-0.204275	-0.548790	0.375957
C176	C	0.129059	-0.215457	0.709290
C177	C	0.462392	0.117877	1.042624
C178	C	-0.252000	-0.646529	0.357906
C179	C	0.081334	-0.313196	0.691239
C180	C	0.414667	0.020138	1.024573
C181	C	-0.264861	-0.548867	0.290196
C182	C	0.068472	-0.215533	0.623529
C183	C	0.401805	0.117800	0.956862
C184	C	-0.252021	-0.500544	0.357922
C185	C	0.081312	-0.167211	0.691255
C186	C	0.414645	0.166123	1.024589
C187	C	-0.239112	-0.598197	0.425676
C188	C	0.094222	-0.264864	0.759009
C189	C	0.427555	0.068470	1.092342
C190	C	-0.299721	-0.598278	0.339868
C191	C	0.033613	-0.264945	0.673202
C192	C	0.366946	0.068389	1.006535
C193	C	-0.286876	-0.548881	0.407649
C194	C	0.046458	-0.215548	0.740983
C195	C	0.379791	0.117786	1.074316
C196	C	-0.251986	-0.730627	0.357896
C197	C	0.081348	-0.397294	0.691229
C198	C	0.414681	-0.063961	1.024563
C199	C	-0.252035	-0.416447	0.357940
C200	C	0.081298	-0.083114	0.691273
C201	C	0.414631	0.250219	1.024606
C202	C	-0.252025	-1.073268	0.164200
C203	C	0.081308	-0.739934	0.497533
C204	C	0.414642	-0.406601	0.830866
C205	C	-0.252034	-1.073315	0.081654
C206	C	0.081300	-0.739981	0.414987
C207	C	0.414633	-0.406648	0.748320
C208	C	-0.286914	-1.023546	0.832870
C209	C	0.046419	-0.690213	1.166203
C210	C	0.379753	-0.356879	1.499537
C211	C	-0.239203	-1.005450	0.882296
C212	C	0.094130	-0.672117	1.215629
C213	C	0.427464	-0.338783	1.548962
C214	C	-0.252017	-1.073170	0.784533
C215	C	0.081317	-0.739837	1.117867
C216	C	0.414650	-0.406504	1.451200
C217	C	-0.299733	-1.091303	0.882189
C218	C	0.033600	-0.757969	1.215523
C219	C	0.366933	-0.424636	1.548856
C220	C	-0.252028	-1.073239	0.930518
C221	C	0.081306	-0.739906	1.263852
C222	C	0.414639	-0.406573	1.597185
C223	C	-0.204280	-1.055039	0.832872
C224	C	0.129053	-0.721705	1.166205
C225	C	0.462386	-0.388372	1.499539
C226	C	-0.264843	-1.140923	0.832761
C227	C	0.068490	-0.807590	1.166094
C228	C	0.401824	-0.474256	1.499428
C229	C	-0.217099	-1.122853	0.882165
C230	C	0.116234	-0.789519	1.215498
C231	C	0.449568	-0.456186	1.548831
C232	C	-0.252011	-1.073129	0.700435
C233	C	0.081322	-0.739795	1.033768
C234	C	0.414655	-0.406462	1.367102
C235	C	-0.252028	-1.073281	1.014615
C236	C	0.081306	-0.739948	1.347948
C237	C	0.414639	-0.406614	1.681282
H238	H	-0.451577	-1.159418	0.271728
H239	H	-0.118244	-0.826085	0.605062
H240	H	0.215089	-0.492752	0.938395
H241	H	-0.953907	-0.987062	0.443852
H242	H	-0.620574	-0.653729	0.777185
H243	H	-0.287240	-0.320396	1.110518
Br244	Br	-0.336034	-0.953503	0.796791
Br245	Br	-0.002701	-0.620170	1.130124
Br246	Br	0.330632	-0.286836	1.463457
H247	H	-0.163927	-0.527054	0.391225
H248	H	0.169406	-0.193721	0.724559
H249	H	0.502739	0.139613	1.057892
H250	H	-0.340082	-1.106612	0.903852
H251	H	-0.006749	-0.773278	1.237186
H252	H	0.326584	-0.439945	1.570519
H253	H	-0.228197	-0.619776	0.482961
H254	H	0.105136	-0.286443	0.816295
H255	H	0.438469	0.046891	1.149628
Br256	Br	-0.565449	-1.185229	0.245882
Br257	Br	-0.232116	-0.851896	0.579216
Br258	Br	0.101217	-0.518563	0.912549
H259	H	-0.340056	-0.620032	0.324579
H260	H	-0.006723	-0.286699	0.657913
H261	H	0.326611	0.046635	0.991246
H262	H	-0.702759	-1.206983	0.224139
H263	H	-0.369426	-0.873650	0.557472
H264	H	-0.036093	-0.540316	0.890805
Br265	Br	-0.336031	-0.513006	0.477765
Br266	Br	-0.002698	-0.179672	0.811098
Br267	Br	0.330636	0.153661	1.144431
H268	H	-0.275713	-0.527158	0.232935
H269	H	0.057621	-0.193825	0.566268
H270	H	0.390954	0.139508	0.899601
H271	H	-1.052989	-1.159527	0.271506
H272	H	-0.719656	-0.826194	0.604839
H273	H	-0.386322	-0.492860	0.938172
H274	H	-0.275704	-1.198174	0.810989
H275	H	0.057629	-0.864840	1.144322
H276	H	0.390962	-0.531507	1.477655
Br277	Br	-0.221121	-0.910002	0.918558
Br278	Br	0.112212	-0.576668	1.251891
Br279	Br	0.445546	-0.243335	1.585224
H280	H	-0.702717	-0.939470	0.491401
H281	H	-0.369383	-0.606137	0.824734
H282	H	-0.036050	-0.272804	1.158068
H283	H	-0.163920	-1.039663	0.811299
H284	H	0.169413	-0.706330	1.144632
H285	H	0.502746	-0.372997	1.477965
H286	H	-0.187558	-1.164848	0.903673
H287	H	0.145775	-0.831514	1.237006
H288	H	0.479109	-0.498181	1.570339
H289	H	-0.187624	-0.619868	0.266253
H290	H	0.145709	-0.286535	0.599586
H291	H	0.479042	0.046799	0.932920
H292	H	-0.801805	-1.206997	0.224098
H293	H	-0.468472	-0.873663	0.557432
H294	H	-0.135138	-0.540330	0.890765
Br295	Br	-0.939106	-1.185314	0.245762
Br296	Br	-0.605773	-0.851981	0.579095
Br297	Br	-0.272440	-0.518647	0.912428
H298	H	-1.052956	-0.987097	0.443829
H299	H	-0.719623	-0.653764	0.777162
H300	H	-0.386290	-0.320431	1.110495
Br301	Br	-0.436725	-0.961174	0.469821
Br302	Br	-0.103392	-0.627840	0.803154
Br303	Br	0.229941	-0.294507	1.136487
Br304	Br	-0.565439	-0.961195	0.469781
Br305	Br	-0.232105	-0.627862	0.803114
Br306	Br	0.101228	-0.294528	1.136447
Br307	Br	-0.816581	-0.913701	0.517163
Br308	Br	-0.483248	-0.580368	0.850496
Br309	Br	-0.149915	-0.247035	1.183829
