data_functionalizedCrystal
_audit_creation_method	'MofGen! by Chris Wilmer'
_symmetry_space_group_name_H-M	'P1'
_symmetry_Int_Tables_number	1
_symmetry_cell_setting	triclinic
loop_
_symmetry_equiv_pos_as_xyz
  x,y,z
_cell_length_a	21.395364
_cell_length_b	12.827892
_cell_length_c	21.395355
_cell_angle_alpha	90.010241
_cell_angle_beta	90.025298
_cell_angle_gamma	90.034032
loop_
_atom_site_label
_atom_site_type_symbol
_atom_site_fract_x
_atom_site_fract_y
_atom_site_fract_z
Zn1	Zn	-0.957917	0.415688	-0.354310
Zn2	Zn	-0.957844	0.590415	-0.249548
Zn3	Zn	-0.853132	0.415740	-0.249545
Zn4	Zn	-0.853126	0.590439	-0.354286
O5	O	-0.905505	0.503070	-0.301922
O6	O	-1.045586	0.438835	-0.340424
O7	O	-0.943926	0.567255	-0.161869
O8	O	-0.867066	0.269497	-0.263451
O9	O	-1.045532	0.567206	-0.263455
O10	O	-0.944051	0.269459	-0.340422
O11	O	-0.866995	0.438922	-0.161868
O12	O	-0.765454	0.438945	-0.263429
O13	O	-0.867055	0.567247	-0.441967
O14	O	-0.765449	0.567296	-0.340381
O15	O	-0.944045	0.438858	-0.441985
O16	O	-0.943920	0.736654	-0.263433
O17	O	-0.866984	0.736672	-0.340384
C18	C	-0.742717	0.503130	-0.301903
C19	C	-0.673076	0.503180	-0.301909
C20	C	-0.640413	0.436448	-0.342048
C21	C	-0.574978	0.436424	-0.342050
C22	C	-0.542208	0.503150	-0.301919
C23	C	-0.574879	0.569886	-0.261772
C24	C	-0.640313	0.569901	-0.261767
C25	C	-0.438497	0.597265	-0.296888
C26	C	-0.373064	0.597251	-0.296897
C27	C	-0.340387	0.503103	-0.301930
C28	C	-0.373152	0.408964	-0.306967
C29	C	-0.438586	0.408980	-0.306962
C30	C	-0.471256	0.503140	-0.301919
C31	C	-0.236772	0.436339	-0.342073
C32	C	-0.171335	0.436313	-0.342070
C33	C	-0.171237	0.569784	-0.261796
C34	C	-0.236672	0.569801	-0.261795
C35	C	-0.269436	0.503080	-0.301937
C36	C	-0.905460	0.774580	-0.301920
C37	C	-0.905499	0.890734	-0.301939
C38	C	-0.068928	0.503025	-0.301939
C39	C	-0.138570	0.503038	-0.301938
C40	C	-0.943613	0.942475	-0.263905
C41	C	-0.943654	1.062525	-0.263925
C42	C	-0.905557	0.503049	-0.465346
C43	C	-0.905579	0.503040	-0.534987
C44	C	-0.905562	1.230500	-0.301947
C45	C	-0.905573	1.114347	-0.301976
C46	C	-0.945666	0.436186	-0.567710
C47	C	-0.945665	0.436141	-0.633146
C48	C	-0.905584	0.502969	-0.665855
C49	C	-0.865489	0.569828	-0.633124
C50	C	-0.865487	0.569864	-0.567690
C51	C	-0.900621	0.597065	-0.769529
C52	C	-0.900628	0.597031	-0.834962
C53	C	-0.905588	0.502859	-0.867676
C54	C	-0.910554	0.408717	-0.834949
C55	C	-0.910552	0.408752	-0.769515
C56	C	-0.905582	0.502937	-0.736808
C57	C	-0.945676	0.435950	-0.971352
C58	C	-0.945671	0.435903	-1.036789
C59	C	-0.865498	0.569600	-1.036766
C60	C	-0.865500	0.569637	-0.971331
C61	C	-0.905593	0.502814	-0.938628
C62	C	-0.905489	0.503016	-0.139135
C63	C	-0.905589	0.502731	-0.069494
H64	H	-0.465097	0.673937	-0.292789
H65	H	-0.832857	0.624002	-1.063398
H66	H	-0.896588	0.673688	-0.861603
H67	H	-0.976283	1.107022	-0.231361
Br68	Br	-0.851163	0.965024	-0.356245
H69	H	-0.976217	0.897898	-0.231330
Br70	Br	-1.000074	0.345493	-0.523330
Br71	Br	-0.530640	0.345850	-0.396526
Br72	Br	-1.000057	0.345377	-0.677566
Br73	Br	-0.328604	0.725009	-0.290075
H74	H	-0.832841	0.624304	-0.541047
Br75	Br	-0.127005	0.345732	-0.396545
H76	H	-0.914594	0.332099	-0.742872
H77	H	-0.667085	0.382118	-0.374734
Br78	Br	-0.893908	0.724886	-0.725138
H79	H	-0.914594	0.332032	-0.861584
Br80	Br	-1.000083	0.345259	-0.926965
Br81	Br	-1.000089	0.345179	-1.081200
Br82	Br	-0.811095	0.660376	-0.926917
H83	H	-0.832853	0.624237	-0.659761
H84	H	-0.346548	0.332300	-0.311065
Br85	Br	-0.483050	0.281228	-0.313795
H86	H	-0.144556	0.624113	-0.229120
Br87	Br	-0.281004	0.660362	-0.207313
Br88	Br	-0.530407	0.660436	-0.207303
Br89	Br	-0.684644	0.660468	-0.207285
H90	H	-0.263449	0.382004	-0.374755
H91	H	-0.872937	1.069858	-0.334538
