data_functionalizedCrystal
_audit_creation_method	'MofGen! by Chris Wilmer'
_symmetry_space_group_name_H-M	'P1'
_symmetry_Int_Tables_number	1
_symmetry_cell_setting	triclinic
loop_
_symmetry_equiv_pos_as_xyz
  x,y,z
_cell_length_a	11.169417
_cell_length_b	12.759394
_cell_length_c	11.169409
_cell_angle_alpha	89.967170
_cell_angle_beta	89.980176
_cell_angle_gamma	90.014734
loop_
_atom_site_label
_atom_site_type_symbol
_atom_site_fract_x
_atom_site_fract_y
_atom_site_fract_z
Zn1	Zn	1.834933	-0.418157	-0.678539
Zn2	Zn	1.834810	-0.593883	-0.477854
Zn3	Zn	1.634219	-0.418221	-0.477873
Zn4	Zn	1.634214	-0.593797	-0.678499
O5	O	1.734544	-0.506014	-0.578191
O6	O	2.002866	-0.441476	-0.651926
O7	O	1.808152	-0.570643	-0.309907
O8	O	1.660898	-0.271191	-0.504516
O9	O	2.002776	-0.570581	-0.504484
O10	O	1.808361	-0.271144	-0.651945
O11	O	1.660778	-0.441585	-0.309921
O12	O	1.466269	-0.441502	-0.504478
O13	O	1.660889	-0.570435	-0.846454
O14	O	1.466265	-0.570497	-0.651877
O15	O	1.808357	-0.441393	-0.846483
O16	O	1.808147	-0.740892	-0.504445
O17	O	1.660770	-0.740829	-0.651858
C18	C	1.422719	-0.505998	-0.578176
C19	C	1.289319	-0.506017	-0.578197
C20	C	1.734477	-0.778982	-0.578171
C21	C	1.734559	-0.895758	-0.578203
C22	C	1.887998	-0.895551	-0.731835
C23	C	1.964755	-0.950308	-0.808660
C24	C	1.964826	-1.060030	-0.808686
C25	C	1.888129	-1.114997	-0.731881
C26	C	1.811372	-1.060240	-0.655056
C27	C	1.811312	-0.950516	-0.655036
C28	C	1.657929	-1.060447	-0.501432
C29	C	1.657862	-0.950725	-0.501398
C30	C	1.581232	-1.115414	-0.424627
C31	C	1.504479	-1.060657	-0.347794
C32	C	1.504412	-0.950928	-0.347770
C33	C	1.581104	-0.895968	-0.424573
C34	C	2.047586	-0.506031	-0.578207
C35	C	2.180986	-0.506038	-0.578214
C36	C	1.734636	-0.505898	-0.891234
C37	C	1.734675	-0.505848	-1.024634
C38	C	1.734644	-0.231981	-0.578237
C39	C	1.734686	-0.115204	-0.578257
C40	C	1.734521	-0.506055	-0.266366
C41	C	1.734714	-0.505808	-0.132967
H42	H	1.887959	-0.806210	-0.731810
F43	F	2.046368	-0.891802	-0.890406
H44	H	1.581062	-0.806627	-0.424556
H45	H	2.027316	-1.104613	-0.871256
F46	F	1.888343	-1.231773	-0.731780
H47	H	1.581291	-1.204755	-0.424658
F48	F	1.422709	-0.892660	-0.266006
F49	F	1.422852	-1.119162	-0.266072
