data_functionalizedCrystal
_audit_creation_method	'MofGen! by Chris Wilmer'
_symmetry_space_group_name_H-M	'P1'
_symmetry_Int_Tables_number	1
_symmetry_cell_setting	triclinic
loop_
_symmetry_equiv_pos_as_xyz
  x,y,z
_cell_length_a	19.851628
_cell_length_b	14.809374
_cell_length_c	14.809374
_cell_angle_alpha	57.530506
_cell_angle_beta	98.952396
_cell_angle_gamma	67.429748
loop_
_atom_site_label
_atom_site_type_symbol
_atom_site_fract_x
_atom_site_fract_y
_atom_site_fract_z
Zr1	Zr	0.704168	1.000688	-0.231480
O2	O	0.592858	1.191375	-0.398673
O3	O	0.729145	0.809987	-0.165495
O4	O	0.720196	1.000690	-0.377442
O5	O	0.619269	1.000674	-0.036296
O6	O	0.831045	1.000708	-0.377453
O7	O	0.601807	1.000672	-0.186726
O8	O	0.847054	0.659574	0.001682
O9	O	0.603260	1.341808	-0.415431
O10	O	0.833572	0.888443	-0.155160
O11	O	0.763878	0.888432	-0.042888
O12	O	0.753341	1.112961	-0.292428
O13	O	0.683648	1.112950	-0.180156
Zr14	Zr	0.908809	1.000720	0.008421
Zr15	Zr	0.880959	1.000716	-0.231497
Zr16	Zr	0.732018	1.000692	0.008438
Zr17	Zr	0.720758	1.240611	-0.258207
Zr18	Zr	0.892218	0.760797	0.035148
O19	O	0.883831	1.191422	-0.057564
O20	O	0.844232	1.191415	-0.398697
O21	O	0.632457	1.191381	-0.057540
O22	O	1.020119	0.810033	0.175614
O23	O	0.980520	0.810027	-0.165519
O24	O	0.768744	0.809993	0.175637
O25	O	0.993707	1.000734	-0.186763
O26	O	0.892781	1.000718	0.154383
O27	O	0.781932	1.000700	0.154393
O28	O	1.011169	1.000737	-0.036333
O29	O	0.743786	1.341831	-0.415444
O30	O	0.869191	0.659578	0.192385
O31	O	1.009717	0.659600	0.192372
O32	O	0.987580	0.659596	0.001669
O33	O	0.625397	1.341812	-0.224728
O34	O	0.765923	1.341834	-0.224741
O35	O	0.859635	0.888447	0.069369
O36	O	0.929329	0.888458	-0.042903
O37	O	0.849098	1.112976	-0.180172
O38	O	0.779405	1.112965	-0.067900
C39	C	0.785736	0.700596	-0.078099
C40	C	0.778693	0.598743	-0.066753
C41	C	0.810126	0.553339	-0.117389
C42	C	0.802847	0.448067	-0.105663
C43	C	0.585349	1.000669	-0.111509
C44	C	0.510297	1.000657	-0.111502
C45	C	0.372676	0.878269	-0.036675
C46	C	0.314609	0.939463	0.000878
C47	C	0.372866	1.000690	-0.111520
C48	C	0.297202	0.939489	-0.149034
C49	C	0.240117	1.000714	-0.111536
C50	C	0.315795	1.061885	-0.073906
C51	C	0.298390	1.061893	-0.223874
C52	C	0.240313	1.123176	-0.186358
C53	C	0.449341	1.000673	-0.111508
C54	C	0.163641	1.000740	-0.111547
C55	C	1.027627	1.000739	-0.111550
C56	C	1.102680	1.000751	-0.111557
C57	C	0.771652	1.000699	-0.411631
C58	C	0.759829	1.000697	-0.513482
C59	C	0.827241	1.300812	-0.144960
C60	C	0.834284	1.402666	-0.156306
C61	C	0.812594	1.000705	-0.558896
C62	C	0.800376	1.000703	-0.664165
C63	C	0.841324	1.000710	0.188572
C64	C	0.853147	1.000712	0.290423
C65	C	1.006875	0.700632	-0.078120
C66	C	1.074884	0.598790	-0.066781
C67	C	0.820572	0.700602	0.222002
C68	C	0.825352	0.598750	0.335200
C69	C	1.041711	0.700637	0.221982
C70	C	1.121543	0.598797	0.335172
C71	C	0.571266	1.300771	-0.445041
C72	C	0.491433	1.402611	-0.558231
C73	C	0.606102	1.300777	-0.144940
C74	C	0.538092	1.402618	-0.156279
C75	C	0.792405	1.300806	-0.445061
C76	C	0.787625	1.402658	-0.558259
C77	C	1.056837	0.550956	-0.120062
C78	C	1.120731	0.455278	-0.109432
C79	C	1.202671	0.407429	-0.045512
C80	C	1.220718	0.455273	0.007770
C81	C	1.156825	0.550955	-0.002868
C82	C	1.195420	0.550978	0.329723
C83	C	1.270438	0.455302	0.436067
C84	C	1.271577	0.407440	0.547860
C85	C	1.197692	0.455269	0.553306
C86	C	1.122676	0.550950	0.446962
C87	C	0.417557	1.450442	-0.552783
C88	C	0.342541	1.546148	-0.659131
C89	C	0.341403	1.594014	-0.770924
C90	C	0.415288	1.546179	-0.776369
C91	C	0.490302	1.450482	-0.670024
C92	C	0.556139	1.450462	-0.103008
C93	C	0.492244	1.546167	-0.113668
C94	C	0.410303	1.594019	-0.177591
C95	C	0.392257	1.546171	-0.230869
C96	C	0.456151	1.450475	-0.220216
C97	C	0.772251	0.633788	0.379133
C98	C	0.776726	0.538101	0.485484
C99	C	0.834305	0.407377	0.547904
C100	C	0.887408	0.372339	0.503962
C101	C	0.882929	0.468025	0.397608
C102	C	0.730041	1.533367	-0.620647
C103	C	0.725548	1.629081	-0.727000
C104	C	0.778637	1.594084	-0.770968
C105	C	0.836228	1.463362	-0.708571
C106	C	0.840723	1.367650	-0.602215
H107	H	0.842429	0.592395	-0.169416
H108	H	0.678649	1.735513	-0.777793
H109	H	0.550452	1.411539	-0.674473
Br110	Br	0.242282	1.611044	-0.651712
H111	H	0.866816	1.000707	-0.519841
H112	H	0.183729	1.226774	-0.249653
H113	H	0.288610	0.887724	-0.180756
H114	H	0.292310	1.113588	-0.318860
Br115	Br	1.373392	0.277586	0.692174
Br116	Br	0.945638	0.615876	-0.206822
Br117	Br	0.324794	0.853236	0.159234
Br118	Br	1.193899	0.615919	0.178018
Br119	Br	0.918869	1.190260	-0.517571
Br120	Br	0.888135	0.467742	-0.243021
Br121	Br	0.330019	1.148066	-0.020855
H122	H	0.770547	0.409005	-0.053625
Br123	Br	0.431644	1.385549	-0.292515
Br124	Br	0.965548	0.194920	0.588691
Br125	Br	0.710004	1.000673	-0.729233
Br126	Br	1.289375	0.277572	-0.031086
Br127	Br	0.943530	1.000711	-0.644490
H128	H	0.705612	1.000681	-0.552530
H129	H	1.198631	0.416286	0.644341
Br130	Br	0.516755	1.611080	-0.041351
H131	H	0.418468	1.411474	-0.461765
Br132	Br	1.096220	0.390365	-0.181749
Br133	Br	1.331929	0.390317	0.094519
H134	H	0.325532	1.585147	-0.282915
Br135	Br	1.181333	0.615855	0.069460
H136	H	1.330590	0.416369	0.431612
H137	H	0.414351	1.585165	-0.867404
H138	H	0.686804	1.561887	-0.584865
H139	H	1.062526	0.589872	0.451416
H140	H	0.725361	0.740225	0.328322
H141	H	0.280316	1.671937	-0.857508
H142	H	0.746396	0.559677	-0.014718
Br143	Br	0.704654	0.585681	0.545098
H144	H	0.926175	0.439478	0.361851
Br145	Br	0.667338	1.385545	-0.016251
H146	H	0.358285	1.671941	-0.186257
Br147	Br	0.840373	0.277531	0.692241
Br148	Br	0.772525	1.723996	-0.915313
H149	H	0.879450	1.434884	-0.744386
H150	H	0.429368	0.774756	0.026684
