data_functionalizedCrystal
_audit_creation_method	'MofGen! by Chris Wilmer'
_symmetry_space_group_name_H-M	'P1'
_symmetry_Int_Tables_number	1
_symmetry_cell_setting	triclinic
loop_
_symmetry_equiv_pos_as_xyz
  x,y,z
_cell_length_a	17.699083
_cell_length_b	13.596369
_cell_length_c	17.699083
_cell_angle_alpha	90.006725
_cell_angle_beta	96.716985
_cell_angle_gamma	90.000190
loop_
_atom_site_label
_atom_site_type_symbol
_atom_site_fract_x
_atom_site_fract_y
_atom_site_fract_z
O1	O	1.004077	-0.081655	-0.095712
O2	O	1.504077	0.418345	0.404288
O3	O	0.783699	-0.081688	-0.108165
O4	O	1.283699	0.418312	0.391835
O5	O	0.900114	-0.081662	0.008251
O6	O	1.400114	0.418338	0.508251
O7	O	0.887662	-0.081681	-0.212128
O8	O	1.387662	0.418319	0.287872
O9	O	0.900101	0.081921	0.008256
O10	O	1.400101	0.581921	0.508256
O11	O	0.783686	0.081895	-0.108159
O12	O	1.283686	0.581895	0.391841
O13	O	1.004064	0.081927	-0.095707
O14	O	1.504064	0.581927	0.404293
Zn15	Zn	0.893873	0.107884	-0.101932
Zn16	Zn	1.393873	0.607884	0.398068
Zn17	Zn	0.893890	-0.107644	-0.101939
Zn18	Zn	1.393890	0.392356	0.398061
O19	O	0.887649	0.081902	-0.212122
O20	O	1.387649	0.581902	0.287878
C21	C	0.755495	0.000099	-0.107716
C22	C	1.255495	0.500099	0.392284
C23	C	0.671477	0.000087	-0.106377
C24	C	1.171477	0.500087	0.393623
N25	N	0.893867	0.254975	-0.101926
N26	N	1.393867	0.754975	0.398074
C27	C	0.622856	0.000082	-0.174710
C28	C	1.122856	0.500082	0.325290
C29	C	0.543913	0.000095	-0.173448
C30	C	1.043913	0.500095	0.326552
C31	C	0.513592	0.000106	-0.103852
C32	C	1.013592	0.500106	0.396148
C33	C	0.562219	0.000115	-0.035513
C34	C	1.062219	0.500115	0.464487
C35	C	0.641161	0.000109	-0.036776
C36	C	1.141161	0.500109	0.463224
C37	C	0.243856	0.000139	-0.030418
C38	C	0.743856	0.500139	0.469582
C39	C	0.164908	0.000142	-0.029160
C40	C	0.664908	0.500142	0.470840
C41	C	0.146608	0.000125	-0.167090
C42	C	0.646608	0.500125	0.332910
C43	C	0.225550	0.000119	-0.168353
C44	C	0.725550	0.500119	0.331647
C45	C	0.274170	0.000133	-0.100015
C46	C	0.774170	0.500133	0.399985
C47	C	0.359769	0.000121	-0.101384
C48	C	0.859769	0.500121	0.398616
C49	C	0.427995	0.000111	-0.102481
C50	C	0.927995	0.500111	0.397519
C51	C	0.893883	0.656266	-0.101942
C52	C	1.393883	1.156266	0.398058
C53	C	0.893877	0.544615	-0.101940
C54	C	1.393877	1.044615	0.398060
C55	C	0.893876	0.455624	-0.101935
C56	C	1.393876	0.955624	0.398065
C57	C	0.893868	0.343966	-0.101932
C58	C	1.393868	0.843966	0.398068
C59	C	1.032268	0.000138	-0.096156
C60	C	1.532268	0.500138	0.403844
C61	C	1.116286	0.000144	-0.097494
C62	C	1.616286	0.500144	0.402506
C63	C	0.899662	0.000129	0.036451
C64	C	1.399662	0.500129	0.536451
C65	C	0.898323	0.000130	0.120469
C66	C	1.398323	0.500130	0.620469
N67	N	0.893895	0.745264	-0.101942
N68	N	1.393895	1.245264	0.398058
C69	C	0.888102	0.000108	-0.240322
C70	C	1.388102	0.500108	0.259678
C71	C	0.889440	0.000101	-0.324340
C72	C	1.389440	0.500101	0.175660
C73	C	0.966656	0.000141	0.169090
C74	C	1.466656	0.500141	0.669090
C75	C	0.965394	0.000132	0.248033
C76	C	1.465394	0.500132	0.748033
C77	C	0.895798	0.000119	0.278354
C78	C	1.395798	0.500119	0.778354
C79	C	0.827459	0.000104	0.229727
C80	C	1.327459	0.500104	0.729727
C81	C	0.828722	0.000106	0.150785
C82	C	1.328722	0.500106	0.650785
C83	C	0.822364	0.000096	0.548090
C84	C	1.322364	0.500096	1.048090
C85	C	0.821106	0.000097	0.627038
C86	C	1.321106	0.500097	1.127038
C87	C	0.959036	0.000122	0.645338
C88	C	1.459036	0.500122	1.145338
C89	C	0.960299	0.000123	0.566396
C90	C	1.460299	0.500123	1.066396
C91	C	0.891961	0.000104	0.517776
C92	C	1.391961	0.500104	1.017776
C93	C	0.893330	0.000112	0.432177
C94	C	1.393330	0.500112	0.932177
C95	C	0.894427	0.000118	0.363951
C96	C	1.394427	0.500118	0.863951
H97	H	0.504328	0.000089	-0.229092
H98	H	1.004328	0.500089	0.270908
H99	H	0.250232	0.000105	-0.225025
H100	H	0.750232	0.500105	0.274975
H101	H	0.537526	0.000138	0.021154
H102	H	1.037526	0.500138	0.521154
H103	H	1.023330	0.000158	0.144409
H104	H	1.523330	0.500158	0.644409
O105	O	1.032748	0.000139	0.697778
O106	O	1.532748	0.500139	1.197778
H107	H	1.035489	-0.066538	0.734171
H108	H	1.535489	0.433462	1.234171
O109	O	0.746038	0.000075	0.659745
O110	O	1.246038	0.500075	1.159745
H111	H	0.698730	0.000052	0.612675
H112	H	1.198730	0.500052	1.112675
O113	O	0.752396	0.000095	0.262433
O114	O	1.252396	0.500095	0.762433
H115	H	0.719573	-0.066588	0.242895
H116	H	1.219573	0.433412	0.742895
H117	H	0.766718	0.000080	0.508512
H118	H	1.266718	0.500080	1.008512
H119	H	1.021038	0.000144	0.287618
H120	H	1.521038	0.500144	0.787618
O121	O	0.755021	0.000105	0.098338
O122	O	1.255021	0.500105	0.598338
H123	H	0.706413	0.000107	0.132682
H124	H	1.206413	0.500107	0.632682
O125	O	0.693602	0.000114	0.036930
O126	O	1.193602	0.500114	0.536930
H127	H	0.730000	0.066793	0.039656
H128	H	1.230000	0.566793	0.539656
O129	O	0.655559	0.000079	-0.249776
O130	O	1.155559	0.500079	0.250224
H131	H	0.608484	0.000090	-0.297079
H132	H	1.108484	0.500090	0.202921
O133	O	1.035366	0.000123	0.533697
O134	O	1.535366	0.500123	1.033697
H135	H	1.068198	0.066793	0.553247
H136	H	1.568198	0.566793	1.053247
O137	O	0.094169	0.000131	-0.240803
O138	O	0.594169	0.500131	0.259197
H139	H	0.034181	0.000152	-0.228237
H140	H	0.534181	0.500152	0.271763
H141	H	0.283434	0.000151	0.025228
H142	H	0.783434	0.500151	0.525228
O143	O	0.132201	0.000171	0.045908
O144	O	0.632201	0.500171	0.545908
H145	H	0.179271	0.000193	0.093216
H146	H	0.679271	0.500193	0.593216
