data_functionalizedCrystal
_audit_creation_method	'MofGen! by Chris Wilmer'
_symmetry_space_group_name_H-M	'P1'
_symmetry_Int_Tables_number	1
_symmetry_cell_setting	triclinic
loop_
_symmetry_equiv_pos_as_xyz
  x,y,z
_cell_length_a	15.944551
_cell_length_b	16.992694
_cell_length_c	15.455313
_cell_angle_alpha	92.857794
_cell_angle_beta	92.664316
_cell_angle_gamma	92.916519
loop_
_atom_site_label
_atom_site_type_symbol
_atom_site_fract_x
_atom_site_fract_y
_atom_site_fract_z
O1	O	0.174669	-1.043832	-0.072025
O2	O	0.172714	-0.815548	-0.072051
O3	O	0.051836	-0.935924	-0.072029
O4	O	0.295548	-0.923457	-0.072046
O5	O	0.058718	-0.929040	0.072232
O6	O	0.179596	-0.808664	0.072210
O7	O	0.181551	-1.036949	0.072236
Cu8	Cu	0.181202	-0.922178	0.085395
Cu9	Cu	0.173063	-0.930319	-0.085210
O10	O	0.302430	-0.916573	0.072215
C11	C	0.173641	-0.782894	0.000077
C12	C	0.166141	-0.695850	0.000067
C13	C	0.023948	-0.931964	0.000101
C14	C	-0.069402	-0.930413	0.000102
C15	C	0.180624	-1.069603	0.000107
C16	C	0.188124	-1.156647	0.000110
C17	C	-0.289513	-0.852089	0.000081
C18	C	-0.344697	-0.885066	0.071214
C19	C	-0.240317	-0.927606	0.000095
C20	C	-0.351465	-0.891871	-0.071016
C21	C	-0.405412	-0.924889	0.000084
C22	C	-0.294269	-0.960600	0.071287
C23	C	-0.301034	-0.967397	-0.071007
C24	C	-0.356196	-1.000428	0.000144
C25	C	-0.145209	-0.929168	0.000101
C26	C	-0.500518	-0.923332	0.000084
C27	C	0.330318	-0.920532	0.000082
C28	C	0.423668	-0.922084	0.000076
N29	N	0.186926	-0.916458	0.205390
C30	C	0.238506	-0.645613	0.000063
C31	C	0.231454	-0.563826	0.000075
C32	C	0.152037	-0.532276	0.000086
C33	C	0.079667	-0.582519	0.000093
C34	C	0.086719	-0.664305	0.000087
C35	C	0.122807	-0.288676	0.000111
C36	C	0.115760	-0.206884	0.000115
C37	C	0.267548	-0.188196	0.000099
C38	C	0.274593	-0.269984	0.000087
C39	C	0.202223	-0.320220	0.000099
N40	N	0.144827	-0.448677	0.000096
N41	N	0.209434	-0.403817	0.000095
N42	N	0.167333	-0.936045	-0.205204
C43	C	0.135594	-0.967616	0.250793
C44	C	0.139932	-0.963297	0.341600
C45	C	0.195606	-0.907824	0.387002
C46	C	0.246940	-0.856661	0.341593
C47	C	0.242598	-0.860976	0.250787
C48	C	0.214325	-0.889197	0.658581
C49	C	0.218665	-0.884887	0.749392
C50	C	0.111655	-0.991523	0.749393
C51	C	0.107321	-0.995836	0.658586
C52	C	0.158653	-0.944671	0.613185
N53	N	0.200042	-0.903410	0.479822
N54	N	0.154211	-0.949081	0.520367
H55	H	-0.260406	-0.789404	0.000145
N56	N	0.355722	-0.302196	0.000065
N57	N	0.420329	-0.257332	0.000056
H58	H	0.477628	-0.280081	0.000035
H59	H	0.326467	-0.147286	0.000091
N60	N	-0.369008	-0.841392	0.146644
N61	N	-0.345367	-0.770314	0.159309
H62	H	-0.362534	-0.739463	0.212579
N63	N	0.305368	-0.512504	0.000066
N64	N	0.315466	-0.467663	-0.060733
H65	H	0.367669	-0.431414	-0.060734
H66	H	-0.385145	-1.063164	0.000191
N67	N	0.078682	-1.024235	0.204404
N68	N	0.001460	-1.022620	0.214566
H69	H	-0.038750	-1.062590	0.181796
H70	H	0.027792	-0.705207	0.000090
N71	N	-0.262898	-0.997034	0.146807
N72	N	-0.185654	-1.004078	0.159014
H73	H	-0.163495	-1.029806	0.212350
N74	N	0.034626	-0.174669	0.000124
N75	N	-0.029983	-0.219529	0.000134
H76	H	-0.087282	-0.196778	0.000138
H77	H	0.098132	-1.004953	0.378567
H78	H	0.015004	-0.556825	0.000114
H79	H	0.063878	-0.329568	0.000121
H80	H	-0.281632	-1.002180	-0.131141
N81	N	-0.382953	-0.855376	-0.146447
N82	N	-0.360510	-0.785505	-0.159108
H83	H	-0.382746	-0.759724	-0.212377
H84	H	0.061987	-1.041007	0.621621
H85	H	0.069863	-1.033179	0.786368
N86	N	0.275537	-0.828210	0.795758
N87	N	0.321359	-0.782527	0.755212
H88	H	0.361521	-0.742499	0.787957
N89	N	0.266759	-0.836926	0.612225
N90	N	0.316463	-0.787401	0.652777
H91	H	0.353497	-0.750481	0.620036
N92	N	0.303799	-0.799995	0.387981
N93	N	0.307670	-0.796148	0.469056
H94	H	0.347829	-0.756128	0.501818
H95	H	0.284397	-0.819318	0.213821
H96	H	0.303176	-0.671294	0.000054
