data_functionalizedCrystal
_audit_creation_method	'MofGen! by Chris Wilmer'
_symmetry_space_group_name_H-M	'P1'
_symmetry_Int_Tables_number	1
_symmetry_cell_setting	triclinic
loop_
_symmetry_equiv_pos_as_xyz
  x,y,z
_cell_length_a	19.288840
_cell_length_b	16.109301
_cell_length_c	17.766277
_cell_angle_alpha	89.992214
_cell_angle_beta	89.983415
_cell_angle_gamma	83.293748
loop_
_atom_site_label
_atom_site_type_symbol
_atom_site_fract_x
_atom_site_fract_y
_atom_site_fract_z
O1	O	0.921612	0.103617	-0.062722
O2	O	1.421612	0.603617	0.437278
O3	O	0.719382	0.117630	-0.062697
O4	O	1.219382	0.617630	0.437303
O5	O	0.826052	-0.010427	-0.062702
O6	O	1.326052	0.489573	0.437298
O7	O	0.814941	0.231674	-0.062716
O8	O	1.314941	0.731674	0.437284
O9	O	0.826033	-0.010434	0.062486
O10	O	1.326033	0.489566	0.562486
O11	O	0.719363	0.117623	0.062492
O12	O	1.219363	0.617623	0.562492
O13	O	0.921593	0.103610	0.062466
O14	O	1.421593	0.603610	0.562466
Cu15	Cu	0.820476	0.110616	0.073910
Cu16	Cu	1.320476	0.610616	0.573910
Cu17	Cu	0.820498	0.110624	-0.074140
Cu18	Cu	1.320498	0.610624	0.425860
O19	O	0.814923	0.231667	0.062472
O20	O	1.314923	0.731667	0.562472
C21	C	0.693495	0.117179	-0.000099
C22	C	1.193495	0.617179	0.499901
C23	C	0.616387	0.115836	-0.000089
C24	C	1.116387	0.615836	0.499911
C25	C	0.580192	0.115194	-0.068331
C26	C	1.080192	0.615194	0.431669
C27	C	0.507742	0.113923	-0.068340
C28	C	1.007742	0.613923	0.431660
C29	C	0.471492	0.113277	-0.000103
C30	C	0.971492	0.613277	0.499897
C31	C	0.507695	0.113923	0.068148
C32	C	1.007695	0.613923	0.568148
C33	C	0.580142	0.115203	0.068155
C34	C	1.080142	0.615203	0.568155
C35	C	0.362035	0.062549	0.052168
C36	C	0.862035	0.562549	0.552168
C37	C	0.289589	0.061264	0.052158
C38	C	0.789589	0.561264	0.552158
C39	C	0.248039	0.109334	-0.000123
C40	C	0.748039	0.609334	0.499877
C41	C	0.278944	0.158677	-0.052406
C42	C	0.778944	0.658677	0.447594
C43	C	0.351391	0.159957	-0.052399
C44	C	0.851391	0.659957	0.447601
C45	C	0.392934	0.111890	-0.000103
C46	C	0.892934	0.611890	0.499897
C47	C	0.133285	0.107315	-0.068379
C48	C	0.633285	0.607315	0.431621
C49	C	0.060833	0.106049	-0.068386
C50	C	0.560833	0.606049	0.431614
C51	C	0.060788	0.106041	0.068104
C52	C	0.560788	0.606041	0.568104
C53	C	0.133238	0.107315	0.068109
C54	C	0.633238	0.607315	0.568109
C55	C	0.169482	0.107948	-0.000135
C56	C	0.669482	0.607948	0.499865
C57	C	0.825593	-0.041404	-0.000108
C58	C	1.325593	0.458596	0.499892
C59	C	0.824243	-0.133694	-0.000107
C60	C	1.324243	0.366306	0.499893
C61	C	0.884402	-0.356179	-0.000126
C62	C	1.384402	0.143821	0.499874
C63	C	0.883129	-0.442895	-0.000132
C64	C	1.383129	0.057105	0.499868
C65	C	0.756568	-0.422574	-0.000113
C66	C	1.256568	0.077426	0.499887
C67	C	0.757842	-0.335860	-0.000112
C68	C	1.257842	0.164140	0.499888
C69	C	0.821761	-0.302665	-0.000115
C70	C	1.321761	0.197335	0.499885
C71	C	0.819214	-0.476095	-0.000122
C72	C	1.319214	0.023905	0.499878
C73	C	0.817833	-0.570116	-0.000128
C74	C	1.317833	-0.070116	0.499872
C75	C	0.823142	-0.208638	-0.000110
C76	C	1.323142	0.291362	0.499890
C77	C	0.947480	0.104061	-0.000133
C78	C	1.447480	0.604061	0.499867
C79	C	1.024588	0.105404	-0.000148
C80	C	1.524588	0.605404	0.499852
C81	C	0.815382	0.262644	-0.000124
C82	C	1.315382	0.762644	0.499876
C83	C	0.816731	0.354934	-0.000130
C84	C	1.316731	0.854934	0.499870
N85	N	0.820466	0.110610	0.178040
N86	N	1.320466	0.610610	0.678040
N87	N	0.820514	0.110623	-0.178270
N88	N	1.320514	0.610623	0.321730
C89	C	0.867715	0.053934	0.217424
C90	C	1.367715	0.553934	0.717424
C91	C	0.867719	0.053930	0.296226
C92	C	1.367719	0.553930	0.796226
C93	C	0.820480	0.110617	0.335641
C94	C	1.320480	0.610617	0.835641
C95	C	0.773223	0.167297	0.296247
C96	C	1.273223	0.667297	0.796247
C97	C	0.773215	0.167294	0.217447
C98	C	1.273215	0.667294	0.717447
C99	C	0.811362	0.186371	0.460475
C100	C	1.311362	0.686371	0.960475
C101	C	0.811374	0.186376	0.539274
C102	C	1.311374	0.686376	1.039274
C103	C	0.820499	0.110627	0.578687
C104	C	1.320499	0.610627	1.078687
C105	C	0.829626	0.034870	0.539292
C106	C	1.329626	0.534870	1.039292
C107	C	0.829619	0.034867	0.460491
C108	C	1.329619	0.534867	0.960491
C109	C	0.820483	0.110626	0.421086
C110	C	1.320483	0.610626	0.921086
C111	C	0.867755	0.053942	0.703517
C112	C	1.367755	0.553942	1.203517
C113	C	0.867754	0.053937	0.782320
C114	C	1.367754	0.553937	1.282320
C115	C	0.773261	0.167311	0.782340
C116	C	1.273261	0.667311	1.282340
C117	C	0.773259	0.167309	0.703538
C118	C	1.273259	0.667309	1.203538
C119	C	0.820509	0.110625	0.664131
C120	C	1.320509	0.610625	1.164131
H121	H	0.245114	0.197824	-0.094976
H122	H	0.745114	0.697824	0.405024
H123	H	0.934137	-0.486463	-0.000143
H124	H	1.434137	0.013537	0.499857
H125	H	0.376551	0.200136	-0.094968
H126	H	0.876551	0.700136	0.405032
Br127	Br	0.672823	-0.263227	-0.000108
Br128	Br	1.172823	0.236773	0.499892
H129	H	0.906196	0.007776	0.328299
H130	H	1.406196	0.507776	0.828299
Br131	Br	0.669825	-0.467630	-0.000112
Br132	Br	1.169825	0.032370	0.499888
Br133	Br	0.709108	0.244224	0.349735
Br134	Br	1.209108	0.744224	0.849735
Br135	Br	0.709144	0.244234	0.835824
Br136	Br	1.209144	0.744234	1.335824
Br137	Br	0.931836	-0.022994	0.163944
Br138	Br	1.431836	0.477006	0.663944
H139	H	0.837048	-0.026816	0.428419
H140	H	1.337048	0.473184	0.928419
Br141	Br	0.842019	-0.067939	0.592770
Br142	Br	1.342019	0.432061	1.092770
Br143	Br	0.182363	0.108184	0.160728
Br144	Br	0.682363	0.608184	0.660728
Br145	Br	0.709086	0.244216	0.163992
Br146	Br	1.209086	0.744216	0.663992
H147	H	0.734787	0.213463	0.671469
H148	H	1.234787	0.713463	1.171469
H149	H	0.906227	0.007784	0.671431
H150	H	1.406227	0.507784	1.171431
Br151	Br	0.931876	-0.022993	0.835775
Br152	Br	1.431876	0.477007	1.335775
Br153	Br	0.798996	0.289186	0.592731
Br154	Br	1.298996	0.789186	1.092731
Br155	Br	0.799048	0.289185	0.406994
Br156	Br	1.299048	0.789185	0.906994
H157	H	0.609698	0.115710	-0.123901
H158	H	1.109698	0.615710	0.376099
H159	H	0.478266	0.113402	-0.123913
H160	H	0.978266	0.613402	0.376087
H161	H	0.031364	0.105531	-0.123959
H162	H	0.531364	0.605531	0.376041
Br163	Br	0.182478	0.108180	-0.160993
Br164	Br	0.682478	0.608180	0.339007
H165	H	0.031273	0.105520	0.123664
H166	H	0.531273	0.605520	0.623664
Br167	Br	0.629267	0.116076	0.160777
Br168	Br	1.129267	0.616076	0.660777
H169	H	0.264433	0.021082	0.094727
H170	H	0.764433	0.521082	0.594727
H171	H	0.395861	0.023403	0.094745
H172	H	0.895861	0.523403	0.594745
H173	H	0.478175	0.113399	0.123707
H174	H	0.978175	0.613399	0.623707
H175	H	0.936449	-0.329155	-0.000130
H176	H	1.436449	0.170845	0.499870
