data_functionalizedCrystal
_audit_creation_method	'MofGen! by Chris Wilmer'
_symmetry_space_group_name_H-M	'P1'
_symmetry_Int_Tables_number	1
_symmetry_cell_setting	triclinic
loop_
_symmetry_equiv_pos_as_xyz
  x,y,z
_cell_length_a	6.394989
_cell_length_b	11.026607
_cell_length_c	9.482900
_cell_angle_alpha	78.636152
_cell_angle_beta	80.390180
_cell_angle_gamma	82.458136
loop_
_atom_site_label
_atom_site_type_symbol
_atom_site_fract_x
_atom_site_fract_y
_atom_site_fract_z
O1	O	-0.853991	1.642135	-0.120875
O2	O	-0.753816	1.287297	-0.120879
O3	O	-0.501733	1.469753	-0.120878
O4	O	-1.106074	1.459679	-0.120876
O5	O	-0.553199	1.432696	0.120914
O6	O	-0.805282	1.250240	0.120913
O7	O	-0.905458	1.605078	0.120917
Cu8	Cu	-0.860069	1.424275	0.142993
Cu9	Cu	-0.799204	1.468099	-0.142955
O10	O	-1.157541	1.422622	0.120916
C11	C	-0.761068	1.223275	0.000016
C12	C	-0.705977	1.087719	0.000014
N13	N	-0.902881	1.393461	0.344113
C14	C	-0.858092	1.016240	0.000014
C15	C	-0.801156	0.876135	0.000012
C16	C	-0.448894	1.449233	0.000013
C17	C	-0.210371	1.443147	0.000011
C18	C	-0.898204	1.669100	0.000019
C19	C	-0.953293	1.804658	0.000011
N20	N	-0.756380	1.498923	-0.344074
C21	C	-0.811817	1.459002	0.416312
C22	C	-0.847457	1.433373	0.583730
H23	H	-1.030475	1.058766	0.000023
H24	H	-0.652016	1.574010	0.593802
C25	C	-0.988435	1.331928	0.667643
C26	C	-1.189073	1.366400	0.772311
C27	C	-1.330048	1.264957	0.856226
C28	C	-1.270386	1.129043	0.835472
C29	C	-1.069739	1.094565	0.730799
C30	C	-0.928764	1.196007	0.646884
H31	H	-1.233247	1.467017	0.787679
H32	H	-1.478581	1.290481	0.933712
H33	H	-1.374745	1.053950	0.897590
H34	H	-1.025565	0.993947	0.715431
H35	H	-0.780231	1.170483	0.569398
C36	C	-1.043853	1.292021	0.428032
C37	C	-1.244490	1.326493	0.532700
C38	C	-1.385465	1.225050	0.616614
C39	C	-1.325804	1.089136	0.595861
C40	C	-1.125157	1.054658	0.491187
C41	C	-0.984181	1.156100	0.407273
H42	H	-1.288664	1.427110	0.548067
H43	H	-1.533998	1.250574	0.694100
H44	H	-1.430162	1.014043	0.657979
H45	H	-1.080983	0.954040	0.475820
H46	H	-0.835649	1.130576	0.329787
H47	H	-0.628755	0.833619	-0.000026
H48	H	-1.125689	0.847177	0.000021
H49	H	-0.533588	1.045197	-0.000024
H50	H	-0.707459	1.534084	0.354185
