data_functionalizedCrystal
_audit_creation_method	'MofGen! by Chris Wilmer'
_symmetry_space_group_name_H-M	'P1'
_symmetry_Int_Tables_number	1
_symmetry_cell_setting	triclinic
loop_
_symmetry_equiv_pos_as_xyz
  x,y,z
_cell_length_a	18.426585
_cell_length_b	12.970454
_cell_length_c	12.970454
_cell_angle_alpha	59.999426
_cell_angle_beta	60.001354
_cell_angle_gamma	89.999510
loop_
_atom_site_label
_atom_site_type_symbol
_atom_site_fract_x
_atom_site_fract_y
_atom_site_fract_z
Zr1	Zr	0.699111	-0.135331	1.128564
O2	O	0.583235	-0.299953	1.343648
O3	O	0.734633	-0.084865	0.913475
O4	O	0.734634	-0.299957	1.128567
O5	O	0.583234	0.084807	1.128556
O6	O	0.854059	-0.299961	1.128574
O7	O	0.583235	-0.084861	1.128556
O8	O	0.854059	0.084799	0.743814
O9	O	0.583235	-0.299953	1.513316
O10	O	0.838909	-0.063346	1.001951
O11	O	0.749783	0.063278	1.001945
O12	O	0.749783	-0.189965	1.255188
O13	O	0.660657	-0.063341	1.255182
Zr14	Zr	0.889581	0.135262	1.128574
Zr15	Zr	0.889582	-0.135338	1.128575
Zr16	Zr	0.699111	0.135269	1.128562
Zr17	Zr	0.699111	-0.135332	1.399164
Zr18	Zr	0.889581	0.135263	0.857974
O19	O	0.854059	0.084796	1.343663
O20	O	0.854059	-0.299962	1.343665
O21	O	0.583234	0.084806	1.343646
O22	O	1.005457	0.299884	0.913489
O23	O	1.005458	-0.084875	0.913491
O24	O	0.734633	0.299893	0.913473
O25	O	1.005458	-0.084876	1.128582
O26	O	0.854059	0.299888	1.128571
O27	O	0.734633	0.299892	1.128564
O28	O	1.005458	0.084792	1.128581
O29	O	0.734634	-0.299959	1.513325
O30	O	0.854059	0.299890	0.743812
O31	O	1.005457	0.299884	0.743822
O32	O	1.005458	0.084794	0.743823
O33	O	0.583235	-0.084863	1.513315
O34	O	0.734633	-0.084868	1.513324
O35	O	0.838909	0.189896	1.001950
O36	O	0.928035	0.063272	1.001956
O37	O	0.838909	-0.063347	1.255193
O38	O	0.749783	0.063277	1.255187
C39	C	0.556097	-0.000026	1.128554
C40	C	0.475237	-0.000023	1.128550
C41	C	0.794346	-0.000033	0.790089
C42	C	0.794346	-0.000032	0.675213
C43	C	0.794346	0.338445	1.128567
C44	C	0.794346	0.453322	1.128566
C45	C	0.179122	-0.000045	1.128593
C46	C	0.261508	-0.000042	1.128587
C47	C	0.327177	-0.000035	1.128572
C48	C	0.409568	-0.000030	1.128565
C49	C	1.032596	-0.000043	1.128583
C50	C	1.113455	-0.000046	1.128588
C51	C	0.794346	-0.338514	1.128571
C52	C	0.794347	-0.453391	1.128571
C53	C	0.794346	-0.000036	1.467048
C54	C	0.794346	-0.000037	1.581925
C55	C	1.032596	-0.000041	0.790104
C56	C	1.113455	-0.000044	0.675232
C57	C	0.794346	0.338447	0.790088
C58	C	0.794346	0.453324	0.675210
C59	C	1.032595	0.338438	0.790102
C60	C	1.113455	0.453312	0.675230
C61	C	0.556097	-0.338507	1.467035
C62	C	0.475237	-0.453381	1.581908
C63	C	0.556097	-0.000028	1.467034
C64	C	0.475237	-0.000025	1.581906
C65	C	0.794347	-0.338515	1.467050
C66	C	0.794347	-0.453393	1.581927
C67	C	1.104905	-0.066149	0.621284
C68	C	1.180874	-0.066177	0.513365
C69	C	1.265392	-0.000090	0.459388
C70	C	1.273941	0.066017	0.513346
C71	C	1.197973	0.066036	0.621271
C72	C	1.197958	0.441162	0.621287
C73	C	1.273942	0.549089	0.513367
C74	C	1.265420	0.669164	0.459384
C75	C	1.180907	0.681312	0.513337
C76	C	1.104926	0.573387	0.621262
C77	C	0.390734	-0.441231	1.635863
C78	C	0.314750	-0.549157	1.743817
C79	C	0.323272	-0.669233	1.797805
C80	C	0.407785	-0.681381	1.743846
C81	C	0.483766	-0.573455	1.635902
C82	C	0.483787	0.066069	1.635864
C83	C	0.407818	0.066067	1.743814
C84	C	0.323300	-0.000023	1.797795
C85	C	0.314751	-0.066126	1.743831
C86	C	0.390719	-0.066130	1.635891
H87	H	1.036093	-0.119980	0.665232
C88	C	1.207354	0.309089	0.680657
N89	N	1.214439	0.209614	0.725374
C90	C	0.576751	0.138772	1.576512
N91	N	0.646769	0.193528	1.531822
C92	C	0.381338	-0.309158	1.576505
N93	N	0.374253	-0.209683	1.531811
H94	H	0.261396	-0.757102	1.885700
H95	H	1.173982	0.779092	0.469368
C96	C	1.011973	0.586773	0.680584
N97	N	0.941962	0.596866	0.725262
H98	H	0.414796	0.119900	1.787732
H99	H	0.261449	-0.000009	1.885686
C100	C	1.348952	-0.000115	0.340657
N101	N	1.411885	-0.000132	0.251223
C102	C	0.576719	-0.586842	1.576545
N103	N	0.646730	-0.596935	1.531841
H104	H	1.173896	-0.120009	0.469445
C105	C	1.366920	0.138717	0.453944
N106	N	1.436954	0.193483	0.409191
C107	C	1.366897	0.535698	0.454026
N108	N	1.436908	0.525608	0.409329
H109	H	1.204947	0.119875	0.665181
C110	C	0.221772	-0.138800	1.803206
N111	N	0.151738	-0.193525	1.847919
C112	C	1.349011	0.787873	0.340652
N113	N	1.411975	0.877281	0.251217
C114	C	0.221795	-0.535767	1.803150
N115	N	0.151784	-0.525677	1.847837
H116	H	0.414713	-0.779159	1.787817
H117	H	0.383745	-0.119948	1.591961
