data_functionalizedCrystal
_audit_creation_method	'MofGen! by Chris Wilmer'
_symmetry_space_group_name_H-M	'P1'
_symmetry_Int_Tables_number	1
_symmetry_cell_setting	triclinic
loop_
_symmetry_equiv_pos_as_xyz
  x,y,z
_cell_length_a	12.759401
_cell_length_b	19.805405
_cell_length_c	12.759393
_cell_angle_alpha	90.036554
_cell_angle_beta	90.019676
_cell_angle_gamma	90.026837
loop_
_atom_site_label
_atom_site_type_symbol
_atom_site_fract_x
_atom_site_fract_y
_atom_site_fract_z
Zn1	Zn	1.606181	-0.269423	0.593940
Zn2	Zn	1.606036	-0.382625	0.418242
Zn3	Zn	1.430480	-0.269457	0.418280
Zn4	Zn	1.430436	-0.382576	0.593883
O5	O	1.518283	-0.326020	0.506086
O6	O	1.753183	-0.284446	0.570642
O7	O	1.582706	-0.367648	0.271226
O8	O	1.453866	-0.174736	0.441621
O9	O	1.753076	-0.367615	0.441557
O10	O	1.582953	-0.174711	0.570678
O11	O	1.453725	-0.284504	0.271253
O12	O	1.283453	-0.284456	0.441565
O13	O	1.453791	-0.367531	0.740912
O14	O	1.283420	-0.367564	0.570581
O15	O	1.582910	-0.284398	0.740954
O16	O	1.582663	-0.477335	0.441501
O17	O	1.453650	-0.477299	0.570544
C18	C	1.245316	-0.326009	0.506071
C19	C	1.128539	-0.326020	0.506090
C20	C	1.073733	-0.282792	0.573408
C21	C	0.964009	-0.282799	0.573415
C22	C	0.963907	-0.369268	0.438783
C23	C	1.073629	-0.369257	0.438771
C24	C	1.518165	-0.501876	0.506035
C25	C	1.518210	-0.577108	0.506049
C26	C	1.585453	-0.612449	0.438927
C27	C	1.585497	-0.683137	0.438950
C28	C	1.518293	-0.718484	0.506091
C29	C	1.451048	-0.683138	0.573220
C30	C	1.451010	-0.612451	0.573202
C31	C	1.451203	-0.968211	0.573298
C32	C	1.451245	-1.038904	0.573310
C33	C	1.585691	-1.038898	0.439046
C34	C	1.585652	-0.968210	0.439028
C35	C	1.518411	-0.932871	0.506161
C36	C	1.518365	-0.856223	0.506136
C37	C	1.518334	-0.795131	0.506111
C38	C	1.792316	-0.326032	0.506102
C39	C	1.909093	-0.326038	0.506108
C40	C	1.518362	-0.325955	0.780120
C41	C	1.518395	-0.325928	0.896896
C42	C	1.518430	-0.149477	0.506160
C43	C	1.518493	-0.074245	0.506192
C44	C	1.518265	-0.326036	0.233119
C45	C	1.518435	-0.325873	0.116343
C46	C	1.585633	-0.282633	0.951782
C47	C	1.585650	-0.282604	1.061506
C48	C	1.451190	-0.369169	1.061450
C49	C	1.451168	-0.369195	0.951727
H50	H	1.118253	-0.404459	0.383947
H51	H	1.640173	-0.583674	0.384248
H52	H	0.919391	-0.247597	0.628231
O53	O	1.650847	-0.717362	0.373645
C54	C	1.710166	-0.671007	0.314394
H55	H	1.667104	-0.620644	0.310708
H56	H	1.721423	-0.691468	0.231631
H57	H	1.789937	-0.663424	0.352929
O58	O	1.386112	-1.073315	0.638593
C59	C	1.445926	-1.114125	0.706518
H60	H	1.525567	-1.124688	0.669524
H61	H	1.403157	-1.163849	0.720574
H62	H	1.457422	-1.086839	0.784381
H63	H	1.640372	-0.939433	0.384352
O64	O	1.650864	-0.240568	1.114984
C65	C	1.636486	-0.249829	1.223586
H66	H	1.555391	-0.271990	1.238550
H67	H	1.643659	-0.199118	1.265303
H68	H	1.698780	-0.285866	1.254724
H69	H	1.640370	-0.247400	0.907142
O70	O	1.385997	-0.411288	0.898288
C71	C	1.445764	-0.455031	0.834828
H72	H	1.525402	-0.431168	0.818417
H73	H	1.402949	-0.464114	0.757658
H74	H	1.457270	-0.505183	0.877089
H75	H	1.396256	-0.583677	0.627861
H76	H	1.396459	-0.404397	1.106106
H77	H	1.118438	-0.247583	0.628220
O78	O	0.910516	-0.411342	0.373551
C79	C	0.847037	-0.455100	0.433250
H80	H	0.880141	-0.459341	0.515980
H81	H	0.845749	-0.507160	0.395104
H82	H	0.763892	-0.434184	0.436940
H83	H	1.640446	-1.067679	0.384387
H84	H	1.396451	-0.939444	0.627958
O85	O	1.385621	-0.717396	0.638393
C86	C	1.280911	-0.700201	0.615322
H87	H	1.278728	-0.648900	0.574918
H88	H	1.233762	-0.697767	0.691106
H89	H	1.245571	-0.740032	0.561288
