data_functionalizedCrystal
_audit_creation_method	'MofGen! by Chris Wilmer'
_symmetry_space_group_name_H-M	'P1'
_symmetry_Int_Tables_number	1
_symmetry_cell_setting	triclinic
loop_
_symmetry_equiv_pos_as_xyz
  x,y,z
_cell_length_a	16.959455
_cell_length_b	12.594516
_cell_length_c	16.959447
_cell_angle_alpha	90.025146
_cell_angle_beta	90.014322
_cell_angle_gamma	90.013000
loop_
_atom_site_label
_atom_site_type_symbol
_atom_site_fract_x
_atom_site_fract_y
_atom_site_fract_z
Zn1	Zn	1.208406	-0.423808	0.446937
Zn2	Zn	1.208338	-0.601815	0.314770
Zn3	Zn	1.076234	-0.423841	0.314775
Zn4	Zn	1.076208	-0.601735	0.446909
O5	O	1.142297	-0.512800	0.380848
O6	O	1.319008	-0.447440	0.429415
O7	O	1.190796	-0.578253	0.204160
O8	O	1.093807	-0.274891	0.332320
O9	O	1.318958	-0.578221	0.332313
O10	O	1.190912	-0.274866	0.429419
O11	O	1.093740	-0.447497	0.204163
O12	O	0.965620	-0.447420	0.332293
O13	O	1.093762	-0.578085	0.557524
O14	O	0.965601	-0.578118	0.429371
O15	O	1.190887	-0.447363	0.557544
O16	O	1.190771	-0.750750	0.332286
O17	O	1.093696	-0.750692	0.429367
C18	C	0.936930	-0.512765	0.380830
C19	C	0.849074	-0.512775	0.380841
C20	C	0.477584	-0.444690	0.330405
C21	C	0.477613	-0.580998	0.431336
C22	C	0.560158	-0.580982	0.431332
C23	C	0.601421	-0.512821	0.380862
C24	C	0.560137	-0.444674	0.330396
C25	C	0.601448	-0.649135	0.481790
C26	C	0.683999	-0.649123	0.481787
C27	C	0.725263	-0.580955	0.431320
C28	C	0.683974	-0.512806	0.380854
C29	C	0.725237	-0.444644	0.330384
C30	C	0.683949	-0.376488	0.279920
C31	C	0.601401	-0.376507	0.279930
C32	C	0.807811	-0.580937	0.431311
C33	C	0.807790	-0.444629	0.330376
C34	C	1.142245	-0.789341	0.380840
C35	C	1.142295	-0.907646	0.380863
C36	C	1.089491	-0.976906	0.433629
C37	C	1.070239	-1.047768	0.361503
C38	C	1.161619	-1.047583	0.453001
C39	C	1.123005	-0.976950	0.308699
C40	C	1.214418	-0.976758	0.400246
C41	C	1.195194	-1.047589	0.328071
C42	C	1.348465	-0.512836	0.380866
C43	C	1.436321	-0.512851	0.380874
C44	C	1.142329	-0.512712	0.587016
C45	C	1.142343	-0.512674	0.674873
C46	C	1.142370	-0.235179	0.380873
C47	C	1.142401	-0.116873	0.380884
C48	C	1.142309	-0.512811	0.175482
C49	C	1.142448	-0.512548	0.087625
C50	C	1.091869	-0.580623	1.046340
C51	C	1.193006	-0.444501	1.046357
C52	C	1.192985	-0.444523	0.963811
C53	C	1.142406	-0.512598	0.922526
C54	C	1.091848	-0.580650	0.963787
C55	C	1.243548	-0.376480	0.922544
C56	C	1.243530	-0.376501	0.839993
C57	C	1.192946	-0.444571	0.798706
C58	C	1.142385	-0.512625	0.839972
C59	C	1.091806	-0.580699	0.798687
C60	C	1.041241	-0.648749	0.839952
C61	C	1.041265	-0.648720	0.922500
C62	C	1.192922	-0.444600	0.716158
C63	C	1.091785	-0.580726	0.716134
H64	H	0.841380	-0.389116	0.289281
H65	H	0.567778	-0.321019	0.238845
Br66	Br	0.740025	-0.741617	0.550271
H67	H	0.717556	-0.320996	0.238824
H68	H	0.841424	-0.636432	0.472394
Br69	Br	0.972650	-0.741068	0.978506
Br70	Br	1.269702	-1.098992	0.253631
H71	H	1.050698	-0.636024	1.079942
Br72	Br	0.421614	-0.673525	0.499808
H73	H	1.275348	-0.945547	0.416658
H74	H	0.443964	-0.389196	0.289321
H75	H	1.284732	-0.321064	0.956164
Br76	Br	1.188787	-1.099305	0.554666
Br77	Br	0.545447	-0.741674	0.550251
Br78	Br	1.261654	-0.352129	1.102387
Br79	Br	1.014936	-0.925174	0.507897
H80	H	1.050590	-0.636152	0.682525
Br81	Br	1.312151	-0.284149	0.783998
H82	H	1.234094	-0.389198	0.682564
H83	H	1.009295	-1.078983	0.345126
Br84	Br	1.095722	-0.925460	0.207001
Br85	Br	0.972607	-0.741141	0.783912
