data_functionalizedCrystal
_audit_creation_method	'MofGen! by Chris Wilmer'
_symmetry_space_group_name_H-M	'P1'
_symmetry_Int_Tables_number	1
_symmetry_cell_setting	triclinic
loop_
_symmetry_equiv_pos_as_xyz
  x,y,z
_cell_length_a	15.021413
_cell_length_b	19.288864
_cell_length_c	19.288865
_cell_angle_alpha	83.136245
_cell_angle_beta	89.985874
_cell_angle_gamma	89.980256
loop_
_atom_site_label
_atom_site_type_symbol
_atom_site_fract_x
_atom_site_fract_y
_atom_site_fract_z
O1	O	0.074328	-0.921349	-0.086652
O2	O	0.574328	-0.421349	0.413348
O3	O	0.074268	-0.719089	-0.098340
O4	O	0.574268	-0.219089	0.401660
O5	O	0.074282	-0.826063	0.008634
O6	O	0.574282	-0.326063	0.508634
O7	O	0.074314	-0.814375	-0.193626
O8	O	0.574314	-0.314375	0.306374
O9	O	-0.073782	-0.826052	0.008646
O10	O	0.426218	-0.326052	0.508646
O11	O	-0.073796	-0.719078	-0.098329
O12	O	0.426204	-0.219078	0.401671
O13	O	-0.073737	-0.921338	-0.086640
O14	O	0.426263	-0.421338	0.413360
Zn15	Zn	-0.097275	-0.820206	-0.092483
Zn16	Zn	0.402725	-0.320206	0.407517
Zn17	Zn	0.097806	-0.820221	-0.092498
Zn18	Zn	0.597806	-0.320221	0.407502
O19	O	-0.073750	-0.814363	-0.193615
O20	O	0.426250	-0.314363	0.306385
C21	C	0.000228	-0.693207	-0.097959
C22	C	0.500228	-0.193207	0.402041
C23	C	0.000205	-0.616103	-0.096830
C24	C	0.500205	-0.116103	0.403170
N25	N	-0.230412	-0.820201	-0.092472
N26	N	0.269588	-0.320201	0.407528
N27	N	0.230944	-0.820231	-0.092503
N28	N	0.730944	-0.320231	0.407497
C29	C	0.470604	-0.869794	-0.043106
C30	C	0.970604	-0.369794	0.456894
C31	C	0.529987	-0.882917	-0.105871
C32	C	1.029987	-0.382917	0.394129
C33	C	0.412551	-0.820221	-0.092494
C34	C	0.912551	-0.320221	0.407506
C35	C	0.529910	-0.807120	-0.029720
C36	C	1.029910	-0.307120	0.470280
C37	C	0.587975	-0.820213	-0.092480
C38	C	1.087975	-0.320213	0.407520
C39	C	0.470627	-0.833376	-0.155291
C40	C	0.970627	-0.333376	0.344709
C41	C	0.470544	-0.757552	-0.079099
C42	C	0.970544	-0.257552	0.420901
C43	C	0.529901	-0.770649	-0.141909
C44	C	1.029901	-0.270649	0.358091
C45	C	0.311493	-0.820228	-0.092501
C46	C	0.811493	-0.320228	0.407499
C47	C	0.689030	-0.820206	-0.092480
C48	C	1.189030	-0.320206	0.407520
C49	C	0.000247	-0.825682	0.034516
C50	C	0.500247	-0.325682	0.534516
C51	C	0.000239	-0.824553	0.111620
C52	C	0.500239	-0.324553	0.611620
C53	C	0.000305	-0.947220	-0.087022
C54	C	0.500305	-0.447220	0.412978
C55	C	0.000335	-1.024324	-0.088151
C56	C	0.500335	-0.524324	0.411849
C57	C	0.000229	-0.571407	-0.159598
C58	C	0.500229	-0.071407	0.340402
C59	C	0.000238	-0.498960	-0.158537
C60	C	0.500238	0.001040	0.341463
C61	C	0.000242	-0.471212	-0.094705
C62	C	0.500242	0.028788	0.405295
C63	C	0.000213	-0.515918	-0.031929
C64	C	0.500213	-0.015918	0.468071
C65	C	0.000194	-0.588364	-0.032991
C66	C	0.500194	-0.088364	0.467009
C67	C	0.052137	-0.362954	-0.044530
C68	C	0.552137	0.137046	0.455470
C69	C	0.052161	-0.290510	-0.043470
C70	C	0.552161	0.209490	0.456530
C71	C	0.000295	-0.247767	-0.091425
C72	C	0.500295	0.252233	0.408575
C73	C	-0.051584	-0.277475	-0.140452
C74	C	0.448416	0.222525	0.359548
C75	C	-0.051602	-0.349921	-0.141515
C76	C	0.448398	0.150079	0.358485
C77	C	0.000262	-0.392658	-0.093546
C78	C	0.500262	0.107342	0.406454
C79	C	0.000328	-0.124514	-0.153047
C80	C	0.500328	0.375486	0.346953
C81	C	0.000333	-0.052066	-0.151984
C82	C	0.500333	0.447934	0.348016
C83	C	0.000316	-0.069026	-0.025374
C84	C	0.500316	0.430974	0.474626
C85	C	0.000303	-0.141473	-0.026439
C86	C	0.500303	0.358527	0.473561
C87	C	0.000313	-0.169212	-0.090278
C88	C	0.500313	0.330788	0.409722
C89	C	0.000286	-0.814745	-0.219497
C90	C	0.500286	-0.314745	0.280503
C91	C	0.000300	-0.815874	-0.296601
C92	C	0.500300	-0.315874	0.203399
C93	C	0.000253	-0.887321	0.156316
C94	C	0.500253	-0.387321	0.656316
C95	C	0.000267	-0.886260	0.228763
C96	C	0.500267	-0.386260	0.728763
C97	C	0.000249	-0.822428	0.256511
C98	C	0.500249	-0.322428	0.756511
C99	C	0.000240	-0.759652	0.211805
C100	C	0.500240	-0.259652	0.711805
C101	C	0.000235	-0.760714	0.139359
C102	C	0.500235	-0.260714	0.639359
C103	C	-0.051630	-0.772244	0.364802
C104	C	0.448370	-0.272244	0.864802
C105	C	-0.051630	-0.771184	0.437247
C106	C	0.448370	-0.271184	0.937247
C107	C	0.000268	-0.819148	0.479956
C108	C	0.500268	-0.319148	0.979956
C109	C	0.052155	-0.868183	0.450214
C110	C	0.552155	-0.368183	0.950214
C111	C	0.052150	-0.869246	0.377769
C112	C	0.552150	-0.369246	0.877769
C113	C	0.000254	-0.821269	0.335065
C114	C	0.500254	-0.321269	0.835065
C115	C	0.000298	-0.880770	0.603209
C116	C	0.500298	-0.380770	1.103209
C117	C	0.000317	-0.879707	0.675657
C118	C	0.500317	-0.379707	1.175657
C119	C	0.000281	-0.753097	0.658697
C120	C	0.500281	-0.253097	1.158697
C121	C	0.000271	-0.754162	0.586250
C122	C	0.500271	-0.254162	1.086250
C123	C	0.000275	-0.818000	0.558511
C124	C	0.500275	-0.318000	1.058511
H125	H	0.444569	-0.911746	-0.001393
H126	H	0.944569	-0.411746	0.498607
H127	H	0.000260	-0.939303	0.133736
H128	H	0.500260	-0.439303	0.633736
Br129	Br	-0.121976	-0.219476	-0.205542
Br130	Br	0.378024	0.280524	0.294458
H131	H	0.556097	-0.935912	-0.117200
H132	H	1.056097	-0.435912	0.382800
Br133	Br	0.573029	-0.700766	-0.211584
Br134	Br	1.073029	-0.200766	0.288416
H135	H	0.444695	-0.844511	-0.208386
H136	H	0.944695	-0.344511	0.291614
Br137	Br	0.426992	-0.669249	-0.060185
Br138	Br	0.926992	-0.169249	0.439815
H139	H	0.555952	-0.796042	0.023361
H140	H	1.055952	-0.296042	0.523361
Br141	Br	0.122580	-0.250196	0.023057
Br142	Br	0.622580	0.249804	0.523057
Br143	Br	0.000251	-0.668972	0.525587
Br144	Br	0.500251	-0.168972	1.025587
Br145	Br	0.000290	-0.971451	0.289434
Br146	Br	0.500290	-0.471451	0.789434
Br147	Br	0.000295	-0.967406	0.565558
Br148	Br	0.500295	-0.467406	1.065558
Br149	Br	-0.122007	-0.390239	-0.208046
Br150	Br	0.377993	0.109761	0.291954
Br151	Br	0.122569	-0.935787	0.337405
Br152	Br	0.622569	-0.435787	0.837405
H153	H	-0.093875	-0.731254	0.461456
H154	H	0.406125	-0.231254	0.961456
Br155	Br	0.000160	-0.649028	0.052201
Br156	Br	0.500160	-0.149028	0.552201
H157	H	0.000239	-0.593987	-0.211580
H158	H	0.500239	-0.093987	0.288420
Br159	Br	0.000265	-0.438288	-0.243728
Br160	Br	0.500265	0.061712	0.256272
H161	H	0.000324	-0.147101	-0.205028
H162	H	0.500324	0.352899	0.294972
Br163	Br	0.000357	0.008596	-0.237177
Br164	Br	0.500357	0.508596	0.262823
Br165	Br	0.000306	-0.031377	0.061257
Br166	Br	0.500306	0.468623	0.561257
Br167	Br	-0.122070	-0.707145	0.306846
Br168	Br	0.377930	-0.207145	0.806846
H169	H	0.000227	-0.707679	0.234401
H170	H	0.500227	-0.207679	0.734401
H171	H	0.000270	-0.701123	0.681288
H172	H	0.500270	-0.201123	1.181288
Br173	Br	0.000273	-0.202136	0.058751
Br174	Br	0.500273	0.297864	0.558751
H175	H	0.094378	-0.397750	-0.005477
H176	H	0.594378	0.102250	0.494523
H177	H	0.000228	-0.493322	0.020044
H178	H	0.500228	0.006678	0.520044
H179	H	0.094416	-0.907240	0.484988
H180	H	0.594416	-0.407240	0.984988
H181	H	0.000334	-0.930822	0.712049
H182	H	0.500334	-0.430822	1.212049
H183	H	0.000223	-0.709599	0.102967
H184	H	0.500223	-0.209599	0.602967
