data_functionalizedCrystal
_audit_creation_method	'MofGen! by Chris Wilmer'
_symmetry_space_group_name_H-M	'P1'
_symmetry_Int_Tables_number	1
_symmetry_cell_setting	triclinic
loop_
_symmetry_equiv_pos_as_xyz
  x,y,z
_cell_length_a	14.853567
_cell_length_b	19.188930
_cell_length_c	13.930277
_cell_angle_alpha	89.990320
_cell_angle_beta	89.995755
_cell_angle_gamma	83.389856
loop_
_atom_site_label
_atom_site_type_symbol
_atom_site_fract_x
_atom_site_fract_y
_atom_site_fract_z
O1	O	1.195862	0.091155	-0.079776
O2	O	0.933342	0.102014	-0.079794
O3	O	1.072177	-0.005046	-0.079766
O4	O	1.057026	0.198215	-0.079804
O5	O	1.072158	-0.005048	0.079896
O6	O	0.933322	0.102012	0.079868
O7	O	1.195842	0.091153	0.079886
Zn8	Zn	1.064579	0.096582	0.105227
Zn9	Zn	1.064605	0.096585	-0.105135
O10	O	1.057007	0.198213	0.079858
C11	C	0.899746	0.101521	0.000035
C12	C	0.799671	0.100046	0.000029
C13	C	1.071677	-0.031060	0.000068
C14	C	1.070204	-0.108569	0.000076
C15	C	0.387525	0.030218	0.000064
C16	C	0.365537	0.157407	0.000039
C17	C	0.459563	0.158794	0.000036
C18	C	0.517574	0.095891	0.000045
C19	C	0.481560	0.031602	0.000058
C20	C	0.495585	0.223081	0.000013
C21	C	0.589616	0.224470	0.000009
C22	C	0.647629	0.161567	0.000025
C23	C	0.611610	0.097276	0.000039
C24	C	0.669621	0.034373	0.000048
C25	C	0.633603	-0.029919	0.000069
C26	C	0.539574	-0.031301	0.000074
C27	C	0.741659	0.162949	0.000020
C28	C	0.763656	0.035757	0.000042
C29	C	1.151668	-0.153221	0.000086
C30	C	1.150285	-0.226050	0.000071
C31	C	1.067432	-0.254223	0.000065
C32	C	0.985957	-0.209561	0.000049
C33	C	0.987343	-0.136734	0.000055
N34	N	1.004095	-0.362440	0.054396
N35	N	1.002783	-0.431623	0.054393
C36	C	1.063251	-0.473645	0.000045
N37	N	1.125093	-0.443873	-0.054287
N38	N	1.126407	-0.374684	-0.054279
C39	C	1.065920	-0.333190	0.000058
C40	C	1.143220	-0.597267	0.000037
C41	C	1.141833	-0.670096	0.000015
C42	C	0.977503	-0.653606	0.000003
C43	C	0.978893	-0.580778	0.000015
C44	C	1.061754	-0.552613	0.000036
C45	C	1.229438	0.091646	0.000055
C46	C	1.329513	0.093120	0.000055
C47	C	1.057507	0.224226	0.000022
C48	C	1.058980	0.301736	0.000008
N49	N	1.064569	0.096579	0.248793
N50	N	1.064623	0.096582	-0.248701
C51	C	1.003126	0.143972	0.701050
C52	C	1.126108	0.049192	0.701044
C53	C	1.126098	0.049190	0.600548
C54	C	1.064601	0.096580	0.550299
C55	C	1.003115	0.143973	0.600545
C56	C	1.187588	0.001803	0.550295
C57	C	1.187581	0.001799	0.449793
C58	C	1.126079	0.049187	0.399541
C59	C	1.064590	0.096581	0.449794
C60	C	1.003094	0.143971	0.399544
C61	C	0.941600	0.191363	0.449794
C62	C	0.941614	0.191361	0.550293
C63	C	1.126065	0.049189	0.299043
C64	C	1.003083	0.143972	0.299039
H65	H	0.810884	-0.015466	0.000053
C66	C	0.935490	0.196101	0.756319
H67	H	0.944304	0.189318	0.823370
H68	H	0.875355	0.188434	0.739858
H69	H	0.945100	0.242715	0.739835
C70	C	0.873959	0.243493	0.394518
H71	H	0.837340	0.271721	0.438833
H72	H	0.836536	0.218323	0.355319
H73	H	0.906279	0.272605	0.355307
H74	H	0.910043	-0.676543	-0.000007
C75	C	1.255233	-0.050315	0.394522
H76	H	1.246430	-0.043522	0.327471
H77	H	1.245654	-0.096933	0.410997
H78	H	1.315364	-0.042625	0.410987
H79	H	0.921003	-0.100377	0.000047
H80	H	0.912556	-0.544421	0.000012
C81	C	0.935437	0.196104	0.243772
H82	H	0.898823	0.224329	0.288094
H83	H	0.898009	0.170937	0.204575
H84	H	0.967752	0.225220	0.204560
H85	H	0.318299	0.208620	0.000023
H86	H	0.510239	-0.083644	0.000114
C87	C	1.231446	-0.719218	0.000015
H88	H	1.218755	-0.766625	-0.000005
H89	H	1.265427	-0.710684	0.055697
H90	H	1.265436	-0.710656	-0.055665
H91	H	1.219140	-0.130295	0.000100
C92	C	0.873986	0.243491	0.605569
H93	H	0.882810	0.236708	0.672619
H94	H	0.813847	0.235827	0.589120
H95	H	0.883597	0.290104	0.589083
H96	H	0.918498	-0.232504	0.000042
H97	H	1.216625	-0.262413	0.000075
C98	C	1.193749	-0.002933	0.756316
H99	H	1.184946	0.003852	0.823366
H100	H	1.253882	0.004732	0.739830
H101	H	1.184135	-0.049547	0.739862
C102	C	0.431774	0.292267	0.000007
H103	H	0.370615	0.282233	0.000027
H104	H	0.442659	0.318628	-0.055676
H105	H	0.442669	0.318621	0.055686
C106	C	1.193699	-0.002932	0.243767
H107	H	1.184888	0.003857	0.176716
H108	H	1.184105	-0.049545	0.260252
H109	H	1.253837	0.004746	0.260221
C110	C	1.234362	-0.566282	0.000049
H111	H	1.282682	-0.603309	0.000039
H112	H	1.238313	-0.538226	0.055731
H113	H	1.238323	-0.538205	-0.055631
H114	H	0.358195	-0.022127	0.000085
C115	C	0.697421	-0.099108	0.000079
H116	H	0.758578	-0.089070	0.000076
H117	H	0.686531	-0.125468	-0.055588
H118	H	0.686536	-0.125463	0.055774
C119	C	0.629228	0.295187	-0.000001
H120	H	0.581211	0.332450	0.000002
H121	H	0.665459	0.298376	-0.055676
H122	H	0.665445	0.298367	0.055686
H123	H	0.770981	0.215294	0.000005
H124	H	1.237662	-0.036778	0.591211
