data_functionalizedCrystal
_audit_creation_method	'MofGen! by Chris Wilmer'
_symmetry_space_group_name_H-M	'P1'
_symmetry_Int_Tables_number	1
_symmetry_cell_setting	triclinic
loop_
_symmetry_equiv_pos_as_xyz
  x,y,z
_cell_length_a	14.560438
_cell_length_b	20.875641
_cell_length_c	14.560438
_cell_angle_alpha	89.999936
_cell_angle_beta	60.000095
_cell_angle_gamma	57.586733
loop_
_atom_site_label
_atom_site_type_symbol
_atom_site_fract_x
_atom_site_fract_y
_atom_site_fract_z
Zr1	Zr	0.937922	0.641433	-0.086858
O2	O	1.140709	0.535098	-0.239095
O3	O	0.742885	0.674036	-0.040187
O4	O	0.934500	0.674024	-0.231795
O5	O	0.949091	0.535113	0.103655
O6	O	0.922984	0.783605	-0.226040
O7	O	0.949094	0.535110	-0.047486
O8	O	0.580220	0.783627	0.116712
O9	O	1.291855	0.535091	-0.239098
O10	O	0.811642	0.769713	-0.015990
O11	O	0.820234	0.687936	0.092509
O12	O	1.045836	0.687922	-0.133085
O13	O	1.054427	0.606145	-0.024585
Zr14	Zr	0.919552	0.816207	0.163373
Zr15	Zr	0.919556	0.816202	-0.077680
Zr16	Zr	0.937917	0.641438	0.154194
Zr17	Zr	1.178983	0.641422	-0.086863
Zr18	Zr	0.678491	0.816217	0.163378
O19	O	1.114589	0.783603	0.116701
O20	O	1.114595	0.783597	-0.226044
O21	O	1.140703	0.535104	0.103651
O22	O	0.716765	0.922542	0.315609
O23	O	0.716771	0.922536	-0.027136
O24	O	0.742878	0.674043	0.302559
O25	O	0.908382	0.922527	-0.027140
O26	O	0.922974	0.783615	0.308310
O27	O	0.934490	0.674034	0.302555
O28	O	0.908379	0.922530	0.124001
O29	O	1.277257	0.674009	-0.231802
O30	O	0.580217	0.783630	0.308317
O31	O	0.565618	0.922549	0.315612
O32	O	0.565622	0.922545	0.124008
O33	O	1.291852	0.535095	-0.047494
O34	O	1.277253	0.674013	-0.040198
O35	O	0.811638	0.769718	0.209599
O36	O	0.803046	0.851495	0.101099
O37	O	1.037240	0.769703	-0.015995
O38	O	1.045831	0.687926	0.092505
C39	C	0.627207	0.728833	0.038263
C40	C	0.524870	0.728838	0.038266
C41	C	0.291035	0.789186	0.124692
C42	C	0.387168	0.789206	0.124699
C43	C	0.566439	0.668450	-0.048186
C44	C	0.470306	0.668434	-0.048196
C45	C	0.951709	0.510210	0.026776
C46	C	0.959506	0.436016	0.022880
C47	C	0.840926	0.443852	0.082165
C48	C	0.848260	0.374136	0.078502
C49	C	0.974175	0.296585	0.015545
C50	C	1.092765	0.288751	-0.043742
C51	C	1.085429	0.358466	-0.040071
C52	C	1.009222	0.083505	-0.001982
C53	C	1.016548	0.013788	-0.005651
C54	C	0.772042	0.099178	0.116595
C55	C	0.764718	0.168890	0.120255
C56	C	0.883307	0.161051	0.060972
N57	N	0.981675	0.225323	0.011796
N58	N	0.875806	0.232312	0.064729
C59	C	1.230267	0.728807	0.038251
C60	C	1.332604	0.728802	0.038249
C61	C	0.928743	0.728814	-0.263263
C62	C	0.928744	0.728812	-0.365596
C63	C	0.905764	0.947429	0.049738
C64	C	0.897967	1.021623	0.053634
C65	C	1.050989	0.686119	-0.474794
C66	C	1.050982	0.686129	-0.570942
C67	C	0.806475	0.771526	-0.448680
C68	C	0.806483	0.771521	-0.352534
C69	C	0.928731	0.728825	0.339777
C70	C	0.928729	0.728827	0.442110
C71	C	0.604234	0.947443	0.049744
C72	C	0.494101	1.021641	0.053643
C73	C	0.627201	0.728839	0.339783
C74	C	0.524862	0.728845	0.442118
C75	C	0.604228	0.947448	0.351264
C76	C	0.494093	1.021649	0.457496
C77	C	1.253245	0.510191	-0.274750
C78	C	1.363381	0.435991	-0.380981
C79	C	1.253240	0.510197	0.026770
C80	C	1.363373	0.435998	0.022871
C81	C	1.230273	0.728801	-0.263269
C82	C	1.332611	0.728795	-0.365604
C83	C	0.446868	1.013797	-0.005656
C84	C	0.343400	1.083508	-0.002016
C85	C	0.287160	1.161062	0.060931
C86	C	0.334402	1.168905	0.120231
C87	C	0.437875	1.099195	0.116584
C88	C	0.437887	1.099188	0.450748
C89	C	0.334416	1.168914	0.550555
C90	C	0.287146	1.161099	0.657109
C91	C	0.343363	1.083551	0.663854
C92	C	0.446838	1.013827	0.564048
C93	C	1.419599	0.358452	-0.374233
C94	C	1.523100	0.288726	-0.474040
C95	C	1.570374	0.296541	-0.580594
C96	C	1.514151	0.374089	-0.587340
C97	C	1.410659	0.443813	-0.487534
C98	C	1.410616	0.443843	0.082160
C99	C	1.514111	0.374132	0.078493
C100	C	1.570354	0.296578	0.015544
C101	C	1.523107	0.288735	-0.043752
C102	C	1.419621	0.358445	-0.040091
C103	C	0.472295	0.771536	0.551315
C104	C	0.376147	0.771533	0.647466
C105	C	0.385139	0.686146	0.525209
C106	C	0.481292	0.686145	0.429060
H107	H	0.738391	0.506994	0.133436
H108	H	0.678565	0.619300	-0.118566
H109	H	1.552656	0.380442	-0.674108
N110	N	0.175532	1.236300	0.764759
H111	H	0.205474	1.269851	0.766558
H112	H	0.092268	1.269789	0.766489
H113	H	0.178914	0.838342	0.195080
N114	N	0.519293	0.817584	0.565406
H115	H	0.619930	0.778430	0.526080
H116	H	0.497950	0.860546	0.530417
N117	N	0.507507	0.930156	-0.073550
H118	H	0.607273	0.899319	-0.134416
H119	H	0.493903	0.899402	-0.021084
N120	N	0.674626	0.817567	-0.234747
H121	H	0.693185	0.811085	-0.175822
H122	H	0.616928	0.877269	-0.222700
H123	H	0.202905	1.217818	0.063892
H124	H	0.751699	0.380523	0.126780
N125	N	0.342334	0.854338	0.217929
H126	H	0.240514	0.892576	0.272685
H127	H	0.381374	0.827947	0.260216
N128	N	0.515154	0.603297	-0.141441
H129	H	0.482319	0.571570	-0.106784
H130	H	0.476202	0.629688	-0.183785
N131	N	1.368641	0.350007	-0.259318
H132	H	1.294547	0.405938	-0.197103
H133	H	1.332071	0.319174	-0.252031
N134	N	1.182848	0.640061	-0.488876
H135	H	1.260287	0.613019	-0.572645
H136	H	1.183862	0.679256	-0.449487
N137	N	0.488807	1.107667	0.180549
H138	H	0.588167	1.080648	0.125137
H139	H	0.437373	1.167393	0.220969
H140	H	0.662184	0.232032	0.171499
H141	H	0.675493	0.105551	0.164860
H142	H	1.568859	0.225590	-0.468526
N143	N	1.152363	-0.069860	-0.073564
H144	H	1.226377	-0.064249	-0.110563
H145	H	1.160725	-0.100649	-0.021124
N146	N	1.565069	0.382605	0.142436
H147	H	1.639178	0.326681	0.130557
H148	H	1.601628	0.413440	0.113122
N149	N	1.182819	0.640083	-0.688729
H150	H	1.183942	0.679243	-0.729177
H151	H	1.260205	0.613027	-0.682331
N152	N	1.228576	0.205110	-0.111635
H153	H	1.215232	0.162133	-0.104967
H154	H	1.280686	0.198652	-0.194313
H155	H	1.181990	0.352081	-0.088334
H156	H	1.364887	0.506947	-0.493041
N157	N	1.137122	0.075047	-0.065941
H158	H	1.217998	0.015339	-0.106389
H159	H	1.139389	0.102115	-0.123705
H160	H	0.706935	0.806296	-0.438060
N161	N	1.349967	0.527485	0.150059
H162	H	1.395617	0.521865	0.187052
H163	H	1.363465	0.558265	0.097609
H164	H	0.304948	1.077106	-0.050306
N165	N	0.273727	1.252553	0.188138
H166	H	0.346384	1.259096	0.157611
H167	H	0.200993	1.295469	0.181431
N168	N	0.488846	1.107629	0.335830
H169	H	0.437528	1.167335	0.346717
H170	H	0.588218	1.080556	0.291940
N171	N	0.273793	1.252547	0.543265
H172	H	0.319435	1.246912	0.460617
H173	H	0.174031	1.283341	0.582215
H174	H	0.304860	1.077200	0.750624
H175	H	0.492589	0.950694	0.569558
N176	N	1.681997	0.221335	-0.688238
H177	H	1.710427	0.171030	-0.667784
H178	H	1.648462	0.221369	-0.734474
N179	N	1.681970	0.221394	0.011600
H180	H	1.703354	0.238139	0.058718
H181	H	1.651958	0.187872	0.043327
N182	N	1.368648	0.349983	-0.104023
H183	H	1.382532	0.376998	-0.161861
H184	H	1.420005	0.290259	-0.144379
N185	N	1.583754	0.205085	-0.111624
H186	H	1.656466	0.162121	-0.104927
H187	H	1.510985	0.198639	-0.081022
H188	H	0.333352	0.806295	0.736375
H189	H	0.349650	0.651383	0.514591
H190	H	0.524097	0.651377	0.340141
