data_functionalizedCrystal
_audit_creation_method	'MofGen! by Chris Wilmer'
_symmetry_space_group_name_H-M	'P1'
_symmetry_Int_Tables_number	1
_symmetry_cell_setting	triclinic
loop_
_symmetry_equiv_pos_as_xyz
  x,y,z
_cell_length_a	13.032831
_cell_length_b	12.594516
_cell_length_c	13.032268
_cell_angle_alpha	82.848693
_cell_angle_beta	89.113023
_cell_angle_gamma	82.816889
loop_
_atom_site_label
_atom_site_type_symbol
_atom_site_fract_x
_atom_site_fract_y
_atom_site_fract_z
Zn1	Zn	1.498550	-0.718827	0.780858
Zn2	Zn	1.520308	-0.877413	0.608883
Zn3	Zn	1.348404	-0.674363	0.587098
Zn4	Zn	1.326556	-0.871658	0.759008
O5	O	1.423454	-0.785565	0.683962
O6	O	1.645359	-0.760881	0.776307
O7	O	1.515754	-0.834278	0.462076
O8	O	1.368359	-0.531324	0.612827
O9	O	1.661344	-0.877393	0.649958
O10	O	1.478671	-0.563992	0.755182
O11	O	1.389457	-0.685098	0.446070
O12	O	1.201583	-0.679517	0.591641
O13	O	1.331122	-0.867585	0.905824
O14	O	1.185531	-0.824469	0.717943
O15	O	1.457485	-0.755301	0.921877
O16	O	1.494568	-1.025587	0.628771
O17	O	1.352219	-1.021359	0.739067
C18	C	1.156239	-0.746545	0.650057
C19	C	1.041921	-0.729880	0.635577
C20	C	0.983051	-0.794263	0.691519
C21	C	0.864896	-0.777041	0.676555
C22	C	1.423409	-1.062097	0.683938
C23	C	1.423479	-1.180416	0.683974
C24	C	1.500973	-1.251950	0.624067
C25	C	1.514180	-1.336910	0.721120
C26	C	1.410394	-1.306281	0.586998
C27	C	1.436728	-1.263831	0.781082
C28	C	1.332906	-1.233181	0.646891
C29	C	1.346069	-1.318112	0.744004
C30	C	1.691713	-0.824739	0.718000
C31	C	1.806028	-0.841432	0.732505
C32	C	1.389439	-0.815761	0.952210
C33	C	1.374944	-0.828628	1.066522
C34	C	1.423525	-0.507960	0.684012
C35	C	1.423555	-0.389661	0.684033
C36	C	1.457397	-0.755419	0.416765
C37	C	1.472091	-0.742281	0.302479
C38	C	1.431004	-0.778809	1.125428
C39	C	1.416023	-0.792107	1.243575
H40	H	0.827828	-0.709161	0.617582
H41	H	0.843094	-0.909303	0.791488
H42	H	1.590807	-1.381932	0.752516
Cl43	Cl	0.984692	-0.625084	0.544529
H44	H	1.447741	-1.244837	0.863177
H45	H	1.020123	-0.862130	0.750496
H46	H	1.566510	-1.222844	0.573460
Cl47	Cl	1.244926	-1.362788	0.822359
H48	H	1.531175	-0.689773	1.265449
H49	H	1.256305	-1.188137	0.615470
Cl50	Cl	1.283712	-0.909676	1.123692
Cl51	Cl	1.393254	-1.335805	0.460341
H52	H	1.490085	-0.726308	1.088392
Cl53	Cl	1.324787	-0.873158	1.300741
