data_functionalizedCrystal
_audit_creation_method	'MofGen! by Chris Wilmer'
_symmetry_space_group_name_H-M	'P1'
_symmetry_Int_Tables_number	1
_symmetry_cell_setting	triclinic
loop_
_symmetry_equiv_pos_as_xyz
  x,y,z
_cell_length_a	14.446369
_cell_length_b	14.628931
_cell_length_c	14.628931
_cell_angle_alpha	60.000000
_cell_angle_beta	89.998626
_cell_angle_gamma	60.000886
loop_
_atom_site_label
_atom_site_type_symbol
_atom_site_fract_x
_atom_site_fract_y
_atom_site_fract_z
Zr1	Zr	0.891719	1.000629	-0.120010
O2	O	0.743918	1.191327	-0.265963
O3	O	0.937029	0.809925	-0.075267
O4	O	0.937028	1.000631	-0.265973
O5	O	0.743919	1.000621	0.075175
O6	O	1.089357	1.000640	-0.265981
O7	O	0.743918	1.000621	-0.075257
O8	O	1.089358	0.659501	0.075157
O9	O	0.743917	1.341759	-0.265964
O10	O	1.070034	0.888373	-0.056191
O11	O	0.956353	0.888366	0.056080
O12	O	0.956352	1.112898	-0.168451
O13	O	0.842671	1.112892	-0.056180
Zr14	Zr	1.134667	1.000642	0.119899
Zr15	Zr	1.134666	1.000642	-0.120023
Zr16	Zr	0.891720	1.000629	0.119912
Zr17	Zr	0.891719	1.240551	-0.120010
Zr18	Zr	1.134667	0.760720	0.119899
O19	O	1.089357	1.191346	0.075156
O20	O	1.089357	1.191346	-0.265982
O21	O	0.743918	1.191327	0.075174
O22	O	1.282469	0.809944	0.265852
O23	O	1.282468	0.809944	-0.075285
O24	O	0.937030	0.809925	0.265870
O25	O	1.282468	1.000650	-0.075286
O26	O	1.089358	1.000640	0.265862
O27	O	0.937029	1.000631	0.265870
O28	O	1.282468	1.000650	0.075146
O29	O	0.937027	1.341770	-0.265974
O30	O	1.089359	0.659501	0.265863
O31	O	1.282469	0.659512	0.265852
O32	O	1.282469	0.659512	0.075147
O33	O	0.743918	1.341759	-0.075258
O34	O	0.937028	1.341770	-0.075268
O35	O	1.070034	0.888373	0.168340
O36	O	1.183715	0.888379	0.056068
O37	O	1.070033	1.112904	-0.056192
O38	O	0.956352	1.112898	0.056080
C39	C	1.013194	0.700530	-0.000055
C40	C	1.013194	0.598676	-0.000055
C41	C	0.933441	0.632022	-0.078810
C42	C	0.933440	0.526754	-0.078812
C43	C	0.709304	1.000619	-0.000040
C44	C	0.606166	1.000613	-0.000034
C45	C	0.531184	0.859020	0.070401
C46	C	0.638513	0.858924	0.070805
C47	C	0.531607	1.070951	0.051613
C48	C	0.424748	1.070052	0.052122
C49	C	0.423174	1.072968	-0.122230
C50	C	0.531845	1.070300	-0.122030
C51	C	1.317083	1.000652	-0.000072
C52	C	1.420220	1.000657	-0.000077
C53	C	1.013193	1.000635	-0.300161
C54	C	1.013192	1.000635	-0.402014
C55	C	1.013193	1.300741	-0.000056
C56	C	1.013192	1.402594	-0.000056
C57	C	1.092945	1.000640	-0.447427
C58	C	1.092946	1.000640	-0.552698
C59	C	1.013194	1.000635	0.300050
C60	C	1.013194	1.000635	0.401903
C61	C	1.317083	0.700546	-0.000071
C62	C	1.420221	0.598698	-0.000076
C63	C	1.013194	0.700530	0.300050
C64	C	1.013195	0.598676	0.401903
C65	C	1.317084	0.700546	0.300034
C66	C	1.420221	0.598698	0.401882
C67	C	0.709302	1.300725	-0.300145
C68	C	0.606165	1.402572	-0.401993
C69	C	0.709303	1.300725	-0.000040
C70	C	0.606166	1.402572	-0.000035
C71	C	1.013192	1.300741	-0.300161
C72	C	1.013191	1.402594	-0.402015
C73	C	1.409809	0.553289	-0.055767
C74	C	1.516406	0.448024	-0.055774
C75	C	1.069589	0.553270	0.503001
C76	C	1.069590	0.448000	0.608273
C77	C	1.522597	0.553295	0.391595
C78	C	1.629196	0.448030	0.496858
H79	H	0.865158	0.555128	-0.146235
F80	F	0.498475	1.205419	-0.196437
H81	H	0.865167	0.738505	-0.146238
F82	F	0.708813	0.786337	0.188589
F83	F	1.535019	0.547664	0.062233
F84	F	0.950092	0.453615	0.484634
H85	H	1.411493	0.559644	0.488619
H86	H	1.117873	0.408950	0.695001
F87	F	1.102441	0.365491	0.088085
H88	H	0.344959	1.177309	-0.174987
F89	F	1.182198	1.000635	-0.396382
F90	F	1.132688	0.604328	0.514272
F91	F	1.102447	0.459498	0.088072
F92	F	0.425097	1.004716	0.169612
H93	H	0.692777	0.803758	0.036146
F94	F	1.630210	0.453653	0.062243
F95	F	1.182191	1.000654	-0.603746
F96	F	0.950081	0.547632	0.390632
H97	H	0.944907	1.000639	-0.559053
F98	F	0.532538	0.786715	0.187473
F99	F	1.743988	0.396990	0.485568
F100	F	0.534243	0.786353	0.025353
F101	F	1.295010	0.604335	-0.118088
F102	F	0.322036	1.205877	-0.010642
F103	F	0.496005	1.207124	-0.012248
F104	F	0.599052	1.007098	0.167994
F105	F	1.534013	0.604348	0.278225
H106	H	0.419054	1.027646	-0.165377
F107	F	1.503992	0.453645	0.609252
H108	H	1.507668	0.408968	-0.103448
F109	F	0.923950	1.000621	-0.453051
F110	F	0.599053	1.003262	-0.172461
