data_functionalizedCrystal
_audit_creation_method	'MofGen! by Chris Wilmer'
_symmetry_space_group_name_H-M	'P1'
_symmetry_Int_Tables_number	1
_symmetry_cell_setting	triclinic
loop_
_symmetry_equiv_pos_as_xyz
  x,y,z
_cell_length_a	10.723023
_cell_length_b	14.519709
_cell_length_c	9.798715
_cell_angle_alpha	89.995905
_cell_angle_beta	89.996770
_cell_angle_gamma	84.073846
loop_
_atom_site_label
_atom_site_type_symbol
_atom_site_fract_x
_atom_site_fract_y
_atom_site_fract_z
O1	O	1.655978	0.129344	-0.113480
O2	O	1.292710	0.141726	-0.113486
O3	O	1.483976	0.001346	-0.113471
O4	O	1.464713	0.269724	-0.113496
O5	O	1.483961	0.001345	0.113511
O6	O	1.292696	0.141725	0.113496
O7	O	1.655964	0.129344	0.113502
Zn8	Zn	1.474328	0.135534	0.149537
Zn9	Zn	1.474346	0.135535	-0.149522
O10	O	1.464698	0.269724	0.113486
C11	C	1.246212	0.140825	0.000004
C12	C	1.107683	0.138129	0.000002
C13	C	1.045914	0.136927	0.117585
C14	C	0.902737	0.134141	0.117585
C15	C	1.483071	-0.033019	0.000020
C16	C	1.480381	-0.135414	0.000021
C17	C	1.470477	-0.510360	-0.000015
C18	C	1.473227	-0.406038	-0.000004
C19	C	1.475428	-0.322890	0.000005
C20	C	1.478179	-0.218562	0.000012
C21	C	1.702462	0.130245	0.000008
C22	C	1.840992	0.132940	0.000001
C23	C	1.465603	0.304088	-0.000008
C24	C	1.468293	0.406483	-0.000018
N25	N	1.474324	0.135534	0.353637
N26	N	1.474360	0.135529	-0.353621
C27	C	1.554634	0.076332	0.421420
C28	C	1.554654	0.076329	0.578583
H29	H	0.849617	0.133113	0.218252
Br30	Br	1.359733	0.220005	0.450827
Br31	Br	1.134432	0.138644	0.285379
H32	H	1.623371	0.025646	0.363103
H33	H	0.894102	0.133979	-0.100671
H34	H	1.054567	0.137093	-0.100664
H35	H	1.623415	0.025647	0.636874
H36	H	1.405604	0.186219	0.588097
