data_functionalizedCrystal
_audit_creation_method	'MofGen! by Chris Wilmer'
_symmetry_space_group_name_H-M	'P1'
_symmetry_Int_Tables_number	1
_symmetry_cell_setting	triclinic
loop_
_symmetry_equiv_pos_as_xyz
  x,y,z
_cell_length_a	6.817900
_cell_length_b	11.102244
_cell_length_c	11.102291
_cell_angle_alpha	91.948581
_cell_angle_beta	108.605752
_cell_angle_gamma	108.604870
loop_
_atom_site_label
_atom_site_type_symbol
_atom_site_fract_x
_atom_site_fract_y
_atom_site_fract_z
V1	V	-4.111532	-0.175854	-0.396256
O2	O	-4.070571	0.008434	-0.388716
O3	O	-4.088303	-0.348674	-0.393542
O4	O	-4.088317	-0.173157	-0.569078
O5	O	-4.070557	-0.168298	-0.211965
V6	V	-4.588635	-0.153810	-0.374213
O7	O	-4.386874	-0.224209	-0.444607
O8	O	-4.763492	-0.105455	-0.325862
O9	O	-4.388658	0.019009	-0.376927
O10	O	-4.746993	-0.338099	-0.381753
O11	O	-4.747007	-0.161367	-0.558504
O12	O	-4.388644	-0.156508	-0.201391
C13	C	-3.938612	-0.390803	-0.387290
C14	C	-4.001075	-0.532086	-0.386224
C15	C	-3.970245	-0.580316	-0.269343
C16	C	-4.028950	-0.713068	-0.268355
C17	C	-4.149305	-0.749350	-0.501140
C18	C	-4.090615	-0.616600	-0.502127
C19	C	-3.880705	-0.495801	-0.153440
C20	C	-3.849869	-0.544030	-0.036549
C21	C	-3.908573	-0.676782	-0.035562
C22	C	-3.998114	-0.761306	-0.151465
C23	C	-3.938629	-0.166912	-0.611202
C24	C	-4.001098	-0.165850	-0.752485
C25	C	-4.214452	-0.171689	-0.825333
C26	C	-4.273124	-0.170666	-0.958079
C27	C	-3.905068	-0.157969	-0.945118
C28	C	-3.846395	-0.158983	-0.812373
C29	C	-4.369156	-0.178556	-0.765445
C30	C	-4.582526	-0.184397	-0.838293
C31	C	-4.641197	-0.183374	-0.971040
C32	C	-4.486498	-0.176510	-1.030937
C33	C	-4.201691	0.061132	-0.383175
C34	C	-4.118469	0.202413	-0.384250
C35	C	-4.201674	-0.162757	-0.159261
C36	C	-4.118442	-0.163813	-0.017976
H37	H	-3.883482	-0.716046	0.059615
Br38	Br	-3.556821	-0.151032	-0.713495
Br39	Br	-4.930755	-0.191287	-1.069901
Br40	Br	-3.728415	-0.429327	0.120738
Br41	Br	-4.566113	-0.175090	-1.211090
H42	H	-3.779126	-0.152381	-0.993898
H43	H	-4.045925	-0.869401	-0.150652
H44	H	-4.222206	-0.818178	-0.595503
H45	H	-3.832886	-0.387705	-0.154230
Br46	Br	-4.132475	-0.551138	-0.660754
H47	H	-4.321405	-0.179393	-0.657358
H48	H	-4.708466	-0.189978	-0.789515
