data_functionalizedCrystal
_audit_creation_method	'MofGen! by Chris Wilmer'
_symmetry_space_group_name_H-M	'P1'
_symmetry_Int_Tables_number	1
_symmetry_cell_setting	triclinic
loop_
_symmetry_equiv_pos_as_xyz
  x,y,z
_cell_length_a	14.044220
_cell_length_b	10.654550
_cell_length_c	9.730223
_cell_angle_alpha	89.998181
_cell_angle_beta	90.004504
_cell_angle_gamma	88.836910
loop_
_atom_site_label
_atom_site_type_symbol
_atom_site_fract_x
_atom_site_fract_y
_atom_site_fract_z
O1	O	1.259693	0.302980	-0.114147
O2	O	0.983652	0.292047	-0.114181
O3	O	1.128019	0.115412	-0.114152
O4	O	1.115326	0.479615	-0.114176
O5	O	1.128018	0.115417	0.114427
O6	O	0.983650	0.292052	0.114399
O7	O	1.259691	0.302985	0.114433
Zn8	Zn	1.121671	0.297519	0.150708
Zn9	Zn	1.121673	0.297513	-0.150456
O10	O	1.115324	0.479620	0.114404
C11	C	0.948305	0.287263	0.000104
C12	C	0.842986	0.272988	0.000091
C13	C	1.127086	0.068523	0.000137
C14	C	1.124298	-0.071201	0.000136
C15	C	1.120360	-0.268147	0.124712
C16	C	1.122983	-0.136862	0.124729
C17	C	1.122980	-0.136830	-0.124481
C18	C	1.120351	-0.268112	-0.124497
C19	C	1.120366	-0.268164	0.268592
C20	C	1.122989	-0.136879	0.268609
C21	C	0.650153	0.246889	0.000120
C22	C	0.593185	0.348137	0.000120
C23	C	0.485886	0.333615	0.000136
C24	C	0.757462	0.261409	0.000104
C25	C	1.295038	0.307769	0.000145
C26	C	1.400358	0.322044	0.000149
C27	C	1.116257	0.526509	0.000112
C28	C	1.119045	0.666233	0.000103
N29	N	1.121676	0.297523	0.356244
N30	N	1.121675	0.297500	-0.355992
C31	C	1.185618	0.219340	0.428183
C32	C	1.185616	0.219324	0.572066
C33	C	1.057726	0.375686	0.572059
C34	C	1.057724	0.375694	0.428178
C35	C	1.259458	0.129069	0.428189
C36	C	1.259455	0.129054	0.572072
H37	H	1.124041	-0.083358	-0.225927
H38	H	0.624998	0.445725	0.000107
H39	H	1.236409	0.035515	0.616689
C40	C	0.987368	0.461648	0.651184
H41	H	0.949276	0.508199	0.587729
H42	H	1.021808	0.517817	0.707338
H43	H	0.947592	0.411945	0.707284
H44	H	1.328328	0.166579	0.383569
H45	H	1.055432	-0.091963	0.313255
H46	H	1.119270	-0.321535	-0.225965
C47	C	0.607183	0.115066	0.000120
H48	H	0.539657	0.122478	0.000115
H49	H	0.627689	0.070689	0.079824
H50	H	0.627674	0.070711	-0.079608
H51	H	1.005649	0.439345	0.369607
H52	H	1.243262	0.030909	0.389138
H53	H	1.332349	0.157897	0.611130
H54	H	1.053390	-0.299721	0.323828
H55	H	1.189967	-0.105332	0.323862
C56	C	1.211617	-0.328873	0.328911
H57	H	1.254070	-0.265062	0.355790
H58	H	1.241299	-0.380894	0.261463
H59	H	1.195775	-0.378103	0.406716
