data_functionalizedCrystal
_audit_creation_method	'MofGen! by Chris Wilmer'
_symmetry_space_group_name_H-M	'P1'
_symmetry_Int_Tables_number	1
_symmetry_cell_setting	triclinic
loop_
_symmetry_equiv_pos_as_xyz
  x,y,z
_cell_length_a	14.446369
_cell_length_b	21.606444
_cell_length_c	14.446369
_cell_angle_alpha	60.009339
_cell_angle_beta	90.002026
_cell_angle_gamma	60.002619
loop_
_atom_site_label
_atom_site_type_symbol
_atom_site_fract_x
_atom_site_fract_y
_atom_site_fract_z
Zr1	Zr	-0.121359	0.677307	0.892020
O2	O	-0.269150	0.806406	0.744258
O3	O	-0.076064	0.548209	0.937284
O4	O	-0.269158	0.677300	0.937331
O5	O	0.076273	0.677320	0.744210
O6	O	-0.269153	0.677295	1.089668
O7	O	-0.076055	0.677314	0.744210
O8	O	0.076258	0.446373	1.089583
O9	O	-0.269138	0.908241	0.744295
O10	O	-0.056729	0.601305	1.070315
O11	O	0.056948	0.601313	0.956628
O12	O	-0.170396	0.753302	0.956684
O13	O	-0.056719	0.753310	0.842996
Zr14	Zr	0.121597	0.677307	1.134979
Zr15	Zr	-0.121350	0.677298	1.134980
Zr16	Zr	0.121588	0.677316	0.892019
Zr17	Zr	-0.121339	0.839723	0.892079
Zr18	Zr	0.121577	0.514892	1.134920
O19	O	0.076302	0.806406	1.089715
O20	O	-0.269137	0.806393	1.089716
O21	O	0.076289	0.806419	0.744257
O22	O	0.269388	0.548209	1.282741
O23	O	-0.076051	0.548196	1.282742
O24	O	0.269375	0.548221	0.937283
O25	O	-0.076035	0.677295	1.282789
O26	O	0.269396	0.677314	1.089668
O27	O	0.269391	0.677320	0.937331
O28	O	0.076293	0.677300	1.282789
O29	O	-0.269131	0.908234	0.937416
O30	O	0.269369	0.446380	1.089583
O31	O	0.269376	0.446373	1.282704
O32	O	0.076265	0.446366	1.282704
O33	O	-0.076027	0.908249	0.744295
O34	O	-0.076020	0.908241	0.937416
O35	O	0.170634	0.601313	1.070315
O36	O	0.056957	0.601305	1.184003
O37	O	-0.056710	0.753302	1.070371
O38	O	0.056967	0.753310	0.956684
C39	C	0.000094	0.474150	1.013425
C40	C	0.000086	0.405201	1.013400
C41	C	0.084067	-0.074267	1.097488
C42	C	0.084055	-0.009459	1.097464
C43	C	0.000132	0.079030	1.013545
C44	C	-0.083791	0.102711	0.929652
C45	C	-0.083783	0.037904	0.929682
C46	C	-0.083825	0.364074	0.929530
C47	C	-0.083825	0.428882	0.929505
C48	C	0.084013	0.316711	1.097313
C49	C	0.084020	0.251903	1.097343
C50	C	0.000094	0.275590	1.013453
C51	C	0.000107	0.205317	1.013482
C52	C	0.000124	0.149302	1.013511
C53	C	-0.303770	0.677296	1.013500
C54	C	-0.406908	0.677292	1.013500
C55	C	-0.481899	0.581438	1.085524
C56	C	-0.374570	0.581373	1.085212
C57	C	-0.481466	0.724912	0.889987
C58	C	-0.588325	0.724304	0.890382
C59	C	-0.589892	0.726271	1.063990
C60	C	-0.481221	0.724465	1.066489
C61	C	0.304008	0.677319	1.013499
C62	C	0.407146	0.677322	1.013499
C63	C	0.000108	0.677319	0.709593
C64	C	0.000104	0.677322	0.606450
C65	C	0.000144	0.880465	1.013574
C66	C	0.000152	0.949414	1.013599
C67	C	-0.071224	0.773177	0.388117
C68	C	-0.071626	0.773242	0.495349
C69	C	-0.052200	0.629703	0.603109
C70	C	-0.052723	0.630311	0.495341
C71	C	0.123827	0.628343	0.496703
C72	C	0.123633	0.630150	0.602673
C73	C	0.000130	0.677296	1.317406
C74	C	0.000134	0.677292	1.420548
C75	C	0.000106	0.474139	1.317331
C76	C	0.000101	0.405186	1.420449
C77	C	0.303984	0.474161	1.013424
C78	C	0.407113	0.405216	1.013399
C79	C	0.303995	0.474150	1.317331
C80	C	0.407128	0.405201	1.420448
C81	C	-0.303757	0.880465	0.709668
C82	C	-0.406890	0.949414	0.606551
C83	C	0.000132	0.880476	0.709668
C84	C	0.000137	0.949429	0.606550
C85	C	-0.303746	0.880453	1.013574
C86	C	-0.406875	0.949399	1.013600
C87	C	-0.059254	0.372804	1.409530
C88	C	-0.059281	0.308024	1.506411
C89	C	0.000055	0.275622	1.614209
C90	C	0.059411	0.308010	1.625125
C91	C	0.059431	0.372793	1.528246
C92	C	0.514896	0.372838	1.072731
C93	C	0.611806	0.308065	1.072702
C94	C	0.600930	0.275666	1.013349
C95	C	0.493136	0.308051	0.954010
C96	C	0.396228	0.372827	0.954032
C97	C	0.396222	0.372817	1.528227
C98	C	0.493117	0.308040	1.625126
C99	C	0.600917	0.275644	1.614244
C100	C	0.611820	0.308035	1.506453
C101	C	0.514927	0.372814	1.409557
C102	C	-0.395984	0.981806	0.498772
C103	C	-0.492879	1.046603	0.401873
C104	C	-0.600678	1.079002	0.412755
C105	C	-0.611582	1.046607	0.520546
C106	C	-0.514689	0.981816	0.617442
C107	C	0.059482	0.981817	0.617469
C108	C	0.059482	1.046615	0.520588
C109	C	0.000143	1.079020	0.412790
C110	C	-0.059209	1.046629	0.401874
C111	C	-0.059215	0.981836	0.498753
C112	C	-0.395963	0.981777	1.072965
C113	C	-0.492854	1.046551	1.073011
C114	C	-0.600656	1.078949	1.013685
C115	C	-0.611566	1.046565	0.954317
C116	C	-0.514676	0.981788	0.954279
H117	H	0.152362	0.179853	1.165675
H118	H	-0.107616	0.281662	1.497500
Br119	Br	0.478292	0.264094	1.771398
H120	H	0.107818	1.072977	0.529499
Br121	Br	-0.720239	0.844002	0.976969
H122	H	0.308470	0.399180	0.905721
H123	H	-0.523577	0.955433	0.905931
H124	H	0.523822	0.399173	1.321802
Br125	Br	-0.139757	0.937885	0.483915
Br126	Br	0.197975	-0.194358	1.211378
H127	H	-0.152160	0.383371	0.861220
H128	H	0.152347	0.297430	1.165622
Br129	Br	-0.139794	0.416767	1.263245
Br130	Br	-0.197727	0.548980	0.815606
H131	H	0.152384	-0.028749	1.165777
Br132	Br	0.219702	0.513499	0.734546
Br133	Br	0.000016	0.187701	1.745678
Br134	Br	-0.197693	0.222804	0.815765
H135	H	0.107771	0.399150	1.537151
H136	H	-0.308216	0.955430	0.489889
H137	H	-0.161918	0.810623	0.333146
Br138	Br	0.028284	0.513063	0.539713
H139	H	0.679848	0.222922	1.013339
H140	H	0.484297	0.281662	0.905685
H141	H	-0.002729	0.559176	0.681352
H142	H	-0.588061	0.690467	0.849962
Br143	Br	0.139936	0.264024	1.771432
Br144	Br	-0.249671	0.937822	1.153490
Br145	Br	-0.478021	1.090490	1.153582
H146	H	-0.152117	0.057192	0.861373
Br147	Br	-0.202471	0.684819	0.606688
Br148	Br	-0.596756	0.675128	1.213296
Br149	Br	-0.732140	1.166863	1.013747
Br150	Br	0.249934	0.416773	1.543027
Br151	Br	-0.139732	1.090613	0.255567
H152	H	-0.699352	1.072954	0.906015
H153	H	0.107810	0.955438	0.705235
H154	H	-0.483978	1.072967	0.314115
H155	H	0.000157	1.131778	0.333914
H156	H	0.523773	0.399209	1.121064
H157	H	0.699567	0.281705	1.121027
Br158	Br	0.732406	0.187728	1.745759
Br159	Br	-0.013049	0.835910	0.298204
Br160	Br	-0.480179	0.519023	1.027694
H161	H	0.699604	0.281648	1.497610
H162	H	-0.320298	0.544012	1.176162
H163	H	-0.679566	1.131759	0.333846
H164	H	-0.699364	1.072995	0.529393
H165	H	-0.479561	0.543803	1.176710
H166	H	-0.320790	0.543773	1.050193
Br167	Br	-0.719289	0.841553	0.796075
Br168	Br	-0.529510	0.937860	0.763710
Br169	Br	-0.395474	0.669796	0.822135
Br170	Br	-0.526847	0.842462	0.796648
H171	H	-0.506729	0.794442	1.019486
Br172	Br	-0.395521	0.666595	1.218156
H173	H	-0.036814	0.810793	0.493603
H174	H	-0.162870	0.810827	0.492916
H175	H	0.167520	0.659025	0.446691
Br176	Br	-0.204432	0.686715	0.411441
Br177	Br	0.188776	0.688004	0.601860
H178	H	0.177247	0.557710	0.524116
