data_functionalizedCrystal
_audit_creation_method	'MofGen! by Chris Wilmer'
_symmetry_space_group_name_H-M	'P1'
_symmetry_Int_Tables_number	1
_symmetry_cell_setting	triclinic
loop_
_symmetry_equiv_pos_as_xyz
  x,y,z
_cell_length_a	10.540539
_cell_length_b	19.288867
_cell_length_c	17.766277
_cell_angle_alpha	89.992126
_cell_angle_beta	89.995823
_cell_angle_gamma	83.831280
loop_
_atom_site_label
_atom_site_type_symbol
_atom_site_fract_x
_atom_site_fract_y
_atom_site_fract_z
O1	O	0.158357	0.922409	-0.062564
O2	O	0.179715	0.720291	-0.062571
O3	O	-0.015773	0.825961	-0.062567
O4	O	0.353845	0.816739	-0.062569
O5	O	-0.015783	0.825942	0.062622
O6	O	0.179705	0.720272	0.062617
O7	O	0.158347	0.922390	0.062624
Cu8	Cu	0.169025	0.821329	0.074051
Cu9	Cu	0.169037	0.821352	-0.073999
O10	O	0.353835	0.816720	0.062620
C11	C	0.179022	0.694400	0.000022
C12	C	0.176958	0.617283	0.000019
C13	C	0.162095	0.061629	-0.068212
C14	C	0.164027	0.134089	-0.068215
C15	C	0.164994	0.170314	0.000025
C16	C	0.163995	0.134075	0.068273
C17	C	0.162051	0.061616	0.068274
C18	C	0.242414	0.280150	0.052306
C19	C	0.244366	0.352607	0.052302
C20	C	0.170986	0.393800	0.000025
C21	C	0.095669	0.362527	-0.052260
C22	C	0.093725	0.290068	-0.052259
C23	C	0.167101	0.248883	0.000032
C24	C	0.174070	0.508601	-0.068221
C25	C	0.175994	0.581063	-0.068221
C26	C	0.175975	0.581046	0.068269
C27	C	0.174038	0.508586	0.068267
C28	C	0.173092	0.472367	0.000020
C29	C	-0.063066	0.825260	0.000026
C30	C	-0.203968	0.823191	0.000022
C31	C	-0.385628	0.743902	-0.000262
C32	C	-0.239057	0.745999	0.000020
C33	C	-0.266458	0.860328	0.071512
C34	C	-0.412944	0.857694	0.071572
C35	C	-0.413486	0.859285	-0.070790
C36	C	-0.266520	0.859996	-0.071736
C37	C	0.401128	0.817421	0.000025
C38	C	0.542030	0.819490	0.000024
C39	C	0.159040	0.948280	0.000029
C40	C	0.161104	1.025398	0.000027
N41	N	0.169016	0.821319	0.178182
N42	N	0.169036	0.821368	-0.178129
C43	C	0.082497	0.868125	0.217571
C44	C	0.082491	0.868129	0.296372
C45	C	0.169026	0.821333	0.335782
C46	C	0.255553	0.774518	0.296384
C47	C	0.255548	0.774511	0.217584
C48	C	0.284681	0.812806	0.460619
C49	C	0.284687	0.812819	0.539418
C50	C	0.169042	0.821352	0.578829
C51	C	0.053384	0.829888	0.539431
C52	C	0.053379	0.829881	0.460630
C53	C	0.169041	0.821336	0.421228
C54	C	0.082508	0.868165	0.703663
C55	C	0.082501	0.868164	0.782467
C56	C	0.255574	0.774557	0.782477
C57	C	0.255571	0.774555	0.703675
C58	C	0.169039	0.821362	0.664273
H59	H	0.176791	0.610562	-0.123792
H60	H	-0.415163	0.713526	0.050716
F61	F	-0.183621	0.707514	0.067111
H62	H	0.161319	0.032144	-0.123784
F63	F	-0.238893	0.934422	0.074992
F64	F	-0.009601	0.917939	0.175638
F65	F	0.347663	0.724740	0.661751
H66	H	0.305724	0.378061	0.094860
H67	H	0.302163	0.246616	0.094884
H68	H	-0.440536	0.830232	0.125011
H69	H	0.164841	0.163594	-0.123785
F70	F	-0.009591	0.917979	0.661728
H71	H	-0.461954	0.915040	-0.071269
F72	F	0.347664	0.724750	0.824416
H73	H	-0.413545	0.713417	-0.051528
F74	F	0.017571	0.406361	-0.107903
F75	F	-0.009596	0.917980	0.824389
H76	H	0.173295	0.479110	-0.123792
F77	F	0.013566	0.256788	-0.107901
H78	H	0.176757	0.610540	0.123831
F79	F	0.161000	0.023055	0.140907
H80	H	-0.223288	0.834515	0.124711
H81	H	-0.462149	0.913208	0.074817
F82	F	-0.453981	0.826636	-0.141615
H83	H	0.173236	0.479086	0.123834
F84	F	-0.009600	0.917949	0.338300
F85	F	-0.236493	0.933556	-0.077381
H86	H	0.378862	0.805872	0.571490
F87	F	0.165020	0.172629	0.140899
F88	F	-0.211730	0.824758	-0.140872
F89	F	0.347647	0.724713	0.338327
F90	F	-0.182511	0.707804	-0.066963
F91	F	-0.069708	0.838959	0.418703
H92	H	-0.040785	0.836837	0.571517
H93	H	0.378859	0.805845	0.428538
F94	F	0.347638	0.724691	0.175661
