data_functionalizedCrystal
_audit_creation_method	'MofGen! by Chris Wilmer'
_symmetry_space_group_name_H-M	'P1'
_symmetry_Int_Tables_number	1
_symmetry_cell_setting	triclinic
loop_
_symmetry_equiv_pos_as_xyz
  x,y,z
_cell_length_a	10.489711
_cell_length_b	10.489741
_cell_length_c	9.565339
_cell_angle_alpha	90.000900
_cell_angle_beta	90.003936
_cell_angle_gamma	95.466909
loop_
_atom_site_label
_atom_site_type_symbol
_atom_site_fract_x
_atom_site_fract_y
_atom_site_fract_z
O1	O	0.179961	-1.694034	-0.116161
O2	O	0.196854	-1.322836	-0.116181
O3	O	0.002807	-1.516901	-0.116175
O4	O	0.374008	-1.499969	-0.116168
O5	O	0.002819	-1.516886	0.116346
O6	O	0.196866	-1.322821	0.116339
O7	O	0.179973	-1.694018	0.116359
Zn8	Zn	0.188422	-1.508417	0.153266
Zn9	Zn	0.188406	-1.508437	-0.153089
O10	O	0.374020	-1.499953	0.116352
C11	C	0.195584	-1.275297	0.000076
C12	C	0.191767	-1.133668	0.000067
C13	C	-0.044719	-1.515623	0.000082
C14	C	-0.186350	-1.511821	0.000070
C15	C	0.181243	-1.741558	0.000099
C16	C	0.185060	-1.883187	0.000098
C17	C	-0.368737	-1.628525	0.000090
C18	C	-0.276587	-1.570222	0.114730
C19	C	-0.276623	-1.570206	-0.114516
C20	C	-0.346538	-1.446679	0.114831
C21	C	-0.346583	-1.446680	-0.114519
C22	C	-0.254461	-1.388288	0.000149
C23	C	0.421546	-1.501232	0.000093
C24	C	0.563178	-1.505034	0.000096
N25	N	0.188432	-1.508413	0.362346
C26	C	0.068301	-1.065541	0.000078
C27	C	0.126619	-0.973416	-0.114562
C28	C	0.126660	-0.973434	0.114684
C29	C	0.250136	-1.043408	-0.114668
C30	C	0.250160	-1.043436	0.114682
C31	C	0.308568	-0.951338	0.000013
N32	N	0.188386	-1.508452	-0.362168
C33	C	0.278142	-1.418636	0.453546
C34	C	0.303953	-1.534131	0.546732
C35	C	0.162631	-1.392968	0.546715
C36	C	0.214301	-1.623965	0.453480
C37	C	0.072929	-1.482727	0.453455
C38	C	0.098691	-1.598304	0.546599
H39	H	-0.245594	-1.622469	0.211656
O40	O	-0.043432	-1.456585	0.404357
C41	C	-0.028845	-1.345138	0.321255
H42	H	0.073598	-1.330220	0.280456
H43	H	-0.098143	-1.356137	0.229282
H44	H	-0.050195	-1.258939	0.386825
O45	O	0.312522	-1.080312	-0.230285
C46	C	0.420195	-1.142077	-0.189379
H47	H	0.405213	-1.181051	-0.078743
H48	H	0.433245	-1.224435	-0.264185
H49	H	0.509191	-1.070694	-0.192132
H50	H	0.401611	-1.555883	0.587702
H51	H	0.410173	-0.901903	-0.000047
H52	H	0.236220	-1.721633	0.412698
O53	O	0.064316	-0.936262	0.230211
C54	C	0.062619	-0.802026	0.229289
H55	H	0.074927	-0.765114	0.117545
H56	H	-0.032668	-0.775815	0.272715
H57	H	0.144221	-0.756601	0.296860
O58	O	-0.383645	-1.384213	-0.230005
C59	C	-0.444386	-1.275955	-0.188913
H60	H	-0.411629	-1.245739	-0.079174
H61	H	-0.418025	-1.194030	-0.265011
H62	H	-0.552616	-1.300555	-0.189325
O63	O	0.368893	-1.328286	0.404851
C64	C	0.490493	-1.355867	0.452411
H65	H	0.487868	-1.462117	0.478538
H66	H	0.564674	-1.330950	0.367192
H67	H	0.517266	-1.296837	0.549956
O68	O	-0.195595	-1.267031	0.000028
C69	C	-0.232863	-1.201652	-0.119798
H70	H	-0.328579	-1.248602	-0.159363
H71	H	-0.242925	-1.097375	-0.092139
H72	H	-0.157226	-1.206111	-0.204784
O73	O	0.008294	-1.689157	0.594985
C74	C	0.035939	-1.810658	0.547191
H75	H	0.142220	-1.807973	0.521197
H76	H	0.010931	-1.885010	0.632215
H77	H	-0.022977	-1.837243	0.449515
O78	O	-0.428224	-1.749528	0.000143
C79	C	-0.562027	-1.744267	-0.001062
H80	H	-0.585089	-1.648390	-0.045810
H81	H	-0.608654	-1.825319	-0.068558
H82	H	-0.600536	-1.754840	0.110202
O83	O	0.136761	-1.276377	0.595403
C84	C	0.231626	-1.182010	0.548018
H85	H	0.278692	-1.217642	0.449896
H86	H	0.185807	-1.090428	0.522899
H87	H	0.307088	-1.161654	0.632937
H88	H	-0.377342	-1.394463	0.211859
H89	H	-0.245668	-1.622487	-0.211434
O90	O	-0.052775	-1.124854	0.000193
C91	C	-0.071437	-1.201118	0.121184
H92	H	-0.000679	-1.163543	0.205414
H93	H	-0.173406	-1.197096	0.161006
H94	H	-0.055320	-1.304382	0.094971
O95	O	0.064091	-0.936502	-0.230086
C96	C	-0.062540	-0.995219	-0.229705
H97	H	-0.091885	-1.022660	-0.118142
H98	H	-0.129725	-0.925597	-0.273006
H99	H	-0.068409	-1.084875	-0.297656
O100	O	0.312251	-1.080440	0.230454
C101	C	0.246851	-1.045141	0.351098
H102	H	0.142758	-1.033928	0.323629
H103	H	0.250677	-1.122507	0.434286
H104	H	0.294233	-0.950450	0.392934
