data_functionalizedCrystal
_audit_creation_method	'MofGen! by Chris Wilmer'
_symmetry_space_group_name_H-M	'P1'
_symmetry_Int_Tables_number	1
_symmetry_cell_setting	triclinic
loop_
_symmetry_equiv_pos_as_xyz
  x,y,z
_cell_length_a	6.394989
_cell_length_b	9.065218
_cell_length_c	7.540329
_cell_angle_alpha	90.003038
_cell_angle_beta	90.000635
_cell_angle_gamma	85.756798
loop_
_atom_site_label
_atom_site_type_symbol
_atom_site_fract_x
_atom_site_fract_y
_atom_site_fract_z
O1	O	-0.306374	-1.963204	-0.147474
O2	O	0.193626	-1.463204	0.352526
O3	O	-0.331504	-1.534149	-0.147476
O4	O	0.168496	-1.034149	0.352524
O5	O	-0.014990	-1.754767	-0.147476
O6	O	0.485010	-1.254767	0.352524
O7	O	-0.622888	-1.742586	-0.147474
O8	O	-0.122888	-1.242586	0.352526
O9	O	-0.014986	-1.754753	0.147489
O10	O	0.485014	-1.254753	0.647489
O11	O	-0.331500	-1.534136	0.147489
O12	O	0.168500	-1.034136	0.647489
O13	O	-0.306370	-1.963190	0.147491
O14	O	0.193630	-1.463190	0.647491
Cu15	Cu	-0.318934	-1.748662	0.174423
Cu16	Cu	0.181066	-1.248662	0.674423
Cu17	Cu	-0.318939	-1.748678	-0.174408
Cu18	Cu	0.181061	-1.248678	0.325592
O19	O	-0.622884	-1.742573	0.147491
O20	O	-0.122884	-1.242573	0.647491
C21	C	-0.329087	-1.479134	0.000007
C22	C	0.170913	-0.979134	0.500007
C23	C	-0.321865	-1.315225	0.000006
C24	C	0.178135	-0.815225	0.500006
N25	N	-0.318930	-1.748661	0.419771
N26	N	0.181070	-1.248661	0.919771
C27	C	-0.308787	-2.018206	0.000005
C28	C	0.191213	-1.518206	0.500005
C29	C	-0.316008	-2.182115	-0.000006
C30	C	0.183992	-1.682115	0.499994
C31	C	0.062879	-1.752352	-0.000000
C32	C	0.562879	-1.252352	0.500000
C33	C	0.299253	-1.744991	-0.000002
C34	C	0.799253	-1.244991	0.499998
N35	N	-0.318927	-1.748690	-0.419756
N36	N	0.181073	-1.248690	0.080244
