data_functionalizedCrystal
_audit_creation_method	'MofGen! by Chris Wilmer'
_symmetry_space_group_name_H-M	'P1'
_symmetry_Int_Tables_number	1
_symmetry_cell_setting	triclinic
loop_
_symmetry_equiv_pos_as_xyz
  x,y,z
_cell_length_a	10.540539
_cell_length_b	10.654550
_cell_length_c	9.730223
_cell_angle_alpha	90.003496
_cell_angle_beta	89.999114
_cell_angle_gamma	95.494789
loop_
_atom_site_label
_atom_site_type_symbol
_atom_site_fract_x
_atom_site_fract_y
_atom_site_fract_z
O1	O	1.685821	-0.176990	-0.114225
O2	O	1.316402	-0.193666	-0.114242
O3	O	1.509605	-0.002592	-0.114224
O4	O	1.492618	-0.368065	-0.114242
O5	O	1.509594	-0.002590	0.114356
O6	O	1.316390	-0.193664	0.114338
O7	O	1.685809	-0.176988	0.114355
Zn8	Zn	1.501098	-0.185325	0.150639
Zn9	Zn	1.501113	-0.185329	-0.150525
O10	O	1.492606	-0.368062	0.114338
C11	C	1.269094	-0.192415	0.000046
C12	C	1.128147	-0.188673	0.000040
N13	N	1.501097	-0.185322	0.356175
C14	C	1.508352	0.044208	0.000065
C15	C	1.504620	0.183652	0.000063
C16	C	0.944772	-0.045302	0.000581
C17	C	1.091388	-0.049095	0.000051
C18	C	1.066457	-0.255845	-0.130489
C19	C	0.919914	-0.251082	-0.130584
C20	C	0.919411	-0.253918	0.129354
C21	C	1.066393	-0.255204	0.131065
C22	C	1.733118	-0.178240	0.000064
C23	C	1.874064	-0.181981	0.000062
C24	C	1.493859	-0.414862	0.000045
C25	C	1.497591	-0.554306	0.000039
C26	C	1.618375	0.263098	0.000067
C27	C	1.614861	0.394120	0.000050
C28	C	1.383827	0.366238	0.000030
C29	C	1.387343	0.235218	0.000037
C30	C	1.586682	-0.100747	0.572001
C31	C	1.586675	-0.100748	0.428118
C32	C	1.415530	-0.269909	0.428123
C33	C	1.415544	-0.269913	0.572003
N34	N	1.501118	-0.185325	0.643938
H35	H	1.134017	0.003759	0.093620
H36	H	0.891726	-0.201437	-0.228150
H37	H	0.914589	0.009605	-0.092502
H38	H	0.887876	-0.208746	0.228294
H39	H	1.090582	-0.356966	0.138941
H40	H	0.916201	0.009841	0.094191
H41	H	0.871909	-0.351465	-0.136513
H42	H	1.088773	-0.358348	-0.135350
H43	H	1.288344	0.408240	0.000012
H44	H	1.133158	0.004130	-0.093674
H45	H	1.109067	-0.209185	-0.227626
H46	H	1.656349	-0.031879	0.369551
H47	H	1.345855	-0.338777	0.369538
H48	H	1.294704	0.170530	0.000029
H49	H	1.345868	-0.338793	0.630578
H50	H	1.107368	-0.206132	0.227630
H51	H	0.872148	-0.354735	0.130231
H52	H	1.713870	0.221117	0.000085
H53	H	1.656363	-0.031872	0.630568
H54	H	1.707492	0.458800	0.000051
