data_functionalizedCrystal
_audit_creation_method	'MofGen! by Chris Wilmer'
_symmetry_space_group_name_H-M	'P1'
_symmetry_Int_Tables_number	1
_symmetry_cell_setting	triclinic
loop_
_symmetry_equiv_pos_as_xyz
  x,y,z
_cell_length_a	14.519731
_cell_length_b	13.596369
_cell_length_c	11.792254
_cell_angle_alpha	90.006156
_cell_angle_beta	83.943725
_cell_angle_gamma	90.005416
loop_
_atom_site_label
_atom_site_type_symbol
_atom_site_fract_x
_atom_site_fract_y
_atom_site_fract_z
O1	O	1.224407	0.081794	0.148896
O2	O	1.724407	0.581794	0.648896
O3	O	0.955997	0.081796	0.166392
O4	O	1.455997	0.581796	0.666392
O5	O	1.096709	0.081788	-0.007561
O6	O	1.596709	0.581788	0.492439
O7	O	1.083695	0.081802	0.322849
O8	O	1.583695	0.581802	0.822849
O9	O	1.096695	-0.081795	-0.007570
O10	O	1.596695	0.418205	0.492430
O11	O	0.955983	-0.081787	0.166383
O12	O	1.455983	0.418213	0.666383
O13	O	1.224393	-0.081789	0.148887
O14	O	1.724393	0.418211	0.648887
Zn15	Zn	1.090186	-0.107760	0.157634
Zn16	Zn	1.590186	0.392240	0.657634
Zn17	Zn	1.090204	0.107767	0.157646
Zn18	Zn	1.590204	0.607767	0.657646
O19	O	1.083680	-0.081781	0.322840
O20	O	1.583680	0.418219	0.822840
C21	C	0.921628	0.000004	0.165568
C22	C	1.421628	0.500004	0.665568
C23	C	0.819238	0.000005	0.163111
C24	C	1.319238	0.500005	0.663111
N25	N	1.090180	-0.254852	0.157625
N26	N	1.590180	0.245148	0.657625
C27	C	0.736087	0.000009	0.161115
C28	C	1.236087	0.500009	0.661115
C29	C	0.631769	0.000009	0.158621
C30	C	1.131769	0.500009	0.658621
C31	C	0.548623	0.000009	0.156641
C32	C	1.048623	0.500009	0.656641
C33	C	0.444298	0.000011	0.154148
C34	C	0.944298	0.500011	0.654148
C35	C	1.090203	-0.656143	0.157647
C36	C	1.590203	-0.156143	0.657647
C37	C	1.090194	-0.544492	0.157645
C38	C	1.590194	-0.044492	0.657645
C39	C	1.090192	-0.455501	0.157637
C40	C	1.590192	0.044499	0.657637
C41	C	1.090182	-0.343843	0.157632
C42	C	1.590182	0.156157	0.657632
C43	C	1.258762	0.000005	0.149712
C44	C	1.758762	0.500005	0.649712
C45	C	1.361152	0.000011	0.152168
C46	C	1.861152	0.500011	0.652168
C47	C	1.095883	-0.000003	-0.049852
C48	C	1.595883	0.499997	0.450148
C49	C	1.093429	-0.000002	-0.175851
C50	C	1.593429	0.499998	0.324149
N51	N	1.090217	0.254859	0.157646
N52	N	1.590217	0.754859	0.657646
C53	C	1.091435	0.000001	-0.278177
C54	C	1.591435	0.500001	0.221823
C55	C	1.088942	0.000010	-0.406550
C56	C	1.588942	0.500010	0.093450
C57	C	1.084507	0.000012	0.365131
C58	C	1.584507	0.500012	0.865131
C59	C	1.086961	0.000018	0.491131
C60	C	1.586961	0.500018	0.991131
