data_functionalizedCrystal
_audit_creation_method	'MofGen! by Chris Wilmer'
_symmetry_space_group_name_H-M	'P1'
_symmetry_Int_Tables_number	1
_symmetry_cell_setting	triclinic
loop_
_symmetry_equiv_pos_as_xyz
  x,y,z
_cell_length_a	13.897449
_cell_length_b	12.645329
_cell_length_c	13.897441
_cell_angle_alpha	89.971321
_cell_angle_beta	89.979267
_cell_angle_gamma	90.019257
loop_
_atom_site_label
_atom_site_type_symbol
_atom_site_fract_x
_atom_site_fract_y
_atom_site_fract_z
Zn1	Zn	1.474701	-0.421969	-0.545394
Zn2	Zn	1.974701	0.078031	-0.045394
Zn3	Zn	1.474594	-0.599265	-0.384101
Zn4	Zn	1.974594	-0.099265	0.115899
Zn5	Zn	1.313390	-0.422020	-0.384112
Zn6	Zn	1.813390	0.077980	0.115888
Zn7	Zn	1.313371	-0.599195	-0.545353
Zn8	Zn	1.813371	-0.099195	-0.045353
O9	O	1.394014	-0.510612	-0.464740
O10	O	1.894014	-0.010612	0.035260
O11	O	1.609668	-0.445496	-0.524010
O12	O	2.109668	0.054504	-0.024010
O13	O	1.453173	-0.575803	-0.249121
O14	O	1.953173	-0.075803	0.250879
O15	O	1.334841	-0.273666	-0.405529
O16	O	1.834841	0.226334	0.094471
O17	O	1.609590	-0.575754	-0.405509
O18	O	2.109590	-0.075754	0.094491
O19	O	1.453355	-0.273629	-0.524022
O20	O	1.953355	0.226371	-0.024022
O21	O	1.334737	-0.445582	-0.249129
O22	O	1.834737	0.054418	0.250871
O23	O	1.178406	-0.445515	-0.405489
O24	O	1.678406	0.054485	0.094511
O25	O	1.334808	-0.575636	-0.680341
O26	O	1.834808	-0.075636	-0.180341
O27	O	1.178392	-0.575684	-0.523952
O28	O	1.678392	-0.075684	-0.023952
O29	O	1.453337	-0.445428	-0.680370
O30	O	1.953337	0.054572	-0.180370
O31	O	1.453155	-0.747603	-0.405470
O32	O	1.953155	-0.247603	0.094530
O33	O	1.334705	-0.747552	-0.523941
O34	O	1.834705	-0.247552	-0.023941
C35	C	1.143399	-0.510598	-0.464718
C36	C	1.643399	-0.010598	0.035282
C37	C	1.036186	-0.510618	-0.464732
C38	C	1.536186	-0.010618	0.035268
C39	C	0.839890	-0.510621	-0.464757
C40	C	1.339890	-0.010621	0.035243
C41	C	0.949123	-0.510616	-0.464740
C42	C	1.449123	-0.010616	0.035260
C43	C	1.393942	-0.786042	-0.464721
C44	C	1.893942	-0.286042	0.035279
C45	C	1.394000	-0.903872	-0.464745
C46	C	1.894000	-0.403872	0.035255
C47	C	1.319448	-0.948766	-0.539232
C48	C	1.819448	-0.448766	-0.039232
C49	C	1.319757	-1.071326	-0.539555
C50	C	1.819757	-0.571326	-0.039555
C51	C	1.495839	-1.071635	-0.492137
C52	C	1.995839	-0.571635	0.007863
C53	C	1.495318	-0.949037	-0.492647
C54	C	1.995318	-0.449037	0.007353
C55	C	1.367789	-0.949168	-0.362743
C56	C	1.867789	-0.449168	0.137257
C57	C	1.365635	-1.071776	-0.363318
C58	C	1.865635	-0.571776	0.136682
C59	C	1.645607	-0.510627	-0.464763
C60	C	2.145607	-0.010627	0.035237
C61	C	1.752821	-0.510634	-0.464772
C62	C	2.252821	-0.010634	0.035228
C63	C	1.394082	-0.510519	-0.716333
C64	C	1.894082	-0.010519	-0.216333
C65	C	1.394111	-0.510479	-0.823547
C66	C	1.894111	-0.010479	-0.323547
C67	C	1.394112	-0.234107	-0.464781
C68	C	1.894112	0.265893	0.035219
C69	C	1.394154	-0.116277	-0.464798
C70	C	1.894154	0.383723	0.035202
C71	C	1.394138	-0.510407	-1.019843
C72	C	1.894138	-0.010407	-0.519843
C73	C	1.394120	-0.510450	-0.910610
C74	C	1.894120	-0.010450	-0.410610
C75	C	1.394001	-0.510629	-0.214126
C76	C	1.894001	-0.010629	0.285874
C77	C	1.394159	-0.510370	-0.106912
C78	C	1.894159	-0.010370	0.393088
H79	H	1.243773	-0.919395	-0.522332
H80	H	1.743773	-0.419395	-0.022332
H81	H	1.294859	-0.918350	-0.337795
H82	H	1.794859	-0.418350	0.162205
O83	O	1.564082	-1.106406	-0.429566
O84	O	2.064082	-0.606406	0.070434
C85	C	1.634469	-1.164355	-0.480119
C86	C	2.134469	-0.664355	0.019881
H87	H	1.634162	-1.139535	-0.558988
H88	H	2.134162	-0.639535	-0.058988
H89	H	1.708333	-1.147956	-0.447734
H90	H	2.208333	-0.647956	0.052266
H91	H	1.617830	-1.252431	-0.474514
H92	H	2.117830	-0.752431	0.025486
O93	O	1.340072	-0.911870	-0.628832
O94	O	1.840072	-0.411870	-0.128832
C95	C	1.421561	-0.845597	-0.624491
C96	C	1.921561	-0.345597	-0.124491
H97	H	1.465803	-0.866081	-0.557989
H98	H	1.965803	-0.366081	-0.057989
H99	H	1.467305	-0.857569	-0.691713
H100	H	1.967305	-0.357569	-0.191713
H101	H	1.397469	-0.759554	-0.620260
H102	H	1.897469	-0.259554	-0.120260
H103	H	1.290801	-1.100969	-0.342696
H104	H	1.790801	-0.600969	0.157304
H105	H	1.517505	-0.920359	-0.567202
H106	H	2.017505	-0.420359	-0.067202
H107	H	1.518454	-1.102256	-0.565889
H108	H	2.018454	-0.602256	-0.065889
H109	H	1.415990	-1.102390	-0.304883
H110	H	1.915990	-0.602390	0.195117
H111	H	1.422082	-0.920122	-0.307247
H112	H	1.922082	-0.420122	0.192753
O113	O	1.340486	-1.106410	-0.629689
O114	O	1.840486	-0.606410	-0.129689
C115	C	1.340873	-1.217906	-0.630333
C116	C	1.840873	-0.717906	-0.130333
H117	H	1.295507	-1.248629	-0.567932
H118	H	1.795507	-0.748629	-0.067932
H119	H	1.309532	-1.247570	-0.701150
H120	H	1.809532	-0.747570	-0.201150
H121	H	1.417890	-1.247676	-0.622438
H122	H	1.917890	-0.747676	-0.122438
O123	O	1.229821	-1.107472	-0.519326
O124	O	1.729821	-0.607472	-0.019326
C125	C	1.196125	-1.169140	-0.596810
C126	C	1.696125	-0.669140	-0.096810
H127	H	1.259968	-1.200447	-0.639715
H128	H	1.759968	-0.700447	-0.139715
H129	H	1.152262	-1.238410	-0.567883
H130	H	1.652262	-0.738410	-0.067883
H131	H	1.148900	-1.118431	-0.645486
H132	H	1.648900	-0.618431	-0.145486
O133	O	1.563803	-0.913709	-0.430603
O134	O	2.063803	-0.413709	0.069397
C135	C	1.543482	-0.951176	-0.337208
C136	C	2.043482	-0.451176	0.162792
H137	H	1.496744	-1.025074	-0.342164
H138	H	1.996744	-0.525074	0.157836
H139	H	1.613671	-0.971252	-0.298912
H140	H	2.113671	-0.471252	0.201088
H141	H	1.503601	-0.887501	-0.295026
H142	H	2.003601	-0.387501	0.204974
