data_functionalizedCrystal
_audit_creation_method	'MofGen! by Chris Wilmer'
_symmetry_space_group_name_H-M	'P1'
_symmetry_Int_Tables_number	1
_symmetry_cell_setting	triclinic
loop_
_symmetry_equiv_pos_as_xyz
  x,y,z
_cell_length_a	14.519709
_cell_length_b	10.489741
_cell_length_c	13.596369
_cell_angle_alpha	89.999913
_cell_angle_beta	89.999684
_cell_angle_gamma	84.109659
loop_
_atom_site_label
_atom_site_type_symbol
_atom_site_fract_x
_atom_site_fract_y
_atom_site_fract_z
O1	O	1.224781	0.167193	-0.081663
O2	O	1.724781	0.667193	0.418337
O3	O	0.956411	0.186883	-0.081693
O4	O	1.456411	0.686883	0.418307
O5	O	1.096703	-0.008624	-0.081671
O6	O	1.596703	0.491376	0.418329
O7	O	1.084490	0.362699	-0.081684
O8	O	1.584490	0.862699	0.418316
O9	O	1.096686	-0.008613	0.081912
O10	O	1.596686	0.491387	0.581912
O11	O	0.956394	0.186894	0.081890
O12	O	1.456394	0.686894	0.581890
O13	O	1.224764	0.167204	0.081920
O14	O	1.724764	0.667204	0.581920
Zn15	Zn	1.090576	0.177050	0.107878
Zn16	Zn	1.590576	0.677050	0.607878
Zn17	Zn	1.090599	0.177036	-0.107650
Zn18	Zn	1.590599	0.677036	0.392350
O19	O	1.084472	0.362710	0.081899
O20	O	1.584472	0.862710	0.581899
C21	C	0.922038	0.185971	0.000095
C22	C	1.422038	0.685971	0.500095
C23	C	0.819642	0.183221	0.000084
C24	C	1.319642	0.683221	0.500084
C25	C	0.444691	0.173098	0.000129
C26	C	0.944691	0.673098	0.500129
C27	C	0.549014	0.175909	0.000116
C28	C	1.049014	0.675909	0.500116
C29	C	0.632163	0.178159	0.000105
C30	C	1.132163	0.678159	0.500105
C31	C	0.736493	0.180971	0.000094
C32	C	1.236493	0.680971	0.500094
C33	C	1.095772	-0.056140	0.000120
C34	C	1.595772	0.443860	0.500120
C35	C	1.093012	-0.197741	0.000118
C36	C	1.593012	0.302259	0.500118
C37	C	1.003749	-0.264951	0.000100
C38	C	1.503749	0.235049	0.500100
C39	C	1.045907	-0.357507	0.080760
C40	C	1.545907	0.142493	0.580760
C41	C	1.045946	-0.357493	-0.080520
C42	C	1.545946	0.142507	0.419480
C43	C	1.135207	-0.288433	0.080844
C44	C	1.635207	0.211567	0.580844
C45	C	1.135233	-0.288408	-0.080509
C46	C	1.635233	0.211592	0.419491
C47	C	1.177457	-0.380938	0.000171
C48	C	1.677457	0.119062	0.500171
C49	C	1.259137	0.168116	0.000130
C50	C	1.759137	0.668116	0.500130
C51	C	1.361533	0.170866	0.000135
C52	C	1.861533	0.670866	0.500135
C53	C	1.085403	0.410227	0.000106
C54	C	1.585403	0.910227	0.500106
C55	C	1.088163	0.551828	0.000101
C56	C	1.588163	1.051828	0.500101
N57	N	1.090567	0.177059	0.254969
N58	N	1.590567	0.677059	0.754969
N59	N	1.090615	0.177017	-0.254742
N60	N	1.590615	0.677017	0.245258
C61	C	1.090572	0.177062	0.343967
C62	C	1.590572	0.677062	0.843967
C63	C	1.090581	0.177054	0.455619
C64	C	1.590581	0.677054	0.955619
C65	C	1.090593	0.177039	0.544609
C66	C	1.590593	0.677039	1.044609
C67	C	1.090603	0.177032	0.656268
C68	C	1.590603	0.677032	1.156268
H69	H	1.008131	-0.388121	0.148944
H70	H	1.508131	0.111879	0.648944
C71	C	1.186174	-0.247318	0.173075
C72	C	1.686174	0.252682	0.673075
C73	C	1.198167	-0.104838	0.190148
C74	C	1.698167	0.395162	0.690148
C75	C	1.249129	-0.063720	0.282379
C76	C	1.749129	0.436280	0.782379
C77	C	1.288097	-0.165082	0.357536
C78	C	1.788097	0.334918	0.857536
C79	C	1.276105	-0.307571	0.340465
C80	C	1.776105	0.192429	0.840465
C81	C	1.225143	-0.348689	0.248234
C82	C	1.725143	0.151311	0.748234
H83	H	1.169320	-0.029796	0.134511
H84	H	1.669320	0.470204	0.634511
H85	H	1.258006	0.041760	0.295016
H86	H	1.758006	0.541760	0.795016
H87	H	1.325822	-0.134644	0.425811
H88	H	1.825822	0.365356	0.925811
H89	H	1.304952	-0.382613	0.396103
H90	H	1.804952	0.117387	0.896103
H91	H	1.216266	-0.454169	0.235597
H92	H	1.716266	0.045831	0.735597
H93	H	1.008172	-0.388067	-0.148718
H94	H	1.508172	0.111933	0.351282
H95	H	1.250914	-0.431128	0.000224
H96	H	1.750914	0.068872	0.500224
C97	C	1.186224	-0.246993	-0.172622
C98	C	1.686224	0.253007	0.327378
C99	C	1.224529	-0.347981	-0.248374
C100	C	1.724529	0.152019	0.251626
C101	C	1.275510	-0.306560	-0.340497
C102	C	1.775510	0.193440	0.159503
C103	C	1.288187	-0.164152	-0.356869
C104	C	1.788187	0.335848	0.143131
C105	C	1.249882	-0.063154	-0.281115
C106	C	1.749882	0.436846	0.218885
C107	C	1.198900	-0.104575	-0.188992
C108	C	1.698900	0.395425	0.311008
H109	H	1.215145	-0.453408	-0.236257
H110	H	1.715145	0.046592	0.263743
H111	H	1.303867	-0.381326	-0.396575
H112	H	1.803867	0.118674	0.103425
H113	H	1.325927	-0.133490	-0.425064
H114	H	1.825927	0.366510	0.074936
H115	H	1.259265	0.042273	-0.293232
H116	H	1.759265	0.542273	0.206768
H117	H	1.170544	-0.029809	-0.132914
H118	H	1.670544	0.470191	0.367086
C119	C	0.904606	-0.196830	0.000193
C120	C	1.404606	0.303170	0.500193
C121	C	0.838377	-0.218599	0.085633
C122	C	1.338377	0.281401	0.585633
C123	C	0.739238	-0.150477	0.085731
C124	C	1.239238	0.349523	0.585731
C125	C	0.706327	-0.060586	0.000389
C126	C	1.206327	0.439414	0.500389
C127	C	0.772556	-0.038813	-0.085057
C128	C	1.272556	0.461187	0.414943
C129	C	0.871696	-0.106935	-0.085155
C130	C	1.371696	0.393065	0.414845
H131	H	0.862739	-0.285145	0.148814
H132	H	1.362739	0.214855	0.648814
H133	H	0.690211	-0.166595	0.148985
H134	H	1.190211	0.333405	0.648985
H135	H	0.632938	-0.010158	0.000461
H136	H	1.132938	0.489842	0.500461
H137	H	0.748194	0.027734	-0.148239
H138	H	1.248194	0.527734	0.351761
H139	H	0.920723	-0.090817	-0.148409
H140	H	1.420723	0.409183	0.351591
