data_functionalizedCrystal
_audit_creation_method	'MofGen! by Chris Wilmer'
_symmetry_space_group_name_H-M	'P1'
_symmetry_Int_Tables_number	1
_symmetry_cell_setting	triclinic
loop_
_symmetry_equiv_pos_as_xyz
  x,y,z
_cell_length_a	23.532355
_cell_length_b	15.500228
_cell_length_c	17.019370
_cell_angle_alpha	91.039065
_cell_angle_beta	83.111524
_cell_angle_gamma	92.826992
loop_
_atom_site_label
_atom_site_type_symbol
_atom_site_fract_x
_atom_site_fract_y
_atom_site_fract_z
O1	O	-0.753209	0.064504	-0.098865
O2	O	-0.253209	0.564504	0.401135
O3	O	-0.587424	0.063492	-0.112711
O4	O	-0.087424	0.563492	0.387289
O5	O	-0.674628	0.072514	0.008645
O6	O	-0.174628	0.572514	0.508645
O7	O	-0.666005	0.055482	-0.220220
O8	O	-0.166005	0.555482	0.279780
O9	O	-0.679915	-0.070829	0.015987
O10	O	-0.179915	0.429171	0.515987
O11	O	-0.592711	-0.079851	-0.105369
O12	O	-0.092711	0.420149	0.394631
O13	O	-0.758495	-0.078839	-0.091522
O14	O	-0.258495	0.421161	0.408478
Cu15	Cu	-0.676086	-0.092433	-0.097775
Cu16	Cu	-0.176086	0.407567	0.402225
Cu17	Cu	-0.669834	0.077087	-0.106458
Cu18	Cu	-0.169834	0.577087	0.393542
O19	O	-0.671291	-0.087860	-0.212878
O20	O	-0.171291	0.412140	0.287122
C21	C	-0.568849	-0.008151	-0.108694
C22	C	-0.068849	0.491849	0.391306
C23	C	-0.505623	-0.008067	-0.107654
C24	C	-0.005623	0.491933	0.392346
C25	C	-0.229470	0.070400	-0.107105
C26	C	0.270530	0.570400	0.392895
C27	C	-0.288876	0.070329	-0.108090
C28	C	0.211124	0.570329	0.391910
O29	O	-0.317154	0.136744	-0.111976
O30	O	0.182846	0.636744	0.388024
N31	N	-0.321466	-0.007844	-0.104585
N32	N	0.178534	0.492156	0.395415
C33	C	-0.294649	-0.085951	-0.100087
C34	C	0.205351	0.414049	0.399913
O35	O	-0.327825	-0.152450	-0.097195
O36	O	0.172175	0.347550	0.402805
C37	C	-0.235245	-0.085879	-0.099096
C38	C	0.264755	0.414121	0.400904
C39	C	-0.202656	-0.007702	-0.102609
C40	C	0.297344	0.492298	0.397391
C41	C	-0.196882	0.148571	-0.110617
C42	C	0.303118	0.648571	0.389383
C43	C	-0.137480	0.148641	-0.109633
C44	C	0.362520	0.648641	0.390367
C45	C	-0.110666	0.070540	-0.105138
C46	C	0.389334	0.570540	0.394862
C47	C	-0.143255	-0.007632	-0.101626
C48	C	0.356745	0.492368	0.398374
C49	C	-0.208429	-0.163985	-0.094592
C50	C	0.291571	0.336015	0.405408
C51	C	-0.149021	-0.163907	-0.093601
C52	C	0.350979	0.336093	0.406399
C53	C	-0.116432	-0.085729	-0.097115
C54	C	0.383568	0.414271	0.402885
C55	C	-0.057039	-0.085663	-0.096147
C56	C	0.442961	0.414337	0.403853
N57	N	-0.024449	-0.007490	-0.099652
N58	N	0.475551	0.492510	0.400348
C59	C	-0.051262	0.070612	-0.104147
C60	C	0.448738	0.570612	0.395853
C61	C	-0.419402	-0.086096	-0.102166
C62	C	0.080598	0.413904	0.397834
C63	C	-0.478804	-0.086169	-0.103162
C64	C	0.021196	0.413831	0.396838
C65	C	-0.473027	0.070112	-0.111164
C66	C	0.026973	0.570112	0.388836
C67	C	-0.413623	0.070184	-0.110173
C68	C	0.086377	0.570184	0.389827
C69	C	-0.386811	-0.007923	-0.105671
C70	C	0.113189	0.492077	0.394329
C71	C	0.073486	0.070753	-0.102082
C72	C	0.573486	0.570753	0.397918
C73	C	0.132893	0.070816	-0.101101
C74	C	0.632893	0.570816	0.398899
C75	C	0.127110	-0.085464	-0.093096
C76	C	0.627110	0.414536	0.406904
C77	C	0.067708	-0.085528	-0.094081
C78	C	0.567708	0.414472	0.405919
C79	C	0.040898	-0.007412	-0.098571
C80	C	0.540898	0.492588	0.401429
O81	O	-0.028722	-0.152043	-0.092259
O82	O	0.471278	0.347957	0.407741
O83	O	-0.018081	0.137100	-0.107027
O84	O	0.481919	0.637100	0.392973
C85	C	-0.676840	0.003023	0.041590
C86	C	-0.176840	0.503023	0.541590
C87	C	-0.675548	0.009520	0.128818
C88	C	-0.175548	0.509520	0.628818
C89	C	0.222930	-0.007197	-0.095546
C90	C	0.722930	0.492803	0.404454
C91	C	0.159706	-0.007286	-0.096606
C92	C	0.659706	0.492714	0.403394
N93	N	-0.665436	0.196318	-0.112560
N94	N	-0.165436	0.696318	0.387440
N95	N	-0.680487	-0.211664	-0.091667
N96	N	-0.180487	0.288336	0.408333
C97	C	-0.702459	0.245410	-0.061235
C98	C	-0.202459	0.745410	0.438765
C99	C	-0.699132	0.335640	-0.065848
C100	C	-0.199132	0.835640	0.434152
C101	C	-0.658780	0.376776	-0.121782
C102	C	-0.158780	0.876776	0.378218
C103	C	-0.621756	0.327677	-0.173112
C104	C	-0.121756	0.827677	0.326888
C105	C	-0.625086	0.237449	-0.168503
C106	C	-0.125086	0.737449	0.331497
C107	C	-0.646793	0.649009	-0.138387
C108	C	-0.146793	1.149009	0.361613
C109	C	-0.643465	0.739244	-0.142992
C110	C	-0.143465	1.239244	0.357008
C111	C	-0.720842	0.747200	-0.035728
C112	C	-0.220842	1.247200	0.464272
C113	C	-0.724166	0.656970	-0.031120
C114	C	-0.224166	1.156970	0.468880
C115	C	-0.687144	0.607879	-0.082453
C116	C	-0.187144	1.107879	0.417547
C117	C	-0.655378	0.469006	-0.126497
C118	C	-0.155378	0.969006	0.373503
C119	C	-0.690550	0.515651	-0.077741
C120	C	-0.190550	1.015651	0.422259
C121	C	-0.669079	-0.018368	-0.245823
C122	C	-0.169079	0.481632	0.254177
C123	C	-0.670371	-0.024859	-0.333052
C124	C	-0.170371	0.475141	0.166948
C125	C	-0.677821	-0.065560	0.173807
C126	C	-0.177821	0.434440	0.673807
C127	C	-0.676611	-0.059447	0.255767
C128	C	-0.176611	0.440553	0.755767
C129	C	-0.673122	0.021746	0.292736
C130	C	-0.173122	0.521746	0.792736
C131	C	-0.670851	0.096832	0.247741
C132	C	-0.170851	0.596832	0.747741
C133	C	-0.672066	0.090718	0.165784
C134	C	-0.172066	0.590718	0.665784
C135	C	-0.669314	0.044113	0.539996
C136	C	-0.169314	0.544113	1.039996
C137	C	-0.668098	0.050221	0.621960
C138	C	-0.168098	0.550221	1.121960
C139	C	-0.673859	-0.106059	0.629980
C140	C	-0.173859	0.393941	1.129980
C141	C	-0.675070	-0.112165	0.548019
C142	C	-0.175070	0.387835	1.048019
C143	C	-0.672801	-0.037079	0.503032
C144	C	-0.172801	0.462921	1.003032
C145	C	-0.671883	0.027996	0.376512
C146	C	-0.171883	0.527996	0.876512
C147	C	-0.674045	-0.043330	0.419259
C148	C	-0.174045	0.456670	0.919259
H149	H	-0.387093	0.133843	-0.113034
H150	H	0.112907	0.633843	0.386966
H151	H	-0.669042	0.094104	0.406621
H152	H	-0.169042	0.594104	0.906621
Cl153	Cl	-0.230579	0.246770	-0.116268
Cl154	Cl	0.269421	0.746770	0.383732
Cl155	Cl	0.160830	-0.183644	-0.087446
Cl156	Cl	0.660830	0.316356	0.412554
Cl157	Cl	-0.767499	0.808907	0.028637
Cl158	Cl	-0.267499	1.308907	0.528637
Cl159	Cl	0.173858	0.169104	-0.105520
Cl160	Cl	0.673858	0.669104	0.394480
H161	H	-0.594939	0.197478	-0.210297
H162	H	-0.094939	0.697478	0.289703
H163	H	-0.735315	0.211924	-0.015684
H164	H	-0.235315	0.711924	0.484316
Cl165	Cl	-0.741278	0.463936	-0.007428
Cl166	Cl	-0.241278	0.963936	0.492572
Cl167	Cl	-0.745675	0.397358	-0.001326
Cl168	Cl	-0.245675	0.897358	0.498674
H169	H	0.051664	0.134362	-0.105740
H170	H	0.551664	0.634362	0.394260
Cl171	Cl	-0.666459	0.138507	0.483451
Cl172	Cl	-0.166459	0.638507	0.983451
Cl173	Cl	-0.115319	-0.262104	-0.087937
Cl174	Cl	0.384681	0.237896	0.412063
Cl175	Cl	-0.519764	-0.184455	-0.098762
Cl176	Cl	-0.019764	0.315545	0.401238
H177	H	-0.757024	0.623479	0.014426
H178	H	-0.257024	1.123479	0.514426
H179	H	-0.610604	0.772732	-0.188543
H180	H	-0.110604	1.272732	0.311457
H181	H	-0.494869	0.133706	-0.114824
H182	H	0.005131	0.633706	0.385176
H183	H	-0.665252	0.116341	0.652056
H184	H	-0.165252	0.616341	1.152056
H185	H	-0.397575	-0.149704	-0.098510
H186	H	0.102425	0.350296	0.401490
H187	H	-0.616648	0.609046	-0.180183
H188	H	-0.116648	1.109046	0.319817
H189	H	-0.675707	-0.167189	0.666617
H190	H	-0.175707	0.332811	1.166617
H191	H	-0.622521	0.502506	-0.172039
H192	H	-0.122521	1.002506	0.327961
H193	H	-0.678464	-0.120585	0.292394
H194	H	-0.178464	0.379415	0.792394
H195	H	-0.234953	-0.227646	-0.091729
H196	H	0.265047	0.272354	0.408271
Cl197	Cl	-0.096521	0.246928	-0.114042
Cl198	Cl	0.403479	0.746928	0.385958
Cl199	Cl	-0.571030	0.379389	-0.243435
Cl200	Cl	-0.071030	0.879389	0.256565
Cl201	Cl	-0.682204	-0.167637	0.127340
Cl202	Cl	-0.182204	0.332363	0.627340
H203	H	0.041175	-0.149188	-0.091236
H204	H	0.541175	0.350812	0.408764
Cl205	Cl	-0.679440	-0.214241	0.501548
Cl206	Cl	-0.179440	0.285759	1.001548
Cl207	Cl	-0.666473	0.198904	0.294218
Cl208	Cl	-0.166473	0.698904	0.794218
Cl209	Cl	-0.669210	0.185109	0.109226
Cl210	Cl	-0.169210	0.685109	0.609226
Cl211	Cl	-0.678432	-0.145398	0.372783
Cl212	Cl	-0.178432	0.354602	0.872783
