data_functionalizedCrystal
_audit_creation_method	'MofGen! by Chris Wilmer'
_symmetry_space_group_name_H-M	'P1'
_symmetry_Int_Tables_number	1
_symmetry_cell_setting	triclinic
loop_
_symmetry_equiv_pos_as_xyz
  x,y,z
_cell_length_a	14.971486
_cell_length_b	14.971496
_cell_length_c	12.376903
_cell_angle_alpha	77.345530
_cell_angle_beta	77.351131
_cell_angle_gamma	83.616127
loop_
_atom_site_label
_atom_site_type_symbol
_atom_site_fract_x
_atom_site_fract_y
_atom_site_fract_z
O1	O	-1.171658	-0.101254	-0.093872
O2	O	-0.671658	0.398746	0.406128
O3	O	-0.911253	-0.115208	-0.093903
O4	O	-0.411253	0.384792	0.406097
O5	O	-1.048432	0.021967	-0.093877
O6	O	-0.548432	0.521967	0.406123
O7	O	-1.034479	-0.238429	-0.093899
O8	O	-0.534479	0.261571	0.406101
O9	O	-1.079043	-0.008687	0.094123
O10	O	-0.579043	0.491313	0.594123
O11	O	-0.941864	-0.145861	0.094096
O12	O	-0.441864	0.354139	0.594096
O13	O	-1.202269	-0.131907	0.094128
O14	O	-0.702269	0.368093	0.594128
Zn15	Zn	-1.076927	-0.143751	0.123961
Zn16	Zn	-0.576927	0.356249	0.623961
Zn17	Zn	-1.036596	-0.103364	-0.123737
Zn18	Zn	-0.536596	0.396636	0.376263
O19	O	-1.065090	-0.269082	0.094101
O20	O	-0.565090	0.230918	0.594101
C21	C	-0.893234	-0.129910	0.000093
C22	C	-0.393234	0.370090	0.500093
C23	C	-0.793935	-0.128037	0.000081
C24	C	-0.293935	0.371963	0.500081
C25	C	-1.063113	0.039965	0.000123
C26	C	-0.563113	0.539965	0.500123
C27	C	-1.061238	0.139261	0.000123
C28	C	-0.561238	0.639261	0.500123
C29	C	-1.220289	-0.117205	0.000129
C30	C	-0.720289	0.382795	0.500129
C31	C	-1.319586	-0.119077	0.000133
C32	C	-0.819586	0.380923	0.500133
C33	C	-1.050410	-0.287080	0.000099
C34	C	-0.550410	0.212920	0.500099
C35	C	-1.052283	-0.386375	0.000091
C36	C	-0.552283	0.113625	0.500091
C37	C	-0.736711	-0.208625	0.000076
C38	C	-0.236711	0.291375	0.500076
C39	C	-0.643414	-0.206865	0.000093
C40	C	-0.143414	0.293135	0.500093
C41	C	-0.607342	-0.124514	0.000107
C42	C	-0.107342	0.375486	0.500107
C43	C	-0.664573	-0.043921	0.000116
C44	C	-0.164573	0.456079	0.500116
C45	C	-0.757869	-0.045683	0.000107
C46	C	-0.257869	0.454317	0.500107
C47	C	-0.470113	-0.040252	0.000132
C48	C	0.029887	0.459748	0.500132
C49	C	-0.376810	-0.038489	0.000138
C50	C	0.123190	0.461511	0.500138
C51	C	-0.355658	-0.201434	0.000118
C52	C	0.144342	0.298566	0.500118
C53	C	-0.448954	-0.203196	0.000109
C54	C	0.051046	0.296804	0.500109
C55	C	-0.506179	-0.122602	0.000115
C56	C	-0.006179	0.377398	0.500115
N57	N	-1.104459	-0.171314	0.293008
N58	N	-0.604459	0.328686	0.793008
C59	C	-1.036479	0.583679	-0.102386
C60	C	-0.536479	1.083679	0.397614
C61	C	-1.038246	0.490379	-0.102380
C62	C	-0.538246	0.990379	0.397620
C63	C	-1.055810	0.427026	0.000103
C64	C	-0.555810	0.927026	0.500103
C65	C	-1.071617	0.456977	0.102587
C66	C	-0.571617	0.956977	0.602587
C67	C	-1.069856	0.550277	0.102581
C68	C	-0.569856	1.050277	0.602581
C69	C	-1.075283	0.262513	0.102593
C70	C	-0.575283	0.762513	0.602593
C71	C	-1.077042	0.169207	0.102600
C72	C	-0.577042	0.669207	0.602600
C73	C	-1.043672	0.202616	-0.102368
C74	C	-0.543672	0.702616	0.397632
C75	C	-1.041912	0.295915	-0.102374
C76	C	-0.541912	0.795915	0.397626
C77	C	-1.057718	0.325860	0.000111
C78	C	-0.557718	0.825860	0.500111
C79	C	-0.945119	-0.011817	0.648058
C80	C	-0.445119	0.488183	1.148058
C81	C	-0.925836	0.007476	0.529726
C82	C	-0.425836	0.507476	1.029726
C83	C	-0.970490	-0.037220	0.470541
C84	C	-0.470490	0.462780	0.970541
C85	C	-1.034431	-0.101212	0.529699
C86	C	-0.534431	0.398788	1.029699
C87	C	-1.053722	-0.120502	0.648043
C88	C	-0.553722	0.379498	1.148043
C89	C	-1.079092	-0.145905	0.470525
C90	C	-0.579092	0.354095	0.970525
C91	C	-1.143034	-0.209897	0.529684
C92	C	-0.643034	0.290103	1.029684
C93	C	-1.162321	-0.229184	0.648016
C94	C	-0.662321	0.270816	1.148016
C95	C	-1.117667	-0.184488	0.707201
C96	C	-0.617667	0.315512	1.207201
C97	C	-1.059801	-0.126615	0.352182
C98	C	-0.559801	0.373385	0.852182
C99	C	-1.168404	-0.235300	0.352166
C100	C	-0.668404	0.264700	0.852166
C101	C	-1.187688	-0.254593	0.470498
C102	C	-0.687688	0.245407	0.970498
N103	N	-1.009064	-0.075803	0.707216
N104	N	-0.509064	0.424197	1.207216
H105	H	-0.766074	-0.275684	0.000064
H106	H	-0.266074	0.224316	0.500064
Cl107	Cl	-0.619225	0.059606	0.000140
Cl108	Cl	-0.119225	0.559606	0.500140
Cl109	Cl	-0.979421	-0.046171	0.277826
Cl110	Cl	-0.479421	0.453829	0.777826
H111	H	-0.954784	-0.021508	0.374189
H112	H	-0.454784	0.478492	0.874189
H113	H	-1.204766	-0.271694	0.303978
H114	H	-0.704766	0.228306	0.803978
Cl115	Cl	-0.283720	-0.302753	0.000112
Cl116	Cl	0.216280	0.197247	0.500112
H117	H	-0.596826	-0.272488	0.000088
H118	H	-0.096826	0.227512	0.500088
H119	H	-0.478320	-0.270252	0.000087
H120	H	0.021680	0.229748	0.500087
H121	H	-0.347443	0.028568	0.000151
H122	H	0.152557	0.528568	0.500151
Cl123	Cl	-1.099144	0.089566	0.231438
Cl124	Cl	-0.599144	0.589566	0.731438
Cl125	Cl	-0.542051	0.061068	0.000142
Cl126	Cl	-0.042051	0.561068	0.500142
H127	H	-0.804460	0.019940	0.000110
H128	H	-0.304460	0.519940	0.500110
Cl129	Cl	-0.845432	0.087895	0.455364
Cl130	Cl	-0.345432	0.587895	0.955364
H131	H	-1.022169	0.635256	-0.185839
H132	H	-0.522169	1.135256	0.314161
H133	H	-1.025379	0.466003	-0.185827
H134	H	-0.525379	0.966003	0.314173
Cl135	Cl	-1.141899	-0.208748	0.855968
Cl136	Cl	-0.641899	0.291252	1.355968
Cl137	Cl	-0.888995	0.044368	0.722467
Cl138	Cl	-0.388995	0.544368	1.222467
H139	H	-1.027605	0.347495	-0.185825
H140	H	-0.527605	0.847495	0.314175
H141	H	-1.030796	0.178230	-0.185815
H142	H	-0.530796	0.678230	0.314185
H143	H	-1.214394	-0.281282	0.696179
H144	H	-0.714394	0.218718	1.196179
Cl145	Cl	-1.268068	-0.335039	0.544882
Cl146	Cl	-0.768068	0.164961	1.044882
Cl147	Cl	-1.095158	0.300157	0.231434
Cl148	Cl	-0.595158	0.800157	0.731434
H149	H	-1.085923	0.405388	0.186031
H150	H	-0.585923	0.905388	0.686031
H151	H	-1.082725	0.574656	0.186028
H152	H	-0.582725	1.074656	0.686028
