data_functionalizedCrystal
_audit_creation_method	'MofGen! by Chris Wilmer'
_symmetry_space_group_name_H-M	'P1'
_symmetry_Int_Tables_number	1
_symmetry_cell_setting	triclinic
loop_
_symmetry_equiv_pos_as_xyz
  x,y,z
_cell_length_a	19.077236
_cell_length_b	12.594516
_cell_length_c	19.076919
_cell_angle_alpha	87.723714
_cell_angle_beta	90.112677
_cell_angle_gamma	92.311142
loop_
_atom_site_label
_atom_site_type_symbol
_atom_site_fract_x
_atom_site_fract_y
_atom_site_fract_z
Zn1	Zn	1.058319	-0.386370	0.440563
Zn2	Zn	1.558319	0.113630	0.940563
Zn3	Zn	1.062971	-0.556943	0.323065
Zn4	Zn	1.562971	-0.056943	0.823065
Zn5	Zn	0.945534	-0.385812	0.318343
Zn6	Zn	1.445534	0.114188	0.818343
Zn7	Zn	0.940791	-0.571143	0.435804
Zn8	Zn	1.440791	-0.071143	0.935804
O9	O	1.001904	-0.475067	0.379444
O10	O	1.501904	0.024933	0.879444
O11	O	1.157269	-0.403288	0.428944
O12	O	1.657269	0.096712	0.928944
O13	O	1.051324	-0.528066	0.224108
O14	O	1.551324	-0.028066	0.724108
O15	O	0.960533	-0.236939	0.334571
O16	O	1.460533	0.263061	0.834571
O17	O	1.160687	-0.528607	0.342620
O18	O	1.660687	-0.028607	0.842620
O19	O	1.043396	-0.237349	0.424365
O20	O	1.543396	0.262651	0.924365
O21	O	0.965044	-0.402337	0.220638
O22	O	1.465044	0.097663	0.720638
O23	O	0.846572	-0.416106	0.329956
O24	O	1.346572	0.083894	0.829956
O25	O	0.952449	-0.552809	0.534767
O26	O	1.452449	-0.052809	1.034767
O27	O	0.843087	-0.552268	0.416255
O28	O	1.343087	-0.052268	0.916255
O29	O	1.038796	-0.417057	0.538263
O30	O	1.538796	0.082943	1.038263
O31	O	1.046725	-0.707774	0.338005
O32	O	1.546725	-0.207774	0.838005
O33	O	0.956960	-0.718207	0.420834
O34	O	1.456960	-0.218207	0.920834
C35	C	0.819332	-0.485668	0.372077
C36	C	1.319332	0.014332	0.872077
C37	C	0.741227	-0.490230	0.368943
C38	C	1.241227	0.009770	0.868943
C39	C	0.702751	-0.427238	0.412483
C40	C	1.202751	0.072762	0.912483
C41	C	0.629363	-0.431519	0.409532
C42	C	1.129363	0.068481	0.909532
C43	C	0.594452	-0.498797	0.363043
C44	C	1.094452	0.001203	0.863043
C45	C	0.632933	-0.561791	0.319497
C46	C	1.132933	-0.061791	0.819497
C47	C	0.706320	-0.557504	0.322446
C48	C	1.206320	-0.057504	0.822446
C49	C	0.375160	-0.518598	0.349394
C50	C	0.875160	-0.018598	0.849394
C51	C	0.301768	-0.522883	0.346451
C52	C	0.801768	-0.022883	0.846451
C53	C	0.298203	-0.392608	0.436484
C54	C	0.798203	0.107392	0.936484
C55	C	0.371592	-0.388332	0.439432
C56	C	0.871592	0.111668	0.939432
C57	C	0.410066	-0.451321	0.395884
C58	C	0.910066	0.048679	0.895884
N59	N	0.519438	-0.503177	0.360026
N60	N	1.019438	-0.003177	0.860026
N61	N	0.485079	-0.446936	0.398897
N62	N	0.985079	0.053064	0.898897
C63	C	1.001851	-0.751611	0.379432
C64	C	1.501851	-0.251611	0.879432
C65	C	1.001892	-0.869915	0.379453
C66	C	1.501892	-0.369915	0.879453
C67	C	0.953108	-1.015641	0.424481
C68	C	1.453108	-0.515641	0.924481
C69	C	1.016476	-0.942094	0.444299
C70	C	1.516476	-0.442094	0.944299
C71	C	0.938529	-0.941891	0.359667
C72	C	1.438529	-0.441891	0.859667
C73	C	1.065407	-1.007149	0.399336
C74	C	1.565407	-0.507149	0.899336
C75	C	0.987417	-1.006953	0.314672
C76	C	1.487417	-0.506953	0.814672
C77	C	1.050831	-0.933434	0.334467
C78	C	1.550831	-0.433434	0.834467
C79	C	1.185188	-0.464426	0.386840
C80	C	1.685188	0.035574	0.886840
C81	C	1.263292	-0.459891	0.389991
C82	C	1.763292	0.040109	0.889991
C83	C	0.994575	-0.486579	0.562724
C84	C	1.494575	0.013421	1.062724
C85	C	0.991452	-0.491485	0.640827
C86	C	1.491452	0.008515	1.140827
C87	C	1.001975	-0.197444	0.379472
C88	C	1.501975	0.302556	0.879472
C89	C	1.002005	-0.079137	0.379484
C90	C	1.502005	0.420863	0.879484
C91	C	1.009244	-0.463521	0.196879
C92	C	1.509244	0.036479	0.696879
C93	C	1.012503	-0.458307	0.118781
C94	C	1.512503	0.041693	0.618781
C95	C	1.034938	-0.423114	0.679341
C96	C	1.534938	0.076886	1.179341
C97	C	1.031995	-0.427720	0.752727
C98	C	1.531995	0.072280	1.252727
C99	C	0.985569	-0.500702	0.787597
C100	C	1.485569	-0.000702	1.287597
C101	C	0.942077	-0.569076	0.749077
C102	C	1.442077	-0.069076	1.249077
C103	C	0.945017	-0.564464	0.675693
C104	C	1.445017	-0.064464	1.175693
C105	C	0.971952	-0.522069	1.006877
C106	C	1.471952	-0.022069	1.506877
C107	C	0.969017	-0.526678	1.080267
C108	C	1.469017	-0.026678	1.580267
C109	C	1.058934	-0.385320	1.083911
C110	C	1.558934	0.114680	1.583911
C111	C	1.061873	-0.380719	1.010525
C112	C	1.561873	0.119281	1.510525
C113	C	1.018379	-0.449089	0.972012
C114	C	1.518379	0.050911	1.472012
N115	N	0.982561	-0.505414	0.862609
N116	N	1.482561	-0.005414	1.362609
N117	N	1.021384	-0.444371	0.897001
N118	N	1.521384	0.055629	1.397001
H119	H	0.273345	-0.577674	0.308593
H120	H	0.773345	-0.077674	0.808593
N121	N	0.898461	-1.063224	0.474936
N122	N	1.398461	-0.563224	0.974936
H123	H	0.850654	-1.038479	0.460478
H124	H	1.350654	-0.538479	0.960478
H125	H	0.909592	-1.039695	0.523858
H126	H	1.409592	-0.539695	1.023858
H127	H	0.904273	-0.628497	0.777474
H128	H	1.404273	-0.128497	1.277474
N129	N	0.416653	-0.586531	0.302425
N130	N	0.916653	-0.086531	0.802425
H131	H	0.383398	-0.629802	0.272530
H132	H	0.883398	-0.129802	0.772530
H133	H	0.445963	-0.635871	0.332191
H134	H	0.945963	-0.135871	0.832191
N135	N	0.587876	-0.363556	0.456489
N136	N	1.087876	0.136444	0.956489
H137	H	0.598645	-0.382606	0.507191
H138	H	1.098645	0.117394	1.007191
H139	H	0.536101	-0.376488	0.447511
H140	H	1.036101	0.123512	0.947511
N141	N	0.740400	-0.354681	0.462633
N142	N	1.240400	0.145319	0.962633
H143	H	0.792729	-0.361528	0.457900
H144	H	1.292729	0.138472	0.957900
H145	H	0.725567	-0.375279	0.512280
H146	H	1.225567	0.124721	1.012280
N147	N	0.595276	-0.634346	0.269352
N148	N	1.095276	-0.134346	0.769352
H149	H	0.563688	-0.687308	0.296629
H150	H	1.063688	-0.187308	0.796629
H151	H	0.630829	-0.673527	0.242224
H152	H	1.130829	-0.173527	0.742224
H153	H	0.400011	-0.333550	0.477291
H154	H	0.900011	0.166450	0.977291
H155	H	1.094344	-0.329656	1.115277
H156	H	1.594344	0.170344	1.615277
H157	H	0.266869	-0.341324	0.471938
H158	H	0.766869	0.158676	0.971938
H159	H	1.099681	-0.321291	0.982139
H160	H	1.599681	0.178709	1.482139
N161	N	0.747823	-0.625439	0.275481
N162	N	1.247823	-0.125439	0.775481
H163	H	0.714572	-0.668711	0.245583
H164	H	1.214572	-0.168711	0.745583
H165	H	0.777132	-0.674778	0.305249
H166	H	1.277132	-0.174778	0.805249
N167	N	1.032769	-0.904221	0.516880
N168	N	1.532769	-0.404221	1.016880
H169	H	0.995850	-0.934276	0.550849
H170	H	1.495850	-0.434276	1.050849
H171	H	1.033071	-0.823978	0.516169
H172	H	1.533071	-0.323978	1.016169
N173	N	1.136470	-1.045056	0.421604
N174	N	1.636470	-0.545056	0.921604
H175	H	1.136070	-1.125265	0.421498
H176	H	1.636070	-0.625265	0.921498
H177	H	1.147517	-1.020828	0.470382
H178	H	1.647517	-0.520828	0.970382
N179	N	1.105594	-0.886115	0.284045
N180	N	1.605594	-0.386115	0.784045
H181	H	1.153453	-0.909923	0.299091
H182	H	1.653453	-0.409923	0.799091
H183	H	1.104914	-0.805972	0.284028
H184	H	1.604914	-0.305972	0.784028
N185	N	0.971112	-1.044857	0.242106
N186	N	1.471112	-0.544857	0.742106
H187	H	0.923170	-1.021247	0.227188
H188	H	1.423170	-0.521247	0.727188
H189	H	0.971773	-1.125028	0.242618
H190	H	1.471773	-0.625028	0.742618
H191	H	0.884895	-0.913134	0.342920
H192	H	1.384895	-0.413134	0.842920
N193	N	1.085018	-0.344403	0.641733
N194	N	1.585018	0.155597	1.141733
H195	H	1.112119	-0.301789	0.677270
H196	H	1.612119	0.198211	1.177270
H197	H	1.057648	-0.294892	0.610134
H198	H	1.557648	0.205108	1.110134
N199	N	1.078885	-0.353957	0.794267
N200	N	1.578885	0.146043	1.294267
H201	H	1.108741	-0.307022	0.761042
H202	H	1.608741	0.192978	1.261042
H203	H	1.110175	-0.397291	0.826034
H204	H	1.610175	0.102709	1.326034
H205	H	0.909598	-0.620129	0.644335
H206	H	1.409598	-0.120129	1.144335
H207	H	0.931208	-0.586112	1.108656
H208	H	1.431208	-0.086112	1.608656
N209	N	0.925020	-0.595774	0.965343
N210	N	1.425020	-0.095774	1.465343
H211	H	0.895158	-0.642697	0.998570
H212	H	1.395158	-0.142697	1.498570
H213	H	0.954804	-0.641473	0.936029
H214	H	1.454804	-0.141473	1.436029
