data_functionalizedCrystal
_audit_creation_method	'MofGen! by Chris Wilmer'
_symmetry_space_group_name_H-M	'P1'
_symmetry_Int_Tables_number	1
_symmetry_cell_setting	triclinic
loop_
_symmetry_equiv_pos_as_xyz
  x,y,z
_cell_length_a	8.497374
_cell_length_b	8.497374
_cell_length_c	19.077236
_cell_angle_alpha	92.305853
_cell_angle_beta	87.705454
_cell_angle_gamma	90.005237
loop_
_atom_site_label
_atom_site_type_symbol
_atom_site_fract_x
_atom_site_fract_y
_atom_site_fract_z
Zn1	Zn	0.531669	0.989216	1.075985
Zn2	Zn	0.795415	0.725482	1.075979
Zn3	Zn	0.542213	0.714824	0.958320
Zn4	Zn	0.805973	0.978592	0.958303
O5	O	0.668818	0.852029	1.017147
O6	O	0.557825	0.963138	1.174475
O7	O	0.761822	0.503306	1.060376
O8	O	0.320051	0.751209	0.973938
O9	O	0.751598	0.769373	1.174471
O10	O	0.312305	0.952804	1.060386
O11	O	0.575795	0.495476	0.973933
O12	O	0.586032	0.740907	0.859828
O13	O	0.769592	1.200764	0.973909
O14	O	0.779815	0.934697	0.859815
O15	O	0.568062	1.208569	1.060369
O16	O	1.017579	0.759071	1.060360
O17	O	1.025336	0.945031	0.973904
C18	C	0.685215	0.835494	0.834284
C19	C	0.692268	0.828457	0.756054
C20	C	0.594854	0.926189	0.719304
C21	C	0.601473	0.919564	0.645799
C22	C	0.705515	0.815214	0.609045
C23	C	0.802933	0.717472	0.645800
C24	C	0.796305	0.724090	0.719304
C25	C	0.736133	0.784579	0.389212
C26	C	0.742757	0.777972	0.315703
C27	C	0.541294	0.980062	0.315708
C28	C	0.534682	0.986678	0.389213
C29	C	0.632094	0.888930	0.425961
N30	N	0.712287	0.808444	0.533911
N31	N	0.625313	0.895694	0.501094
C32	C	1.078698	0.852051	1.017138
C33	C	1.257341	0.852027	1.017157
C34	C	0.668820	1.263508	1.017142
C35	C	0.668837	1.442153	1.017143
C36	C	0.652357	0.868629	1.200724
C37	C	0.645343	0.875703	1.278954
H38	H	0.510136	1.011166	0.749224
H39	H	0.449966	1.071656	0.419133
C40	C	0.857217	0.663175	0.275275
N41	N	0.943426	0.576716	0.244825
H42	H	0.461985	1.059641	0.285779
C43	C	0.843296	0.677059	0.429626
N44	N	0.924019	0.596072	0.460068
C45	C	0.494314	1.027082	0.605378
N46	N	0.413598	1.108070	0.574933
H47	H	0.887638	0.632501	0.615869
H48	H	0.875628	0.644506	0.749224
