data_functionalizedCrystal
_audit_creation_method	'MofGen! by Chris Wilmer'
_symmetry_space_group_name_H-M	'P1'
_symmetry_Int_Tables_number	1
_symmetry_cell_setting	triclinic
loop_
_symmetry_equiv_pos_as_xyz
  x,y,z
_cell_length_a	27.440280
_cell_length_b	14.395555
_cell_length_c	27.440280
_cell_angle_alpha	60.002664
_cell_angle_beta	90.008003
_cell_angle_gamma	59.998957
loop_
_atom_site_label
_atom_site_type_symbol
_atom_site_fract_x
_atom_site_fract_y
_atom_site_fract_z
Zr1	Zr	0.469493	1.016726	-0.063932
O2	O	0.391672	1.210533	-0.141760
O3	O	0.493351	0.822920	-0.040068
O4	O	0.493348	1.016704	-0.141739
O5	O	0.391676	1.016767	0.040104
O6	O	0.573551	1.016686	-0.141729
O7	O	0.391675	1.016749	-0.040089
O8	O	0.573556	0.670043	0.040141
O9	O	0.391671	1.363410	-0.141766
O10	O	0.563379	0.902622	-0.029890
O11	O	0.503525	0.902649	0.029950
O12	O	0.503522	1.130804	-0.089754
O13	O	0.443669	1.130831	-0.029914
Zr14	Zr	0.597409	1.016726	0.063983
Zr15	Zr	0.597408	1.016698	-0.063916
Zr16	Zr	0.469495	1.016755	0.063967
Zr17	Zr	0.469492	1.260549	-0.063942
Zr18	Zr	0.597411	0.772904	0.063993
O19	O	0.573552	1.210533	0.040119
O20	O	0.573549	1.210492	-0.141737
O21	O	0.391675	1.210573	0.040097
O22	O	0.675231	0.822920	0.141811
O23	O	0.675228	0.822880	-0.040046
O24	O	0.493353	0.822961	0.141788
O25	O	0.675227	1.016686	-0.040053
O26	O	0.573555	1.016749	0.141790
O27	O	0.493352	1.016767	0.141780
O28	O	0.675228	1.016704	0.040140
O29	O	0.493346	1.363387	-0.141753
O30	O	0.573557	0.670066	0.141804
O31	O	0.675232	0.670043	0.141817
O32	O	0.675231	0.670020	0.040154
O33	O	0.391672	1.363433	-0.040103
O34	O	0.493347	1.363410	-0.040090
O35	O	0.563381	0.902649	0.089805
O36	O	0.623234	0.902622	0.029965
O37	O	0.563377	1.130804	-0.029899
O38	O	0.503524	1.130831	0.029941
C39	C	0.533454	0.711742	0.000038
C40	C	0.533454	0.608233	0.000042
C41	C	0.373450	1.016762	0.000005
C42	C	0.319147	1.016774	-0.000001
C43	C	0.500811	0.485776	0.032649
C44	C	0.557094	0.471490	0.056326
C45	C	0.477182	0.623858	-0.023607
C46	C	0.589764	0.409507	0.023718
C47	C	0.509812	0.561939	-0.056246
C48	C	0.566129	0.547606	-0.032583
C49	C	0.013694	0.897596	0.031290
C50	C	-0.037324	0.897589	0.031296
O51	O	-0.037140	0.796292	0.057890
N52	N	-0.094085	1.016696	0.000047
C53	C	-0.099828	1.135818	-0.031205
O54	O	-0.152792	1.237128	-0.057784
C55	C	-0.048810	1.135824	-0.031206
C56	C	0.007951	1.016709	0.000040
C57	C	0.070453	0.778491	0.062535
C58	C	0.121467	0.778499	0.062528
C59	C	0.115724	0.897612	0.031278
C60	C	0.058966	1.016717	0.000034
C61	C	-0.054553	1.254945	-0.062454
C62	C	-0.003529	1.254941	-0.062452
C63	C	0.053232	1.135826	-0.031206
C64	C	0.104237	1.135838	-0.031223
N65	N	0.160998	1.016731	0.000026
C66	C	0.166742	0.897618	0.031276
C67	C	-0.206966	1.135797	-0.031199
C68	C	-0.257984	1.135793	-0.031201
C69	C	-0.195476	0.897563	0.031301
C70	C	-0.144459	0.897569	0.031299
C71	C	-0.150205	1.016690	0.000051
C72	C	0.273874	0.897643	0.031260
C73	C	0.324891	0.897661	0.031249
C74	C	0.262379	1.135890	-0.031250
C75	C	0.211367	1.135873	-0.031241
C76	C	0.217119	1.016739	0.000018
O77	O	0.104099	1.237083	-0.057801
O78	O	0.219708	0.796326	0.057857
C79	C	0.693453	1.016691	0.000046
C80	C	0.747756	1.016679	0.000052
C81	C	0.533449	1.016691	-0.159957
C82	C	0.533448	1.016679	-0.214253
C83	C	0.533449	1.321711	0.000013
C84	C	0.533449	1.425220	0.000009
C85	C	0.502212	1.135857	-0.582236
C86	C	0.502214	1.135864	-0.633258
O87	O	0.475660	1.237161	-0.686222
N88	N	0.533457	1.016757	-0.627527
C89	C	0.564706	0.897635	-0.570769
O90	O	0.591282	0.796325	-0.570580
C91	C	0.564708	0.897629	-0.519748
C92	C	0.533457	1.016744	-0.525484
C93	C	0.470965	1.254962	-0.587969
C94	C	0.470962	1.254954	-0.536950
C95	C	0.502207	1.135841	-0.480198
C96	C	0.533455	1.016736	-0.474465
C97	C	0.595959	0.778508	-0.462991
C98	C	0.595959	0.778512	-0.411970
C99	C	0.564708	0.897627	-0.417706
C100	C	0.564697	0.897615	-0.366694
N101	N	0.533453	1.016722	-0.372425
C102	C	0.502209	1.135835	-0.429177
C103	C	0.564702	0.897656	-0.677919
C104	C	0.564697	0.897660	-0.728939
C105	C	0.502206	1.135890	-0.791425
C106	C	0.502207	1.135884	-0.740404
C107	C	0.533458	1.016763	-0.683650
C108	C	0.502205	1.135810	-0.322032
C109	C	0.502203	1.135792	-0.271006
C110	C	0.564697	0.897563	-0.208524
C111	C	0.564697	0.897580	-0.259546
C112	C	0.533450	1.016714	-0.316301
O113	O	0.591239	0.796370	-0.313712
O114	O	0.475644	1.237127	-0.429356
C115	C	0.533454	1.016762	0.160008
C116	C	0.533455	1.016774	0.214304
C117	C	0.693455	0.711706	0.000058
C118	C	0.747758	0.608185	0.000069
C119	C	0.533456	0.711778	0.160020
C120	C	0.533457	0.608281	0.214321
C121	C	0.693457	0.711742	0.160040
C122	C	0.747761	0.608233	0.214348
C123	C	0.373446	1.321711	-0.159989
C124	C	0.319141	1.425220	-0.214297
C125	C	0.373448	1.321746	-0.000007
C126	C	0.319145	1.425267	-0.000018
C127	C	0.533447	1.321675	-0.159969
C128	C	0.533446	1.425172	-0.214270
C129	C	0.742016	0.559571	-0.031175
C130	C	0.793035	0.462315	-0.031176
C131	C	0.849796	0.413670	0.000070
C132	C	0.855537	0.462294	0.031314
C133	C	0.804519	0.559554	0.031312
C134	C	0.564702	0.559678	0.271070
C135	C	0.564701	0.462446	0.322097
C136	C	0.533459	0.413811	0.316372
C137	C	0.502210	0.462424	0.259617
C138	C	0.502208	0.559661	0.208592
C139	C	0.804512	0.559611	0.208615
C140	C	0.855541	0.462367	0.259638
C141	C	0.849819	0.413740	0.316393
C142	C	0.793063	0.462373	0.322124
C143	C	0.742035	0.559622	0.271102
C144	C	0.262391	1.473854	-0.208564
C145	C	0.211362	1.571129	-0.259587
C146	C	0.217083	1.619760	-0.316342
C147	C	0.273840	1.571121	-0.322073
C148	C	0.324868	1.473855	-0.271051
C149	C	0.324887	1.473892	0.031221
C150	C	0.273868	1.571175	0.031208
C151	C	0.217107	1.619824	-0.000040
C152	C	0.211366	1.571195	-0.031282
C153	C	0.262384	1.473921	-0.031273
C154	C	0.564694	1.473775	-0.208527
C155	C	0.564704	1.571008	-0.259543
C156	C	0.533462	1.619643	-0.316302
C157	C	0.502213	1.571030	-0.322045
C158	C	0.502207	1.473792	-0.271029
H159	H	0.473255	0.458531	0.060270
F160	F	0.414985	0.743605	-0.049731
H161	H	0.165144	1.610820	-0.056723
F162	F	0.468949	1.262606	-0.382429
H163	H	0.165153	1.610714	-0.254909
F164	F	0.597959	0.611417	0.277176
F165	F	0.786983	0.410608	0.382532
H166	H	0.809202	0.599124	0.056758
H167	H	0.257700	1.434334	-0.056709
H168	H	0.476774	0.422811	0.254965
H169	H	0.590137	0.800665	-0.724261
F170	F	0.597963	0.410723	0.382494
H171	H	0.695828	0.599198	0.275778
F172	F	0.597962	1.622734	-0.253419
H173	H	-0.008214	1.351946	-0.087891
F174	F	0.162769	1.723279	-0.370640
H175	H	0.590147	0.800647	-0.631708
F176	F	0.629221	0.651727	-0.456873
F177	F	0.256288	1.422112	-0.148167
F178	F	0.279920	1.622889	-0.382481
H179	H	0.371075	1.434258	-0.275726
H180	H	0.371108	0.800659	0.056695
H181	H	0.445518	1.351950	-0.541628
H182	H	0.371100	1.434289	0.056670
H183	H	0.476767	0.599221	0.162386
F184	F	-0.189372	0.770791	0.064561
H185	H	0.891334	0.334473	0.000067
H186	H	0.278554	1.610752	0.056652
F187	F	0.810615	0.611350	0.148218
F188	F	0.915940	0.410622	0.253526
H189	H	0.278566	0.800633	0.056715
F190	F	0.162813	1.723351	-0.000044
H191	H	0.577102	0.434225	0.103919
H192	H	-0.304197	1.232788	-0.056652
H193	H	0.621408	0.681507	-0.365759
F194	F	0.181872	0.651719	0.095789
H195	H	0.901759	0.422672	0.056754
F196	F	0.904134	0.310237	0.370691
H197	H	0.533472	1.698821	-0.357838
F198	F	0.597949	1.422032	-0.148124
F199	F	0.597950	0.770806	-0.253441
H200	H	0.476777	1.610644	-0.368265
H201	H	0.533465	0.334634	0.357925
H202	H	0.637372	0.317933	0.043762
H203	H	0.593770	0.574561	-0.060165
F204	F	0.483657	0.610566	-0.118434
F205	F	0.076578	0.651703	0.095801
H206	H	0.476758	1.434230	-0.275714
H207	H	0.476760	1.232878	-0.745080
F208	F	0.150956	1.262647	-0.064508
F209	F	-0.213091	1.262591	-0.064465
F210	F	-0.084052	0.770792	0.064556
F211	F	-0.114953	1.381726	-0.095707
F212	F	0.437707	1.381750	-0.648367
F213	F	0.597947	0.770801	-0.148117
H214	H	0.257713	1.232869	-0.056695
F215	F	0.468937	1.262576	-0.277116
H216	H	0.476763	1.232879	-0.837643
H217	H	0.788349	0.422737	-0.056620
F218	F	0.681612	0.611329	-0.064435
