data_functionalizedCrystal
_audit_creation_method	'MofGen! by Chris Wilmer'
_symmetry_space_group_name_H-M	'P1'
_symmetry_Int_Tables_number	1
_symmetry_cell_setting	triclinic
loop_
_symmetry_equiv_pos_as_xyz
  x,y,z
_cell_length_a	11.792241
_cell_length_b	17.666332
_cell_length_c	11.792241
_cell_angle_alpha	89.994673
_cell_angle_beta	95.806584
_cell_angle_gamma	90.005047
loop_
_atom_site_label
_atom_site_type_symbol
_atom_site_fract_x
_atom_site_fract_y
_atom_site_fract_z
O1	O	1.506917	0.062875	-0.155568
O2	O	1.756917	0.312875	0.094432
O3	O	2.006917	0.562875	0.344432
O4	O	2.256917	0.812875	0.594432
O5	O	1.176576	0.062893	-0.171601
O6	O	1.426576	0.312893	0.078399
O7	O	1.676576	0.562893	0.328399
O8	O	1.926576	0.812893	0.578399
O9	O	1.349762	0.062878	0.001586
O10	O	1.599762	0.312878	0.251586
O11	O	1.849762	0.562878	0.501586
O12	O	2.099762	0.812878	0.751586
O13	O	1.333730	0.062890	-0.328755
O14	O	1.583730	0.312890	-0.078755
O15	O	1.833730	0.562890	0.171245
O16	O	2.083730	0.812890	0.421245
O17	O	1.349732	-0.063019	0.001592
O18	O	1.599732	0.186981	0.251592
O19	O	1.849732	0.436981	0.501592
O20	O	2.099732	0.686981	0.751592
O21	O	1.176545	-0.063004	-0.171595
O22	O	1.426545	0.186996	0.078405
O23	O	1.676545	0.436996	0.328405
O24	O	1.926545	0.686996	0.578405
O25	O	1.506886	-0.063022	-0.155562
O26	O	1.756886	0.186978	0.094438
O27	O	2.006886	0.436978	0.344438
O28	O	2.256886	0.686978	0.594438
Cu29	Cu	1.341712	-0.074508	-0.163578
Cu30	Cu	1.591712	0.175492	0.086422
Cu31	Cu	1.841712	0.425492	0.336422
Cu32	Cu	2.091712	0.675492	0.586422
Cu33	Cu	1.341749	0.074379	-0.163585
Cu34	Cu	1.591749	0.324379	0.086415
Cu35	Cu	1.841749	0.574379	0.336415
Cu36	Cu	2.091749	0.824379	0.586415
O37	O	1.333699	-0.063007	-0.328749
O38	O	1.583699	0.186993	-0.078749
O39	O	1.833699	0.436993	0.171251
O40	O	2.083699	0.686993	0.421251
C41	C	1.134269	-0.000053	-0.170591
C42	C	1.384269	0.249947	0.079409
C43	C	1.634269	0.499947	0.329409
C44	C	1.884269	0.749947	0.579409
C45	C	1.008255	-0.000047	-0.167576
C46	C	1.258255	0.249953	0.082424
C47	C	1.508255	0.499953	0.332424
C48	C	1.758255	0.749953	0.582424
C49	C	0.777543	-0.000069	-0.162034
C50	C	1.027543	0.249931	0.087966
C51	C	1.277543	0.499931	0.337966
C52	C	1.527543	0.749931	0.587966
C53	C	0.905928	-0.000057	-0.165113
C54	C	1.155928	0.249943	0.084887
C55	C	1.405928	0.499943	0.334887
C56	C	1.655928	0.749943	0.584887
N57	N	1.341695	-0.179228	-0.163573
N58	N	1.591695	0.070772	0.086427
N59	N	1.841695	0.320772	0.336427
N60	N	2.091695	0.570772	0.586427
C61	C	1.410945	-0.218832	-0.232882
C62	C	1.660945	0.031168	0.017118
C63	C	1.910945	0.281168	0.267118
C64	C	2.160945	0.531168	0.517118
C65	C	1.410963	-0.298080	-0.232879
C66	C	1.660963	-0.048080	0.017121
C67	C	1.910963	0.201920	0.267121
C68	C	2.160963	0.451920	0.517121
C69	C	1.341710	-0.337720	-0.163580
C70	C	1.591710	-0.087720	0.086420
C71	C	1.841710	0.162280	0.336420
C72	C	2.091710	0.412280	0.586420
C73	C	1.272456	-0.298105	-0.094257
C74	C	1.522456	-0.048105	0.155743
C75	C	1.772456	0.201895	0.405743
C76	C	2.022456	0.451895	0.655743
C77	C	1.272448	-0.218859	-0.094254
C78	C	1.522448	0.031141	0.155746
C79	C	1.772448	0.281141	0.405746
C80	C	2.022448	0.531141	0.655746
N81	N	1.242278	-0.462154	-0.159868
N82	N	1.492278	-0.212154	0.090132
N83	N	1.742278	0.037846	0.340132
N84	N	1.992278	0.287846	0.590132
N85	N	1.242288	-0.537435	-0.159878
N86	N	1.492288	-0.287435	0.090122
N87	N	1.742288	-0.037435	0.340122
N88	N	1.992288	0.212565	0.590122
C89	C	1.341731	-0.576484	-0.163584
C90	C	1.591731	-0.326484	0.086416
C91	C	1.841731	-0.076484	0.336416
C92	C	2.091731	0.173516	0.586416
N93	N	1.441165	-0.537409	-0.167302
N94	N	1.691165	-0.287409	0.082698
N95	N	1.941165	-0.037409	0.332698
N96	N	2.191165	0.212591	0.582698
N97	N	1.441153	-0.462121	-0.167299
N98	N	1.691153	-0.212121	0.082701
N99	N	1.941153	0.037879	0.332701
N100	N	2.191153	0.287879	0.582701
C101	C	1.341712	-0.423649	-0.163575
C102	C	1.591712	-0.173649	0.086425
C103	C	1.841712	0.076351	0.336425
C104	C	2.091712	0.326351	0.586425
C105	C	1.411007	-0.702018	-0.232893
C106	C	1.661007	-0.452018	0.017107
C107	C	1.911007	-0.202018	0.267107
C108	C	2.161007	0.047982	0.517107
C109	C	1.411027	-0.781267	-0.232882
C110	C	1.661027	-0.531267	0.017118
C111	C	1.911027	-0.281267	0.267118
C112	C	2.161027	-0.031267	0.517118
C113	C	1.272509	-0.781291	-0.094267
C114	C	1.522509	-0.531291	0.155733
C115	C	1.772509	-0.281291	0.405733
C116	C	2.022509	-0.031291	0.655733
C117	C	1.272499	-0.702043	-0.094271
C118	C	1.522499	-0.452043	0.155729
C119	C	1.772499	-0.202043	0.405729
C120	C	2.022499	0.047957	0.655729
C121	C	1.341746	-0.662412	-0.163591
C122	C	1.591746	-0.412412	0.086409
C123	C	1.841746	-0.162412	0.336409
C124	C	2.091746	0.087588	0.586409
C125	C	1.549192	-0.000074	-0.156572
C126	C	1.799192	0.249926	0.093428
C127	C	2.049192	0.499926	0.343428
C128	C	2.299192	0.749926	0.593428
C129	C	1.675206	-0.000075	-0.159587
C130	C	1.925206	0.249925	0.090413
C131	C	2.175206	0.499925	0.340413
C132	C	2.425206	0.749925	0.590413
C133	C	1.348740	-0.000070	0.043880
C134	C	1.598740	0.249930	0.293880
C135	C	1.848740	0.499930	0.543880
C136	C	2.098740	0.749930	0.793880
C137	C	1.345726	-0.000069	0.169894
C138	C	1.595726	0.249931	0.419894
C139	C	1.845726	0.499931	0.669894
C140	C	2.095726	0.749931	0.919894
N141	N	1.341775	0.179099	-0.163581
N142	N	1.591775	0.429099	0.086419
N143	N	1.841775	0.679099	0.336419
N144	N	2.091775	0.929099	0.586419
C145	C	1.334721	-0.000057	-0.371043
C146	C	1.584721	0.249943	-0.121043
C147	C	1.834721	0.499943	0.128957
C148	C	2.084721	0.749943	0.378957
C149	C	1.337736	-0.000053	-0.497057
C150	C	1.587736	0.249947	-0.247057
C151	C	1.837736	0.499947	0.002943
C152	C	2.087736	0.749947	0.252943
C153	C	1.340183	-0.000056	0.400606
C154	C	1.590183	0.249944	0.650606
C155	C	1.840183	0.499944	0.900606
C156	C	2.090183	0.749944	1.150606
C157	C	1.343262	-0.000063	0.272221
C158	C	1.593262	0.249937	0.522221
C159	C	1.843262	0.499937	0.772221
C160	C	2.093262	0.749937	1.022221
H161	H	1.467336	-0.186569	-0.289323
H162	H	1.717336	0.063431	-0.039323
H163	H	1.967336	0.313431	0.210677
H164	H	2.217336	0.563431	0.460677
F165	F	1.484673	-0.340239	-0.306649
F166	F	1.734673	-0.090239	-0.056649
F167	F	1.984673	0.159761	0.193351
F168	F	2.234673	0.409761	0.443351
F169	F	1.198755	-0.340294	-0.020501
F170	F	1.448755	-0.090294	0.229499
F171	F	1.698755	0.159706	0.479499
F172	F	1.948755	0.409706	0.729499
H173	H	1.467427	-0.813512	-0.289318
H174	H	1.717427	-0.563512	-0.039318
H175	H	1.967427	-0.313512	0.210682
H176	H	2.217427	-0.063512	0.460682
H177	H	1.216054	-0.186614	-0.037813
H178	H	1.466054	0.063386	0.212187
H179	H	1.716054	0.313386	0.462187
H180	H	1.966054	0.563386	0.712187
F181	F	1.198815	-0.823473	-0.020502
F182	F	1.448815	-0.573473	0.229498
F183	F	1.698815	-0.323473	0.479498
F184	F	1.948815	-0.073473	0.729498
F185	F	1.484724	-0.659836	-0.306648
F186	F	1.734724	-0.409836	-0.056648
F187	F	1.984724	-0.159836	0.193352
F188	F	2.234724	0.090164	0.443352
H189	H	1.216104	-0.669797	-0.037837
H190	H	1.466104	-0.419797	0.212163
H191	H	1.716104	-0.169797	0.462163
H192	H	1.966104	0.080203	0.712163
