data_functionalizedCrystal
_audit_creation_method	'MofGen! by Chris Wilmer'
_symmetry_space_group_name_H-M	'P1'
_symmetry_Int_Tables_number	1
_symmetry_cell_setting	triclinic
loop_
_symmetry_equiv_pos_as_xyz
  x,y,z
_cell_length_a	14.519709
_cell_length_b	27.732048
_cell_length_c	12.996460
_cell_angle_alpha	89.988908
_cell_angle_beta	90.000034
_cell_angle_gamma	83.161400
loop_
_atom_site_label
_atom_site_type_symbol
_atom_site_fract_x
_atom_site_fract_y
_atom_site_fract_z
O1	O	1.222766	0.063362	-0.085445
O2	O	0.954160	0.070824	-0.085477
O3	O	1.096805	-0.003264	-0.085440
O4	O	1.080121	0.137450	-0.085482
O5	O	1.096791	-0.003268	0.085693
O6	O	0.954145	0.070820	0.085656
O7	O	1.222752	0.063358	0.085689
Cu8	Cu	1.088447	0.067089	0.101299
Cu9	Cu	1.088464	0.067093	-0.101087
O10	O	1.080106	0.137446	0.085652
C11	C	0.919799	0.070474	0.000086
C12	C	0.817435	0.069432	0.000074
C13	C	0.442606	0.065596	0.000122
C14	C	0.546896	0.066661	0.000108
C15	C	0.630018	0.067514	0.000097
C16	C	0.734314	0.068579	0.000085
C17	C	1.096448	-0.021274	0.000129
C18	C	1.095393	-0.074934	0.000138
C19	C	1.173048	-0.413378	0.000094
C20	C	1.169135	-0.615057	0.000080
O21	O	1.240145	-0.645973	0.000043
N22	N	1.084552	-0.634585	0.000070
C23	C	1.000941	-0.603690	0.000058
O24	O	0.928909	-0.624927	0.000039
C25	C	1.004855	-0.402012	0.000065
C26	C	1.089444	-0.382487	0.000085
C27	C	1.257630	-0.393853	0.000113
C28	C	1.258607	-0.343436	0.000122
C29	C	1.175003	-0.312545	0.000113
C30	C	1.090421	-0.332071	0.000094
C31	C	0.921246	-0.371118	0.000045
C32	C	0.922232	-0.320696	0.000045
C33	C	1.006820	-0.301171	0.000064
C34	C	1.007794	-0.250763	0.000094
N35	N	1.092377	-0.231235	0.000104
C36	C	1.175981	-0.262126	0.000113
C37	C	0.998893	-0.709574	0.000056
C38	C	0.997914	-0.759993	0.000056
C39	C	1.166108	-0.771356	0.000076
C40	C	1.167086	-0.720936	0.000083
C41	C	1.083476	-0.690045	0.000065
C42	C	1.178028	-0.156247	0.000133
C43	C	1.178998	-0.105825	0.000147
C44	C	1.010804	-0.094466	0.000122
C45	C	1.009833	-0.144883	0.000114
C46	C	1.093453	-0.175773	0.000116
O47	O	0.936822	-0.219818	0.000119
O48	O	1.248004	-0.240879	0.000109
C49	C	1.172071	-0.463795	0.000085
C50	C	1.087489	-0.483320	0.000066
C51	C	1.003885	-0.452429	0.000057
C52	C	1.086510	-0.533740	0.000066
C53	C	1.170115	-0.564631	0.000076
C54	C	1.254698	-0.545103	0.000085
C55	C	1.255675	-0.494686	0.000094
C56	C	0.919302	-0.471957	0.000048
C57	C	0.918331	-0.522375	0.000039
C58	C	1.001936	-0.553266	0.000049
C59	C	1.257113	0.063708	0.000124
C60	C	1.359476	0.064750	0.000129
C61	C	1.080464	0.155456	0.000080
C62	C	1.081518	0.209116	0.000065
N63	N	1.088442	0.067085	0.243646
N64	N	1.088477	0.067093	-0.243434
C65	C	1.088463	0.067094	0.663460
C66	C	1.088454	0.067093	0.546655
C67	C	1.088453	0.067090	0.453557
C68	C	1.088443	0.067088	0.336744
H69	H	1.247882	-0.089931	0.000166
N70	N	1.251501	-0.802923	0.000093
N71	N	1.250604	-0.847938	0.000094
H72	H	1.310908	-0.870234	0.000102
H73	H	1.235965	-0.705043	0.000098
N74	N	0.913472	-0.678030	0.000038
N75	N	0.837965	-0.695478	0.000032
H76	H	0.777635	-0.673203	0.000023
N77	N	0.834831	-0.391046	0.000023
N78	N	0.760199	-0.363450	0.000003
H79	H	0.699162	-0.377522	-0.000016
H80	H	0.854144	-0.295547	0.000029
N81	N	0.925410	-0.062905	0.000081
N82	N	0.869013	-0.064721	-0.072079
H83	H	0.808703	-0.042428	-0.072119
N84	N	0.911501	-0.779926	0.000060
N85	N	0.836865	-0.752333	0.000052
H86	H	0.775831	-0.766408	0.000051
N87	N	0.923423	-0.164823	0.000125
N88	N	0.848783	-0.137233	0.000133
H89	H	0.787752	-0.151312	0.000138
H90	H	1.246119	-0.181392	0.000131
H91	H	0.849444	-0.538266	0.000032
H92	H	1.324556	-0.478794	0.000110
H93	H	1.322771	-0.570263	0.000097
H94	H	0.851220	-0.446810	0.000038
H95	H	1.325714	-0.419000	0.000117
N96	N	1.345021	-0.323504	0.000138
N97	N	1.419654	-0.351099	0.000143
H98	H	1.480690	-0.337025	0.000151
