data_functionalizedCrystal
_audit_creation_method	'MofGen! by Chris Wilmer'
_symmetry_space_group_name_H-M	'P1'
_symmetry_Int_Tables_number	1
_symmetry_cell_setting	triclinic
loop_
_symmetry_equiv_pos_as_xyz
  x,y,z
_cell_length_a	10.685980
_cell_length_b	25.639240
_cell_length_c	10.685880
_cell_angle_alpha	94.327944
_cell_angle_beta	80.918858
_cell_angle_gamma	94.398495
loop_
_atom_site_label
_atom_site_type_symbol
_atom_site_fract_x
_atom_site_fract_y
_atom_site_fract_z
Zn1	Zn	1.995601	-0.172273	-0.866571
Zn2	Zn	1.979126	-0.253501	-0.654267
Zn3	Zn	1.767041	-0.172301	-0.638044
Zn4	Zn	1.783229	-0.265901	-0.850163
O5	O	1.881249	-0.215994	-0.752261
O6	O	2.171053	-0.177847	-0.852065
O7	O	1.937323	-0.237552	-0.474492
O8	O	1.797481	-0.099130	-0.668436
O9	O	2.158948	-0.237525	-0.696086
O10	O	1.965403	-0.099110	-0.836334
O11	O	1.781505	-0.177894	-0.462573
O12	O	1.591552	-0.189918	-0.652526
O13	O	1.825070	-0.258659	-1.029963
O14	O	1.603444	-0.258686	-0.808369
O15	O	1.981099	-0.189871	-1.042018
O16	O	1.953019	-0.328313	-0.680176
O17	O	1.809094	-0.337423	-0.824100
C18	C	1.551439	-0.225651	-0.726907
C19	C	1.410347	-0.229796	-0.716090
C20	C	1.881062	-0.351839	-0.752148
C21	C	1.881102	-0.409952	-0.752151
C22	C	1.968738	-0.770268	-0.839836
C23	C	1.968777	-0.824872	-0.839864
O24	O	2.043067	-0.853072	-0.914298
N25	N	1.881435	-0.852231	-0.752398
C26	C	1.794039	-0.824985	-0.664905
O27	O	1.719750	-0.853271	-0.590511
C28	C	1.793995	-0.770382	-0.664883
C29	C	1.881351	-0.743025	-0.752347
C30	C	2.056086	-0.742910	-0.927293
C31	C	2.056048	-0.688310	-0.927263
C32	C	1.968661	-0.661067	-0.839774
C33	C	1.881313	-0.688425	-0.752317
C34	C	1.706594	-0.743137	-0.577398
C35	C	1.706556	-0.688531	-0.577384
C36	C	1.793913	-0.661174	-0.664848
C37	C	1.793888	-0.606582	-0.664798
N38	N	1.881230	-0.579222	-0.752264
C39	C	1.968617	-0.606465	-0.839753
C40	C	1.794137	-0.939654	-0.664959
C41	C	1.794186	-0.994255	-0.664974
C42	C	1.968924	-0.994138	-0.839935
C43	C	1.968879	-0.939536	-0.839913
C44	C	1.881480	-0.912294	-0.752425
C45	C	1.968531	-0.491800	-0.839681
C46	C	1.968488	-0.437195	-0.839639
C47	C	1.793748	-0.437317	-0.664683
C48	C	1.793794	-0.491917	-0.664720
C49	C	1.881191	-0.519157	-0.752230
O50	O	1.719632	-0.578347	-0.590405
O51	O	2.042882	-0.578173	-0.914145
C52	C	2.212348	-0.206300	-0.777716
C53	C	2.353442	-0.202169	-0.788563
C54	C	1.906728	-0.225645	-1.083333
C55	C	1.917585	-0.229758	-1.224417
C56	C	1.881474	-0.079618	-0.752406
C57	C	1.881569	-0.021503	-0.752467
C58	C	1.855943	-0.206341	-0.422483
C59	C	1.845332	-0.202073	-0.281420
H60	H	1.412663	-0.175342	-0.858882
O61	O	1.339887	-0.261808	-0.632081
C62	C	1.421123	-0.286673	-0.566899
H63	H	1.515349	-0.262383	-0.569773
H64	H	1.375002	-0.290388	-0.463953
H65	H	1.438709	-0.327353	-0.614261
O66	O	2.053397	-0.410703	-0.924733
C67	C	2.130548	-0.446461	-1.001938
H68	H	2.078908	-0.487051	-1.002307
H69	H	2.151693	-0.433179	-1.102985
H70	H	2.223429	-0.448067	-0.962955
H71	H	1.987760	-0.256609	-1.283554
O72	O	1.761435	-0.170105	-1.210929
C73	C	1.637363	-0.186159	-1.233526
H74	H	1.633667	-0.229169	-1.269515
H75	H	1.568014	-0.180979	-1.141476
H76	H	1.610079	-0.161312	-1.307856
O77	O	2.053480	-0.518305	-0.924515
C78	C	2.130026	-0.545357	-0.858651
H79	H	2.077934	-0.552091	-0.758996
H80	H	2.151024	-0.584740	-0.911708
H81	H	2.223016	-0.521115	-0.851990
H82	H	2.127178	-0.666039	-0.998487
H83	H	2.040077	-1.016329	-0.911175
O84	O	2.141107	-0.769285	-1.012334
C85	C	2.218158	-0.733421	-1.089531
H86	H	2.218539	-0.692865	-1.037856
H87	H	2.319232	-0.746614	-1.110843
H88	H	2.179012	-0.731783	-1.182315
O89	O	1.621894	-0.769721	-0.492329
C90	C	1.687912	-0.796807	-0.415980
H91	H	1.787290	-0.777167	-0.415871
H92	H	1.634533	-0.795958	-0.314748
H93	H	1.695298	-0.839196	-0.455581
H94	H	2.040012	-0.917265	-0.911134
H95	H	1.723065	-1.016525	-0.593739
H96	H	1.635381	-0.666354	-0.506142
H97	H	1.722969	-0.917477	-0.593706
H98	H	1.722602	-0.415127	-0.593448
O99	O	1.708821	-0.518416	-0.579704
C100	C	1.631710	-0.482658	-0.502454
H101	H	1.631257	-0.445367	-0.554074
H102	H	1.530665	-0.501003	-0.481158
H103	H	1.670852	-0.472688	-0.409665
