data_functionalizedCrystal
_audit_creation_method	'MofGen! by Chris Wilmer'
_symmetry_space_group_name_H-M	'P1'
_symmetry_Int_Tables_number	1
_symmetry_cell_setting	triclinic
loop_
_symmetry_equiv_pos_as_xyz
  x,y,z
_cell_length_a	13.033808
_cell_length_b	13.032721
_cell_length_c	19.076919
_cell_angle_alpha	80.861841
_cell_angle_beta	80.860566
_cell_angle_gamma	103.361820
loop_
_atom_site_label
_atom_site_type_symbol
_atom_site_fract_x
_atom_site_fract_y
_atom_site_fract_z
Zn1	Zn	1.550535	-0.235881	0.285676
Zn2	Zn	1.534816	-0.406571	0.183922
Zn3	Zn	1.379876	-0.251548	0.183913
Zn4	Zn	1.347964	-0.438415	0.320261
O5	O	1.453298	-0.333104	0.243443
O6	O	1.698070	-0.238640	0.257708
O7	O	1.521039	-0.379236	0.084274
O8	O	1.422447	-0.099831	0.182934
O9	O	1.686521	-0.364045	0.182950
O10	O	1.547830	-0.088320	0.257699
O11	O	1.407205	-0.265341	0.084267
O12	O	1.226023	-0.296220	0.216470
O13	O	1.368060	-0.418319	0.415320
O14	O	1.202578	-0.433510	0.316645
O15	O	1.516887	-0.269518	0.389911
O16	O	1.490096	-0.560434	0.216486
O17	O	1.352817	-0.583830	0.316654
C18	C	1.175505	-0.370021	0.270309
C19	C	1.056660	-0.385842	0.281822
C20	C	1.416316	-0.610929	0.270336
C21	C	1.400592	-0.729772	0.281856
C22	C	0.892423	-0.341217	0.249348
C23	C	1.015256	-0.324866	0.237447
C24	C	1.461559	-0.771140	0.237457
C25	C	1.445309	-0.893971	0.249362
C26	C	1.732175	-0.296043	0.216472
C27	C	1.851016	-0.280250	0.204979
C28	C	1.440667	-0.345723	0.429175
C29	C	1.435285	-0.351101	0.508323
C30	C	1.490452	-0.054191	0.216457
C31	C	1.506285	0.064665	0.204957
C32	C	1.465951	-0.320448	0.058420
C33	C	1.471581	-0.314742	-0.020777
C34	C	1.510239	-0.276158	0.532280
C35	C	1.505169	-0.281209	0.606648
C36	C	1.425149	-0.361207	0.657060
C37	C	1.350187	-0.436154	0.633099
C38	C	1.355253	-0.431098	0.558732
C39	C	1.401685	-0.384632	0.880895
C40	C	1.396626	-0.389684	0.955267
C41	C	1.551608	-0.234737	0.928810
C42	C	1.556671	-0.229692	0.854443
C43	C	1.481705	-0.304635	0.830489
N44	N	1.419967	-0.366374	0.733077
N45	N	1.486884	-0.299463	0.754473
H46	H	0.836937	-0.405522	0.296144
H47	H	1.566207	-0.220185	0.626149
C48	C	1.089345	-0.239273	0.175003
C49	C	1.148519	-0.288135	0.128990
C50	C	1.216791	-0.209323	0.071467
H51	H	1.047570	-0.203097	0.148626
H52	H	1.137309	-0.188850	0.193574
H53	H	1.100561	-0.338540	0.110420
H54	H	1.190315	-0.324306	0.155345
H55	H	1.264755	-0.158899	0.090038
H56	H	1.175007	-0.173151	0.045096
H57	H	1.256956	-0.242463	0.040244
H58	H	1.621834	-0.164551	0.813401
H59	H	1.001178	-0.450149	0.328623
C60	C	1.632823	-0.153261	0.954861
C61	C	1.578506	-0.095652	0.996760
C62	C	1.653288	-0.020571	1.020761
H63	H	1.672021	-0.189820	0.983370
H64	H	1.681192	-0.104834	0.914205
H65	H	1.530157	-0.144072	1.037411
H66	H	1.539313	-0.059070	0.968266
H67	H	1.701656	0.027857	0.980104
H68	H	1.692482	-0.057138	1.049267
H69	H	1.616446	0.018533	1.049186
C70	C	1.309626	-0.476591	1.009889
C71	C	1.245041	-0.541124	0.972995
C72	C	1.164885	-0.621181	1.023288
H73	H	1.342214	-0.519832	1.039474
H74	H	1.266461	-0.443875	1.039440
H75	H	1.288200	-0.573839	0.943456
H76	H	1.212428	-0.497914	0.943413
H77	H	1.121720	-0.588465	1.052839
H78	H	1.197482	-0.664414	1.052871
H79	H	1.121048	-0.664970	0.998263
C80	C	0.925107	-0.194662	0.142538
C81	C	0.984282	-0.243523	0.096526
C82	C	1.052553	-0.164711	0.039002
H83	H	0.883332	-0.158485	0.116162
H84	H	0.973071	-0.144238	0.161109
H85	H	0.936324	-0.293928	0.077955
H86	H	1.026078	-0.279694	0.122881
H87	H	1.100517	-0.114287	0.057573
H88	H	1.010770	-0.128539	0.012631
H89	H	1.092718	-0.197851	0.007779
C90	C	1.547292	-0.697300	0.174996
C91	C	1.600405	-0.759267	0.136352
C92	C	1.679398	-0.691285	0.078812
H93	H	1.514376	-0.657095	0.143640
H94	H	1.597780	-0.649361	0.193539
H95	H	1.549926	-0.807187	0.117809
H96	H	1.633344	-0.799470	0.167687
H97	H	1.729885	-0.643346	0.097354
H98	H	1.646472	-0.651084	0.047461
H99	H	1.715451	-0.733319	0.052588
C100	C	1.273769	-0.512311	0.532683
C101	C	1.216187	-0.457977	0.490772
C102	C	1.141099	-0.532758	0.466776
H103	H	1.310312	-0.551531	0.504183
H104	H	1.225333	-0.560666	0.573341
H105	H	1.264616	-0.409641	0.450120
H106	H	1.179620	-0.418761	0.519258
H107	H	1.092663	-0.581113	0.507434
H108	H	1.177652	-0.571975	0.438279
H109	H	1.102014	-0.495905	0.438343
H110	H	1.381081	-0.949485	0.296193
C111	C	1.314970	-0.803970	0.344232
C112	C	1.315850	-0.911051	0.343625
C113	C	1.236980	-0.979430	0.401070
H114	H	1.329620	-0.787001	0.388865
H115	H	1.246211	-0.794698	0.338970
H116	H	1.384593	-0.920319	0.348893
H117	H	1.301187	-0.928054	0.299005
H118	H	1.168221	-0.970158	0.395808
H119	H	1.251637	-0.962452	0.445699
H120	H	1.237560	-1.052093	0.400662
H121	H	1.570521	-0.879821	0.158132
C122	C	1.597168	-0.189186	0.477663
C123	C	1.661705	-0.124618	0.514565
C124	C	1.741785	-0.044477	0.464278
H125	H	1.640394	-0.221794	0.448083
H126	H	1.564480	-0.145998	0.448106
H127	H	1.694391	-0.167801	0.544109
H128	H	1.618510	-0.091986	0.544142
H129	H	1.709097	-0.001288	0.434721
H130	H	1.785002	-0.077094	0.434700
H131	H	1.785576	-0.000652	0.489308
H132	H	1.340656	-0.445669	0.861401
H133	H	1.285030	-0.501287	0.674151
