data_functionalizedCrystal
_audit_creation_method	'MofGen! by Chris Wilmer'
_symmetry_space_group_name_H-M	'P1'
_symmetry_Int_Tables_number	1
_symmetry_cell_setting	triclinic
loop_
_symmetry_equiv_pos_as_xyz
  x,y,z
_cell_length_a	10.654541
_cell_length_b	13.596369
_cell_length_c	14.519731
_cell_angle_alpha	89.994253
_cell_angle_beta	95.913609
_cell_angle_gamma	90.004613
loop_
_atom_site_label
_atom_site_type_symbol
_atom_site_fract_x
_atom_site_fract_y
_atom_site_fract_z
O1	O	1.666616	0.081774	-0.129514
O2	O	1.301019	0.081784	-0.141858
O3	O	1.493497	0.081759	-0.001499
O4	O	1.474138	0.081799	-0.269873
O5	O	1.493473	-0.081824	-0.001507
O6	O	1.300995	-0.081799	-0.141865
O7	O	1.666592	-0.081809	-0.129522
Zn8	Zn	1.483790	-0.107776	-0.135695
Zn9	Zn	1.483821	0.107751	-0.135685
O10	O	1.474114	-0.081784	-0.269881
C11	C	1.254218	-0.000006	-0.140956
C12	C	1.114800	-0.000004	-0.138246
C13	C	1.085233	0.000034	-0.306082
C14	C	1.004953	0.000056	-0.388724
C15	C	0.873959	0.000057	-0.386172
C16	C	0.823244	0.000032	-0.300969
C17	C	0.903524	0.000010	-0.218328
C18	C	1.034519	0.000012	-0.220889
C19	C	0.933091	-0.000035	-0.050493
C20	C	1.064085	-0.000028	-0.053043
C21	C	0.882376	-0.000060	0.034710
C22	C	0.962657	-0.000075	0.117353
C23	C	1.093658	-0.000075	0.114797
C24	C	1.144366	-0.000051	0.029598
N25	N	1.483778	-0.254868	-0.135701
C26	C	1.483784	-0.343866	-0.135703
C27	C	1.483796	-0.455517	-0.135697
C28	C	1.483813	-0.544508	-0.135687
C29	C	1.483827	-0.656166	-0.135681
C30	C	1.713393	-0.000016	-0.130424
C31	C	1.852811	-0.000012	-0.133134
C32	C	1.492578	-0.000035	0.032861
C33	C	1.489860	-0.000044	0.135256
N34	N	1.483843	0.254843	-0.135671
C35	C	1.487651	-0.000049	0.218411
C36	C	1.484891	-0.000050	0.322734
C37	C	1.482701	-0.000050	0.405885
C38	C	1.479942	-0.000053	0.510214
C39	C	1.475033	-0.000007	0.695759
C40	C	1.477751	-0.000053	0.593365
H41	H	1.046259	0.000074	-0.458094
Cl42	Cl	1.194572	-0.000111	0.218696
H43	H	1.191893	0.000055	-0.308169
H44	H	0.775713	-0.000065	0.036782
Cl45	Cl	0.898894	-0.000115	0.224453
H46	H	1.251026	-0.000039	0.027509
H47	H	0.808594	0.000068	-0.453465
Cl48	Cl	0.658564	0.000016	-0.297763
