data_functionalizedCrystal
_audit_creation_method	'MofGen! by Chris Wilmer'
_symmetry_space_group_name_H-M	'P1'
_symmetry_Int_Tables_number	1
_symmetry_cell_setting	triclinic
loop_
_symmetry_equiv_pos_as_xyz
  x,y,z
_cell_length_a	10.654556
_cell_length_b	10.489716
_cell_length_c	9.730223
_cell_angle_alpha	90.002678
_cell_angle_beta	89.999363
_cell_angle_gamma	84.508273
loop_
_atom_site_label
_atom_site_type_symbol
_atom_site_fract_x
_atom_site_fract_y
_atom_site_fract_z
O1	O	1.667898	0.179196	-0.114290
O2	O	1.302427	0.196257	-0.114289
O3	O	1.493495	0.002123	-0.114295
O4	O	1.476830	0.373330	-0.114285
O5	O	1.493492	0.002127	0.114285
O6	O	1.302425	0.196262	0.114291
O7	O	1.667896	0.179200	0.114290
Zn8	Zn	1.485160	0.187732	0.150582
Zn9	Zn	1.485163	0.187725	-0.150582
O10	O	1.476828	0.373335	0.114295
C11	C	1.255627	0.195005	0.000001
C12	C	1.116183	0.191252	0.000001
C13	C	0.919652	0.185968	-0.124609
C14	C	1.050676	0.189487	-0.124603
C15	C	1.050662	0.189485	0.124607
C16	C	0.919642	0.185957	0.124600
C17	C	0.919661	0.185975	-0.268489
C18	C	1.050684	0.189494	-0.268483
C19	C	1.492241	-0.045407	-0.000009
C20	C	1.488495	-0.187036	-0.000021
C21	C	1.605664	-0.284764	-0.000009
C22	C	1.543751	-0.362098	-0.112707
C23	C	1.543721	-0.362057	0.112655
C24	C	1.426631	-0.262505	-0.112812
C25	C	1.426619	-0.262459	0.112651
C26	C	1.364619	-0.339744	-0.000075
C27	C	1.714695	0.180452	-0.000003
C28	C	1.854139	0.184205	-0.000012
C29	C	1.478081	0.420864	0.000007
C30	C	1.481827	0.562493	0.000010
N31	N	1.485167	0.187736	0.356119
N32	N	1.485165	0.187712	-0.356118
C33	C	1.569794	0.101802	0.428042
C34	C	1.569790	0.101787	0.571925
C35	C	1.400530	0.273649	0.571948
C36	C	1.400528	0.273658	0.428068
C37	C	1.667519	0.002582	0.428030
C38	C	1.667516	0.002567	0.571913
H39	H	0.894803	0.095910	-0.323740
O40	O	1.367576	-0.211035	-0.226658
C41	C	1.255924	-0.250881	-0.435302
C42	C	1.322733	-0.309336	-0.306417
H43	H	1.219673	-0.330331	-0.499838
H44	H	1.173316	-0.180065	-0.403065
H45	H	1.325411	-0.198965	-0.498469
H46	H	1.253344	-0.361317	-0.243192
H47	H	1.405360	-0.380084	-0.338748
H48	H	1.075552	0.279566	-0.323709
O49	O	1.367480	-0.210421	0.226177
C50	C	1.198015	-0.064763	0.314593
C51	C	1.264840	-0.123618	0.185898
H52	H	1.115034	0.005450	0.282074
H53	H	1.162300	-0.144039	0.379814
H54	H	1.267310	-0.012061	0.377178
H55	H	1.195619	-0.176309	0.123206
H56	H	1.300579	-0.044286	0.120779
O57	O	1.602653	-0.414227	-0.226336
C58	C	1.664173	-0.606887	-0.354140
C59	C	1.597397	-0.548024	-0.225421
H60	H	1.659969	-0.715072	-0.353428
H61	H	1.615231	-0.564473	-0.450230
H62	H	1.766845	-0.584689	-0.354006
H63	H	1.494723	-0.570200	-0.225421
H64	H	1.646437	-0.590440	-0.129388
H65	H	1.636967	-0.090086	0.616526
O66	O	1.602922	-0.413809	0.226285
C67	C	1.796849	-0.445161	0.354612
C68	C	1.729940	-0.386465	0.225897
H69	H	1.899561	-0.423099	0.354327
H70	H	1.748024	-0.402601	0.450706
H71	H	1.792509	-0.553329	0.354045
H72	H	1.734261	-0.278299	0.226331
H73	H	1.778784	-0.429125	0.129860
O74	O	1.776412	0.039614	0.375006
C75	C	1.980965	0.109378	0.422760
C76	C	1.857722	0.067428	0.482993
H77	H	2.046726	0.131903	0.510038
H78	H	2.028626	0.028896	0.356856
H79	H	1.958736	0.198484	0.356777
H80	H	1.879842	-0.021650	0.549038
H81	H	1.810095	0.147986	0.548819
O82	O	1.318267	0.357246	0.358414
C83	C	1.150315	0.527640	0.373627
C84	C	1.243434	0.433062	0.452680
H85	H	1.089770	0.588943	0.449806
H86	H	1.205025	0.591980	0.306308
H87	H	1.087151	0.471939	0.306225
H88	H	1.306620	0.488659	0.520157
H89	H	1.188645	0.368722	0.519912
H90	H	1.104010	0.190911	0.226062
H91	H	1.764035	0.024425	0.610964
O92	O	0.855840	0.184388	0.245541
C93	C	0.694707	0.290716	0.390221
C94	C	0.766846	0.292645	0.253190
H95	H	0.622757	0.378245	0.396462
H96	H	0.643977	0.200003	0.396437
H97	H	0.764056	0.292509	0.479264
H98	H	0.697581	0.290899	0.164069
H99	H	0.817595	0.383350	0.247094
H100	H	0.867990	0.276820	-0.313131
H101	H	1.707581	-0.260134	-0.000124
H102	H	1.262626	-0.364128	-0.000135
O103	O	1.641659	-0.114331	0.381498
C104	C	1.493206	-0.273758	0.377196
C105	C	1.522324	-0.141328	0.429954
H106	H	1.396736	-0.295637	0.416375
H107	H	1.493109	-0.273811	0.260031
H108	H	1.568275	-0.349911	0.416203
H109	H	1.447287	-0.065100	0.391048
H110	H	1.522466	-0.141382	0.547118
O111	O	1.112540	0.081186	-0.321669
C112	C	1.313440	-0.031556	-0.378963
C113	C	1.243547	0.091153	-0.318675
H114	H	1.419370	-0.023528	-0.376590
H115	H	1.290826	-0.117728	-0.315375
H116	H	1.281847	-0.044221	-0.489659
H117	H	1.275100	0.103940	-0.207991
H118	H	1.266162	0.177261	-0.382364
H119	H	1.331618	0.343604	0.630545
