data_functionalizedCrystal
_audit_creation_method	'MofGen! by Chris Wilmer'
_symmetry_space_group_name_H-M	'P1'
_symmetry_Int_Tables_number	1
_symmetry_cell_setting	triclinic
loop_
_symmetry_equiv_pos_as_xyz
  x,y,z
_cell_length_a	8.597187
_cell_length_b	8.597278
_cell_length_c	7.540329
_cell_angle_alpha	82.296382
_cell_angle_beta	82.295245
_cell_angle_gamma	84.294798
loop_
_atom_site_label
_atom_site_type_symbol
_atom_site_fract_x
_atom_site_fract_y
_atom_site_fract_z
O1	O	2.086065	0.234317	-0.502034
O2	O	1.629400	0.252288	-0.435003
O3	O	1.866717	0.014973	-0.434998
O4	O	1.848747	0.471632	-0.502039
O5	O	1.866703	0.014970	-0.140030
O6	O	1.629385	0.252285	-0.140036
O7	O	2.086050	0.234313	-0.207066
Cu8	Cu	1.857717	0.243299	-0.146618
Cu9	Cu	1.857734	0.243303	-0.495451
O10	O	1.848733	0.471629	-0.207071
C11	C	1.570890	0.250356	-0.278286
C12	C	1.396572	0.244584	-0.250769
C13	C	1.864779	-0.043530	-0.278283
C14	C	1.859007	-0.217846	-0.250773
C15	C	2.144560	0.236246	-0.363788
C16	C	2.318878	0.242018	-0.391316
C17	C	1.850671	0.530132	-0.363790
C18	C	1.856443	0.704447	-0.391312
N19	N	1.857716	0.243295	0.098731
N20	N	1.857746	0.243294	-0.740801
H21	H	1.856780	-0.284674	-0.109399
H22	H	1.329729	0.242382	-0.109402
H23	H	1.858648	-0.228714	-0.532693
H24	H	1.385727	0.244237	-0.532695
