data_functionalizedCrystal
_audit_creation_method	'MofGen! by Chris Wilmer'
_symmetry_space_group_name_H-M	'P1'
_symmetry_Int_Tables_number	1
_symmetry_cell_setting	triclinic
loop_
_symmetry_equiv_pos_as_xyz
  x,y,z
_cell_length_a	10.268362
_cell_length_b	17.699083
_cell_length_c	17.699083
_cell_angle_alpha	83.283015
_cell_angle_beta	89.993826
_cell_angle_gamma	90.001444
loop_
_atom_site_label
_atom_site_type_symbol
_atom_site_fract_x
_atom_site_fract_y
_atom_site_fract_z
O1	O	0.108120	-1.004076	-0.095712
O2	O	0.608120	-0.504076	0.404288
O3	O	0.108163	-0.783697	-0.108164
O4	O	0.608163	-0.283697	0.391836
O5	O	0.108129	-0.900113	0.008251
O6	O	0.608129	-0.400113	0.508251
O7	O	0.108154	-0.887660	-0.212127
O8	O	0.608154	-0.387660	0.287873
O9	O	-0.108472	-0.900103	0.008256
O10	O	0.391528	-0.400103	0.508256
O11	O	-0.108437	-0.783687	-0.108160
O12	O	0.391563	-0.283687	0.391840
O13	O	-0.108480	-1.004066	-0.095707
O14	O	0.391520	-0.504066	0.404293
Cu15	Cu	-0.128236	-0.893876	-0.101933
Cu16	Cu	0.371764	-0.393876	0.398067
Cu17	Cu	0.127919	-0.893888	-0.101938
Cu18	Cu	0.627919	-0.393888	0.398062
O19	O	-0.108446	-0.887650	-0.212122
O20	O	0.391554	-0.387650	0.287878
C21	C	-0.000132	-0.755495	-0.107716
C22	C	0.499868	-0.255495	0.392284
C23	C	-0.000116	-0.671477	-0.106377
C24	C	0.499884	-0.171477	0.393623
C25	C	-0.000171	-0.899662	0.036451
C26	C	0.499829	-0.399662	0.536451
C27	C	-0.000172	-0.898323	0.120469
C28	C	0.499828	-0.398323	0.620469
N29	N	-0.308402	-0.893873	-0.101928
N30	N	0.191598	-0.393873	0.398072
C31	C	-0.574073	-0.893884	-0.101937
C32	C	-0.074073	-0.393884	0.398063
C33	C	-0.426235	-0.893875	-0.101934
C34	C	0.073765	-0.393875	0.398066
N35	N	0.308085	-0.893896	-0.101937
N36	N	0.808085	-0.393896	0.398063
C37	C	-0.000183	-1.032268	-0.096156
C38	C	0.499817	-0.532268	0.403844
C39	C	-0.000190	-1.116286	-0.097494
C40	C	0.499810	-0.616286	0.402506
C41	C	-0.000108	-0.622856	-0.174710
C42	C	0.499892	-0.122856	0.325290
C43	C	-0.000125	-0.543913	-0.173448
C44	C	0.499875	-0.043913	0.326552
C45	C	-0.000140	-0.513592	-0.103852
C46	C	0.499860	-0.013592	0.396148
C47	C	-0.000152	-0.562219	-0.035513
C48	C	0.499848	-0.062219	0.464487
C49	C	-0.000144	-0.641161	-0.036776
C50	C	0.499856	-0.141161	0.463224
C51	C	-0.000184	-0.243856	-0.030418
C52	C	0.499816	0.256144	0.469582
C53	C	-0.000188	-0.164908	-0.029160
C54	C	0.499812	0.335092	0.470840
C55	C	-0.000166	-0.146608	-0.167090
C56	C	0.499834	0.353392	0.332910
C57	C	-0.000158	-0.225550	-0.168353
C58	C	0.499842	0.274450	0.331647
C59	C	-0.000176	-0.274170	-0.100015
C60	C	0.499824	0.225830	0.399985
C61	C	-0.000160	-0.359769	-0.101384
C62	C	0.499840	0.140231	0.398616
C63	C	-0.000147	-0.427995	-0.102481
C64	C	0.499853	0.072005	0.397519
C65	C	-0.000143	-0.888102	-0.240322
C66	C	0.499857	-0.388102	0.259678
C67	C	-0.000134	-0.889440	-0.324340
C68	C	0.499866	-0.389440	0.175660
C69	C	-0.000187	-0.966656	0.169090
C70	C	0.499813	-0.466656	0.669090
C71	C	-0.000175	-0.965394	0.248033
C72	C	0.499825	-0.465394	0.748033
C73	C	-0.000157	-0.895798	0.278354
C74	C	0.499843	-0.395798	0.778354
C75	C	-0.000138	-0.827459	0.229727
C76	C	0.499862	-0.327459	0.729727
C77	C	-0.000141	-0.828722	0.150785
C78	C	0.499859	-0.328722	0.650785
C79	C	-0.000127	-0.822364	0.548090
C80	C	0.499873	-0.322364	1.048090
C81	C	-0.000128	-0.821106	0.627038
C82	C	0.499872	-0.321106	1.127038
C83	C	-0.000161	-0.959036	0.645338
C84	C	0.499839	-0.459036	1.145338
C85	C	-0.000163	-0.960299	0.566396
C86	C	0.499837	-0.460299	1.066396
C87	C	-0.000138	-0.891961	0.517776
C88	C	0.499862	-0.391961	1.017776
C89	C	-0.000148	-0.893330	0.432177
C90	C	0.499852	-0.393330	0.932177
C91	C	-0.000156	-0.894427	0.363951
C92	C	0.499844	-0.394427	0.863951
H93	H	-0.000095	-0.647537	-0.231384
H94	H	0.499905	-0.147537	0.268616
H95	H	-0.000183	-0.537526	0.021154
H96	H	0.499817	-0.037526	0.521154
O97	O	-0.000112	-0.746037	0.659743
O98	O	0.499888	-0.246037	1.159743
H99	H	0.088163	-0.742175	0.695275
H100	H	0.588163	-0.242175	1.195275
H101	H	-0.000158	-0.107012	-0.222734
H102	H	0.499842	0.392988	0.277266
H103	H	-0.000190	-1.021038	0.287618
H104	H	0.499810	-0.521038	0.787618
O105	O	-0.000140	-0.258255	-0.243417
O106	O	0.499860	0.241745	0.256583
H107	H	-0.088416	-0.293792	-0.247281
H108	H	0.411584	0.206208	0.252719
H109	H	-0.000149	-0.680748	0.018868
H110	H	0.499851	-0.180748	0.518868
O111	O	-0.000178	-1.032749	0.697777
O112	O	0.499822	-0.532749	1.197777
H113	H	-0.000160	-1.020183	0.757765
H114	H	0.499840	-0.520183	1.257765
O115	O	-0.000191	-0.296290	0.043287
O116	O	0.499809	0.203710	0.543287
H117	H	-0.088480	-0.332691	0.046017
H118	H	0.411520	0.167309	0.546017
H119	H	-0.000116	-0.770792	0.254420
H120	H	0.499884	-0.270792	0.754420
H121	H	-0.000106	-0.766718	0.508512
H122	H	0.499894	-0.266718	1.008512
O123	O	-0.000138	-0.755021	0.098338
O124	O	0.499862	-0.255021	0.598338
H125	H	-0.000141	-0.706413	0.132682
H126	H	0.499859	-0.206413	0.632682
H127	H	-0.000118	-0.504328	-0.229092
H128	H	0.499882	-0.004328	0.270908
H129	H	-0.000209	-1.023330	0.144409
H130	H	0.499791	-0.523330	0.644409
O131	O	-0.000227	-0.132201	0.045908
O132	O	0.499773	0.367799	0.545908
H133	H	-0.000256	-0.179271	0.093216
H134	H	0.499744	0.320729	0.593216
O135	O	-0.000164	-1.035363	0.533690
O136	O	0.499836	-0.535363	1.033690
H137	H	-0.000154	-1.082669	0.580763
H138	H	0.499846	-0.582669	1.080763
