data_functionalizedCrystal
_audit_creation_method	'MofGen! by Chris Wilmer'
_symmetry_space_group_name_H-M	'P1'
_symmetry_Int_Tables_number	1
_symmetry_cell_setting	triclinic
loop_
_symmetry_equiv_pos_as_xyz
  x,y,z
_cell_length_a	10.540514
_cell_length_b	10.540539
_cell_length_c	11.892095
_cell_angle_alpha	93.930600
_cell_angle_beta	86.061559
_cell_angle_gamma	84.520326
loop_
_atom_site_label
_atom_site_type_symbol
_atom_site_fract_x
_atom_site_fract_y
_atom_site_fract_z
O1	O	1.693950	0.170704	-0.094012
O2	O	1.324533	0.187594	-0.094011
O3	O	1.517669	-0.005558	-0.094010
O4	O	1.500813	0.363856	-0.094013
O5	O	1.501566	0.010521	0.093997
O6	O	1.308429	0.203673	0.093997
O7	O	1.677846	0.186784	0.093995
Zn8	Zn	1.490581	0.197781	0.123846
Zn9	Zn	1.511798	0.176596	-0.123862
O10	O	1.484710	0.379936	0.093995
C11	C	1.269177	0.194374	-0.000007
C12	C	1.128228	0.190605	-0.000006
C13	C	1.057522	0.328744	-0.000010
C14	C	0.910946	0.324833	-0.000442
C15	C	0.945069	0.106313	-0.107165
C16	C	1.091615	0.111159	-0.107249
C17	C	1.073704	0.127401	0.106558
C18	C	0.926606	0.126188	0.107960
C19	C	1.508354	-0.044822	-0.000008
C20	C	1.504572	-0.185770	-0.000014
C21	C	1.359689	-0.369219	-0.000436
C22	C	1.363487	-0.222566	-0.000013
C23	C	1.563273	-0.238251	0.107347
C24	C	1.558450	-0.384788	0.107437
C25	C	1.579632	-0.403592	-0.106362
C26	C	1.581053	-0.256731	-0.107782
C27	C	1.733202	0.180004	-0.000011
C28	C	1.874152	0.183772	-0.000019
C29	C	1.494026	0.419199	-0.000009
C30	C	1.497808	0.560146	-0.000011
N31	N	1.476110	0.212239	0.292900
N32	N	1.526279	0.162128	-0.292916
C33	C	1.626973	0.061451	0.529549
C34	C	1.616868	0.071566	0.647891
C35	C	1.445788	0.242578	0.647928
C36	C	1.455893	0.232463	0.529586
C37	C	1.546490	0.141897	0.470401
C38	C	1.556602	0.131789	0.352057
C39	C	1.385516	0.302795	0.352096
C40	C	1.375410	0.312910	0.470438
H41	H	1.098240	0.180333	0.187797
H42	H	0.923069	0.002366	-0.110846
H43	H	1.079482	0.391353	0.076814
H44	H	1.509265	-0.188814	0.187242
H45	H	1.126726	0.154164	-0.187650
H46	H	0.861705	0.385118	0.076347
H47	H	1.120872	0.025596	0.107593
C48	C	1.702772	-0.207578	0.112758
N49	N	1.807841	-0.184462	0.116836
H50	H	0.878821	0.182878	0.187229
H51	H	1.540940	-0.442100	-0.187735
C52	C	1.523194	-0.210631	-0.215083
N53	N	1.479602	-0.175912	-0.295901
H54	H	1.684470	-0.233074	-0.114265
H55	H	1.301644	0.386644	0.518641
C56	C	1.300208	-0.173891	-0.103978
N57	N	1.252536	-0.137235	-0.182285
H58	H	1.140013	0.009295	-0.111823
C59	C	1.717382	-0.467496	-0.107344
N60	N	1.821129	-0.515635	-0.108076
C61	C	1.293295	-0.416758	-0.104439
N62	N	1.243284	-0.452577	-0.182774
H63	H	0.901839	0.023923	0.114750
H64	H	1.094322	0.377400	-0.076733
H65	H	1.297627	-0.392874	0.076124
H66	H	1.630373	0.058050	0.303869
H67	H	1.682403	0.006056	0.696046
C68	C	1.296979	0.391292	0.287024
N69	N	1.230296	0.457948	0.238010
H70	H	0.875832	0.371713	-0.077702
H71	H	1.372017	0.316306	0.696132
H72	H	1.659499	-0.432349	0.112308
H73	H	1.303085	-0.174211	0.077077
H74	H	0.909317	0.146281	-0.187208
C75	C	1.726635	-0.038166	0.464442
N76	N	1.801701	-0.113200	0.415405
C77	C	1.481360	-0.413607	0.215851
N78	N	1.423290	-0.435306	0.297509
