data_functionalizedCrystal
_audit_creation_method	'MofGen! by Chris Wilmer'
_symmetry_space_group_name_H-M	'P1'
_symmetry_Int_Tables_number	1
_symmetry_cell_setting	triclinic
loop_
_symmetry_equiv_pos_as_xyz
  x,y,z
_cell_length_a	18.050582
_cell_length_b	13.897449
_cell_length_c	13.897448
_cell_angle_alpha	90.018972
_cell_angle_beta	90.020930
_cell_angle_gamma	90.013755
loop_
_atom_site_label
_atom_site_type_symbol
_atom_site_fract_x
_atom_site_fract_y
_atom_site_fract_z
Zn1	Zn	-0.419898	-1.474636	0.384043
Zn2	Zn	-0.086565	-1.141303	0.717377
Zn3	Zn	0.246769	-0.807969	1.050710
Zn4	Zn	-0.295711	-1.474550	0.545338
Zn5	Zn	0.037622	-1.141216	0.878671
Zn6	Zn	0.370955	-0.807883	1.212004
Zn7	Zn	-0.295725	-1.313345	0.384062
Zn8	Zn	0.037609	-0.980012	0.717395
Zn9	Zn	0.370942	-0.646678	1.050729
Zn10	Zn	-0.419863	-1.313307	0.545302
Zn11	Zn	-0.086529	-0.979974	0.878635
Zn12	Zn	0.246804	-0.646640	1.211968
O13	O	-0.357799	-1.393959	0.464686
O14	O	-0.024466	-1.060626	0.798019
O15	O	0.308868	-0.727293	1.131353
O16	O	-0.403434	-1.609606	0.405447
O17	O	-0.070100	-1.276273	0.738780
O18	O	0.263233	-0.942940	1.072113
O19	O	-0.191789	-1.453145	0.523967
O20	O	0.141545	-1.119812	0.857300
O21	O	0.474878	-0.786479	1.190634
O22	O	-0.312217	-1.334793	0.249078
O23	O	0.021117	-1.001459	0.582411
O24	O	0.354450	-0.668126	0.915745
O25	O	-0.312194	-1.609543	0.523949
O26	O	0.021139	-1.276210	0.857282
O27	O	0.354472	-0.942876	1.190616
O28	O	-0.403446	-1.453293	0.249064
O29	O	-0.070113	-1.119959	0.582397
O30	O	0.263220	-0.786626	0.915731
O31	O	-0.191798	-1.334709	0.405478
O32	O	0.141535	-1.001376	0.738812
O33	O	0.474868	-0.668042	1.072145
O34	O	-0.312182	-1.178358	0.405443
O35	O	0.021151	-0.845025	0.738777
O36	O	0.354484	-0.511692	1.072110
O37	O	-0.523792	-1.334728	0.523887
O38	O	-0.190459	-1.001395	0.857221
O39	O	0.142875	-0.668061	1.190554
O40	O	-0.403386	-1.178330	0.523905
O41	O	-0.070053	-0.844997	0.857239
O42	O	0.263281	-0.511664	1.190572
O43	O	-0.523818	-1.453256	0.405412
O44	O	-0.190485	-1.119922	0.738745
O45	O	0.142849	-0.786589	1.072078
O46	O	-0.312160	-1.453109	0.680315
O47	O	0.021173	-1.119775	1.013648
O48	O	0.354507	-0.786442	1.346981
O49	O	-0.403373	-1.334644	0.680288
O50	O	-0.070040	-1.001311	1.013621
O51	O	0.263293	-0.667978	1.346955
C52	C	-0.357778	-1.393889	0.715301
C53	C	-0.024444	-1.060556	1.048634
C54	C	0.308889	-0.727222	1.381967
C55	C	-0.357793	-1.393947	0.822514
C56	C	-0.024460	-1.060614	1.155848
C57	C	0.308873	-0.727281	1.489181
C58	C	-0.357782	-1.143345	0.464673
C59	C	-0.024449	-0.810012	0.798007
C60	C	0.308884	-0.476678	1.131340
C61	C	-0.357793	-1.036131	0.464691
C62	C	-0.024459	-0.702798	0.798024
C63	C	0.308874	-0.369465	1.131358
C64	C	-0.551505	-1.393997	0.464643
C65	C	-0.218171	-1.060664	0.797977
C66	C	0.115162	-0.727331	1.131310
C67	C	-0.634051	-1.394013	0.464625
C68	C	-0.300717	-1.060680	0.797958
C69	C	0.032616	-0.727347	1.131292
C70	C	-0.833487	-1.329607	0.528964
C71	C	-0.500154	-0.996274	0.862298
C72	C	-0.166821	-0.662941	1.195631
C73	C	-0.882878	-1.417615	0.552541
C74	C	-0.549544	-1.084282	0.885874
C75	C	-0.216211	-0.750948	1.219208
C76	C	-0.785181	-1.394061	0.464552
C77	C	-0.451848	-1.060728	0.797885
C78	C	-0.118514	-0.727394	1.131218
C79	C	-0.882872	-1.306102	0.440948
C80	C	-0.549539	-0.972768	0.774282
C81	C	-0.216206	-0.639435	1.107615
C82	C	-0.931166	-1.394099	0.464482
C83	C	-0.597833	-1.060766	0.797816
C84	C	-0.264500	-0.727432	1.131149
C85	C	-0.833484	-1.482115	0.488174
C86	C	-0.500151	-1.148781	0.821508
C87	C	-0.166818	-0.815448	1.154841
C88	C	-0.833475	-1.370542	0.376541
C89	C	-0.500141	-1.037209	0.709874
C90	C	-0.166808	-0.703875	1.043207
C91	C	-0.882843	-1.458611	0.400084
C92	C	-0.549509	-1.125277	0.733417
C93	C	-0.216176	-0.791944	1.066750
C94	C	-0.701083	-1.394038	0.464594
C95	C	-0.367749	-1.060704	0.797927
C96	C	-0.034416	-0.727371	1.131261
C97	C	-1.015263	-1.394132	0.464440
C98	C	-0.681930	-1.060799	0.797773
C99	C	-0.348596	-0.727466	1.131106
C100	C	-0.164847	-1.393977	0.464659
C101	C	0.168486	-1.060644	0.797992
C102	C	0.501820	-0.727311	1.131326
C103	C	-0.082302	-1.394148	0.464406
C104	C	0.251032	-1.060815	0.797739
C105	C	0.584365	-0.727481	1.131072
C106	C	-0.357817	-1.645552	0.464700
C107	C	-0.024483	-1.312219	0.798033
C108	C	0.308850	-0.978886	1.131366
C109	C	-0.357824	-1.752766	0.464706
C110	C	-0.024491	-1.419433	0.798039
C111	C	0.308843	-1.086100	1.131372
C112	C	-0.357812	-0.839836	0.464694
C113	C	-0.024479	-0.506503	0.798028
C114	C	0.308855	-0.173169	1.131361
C115	C	-0.357799	-0.949069	0.464690
C116	C	-0.024466	-0.615735	0.798023
C117	C	0.308868	-0.282402	1.131356
C118	C	-0.357837	-1.394056	0.213093
C119	C	-0.024504	-1.060723	0.546426
C120	C	0.308830	-0.727390	0.879760
C121	C	-0.357853	-1.394098	0.105879
C122	C	-0.024520	-1.060764	0.439213
C123	C	0.308814	-0.727431	0.772546
C124	C	-0.357840	-1.394048	1.018809
C125	C	-0.024507	-1.060715	1.352143
C126	C	0.308827	-0.727382	1.685476
C127	C	-0.357816	-1.393989	0.909577
C128	C	-0.024483	-1.060656	1.242910
C129	C	0.308850	-0.727323	1.576244
H130	H	-0.811817	-1.275152	0.583507
H131	H	-0.478483	-0.941819	0.916841
H132	H	-0.145150	-0.608485	1.250174
H133	H	-0.904578	-1.437530	0.626940
H134	H	-0.571245	-1.104197	0.960274
H135	H	-0.237911	-0.770864	1.293607
O136	O	-0.911607	-1.207549	0.414537
O137	O	-0.578273	-0.874215	0.747870
O138	O	-0.244940	-0.540882	1.081203
H139	H	-0.945431	-1.212740	0.348023
H140	H	-0.612098	-0.879406	0.681356
H141	H	-0.278765	-0.546073	1.014689
H142	H	-0.811881	-1.556539	0.508193
H143	H	-0.478548	-1.223205	0.841527
H144	H	-0.145214	-0.889872	1.174860
O145	O	-0.911378	-1.530906	0.327888
O146	O	-0.578045	-1.197572	0.661222
O147	O	-0.244711	-0.864239	0.994555
H148	H	-0.891491	-1.603832	0.347679
H149	H	-0.558157	-1.270499	0.681013
H150	H	-0.224824	-0.937166	1.014346
H151	H	-0.811758	-1.350601	0.302163
H152	H	-0.478425	-1.017267	0.635496
H153	H	-0.145091	-0.683934	0.968829
