data_functionalizedCrystal
_audit_creation_method	'MofGen! by Chris Wilmer'
_symmetry_space_group_name_H-M	'P1'
_symmetry_Int_Tables_number	1
_symmetry_cell_setting	triclinic
loop_
_symmetry_equiv_pos_as_xyz
  x,y,z
_cell_length_a	19.077409
_cell_length_b	25.639240
_cell_length_c	19.077314
_cell_angle_alpha	92.334974
_cell_angle_beta	85.337816
_cell_angle_gamma	92.334919
loop_
_atom_site_label
_atom_site_type_symbol
_atom_site_fract_x
_atom_site_fract_y
_atom_site_fract_z
Zn1	Zn	1.061650	-0.165848	0.355418
Zn2	Zn	1.066285	-0.256661	0.237516
Zn3	Zn	0.948501	-0.172618	0.242263
Zn4	Zn	0.943717	-0.256638	0.360080
O5	O	1.005038	-0.212941	0.298819
O6	O	1.160913	-0.175071	0.335840
O7	O	1.054603	-0.248355	0.139497
O8	O	0.963573	-0.098552	0.257309
O9	O	1.164319	-0.241791	0.249218
O10	O	1.046703	-0.093578	0.340443
O11	O	0.968068	-0.186609	0.142984
O12	O	0.849218	-0.186587	0.261830
O13	O	0.955419	-0.241752	0.458111
O14	O	0.845703	-0.248316	0.348389
O15	O	1.042064	-0.175049	0.454685
O16	O	1.049964	-0.329826	0.253739
O17	O	0.959913	-0.329809	0.343786
C18	C	0.821882	-0.218184	0.306131
C19	C	0.743527	-0.220439	0.309276
C20	C	0.302271	-0.236570	0.331863
C21	C	0.375895	-0.234456	0.328895
C22	C	0.414511	-0.201203	0.282419
C23	C	0.379500	-0.170067	0.238903
C24	C	0.305877	-0.172185	0.241868
C25	C	0.634893	-0.191421	0.268724
C26	C	0.708520	-0.189304	0.265764
C27	C	0.704910	-0.253693	0.355756
C28	C	0.631286	-0.255806	0.358719
C29	C	0.596282	-0.224672	0.315201
N30	N	0.489767	-0.199040	0.279386
N31	N	0.521028	-0.226838	0.318231
C32	C	1.004941	-0.348788	0.298768
C33	C	1.004963	-0.406902	0.298767
C34	C	1.048343	-0.764629	0.342188
C35	C	1.048363	-0.819233	0.342201
O36	O	1.085131	-0.845234	0.379067
N37	N	1.005133	-0.849175	0.298883
C38	C	0.961875	-0.824512	0.255555
O39	O	0.925106	-0.854994	0.218711
C40	C	0.961852	-0.769910	0.255545
C41	C	1.005090	-0.739970	0.298861
C42	C	1.091577	-0.734690	0.385500
C43	C	1.091558	-0.680090	0.385485
C44	C	1.048304	-0.655430	0.342158
C45	C	1.005070	-0.685370	0.298846
C46	C	0.918590	-0.745247	0.212221
C47	C	0.918570	-0.690641	0.212216
C48	C	0.961808	-0.660701	0.255531
C49	C	0.961798	-0.606111	0.255504
N50	N	1.005028	-0.576168	0.298822
C51	C	1.048281	-0.600828	0.342149
C52	C	0.961927	-0.939180	0.255578
C53	C	0.961953	-0.993782	0.255583
C54	C	1.048441	-0.988499	0.342231
C55	C	1.048417	-0.933896	0.342222
C56	C	1.005157	-0.909238	0.298896
C57	C	1.048237	-0.486165	0.342115
C58	C	1.048216	-0.431561	0.342094
C59	C	0.961726	-0.436849	0.255449
C60	C	0.961750	-0.491448	0.255467
C61	C	1.005007	-0.516105	0.298805
O62	O	0.925047	-0.580074	0.218660
O63	O	1.085037	-0.570339	0.378993
C64	C	1.188910	-0.207678	0.291479
C65	C	1.267265	-0.205435	0.288352
C66	C	0.997690	-0.207642	0.482692
C67	C	0.994559	-0.205384	0.561047
C68	C	1.005155	-0.076563	0.298885
C69	C	1.005204	-0.018446	0.298913
C70	C	1.012398	-0.218180	0.115660
C71	C	1.015666	-0.220287	0.037300
C72	C	1.038139	-0.236470	0.596046
C73	C	1.035196	-0.234342	0.669669
C74	C	0.988670	-0.201131	0.708293
C75	C	0.945089	-0.170042	0.673289
C76	C	0.948035	-0.172168	0.599667
C77	C	0.975031	-0.191324	0.928674
C78	C	0.972087	-0.189202	1.002301
C79	C	1.062195	-0.253501	0.998676
C80	C	1.065135	-0.255626	0.925053
C81	C	1.021556	-0.224535	0.890056
N82	N	0.985660	-0.198956	0.783548
N83	N	1.024570	-0.226708	0.814802
H84	H	0.599850	-0.282884	0.396564
H85	H	0.926753	-1.018155	0.220304
O86	O	0.919829	-0.915205	0.213585
C87	C	0.825039	-0.856612	0.207793
C88	C	0.872656	-0.883736	0.255430
H89	H	0.786898	-0.831155	0.241604
H90	H	0.794097	-0.887374	0.176851
H91	H	0.858910	-0.831199	0.169644
H92	H	0.838837	-0.909147	0.293620
H93	H	0.903602	-0.852948	0.286323
O94	O	0.417116	-0.137778	0.193817
C95	C	0.532133	-0.105999	0.149340
C96	C	0.489622	-0.142583	0.200441
H97	H	0.590763	-0.109880	0.154667
H98	H	0.517239	-0.063898	0.162413
H99	H	0.519864	-0.117164	0.093065
H100	H	0.501869	-0.131465	0.256734
H101	H	0.504522	-0.184675	0.187307
H102	H	0.733419	-0.279041	0.391186
H103	H	0.739960	-0.162219	0.227923
H104	H	0.277376	-0.146830	0.206438
H105	H	1.083625	-0.909522	0.377493
H106	H	1.097676	-0.278812	1.027179
O107	O	1.090237	-0.402556	0.384241
C108	C	1.176052	-0.403089	0.470154
C109	C	1.128490	-0.435997	0.422471
H110	H	1.207002	-0.430112	0.501065
H111	H	1.142208	-0.377410	0.508322
H112	H	1.214194	-0.377377	0.436333
H113	H	1.090340	-0.461739	0.456236
H114	H	1.162377	-0.461642	0.384300
H115	H	1.103010	-0.282679	0.893611
H116	H	1.070684	-0.259655	0.698162
O117	O	1.090416	-1.012399	0.384424
C118	C	1.119714	-1.024633	0.503011
C119	C	1.072144	-0.997522	0.455313
H120	H	1.104948	-1.012625	0.560335
H121	H	1.177067	-1.012582	0.488468
H122	H	1.112311	-1.068799	0.495539
H123	H	1.079485	-0.953352	0.462760
H124	H	1.014809	-1.009616	0.469867
O125	O	0.899799	-0.137811	0.710733
C126	C	0.779003	-0.115233	0.738081
C127	C	0.830220	-0.151761	0.695625
H128	H	0.722737	-0.126505	0.725893
H129	H	0.791941	-0.073129	0.723119
H130	H	0.784418	-0.119045	0.796708
H131	H	0.824833	-0.147995	0.636988
H132	H	0.817268	-0.193850	0.710646
O133	O	1.090154	-0.510138	0.384289
C134	C	1.095793	-0.568744	0.479090
C135	C	1.048239	-0.541619	0.431391
H136	H	1.061926	-0.594211	0.517174
H137	H	1.126675	-0.537984	0.510093
H138	H	1.133998	-0.594149	0.445273
H139	H	1.009994	-0.516217	0.465155
H140	H	1.017407	-0.572406	0.400384
H141	H	0.883382	-0.769615	0.176948
O142	O	0.876525	-0.666772	0.170063
C143	C	0.790701	-0.677780	0.084165
C144	C	0.838294	-0.704877	0.131855
H145	H	0.759768	-0.708575	0.053273
H146	H	0.824520	-0.652360	0.045981
H147	H	0.752543	-0.652338	0.117980
H148	H	0.876459	-0.730345	0.098097
H149	H	0.804431	-0.730265	0.170043
O150	O	1.133575	-0.651088	0.427632
C151	C	1.219389	-0.651632	0.513545
C152	C	1.171826	-0.684534	0.465857
H153	H	1.250338	-0.678659	0.544451
H154	H	1.185547	-0.625955	0.551717
H155	H	1.257533	-0.625918	0.479727
H156	H	1.133674	-0.710278	0.499618
H157	H	1.205712	-0.710177	0.427681
H158	H	0.926548	-0.515827	0.220190
H159	H	0.934201	-0.162153	1.033747
H160	H	0.606401	-0.166071	0.233285
O161	O	0.919731	-0.412806	0.213430
C162	C	0.881402	-0.331022	0.174997
C163	C	0.928989	-0.358185	0.222625
H164	H	0.888882	-0.286856	0.182403
H165	H	0.824045	-0.343023	0.189608
H166	H	0.896088	-0.343082	0.117675
H167	H	0.914366	-0.346138	0.279961
H168	H	0.986334	-0.346183	0.207954
O169	O	1.133495	-0.758663	0.427669
C170	C	1.139153	-0.817268	0.522468
C171	C	1.091589	-0.790148	0.474773
H172	H	1.105293	-0.842738	0.560554
H173	H	1.170030	-0.786503	0.553470
H174	H	1.177362	-0.842667	0.488650
H175	H	1.053341	-0.764750	0.508538
H176	H	1.060762	-0.820939	0.443767
H177	H	0.270835	-0.263645	0.369713
O178	O	1.083273	-0.268720	0.558424
C179	C	1.127781	-0.300468	0.443401
C180	C	1.076620	-0.263932	0.485919
H181	H	1.122431	-0.296602	0.384773
H182	H	1.114788	-0.342578	0.458302
H183	H	1.184043	-0.289245	0.455658
H184	H	1.020341	-0.275108	0.473685
H185	H	1.089674	-0.221831	0.471012
O186	O	0.932628	-0.161107	0.894795
C187	C	0.842973	-0.097082	0.906165
C188	C	0.890945	-0.131286	0.944626
H189	H	0.809272	-0.072955	0.946436
H190	H	0.807422	-0.123109	0.873176
H191	H	0.876755	-0.069832	0.870401
H192	H	0.857219	-0.158540	0.980426
H193	H	0.926501	-0.105227	0.977571
H194	H	0.404394	-0.259810	0.364325
O195	O	0.905669	-0.142049	0.565590
C196	C	0.813798	-0.140139	0.486295
C197	C	0.861745	-0.174313	0.524832
H198	H	0.778264	-0.166211	0.453345
H199	H	0.847531	-0.112880	0.450502
H200	H	0.780069	-0.116025	0.526556
H201	H	0.895484	-0.198460	0.484621
H202	H	0.827972	-0.201539	0.560637
