data_functionalizedCrystal
_audit_creation_method	'MofGen! by Chris Wilmer'
_symmetry_space_group_name_H-M	'P1'
_symmetry_Int_Tables_number	1
_symmetry_cell_setting	triclinic
loop_
_symmetry_equiv_pos_as_xyz
  x,y,z
_cell_length_a	6.817900
_cell_length_b	11.168129
_cell_length_c	11.168152
_cell_angle_alpha	92.020190
_cell_angle_beta	108.508980
_cell_angle_gamma	108.508637
loop_
_atom_site_label
_atom_site_type_symbol
_atom_site_fract_x
_atom_site_fract_y
_atom_site_fract_z
V1	V	-4.109886	-0.174724	-0.393710
O2	O	-4.069470	0.008377	-0.386204
O3	O	-4.086175	-0.346429	-0.391029
O4	O	-4.086179	-0.172045	-0.565416
O5	O	-4.069466	-0.167215	-0.210610
V6	V	-4.587116	-0.152822	-0.371809
O7	O	-4.384951	-0.222767	-0.441753
O8	O	-4.762249	-0.104778	-0.323766
O9	O	-4.387621	0.018883	-0.374490
O10	O	-4.744929	-0.335922	-0.379315
O11	O	-4.744933	-0.160331	-0.554909
O12	O	-4.387617	-0.155501	-0.200103
C13	C	-3.936383	-0.388287	-0.384820
C14	C	-3.998447	-0.528658	-0.383772
C15	C	-3.936386	-0.165841	-0.607267
C16	C	-3.998449	-0.164787	-0.747638
C17	C	-4.147074	-0.753455	-0.492112
C18	C	-4.082929	-0.608374	-0.493198
C19	C	-4.265095	-0.169216	-0.961403
C20	C	-4.200954	-0.170306	-0.816323
C21	C	-4.200755	0.060735	-0.380695
C22	C	-4.117930	0.201105	-0.381752
C23	C	-4.200751	-0.161709	-0.158245
C24	C	-4.117926	-0.162757	-0.017873
H25	H	-4.219527	-0.821959	-0.585792
O26	O	-4.031765	-0.717063	-0.270078
C27	C	-4.071490	-0.553243	-0.143122
C28	C	-4.169284	-0.645830	-0.269662
H29	H	-4.182654	-0.495645	-0.142733
H30	H	-3.900042	-0.485574	-0.133031
H31	H	-4.059443	-0.610041	-0.059876
H32	H	-4.181480	-0.589137	-0.352982
H33	H	-4.340670	-0.713500	-0.279642
H34	H	-4.107763	-0.569230	-0.587683
O35	O	-3.848040	-0.157958	-0.805488
C36	C	-3.494693	-0.037016	-0.817897
C37	C	-3.664855	-0.044576	-0.752284
H38	H	-3.346526	0.054633	-0.774889
H39	H	-3.573026	-0.037225	-0.924575
H40	H	-3.438491	-0.122924	-0.802741
H41	H	-3.721119	0.041312	-0.767340
H42	H	-3.586420	-0.044428	-0.645630
O43	O	-4.472213	-0.175095	-1.031841
C44	C	-4.861400	-0.295462	-1.100539
C45	C	-4.626951	-0.288968	-1.020739
H46	H	-4.986572	-0.387507	-1.091569
H47	H	-4.876406	-0.293673	-1.205025
H48	H	-4.894788	-0.209950	-1.064026
H49	H	-4.593406	-0.374462	-1.057140
H50	H	-4.612061	-0.290695	-0.916266
O51	O	-3.968399	-0.575265	-0.270998
C52	C	-3.709363	-0.578878	-0.067046
C53	C	-3.743063	-0.526010	-0.194718
H54	H	-3.527194	-0.539056	-0.005328
H55	H	-3.766218	-0.687565	-0.086180
H56	H	-3.809781	-0.549082	-0.015077
H57	H	-3.642655	-0.555711	-0.246752
H58	H	-3.686276	-0.417331	-0.175498
O59	O	-4.351198	-0.177131	-0.758348
C60	C	-4.555255	-0.295419	-0.633808
C61	C	-4.385111	-0.287860	-0.699435
H62	H	-4.582693	-0.384923	-0.586137
H63	H	-4.717801	-0.299492	-0.708055
H64	H	-4.491106	-0.207373	-0.558568
H65	H	-4.449055	-0.375885	-0.774667
H66	H	-4.222597	-0.283725	-0.625113
H67	H	-3.944447	-0.158041	-0.958814
