data_functionalizedCrystal
_audit_creation_method	'MofGen! by Chris Wilmer'
_symmetry_space_group_name_H-M	'P1'
_symmetry_Int_Tables_number	1
_symmetry_cell_setting	triclinic
loop_
_symmetry_equiv_pos_as_xyz
  x,y,z
_cell_length_a	6.817900
_cell_length_b	10.943925
_cell_length_c	10.943624
_cell_angle_alpha	91.772910
_cell_angle_beta	108.838799
_cell_angle_gamma	108.844289
loop_
_atom_site_label
_atom_site_type_symbol
_atom_site_fract_x
_atom_site_fract_y
_atom_site_fract_z
V1	V	-4.115532	-0.178599	-0.402534
O2	O	-4.073202	0.008617	-0.394889
O3	O	-4.093518	-0.354165	-0.399763
O4	O	-4.093494	-0.175837	-0.578100
O5	O	-4.073227	-0.170946	-0.215317
V6	V	-4.592325	-0.156208	-0.380143
O7	O	-4.391553	-0.227716	-0.451649
O8	O	-4.766501	-0.107090	-0.331028
O9	O	-4.391132	0.019359	-0.382914
O10	O	-4.752051	-0.343424	-0.387788
O11	O	-4.752026	-0.163861	-0.567359
O12	O	-4.391156	-0.158970	-0.204576
C13	C	-3.944085	-0.396965	-0.393408
C14	C	-4.007548	-0.540493	-0.392314
C15	C	-4.274915	-0.717225	-0.397745
C16	C	-4.085582	-0.611235	-0.288089
C17	C	-4.196062	-0.644571	-0.501935
C18	C	-3.931139	-0.690208	-0.280609
C19	C	-4.041699	-0.723567	-0.494552
C20	C	-3.852230	-0.617606	-0.384865
C21	C	-3.944052	-0.169487	-0.620894
C22	C	-4.007492	-0.168390	-0.764420
C23	C	-3.852320	-0.161003	-0.841568
C24	C	-4.041701	-0.270649	-0.947548
C25	C	-3.931176	-0.056802	-0.914182
C26	C	-4.196083	-0.278139	-0.868523
C27	C	-4.085478	-0.064195	-0.835134
C28	C	-4.274995	-0.173872	-0.941083
C29	C	-4.203907	0.062152	-0.389265
C30	C	-4.119684	0.205678	-0.390368
C31	C	-4.203939	-0.165324	-0.161776
C32	C	-4.119737	-0.166414	-0.018248
H33	H	-3.672911	-0.574321	-0.379394
H34	H	-4.103473	-0.562326	-0.200807
O35	O	-4.107021	0.039879	-0.776850
C36	C	-4.328372	0.034094	-0.829466
H37	H	-4.411317	-0.027266	-0.930569
H38	H	-4.331777	0.137054	-0.837491
H39	H	-4.421012	-0.012182	-0.762887
O40	O	-3.798184	0.054899	-0.938673
C41	C	-3.643290	0.131583	-0.819636
H42	H	-3.710199	0.103870	-0.737534
H43	H	-3.613866	0.239263	-0.827134
H44	H	-3.480558	0.113626	-0.797985
O45	O	-4.020429	-0.781764	-0.598782
C46	C	-3.947141	-0.686480	-0.673600
H47	H	-3.991888	-0.597809	-0.654298
H48	H	-4.030386	-0.728785	-0.781741
H49	H	-3.759892	-0.655796	-0.645264
H50	H	-3.819723	-0.710753	-0.186971
H51	H	-4.454311	-0.179339	-0.984327
H52	H	-4.307448	-0.623861	-0.595480
H53	H	-4.454119	-0.760720	-0.403043
O54	O	-3.638648	-0.154912	-0.789815
C55	C	-3.615746	-0.264007	-0.847651
H56	H	-3.783620	-0.346323	-0.888129
H57	H	-3.494196	-0.298222	-0.771156
H58	H	-3.550905	-0.235693	-0.930433
H59	H	-4.023857	-0.357930	-0.996488
H60	H	-4.307485	-0.371785	-0.847969
