data_functionalizedCrystal
_audit_creation_method	'MofGen! by Chris Wilmer'
_symmetry_space_group_name_H-M	'P1'
_symmetry_Int_Tables_number	1
_symmetry_cell_setting	triclinic
loop_
_symmetry_equiv_pos_as_xyz
  x,y,z
_cell_length_a	11.169417
_cell_length_b	25.639240
_cell_length_c	11.169409
_cell_angle_alpha	90.041349
_cell_angle_beta	89.980487
_cell_angle_gamma	89.955588
loop_
_atom_site_label
_atom_site_type_symbol
_atom_site_fract_x
_atom_site_fract_y
_atom_site_fract_z
Zn1	Zn	1.834689	0.208091	-0.678458
Zn2	Zn	2.334689	0.708091	-0.178458
Zn3	Zn	1.834463	0.295541	-0.477743
Zn4	Zn	2.334463	0.795541	0.022257
Zn5	Zn	1.633974	0.208123	-0.477793
Zn6	Zn	2.133974	0.708123	0.022207
Zn7	Zn	1.633867	0.295499	-0.678389
Zn8	Zn	2.133867	0.795499	-0.178389
O9	O	1.734248	0.251814	-0.578096
O10	O	2.234248	0.751814	-0.078096
O11	O	2.002608	0.219696	-0.651840
O12	O	2.502608	0.719696	-0.151840
O13	O	1.807818	0.283976	-0.309800
O14	O	2.307818	0.783976	0.190200
O15	O	1.660739	0.134954	-0.504461
O16	O	2.160739	0.634954	-0.004461
O17	O	2.002443	0.283945	-0.504376
O18	O	2.502443	0.783945	-0.004376
O19	O	1.808203	0.134930	-0.651889
O20	O	2.308203	0.634930	-0.151889
O21	O	1.660520	0.219751	-0.309837
O22	O	2.160520	0.719751	0.190163
O23	O	1.466011	0.219710	-0.504395
O24	O	1.966011	0.719710	-0.004395
O25	O	1.660556	0.283873	-0.846348
O26	O	2.160556	0.783873	-0.346348
O27	O	1.465932	0.283905	-0.651772
O28	O	1.965932	0.783905	-0.151772
O29	O	1.808099	0.219655	-0.846398
O30	O	2.308099	0.719655	-0.346398
O31	O	1.807714	0.368701	-0.504309
O32	O	2.307714	0.868701	-0.004309
O33	O	1.660337	0.368670	-0.651723
O34	O	2.160337	0.868670	-0.151723
C35	C	1.422424	0.251807	-0.578082
C36	C	1.922424	0.751807	-0.078082
C37	C	1.289024	0.251816	-0.578104
C38	C	1.789024	0.751816	-0.078104
C39	C	1.734022	0.387656	-0.578029
C40	C	2.234022	0.887656	-0.078029
C41	C	1.734035	0.445770	-0.578041
C42	C	2.234035	0.945770	-0.078041
C43	C	1.811088	0.806137	-0.501422
C44	C	2.311088	1.306137	-0.001422
C45	C	1.811125	0.860741	-0.501434
C46	C	2.311125	1.360741	-0.001434
O47	O	1.876479	0.888981	-0.436252
O48	O	2.376479	1.388981	0.063748
N49	N	1.734345	0.888053	-0.578122
N50	N	2.234345	1.388053	-0.078122
C51	C	1.657532	0.860757	-0.654813
C52	C	2.157532	1.360757	-0.154813
O53	O	1.592229	0.889002	-0.720045
O54	O	2.092229	1.389002	-0.220045
C55	C	1.657502	0.806154	-0.654807
C56	C	2.157502	1.306154	-0.154807
C57	C	1.734279	0.778845	-0.578104
C58	C	2.234279	1.278845	-0.078104
C59	C	1.887859	0.778828	-0.424727
C60	C	2.387859	1.278828	0.075273
C61	C	1.887821	0.724228	-0.424714
C62	C	2.387821	1.224228	0.075286
C63	C	1.811011	0.696936	-0.501396
C64	C	2.311011	1.196936	-0.001396
C65	C	1.734240	0.724245	-0.578092
C66	C	2.234240	1.224245	-0.078092
C67	C	1.580696	0.778859	-0.731503
C68	C	2.080696	1.278859	-0.231503
C69	C	1.580674	0.724252	-0.731491
C70	C	2.080674	1.224252	-0.231491
C71	C	1.657450	0.696944	-0.654788
C72	C	2.157450	1.196944	-0.154788
C73	C	1.657392	0.642352	-0.654761
C74	C	2.157392	1.142352	-0.154761
N75	N	1.734172	0.615041	-0.578072
N76	N	2.234172	1.115041	-0.078072
C77	C	1.810981	0.642333	-0.501390
C78	C	2.310981	1.142333	-0.001390
C79	C	1.657602	0.975428	-0.654822
C80	C	2.157602	1.475428	-0.154822
C81	C	1.657625	1.030030	-0.654823
C82	C	2.157625	1.530030	-0.154823
C83	C	1.811220	1.030010	-0.501445
C84	C	2.311220	1.530010	-0.001445
C85	C	1.811190	0.975407	-0.501439
C86	C	2.311190	1.475407	-0.001439
C87	C	1.734382	0.948116	-0.578133
C88	C	2.234382	1.448116	-0.078133
C89	C	1.810894	0.527667	-0.501368
C90	C	2.310894	1.027667	-0.001368
C91	C	1.810845	0.473062	-0.501359
C92	C	2.310845	0.973062	-0.001359
C93	C	1.657255	0.473087	-0.654741
C94	C	2.157255	0.973087	-0.154741
C95	C	1.657299	0.527687	-0.654747
C96	C	2.157299	1.027687	-0.154747
C97	C	1.734128	0.554976	-0.578056
C98	C	2.234128	1.054976	-0.078056
O99	O	1.592075	0.614078	-0.719913
O100	O	2.092075	1.114078	-0.219913
O101	O	1.876285	0.614081	-0.436181
O102	O	2.376285	1.114081	0.063819
C103	C	2.047291	0.251821	-0.578110
C104	C	2.547291	0.751821	-0.078110
C105	C	2.180691	0.251824	-0.578116
C106	C	2.680691	0.751824	-0.078116
C107	C	1.734341	0.251756	-0.891138
C108	C	2.234341	0.751756	-0.391138
C109	C	1.734380	0.251731	-1.024538
C110	C	2.234380	0.751731	-0.524538
C111	C	1.734463	1.115441	-0.578167
C112	C	2.234463	1.615441	-0.078167
C113	C	1.734439	1.057327	-0.578145
C114	C	2.234439	1.557327	-0.078145
C115	C	1.734226	0.251834	-0.266271
C116	C	2.234226	0.751834	0.233729
C117	C	1.734419	0.251711	-0.132871
C118	C	2.234419	0.751711	0.367129
H119	H	1.873458	0.549880	-0.438922
H120	H	2.373458	1.049880	0.061078
N121	N	1.970650	0.694777	-0.342005
N122	N	2.470650	1.194777	0.157995
H123	H	1.952075	0.704319	-0.256236
H124	H	2.452075	1.204319	0.243764
H125	H	2.056356	0.704254	-0.360844
H126	H	2.556356	1.204254	0.139156
N127	N	1.574489	0.557146	-0.737467
N128	N	2.074489	1.057146	-0.237467
H129	H	1.518912	0.579847	-0.688654
H130	H	2.018912	1.079847	-0.188654
H131	H	1.525902	0.531536	-0.786022
H132	H	2.025902	1.031536	-0.286022
H133	H	1.950414	0.801043	-0.362283
H134	H	2.450414	1.301043	0.137717
N135	N	1.574802	1.059476	-0.737548
N136	N	2.074802	1.559476	-0.237548
H137	H	1.623556	1.082089	-0.793219
H138	H	2.123556	1.582089	-0.293219
H139	H	1.519234	1.082144	-0.688652
H140	H	2.019234	1.582144	-0.188652
H141	H	1.873708	0.953175	-0.438982
H142	H	2.373708	1.453175	0.061018
H143	H	1.873365	0.450829	-0.438894
H144	H	2.373365	0.950829	0.061106
N145	N	1.574744	0.945994	-0.737538
N146	N	2.074744	1.445994	-0.237538
H147	H	1.526113	0.971586	-0.786113
H148	H	2.026113	1.471586	-0.286113
H149	H	1.519212	0.923382	-0.688633
H150	H	2.019212	1.423382	-0.188633
H151	H	1.873766	1.052241	-0.439010
H152	H	2.373766	1.552241	0.060990
N153	N	1.497903	0.808309	-0.814242
N154	N	1.997903	1.308309	-0.314242
H155	H	1.442312	0.831007	-0.765441
H156	H	1.942312	1.331007	-0.265441
H157	H	1.449331	0.782697	-0.862805
H158	H	1.949331	1.282697	-0.362805
N159	N	1.497832	0.694818	-0.814216
N160	N	1.997832	1.194818	-0.314216
H161	H	1.449205	0.720407	-0.862802
H162	H	1.949205	1.220407	-0.362802
H163	H	1.442295	0.672206	-0.765315
H164	H	1.942295	1.172206	-0.265315
N165	N	1.574405	0.443645	-0.737438
N166	N	2.074405	0.943645	-0.237438
H167	H	1.586041	0.404911	-0.725787
H168	H	2.086041	0.904911	-0.225787
H169	H	1.593048	0.453148	-0.823173
H170	H	2.093048	0.953148	-0.323173
