data_functionalizedCrystal
_audit_creation_method	'MofGen! by Chris Wilmer'
_symmetry_space_group_name_H-M	'P1'
_symmetry_Int_Tables_number	1
_symmetry_cell_setting	triclinic
loop_
_symmetry_equiv_pos_as_xyz
  x,y,z
_cell_length_a	12.996460
_cell_length_b	14.853567
_cell_length_c	14.853567
_cell_angle_alpha	96.365070
_cell_angle_beta	89.997651
_cell_angle_gamma	90.002610
loop_
_atom_site_label
_atom_site_type_symbol
_atom_site_fract_x
_atom_site_fract_y
_atom_site_fract_z
O1	O	-0.085487	-1.196366	0.117706
O2	O	0.414513	-0.696366	0.617706
O3	O	-0.085504	-0.933906	0.131727
O4	O	0.414496	-0.433906	0.631727
O5	O	-0.085498	-1.072147	-0.006513
O6	O	0.414502	-0.572147	0.493487
O7	O	-0.085493	-1.058126	0.255946
O8	O	0.414507	-0.558126	0.755946
O9	O	0.085636	-1.072133	-0.006521
O10	O	0.585636	-0.572133	0.493479
O11	O	0.085630	-0.933892	0.131720
O12	O	0.585630	-0.433892	0.631720
O13	O	0.085647	-1.196352	0.117698
O14	O	0.585647	-0.696352	0.617698
Cu15	Cu	0.101264	-1.065120	0.124708
Cu16	Cu	0.601264	-0.565120	0.624708
Cu17	Cu	-0.101121	-1.065138	0.124717
Cu18	Cu	0.398879	-0.565138	0.624717
O19	O	0.085641	-1.058111	0.255939
O20	O	0.585641	-0.558111	0.755939
C21	C	0.000061	-0.900311	0.131088
C22	C	0.500061	-0.400311	0.631088
C23	C	0.000054	-0.800227	0.129184
C24	C	0.500054	-0.300227	0.629184
N25	N	0.243611	-1.065115	0.124701
N26	N	0.743611	-0.565115	0.624701
N27	N	-0.243468	-1.065150	0.124717
N28	N	0.256532	-0.565150	0.624717
C29	C	0.663426	-1.065136	0.124718
C30	C	1.163426	-0.565136	0.624718
C31	C	0.546621	-1.065128	0.124717
C32	C	1.046621	-0.565128	0.624717
C33	C	0.453522	-1.065126	0.124710
C34	C	0.953522	-0.565126	0.624710
C35	C	0.336710	-1.065117	0.124707
C36	C	0.836710	-0.565117	0.624707
C37	C	0.000066	-1.071504	-0.040106
C38	C	0.500066	-0.571504	0.459894
C39	C	0.000057	-1.069601	-0.140189
C40	C	0.500057	-0.569601	0.359811
C41	C	0.000080	-1.229947	0.118337
C42	C	0.500080	-0.729947	0.618337
C43	C	0.000080	-1.330031	0.120241
C44	C	0.500080	-0.830031	0.620241
C45	C	0.000076	-0.387693	0.039019
C46	C	0.500076	0.112307	0.539019
C47	C	0.000078	-0.366412	0.203251
C48	C	0.500078	0.133588	0.703251
C49	C	0.000075	-0.460446	0.205041
C50	C	0.500075	0.039554	0.705041
C51	C	0.000070	-0.518108	0.123819
C52	C	0.500070	-0.018108	0.623819
C53	C	0.000069	-0.481736	0.040806
C54	C	0.500069	0.018264	0.540806
C55	C	0.000065	-0.496825	0.288053
C56	C	0.500065	0.003175	0.788053
C57	C	0.000061	-0.590864	0.289846
C58	C	0.500061	-0.090864	0.789846
C59	C	0.000064	-0.648528	0.208623
C60	C	0.500064	-0.148528	0.708623
C61	C	0.000064	-0.612150	0.125607
C62	C	0.500064	-0.112150	0.625607
C63	C	0.000060	-0.669812	0.044384
C64	C	0.500060	-0.169812	0.544384
C65	C	0.000067	-0.633437	-0.038633
C66	C	0.500067	-0.133437	0.461367
C67	C	0.000072	-0.539399	-0.040417
C68	C	0.500072	-0.039399	0.459583
C69	C	0.000059	-0.742565	0.210407
C70	C	0.500059	-0.242565	0.710407
C71	C	0.000053	-0.763855	0.046172
C72	C	0.500053	-0.263855	0.546172
C73	C	0.000071	-0.979435	-0.552723
C74	C	0.500071	-0.479435	-0.052723
C75	C	0.000081	-1.143668	-0.574004
C76	C	0.500081	-0.643668	-0.074004
C77	C	0.000075	-1.145458	-0.479971
C78	C	0.500075	-0.645458	0.020029
C79	C	0.000069	-1.064235	-0.422309
C80	C	0.500069	-0.564235	0.077691
C81	C	0.000068	-0.981223	-0.458680
C82	C	0.500068	-0.481223	0.041320
C83	C	0.000086	-1.228469	-0.443591
C84	C	0.500086	-0.728469	0.056409
C85	C	0.000081	-1.230262	-0.349552
C86	C	0.500081	-0.730262	0.150448
C87	C	0.000067	-1.149039	-0.291889
C88	C	0.500067	-0.649039	0.208111
C89	C	0.000066	-1.066023	-0.328266
C90	C	0.500066	-0.566023	0.171734
C91	C	0.000059	-0.984800	-0.270604
C92	C	0.500059	-0.484800	0.229396
C93	C	0.000050	-0.901783	-0.306979
C94	C	0.500050	-0.401783	0.193021
C95	C	0.000054	-0.899999	-0.401017
C96	C	0.500054	-0.399999	0.098983
C97	C	0.000063	-1.150823	-0.197851
C98	C	0.500063	-0.650823	0.302149
C99	C	0.000056	-0.986588	-0.176561
C100	C	0.500056	-0.486588	0.323439
C101	C	0.000075	-1.058754	0.289531
C102	C	0.500075	-0.558754	0.789531
C103	C	0.000077	-1.060657	0.389615
C104	C	0.500077	-0.560657	0.889615
H105	H	0.000054	-0.810798	-0.019971
H106	H	0.500054	-0.310798	0.480029
H107	H	0.000058	-0.449870	0.354180
H108	H	0.500058	0.050130	0.854180
H109	H	0.000103	-0.509774	-0.108005
H110	H	0.500103	-0.009774	0.391995
H111	H	0.000055	-0.620472	0.357443
H112	H	0.500055	-0.120472	0.857443
H113	H	0.000086	-0.358072	-0.028572
H114	H	0.500086	0.141928	0.471428
C115	C	0.000047	-0.782576	0.301713
C116	C	0.500047	-0.282576	0.801713
H117	H	0.000051	-0.734766	0.349830
H118	H	0.500051	-0.234766	0.849830
H119	H	-0.059632	-0.818819	0.305822
H120	H	0.440368	-0.318819	0.805822
H121	H	0.059732	-0.818814	0.305826
H122	H	0.559732	-0.318814	0.805826
H123	H	0.000059	-0.911844	-0.582344
H124	H	0.500059	-0.411844	-0.082344
H125	H	0.000073	-0.319459	0.269379
H126	H	0.500073	0.180541	0.769379
H127	H	0.000056	-0.680397	-0.104764
H128	H	0.500056	-0.180397	0.395236
C129	C	0.000050	-0.897241	-0.113140
C130	C	0.500050	-0.397241	0.386860
H131	H	0.000052	-0.847548	-0.148274
H132	H	0.500052	-0.347548	0.351726
H133	H	-0.059626	-0.894530	-0.076009
H134	H	0.440374	-0.394530	0.423991
H135	H	0.059738	-0.894519	-0.076019
H136	H	0.559738	-0.394519	0.423981
H137	H	0.000095	-1.209795	-0.620958
H138	H	0.500095	-0.709795	-0.120958
H139	H	0.000052	-0.835652	-0.260019
H140	H	0.500052	-0.335652	0.239981
H141	H	0.000101	-1.294596	-0.490546
H142	H	0.500101	-0.794596	0.009454
C143	C	0.000058	-0.808691	-0.441032
C144	C	0.500058	-0.308691	0.058968
H145	H	0.000075	-0.819262	-0.505295
H146	H	0.500075	-0.319262	-0.005295
H147	H	-0.059620	-0.775242	-0.421254
H148	H	0.440380	-0.275242	0.078746
H149	H	0.059744	-0.775245	-0.421246
H150	H	0.559744	-0.275245	0.078754
C151	C	0.000078	-1.321575	-0.309547
C152	C	0.500078	-0.821575	0.190453
H153	H	0.000074	-1.369691	-0.357357
H154	H	0.500074	-0.869691	0.142643
H155	H	0.059749	-1.325687	-0.273300
H156	H	0.559749	-0.825687	0.226700
H157	H	-0.059614	-1.325687	-0.273312
H158	H	0.440386	-0.825687	0.226688
H159	H	0.000078	-1.218414	-0.168238
H160	H	0.500078	-0.718414	0.331762
