data_functionalizedCrystal
_audit_creation_method	'MofGen! by Chris Wilmer'
_symmetry_space_group_name_H-M	'P1'
_symmetry_Int_Tables_number	1
_symmetry_cell_setting	triclinic
loop_
_symmetry_equiv_pos_as_xyz
  x,y,z
_cell_length_a	10.723024
_cell_length_b	19.188930
_cell_length_c	9.198806
_cell_angle_alpha	89.991701
_cell_angle_beta	89.996352
_cell_angle_gamma	83.806325
loop_
_atom_site_label
_atom_site_type_symbol
_atom_site_fract_x
_atom_site_fract_y
_atom_site_fract_z
O1	O	1.655155	0.097922	-0.120901
O2	O	1.291808	0.107295	-0.120908
O3	O	1.483967	0.001021	-0.120876
O4	O	1.462996	0.204196	-0.120933
O5	O	1.483952	0.001021	0.120909
O6	O	1.291793	0.107295	0.120877
O7	O	1.655140	0.097922	0.120884
Cu8	Cu	1.473465	0.102608	0.142957
Cu9	Cu	1.473483	0.102609	-0.142982
O10	O	1.462981	0.204196	0.120852
C11	C	1.245315	0.106613	-0.000016
C12	C	1.106803	0.104572	-0.000017
C13	C	1.030586	0.164037	-0.000035
C14	C	0.887427	0.161930	-0.000036
C15	C	1.483280	-0.024995	0.000021
C16	C	1.481242	-0.102512	0.000033
C17	C	1.593994	-0.146704	0.000042
C18	C	1.592079	-0.219540	0.000019
C19	C	1.477405	-0.248182	0.000016
C20	C	1.364638	-0.203981	-0.000002
C21	C	1.366556	-0.131146	0.000007
N22	N	1.389745	-0.356756	0.082298
N23	N	1.387930	-0.425947	0.082293
C24	C	1.471618	-0.467628	-0.000014
N25	N	1.557208	-0.437506	-0.082297
N26	N	1.559026	-0.368310	-0.082285
C27	C	1.475312	-0.327158	0.000005
C28	C	1.582302	-0.590797	-0.000032
C29	C	1.580382	-0.663634	-0.000065
C30	C	1.352937	-0.648073	-0.000070
C31	C	1.354860	-0.575238	-0.000053
C32	C	1.469546	-0.546604	-0.000027
C33	C	1.701633	0.098604	-0.000012
C34	C	1.840145	0.100645	-0.000020
C35	C	1.463668	0.230211	-0.000048
C36	C	1.465706	0.307729	-0.000070
N37	N	1.473462	0.102608	0.344071
N38	N	1.473496	0.102604	-0.344096
C39	C	1.554148	0.057789	0.416282
C40	C	1.554167	0.057787	0.583694
H41	H	1.687380	-0.123395	0.000058
H42	H	1.683899	-0.255527	0.000020
H43	H	1.263044	-0.539256	-0.000052
H44	H	1.274736	-0.095165	0.000000
C45	C	1.380166	0.154445	0.572035
C46	C	1.285467	0.126797	0.466512
C47	C	1.192137	0.178638	0.382631
C48	C	1.193505	0.258128	0.404272
C49	C	1.288208	0.285781	0.509800
C50	C	1.381538	0.233939	0.593681
H51	H	1.284451	0.067950	0.450488
H52	H	1.122032	0.158168	0.304512
H53	H	1.124417	0.296505	0.342177
H54	H	1.289224	0.344628	0.525824
H55	H	1.451643	0.254410	0.671800
C56	C	0.928599	0.031865	0.000001
C57	C	1.022272	0.015773	0.125559
C58	C	1.110736	-0.053006	0.125579
C59	C	1.105528	-0.105695	0.000042
C60	C	1.011851	-0.089605	-0.125526
C61	C	0.923387	-0.020825	-0.125546
H62	H	1.026131	0.054778	0.218498
H63	H	1.180082	-0.064917	0.218533
H64	H	1.171015	-0.156610	0.000057
H65	H	1.007992	-0.128609	-0.218465
H66	H	0.854041	-0.008914	-0.218500
H67	H	1.672202	-0.699615	-0.000065
H68	H	1.623208	0.019418	0.354167
C69	C	1.238495	-0.235484	-0.000006
C70	C	1.205887	-0.283426	0.125542
C71	C	1.079740	-0.314928	0.125529
C72	C	0.986200	-0.298489	-0.000033
C73	C	1.018806	-0.250545	-0.125590
C74	C	1.144953	-0.219042	-0.125576
H75	H	1.275132	-0.295597	0.218499
H76	H	1.055603	-0.350420	0.218475
H77	H	0.892819	-0.321809	-0.000043
H78	H	0.949561	-0.238373	-0.218546
H79	H	1.169090	-0.183551	-0.218523
H80	H	1.404393	0.140974	0.406188
H81	H	1.623250	0.019419	0.645792
C82	C	1.708452	-0.559296	-0.000023
C83	C	1.741054	-0.511347	-0.125562
C84	C	1.867205	-0.479849	-0.125555
C85	C	1.960755	-0.496300	-0.000008
C86	C	1.928155	-0.544251	0.125541
C87	C	1.802004	-0.575749	0.125533
H88	H	1.671801	-0.499168	-0.218508
H89	H	1.891337	-0.444353	-0.218495
H90	H	2.054140	-0.472983	-0.000002
H91	H	1.997408	-0.556430	0.218486
H92	H	1.777872	-0.611245	0.218473
H93	H	1.259567	-0.671393	-0.000080
H94	H	1.071319	0.216508	-0.000041
H95	H	0.821937	0.212836	-0.000057
H96	H	1.066070	0.052101	-0.000040
