data_functionalizedCrystal
_audit_creation_method	'MofGen! by Chris Wilmer'
_symmetry_space_group_name_H-M	'P1'
_symmetry_Int_Tables_number	1
_symmetry_cell_setting	triclinic
loop_
_symmetry_equiv_pos_as_xyz
  x,y,z
_cell_length_a	12.811457
_cell_length_b	10.654550
_cell_length_c	11.295483
_cell_angle_alpha	94.136004
_cell_angle_beta	91.289320
_cell_angle_gamma	84.263143
loop_
_atom_site_label
_atom_site_type_symbol
_atom_site_fract_x
_atom_site_fract_y
_atom_site_fract_z
O1	O	1.390272	0.173489	0.051117
O2	O	1.087142	0.189101	0.018380
O3	O	1.245676	-0.001416	0.035506
O4	O	1.231738	0.364007	0.033991
O5	O	1.231751	0.015291	0.232052
O6	O	1.073217	0.205809	0.214926
O7	O	1.376347	0.190196	0.247664
Cu8	Cu	1.223511	0.199528	0.249241
Cu9	Cu	1.239978	0.179770	0.016802
O10	O	1.217813	0.380714	0.230538
C11	C	1.041365	0.196068	0.112461
C12	C	0.925710	0.191921	0.099970
C13	C	0.693201	0.202320	0.290798
C14	C	0.584532	0.198423	0.279068
C15	C	0.599704	0.180221	0.064781
C16	C	0.708372	0.184118	0.076511
C17	C	0.755116	0.195170	0.189523
C18	C	0.863786	0.199076	0.201252
C19	C	0.878956	0.180865	-0.013034
C20	C	0.770288	0.176968	-0.024764
C21	C	1.237690	-0.039865	0.133667
C22	C	1.234629	-0.179320	0.133332
C23	C	1.327971	-0.258438	0.143417
C24	C	1.325088	-0.389471	0.143097
C25	C	1.135512	-0.362255	0.122612
C26	C	1.138397	-0.231225	0.122924
C27	C	1.424203	-0.206533	0.153825
C28	C	1.517553	-0.285652	0.163912
C29	C	1.514670	-0.416685	0.163592
C30	C	1.418437	-0.468599	0.153186
C31	C	1.422124	0.183229	0.153580
C32	C	1.537779	0.187376	0.166063
C33	C	1.225799	0.419162	0.132374
C34	C	1.228861	0.558617	0.132701
N35	N	1.211936	0.213425	0.412727
N36	N	1.251561	0.165863	-0.146683
C37	C	1.334882	0.065759	0.675298
C38	C	1.326142	0.076270	0.799018
C39	C	1.185713	0.244950	0.783888
C40	C	1.194452	0.234439	0.660168
C41	C	1.269040	0.144842	0.605878
C42	C	1.277784	0.134338	0.482157
C43	C	1.137351	0.303012	0.467028
C44	C	1.128611	0.313522	0.590748
H45	H	0.929379	0.175050	-0.095499
C46	C	0.548851	0.168478	-0.057878
C47	C	0.475980	0.273536	-0.072052
C48	C	0.429122	0.262769	-0.185035
H49	H	0.514107	0.093569	-0.066224
H50	H	0.601245	0.164841	-0.116564
H51	H	0.423594	0.277160	-0.013383
H52	H	0.510698	0.348459	-0.063730
H53	H	0.481516	0.259132	-0.243721
H54	H	0.394384	0.187857	-0.193371
H55	H	0.379681	0.334053	-0.194671
H56	H	1.062389	-0.166805	0.114713
C57	C	1.621921	-0.229048	0.175252
C58	C	1.604469	-0.097360	0.173405
C59	C	1.700590	-0.045176	0.183864
H60	H	1.665332	-0.261791	0.110895
H61	H	1.655545	-0.250220	0.247976
H62	H	1.570861	-0.076198	0.100690
H63	H	1.561075	-0.064582	0.237760
H64	H	1.734214	-0.066348	0.256588
H65	H	1.743993	-0.077929	0.119504
H66	H	1.688761	0.044180	0.182623
H67	H	0.731259	0.211335	0.382817
C68	C	0.517480	0.206272	0.389167
C69	C	0.581678	0.216814	0.490642
C70	C	0.519946	0.224062	0.592091
H71	H	0.482169	0.132085	0.390011
H72	H	0.467374	0.278246	0.388314
H73	H	0.631766	0.144847	0.491496
H74	H	0.616990	0.290999	0.489837
H75	H	0.469840	0.296037	0.591237
H76	H	0.484637	0.149873	0.592923
H77	H	0.563493	0.231228	0.660953
C78	C	1.104564	0.342050	0.842771
C79	C	1.004186	0.317551	0.801652
C80	C	0.929402	0.406957	0.855884
H81	H	1.117756	0.424388	0.823833
H82	H	1.108721	0.336959	0.926398
H83	H	1.000032	0.322653	0.718044
H84	H	0.990960	0.235229	0.820590
H85	H	0.933559	0.401867	0.939511
H86	H	0.942604	0.489290	0.836942
H87	H	0.861287	0.390340	0.828001
H88	H	1.338520	0.061387	0.437956
C89	C	1.397758	-0.009666	0.874188
C90	C	1.464961	-0.090357	0.800159
C91	C	1.530958	-0.169533	0.869364
H92	H	1.356619	-0.058529	0.918390
H93	H	1.438098	0.040231	0.927140
H94	H	1.424626	-0.140249	0.747228
H95	H	1.506124	-0.041529	0.755957
H96	H	1.571297	-0.119636	0.922316
H97	H	1.489810	-0.218387	0.913563
H98	H	1.576569	-0.224284	0.819146
C99	C	1.616111	-0.502452	0.174361
C100	C	1.681178	-0.487350	0.079518
C101	C	1.774643	-0.566321	0.089414
H102	H	1.600769	-0.587970	0.172637
H103	H	1.650728	-0.480729	0.247134
H104	H	1.646568	-0.509081	0.006765
H105	H	1.696549	-0.401849	0.081224
H106	H	1.809260	-0.544598	0.162186
H107	H	1.759290	-0.651834	0.087692
H108	H	1.818806	-0.556077	0.025072
H109	H	1.426561	-0.099841	0.154090
H110	H	1.416098	-0.575297	0.152914
C111	C	1.047469	0.410639	0.649620
C112	C	0.947088	0.386156	0.608502
C113	C	0.872313	0.475585	0.662719
H114	H	1.060675	0.492969	0.630670
H115	H	1.051622	0.405563	0.733249
H116	H	0.942938	0.391244	0.524892
H117	H	0.933848	0.303843	0.627452
H118	H	0.876466	0.470509	0.746348
H119	H	0.885529	0.557910	0.643765
H120	H	0.804195	0.458979	0.634837
H121	H	1.395621	-0.007186	0.631095
H122	H	1.057164	-0.404534	0.114142
C123	C	1.065975	0.389094	0.391736
C124	C	1.081659	0.515319	0.423738
C125	C	1.015942	0.594655	0.354396
H126	H	0.994884	0.376297	0.404453
H127	H	1.081866	0.370095	0.310265
H128	H	1.065761	0.534311	0.505189
H129	H	1.152736	0.528155	0.411016
H130	H	1.031833	0.575657	0.272925
H131	H	0.944855	0.581848	0.367119
H132	H	1.026581	0.680307	0.376092
C133	C	0.719733	0.164916	-0.147560
C134	C	0.797222	0.159466	-0.233741
C135	C	0.750694	0.148354	-0.346875
H136	H	0.670253	0.236066	-0.157546
H137	H	0.685101	0.089904	-0.155863
H138	H	0.831837	0.234469	-0.225442
H139	H	0.846707	0.088318	-0.223793
H140	H	0.716061	0.073343	-0.355179
H141	H	0.701214	0.219507	-0.356850
H142	H	0.803264	0.144644	-0.405363
H143	H	0.901843	0.208082	0.293272
