data_functionalizedCrystal
_audit_creation_method	'MofGen! by Chris Wilmer'
_symmetry_space_group_name_H-M	'P1'
_symmetry_Int_Tables_number	1
_symmetry_cell_setting	triclinic
loop_
_symmetry_equiv_pos_as_xyz
  x,y,z
_cell_length_a	11.026607
_cell_length_b	19.188930
_cell_length_c	10.065875
_cell_angle_alpha	98.754308
_cell_angle_beta	79.302338
_cell_angle_gamma	95.865399
loop_
_atom_site_label
_atom_site_type_symbol
_atom_site_fract_x
_atom_site_fract_y
_atom_site_fract_z
O1	O	1.626420	0.284145	-0.113552
O2	O	1.273289	0.250876	-0.113547
O3	O	1.460041	0.167156	-0.113523
O4	O	1.439668	0.367866	-0.113576
O5	O	1.424429	0.183202	0.113461
O6	O	1.237678	0.266922	0.113437
O7	O	1.590808	0.300192	0.113432
Zn8	Zn	1.408589	0.286105	0.149473
Zn9	Zn	1.455509	0.264963	-0.149588
O10	O	1.404057	0.383912	0.113408
C11	C	1.210305	0.252761	-0.000054
C12	C	1.075688	0.234465	-0.000051
C13	C	1.001616	0.284984	-0.000065
C14	C	0.862482	0.266075	-0.000062
C15	C	1.441574	0.149084	-0.000027
C16	C	1.439591	0.071328	-0.000015
C17	C	1.549173	0.040370	-0.000010
C18	C	1.547315	-0.032693	-0.000032
C19	C	1.435865	-0.074793	-0.000031
C20	C	1.326271	-0.043828	-0.000044
C21	C	1.328134	0.029233	-0.000036
N22	N	1.338556	-0.188194	0.077217
N23	N	1.336793	-0.257598	0.077212
C24	C	1.430245	-0.294920	-0.000059
N25	N	1.525543	-0.260215	-0.077308
N26	N	1.527308	-0.190805	-0.077297
C27	C	1.433832	-0.154015	-0.000041
C28	C	1.537819	-0.405101	-0.000080
C29	C	1.535958	-0.478166	-0.000110
C30	C	1.314909	-0.489298	-0.000108
C31	C	1.316775	-0.416236	-0.000092
C32	C	1.428233	-0.374141	-0.000071
C33	C	1.653793	0.298306	-0.000064
C34	C	1.788412	0.316602	-0.000076
C35	C	1.422523	0.401983	-0.000091
C36	C	1.424508	0.479739	-0.000112
N37	N	1.376576	0.300534	0.353575
N38	N	1.487531	0.250529	-0.353689
C39	C	1.444363	0.269978	0.421362
C40	C	1.419734	0.281090	0.578527
H41	H	1.041205	0.342235	-0.000072
C42	C	1.590578	0.204075	0.567541
N43	N	1.668196	0.169088	0.508210
H44	H	0.822903	0.208818	-0.000082
H45	H	1.636552	-0.057904	-0.000033
C46	C	1.656512	-0.512218	-0.000097
N47	N	1.747314	-0.537866	-0.000081
H48	H	1.224166	-0.523576	-0.000114
H49	H	1.343457	0.315475	0.636838
H50	H	1.520626	0.235588	0.363048
H51	H	0.827993	0.373857	-0.000082
C52	C	1.022210	0.157120	-0.000030
N53	N	0.981933	0.098862	-0.000017
C54	C	1.671781	0.086669	0.000001
N55	N	1.764132	0.121543	0.000006
C56	C	1.203674	-0.090138	-0.000033
N57	N	1.111331	-0.125020	-0.000026
C58	C	1.207580	0.063287	-0.000037
N59	N	1.116776	0.088939	-0.000036
C60	C	1.660427	-0.358796	-0.000077
N61	N	1.752777	-0.323921	-0.000080
C62	C	1.273536	0.346987	0.432353
N63	N	1.195923	0.381976	0.491687
C64	C	1.196225	-0.382180	-0.000089
N65	N	1.105421	-0.356531	-0.000093
