data_functionalizedCrystal
_audit_creation_method	'MofGen! by Chris Wilmer'
_symmetry_space_group_name_H-M	'P1'
_symmetry_Int_Tables_number	1
_symmetry_cell_setting	triclinic
loop_
_symmetry_equiv_pos_as_xyz
  x,y,z
_cell_length_a	6.817900
_cell_length_b	13.167930
_cell_length_c	16.305550
_cell_angle_alpha	99.766063
_cell_angle_beta	103.455250
_cell_angle_gamma	105.754568
loop_
_atom_site_label
_atom_site_type_symbol
_atom_site_fract_x
_atom_site_fract_y
_atom_site_fract_z
V1	V	-4.045776	-0.149843	-0.274761
O2	O	-4.013024	0.006266	-0.257534
O3	O	-4.016306	-0.296214	-0.284420
O4	O	-3.996936	-0.147948	-0.389330
O5	O	-4.032529	-0.143027	-0.151898
V6	V	-4.527009	-0.131122	-0.258664
O7	O	-4.312060	-0.190909	-0.310071
O8	O	-4.710923	-0.090056	-0.223354
O9	O	-4.333273	0.015249	-0.249005
O10	O	-4.677158	-0.287231	-0.275891
O11	O	-4.657653	-0.137938	-0.381527
O12	O	-4.352643	-0.133017	-0.144095
C13	C	-3.865926	-0.331883	-0.283063
C14	C	-3.923114	-0.451547	-0.291724
C15	C	-3.946312	-0.645128	-0.151023
C16	C	-4.000044	-0.757562	-0.159157
C17	C	-4.084323	-0.788849	-0.316125
C18	C	-4.030591	-0.676415	-0.307991
C19	C	-3.961583	-0.604559	-0.225437
C20	C	-3.907837	-0.492123	-0.217304
C21	C	-3.992131	-0.523412	-0.374272
C22	C	-4.045862	-0.635845	-0.382405
C23	C	-3.841216	-0.142754	-0.416884
C24	C	-3.882692	-0.142173	-0.510621
C25	C	-4.033486	-0.139924	-0.851190
C26	C	-3.796567	-0.133244	-0.809739
C27	C	-3.753510	-0.134294	-0.712326
C28	C	-3.958673	-0.141039	-0.682230
C29	C	-4.139563	-0.247350	-0.741178
C30	C	-4.181348	-0.246749	-0.838681
C31	C	-4.075366	-0.041142	-0.797614
C32	C	-4.027326	-0.040300	-0.699706
C33	C	-3.916406	-0.141674	-0.586741
C34	C	-4.075763	-0.139297	-0.946680
C35	C	-4.146996	0.050913	-0.250360
C36	C	-4.069046	0.170575	-0.241705
C37	C	-4.171705	-0.138214	-0.116537
C38	C	-4.109467	-0.138789	-0.022799
H39	H	-4.102063	-0.694366	-0.449619
C40	C	-3.676437	-0.231279	-0.697897
H41	H	-3.649815	-0.232248	-0.638243
H42	H	-3.783007	-0.297263	-0.732631
H43	H	-3.548911	-0.224149	-0.713905
C44	C	-3.748140	-0.229119	-0.859805
H45	H	-3.871681	-0.273203	-0.905858
H46	H	-3.634899	-0.201794	-0.883128
H47	H	-3.708003	-0.271525	-0.821316
H48	H	-3.617050	-0.057857	-0.671319
H49	H	-4.154951	-0.321529	-0.874916
C50	C	-3.870387	-0.566079	-0.060222
H51	H	-3.840559	-0.493307	-0.066036
H52	H	-3.978822	-0.581590	-0.032272
H53	H	-3.744900	-0.574562	-0.026344
C54	C	-4.417825	-0.259358	-0.877489
H55	H	-4.487957	-0.264832	-0.833651
H56	H	-4.428148	-0.197707	-0.898947
H57	H	-4.483274	-0.323345	-0.923804
H58	H	-4.293864	-0.256131	-0.722953
C59	C	-4.008929	-0.478789	-0.456134
H60	H	-4.057705	-0.537690	-0.506461
H61	H	-4.106669	-0.439090	-0.459199
H62	H	-3.872739	-0.432069	-0.453248
C63	C	-3.937713	0.067679	-0.807147
H64	H	-3.965411	0.126224	-0.774321
H65	H	-3.791223	0.074790	-0.786265
H66	H	-3.971609	0.069161	-0.866745
C67	C	-4.160262	-0.867902	-0.406924
H68	H	-4.190073	-0.940672	-0.401106
H69	H	-4.285727	-0.859414	-0.440805
H70	H	-4.051810	-0.852400	-0.434873
H71	H	-4.093879	-0.322151	-0.730221
H72	H	-4.174442	-0.038978	-0.678254
H73	H	-3.987606	-0.790588	-0.098561
C74	C	-4.308493	-0.046465	-0.834258
H75	H	-4.380016	-0.108548	-0.881972
H76	H	-4.377638	-0.051655	-0.790105
H77	H	-4.311642	0.017516	-0.853325
H78	H	-3.896030	0.038333	-0.659172
H79	H	-3.680418	-0.056446	-0.816091
C80	C	-3.831934	-0.413078	-0.126502
H81	H	-3.802100	-0.340304	-0.132313
H82	H	-3.940386	-0.428593	-0.098561
H83	H	-3.706455	-0.421562	-0.092617
