data_functionalizedCrystal
_audit_creation_method	'MofGen! by Chris Wilmer'
_symmetry_space_group_name_H-M	'P1'
_symmetry_Int_Tables_number	1
_symmetry_cell_setting	triclinic
loop_
_symmetry_equiv_pos_as_xyz
  x,y,z
_cell_length_a	8.559649
_cell_length_b	8.559649
_cell_length_c	16.098692
_cell_angle_alpha	86.639336
_cell_angle_beta	93.353947
_cell_angle_gamma	110.221336
loop_
_atom_site_label
_atom_site_type_symbol
_atom_site_fract_x
_atom_site_fract_y
_atom_site_fract_z
O1	O	-2.121218	-0.060719	0.069242
O2	O	-1.645732	0.023062	0.069245
O3	O	-1.925366	-0.256571	0.069242
O4	O	-1.841584	0.218914	0.069245
O5	O	-1.936675	-0.245206	-0.069268
O6	O	-1.657042	0.034427	-0.069265
O7	O	-2.132527	-0.049354	-0.069268
Zn8	Zn	-1.896580	-0.005659	-0.091258
Zn9	Zn	-1.881679	-0.020633	0.091235
O10	O	-1.852894	0.230279	-0.069265
C11	C	-1.591078	0.035094	-0.000009
C12	C	-1.411379	0.053993	-0.000008
C13	C	-1.937370	-0.311197	-0.000012
C14	C	-1.956268	-0.490897	-0.000008
C15	C	-2.187181	-0.061386	-0.000012
C16	C	-2.366880	-0.080285	-0.000008
C17	C	-1.840890	0.284905	-0.000009
C18	C	-1.821991	0.464604	-0.000008
N19	N	-1.906761	0.004558	-0.215804
C20	C	-1.824052	-0.078246	-0.259413
C21	C	-1.831212	-0.071085	-0.346600
C22	C	-1.921093	0.018871	-0.390176
C23	C	-2.003804	0.101685	-0.346561
C24	C	-1.996633	0.094533	-0.259376
C25	C	-1.947053	0.044797	-0.653419
C26	C	-1.954222	0.051939	-0.740610
C27	C	-1.781627	-0.120829	-0.740643
C28	C	-1.774472	-0.127981	-0.653456
C29	C	-1.857176	-0.045160	-0.609848
C30	C	-1.928418	0.026189	-0.479295
C31	C	-1.849840	-0.052469	-0.520731
N32	N	-1.871513	-0.030864	0.215781
H33	H	-1.466258	-0.209705	-0.000005
C34	C	-1.649294	0.596927	0.000126
C35	C	-1.557127	0.572710	0.071376
C36	C	-1.398030	0.694558	0.071523
H37	H	-1.658855	0.704227	0.000170
H38	H	-1.594316	0.588685	-0.048150
H39	H	-1.612092	0.580967	0.119639
H40	H	-1.547520	0.465435	0.071347
H41	H	-1.343051	0.686316	0.023247
H42	H	-1.407607	0.801850	0.071565
H43	H	-1.335470	0.678134	0.119861
H44	H	-1.763862	-0.138513	-0.382102
C45	C	-1.752103	-0.150154	-0.473574
C46	C	-1.681168	-0.221121	-0.530420
C47	C	-1.591110	-0.311107	-0.487002
H48	H	-1.824794	-0.235829	-0.439551
H49	H	-1.666412	-0.077363	-0.439590
H50	H	-1.766849	-0.293907	-0.564390
H51	H	-1.608452	-0.135483	-0.564445
H52	H	-1.505418	-0.238316	-0.453018
H53	H	-1.663812	-0.396774	-0.452980
H54	H	-1.542957	-0.359256	-0.525565
C55	C	-1.279114	0.226716	0.000038
C56	C	-1.356175	0.346798	0.000057
C57	C	-1.234387	0.505923	0.000111
H58	H	-1.215576	0.244002	-0.048248
H59	H	-1.207775	0.235923	0.048361
H60	H	-1.427485	0.337596	-0.048261
H61	H	-1.419703	0.329566	0.048340
H62	H	-1.163049	0.515130	0.048434
H63	H	-1.170857	0.523191	-0.048176
H64	H	-1.286655	0.587416	0.000132
H65	H	-2.085688	0.409725	-0.000014
C66	C	-1.726308	-0.175933	-0.212256
C67	C	-1.655370	-0.246876	-0.269113
C68	C	-1.565292	-0.336855	-0.225705
H69	H	-1.798987	-0.261620	-0.178234
H70	H	-1.640617	-0.103141	-0.178272
H71	H	-1.741050	-0.319662	-0.303082
H72	H	-1.582665	-0.161226	-0.303136
H73	H	-1.479601	-0.264063	-0.191722
H74	H	-1.637982	-0.422533	-0.191685
H75	H	-1.517137	-0.384988	-0.264276
H76	H	-1.701287	-0.201238	-0.617982
H77	H	-1.714291	-0.188254	-0.776157
C78	C	-2.051832	0.149767	-0.787773
C79	C	-2.122693	0.220803	-0.730924
C80	C	-2.212604	0.310939	-0.774340
H81	H	-2.137557	0.077108	-0.821774
H82	H	-1.979012	0.235412	-0.821778
H83	H	-2.195508	0.135170	-0.696934
H84	H	-2.037005	0.293488	-0.696921
H85	H	-2.139785	0.396583	-0.808345
H86	H	-2.298321	0.238268	-0.808340
H87	H	-2.260682	0.359160	-0.735775
H88	H	-2.014405	0.112228	-0.617924
C89	C	-2.101372	0.199199	-0.394020
C90	C	-2.089992	0.187703	-0.479708
C91	C	-2.179873	0.277491	-0.523451
H92	H	-2.056530	0.312767	-0.379834
H93	H	-2.214922	0.154310	-0.379762
H94	H	-1.976464	0.232599	-0.493960
H95	H	-2.134843	0.074157	-0.493919
H96	H	-2.293424	0.232601	-0.509193
H97	H	-2.135024	0.391052	-0.509258
H98	H	-2.172177	0.269690	-0.581594
H99	H	-2.063979	0.161966	-0.223870
H100	H	-2.001606	0.099426	-0.514785
