data_functionalizedCrystal
_audit_creation_method	'MofGen! by Chris Wilmer'
_symmetry_space_group_name_H-M	'P1'
_symmetry_Int_Tables_number	1
_symmetry_cell_setting	triclinic
loop_
_symmetry_equiv_pos_as_xyz
  x,y,z
_cell_length_a	16.120530
_cell_length_b	12.759400
_cell_length_c	12.759393
_cell_angle_alpha	90.025341
_cell_angle_beta	92.919000
_cell_angle_gamma	87.099054
loop_
_atom_site_label
_atom_site_type_symbol
_atom_site_fract_x
_atom_site_fract_y
_atom_site_fract_z
Zn1	Zn	1.274707	-0.499760	0.675485
Zn2	Zn	1.774707	0.000240	1.175485
Zn3	Zn	1.274651	-0.675475	0.499821
Zn4	Zn	1.774651	-0.175475	0.999821
Zn5	Zn	1.135282	-0.490894	0.490915
Zn6	Zn	1.635282	0.009106	0.990915
Zn7	Zn	1.135301	-0.666478	0.666557
Zn8	Zn	1.635301	-0.166478	1.166557
O9	O	1.204985	-0.583152	0.583195
O10	O	1.704985	-0.083152	1.083195
O11	O	1.391367	-0.530545	0.659647
O12	O	1.891367	-0.030545	1.159647
O13	O	1.256132	-0.651045	0.351616
O14	O	1.756132	-0.151045	0.851616
O15	O	1.153792	-0.345050	0.515408
O16	O	1.653792	0.154950	1.015408
O17	O	1.391327	-0.659642	0.530587
O18	O	1.891327	-0.159642	1.030587
O19	O	1.256227	-0.351564	0.651011
O20	O	1.756227	0.148436	1.151011
O21	O	1.153738	-0.515434	0.345073
O22	O	1.653738	-0.015434	0.845073
O23	O	1.018616	-0.506710	0.506751
O24	O	1.518616	-0.006710	1.006751
O25	O	1.153825	-0.644308	0.814765
O26	O	1.653825	-0.144308	1.314765
O27	O	1.018631	-0.635711	0.635795
O28	O	1.518631	-0.135711	1.135795
O29	O	1.256245	-0.521821	0.821324
O30	O	1.756245	-0.021821	1.321324
O31	O	1.256151	-0.821302	0.521930
O32	O	1.756151	-0.321302	1.021930
O33	O	1.153771	-0.814692	0.644430
O34	O	1.653771	-0.314692	1.144430
C35	C	0.988373	-0.569273	0.569338
C36	C	1.488373	-0.069273	1.069338
C37	C	0.895705	-0.563361	0.563435
C38	C	1.395705	-0.063361	1.063435
C39	C	1.204980	-0.856119	0.583202
C40	C	1.704980	-0.356119	1.083202
C41	C	1.205054	-0.972900	0.583245
C42	C	1.705054	-0.472900	1.083245
C43	C	1.205044	-0.583050	0.857232
C44	C	1.705044	-0.083050	1.357232
C45	C	1.205068	-0.583006	0.974010
C46	C	1.705068	-0.083006	1.474010
C47	C	0.726040	-0.552542	0.552667
C48	C	1.226040	-0.052542	1.052667
C49	C	0.684771	-0.613839	0.613799
C50	C	1.184771	-0.113839	1.113799
C51	C	0.590363	-0.607819	0.607808
C52	C	1.090363	-0.107819	1.107808
C53	C	0.820456	-0.558560	0.558657
C54	C	1.320456	-0.058560	1.058657
C55	C	1.422443	-0.597086	0.597106
C56	C	1.922443	-0.097086	1.097106
C57	C	1.515111	-0.603024	0.603034
C58	C	2.015111	-0.103024	1.103034
C59	C	1.205013	-0.309120	0.583212
C60	C	1.705013	0.190880	1.083212
C61	C	1.205025	-0.192344	0.583219
C62	C	1.705025	0.307656	1.083219
C63	C	1.151704	-0.134090	0.512622
C64	C	1.651704	0.365910	1.012622
C65	C	1.151715	-0.024367	0.512637
C66	C	1.651715	0.475633	1.012637
C67	C	1.258378	-0.031162	0.653850
C68	C	1.758378	0.468838	1.153850
C69	C	1.258361	-0.140883	0.653839
C70	C	1.758361	0.359117	1.153839
C71	C	1.090125	-0.130166	0.431091
C72	C	1.590125	0.369834	0.931091
C73	C	1.090137	-0.020443	0.431106
C74	C	1.590137	0.479557	0.931106
C75	C	1.204975	-0.583181	0.310227
C76	C	1.704975	-0.083181	0.810227
C77	C	1.205112	-0.582939	0.193459
C78	C	1.705112	-0.082939	0.693459
C79	C	1.258406	-0.519221	1.032290
C80	C	1.758406	-0.019221	1.532290
C81	C	1.258426	-0.519184	1.142015
C82	C	1.758426	-0.019184	1.642015
C83	C	1.151768	-0.646727	1.135172
C84	C	1.651768	-0.146727	1.635172
C85	C	1.151745	-0.646757	1.025448
C86	C	1.651745	-0.146757	1.525448
C87	C	1.319987	-0.445589	1.036242
C88	C	1.819987	0.054411	1.536242
C89	C	1.320007	-0.445552	1.145967
C90	C	1.820007	0.054448	1.645967
H91	H	0.720342	-0.670836	0.670637
H92	H	1.220342	-0.170836	1.170637
H93	H	1.108309	-0.698693	0.978000
H94	H	1.608309	-0.198693	1.478000
Cl95	Cl	1.325379	-0.214113	0.742615
Cl96	Cl	1.825379	0.285887	1.242615
Cl97	Cl	1.293296	-0.318266	0.988573
Cl98	Cl	1.793296	0.181734	1.488573
Cl99	Cl	0.671125	-0.464547	0.464918
Cl100	Cl	1.171125	0.035453	0.964918
H101	H	1.025554	-0.155792	0.448748
H102	H	1.525554	0.344208	0.948748
Cl103	Cl	1.325423	0.033539	0.742626
Cl104	Cl	1.825423	0.533539	1.242626
Cl105	Cl	1.419704	-0.485561	1.198326
Cl106	Cl	1.919704	0.014439	1.698326
H107	H	1.113235	-0.165708	0.355274
H108	H	1.613235	0.334292	0.855274
H109	H	1.381310	-0.478681	1.006128
H110	H	1.881310	0.021319	1.506128
H111	H	1.108352	-0.698628	1.177065
H112	H	1.608352	-0.198628	1.677065
Cl113	Cl	0.995454	0.038195	0.470050
Cl114	Cl	1.495454	0.538195	0.970050
Cl115	Cl	1.116798	0.023788	0.307185
Cl116	Cl	1.616798	0.523788	0.807185
H117	H	1.296891	-0.366764	1.178530
H118	H	1.796891	0.133236	1.678530
