data_functionalizedCrystal
_audit_creation_method	'MofGen! by Chris Wilmer'
_symmetry_space_group_name_H-M	'P1'
_symmetry_Int_Tables_number	1
_symmetry_cell_setting	triclinic
loop_
_symmetry_equiv_pos_as_xyz
  x,y,z
_cell_length_a	14.044220
_cell_length_b	14.853567
_cell_length_c	12.503572
_cell_angle_alpha	86.479713
_cell_angle_beta	86.156832
_cell_angle_gamma	91.588096
loop_
_atom_site_label
_atom_site_type_symbol
_atom_site_fract_x
_atom_site_fract_y
_atom_site_fract_z
O1	O	0.118295	-1.210925	0.089249
O2	O	0.133037	-0.949635	0.089267
O3	O	-0.012323	-1.076357	0.089248
O4	O	0.263655	-1.084202	0.089268
O5	O	-0.001373	-1.066828	-0.089393
O6	O	0.143987	-0.940106	-0.089373
O7	O	0.129245	-1.201396	-0.089392
Cu8	Cu	0.137616	-1.069881	-0.105694
Cu9	Cu	0.124666	-1.081150	0.105569
O10	O	0.274605	-1.074674	-0.089372
C11	C	0.137844	-0.911229	-0.000051
C12	C	0.135842	-0.810987	-0.000044
C13	C	-0.042167	-1.068159	-0.000073
C14	C	-0.147406	-1.057918	-0.000073
C15	C	0.124438	-1.239802	-0.000072
C16	C	0.126440	-1.340045	-0.000071
C17	C	-0.340094	-1.039194	-0.000057
C18	C	-0.397631	-1.111833	-0.000059
C19	C	-0.504849	-1.101415	-0.000049
C20	C	-0.232866	-1.049611	-0.000066
C21	C	0.304449	-1.082872	-0.000049
C22	C	0.409688	-1.093114	-0.000042
N23	N	0.146723	-1.061961	-0.254285
C24	C	0.041033	-0.390940	-0.000075
C25	C	0.213725	-0.383342	-0.000061
C26	C	0.215607	-0.477525	-0.000057
C27	C	0.130201	-0.528420	-0.000061
C28	C	0.042912	-0.485132	-0.000068
C29	C	0.302894	-0.520820	-0.000039
C30	C	0.304779	-0.615009	-0.000035
C31	C	0.219372	-0.665905	-0.000046
C32	C	0.132080	-0.622612	-0.000054
C33	C	0.046674	-0.673507	-0.000058
C34	C	-0.040619	-0.630214	-0.000074
C35	C	-0.042494	-0.536028	-0.000079
C36	C	0.221248	-0.760092	-0.000040
C37	C	0.048553	-0.767699	-0.000051
C38	C	0.160129	-1.050312	-0.473398
C39	C	0.102148	-1.100722	-0.526733
C40	C	0.109607	-1.094241	-0.648655
C41	C	0.152671	-1.056793	-0.351465
N42	N	0.115551	-1.089076	0.254160
H43	H	-0.366372	-1.181849	0.000009
Br44	Br	0.010477	-1.181182	-0.450229
Br45	Br	-0.392199	-0.922509	-0.000039
H46	H	0.372426	-0.479375	-0.000025
H47	H	-0.020996	-0.809131	-0.000058
H48	H	-0.110157	-0.671666	-0.000069
Br49	Br	-0.160952	-0.477269	-0.000098
H50	H	-0.030038	-0.355687	-0.000092
H51	H	0.215366	-1.002291	-0.519298
H52	H	0.283258	-0.341898	-0.000049
H53	H	0.375858	-0.650249	-0.000021
H54	H	0.292320	-0.795336	-0.000029
