data_functionalizedCrystal
_audit_creation_method	'MofGen! by Chris Wilmer'
_symmetry_space_group_name_H-M	'P1'
_symmetry_Int_Tables_number	1
_symmetry_cell_setting	triclinic
loop_
_symmetry_equiv_pos_as_xyz
  x,y,z
_cell_length_a	10.654544
_cell_length_b	19.188924
_cell_length_c	18.266242
_cell_angle_alpha	89.993436
_cell_angle_beta	89.993316
_cell_angle_gamma	83.813408
loop_
_atom_site_label
_atom_site_type_symbol
_atom_site_fract_x
_atom_site_fract_y
_atom_site_fract_z
O1	O	1.665765	0.098061	-0.060903
O2	O	1.300088	0.107404	-0.060901
O3	O	1.493484	0.001146	-0.060893
O4	O	1.472369	0.204320	-0.060911
O5	O	1.493463	0.001143	0.060869
O6	O	1.300067	0.107402	0.060861
O7	O	1.665744	0.098059	0.060859
Zn8	Zn	1.482902	0.102730	0.080192
Zn9	Zn	1.482930	0.102733	-0.080234
O10	O	1.472349	0.204317	0.060851
C11	C	1.253294	0.106717	-0.000019
C12	C	1.113894	0.104665	-0.000018
C13	C	1.113847	0.104670	0.132730
C14	C	1.048333	0.103710	0.199102
C15	C	0.917356	0.101781	0.199099
C16	C	0.851889	0.100809	0.132717
C17	C	0.917402	0.101768	0.066345
C18	C	1.048382	0.103700	0.066355
C19	C	0.917451	0.101758	-0.066402
C20	C	1.048428	0.103692	-0.066401
C21	C	0.851984	0.100786	-0.132784
C22	C	0.917497	0.101751	-0.199158
C23	C	1.048482	0.103681	-0.199152
C24	C	1.113941	0.104652	-0.132773
C25	C	1.492791	-0.024871	-0.000012
C26	C	1.490743	-0.102389	-0.000010
C27	C	1.489798	-0.138793	-0.066382
C28	C	1.487856	-0.211628	-0.066388
C29	C	1.486883	-0.248059	-0.000017
C30	C	1.487821	-0.211646	0.066364
C31	C	1.489751	-0.138811	0.066368
N32	N	1.555308	-0.367276	0.049381
N33	N	1.553477	-0.436466	0.049373
C34	C	1.481067	-0.467506	-0.000024
N35	N	1.410571	-0.426743	-0.049424
N36	N	1.412408	-0.357547	-0.049418
C37	C	1.484790	-0.327036	-0.000014
C38	C	1.478014	-0.582886	-0.066407
C39	C	1.476064	-0.655722	-0.066410
C40	C	1.476042	-0.655740	0.066344
C41	C	1.477979	-0.582904	0.066345
C42	C	1.478971	-0.546482	-0.000033
C43	C	1.712538	0.098746	-0.000024
C44	C	1.851938	0.100798	-0.000030
C45	C	1.473041	0.230334	-0.000032
C46	C	1.475090	0.307852	-0.000039
N47	N	1.482893	0.102727	0.189679
N48	N	1.482950	0.102730	-0.189721
C49	C	1.568587	0.055692	0.771960
C50	C	1.568589	0.055694	0.695315
C51	C	1.482931	0.102727	0.656992
C52	C	1.397287	0.149774	0.695320
C53	C	1.397296	0.149776	0.771964
N54	N	1.371755	0.111048	0.536666
N55	N	1.371750	0.111042	0.463857
C56	C	1.482900	0.102725	0.426069
N57	N	1.594059	0.094401	0.463840
N58	N	1.594062	0.094403	0.536655
C59	C	1.482912	0.102730	0.573885
C60	C	1.568546	0.055686	0.304643
C61	C	1.568550	0.055693	0.227997
C62	C	1.397237	0.149769	0.228004
C63	C	1.397245	0.149766	0.304649
C64	C	1.482898	0.102721	0.342964
H65	H	1.220589	0.106228	-0.132761
N66	N	1.656058	0.007656	0.343798
N67	N	1.656063	0.007668	0.412229
H68	H	1.717874	-0.026250	0.439882
N69	N	1.115416	0.104666	-0.266945
N70	N	1.232359	0.106392	-0.266935
H71	H	1.279630	0.107087	-0.314815
N72	N	1.490815	-0.101581	-0.134178
N73	N	1.580395	-0.066946	-0.148984
H74	H	1.581113	-0.040663	-0.196865
N75	N	1.478995	-0.545664	-0.134200
N76	N	1.480719	-0.480634	-0.134189
H77	H	1.481409	-0.454345	-0.182067
H78	H	0.864014	0.101005	0.253145
N79	N	1.309808	0.197813	0.811121
N80	N	1.309821	0.197802	0.879551
H81	H	1.248028	0.231727	0.907209
N82	N	1.475064	-0.692934	0.134148
N83	N	1.475921	-0.660418	0.193407
H84	H	1.475228	-0.686688	0.241296
N85	N	0.718099	0.098838	0.132728
N86	N	0.647776	0.147101	0.162355
H87	H	0.553285	0.145710	0.162363
N88	N	1.309739	0.197811	0.343782
N89	N	1.193677	0.196256	0.335231
H90	H	1.131872	0.230191	0.362868
N91	N	1.475083	-0.692899	-0.134219
N92	N	1.475965	-0.660367	-0.193475
H93	H	1.475271	-0.686622	-0.241366
H94	H	1.487079	-0.241274	-0.120438
H95	H	0.745337	0.099210	-0.132782
H96	H	1.638293	0.017391	0.196797
N97	N	1.486816	-0.248865	0.134154
N98	N	1.485093	-0.313896	0.134143
H99	H	1.484377	-0.340182	0.182021
N100	N	1.309761	0.197816	0.188856
N101	N	1.309770	0.197814	0.120425
H102	H	1.247993	0.231751	0.092773
N103	N	1.478972	-0.545705	0.134138
N104	N	1.480698	-0.480675	0.134132
H105	H	1.481395	-0.454402	0.182013
N106	N	1.247624	0.106690	0.132841
N107	N	1.318149	0.058464	0.103294
H108	H	1.412626	0.059912	0.103413
H109	H	1.490515	-0.109171	0.120418
H110	H	1.638334	0.017387	0.803154
H111	H	1.101651	0.104500	0.253149
H112	H	1.638328	0.017388	0.664110
N113	N	0.850609	0.100749	-0.266952
N114	N	0.733668	0.099017	-0.266945
H115	H	0.686422	0.098309	-0.314825
H116	H	1.327545	0.188070	0.664114
