data_functionalizedCrystal
_audit_creation_method	'MofGen! by Chris Wilmer'
_symmetry_space_group_name_H-M	'P1'
_symmetry_Int_Tables_number	1
_symmetry_cell_setting	triclinic
loop_
_symmetry_equiv_pos_as_xyz
  x,y,z
_cell_length_a	14.044220
_cell_length_b	11.792241
_cell_length_c	10.868271
_cell_angle_alpha	90.005281
_cell_angle_beta	90.000690
_cell_angle_gamma	91.308853
loop_
_atom_site_label
_atom_site_type_symbol
_atom_site_fract_x
_atom_site_fract_y
_atom_site_fract_z
O1	O	1.259113	-0.273771	-0.102192
O2	O	1.509113	-0.023771	0.147808
O3	O	1.759113	0.226229	0.397808
O4	O	2.009113	0.476229	0.647808
O5	O	0.983093	-0.263891	-0.102224
O6	O	1.233093	-0.013891	0.147776
O7	O	1.483093	0.236109	0.397776
O8	O	1.733093	0.486109	0.647776
O9	O	1.127802	-0.104289	-0.102199
O10	O	1.377802	0.145711	0.147801
O11	O	1.627802	0.395711	0.397801
O12	O	1.877802	0.645711	0.647801
O13	O	1.114405	-0.433373	-0.102217
O14	O	1.364405	-0.183373	0.147783
O15	O	1.614405	0.066627	0.397783
O16	O	1.864405	0.316627	0.647783
O17	O	1.127790	-0.104281	0.102446
O18	O	1.377790	0.145719	0.352446
O19	O	1.627790	0.395719	0.602446
O20	O	1.877790	0.645719	0.852446
O21	O	0.983081	-0.263883	0.102421
O22	O	1.233081	-0.013883	0.352421
O23	O	1.483081	0.236117	0.602421
O24	O	1.733081	0.486117	0.852421
O25	O	1.259101	-0.273763	0.102452
O26	O	1.509101	-0.023763	0.352452
O27	O	1.759101	0.226237	0.602452
O28	O	2.009101	0.476237	0.852452
Zn29	Zn	1.121089	-0.268822	0.134928
Zn30	Zn	1.371089	-0.018822	0.384928
Zn31	Zn	1.621089	0.231178	0.634928
Zn32	Zn	1.871089	0.481178	0.884928
Zn33	Zn	1.121105	-0.268832	-0.134700
Zn34	Zn	1.371105	-0.018832	0.115300
Zn35	Zn	1.621105	0.231168	0.365300
Zn36	Zn	1.871105	0.481168	0.615300
O37	O	1.114393	-0.433365	0.102427
O38	O	1.364393	-0.183365	0.352427
O39	O	1.614393	0.066635	0.602427
O40	O	1.864393	0.316635	0.852427
C41	C	0.947751	-0.259563	0.000095
C42	C	1.197751	-0.009563	0.250095
C43	C	1.447751	0.240437	0.500095
C44	C	1.697751	0.490437	0.750095
C45	C	0.842459	-0.246664	0.000083
C46	C	1.092459	0.003336	0.250083
C47	C	1.342459	0.253336	0.500083
C48	C	1.592459	0.503336	0.750083
C49	C	1.126954	-0.061915	0.000123
C50	C	1.376954	0.188085	0.250123
C51	C	1.626954	0.438085	0.500123
C52	C	1.876954	0.688085	0.750123
C53	C	1.124435	0.064335	0.000122
C54	C	1.374435	0.314335	0.250122
C55	C	1.624435	0.564335	0.500122
C56	C	1.874435	0.814335	0.750122
N57	N	1.121086	-0.268815	0.318942
N58	N	1.371086	-0.018815	0.568942
N59	N	1.621086	0.231185	0.818942
N60	N	1.871086	0.481185	1.068942
C61	C	0.649676	-0.223082	0.000109
C62	C	0.899676	0.026918	0.250109
C63	C	1.149676	0.276918	0.500109
C64	C	1.399676	0.526918	0.750109
C65	C	0.592513	-0.314567	0.000109
C66	C	0.842513	-0.064567	0.250109
C67	C	1.092513	0.185433	0.500109
C68	C	1.342513	0.435433	0.750109
C69	C	0.485242	-0.301445	0.000123
C70	C	0.735242	-0.051445	0.250123
C71	C	0.985242	0.198555	0.500123
C72	C	1.235242	0.448555	0.750123
C73	C	0.756957	-0.236202	0.000095
C74	C	1.006957	0.013798	0.250095
C75	C	1.256957	0.263798	0.500095
C76	C	1.506957	0.513798	0.750095
C77	C	1.294444	-0.278091	0.000131
C78	C	1.544444	-0.028091	0.250131
C79	C	1.794444	0.221909	0.500131
C80	C	2.044444	0.471909	0.750131
C81	C	1.399736	-0.290990	0.000135
C82	C	1.649736	-0.040990	0.250135
C83	C	1.899736	0.209010	0.500135
C84	C	2.149736	0.459010	0.750135
C85	C	1.115241	-0.475739	0.000103
C86	C	1.365241	-0.225739	0.250103
C87	C	1.615241	0.024261	0.500103
C88	C	1.865241	0.274261	0.750103
C89	C	1.117759	-0.601989	0.000096
C90	C	1.367759	-0.351989	0.250096
C91	C	1.617759	-0.101989	0.500096
C92	C	1.867759	0.148011	0.750096
C93	C	1.119804	0.295482	0.000101
C94	C	1.369804	0.545482	0.250101
C95	C	1.619804	0.795482	0.500101
C96	C	1.869804	1.045482	0.750101
C97	C	1.122377	0.166855	0.000112
C98	C	1.372377	0.416855	0.250112
C99	C	1.622377	0.666855	0.500112
C100	C	1.872377	0.916855	0.750112
N101	N	1.121117	-0.268831	-0.318714
N102	N	1.371117	-0.018831	-0.068714
N103	N	1.621117	0.231169	0.181286
N104	N	1.871117	0.481169	0.431286
C105	C	1.121100	-0.268829	0.569949
C106	C	1.371100	-0.018829	0.819949
C107	C	1.621100	0.231171	1.069949
C108	C	1.871100	0.481171	1.319949
C109	C	1.121089	-0.268824	0.430271
C110	C	1.371089	-0.018824	0.680271
C111	C	1.621089	0.231176	0.930271
C112	C	1.871089	0.481176	1.180271
H113	H	0.624137	-0.402744	0.000098
H114	H	0.874137	-0.152744	0.250098
H115	H	1.124137	0.097256	0.500098
H116	H	1.374137	0.347256	0.750098
H117	H	0.618054	-0.134912	0.000121
H118	H	0.868054	0.115088	0.250121
H119	H	1.118054	0.365088	0.500121
H120	H	1.368054	0.615088	0.750121
