data_functionalizedCrystal
_audit_creation_method	'MofGen! by Chris Wilmer'
_symmetry_space_group_name_H-M	'P1'
_symmetry_Int_Tables_number	1
_symmetry_cell_setting	triclinic
loop_
_symmetry_equiv_pos_as_xyz
  x,y,z
_cell_length_a	13.635800
_cell_length_b	19.390544
_cell_length_c	14.817358
_cell_angle_alpha	104.447426
_cell_angle_beta	45.621405
_cell_angle_gamma	119.377826
loop_
_atom_site_label
_atom_site_type_symbol
_atom_site_fract_x
_atom_site_fract_y
_atom_site_fract_z
V1	V	-2.282620	-0.109495	0.393536
O2	O	-2.226358	0.005249	0.386213
O3	O	-2.299714	-0.217097	0.390684
O4	O	-2.356145	-0.107816	0.565245
O5	O	-2.169536	-0.104789	0.210443
V6	V	-2.506420	-0.095769	0.371657
O7	O	-2.452649	-0.139602	0.441532
O8	O	-2.561490	-0.065662	0.323661
O9	O	-2.377723	0.011834	0.374509
O10	O	-2.621381	-0.210513	0.378980
O11	O	-2.678203	-0.100475	0.554750
O12	O	-2.321291	-0.097448	0.199948
V13	V	-1.782620	-0.109495	0.393536
O14	O	-1.726358	0.005249	0.386213
O15	O	-1.799714	-0.217097	0.390684
O16	O	-1.856145	-0.107816	0.565245
O17	O	-1.669536	-0.104789	0.210443
V18	V	-2.006420	-0.095769	0.371657
O19	O	-1.952649	-0.139602	0.441532
O20	O	-2.061490	-0.065662	0.323661
O21	O	-1.877723	0.011834	0.374509
O22	O	-2.121381	-0.210513	0.378980
O23	O	-2.178203	-0.100475	0.554750
O24	O	-1.821291	-0.097448	0.199948
C25	C	-1.729098	-0.243329	0.384434
C26	C	-1.784370	-0.331295	0.383246
C27	C	-1.801080	-0.103928	0.607102
C28	C	-1.902110	-0.103267	0.747474
C29	C	-1.906605	-0.376653	0.388980
C30	C	-1.958539	-0.459308	0.387872
C31	C	-1.888227	-0.496602	0.381020
C32	C	-1.765983	-0.451239	0.375289
C33	C	-1.714059	-0.368587	0.376407
C34	C	-2.040194	-0.745958	0.377338
C35	C	-2.092126	-0.828616	0.376217
C36	C	-2.284680	-0.836679	0.388803
C37	C	-2.232740	-0.754024	0.389912
C38	C	-2.110507	-0.708669	0.384188
C39	C	-1.941306	-0.581088	0.379882
C40	C	-2.057438	-0.624185	0.385334
C41	C	-2.229098	-0.243329	0.384434
C42	C	-2.284370	-0.331295	0.383246
C43	C	-2.301080	-0.103928	0.607102
C44	C	-2.402110	-0.103267	0.747474
C45	C	-2.280009	0.038061	0.380755
C46	C	-2.214362	0.126027	0.381951
C47	C	-2.208025	-0.101339	0.158084
C48	C	-2.096612	-0.101995	0.017712
C49	C	-2.038684	-0.106726	0.816160
C50	C	-2.143106	-0.106043	0.961242
C51	C	-1.780009	0.038061	0.380755
C52	C	-1.714362	0.126027	0.381951
C53	C	-1.708025	-0.101339	0.158084
C54	C	-1.596612	-0.101995	0.017712
C55	C	-2.406615	-0.376641	0.388991
C56	C	-2.458578	-0.459297	0.387895
C57	C	-2.388286	-0.496606	0.381044
C58	C	-2.266033	-0.451255	0.375302
C59	C	-2.214079	-0.368601	0.376408
C60	C	-1.764612	0.171371	0.376210
C61	C	-1.702925	0.254027	0.377313
C62	C	-1.590995	0.291336	0.384166
C63	C	-1.540740	0.245986	0.389905
C64	C	-1.602419	0.163332	0.388793
C65	C	-2.538684	-0.106726	0.816160
C66	C	-2.643106	-0.106043	0.961242
H67	H	-1.963859	-0.346293	0.394548
H68	H	-2.430605	-0.563909	0.380144
C69	C	-1.758274	0.303893	0.371053
N70	N	-1.799981	0.341447	0.366356
H71	H	-2.114532	-0.331686	0.371723
C72	C	-1.417612	0.287039	0.397442
N73	N	-1.324875	0.317962	0.403125
H74	H	-2.578299	-0.110187	0.767556
C75	C	-2.188709	-0.492306	0.367744
N76	N	-2.130459	-0.523227	0.362037
C77	C	-2.419154	-0.886579	0.395124
N78	N	-2.520453	-0.924164	0.399896
C79	C	-2.014778	-0.869639	0.368689
N80	N	-1.956523	-0.900538	0.363020
C81	C	-2.301302	-0.110041	1.041006
N82	N	-2.420460	-0.113051	1.101087
C83	C	-1.579589	-0.318693	0.370094
N84	N	-1.478306	-0.281115	0.365342
C85	C	-2.092213	-0.111404	0.750506
N86	N	-2.132535	-0.114928	0.701056
C87	C	-2.801302	-0.110041	1.041006
N88	N	-2.920460	-0.113051	1.101087
C89	C	-2.593048	-0.509167	0.394197
N90	N	-2.694327	-0.546726	0.398941
H91	H	-1.862487	-0.099795	0.796075
C92	C	-2.438417	-0.097997	0.937955
N93	N	-2.319257	-0.094984	0.877873
C94	C	-1.938417	-0.097997	0.937955
N95	N	-1.819257	-0.094984	0.877873
H96	H	-2.463862	-0.346274	0.394562
H97	H	-2.058072	-0.496235	0.392543
H98	H	-1.855751	0.141006	0.370630
H99	H	-1.540784	0.358639	0.385070
H100	H	-2.114687	-0.593817	0.390920
H101	H	-2.290010	-0.723665	0.395501
H102	H	-1.940666	-0.709038	0.372670
H103	H	-1.708744	-0.481612	0.369718
H104	H	-1.884061	-0.611462	0.374300
H105	H	-1.561498	0.126417	0.393479
H106	H	-2.362487	-0.099795	0.796075
