data_functionalizedCrystal
_audit_creation_method	'MofGen! by Chris Wilmer'
_symmetry_space_group_name_H-M	'P1'
_symmetry_Int_Tables_number	1
_symmetry_cell_setting	triclinic
loop_
_symmetry_equiv_pos_as_xyz
  x,y,z
_cell_length_a	10.654546
_cell_length_b	10.868271
_cell_length_c	10.654551
_cell_angle_alpha	90.002302
_cell_angle_beta	95.515557
_cell_angle_gamma	89.988469
loop_
_atom_site_label
_atom_site_type_symbol
_atom_site_fract_x
_atom_site_fract_y
_atom_site_fract_z
O1	O	-1.667844	0.102521	0.176379
O2	O	-1.302365	0.102477	0.193190
O3	O	-1.493507	0.102500	0.002045
O4	O	-1.476702	0.102497	0.367524
O5	O	-1.493491	-0.102144	0.002038
O6	O	-1.302349	-0.102168	0.193182
O7	O	-1.667828	-0.102124	0.176372
Zn8	Zn	-1.485086	-0.134638	0.184776
Zn9	Zn	-1.485107	0.134991	0.184786
O10	O	-1.476686	-0.102147	0.367516
C11	C	-1.255559	0.000149	0.191953
C12	C	-1.116116	0.000133	0.188262
N13	N	-1.485081	-0.318652	0.184768
C14	C	-1.036630	0.000145	0.300805
C15	C	-0.905609	0.000158	0.297330
C16	C	-0.933572	0.000152	0.068760
C17	C	-1.064590	0.000130	0.072236
C18	C	-1.088156	0.000148	0.416831
C19	C	-1.008669	0.000162	0.529382
C20	C	-0.877648	0.000175	0.525907
C21	C	-0.826114	0.000174	0.409881
C22	C	-1.485100	-0.569658	0.184783
C23	C	-1.485086	-0.429980	0.184778
C24	C	-0.714634	0.000191	0.177612
C25	C	-0.854076	0.000168	0.181311
C26	C	-1.492265	0.000181	-0.044757
C27	C	-1.488572	0.000189	-0.184200
N28	N	-1.485122	0.319005	0.184783
C29	C	-1.486849	0.111738	-0.249707
C30	C	-1.483369	0.111732	-0.380728
C31	C	-1.483341	-0.111383	-0.380722
C32	C	-1.486812	-0.111376	-0.249703
C33	C	-1.488609	0.223302	-0.184205
C34	C	-1.486887	0.334861	-0.249713
C35	C	-1.483407	0.334855	-0.380733
C36	C	-1.481649	0.223290	-0.446245
C37	C	-1.477928	0.000175	0.414318
C38	C	-1.481621	0.000175	0.553761
H39	H	-1.194838	0.000143	0.419673
C40	C	-1.065360	0.000155	0.657005
N41	N	-1.108058	0.000149	0.753132
H42	H	-0.812933	0.000173	0.617552
H43	H	-0.891601	0.000172	-0.025704
H44	H	-1.488306	0.425692	-0.196363
H45	H	-1.481991	0.425691	-0.434065
H46	H	-1.478796	0.223294	-0.552929
H47	H	-1.491446	0.223320	-0.077522
H48	H	-1.481910	-0.202213	-0.434072
C49	C	-0.681985	0.000183	0.406065
N50	N	-0.573428	0.000197	0.403193
C51	C	-1.152029	0.000123	-0.051566
N52	N	-1.217888	0.000115	-0.144818
C53	C	-1.488715	-0.234086	-0.177641
N54	N	-1.490146	-0.326514	-0.123363
