data_functionalizedCrystal
_audit_creation_method	'MofGen! by Chris Wilmer'
_symmetry_space_group_name_H-M	'P1'
_symmetry_Int_Tables_number	1
_symmetry_cell_setting	triclinic
loop_
_symmetry_equiv_pos_as_xyz
  x,y,z
_cell_length_a	8.559649
_cell_length_b	8.597304
_cell_length_c	7.540329
_cell_angle_alpha	82.296522
_cell_angle_beta	89.997379
_cell_angle_gamma	77.624695
loop_
_atom_site_label
_atom_site_type_symbol
_atom_site_fract_x
_atom_site_fract_y
_atom_site_fract_z
O1	O	2.119294	-0.053144	-0.139334
O2	O	1.655354	0.027756	-0.151703
O3	O	1.896454	-0.242262	-0.110436
O4	O	1.878194	0.216873	-0.180600
O5	O	1.896440	-0.242263	0.184529
O6	O	1.655340	0.027755	0.143263
O7	O	2.119280	-0.053146	0.155631
Cu8	Cu	1.887308	-0.012696	0.176380
Cu9	Cu	1.887326	-0.012694	-0.172451
O10	O	1.878180	0.216872	0.114365
C11	C	1.595913	0.033886	-0.005158
C12	C	1.418818	0.052135	-0.007949
C13	C	1.894486	-0.300497	0.045942
C14	C	1.888623	-0.474017	0.072448
C15	C	2.178721	-0.059276	0.009083
C16	C	2.355816	-0.077525	0.011863
C17	C	1.880148	0.275108	-0.042017
C18	C	1.886012	0.448628	-0.068534
N19	N	1.887308	-0.012699	0.421729
N20	N	1.887339	-0.012705	-0.417798
H21	H	1.337265	0.177113	-0.027058
H22	H	1.886354	-0.540541	0.213445
C23	C	1.465978	-0.246358	0.037671
N24	N	1.548962	-0.373525	0.057115
C25	C	1.889066	-0.461512	-0.259009
N26	N	1.891372	-0.393819	-0.402478
