data_functionalizedCrystal
_audit_creation_method	'MofGen! by Chris Wilmer'
_symmetry_space_group_name_H-M	'P1'
_symmetry_Int_Tables_number	1
_symmetry_cell_setting	triclinic
loop_
_symmetry_equiv_pos_as_xyz
  x,y,z
_cell_length_a	16.109301
_cell_length_b	17.699083
_cell_length_c	14.586319
_cell_angle_alpha	89.995320
_cell_angle_beta	89.999213
_cell_angle_gamma	83.372248
loop_
_atom_site_label
_atom_site_type_symbol
_atom_site_fract_x
_atom_site_fract_y
_atom_site_fract_z
O1	O	1.102963	0.097285	-0.076184
O2	O	0.860880	0.109391	-0.076199
O3	O	0.988761	-0.006841	-0.076183
O4	O	0.975082	0.213517	-0.076200
O5	O	0.988752	-0.006843	0.076298
O6	O	0.860872	0.109390	0.076282
O7	O	1.102954	0.097283	0.076297
Cu8	Cu	0.981912	0.103336	0.090212
Cu9	Cu	0.981923	0.103338	-0.090114
O10	O	0.975074	0.213516	0.076281
C11	C	0.829902	0.108900	0.000040
C12	C	0.737609	0.107430	0.000034
C13	C	0.988267	-0.035040	0.000057
C14	C	0.986796	-0.119060	0.000058
C15	C	0.515224	0.172981	0.000040
C16	C	0.428506	0.171594	0.000046
C17	C	0.448618	0.033688	0.000053
C18	C	0.535334	0.035076	0.000053
C19	C	0.568635	0.104725	0.000042
C20	C	0.395200	0.101949	0.000047
C21	C	0.301177	0.100445	0.000054
C22	C	0.662664	0.106230	0.000037
C23	C	1.061860	-0.167574	0.000064
C24	C	1.060473	-0.246519	0.000055
C25	C	0.984022	-0.276949	0.000048
C26	C	0.908953	-0.228429	0.000039
C27	C	0.910341	-0.149485	0.000041
C28	C	0.903356	-0.546800	0.000031
C29	C	0.901974	-0.625750	0.000033
C30	C	1.053488	-0.643834	0.000046
C31	C	1.054876	-0.564890	0.000048
C32	C	0.979807	-0.516377	0.000034
C33	C	0.981312	-0.430776	0.000041
C34	C	0.982517	-0.362549	0.000047
C35	C	1.133933	0.097774	0.000056
C36	C	1.226226	0.099244	0.000055
C37	C	0.975568	0.241714	0.000038
C38	C	0.977039	0.325734	0.000032
N39	N	0.981911	0.103334	0.217044
N40	N	0.981931	0.103334	-0.216946
C41	C	1.038555	0.051884	0.452057
C42	C	1.038558	0.051882	0.548038
C43	C	0.925280	0.154787	0.548034
C44	C	0.925274	0.154785	0.452054
C45	C	0.981917	0.103334	0.404068
C46	C	0.981925	0.103334	0.596029
C47	C	0.981927	0.103333	0.700096
C48	C	0.981914	0.103334	0.299995
H49	H	0.385022	0.227175	0.000046
H50	H	0.879165	0.196679	0.587113
H51	H	1.121597	-0.286017	0.000062
H52	H	0.879149	0.196682	0.412979
H53	H	0.578824	-0.020510	0.000058
O54	O	0.837501	-0.102249	-0.000002
C55	C	0.855118	-0.026046	0.000021
H56	H	0.920418	-0.023036	-0.028840
H57	H	0.851914	-0.003218	0.073174
C58	C	0.710276	0.018594	-0.024335
C59	C	0.790476	0.022291	-0.059790
H60	H	0.670400	0.048412	-0.061226
H61	H	0.698406	-0.032745	-0.024347
H62	H	0.707618	0.037616	0.036625
H63	H	0.793136	0.003261	-0.120744
H64	H	0.802345	0.073628	-0.059789
O65	O	0.834668	-0.257951	-0.000133
C66	C	0.788916	-0.233139	-0.079097
H67	H	0.833629	-0.216726	-0.134289
H68	H	0.742481	-0.181678	-0.061248
C69	C	0.686349	-0.317884	-0.047122
C70	C	0.741267	-0.297730	-0.114913
H71	H	0.656954	-0.357724	-0.069213
H72	H	0.717171	-0.334598	0.006080
H73	H	0.647661	-0.274994	-0.032253
H74	H	0.779961	-0.340617	-0.129772
H75	H	0.710451	-0.281025	-0.168118
H76	H	1.124115	-0.142805	0.000075
O77	O	0.416129	-0.033900	0.000015
C78	C	0.328138	-0.020491	0.000035
H79	H	0.307653	0.038579	-0.028835
H80	H	0.304003	-0.024157	0.073187
C81	C	0.317454	-0.153236	-0.024304
C82	C	0.292294	-0.080688	-0.059770
H83	H	0.295343	-0.190370	-0.061191
H84	H	0.376736	-0.162271	-0.024314
H85	H	0.297340	-0.156281	0.036655
H86	H	0.312416	-0.077642	-0.120724
H87	H	0.233015	-0.071653	-0.059772
H88	H	1.117130	-0.540119	0.000058
O89	O	1.126336	-0.691069	0.000008
C90	C	1.108725	-0.767273	0.000023
H91	H	1.043431	-0.770283	-0.028852
H92	H	1.111916	-0.790112	0.073175
C93	C	1.253573	-0.811902	-0.024304
C94	C	1.173380	-0.815598	-0.059777
H95	H	1.293457	-0.841712	-0.061187
H96	H	1.265439	-0.760562	-0.024311
H97	H	1.256221	-0.830933	0.036656
H98	H	1.170731	-0.796559	-0.120730
H99	H	1.161515	-0.866936	-0.059781
H100	H	0.842230	-0.507310	0.000021
O101	O	1.093618	0.001990	0.405381
C102	C	1.144815	0.042504	0.349805
H103	H	1.146156	0.102188	0.378719
H104	H	1.118751	0.046480	0.277081
C105	C	1.232492	-0.072542	0.312766
C106	C	1.234144	0.000762	0.348283
H107	H	1.287593	-0.098291	0.311823
H108	H	1.197998	-0.099837	0.350206
H109	H	1.210768	-0.069218	0.252166
H110	H	1.255858	-0.002563	0.408886
H111	H	1.268644	0.028056	0.310854
H112	H	0.839715	-0.650523	0.000028
O113	O	0.547612	0.240617	-0.000127
C114	C	0.597186	0.245545	-0.079088
H115	H	0.576761	0.206000	-0.134283
H116	H	0.665609	0.228074	-0.061234
C117	C	0.611585	0.376516	-0.047106
C118	C	0.586495	0.327951	-0.114900
H119	H	0.604994	0.427348	-0.069195
H120	H	0.578189	0.373196	0.006093
H121	H	0.668603	0.361948	-0.032234
H122	H	0.529476	0.342513	-0.129763
H123	H	0.619881	0.331275	-0.168103
O124	O	1.093658	0.001876	0.594512
C125	C	1.143632	-0.043547	0.531573
H126	H	1.144503	-0.012514	0.463153
H127	H	1.116754	-0.099780	0.521372
C128	C	1.232281	-0.097238	0.653061
C129	C	1.233357	-0.059120	0.569029
H130	H	1.287626	-0.106847	0.676166
H131	H	1.198611	-0.066638	0.695466
H132	H	1.209878	-0.144094	0.644549
H133	H	1.255749	-0.012260	0.577544
H134	H	1.267032	-0.089712	0.526627
