data_functionalizedCrystal
_audit_creation_method	'MofGen! by Chris Wilmer'
_symmetry_space_group_name_H-M	'P1'
_symmetry_Int_Tables_number	1
_symmetry_cell_setting	triclinic
loop_
_symmetry_equiv_pos_as_xyz
  x,y,z
_cell_length_a	10.489741
_cell_length_b	10.489716
_cell_length_c	9.616153
_cell_angle_alpha	89.993488
_cell_angle_beta	89.998678
_cell_angle_gamma	95.465845
loop_
_atom_site_label
_atom_site_type_symbol
_atom_site_fract_x
_atom_site_fract_y
_atom_site_fract_z
O1	O	-0.179814	1.694077	-0.115622
O2	O	-0.196739	1.322877	-0.115627
O3	O	-0.002678	1.516923	-0.115628
O4	O	-0.373875	1.500030	-0.115621
O5	O	-0.002682	1.516897	0.115664
O6	O	-0.196743	1.322850	0.115665
O7	O	-0.179818	1.694050	0.115669
Zn8	Zn	-0.188281	1.508446	0.152389
Zn9	Zn	-0.188276	1.508481	-0.152347
O10	O	-0.373879	1.500004	0.115670
C11	C	-0.195470	1.275332	0.000018
C12	C	-0.191665	1.133701	0.000016
C13	C	-0.310669	1.036027	0.000015
C14	C	-0.247787	0.958667	0.114059
C15	C	-0.247755	0.958700	-0.113976
C16	C	-0.128832	1.058207	0.114154
C17	C	-0.128817	1.058245	-0.113983
C18	C	-0.065848	0.980935	0.000089
C19	C	-0.421409	1.501293	0.000025
C20	C	-0.563038	1.505110	0.000027
C21	C	-0.631167	1.628576	0.000018
C22	C	-0.723295	1.570239	0.114055
C23	C	-0.723269	1.570236	-0.113980
C24	C	-0.653300	1.446722	0.114159
C25	C	-0.653265	1.446736	-0.113979
C26	C	-0.745365	1.388309	0.000086
C27	C	0.044852	1.515634	0.000014
C28	C	0.186481	1.511817	0.000003
C29	C	-0.181087	1.741596	0.000021
C30	C	-0.184892	1.883227	0.000014
N31	N	-0.188284	1.508431	0.360364
N32	N	-0.188263	1.508506	-0.360322
C33	C	-0.291746	1.404312	0.580735
C34	C	-0.292133	1.404541	0.419567
C35	C	-0.218567	1.641801	0.418816
C36	C	-0.219300	1.641234	0.580033
C37	C	-0.054200	1.480508	0.580273
C38	C	-0.055069	1.477447	0.419046
H39	H	-0.754301	1.622469	0.210467
N40	N	-0.810850	1.253727	0.000151
H41	H	-0.785415	1.207264	0.086325
H42	H	-0.906742	1.257137	-0.000723
H43	H	-0.581510	1.730090	0.000133
N44	N	-0.612123	1.377613	-0.241685
H45	H	-0.655353	1.287367	-0.242607
H46	H	-0.637296	1.424439	-0.327715
H47	H	0.022823	1.556477	0.618388
H48	H	-0.078617	1.101752	-0.210404
N49	N	0.051840	1.571315	0.365691
H50	H	0.115256	1.523714	0.312163
H51	H	0.015162	1.635513	0.302502
N52	N	-0.123339	1.747107	0.631651
H53	H	-0.168638	1.809069	0.689826
H54	H	-0.056340	1.709169	0.689967
N55	N	-0.062350	1.115543	0.242015
H56	H	0.029830	1.095161	0.242415
H57	H	-0.065493	1.211471	0.241182
H58	H	-0.754246	1.622511	-0.210387
N59	N	-0.268002	1.273280	0.367208
H60	H	-0.257018	1.214748	0.448857
H61	H	-0.343140	1.237312	0.309026
H62	H	-0.145254	1.721230	0.380463
N63	N	0.071367	0.948567	0.000159
H64	H	0.116150	0.985119	0.086329
H65	H	0.073121	0.852472	-0.000707
H66	H	-0.414185	1.060696	0.000123
N67	N	-0.422748	1.427874	0.634358
H68	H	-0.459865	1.350842	0.688953
H69	H	-0.415228	1.505773	0.696601
H70	H	-0.298014	0.915228	-0.210377
N71	N	-0.267995	1.272631	0.632139
H72	H	-0.189928	1.279233	0.694140
H73	H	-0.344913	1.234875	0.686483
N74	N	-0.612483	1.377562	0.242009
H75	H	-0.516426	1.375443	0.241251
H76	H	-0.638632	1.423880	0.327967
H77	H	-0.391596	1.422539	0.380989
N78	N	-0.348853	1.673665	0.629840
H79	H	-0.404950	1.688193	0.547069
H80	H	-0.390109	1.600543	0.687529
H81	H	-0.315271	1.666831	0.378427
N82	N	-0.016034	1.354387	0.634184
H83	H	-0.085270	1.314120	0.697673
H84	H	-0.004202	1.295193	0.553346
N85	N	-0.024733	1.347448	0.368489
H86	H	-0.021696	1.347168	0.263512
H87	H	0.061022	1.328077	0.406659
N88	N	-0.314318	0.901061	0.241781
H89	H	-0.406730	0.920685	0.241702
H90	H	-0.310398	0.805234	0.241233
