data_functionalizedCrystal
_audit_creation_method	'MofGen! by Chris Wilmer'
_symmetry_space_group_name_H-M	'P1'
_symmetry_Int_Tables_number	1
_symmetry_cell_setting	triclinic
loop_
_symmetry_equiv_pos_as_xyz
  x,y,z
_cell_length_a	14.560438
_cell_length_b	17.052862
_cell_length_c	14.560438
_cell_angle_alpha	90.000708
_cell_angle_beta	60.000905
_cell_angle_gamma	50.259047
loop_
_atom_site_label
_atom_site_type_symbol
_atom_site_fract_x
_atom_site_fract_y
_atom_site_fract_z
Zr1	Zr	0.682251	0.914394	0.040999
O2	O	0.927397	0.762831	-0.132416
O3	O	0.474237	0.960856	0.094158
O4	O	0.665842	0.960851	-0.097444
O5	O	0.735787	0.762840	0.210327
O6	O	0.610661	1.117053	-0.069854
O7	O	0.735791	0.762836	0.059186
O8	O	0.267914	1.117061	0.272886
O9	O	1.078535	0.762831	-0.132413
O10	O	0.504863	1.097243	0.137422
O11	O	0.546041	0.980675	0.229627
O12	O	0.771632	0.980669	0.004041
O13	O	0.812810	0.864100	0.096247
Zr14	Zr	0.594238	1.163524	0.326054
Zr15	Zr	0.594244	1.163518	0.085001
Zr16	Zr	0.682245	0.914400	0.282052
Zr17	Zr	0.923299	0.914394	0.041004
Zr18	Zr	0.353190	1.163524	0.326050
O19	O	0.802253	1.117063	0.272896
O20	O	0.802262	1.117054	-0.069851
O21	O	0.927388	0.762840	0.210331
O22	O	0.349093	1.315087	0.499470
O23	O	0.349101	1.315078	0.156723
O24	O	0.474228	0.960865	0.436904
O25	O	0.540702	1.315079	0.156727
O26	O	0.610647	1.117067	0.464498
O27	O	0.665828	0.960865	0.436908
O28	O	0.540698	1.315083	0.307868
O29	O	1.008581	0.960852	-0.097437
O30	O	0.267909	1.117066	0.464491
O31	O	0.197955	1.315087	0.499467
O32	O	0.197960	1.315082	0.307861
O33	O	1.078530	0.762837	0.059192
O34	O	1.008576	0.960857	0.094168
O35	O	0.504857	1.097249	0.363012
O36	O	0.463679	1.213818	0.270807
O37	O	0.730448	1.097244	0.137426
O38	O	0.771626	0.980675	0.229632
C39	C	0.336731	1.038959	0.183521
C40	C	0.234400	1.038958	0.183519
C41	C	0.164830	1.099804	0.135388
C42	C	0.068669	1.099808	0.135400
C43	C	0.111664	0.978113	0.231672
C44	C	0.207814	0.978116	0.231668
C45	C	0.748328	0.727343	0.128487
C46	C	0.785690	0.621583	0.109807
C47	C	0.333990	0.566872	0.335646
C48	C	0.298882	0.666241	0.353192
C49	C	0.420580	0.655082	0.292348
C50	C	0.577394	0.544543	0.213953
C51	C	0.612505	0.445165	0.196398
C52	C	0.699096	0.533375	0.153100
C53	C	0.855909	0.422836	0.074706
C54	C	0.891014	0.323469	0.057154
C55	C	0.769315	0.334628	0.117999
C56	C	0.663984	0.632753	0.170656
C57	C	0.942500	0.511046	0.031408
C58	C	0.977608	0.411677	0.013861
C59	C	0.939758	1.038960	0.183533
C60	C	1.042089	1.038960	0.183535
C61	C	0.638253	1.038951	-0.117994
C62	C	0.638255	1.038949	-0.220327
C63	C	0.528161	1.350575	0.238567
C64	C	0.490800	1.456335	0.257247
C65	C	0.777503	0.978099	-0.338027
C66	C	0.777492	0.978113	-0.434173
C67	C	0.498974	1.099827	-0.294907
C68	C	0.498985	1.099819	-0.198762
C69	C	0.638237	1.038967	0.485048
C70	C	0.638234	1.038970	0.587381
C71	C	0.226647	1.350575	0.238561
C72	C	0.086955	1.456334	0.257239
C73	C	0.336723	1.038967	0.485042
C74	C	0.234390	1.038969	0.587373
C75	C	0.226639	1.350583	0.540082
C76	C	0.086944	1.456345	0.661093
C77	C	1.049850	0.727336	-0.173028
C78	C	1.189545	0.621573	-0.294039
C79	C	1.049842	0.727344	0.128493
C80	C	1.189534	0.621584	0.109815
C81	C	0.939766	1.038952	-0.117988
C82	C	1.042100	1.038949	-0.220320
C83	C	0.042851	1.445149	0.196375
C84	C	-0.088388	1.544512	0.213900
C85	C	-0.175528	1.655059	0.292297
C86	C	-0.131414	1.666241	0.353163
C87	C	-0.000170	1.566880	0.335630
C88	C	-0.000156	1.566870	0.669793
C89	C	-0.131404	1.666254	0.783489
C90	C	-0.175556	1.655111	0.888483
C91	C	-0.088442	1.544574	0.879779
C92	C	0.042810	1.445192	0.766085
C93	C	1.276657	0.511048	-0.302739
C94	C	1.407935	0.411664	-0.416435
C95	C	1.452092	0.422807	-0.521429
C96	C	1.364972	0.533344	-0.512725
C97	C	1.233703	0.632726	-0.399031
C98	C	1.233648	0.632769	0.170669
C99	C	1.364914	0.533406	0.153117
C100	C	1.452057	0.422860	0.074716
C101	C	1.407939	0.411677	0.013855
C102	C	1.276682	0.511039	0.031401
C103	C	0.164814	1.099820	0.705074
C104	C	0.068674	1.099809	0.801219
C105	C	0.111691	0.978095	0.661949
C106	C	0.207838	0.978100	0.565805
H107	H	0.264459	0.928567	0.270867
H108	H	1.558932	0.341963	0.060440
H109	H	0.186434	1.149379	0.722642
Cl110	Cl	-0.143821	1.530427	0.137379
H111	H	-0.282392	1.735956	0.306564
Cl112	Cl	0.952555	0.901615	-0.582138
Cl113	Cl	1.517428	0.272718	-0.427349
H114	H	0.113799	1.355146	0.132523
Cl115	Cl	1.517502	0.272695	-0.084696
Cl116	Cl	0.295321	0.901587	0.417825
H117	H	0.090058	0.928539	0.644402
H118	H	0.035720	1.576003	0.385202
Cl119	Cl	-0.240985	1.805224	0.451722
Cl120	Cl	0.055327	1.580910	0.537817
H121	H	1.240773	0.501915	-0.018153
Cl122	Cl	1.420341	0.547491	0.229644
Cl123	Cl	-0.018785	1.176307	0.949186
H124	H	0.385584	1.149376	-0.102918
H125	H	1.400942	0.542404	-0.598225
H126	H	0.012024	1.149356	0.096209
Cl127	Cl	0.198242	1.176297	0.074865
Cl128	Cl	0.813444	0.209705	0.095955
H129	H	0.385586	1.149384	-0.277363
H130	H	-0.202321	1.756249	0.790554
H131	H	1.041597	0.501956	-0.018139
Cl132	Cl	0.078224	0.901636	0.292206
H133	H	0.536305	0.722747	0.234494
Cl134	Cl	1.124127	0.771730	0.269231
H135	H	0.391986	0.735996	0.306640
Cl136	Cl	-0.340568	1.780061	1.031406
H137	H	0.171204	0.756236	0.417008
H138	H	1.162776	0.722718	-0.391961
H139	H	0.234919	0.575943	0.385172
H140	H	1.018702	0.233466	-0.006690
Cl141	Cl	-0.143970	1.530585	1.011784
H142	H	1.105286	0.321665	-0.049969
H143	H	0.890906	0.928535	-0.355593
H144	H	0.113715	1.355201	0.759017
H145	H	1.240718	0.501953	-0.217260
H146	H	1.558983	0.341875	-0.613999
