data_functionalizedCrystal
_audit_creation_method	'MofGen! by Chris Wilmer'
_symmetry_space_group_name_H-M	'P1'
_symmetry_Int_Tables_number	1
_symmetry_cell_setting	triclinic
loop_
_symmetry_equiv_pos_as_xyz
  x,y,z
_cell_length_a	13.262522
_cell_length_b	13.339070
_cell_length_c	16.776229
_cell_angle_alpha	89.996888
_cell_angle_beta	74.077118
_cell_angle_gamma	99.428816
loop_
_atom_site_label
_atom_site_type_symbol
_atom_site_fract_x
_atom_site_fract_y
_atom_site_fract_z
O1	O	1.432431	0.136428	-0.376820
O2	O	1.932431	0.636428	0.123180
O3	O	1.131162	0.151262	-0.311510
O4	O	1.631162	0.651262	0.188490
O5	O	1.247221	-0.003565	-0.336667
O6	O	1.747221	0.496435	0.163333
O7	O	1.316373	0.291254	-0.351663
O8	O	1.816373	0.791254	0.148337
O9	O	1.247196	-0.003574	-0.204086
O10	O	1.747196	0.496426	0.295914
O11	O	1.131138	0.151252	-0.178928
O12	O	1.631138	0.651252	0.321072
O13	O	1.432407	0.136418	-0.244239
O14	O	1.932407	0.636418	0.255761
Zn15	Zn	1.281769	0.143833	-0.190533
Zn16	Zn	1.781769	0.643833	0.309467
Zn17	Zn	1.281800	0.143846	-0.365215
Zn18	Zn	1.781800	0.643846	0.134785
O19	O	1.316348	0.291244	-0.219081
O20	O	1.816348	0.791244	0.280919
C21	C	1.091803	0.150425	-0.236689
C22	C	1.591803	0.650425	0.263311
C23	C	0.974559	0.147936	-0.211273
C24	C	1.474559	0.647936	0.288727
C25	C	0.919472	0.146763	-0.127057
C26	C	1.419472	0.646763	0.372943
C27	C	0.809313	0.144415	-0.103170
C28	C	1.309313	0.644415	0.396830
C29	C	0.754232	0.143247	-0.163496
C30	C	1.254232	0.643247	0.336504
C31	C	0.809320	0.144427	-0.247714
C32	C	1.309320	0.644427	0.252286
C33	C	0.919488	0.146768	-0.271603
C34	C	1.419488	0.646768	0.228397
C35	C	0.754249	0.143252	-0.308042
C36	C	1.254249	0.643252	0.191958
C37	C	0.809337	0.144432	-0.392259
C38	C	1.309337	0.644432	0.107741
C39	C	0.919495	0.146774	-0.416145
C40	C	1.419495	0.646774	0.083855
C41	C	0.974576	0.147941	-0.355818
C42	C	1.474576	0.647941	0.144182
C43	C	0.644081	0.140911	-0.284153
C44	C	1.144081	0.640911	0.215847
C45	C	0.644097	0.140916	-0.428698
C46	C	1.144097	0.640916	0.071302
C47	C	0.754256	0.143265	-0.452586
C48	C	1.254256	0.643265	0.047414
C49	C	1.235527	-0.041308	-0.267845
C50	C	1.735527	0.458692	0.232155
C51	C	1.200709	-0.153756	-0.260300
C52	C	1.700709	0.346244	0.239700
C53	C	1.471440	-0.517409	-0.318990
C54	C	1.971440	-0.017409	0.181010
C55	C	1.504157	-0.411759	-0.326075
C56	C	2.004157	0.088241	0.173925
C57	C	1.428298	-0.347253	-0.309632
C58	C	1.928298	0.152747	0.190368
C59	C	1.319716	-0.388408	-0.286103
C60	C	1.819716	0.111592	0.213897
C61	C	1.286995	-0.494069	-0.279011
C62	C	1.786995	0.005931	0.220989
C63	C	1.243853	-0.323913	-0.269653
C64	C	1.743853	0.176087	0.230347
C65	C	1.135271	-0.365067	-0.246123
C66	C	1.635271	0.134933	0.253877
C67	C	1.102557	-0.470718	-0.239033
C68	C	1.602557	0.029282	0.260967
C69	C	1.178416	-0.535224	-0.255476
C70	C	1.678416	-0.035224	0.244524
C71	C	1.276574	-0.218252	-0.276745
C72	C	1.776574	0.281748	0.223255
C73	C	1.092129	-0.194911	-0.236765
C74	C	1.592129	0.305089	0.263235
C75	C	1.059412	-0.300562	-0.229680
C76	C	1.559412	0.199438	0.270320
C77	C	1.471766	0.137254	-0.319061
C78	C	1.971766	0.637254	0.180939
C79	C	1.589010	0.139743	-0.344483
C80	C	2.089010	0.639743	0.155517
C81	C	1.328042	0.328987	-0.287905
C82	C	1.828042	0.828987	0.212095
C83	C	1.362860	0.441436	-0.295455
C84	C	1.862860	0.941436	0.204545
N85	N	1.281754	0.143824	-0.071319
N86	N	1.781754	0.643824	0.428681
N87	N	1.281821	0.143847	-0.484431
N88	N	1.781821	0.643847	0.015569
C89	C	1.333175	0.075295	-0.040748
C90	C	1.833175	0.575295	0.459252
C91	C	1.333181	0.075295	0.042703
C92	C	1.833181	0.575295	0.542703
C93	C	1.281771	0.143828	0.095580
C94	C	1.781771	0.643828	0.595580
C95	C	1.230344	0.212360	0.065005
C96	C	1.730344	0.712360	0.565005
C97	C	1.230332	0.212355	-0.018443
C98	C	1.730332	0.712355	0.481557
C99	C	1.230388	0.212380	0.401543
C100	C	1.730388	0.712380	0.901543
C101	C	1.230406	0.212382	0.484995
C102	C	1.730406	0.712382	0.984995
C103	C	1.333236	0.075320	0.462689
C104	C	1.833236	0.575320	0.962689
C105	C	1.333224	0.075315	0.379241
C106	C	1.833224	0.575315	0.879241
C107	C	1.281793	0.143843	0.348674
C108	C	1.781793	0.643843	0.848674
C109	C	1.281785	0.143841	0.258187
C110	C	1.781785	0.643841	0.758187
C111	C	1.281784	0.143835	0.186064
C112	C	1.781784	0.643835	0.686064
H113	H	0.664536	0.141337	-0.144042
H114	H	1.164536	0.641337	0.355958
F115	F	1.387971	0.002382	0.495227
F116	F	1.887971	0.502382	0.995227
H117	H	0.764466	0.143440	-0.034600
H118	H	1.264466	0.643440	0.465400
F119	F	0.943854	-0.344375	-0.204640
F120	F	1.443854	0.155625	0.295360
H121	H	1.014142	-0.504222	-0.219868
H122	H	1.514142	-0.004222	0.280132
H123	H	0.964327	0.147706	-0.077949
H124	H	1.464327	0.647706	0.422051
F125	F	1.387945	0.002376	0.322967
F126	F	1.887945	0.502376	0.822967
H127	H	1.188479	0.268158	0.108064
H128	H	1.688479	0.768158	0.608064
F129	F	1.175685	0.285327	0.541271
F130	F	1.675685	0.785327	1.041271
F131	F	1.552161	-0.586065	-0.336474
F132	F	2.052161	-0.086065	0.163526
H133	H	1.188459	0.268157	-0.043332
H134	H	1.688459	0.768157	0.456668
F135	F	1.387899	0.002356	-0.097018
F136	F	1.887899	0.502356	0.402982
H137	H	1.064276	0.149857	-0.375263
H138	H	1.564276	0.649857	0.124737
F139	F	0.978118	0.148013	-0.505776
F140	F	1.478118	0.648013	-0.005776
H141	H	1.592564	-0.378259	-0.345232
H142	H	2.092564	0.121741	0.154768
F143	F	0.812897	0.144518	-0.542214
F144	F	1.312897	0.644518	-0.042214
H145	H	0.599251	0.139967	-0.477821
H146	H	1.099251	0.639967	0.022179
H147	H	1.188513	0.268180	0.376661
H148	H	1.688513	0.768180	0.876661
H149	H	1.454943	-0.261228	-0.315402
H150	H	1.954943	0.238772	0.184598
F151	F	1.387906	0.002358	0.075239
F152	F	1.887906	0.502358	0.575239
H153	H	1.364981	-0.184754	-0.295903
H154	H	1.864981	0.315246	0.204097
F155	F	0.585464	0.139655	-0.194525
F156	F	1.085464	0.639655	0.305475
H157	H	1.151783	-0.621254	-0.249711
H158	H	1.651783	-0.121254	0.250289
H159	H	1.030358	-0.142390	-0.223372
H160	H	1.530358	0.357610	0.276628
