data_functionalizedCrystal
_audit_creation_method	'MofGen! by Chris Wilmer'
_symmetry_space_group_name_H-M	'P1'
_symmetry_Int_Tables_number	1
_symmetry_cell_setting	triclinic
loop_
_symmetry_equiv_pos_as_xyz
  x,y,z
_cell_length_a	10.540558
_cell_length_b	9.198806
_cell_length_c	10.723024
_cell_angle_alpha	90.002264
_cell_angle_beta	95.499497
_cell_angle_gamma	89.997603
loop_
_atom_site_label
_atom_site_type_symbol
_atom_site_fract_x
_atom_site_fract_y
_atom_site_fract_z
O1	O	-1.685782	0.120845	0.175973
O2	O	-1.185782	0.620845	0.675973
O3	O	-1.316363	0.120857	0.192519
O4	O	-0.816363	0.620857	0.692519
O5	O	-1.509594	0.120846	0.002675
O6	O	-1.009594	0.620846	0.502675
O7	O	-1.492551	0.120857	0.365817
O8	O	-0.992551	0.620857	0.865817
O9	O	-1.509579	-0.120939	0.002673
O10	O	-1.009579	0.379061	0.502673
O11	O	-1.316349	-0.120928	0.192517
O12	O	-0.816349	0.379072	0.692517
O13	O	-1.685767	-0.120940	0.175972
O14	O	-1.185767	0.379060	0.675972
Cu15	Cu	-1.501057	-0.143011	0.184244
Cu16	Cu	-1.001057	0.356989	0.684244
Cu17	Cu	-1.501074	0.142928	0.184246
Cu18	Cu	-1.001074	0.642928	0.684246
O19	O	-1.492537	-0.120928	0.365816
O20	O	-0.992537	0.379072	0.865816
C21	C	-1.269054	-0.000034	0.191272
C22	C	-0.769054	0.499966	0.691272
C23	C	-1.128109	-0.000029	0.187545
C24	C	-0.628109	0.499971	0.687545
N25	N	-1.501054	-0.344125	0.184242
N26	N	-1.001054	0.155875	0.684242
C27	C	-1.582386	-0.583730	0.104359
C28	C	-1.082386	-0.083730	0.604359
C29	C	-1.582370	-0.416318	0.104361
C30	C	-1.082370	0.083682	0.604361
C31	C	-0.944757	-0.000601	0.045075
C32	C	-0.444757	0.499399	0.545075
C33	C	-1.091372	-0.000039	0.048854
C34	C	-0.591372	0.499961	0.548854
C35	C	-1.066411	0.138038	0.254285
C36	C	-0.566411	0.638038	0.754285
C37	C	-0.919870	0.138136	0.249542
C38	C	-0.419870	0.638136	0.749542
C39	C	-0.919364	-0.136819	0.252362
C40	C	-0.419364	0.363181	0.752362
C41	C	-1.066344	-0.138626	0.253649
C42	C	-0.566344	0.361374	0.753649
C43	C	-0.733079	-0.000049	0.177202
C44	C	-0.233079	0.499951	0.677202
C45	C	-0.874030	-0.000056	0.180879
C46	C	-0.374030	0.499944	0.680879
C47	C	-1.508346	-0.000045	-0.043827
C48	C	-1.008346	0.499955	0.456173
C49	C	-1.504636	-0.000040	-0.182383
C50	C	-1.004636	0.499960	0.317617
N51	N	-1.501087	0.344042	0.184238
N52	N	-1.001087	0.844042	0.684238
C53	C	-1.612757	-0.000041	-0.257305
C54	C	-1.112757	0.499959	0.242695
C55	C	-1.608925	-0.000036	-0.400510
C56	C	-1.108925	0.499964	0.099490
C57	C	-1.493784	-0.000034	0.412317
C58	C	-0.993784	0.499966	0.912317
C59	C	-1.497495	-0.000030	0.550873
C60	C	-0.997495	0.499970	1.050873
H61	H	-1.652008	-0.645830	0.035974
H62	H	-1.152008	-0.145830	0.535974
H63	H	-1.431442	-0.406228	0.252629
H64	H	-0.931442	0.093772	0.752629
H65	H	-1.107325	-0.240768	0.204893
H66	H	-0.607325	0.259232	0.704893
H67	H	-1.651969	-0.354206	0.035968
H68	H	-1.151969	0.145794	0.535968
O69	O	-1.739142	-0.000047	-0.201855
O70	O	-1.239142	0.499953	0.298145
H71	H	-1.722319	-0.000059	-0.098077
H72	H	-1.222319	0.499941	0.401923
H73	H	-0.871850	0.144405	0.349282
H74	H	-0.371850	0.644405	0.849282
O75	O	-1.146729	0.131290	-0.021181
O76	O	-0.646729	0.631290	0.478819
H77	H	-1.068761	0.194654	-0.057873
H78	H	-0.568761	0.694654	0.442127
H79	H	-1.431475	-0.593856	0.252632
H80	H	-0.931475	-0.093856	0.752632
O81	O	-1.098363	-0.149687	0.387588
O82	O	-0.598363	0.350313	0.887588
H83	H	-1.159060	-0.056148	0.409233
H84	H	-0.659060	0.443852	0.909233
H85	H	-1.134007	-0.099011	-0.003660
H86	H	-0.634007	0.400989	0.496340
O87	O	-1.731541	-0.000053	-0.485779
O88	O	-1.231541	0.499947	0.014221
H89	H	-1.787648	0.098484	-0.467492
H90	H	-1.287648	0.598484	0.032508
O91	O	-0.906925	-0.131756	-0.027514
O92	O	-0.406925	0.368244	0.472486
H93	H	-0.837300	-0.197954	0.032416
H94	H	-0.337300	0.302046	0.532416
H95	H	-0.891692	0.241340	0.200212
H96	H	-0.391692	0.741340	0.700212
O97	O	-1.374870	-0.000037	-0.363872
O98	O	-0.874870	0.499963	0.136128
H99	H	-1.371004	0.098512	-0.303898
H100	H	-0.871004	0.598512	0.196102
O101	O	-0.904787	0.129804	-0.027216
O102	O	-0.404787	0.629804	0.472784
H103	H	-0.834770	0.195008	0.033159
H104	H	-0.334770	0.695008	0.533159
H105	H	-1.088712	0.143178	0.356136
H106	H	-0.588712	0.643178	0.856136
H107	H	-0.887835	-0.241474	0.207476
H108	H	-0.387835	0.258526	0.707476
O109	O	-1.122838	0.274155	0.192875
O110	O	-0.622838	0.774155	0.692875
H111	H	-1.194807	0.243820	0.114832
H112	H	-0.694807	0.743820	0.614832
O113	O	-0.856730	-0.138080	0.385045
O114	O	-0.356730	0.361920	0.885045
H115	H	-0.793612	-0.041830	0.400067
H116	H	-0.293612	0.458170	0.900067
H117	H	-1.409232	-0.000027	-0.224259
H118	H	-0.909232	0.499973	0.275741
