data_functionalizedCrystal
_audit_creation_method	'MofGen! by Chris Wilmer'
_symmetry_space_group_name_H-M	'P1'
_symmetry_Int_Tables_number	1
_symmetry_cell_setting	triclinic
loop_
_symmetry_equiv_pos_as_xyz
  x,y,z
_cell_length_a	21.606444
_cell_length_b	21.606444
_cell_length_c	21.606444
_cell_angle_alpha	89.996202
_cell_angle_beta	60.001013
_cell_angle_gamma	59.999875
loop_
_atom_site_label
_atom_site_type_symbol
_atom_site_fract_x
_atom_site_fract_y
_atom_site_fract_z
Zr1	Zr	0.677471	0.596219	-0.081219
O2	O	0.806582	0.497402	-0.180035
O3	O	0.548355	0.626513	-0.050930
O4	O	0.677469	0.626520	-0.180044
O5	O	0.677470	0.497388	0.050929
O6	O	0.677474	0.728370	-0.180048
O7	O	0.677467	0.497395	-0.050921
O8	O	0.446511	0.728357	0.050913
O9	O	0.908433	0.497401	-0.180032
O10	O	0.601467	0.715441	-0.038011
O11	O	0.601466	0.639427	0.038001
O12	O	0.753482	0.639435	-0.114014
O13	O	0.753481	0.563421	-0.038001
Zr14	Zr	0.677482	0.758647	0.081214
Zr15	Zr	0.677478	0.758658	-0.081225
Zr16	Zr	0.677475	0.596209	0.081220
Zr17	Zr	0.839911	0.596218	-0.081214
Zr18	Zr	0.515042	0.758649	0.081209
O19	O	0.806599	0.728353	0.050925
O20	O	0.806592	0.728369	-0.180043
O21	O	0.806589	0.497387	0.050933
O22	O	0.548371	0.857465	0.180030
O23	O	0.548365	0.857480	-0.050939
O24	O	0.548361	0.626498	0.180038
O25	O	0.677483	0.857478	-0.050934
O26	O	0.677484	0.728346	0.180039
O27	O	0.677480	0.626497	0.180042
O28	O	0.677486	0.857472	0.050916
O29	O	0.908439	0.626518	-0.180036
O30	O	0.446515	0.728349	0.180031
O31	O	0.446520	0.857466	0.180027
O32	O	0.446517	0.857474	0.050909
O33	O	0.908437	0.497392	-0.050914
O34	O	0.908442	0.626509	-0.050918
O35	O	0.601471	0.715431	0.114008
O36	O	0.601473	0.791446	0.037996
O37	O	0.753487	0.715440	-0.038006
O38	O	0.753486	0.639425	0.038006
C39	C	0.474289	0.677435	-0.000009
C40	C	0.405329	0.677436	-0.000011
C41	C	0.372932	0.717113	-0.039690
C42	C	0.308132	0.717116	-0.039685
C43	C	0.275734	0.677437	-0.000005
C44	C	0.308134	0.637758	0.039679
C45	C	0.372928	0.637761	0.039678
C46	C	0.046825	0.637750	0.039685
C47	C	-0.017973	0.637749	0.039681
C48	C	-0.017972	0.717105	-0.039678
C49	C	0.046822	0.717107	-0.039679
C50	C	0.079213	0.677432	0.000008
C51	C	0.149475	0.677431	0.000003
C52	C	0.205477	0.677433	-0.000004
C53	C	0.677468	0.474247	0.000005
C54	C	0.677465	0.405288	0.000007
C55	C	0.598115	0.412563	0.039677
C56	C	0.598118	0.347766	0.039678
C57	C	0.677471	0.275694	0.000004
C58	C	0.756826	0.268421	-0.039667
C59	C	0.756823	0.333217	-0.039663
C60	C	0.756842	0.007102	-0.039684
C61	C	0.756839	-0.057696	-0.039687
C62	C	0.598136	0.021651	0.039657
C63	C	0.598133	0.086448	0.039661
C64	C	0.677488	0.079169	-0.000007
C65	C	0.677485	0.149430	-0.000006
C66	C	0.677475	0.205434	-0.000002
C67	C	0.880665	0.677431	0.000004
C68	C	0.949625	0.677430	0.000006
C69	C	0.677471	0.677447	-0.203190
C70	C	0.677469	0.677451	-0.272150
C71	C	0.677485	0.880619	-0.000010
C72	C	0.677488	0.949579	-0.000012
C73	C	0.677483	0.621305	-0.695452
C74	C	0.677477	0.621312	-0.630653
C75	C	0.677478	0.677426	-0.598261
C76	C	0.677476	0.733542	-0.630667
C77	C	0.677476	0.733538	-0.695462
C78	C	0.677474	0.733560	-0.369355
C79	C	0.677476	0.733559	-0.304557
C80	C	0.677475	0.621335	-0.304546
C81	C	0.677475	0.621330	-0.369341
C82	C	0.677468	0.677448	-0.401740
C83	C	0.677474	0.677441	-0.472001
C84	C	0.677478	0.677431	-0.528003
C85	C	0.677482	0.677420	0.203185
C86	C	0.677484	0.677415	0.272145
C87	C	0.474297	0.880621	-0.000017
C88	C	0.405340	0.949581	-0.000021
C89	C	0.474294	0.677422	0.203178
C90	C	0.405336	0.677418	0.272136
C91	C	0.474303	0.880608	0.203171
C92	C	0.405348	0.949564	0.272126
C93	C	0.880650	0.474259	-0.203176
C94	C	0.949605	0.405303	-0.272131
C95	C	0.880656	0.474245	0.000011
C96	C	0.949613	0.405285	0.000016
C97	C	0.880659	0.677444	-0.203183
C98	C	0.949617	0.677448	-0.272141
C99	C	0.372954	0.942292	-0.039705
C100	C	0.308171	1.007082	-0.039725
C101	C	0.275770	1.079159	-0.000056
C102	C	0.308162	1.086447	0.039630
C103	C	0.372949	1.021658	0.039644
C104	C	0.372956	0.717090	0.344201
C105	C	0.308171	0.717083	0.409000
C106	C	0.275764	0.677409	0.401733
C107	C	0.308151	0.637733	0.329660
C108	C	0.372939	0.637735	0.264863
C109	C	0.372966	1.021631	0.264830
C110	C	0.308185	1.086429	0.329615
C111	C	0.275781	1.079157	0.401694
C112	C	0.308169	1.007081	0.408989
C113	C	0.372954	0.942286	0.344205
C114	C	0.981995	0.333235	-0.264835
C115	C	1.046797	0.268438	-0.329620
C116	C	1.079204	0.275710	-0.401699
C117	C	1.046812	0.347785	-0.408994
C118	C	0.982015	0.412581	-0.344210
C119	C	0.982006	0.412574	0.039693
C120	C	1.046807	0.347785	0.039695
C121	C	1.079211	0.275707	0.000024
C122	C	1.046815	0.268420	-0.039659
C123	C	0.982019	0.333208	-0.039664
C124	C	0.982004	0.717130	-0.264849
C125	C	1.046789	0.717149	-0.329636
C126	C	1.079190	0.677480	-0.401714
C127	C	1.046797	0.637797	-0.409004
C128	C	0.982009	0.637784	-0.344218
H129	H	0.281754	0.749424	-0.071994
N130	N	0.205894	1.149053	0.471559
H131	H	0.152124	1.149087	0.502741
H132	H	0.228505	1.149057	0.502697
H133	H	0.955628	0.471257	0.072004
H134	H	0.399309	0.749421	-0.072006
H135	H	1.131965	0.222943	-0.454444
H136	H	0.073201	0.749414	-0.071993
N137	N	0.842427	-0.000751	-0.082481
H138	H	0.892695	-0.056241	-0.107620
H139	H	0.845871	0.024411	-0.122365
N140	N	0.273196	1.164191	0.082425
H141	H	0.303537	1.158986	0.107574
H142	H	0.284469	1.192807	0.045995
N143	N	0.205892	1.149031	-0.000078
H144	H	0.152133	1.149050	0.022497
H145	H	0.190347	1.195765	0.031060
H146	H	-0.044349	0.605436	0.071996
N147	N	-0.052907	0.759897	-0.082486
H148	H	-0.098871	0.753879	-0.076465
H149	H	-0.079735	0.815383	-0.061662
N150	N	0.407873	1.029525	0.082452
H151	H	0.377510	1.085019	0.107578
H152	H	0.396588	1.004376	0.122347
N153	N	0.081752	0.594964	0.082492
H154	H	0.051396	0.569827	0.107626
H155	H	0.146794	0.555077	0.046069
H156	H	1.073206	0.353697	-0.467689
H157	H	0.677479	0.575635	-0.395715
N158	N	1.149084	0.205834	0.000049
H159	H	1.164698	0.159063	-0.031100
H160	H	1.202799	0.205878	-0.022507
N161	N	0.677485	0.794061	-0.595735
H162	H	0.677485	0.829606	-0.626096
H163	H	0.623522	0.823489	-0.541871
H164	H	0.399334	0.749398	0.350133
N165	N	0.947054	0.759932	-0.187115
H166	H	0.901093	0.753910	-0.147171
H167	H	0.996534	0.739109	-0.181106
N168	N	0.677471	0.560808	-0.269601
H169	H	0.731432	0.531328	-0.269693
H170	H	0.623470	0.585341	-0.215758
H171	H	0.399295	0.605432	0.206186
H172	H	0.955644	0.471260	-0.350159
H173	H	1.073173	0.353733	0.072012
N174	N	0.273229	0.999216	-0.082518
H175	H	0.284511	1.024320	-0.122457
H176	H	0.303595	0.943710	-0.107589
N177	N	1.081754	0.190677	-0.082431
H178	H	1.127708	0.150746	-0.076394
H179	H	1.032262	0.184682	-0.061583
N180	N	0.273240	1.164163	0.321744
H181	H	0.284521	1.192821	0.346845
H182	H	0.303604	1.158873	0.266238
N183	N	0.205874	0.677424	0.471627
H184	H	0.190250	0.646274	0.456094
H185	H	0.228477	0.654864	0.502786
H186	H	0.281777	1.001171	0.467684
N187	N	0.273245	0.759882	0.486729
H188	H	0.303602	0.785020	0.481494
H189	H	0.208203	0.799768	0.515341
H190	H	0.281756	0.605431	0.323754
H191	H	1.073156	0.749462	-0.323686
H192	H	0.399340	1.027567	0.206145
N193	N	0.947084	0.325341	-0.082461
H194	H	0.977447	0.269848	-0.107588
H195	H	0.882044	0.350486	-0.046034
N196	N	1.149061	0.677506	-0.471587
H197	H	1.164655	0.708667	-0.456024
H198	H	1.202786	0.623755	-0.502749
H199	H	0.821438	0.327289	-0.071957
H200	H	1.073189	0.605500	-0.467699
H201	H	0.281746	0.605455	0.071991
H202	H	0.399307	0.605449	0.071986
N203	N	0.407889	0.864558	-0.082493
H204	H	0.472930	0.835904	-0.122413
H205	H	0.396544	0.835970	-0.046048
H206	H	0.399311	0.883607	0.350156
H207	H	0.955647	0.605467	-0.350166
H208	H	0.955613	0.327300	-0.206151
H209	H	1.073159	0.209757	-0.323666
H210	H	0.533503	0.353696	0.071982
N211	N	0.512523	0.490293	0.082465
H212	H	0.477833	0.496356	0.137968
H213	H	0.524627	0.530194	0.076389
N214	N	0.512541	0.164178	0.082448
H215	H	0.477850	0.170242	0.137951
H216	H	0.524648	0.204078	0.076372
N217	N	0.512542	0.029504	0.082440
H218	H	0.524581	-0.022478	0.076421
H219	H	0.477883	0.058154	0.137926
H220	H	0.821461	-0.116381	-0.071996
H221	H	0.821437	0.209734	-0.071966
H222	H	0.677475	0.575624	-0.604270
N223	N	0.677481	0.560784	-0.730389
H224	H	0.731440	0.509271	-0.746086
H225	H	0.623479	0.563305	-0.692097
N226	N	0.677477	0.794084	-0.269617
H227	H	0.677471	0.829635	-0.299972
H228	H	0.623514	0.823505	-0.215753
H229	H	0.677475	0.779229	-0.721843
H230	H	0.677471	0.779252	-0.395730
