data_functionalizedCrystal
_audit_creation_method	'MofGen! by Chris Wilmer'
_symmetry_space_group_name_H-M	'P1'
_symmetry_Int_Tables_number	1
_symmetry_cell_setting	triclinic
loop_
_symmetry_equiv_pos_as_xyz
  x,y,z
_cell_length_a	16.120484
_cell_length_b	16.625548
_cell_length_c	16.625548
_cell_angle_alpha	90.004750
_cell_angle_beta	87.113328
_cell_angle_gamma	92.926626
loop_
_atom_site_label
_atom_site_type_symbol
_atom_site_fract_x
_atom_site_fract_y
_atom_site_fract_z
Zn1	Zn	-0.332043	1.216250	0.472174
Zn2	Zn	0.167957	1.716250	0.972174
Zn3	Zn	-0.471424	1.209346	0.344169
Zn4	Zn	0.028576	1.709346	0.844169
Zn5	Zn	-0.332029	1.081449	0.337354
Zn6	Zn	0.167971	1.581449	0.837354
Zn7	Zn	-0.471422	1.074538	0.478959
Zn8	Zn	0.028578	1.574538	0.978959
O9	O	-0.401730	1.145396	0.408164
O10	O	0.098270	1.645396	0.908164
O11	O	-0.350539	1.328166	0.455207
O12	O	0.149461	1.828166	0.955207
O13	O	-0.452928	1.192383	0.230433
O14	O	0.047072	1.692383	0.730433
O15	O	-0.215363	1.105113	0.349547
O16	O	0.284637	1.605113	0.849547
O17	O	-0.452942	1.323094	0.361162
O18	O	0.047058	1.823094	0.861162
O19	O	-0.215374	1.204150	0.448599
O20	O	0.284626	1.704150	0.948599
O21	O	-0.350515	1.098418	0.225426
O22	O	0.149485	1.598418	0.725426
O23	O	-0.350513	0.967701	0.356126
O24	O	0.149487	1.467701	0.856126
O25	O	-0.452939	1.093333	0.590892
O26	O	0.047061	1.593333	1.090892
O27	O	-0.452925	0.962623	0.460162
O28	O	0.047075	1.462623	0.960162
O29	O	-0.350537	1.197448	0.585907
O30	O	0.149463	1.697448	1.085907
O31	O	-0.588092	1.185681	0.367741
O32	O	-0.088092	1.685681	0.867741
O33	O	-0.588090	1.086639	0.466770
O34	O	-0.088090	1.586639	0.966770
C35	C	-0.618342	1.134683	0.418749
C36	C	-0.118342	1.634683	0.918749
C37	C	-0.711009	1.130173	0.423304
C38	C	-0.211009	1.630173	0.923304
C39	C	-0.401718	0.935905	0.408141
C40	C	0.098282	1.435905	0.908141
C41	C	-0.401733	0.846284	0.408151
C42	C	0.098267	1.346284	0.908151
C43	C	-0.401739	1.145390	0.618474
C44	C	0.098261	1.645390	1.118474
C45	C	-0.401743	1.145387	0.708095
C46	C	0.098257	1.645387	1.208095
C47	C	-0.880674	1.121945	0.431637
C48	C	-0.380674	1.621945	0.931637
C49	C	-0.921945	1.168990	0.384704
C50	C	-0.421945	1.668990	0.884704
C51	C	-1.016352	1.164412	0.389341
C52	C	-0.516352	1.664412	0.889341
C53	C	-0.786258	1.126522	0.427002
C54	C	-0.286258	1.626522	0.927002
C55	C	-0.184272	1.156172	0.397556
C56	C	0.315728	1.656172	0.897556
C57	C	-0.091604	1.160765	0.393035
C58	C	0.408396	1.660765	0.893035
C59	C	-0.401738	0.518108	0.408186
C60	C	0.098262	1.018108	0.908186
C61	C	-0.401734	0.609416	0.408174
C62	C	0.098266	1.109416	0.908174
C63	C	-0.401736	0.682193	0.408168
C64	C	0.098264	1.182193	0.908168
C65	C	-0.401731	0.773507	0.408157
C66	C	0.098269	1.273507	0.908157
C67	C	-0.401742	1.355704	0.408188
C68	C	0.098258	1.855704	0.908188
C69	C	-0.401748	1.445325	0.408198
C70	C	0.098252	1.945325	0.908198
C71	C	-0.401747	1.145384	0.780878
C72	C	0.098253	1.645384	1.280878
C73	C	-0.401744	1.145384	0.872186
C74	C	0.098256	1.645384	1.372186
C75	C	-0.401737	1.145387	0.944962
C76	C	0.098263	1.645387	1.444962
C77	C	-0.401735	1.145388	1.036276
C78	C	0.098265	1.645388	1.536276
C79	C	-0.401737	1.145393	1.198674
C80	C	0.098263	1.645393	1.698674
C81	C	-0.401728	1.145392	1.109052
C82	C	0.098272	1.645392	1.609052
H83	H	-0.886376	1.212705	0.341041
H84	H	-0.386376	1.712705	0.841041
O85	O	-0.923228	1.069811	0.483650
O86	O	-0.423228	1.569811	0.983650
C87	C	-1.057498	1.017716	0.535797
C88	C	-0.557498	1.517716	1.035797
C89	C	-1.009397	1.076782	0.476849
C90	C	-0.509397	1.576782	0.976849
H91	H	-1.127174	1.023344	0.530330
H92	H	-0.627174	1.523344	1.030330
H93	H	-1.040569	0.953499	0.520754
H94	H	-0.540569	1.453499	1.020754
H95	H	-1.040352	1.032618	0.599995
H96	H	-0.540352	1.532618	1.099995
H97	H	-1.026517	1.061954	0.412630
H98	H	-0.526517	1.561954	0.912630
H99	H	-1.026331	1.140981	0.491960
H100	H	-0.526331	1.640981	0.991960
