data_functionalizedCrystal
_audit_creation_method	'MofGen! by Chris Wilmer'
_symmetry_space_group_name_H-M	'P1'
_symmetry_Int_Tables_number	1
_symmetry_cell_setting	triclinic
loop_
_symmetry_equiv_pos_as_xyz
  x,y,z
_cell_length_a	14.750135
_cell_length_b	12.837943
_cell_length_c	15.624967
_cell_angle_alpha	89.271526
_cell_angle_beta	85.136796
_cell_angle_gamma	75.989510
loop_
_atom_site_label
_atom_site_type_symbol
_atom_site_fract_x
_atom_site_fract_y
_atom_site_fract_z
O1	O	0.149893	-1.418001	-0.201282
O2	O	0.146155	-1.115126	-0.190529
O3	O	0.105812	-1.262735	-0.074682
O4	O	0.190235	-1.270392	-0.317129
O5	O	-0.042445	-1.220985	-0.107442
O6	O	-0.002103	-1.073376	-0.223289
O7	O	0.001635	-1.376251	-0.234042
Zn8	Zn	-0.023773	-1.218185	-0.233867
Zn9	Zn	0.171563	-1.273192	-0.190704
O10	O	0.041978	-1.228642	-0.349889
C11	C	0.070762	-1.055269	-0.203276
C12	C	0.066992	-0.939113	-0.192443
N13	N	-0.157084	-1.180651	-0.263324
C14	C	0.020805	-1.238065	-0.059814
C15	C	-0.011611	-1.226745	0.033297
C16	C	-0.572985	-1.415547	-0.079053
C17	C	-0.666314	-1.389247	-0.099671
C18	C	-0.630614	-1.258493	-0.202219
C19	C	-0.537279	-1.284786	-0.181613
C20	C	-0.508473	-1.363313	-0.120029
C21	C	-0.472767	-1.232551	-0.222589
C22	C	-0.379441	-1.258838	-0.201981
C23	C	-0.350628	-1.337360	-0.140397
C24	C	-0.415147	-1.389600	-0.099421
C25	C	-0.501577	-1.154019	-0.284168
C26	C	-0.437065	-1.101785	-0.325144
C27	C	-0.343736	-1.128077	-0.304540
C28	C	-0.314922	-1.206599	-0.242957
C29	C	-0.279217	-1.075837	-0.345517
C30	C	-0.185891	-1.102124	-0.324909
C31	C	-0.221596	-1.232886	-0.222349
N32	N	0.304872	-1.310734	-0.161240
C33	C	0.077030	-1.436109	-0.221294
C34	C	0.080806	-1.552266	-0.232126
C35	C	0.112328	-0.711127	-0.322677
C36	C	0.108786	-0.601988	-0.312502
C37	C	0.056362	-0.611692	-0.161920
C38	C	0.059903	-0.720831	-0.172095
C39	C	0.087888	-0.770545	-0.252476
C40	C	0.091436	-0.879688	-0.262649
C41	C	0.039005	-0.889388	-0.112069
C42	C	0.035464	-0.780249	-0.101894
C43	C	0.126987	-1.253312	-0.364756
C44	C	0.159409	-1.264635	-0.457866
C45	C	-0.138111	-1.188033	0.146681
C46	C	-0.107642	-1.198673	0.059192
C47	C	0.053988	-1.244194	0.094889
C48	C	0.023533	-1.233563	0.182383
C49	C	-0.072518	-1.205481	0.208271
C50	C	0.089126	-1.251011	0.243973
C51	C	0.058672	-1.240376	0.331460
C52	C	-0.037374	-1.212292	0.357356
C53	C	-0.102972	-1.194846	0.295758
C54	C	0.185176	-1.279085	0.218083
C55	C	0.250769	-1.296533	0.279673
C56	C	0.220316	-1.285905	0.367162
C57	C	0.124270	-1.257822	0.393058
C58	C	0.285913	-1.303351	0.428760
C59	C	0.255460	-1.292716	0.516246
C60	C	0.093816	-1.247186	0.480544
H61	H	-0.198140	-1.296838	-0.172207
H62	H	0.114221	-0.920163	-0.328099
H63	H	0.135115	-0.751605	-0.388126
H64	H	-0.460532	-1.037844	-0.375284
H65	H	-0.161063	-1.184435	0.009044
H66	H	-0.062168	-1.203625	0.428593
H67	H	0.033504	-0.571175	-0.096494
H68	H	-0.577571	-1.132616	-0.300942
H69	H	-0.549528	-1.479500	-0.028912
H70	H	-0.391691	-1.453553	-0.049279
H71	H	-0.302686	-1.011892	-0.395653
H72	H	-0.133364	-1.059588	-0.358275
H73	H	0.019111	-0.937780	-0.054905
H74	H	0.128685	-0.553613	-0.369668
H75	H	-0.718838	-1.431789	-0.066297
H76	H	0.015602	-1.224326	0.501623
H77	H	-0.274636	-1.358758	-0.123616
H78	H	0.308873	-1.306916	0.566395
H79	H	0.012669	-0.739754	-0.036452
H80	H	-0.216325	-1.165173	0.167760
H81	H	-0.181186	-1.171985	0.316837
H82	H	0.209969	-1.287728	0.146844
H83	H	0.132193	-1.267055	0.073797
H84	H	0.328974	-1.319394	0.258582
H85	H	-0.654081	-1.194552	-0.252360
H86	H	0.364118	-1.326206	0.407667
