data_functionalizedCrystal
_audit_creation_method	'MofGen! by Chris Wilmer'
_symmetry_space_group_name_H-M	'P1'
_symmetry_Int_Tables_number	1
_symmetry_cell_setting	triclinic
loop_
_symmetry_equiv_pos_as_xyz
  x,y,z
_cell_length_a	14.519709
_cell_length_b	14.519709
_cell_length_c	12.996460
_cell_angle_alpha	89.999966
_cell_angle_beta	89.992910
_cell_angle_gamma	96.319855
loop_
_atom_site_label
_atom_site_type_symbol
_atom_site_fract_x
_atom_site_fract_y
_atom_site_fract_z
O1	O	0.120893	-1.223869	-0.085435
O2	O	0.370893	-0.973869	0.164565
O3	O	0.620893	-0.723869	0.414565
O4	O	0.870893	-0.473869	0.664565
O5	O	0.135129	-0.955392	-0.085467
O6	O	0.385129	-0.705392	0.164533
O7	O	0.635129	-0.455392	0.414533
O8	O	0.885129	-0.205392	0.664533
O9	O	-0.006227	-1.096749	-0.085441
O10	O	0.243773	-0.846749	0.164559
O11	O	0.493773	-0.596749	0.414559
O12	O	0.743773	-0.346749	0.664559
O13	O	0.262250	-1.082512	-0.085461
O14	O	0.512250	-0.832512	0.164539
O15	O	0.762250	-0.582512	0.414539
O16	O	1.012250	-0.332512	0.664539
O17	O	-0.006235	-1.096734	0.085693
O18	O	0.243765	-0.846734	0.335693
O19	O	0.493765	-0.596734	0.585693
O20	O	0.743765	-0.346734	0.835693
O21	O	0.135122	-0.955377	0.085667
O22	O	0.385122	-0.705377	0.335667
O23	O	0.635122	-0.455377	0.585667
O24	O	0.885122	-0.205377	0.835667
O25	O	0.120885	-1.223854	0.085699
O26	O	0.370885	-0.973854	0.335699
O27	O	0.620885	-0.723854	0.585699
O28	O	0.870885	-0.473854	0.835699
Cu29	Cu	0.128003	-1.089614	0.101309
Cu30	Cu	0.378003	-0.839614	0.351309
Cu31	Cu	0.628003	-0.589614	0.601309
Cu32	Cu	0.878003	-0.339614	0.851309
Cu33	Cu	0.128012	-1.089632	-0.101077
Cu34	Cu	0.378012	-0.839632	0.148923
Cu35	Cu	0.628012	-0.589632	0.398923
Cu36	Cu	0.878012	-0.339632	0.648923
O37	O	0.262242	-1.082497	0.085673
O38	O	0.512242	-0.832497	0.335673
O39	O	0.762242	-0.582497	0.585673
O40	O	1.012242	-0.332497	0.835673
C41	C	-0.040591	-1.096078	0.000126
C42	C	0.209409	-0.846078	0.250126
C43	C	0.459409	-0.596078	0.500126
C44	C	0.709409	-0.346078	0.750126
C45	C	-0.142972	-1.094090	0.000126
C46	C	0.107028	-0.844090	0.250126
C47	C	0.357028	-0.594090	0.500126
C48	C	0.607028	-0.344090	0.750126
C49	C	0.134462	-0.921025	0.000096
C50	C	0.384462	-0.671025	0.250096
C51	C	0.634462	-0.421025	0.500096
C52	C	0.884462	-0.171025	0.750096
C53	C	0.132474	-0.818643	0.000084
C54	C	0.382474	-0.568643	0.250084
C55	C	0.632474	-0.318643	0.500084
C56	C	0.882474	-0.068643	0.750084
C57	C	-0.517868	-1.086770	0.000099
C58	C	-0.267868	-0.836770	0.250099
C59	C	-0.017868	-0.586770	0.500099
C60	C	0.232132	-0.336770	0.750099
C61	C	-0.413560	-1.088803	0.000107
C62	C	-0.163560	-0.838803	0.250107
C63	C	0.086440	-0.588803	0.500107
C64	C	0.336440	-0.338803	0.750107
C65	C	-0.330423	-1.090430	0.000114
C66	C	-0.080423	-0.840430	0.250114
C67	C	0.169577	-0.590430	0.500114
C68	C	0.419577	-0.340430	0.750114
C69	C	-0.226109	-1.092463	0.000120
C70	C	0.023891	-0.842463	0.250120
C71	C	0.273891	-0.592463	0.500120
C72	C	0.523891	-0.342463	0.750120
C73	C	0.121553	-1.258221	0.000134
C74	C	0.371553	-1.008221	0.250134
C75	C	0.621553	-0.758221	0.500134
C76	C	0.871553	-0.508221	0.750134
C77	C	0.123541	-1.360602	0.000139
C78	C	0.373541	-1.110602	0.250139
C79	C	0.623541	-0.860602	0.500139
C80	C	0.873541	-0.610602	0.750139
C81	C	0.296605	-1.083168	0.000103
C82	C	0.546605	-0.833168	0.250103
C83	C	0.796605	-0.583168	0.500103
C84	C	1.046605	-0.333168	0.750103
C85	C	0.398987	-1.085156	0.000096
C86	C	0.648987	-0.835156	0.250096
C87	C	0.898987	-0.585156	0.500096
C88	C	1.148987	-0.335156	0.750096
N89	N	0.127996	-1.089609	0.243656
N90	N	0.377996	-0.839609	0.493656
N91	N	0.627996	-0.589609	0.743656
N92	N	0.877996	-0.339609	0.993656
C93	C	0.125154	-0.443748	0.000132
C94	C	0.375154	-0.193748	0.250132
C95	C	0.625154	0.056252	0.500132
C96	C	0.875154	0.306252	0.750132
C97	C	0.127187	-0.548056	0.000118
C98	C	0.377187	-0.298056	0.250118
C99	C	0.627187	-0.048056	0.500118
C100	C	0.877187	0.201944	0.750118
C101	C	0.128814	-0.631192	0.000107
C102	C	0.378814	-0.381192	0.250107
C103	C	0.628814	-0.131192	0.500107
C104	C	0.878814	0.118808	0.750107
C105	C	0.130847	-0.735507	0.000095
C106	C	0.380847	-0.485507	0.250095
C107	C	0.630847	-0.235507	0.500095
C108	C	0.880847	0.014493	0.750095
N109	N	0.128012	-1.089644	-0.243424
N110	N	0.378012	-0.839644	0.006576
N111	N	0.628012	-0.589644	0.256576
N112	N	0.878012	-0.339644	0.506576
C113	C	0.128013	-1.089630	0.663470
C114	C	0.378013	-0.839630	0.913470
C115	C	0.628013	-0.589630	1.163470
C116	C	0.878013	-0.339630	1.413470
C117	C	0.128011	-1.089622	0.546665
C118	C	0.378011	-0.839622	0.796665
C119	C	0.628011	-0.589622	1.046665
C120	C	0.878011	-0.339622	1.296665
C121	C	0.128005	-1.089620	0.453567
C122	C	0.378005	-0.839620	0.703567
C123	C	0.628005	-0.589620	0.953567
C124	C	0.878005	-0.339620	1.203567
C125	C	0.128002	-1.089610	0.336754
C126	C	0.378002	-0.839610	0.586754
C127	C	0.628002	-0.589610	0.836754
C128	C	0.878002	-0.339610	1.086754
