data_functionalizedCrystal
_audit_creation_method	'MofGen! by Chris Wilmer'
_symmetry_space_group_name_H-M	'P1'
_symmetry_Int_Tables_number	1
_symmetry_cell_setting	triclinic
loop_
_symmetry_equiv_pos_as_xyz
  x,y,z
_cell_length_a	12.759395
_cell_length_b	15.297327
_cell_length_c	12.759387
_cell_angle_alpha	99.642565
_cell_angle_beta	89.979491
_cell_angle_gamma	99.708038
loop_
_atom_site_label
_atom_site_type_symbol
_atom_site_fract_x
_atom_site_fract_y
_atom_site_fract_z
Zn1	Zn	1.533819	-0.359077	-0.666313
Zn2	Zn	1.503266	-0.509964	-0.521018
Zn3	Zn	1.358107	-0.359126	-0.490660
Zn4	Zn	1.327678	-0.509900	-0.696644
O5	O	1.430717	-0.434517	-0.593659
O6	O	1.676786	-0.379099	-0.647051
O7	O	1.483958	-0.490002	-0.369979
O8	O	1.406937	-0.232874	-0.488562
O9	O	1.654338	-0.489955	-0.540303
O10	O	1.536031	-0.232838	-0.617614
O11	O	1.377311	-0.379183	-0.347675
O12	O	1.207051	-0.379120	-0.517973
O13	O	1.355076	-0.489845	-0.839632
O14	O	1.184695	-0.489893	-0.669309
O15	O	1.506526	-0.379037	-0.817348
O16	O	1.454452	-0.636201	-0.569714
O17	O	1.325449	-0.636154	-0.698746
C18	C	1.157752	-0.434506	-0.593639
C19	C	1.040972	-0.434523	-0.593659
C20	C	1.017694	-0.550057	-0.751065
C21	C	0.951193	-0.607831	-0.829773
C22	C	0.841469	-0.607842	-0.829788
C23	C	0.798245	-0.550070	-0.751089
C24	C	0.864747	-0.492296	-0.672381
C25	C	0.974471	-0.492294	-0.672373
C26	C	0.888026	-0.376759	-0.514982
C27	C	0.997749	-0.376751	-0.514960
C28	C	0.844802	-0.318988	-0.436283
C29	C	0.911303	-0.261217	-0.357569
C30	C	1.021033	-0.261209	-0.357556
C31	C	1.064250	-0.318977	-0.436253
C32	C	1.383362	-0.668911	-0.640838
C33	C	1.363199	-0.769187	-0.661057
C34	C	1.575257	-1.051818	-0.449512
C35	C	1.594200	-0.957605	-0.430510
C36	C	1.536452	-0.910495	-0.488145
C37	C	1.459756	-0.957609	-0.564785
C38	C	1.440805	-1.051832	-0.583783
C39	C	1.402000	-0.910509	-0.622416
C40	C	1.325305	-0.957623	-0.699056
C41	C	1.306358	-1.051836	-0.718051
C42	C	1.364106	-1.098945	-0.660416
C43	C	1.420952	-0.816286	-0.603419
C44	C	1.286500	-0.816300	-0.737690
C45	C	1.267557	-0.910513	-0.756692
C46	C	1.704749	-0.434528	-0.593680
C47	C	1.821524	-0.434533	-0.593689
C48	C	1.430815	-0.434428	-0.867675
C49	C	1.430856	-0.434391	-0.984444
C50	C	1.478287	-0.199207	-0.546318
C51	C	1.498558	-0.098932	-0.526145
C52	C	1.588569	-0.319013	-0.961261
C53	C	1.667443	-0.261311	-1.004527
C54	C	1.667475	-0.261278	-1.114242
C55	C	1.588623	-0.318952	-1.180694
C56	C	1.509749	-0.376654	-1.137428
C57	C	1.509727	-0.376682	-1.027709
C58	C	1.352034	-0.492025	-1.160610
C59	C	1.352004	-0.492064	-1.050896
C60	C	1.273182	-0.549699	-1.227062
C61	C	1.194310	-0.607407	-1.183796
C62	C	1.194282	-0.607438	-1.074074
C63	C	1.273130	-0.549766	-1.007629
C64	C	1.430694	-0.434540	-0.320696
C65	C	1.430908	-0.434323	-0.203876
H66	H	0.986398	-0.654865	-0.893849
O67	O	1.743991	-0.205379	-0.939832
C68	C	1.727043	-0.217764	-0.833713
H69	H	1.678541	-0.287384	-0.832725
H70	H	1.681920	-0.164250	-0.791799
C71	C	1.894572	-0.124029	-0.776960
C72	C	1.835009	-0.209540	-0.775747
H73	H	1.961169	-0.118953	-0.741201
H74	H	1.905989	-0.115682	-0.848454
H75	H	1.856958	-0.079443	-0.742034
H76	H	1.872617	-0.254124	-0.810684
H77	H	1.823601	-0.217895	-0.704257
H78	H	1.153591	-0.318979	-0.436248
H79	H	0.708903	-0.550077	-0.751116
H80	H	1.107034	-0.550060	-0.751055
H81	H	1.243895	-1.090193	-0.780444
O82	O	1.744195	-0.205198	-1.156109
C83	C	1.813767	-0.154281	-1.073934
H84	H	1.809916	-0.191251	-1.003153
H85	H	1.789149	-0.085762	-1.048481
C86	C	1.932950	-0.095875	-1.201100
C87	C	1.928227	-0.141285	-1.114169
H88	H	2.003554	-0.087854	-1.225918
H89	H	1.886077	-0.130175	-1.256463
H90	H	1.912429	-0.038780	-1.179877
H91	H	1.948734	-0.198382	-1.135395
H92	H	1.975106	-0.106994	-1.058809
O93	O	1.085721	-0.205213	-0.281071
C94	C	1.138774	-0.256497	-0.223404
H95	H	1.141411	-0.324906	-0.274085
H96	H	1.094462	-0.266325	-0.147510
C97	C	1.249783	-0.122811	-0.132223
C98	C	1.253030	-0.206829	-0.194474
H99	H	1.320260	-0.092173	-0.114372
H100	H	1.214038	-0.088259	-0.171071
H101	H	1.212852	-0.131013	-0.068985
H102	H	1.289948	-0.198626	-0.257715
H103	H	1.288784	-0.241379	-0.155636
H104	H	1.588649	-0.318912	-1.270028
H105	H	1.483397	-0.777935	-0.541017
H106	H	0.755459	-0.318997	-0.436304
O107	O	1.345805	-1.190467	-0.679045
C108	C	1.366400	-1.221851	-0.786099
H109	H	1.423101	-1.167484	-0.818609
H110	H	1.288628	-1.238602	-0.834926
C111	C	1.347719	-1.373717	-0.753235
C112	C	1.417367	-1.306946	-0.793162
H113	H	1.379153	-1.426210	-0.757595
H114	H	1.333839	-1.352574	-0.681112
H115	H	1.282914	-1.387666	-0.793929
H116	H	1.482165	-1.292990	-0.752460
H117	H	1.431259	-1.328088	-0.865279
O118	O	0.776987	-0.663913	-0.906382
C119	C	0.807783	-0.644289	-1.007183
H120	H	0.894459	-0.609613	-1.002447
H121	H	0.755412	-0.597941	-1.033330
C122	C	0.688629	-0.774893	-1.094186
C123	C	0.795088	-0.732311	-1.088371
H124	H	0.680794	-0.829188	-1.144270
H125	H	0.667877	-0.788113	-1.026275
H126	H	0.644998	-0.736261	-1.115972
H127	H	0.838715	-0.770938	-1.066574
H128	H	0.815848	-0.719100	-1.156281
O129	O	1.555022	-0.818977	-0.469595
C130	C	1.635080	-0.787495	-0.389576
H131	H	1.685553	-0.841758	-0.385849
H132	H	1.596802	-0.770853	-0.309580
C133	C	1.644064	-0.635639	-0.419839
C134	C	1.706062	-0.702283	-0.415269
H135	H	1.687848	-0.583074	-0.435684
H136	H	1.590125	-0.656848	-0.473747
H137	H	1.612170	-0.621782	-0.353173
H138	H	1.737944	-0.716147	-0.481937
H139	H	1.760009	-0.681074	-0.361372
H140	H	1.656644	-0.919248	-0.368109
O141	O	1.631251	-1.097718	-0.393626
C142	C	1.598037	-1.190978	-0.426791
H143	H	1.561048	-1.203824	-0.510449
H144	H	1.536684	-1.217769	-0.369854
C145	C	1.740030	-1.223531	-0.324174
C146	C	1.694608	-1.239309	-0.426928
H147	H	1.799598	-1.253345	-0.324254
H148	H	1.762406	-1.160701	-0.301826
H149	H	1.688892	-1.245857	-0.276737
H150	H	1.745741	-1.216973	-0.474359
H151	H	1.672243	-1.302137	-0.449283
H152	H	0.876102	-0.214180	-0.293503
O153	O	1.193173	-0.956244	-0.831275
C154	C	1.220714	-0.933123	-0.931345
H155	H	1.309864	-0.907153	-0.931485
H156	H	1.175361	-0.878462	-0.947742
C157	C	1.082141	-1.048683	-1.018143
C158	C	1.191638	-1.016793	-1.018319
H159	H	1.064201	-1.100293	-1.071794
H160	H	1.063582	-1.064259	-0.950725
H161	H	1.044360	-1.003124	-1.031804
H162	H	1.229416	-1.062348	-1.004645
H163	H	1.210202	-1.001227	-1.085738
H164	H	1.239474	-0.777944	-0.784620
H165	H	1.588559	-0.319043	-0.871926
H166	H	1.130044	-0.654417	-1.038852
O167	O	1.273183	-0.549835	-1.333672
C168	C	1.282707	-0.636287	-1.387717
H169	H	1.254227	-0.688265	-1.334935
H170	H	1.369497	-0.638208	-1.407581
C171	C	1.249325	-0.594077	-1.556043
C172	C	1.214336	-0.657917	-1.491220
H173	H	1.207155	-0.607418	-1.619891
H174	H	1.242912	-0.535830	-1.519633
H175	H	1.321650	-0.595684	-1.572586
H176	H	1.142017	-0.656301	-1.474667
H177	H	1.220736	-0.716164	-1.527629
O178	O	1.117748	-0.663550	-1.248254
C179	C	1.122535	-0.753479	-1.239565
H180	H	1.162523	-0.755383	-1.160290
H181	H	1.170420	-0.783847	-1.307440
C182	C	0.959947	-0.805779	-1.342841
C183	C	1.009053	-0.808118	-1.245470
H184	H	0.889948	-0.839485	-1.346488
H185	H	0.956724	-0.745193	-1.348699
H186	H	0.999862	-0.831084	-1.399393
H187	H	0.969146	-0.782803	-1.188921
H188	H	1.012268	-0.868702	-1.239603
H189	H	1.273118	-0.549790	-0.918293
