data_functionalizedCrystal
_audit_creation_method	'MofGen! by Chris Wilmer'
_symmetry_space_group_name_H-M	'P1'
_symmetry_Int_Tables_number	1
_symmetry_cell_setting	triclinic
loop_
_symmetry_equiv_pos_as_xyz
  x,y,z
_cell_length_a	10.685661
_cell_length_b	16.625545
_cell_length_c	10.686551
_cell_angle_alpha	85.592661
_cell_angle_beta	80.927213
_cell_angle_gamma	85.646941
loop_
_atom_site_label
_atom_site_type_symbol
_atom_site_fract_x
_atom_site_fract_y
_atom_site_fract_z
Zn1	Zn	1.995608	-0.376344	-0.866149
Zn2	Zn	2.495608	0.123656	-0.366149
Zn3	Zn	1.979143	-0.520803	-0.653878
Zn4	Zn	2.479143	-0.020803	-0.153878
Zn5	Zn	1.767043	-0.376381	-0.637673
Zn6	Zn	2.267043	0.123619	-0.137673
Zn7	Zn	1.783279	-0.501525	-0.849841
Zn8	Zn	2.283279	-0.001525	-0.349841
O9	O	1.881268	-0.443763	-0.751885
O10	O	2.381268	0.056237	-0.251885
O11	O	2.171049	-0.403559	-0.851597
O12	O	2.671049	0.096441	-0.351597
O13	O	1.937322	-0.509728	-0.474099
O14	O	2.437322	-0.009728	0.025901
O15	O	1.797458	-0.263546	-0.668025
O16	O	2.297458	0.236454	-0.168025
O17	O	2.158952	-0.509692	-0.695643
O18	O	2.658952	-0.009692	-0.195643
O19	O	1.965384	-0.263519	-0.835885
O20	O	2.465384	0.236481	-0.335885
O21	O	1.781493	-0.403622	-0.462194
O22	O	2.281493	0.096378	0.037806
O23	O	1.591571	-0.384930	-0.652211
O24	O	2.091571	0.115070	-0.152211
O25	O	1.825130	-0.476837	-1.029633
O26	O	2.325130	0.023163	-0.529633
O27	O	1.603500	-0.476873	-0.808090
O28	O	2.103500	0.023127	-0.308090
O29	O	1.981127	-0.384866	-1.041615
O30	O	2.481127	0.115134	-0.541615
O31	O	1.953065	-0.631076	-0.679829
O32	O	2.453065	-0.131076	-0.179829
O33	O	1.809165	-0.616913	-0.823802
O34	O	2.309165	-0.116913	-0.323802
C35	C	1.551480	-0.428814	-0.726623
C36	C	2.051480	0.071186	-0.226623
C37	C	1.410397	-0.422436	-0.715846
C38	C	1.910397	0.077564	-0.215846
C39	C	1.881127	-0.653250	-0.751835
C40	C	2.381127	-0.153250	-0.251835
C41	C	1.881186	-0.742872	-0.751865
C42	C	2.381186	-0.242872	-0.251865
C43	C	1.881237	-0.815656	-0.751894
C44	C	2.381237	-0.315656	-0.251894
C45	C	1.881313	-0.906966	-0.751927
C46	C	2.381313	-0.406966	-0.251927
C47	C	1.881381	-0.979745	-0.751948
C48	C	2.381381	-0.479745	-0.251948
C49	C	1.881455	-1.071061	-0.751980
C50	C	2.381455	-0.571061	-0.251980
C51	C	2.212344	-0.458772	-0.777247
C52	C	2.712344	0.041228	-0.277247
C53	C	2.353429	-0.465168	-0.788054
C54	C	2.853429	0.034832	-0.288054
C55	C	1.906777	-0.428697	-1.082969
C56	C	2.406777	0.071303	-0.582969
C57	C	1.917647	-0.422277	-1.224058
C58	C	2.417647	0.077723	-0.724058
C59	C	1.881446	-0.233459	-0.751966
C60	C	2.381446	0.266541	-0.251966
C61	C	1.881522	-0.143840	-0.752001
C62	C	2.381522	0.356160	-0.252001
C63	C	1.855932	-0.458716	-0.422095
C64	C	2.355932	0.041284	0.077905
C65	C	1.845307	-0.464921	-0.281026
C66	C	2.345307	0.035079	0.218974
H67	H	1.412596	-0.506632	-0.858127
H68	H	1.912596	-0.006632	-0.358127
H69	H	1.775062	-0.506345	-1.221863
H70	H	2.275062	-0.006345	-0.721863
Br71	Br	1.311799	-0.353315	-0.599077
Br72	Br	1.811799	0.146685	-0.099077
Br73	Br	2.034757	-0.353240	-1.322668
Br74	Br	2.534757	0.146760	-0.822668
