data_functionalizedCrystal
_audit_creation_method	'MofGen! by Chris Wilmer'
_symmetry_space_group_name_H-M	'P1'
_symmetry_Int_Tables_number	1
_symmetry_cell_setting	triclinic
loop_
_symmetry_equiv_pos_as_xyz
  x,y,z
_cell_length_a	18.426585
_cell_length_b	23.196402
_cell_length_c	23.196401
_cell_angle_alpha	60.008822
_cell_angle_beta	90.013019
_cell_angle_gamma	60.001912
loop_
_atom_site_label
_atom_site_type_symbol
_atom_site_fract_x
_atom_site_fract_y
_atom_site_fract_z
Zr1	Zr	0.699110	0.631022	-0.075641
O2	O	0.583210	0.751285	-0.167686
O3	O	0.734636	0.510758	-0.047429
O4	O	0.734604	0.631025	-0.167694
O5	O	0.583270	0.631017	0.047451
O6	O	0.854030	0.631029	-0.167696
O7	O	0.583242	0.631018	-0.047420
O8	O	0.854088	0.415893	0.047436
O9	O	0.583213	0.846153	-0.167682
O10	O	0.838918	0.560228	-0.035394
O11	O	0.749813	0.560224	0.035410
O12	O	0.749775	0.701823	-0.106187
O13	O	0.660670	0.701819	-0.035384
Zr14	Zr	0.889626	0.631027	0.075664
Zr15	Zr	0.889580	0.631029	-0.075645
Zr16	Zr	0.699155	0.631020	0.075667
Zr17	Zr	0.699115	0.782325	-0.075635
Zr18	Zr	0.889621	0.479724	0.075657
O19	O	0.854099	0.751291	0.047451
O20	O	0.854034	0.751294	-0.167691
O21	O	0.583275	0.751282	0.047456
O22	O	1.005526	0.510764	0.167708
O23	O	1.005461	0.510767	-0.047434
O24	O	0.734701	0.510755	0.167713
O25	O	1.005465	0.631032	-0.047429
O26	O	0.854131	0.631024	0.167716
O27	O	0.734705	0.631020	0.167718
O28	O	1.005494	0.631031	0.047442
O29	O	0.734612	0.846158	-0.167685
O30	O	0.854124	0.415891	0.167707
O31	O	1.005522	0.415896	0.167704
O32	O	1.005486	0.415898	0.047433
O33	O	0.583249	0.846151	-0.047411
O34	O	0.734648	0.846156	-0.047414
O35	O	0.838960	0.560226	0.106209
O36	O	0.928065	0.560230	0.035406
O37	O	0.838923	0.701825	-0.035388
O38	O	0.749818	0.701821	0.035416
C39	C	0.794361	0.441768	0.000003
C40	C	0.794359	0.377536	0.000000
C41	C	0.840865	0.347368	-0.036961
C42	C	0.840873	0.287007	-0.036955
C43	C	0.794359	0.256828	0.000002
C44	C	0.747851	0.287000	0.036971
C45	C	0.747851	0.347355	0.036970
C46	C	0.716430	0.194796	-0.005271
C47	C	0.716428	0.134447	-0.005275
C48	C	0.794360	0.070673	0.000009
C49	C	0.872294	0.067264	0.005283
C50	C	0.872294	0.127618	0.005282
C51	C	0.794354	0.191384	0.000008
C52	C	0.840879	-0.024946	-0.036948
C53	C	0.840890	-0.085312	-0.036937
C54	C	0.747859	-0.085311	0.036985
C55	C	0.747857	-0.024953	0.036979
C56	C	0.794365	0.005229	0.000009
C57	C	0.556118	0.631016	0.000016
C58	C	0.475258	0.631014	0.000017
C59	C	0.179144	0.631038	0.000005
C60	C	0.261530	0.631035	0.000007
C61	C	0.327198	0.631026	0.000011
C62	C	0.409590	0.631022	0.000013
C63	C	1.032617	0.631033	0.000006
C64	C	1.113477	0.631035	0.000005
C65	C	0.794311	0.631027	-0.189253
C66	C	0.794291	0.631028	-0.253488
C67	C	0.794374	0.820281	0.000019
C68	C	0.794377	0.884513	0.000022
C69	C	0.747764	0.704937	-0.320614
C70	C	0.747787	0.704938	-0.380970
C71	C	0.794325	0.631026	-0.374194
C72	C	0.840862	0.557108	-0.307056
C73	C	0.840845	0.557109	-0.246702
C74	C	0.787714	0.574398	-0.441514
C75	C	0.787724	0.574400	-0.501867
C76	C	0.794381	0.631020	-0.560342
C77	C	0.801009	0.687652	-0.558462
C78	C	0.800993	0.687653	-0.498109
C79	C	0.794348	0.631017	-0.439633
C80	C	0.747876	0.704935	-0.692915
C81	C	0.747905	0.704933	-0.753270
C82	C	0.840974	0.557101	-0.679354
C83	C	0.840951	0.557105	-0.619001
C84	C	0.794397	0.631024	-0.625786
C85	C	0.794425	0.631022	0.189275
C86	C	0.794444	0.631021	0.253510
C87	C	1.032611	0.441776	-0.000002
C88	C	1.113468	0.377547	-0.000006
C89	C	0.794418	0.441765	0.189267
C90	C	0.794435	0.377532	0.253499
C91	C	1.032668	0.441773	0.189262
C92	C	1.113545	0.377543	0.253493
C93	C	0.556068	0.820276	-0.189240
C94	C	0.475191	0.884506	-0.253471
C95	C	0.556125	0.820273	0.000024
C96	C	0.475267	0.884502	0.000028
C97	C	0.794317	0.820284	-0.189245
C98	C	0.794300	0.884517	-0.253477
C99	C	1.104906	0.347383	-0.036971
C100	C	1.180873	0.287042	-0.036990
C101	C	1.265401	0.256861	-0.000038
C102	C	1.273962	0.287030	0.036928
C103	C	1.197996	0.347375	0.036942
C104	C	0.840977	0.347369	0.320626
C105	C	0.840990	0.287024	0.380985
C106	C	0.794465	0.256839	0.374214
C107	C	0.747918	0.287009	0.307080
C108	C	0.747900	0.347357	0.246724
C109	C	1.198045	0.347382	0.246697
C110	C	1.274045	0.287040	0.307043
C111	C	1.265542	0.256855	0.374183
C112	C	1.181033	0.287022	0.380977
C113	C	1.105035	0.347368	0.320632
C114	C	0.390690	0.914674	-0.246675
C115	C	0.314691	0.975035	-0.307021
C116	C	0.323194	1.005223	-0.374161
C117	C	0.407703	0.975052	-0.380955
C118	C	0.483701	0.914696	-0.320610
C119	C	0.483830	0.914672	0.036987
C120	C	0.407863	0.975030	0.036989
C121	C	0.323334	1.005213	0.000035
C122	C	0.314773	0.975041	-0.036928
C123	C	0.390740	0.914688	-0.036933
C124	C	0.840834	0.914682	-0.246684
C125	C	0.840835	0.975028	-0.307031
C126	C	0.794297	1.005211	-0.374170
C127	C	0.747762	0.975039	-0.380961
C128	C	0.747766	0.914691	-0.320615
H129	H	0.935757	0.015333	0.009595
H130	H	0.935752	0.124838	0.009578
O131	O	0.891030	1.007560	-0.299694
H132	H	0.844065	1.074136	-0.325425
O133	O	0.891048	0.007602	-0.076816
H134	H	0.844064	0.074173	-0.117670
O135	O	0.416860	1.007615	-0.453375
H136	H	0.453742	1.035122	-0.459527
O137	O	0.697558	1.007604	-0.453377
H138	H	0.705368	1.054644	-0.494192
H139	H	0.261304	1.054369	-0.423291
H140	H	0.878766	-0.109879	-0.067032
H141	H	0.794300	1.054351	-0.423302
H142	H	1.204980	0.371927	0.067047
O143	O	0.891046	0.882127	-0.174276
H144	H	0.864182	0.932785	-0.168133
O145	O	0.697789	0.379758	0.174346
H146	H	0.626278	0.407222	0.168170
O147	O	0.697725	0.784652	-0.825678
H148	H	0.626210	0.820087	-0.831836
H149	H	0.878867	0.496920	-0.673836
H150	H	0.806425	0.733760	-0.606075
H151	H	1.342849	0.262484	0.301498
O152	O	0.697569	0.882158	-0.327941
H153	H	0.626060	0.932828	-0.357244
H154	H	0.245887	0.999590	-0.301475
O155	O	0.697685	-0.117850	0.076847
H156	H	0.705493	-0.164883	0.070635
H157	H	0.709978	0.371918	0.067069
O158	O	0.574841	0.882148	-0.327943
H159	H	0.567976	0.913277	-0.384769
H160	H	0.878737	0.371938	-0.067062
H161	H	0.878864	0.371939	0.326152
O162	O	0.891025	0.254464	-0.076829
H163	H	0.923358	0.285596	-0.102541
O164	O	0.697769	0.254421	0.299794
H165	H	0.646365	0.265982	0.325536
H166	H	0.652968	0.137231	-0.009573
O167	O	0.697684	0.007603	0.076834
H168	H	0.665333	-0.023516	0.102529
H169	H	0.652959	0.246731	-0.009588
H170	H	0.245940	0.999625	-0.067015
O171	O	0.780577	0.513308	-0.378424
H172	H	0.720218	0.546104	-0.367322
O173	O	0.794495	0.191746	0.439320
H174	H	0.754322	0.175822	0.423341
O175	O	0.417112	1.007551	0.076872
H176	H	0.384739	1.074123	0.039573
O177	O	1.347514	0.191759	0.439267
H178	H	1.407698	0.175854	0.423255
H179	H	1.174123	0.262437	0.435650
H180	H	1.173885	0.262485	-0.067092
O181	O	0.891053	0.477385	-0.299741
H182	H	0.883240	0.489801	-0.352986
O183	O	1.365134	0.254468	0.076789
H184	H	1.416512	0.207432	0.070572
O185	O	0.891212	0.254487	0.453385
H186	H	0.844263	0.266079	0.482657
O187	O	0.574996	0.882135	0.076835
H188	H	0.568172	0.913273	0.102521
H189	H	0.383750	0.890098	-0.192012
O190	O	0.697674	0.254460	0.076830
H191	H	0.705478	0.207431	0.070614
H192	H	0.709860	0.765128	-0.326146
H193	H	0.261485	1.054357	0.000045
O194	O	1.013741	0.379939	-0.076839
H195	H	1.006013	0.329280	-0.055498
H196	H	1.204985	0.371950	0.192034
O197	O	0.891047	0.477396	-0.174290
H198	H	0.844084	0.473852	-0.145028
H199	H	1.036234	0.371917	0.326175
O200	O	0.697603	0.784654	-0.453385
H201	H	0.626089	0.820089	-0.459542
O202	O	0.808161	0.748716	-0.496070
H203	H	0.812802	0.788085	-0.546865
O204	O	0.697680	0.784657	-0.700224
H205	H	0.665342	0.836053	-0.757045
O206	O	0.891120	0.477389	-0.546594
H207	H	0.923479	0.425991	-0.552019
O208	O	0.381500	0.882141	-0.076791
H209	H	0.309958	0.913267	-0.102477
O210	O	1.347335	0.191768	-0.000049
H211	H	1.327171	0.175862	-0.031957
H212	H	0.782322	0.528291	-0.503393
