data_functionalizedCrystal
_audit_creation_method	'MofGen! by Chris Wilmer'
_symmetry_space_group_name_H-M	'P1'
_symmetry_Int_Tables_number	1
_symmetry_cell_setting	triclinic
loop_
_symmetry_equiv_pos_as_xyz
  x,y,z
_cell_length_a	14.519731
_cell_length_b	14.519709
_cell_length_c	18.366186
_cell_angle_alpha	90.002495
_cell_angle_beta	90.006477
_cell_angle_gamma	83.684499
loop_
_atom_site_label
_atom_site_type_symbol
_atom_site_fract_x
_atom_site_fract_y
_atom_site_fract_z
O1	O	1.223858	0.120980	0.060553
O2	O	1.723858	0.620980	0.560553
O3	O	0.955384	0.135196	0.060554
O4	O	1.455384	0.635196	0.560554
O5	O	1.096740	-0.006150	0.060547
O6	O	1.596740	0.493850	0.560547
O7	O	1.082503	0.262326	0.060560
O8	O	1.582503	0.762326	0.560560
O9	O	1.096721	-0.006145	-0.060553
O10	O	1.596721	0.493855	0.439447
O11	O	0.955366	0.135201	-0.060545
O12	O	1.455366	0.635201	0.439455
O13	O	1.223840	0.120985	-0.060547
O14	O	1.723840	0.620985	0.439453
Zn15	Zn	1.089600	0.128094	-0.079773
Zn16	Zn	1.589600	0.628094	0.420227
Zn17	Zn	1.089624	0.128087	0.079781
Zn18	Zn	1.589624	0.628087	0.579781
O19	O	1.082485	0.262331	-0.060539
O20	O	1.582485	0.762331	0.439461
C21	C	0.921016	0.134532	0.000005
C22	C	1.421016	0.634532	0.500005
C23	C	0.818635	0.132536	0.000005
C24	C	1.318635	0.632536	0.500005
C25	C	0.735491	0.130915	0.000008
C26	C	1.235491	0.630915	0.500008
C27	C	0.631182	0.128888	0.000008
C28	C	1.131182	0.628888	0.500008
C29	C	0.548043	0.127280	0.000008
C30	C	1.048043	0.627280	0.500008
C31	C	0.443728	0.125253	0.000009
C32	C	0.943728	0.625253	0.500009
C33	C	1.096067	-0.040507	-0.000003
C34	C	1.596067	0.459493	0.499997
C35	C	1.094079	-0.142889	-0.000003
C36	C	1.594079	0.357111	0.499997
C37	C	1.086759	-0.517785	0.000016
C38	C	1.586759	-0.017785	0.500016
C39	C	1.088792	-0.413477	0.000010
C40	C	1.588792	0.086523	0.500010
C41	C	1.090419	-0.330340	0.000005
C42	C	1.590419	0.169660	0.500005
C43	C	1.092452	-0.226025	0.000001
C44	C	1.592452	0.273975	0.500001
C45	C	1.258209	0.121649	0.000005
C46	C	1.758209	0.621649	0.500005
C47	C	1.360589	0.123645	0.000009
C48	C	1.860589	0.623645	0.500009
C49	C	1.083157	0.296688	0.000012
C50	C	1.583157	0.796688	0.500012
C51	C	1.085146	0.399070	0.000017
C52	C	1.585146	0.899070	0.500017
N53	N	1.089590	0.128098	-0.188664
N54	N	1.589590	0.628098	0.311336
C55	C	1.145663	0.184131	-0.773211
C56	C	1.645663	0.684131	-0.273211
C57	C	1.145653	0.184140	-0.696983
C58	C	1.645653	0.684140	-0.196983
C59	C	1.089633	0.128077	-0.658876
C60	C	1.589633	0.628077	-0.158876
C61	C	1.033600	0.072019	-0.697002
C62	C	1.533600	0.572019	-0.197002
C63	C	1.033604	0.072019	-0.773228
C64	C	1.533604	0.572019	-0.273228
C65	C	1.086943	0.044917	-0.538113
C66	C	1.586943	0.544917	-0.038113
C67	C	1.086945	0.044915	-0.461888
C68	C	1.586945	0.544915	0.038112
C69	C	1.089615	0.128080	-0.423768
C70	C	1.589615	0.628080	0.076232
C71	C	1.092301	0.211247	-0.461882
C72	C	1.592301	0.711247	0.038118
C73	C	1.092305	0.211246	-0.538108
C74	C	1.592305	0.711246	-0.038108
C75	C	1.089622	0.128072	-0.576221
C76	C	1.589622	0.628072	-0.076221
C77	C	1.145629	0.184149	-0.302996
C78	C	1.645629	0.684149	0.197004
C79	C	1.145613	0.184160	-0.226767
C80	C	1.645613	0.684160	0.273233
C81	C	1.033565	0.072030	-0.226787
C82	C	1.533565	0.572030	0.273213
C83	C	1.033575	0.072028	-0.303014
C84	C	1.533575	0.572028	0.196986
C85	C	1.089612	0.128086	-0.341115
C86	C	1.589612	0.628086	0.158885
N87	N	1.089641	0.128076	0.188672
N88	N	1.589641	0.628076	0.688672
H89	H	1.191291	0.229779	-0.804228
H90	H	1.691291	0.729779	-0.304228
Cl91	Cl	0.963172	0.001543	-0.821149
Cl92	Cl	1.463172	0.501543	-0.321149
H93	H	0.987961	0.026378	-0.334050
H94	H	1.487961	0.526378	0.165950
Cl95	Cl	1.216026	0.254656	-0.178847
Cl96	Cl	1.716026	0.754656	0.321153
H97	H	1.084760	-0.022809	-0.569145
H98	H	1.584760	0.477191	-0.069145
H99	H	1.191272	0.229790	-0.665942
H100	H	1.691272	0.729790	-0.165942
Cl101	Cl	1.095661	0.315803	-0.413968
Cl102	Cl	1.595661	0.815803	0.086032
Cl103	Cl	1.095674	0.315795	-0.586021
Cl104	Cl	1.595674	0.815795	-0.086021
Cl105	Cl	1.083561	-0.059635	-0.413982
Cl106	Cl	1.583561	0.440365	0.086018
H107	H	1.191253	0.229799	-0.334019
H108	H	1.691253	0.729799	0.165981
Cl109	Cl	0.963170	0.001545	-0.649096
Cl110	Cl	1.463170	0.501545	-0.149096
Cl111	Cl	0.963131	0.001558	-0.178887
Cl112	Cl	1.463131	0.501558	0.321113
