data_functionalizedCrystal
_audit_creation_method	'MofGen! by Chris Wilmer'
_symmetry_space_group_name_H-M	'P1'
_symmetry_Int_Tables_number	1
_symmetry_cell_setting	triclinic
loop_
_symmetry_equiv_pos_as_xyz
  x,y,z
_cell_length_a	17.077404
_cell_length_b	13.031981
_cell_length_c	17.077396
_cell_angle_alpha	82.787914
_cell_angle_beta	89.981638
_cell_angle_gamma	97.189720
loop_
_atom_site_label
_atom_site_type_symbol
_atom_site_fract_x
_atom_site_fract_y
_atom_site_fract_z
Zn1	Zn	1.160409	-0.416167	-0.404091
Zn2	Zn	1.493742	-0.082833	-0.070758
Zn3	Zn	1.827075	0.250500	0.262575
Zn4	Zn	1.143664	-0.590961	-0.256139
Zn5	Zn	1.476997	-0.257628	0.077194
Zn6	Zn	1.810331	0.075705	0.410527
Zn7	Zn	1.029138	-0.416196	-0.272839
Zn8	Zn	1.362471	-0.082863	0.060494
Zn9	Zn	1.695804	0.250470	0.393828
Zn10	Zn	1.012463	-0.590892	-0.387372
Zn11	Zn	1.345797	-0.257559	-0.054039
Zn12	Zn	1.679130	0.075774	0.279294
O13	O	1.086418	-0.503554	-0.330111
O14	O	1.419752	-0.170221	0.003223
O15	O	1.753085	0.163112	0.336556
O16	O	1.268033	-0.439370	-0.384473
O17	O	1.601366	-0.106037	-0.051140
O18	O	1.934699	0.227297	0.282193
O19	O	1.128442	-0.567820	-0.148504
O20	O	1.461776	-0.234486	0.184830
O21	O	1.795109	0.098847	0.518163
O22	O	1.060537	-0.269929	-0.304236
O23	O	1.393870	0.063404	0.029097
O24	O	1.727204	0.396737	0.362431
O25	O	1.255730	-0.567791	-0.275774
O26	O	1.589064	-0.234458	0.057560
O27	O	1.922397	0.098876	0.390893
O28	O	1.156981	-0.269907	-0.400666
O29	O	1.490315	0.063426	-0.067333
O30	O	1.823648	0.396759	0.266000
O31	O	1.044300	-0.439421	-0.160773
O32	O	1.377634	-0.106087	0.172560
O33	O	1.710967	0.227246	0.505894
O34	O	0.917080	-0.439354	-0.288024
O35	O	1.250414	-0.106021	0.045309
O36	O	1.583747	0.227313	0.378643
O37	O	1.032118	-0.567673	-0.499441
O38	O	1.365451	-0.234340	-0.166108
O39	O	1.698785	0.098993	0.167226
O40	O	0.904830	-0.567702	-0.372171
O41	O	1.238163	-0.234369	-0.038838
O42	O	1.571496	0.098964	0.294496
O43	O	1.140813	-0.439303	-0.511725
O44	O	1.474146	-0.105970	-0.178391
O45	O	1.807479	0.227364	0.154942
O46	O	1.112274	-0.737215	-0.259562
O47	O	1.445607	-0.403882	0.073771
O48	O	1.778941	-0.070549	0.407105
O49	O	1.015881	-0.737165	-0.355978
O50	O	1.349215	-0.403831	-0.022645
O51	O	1.682548	-0.070498	0.310689
C52	C	0.882473	-0.503525	-0.330096
C53	C	1.215807	-0.170191	0.003238
C54	C	1.549140	0.163142	0.336571
C55	C	0.795222	-0.503537	-0.330106
C56	C	1.128556	-0.170204	0.003228
C57	C	1.461889	0.163130	0.336561
C58	C	0.760627	-0.436787	-0.386771
C59	C	1.093961	-0.103454	-0.053438
C60	C	1.427294	0.229879	0.279896
C61	C	0.678646	-0.436794	-0.386774
C62	C	1.011980	-0.103461	-0.053441
C63	C	1.345313	0.229873	0.279893
C64	C	0.631261	-0.503557	-0.330114
C65	C	0.964594	-0.170223	0.003219
C66	C	1.297928	0.163110	0.336552
C67	C	0.665861	-0.570309	-0.273443
C68	C	0.999195	-0.236976	0.059890
C69	C	1.332528	0.096357	0.393223
C70	C	0.747842	-0.570297	-0.273438
C71	C	1.081175	-0.236963	0.059896
C72	C	1.414508	0.096370	0.393229
C73	C	0.494989	-0.570333	-0.273461
C74	C	0.828322	-0.237000	0.059873
C75	C	1.161656	0.096333	0.393206
C76	C	0.413003	-0.570348	-0.273467
C77	C	0.746336	-0.237014	0.059866
C78	C	1.079670	0.096319	0.393200
C79	C	0.425794	-0.436830	-0.386797
C80	C	0.759127	-0.103497	-0.053464
C81	C	1.092460	0.229836	0.279870
C82	C	0.507774	-0.436818	-0.386791
C83	C	0.841107	-0.103484	-0.053458
C84	C	1.174441	0.229849	0.279876
C85	C	0.542369	-0.503572	-0.330121
C86	C	0.875702	-0.170239	0.003213
C87	C	1.209035	0.163094	0.336546
C88	C	1.060472	-0.775114	-0.304161
C89	C	1.393806	-0.441781	0.029173
C90	C	1.727139	-0.108448	0.362506
C91	C	1.049444	-0.891289	-0.293085
C92	C	1.382778	-0.557956	0.040248
C93	C	1.716111	-0.224622	0.373581
C94	C	1.092216	-0.942989	-0.335907
C95	C	1.425549	-0.609656	-0.002573
C96	C	1.758882	-0.276322	0.330760
C97	C	1.080819	-1.063062	-0.324461
C98	C	1.414152	-0.729728	0.008873
C99	C	1.747485	-0.396395	0.342206
C100	C	1.291160	-0.503585	-0.330126
C101	C	1.624493	-0.170251	0.003208
C102	C	1.957826	0.163082	0.336541
C103	C	1.378408	-0.503598	-0.330132
C104	C	1.711742	-0.170264	0.003201
C105	C	2.045075	0.163069	0.336534
C106	C	1.086473	-0.503477	-0.534862
C107	C	1.419806	-0.170144	-0.201529
C108	C	1.753140	0.163189	0.131804
C109	C	1.086497	-0.503444	-0.622115
C110	C	1.419830	-0.170111	-0.288782
C111	C	1.753163	0.163222	0.044551
C112	C	1.112487	-0.230934	-0.356179
C113	C	1.445820	0.102400	-0.022846
C114	C	1.779154	0.435733	0.310488
C115	C	1.123596	-0.114759	-0.367288
C116	C	1.456929	0.218574	-0.033954
C117	C	1.790262	0.551908	0.299379
C118	C	1.143096	-0.436596	-0.669503
C119	C	1.476430	-0.103263	-0.336170
C120	C	1.809763	0.230070	-0.002837
C121	C	1.143109	-0.436562	-0.751487
C122	C	1.476442	-0.103228	-0.418154
C123	C	1.809776	0.230105	-0.084820
C124	C	1.086525	-0.503381	-0.786081
C125	C	1.419858	-0.170048	-0.452748
C126	C	1.753192	0.163286	-0.119414
C127	C	1.029919	-0.570232	-0.738687
C128	C	1.363253	-0.236898	-0.405354
C129	C	1.696586	0.096435	-0.072020
C130	C	1.029904	-0.570261	-0.656705
C131	C	1.363237	-0.236927	-0.323372
C132	C	1.696570	0.096406	0.009962
C133	C	1.029957	-0.570169	-0.909563
C134	C	1.363290	-0.236836	-0.576230
C135	C	1.696624	0.096498	-0.242896
C136	C	1.029973	-0.570142	-0.991550
C137	C	1.363306	-0.236809	-0.658217
C138	C	1.696640	0.096525	-0.324884
C139	C	1.143162	-0.436470	-1.004345
C140	C	1.476496	-0.103137	-0.671012
C141	C	1.809829	0.230197	-0.337678
C142	C	1.143147	-0.436499	-0.922363
C143	C	1.476480	-0.103165	-0.589030
C144	C	1.809813	0.230168	-0.255697
C145	C	1.086542	-0.503351	-0.874975
C146	C	1.419875	-0.170018	-0.541641
C147	C	1.753208	0.163315	-0.208308
C148	C	1.086416	-0.503556	-0.126163
C149	C	1.419749	-0.170222	0.207171
C150	C	1.753083	0.163111	0.540504
C151	C	1.086573	-0.503294	-0.038938
C152	C	1.419906	-0.169961	0.294395
C153	C	1.753239	0.163373	0.627728
H154	H	0.546353	-0.382460	-0.432932
H155	H	0.879686	-0.049126	-0.099599
H156	H	1.213019	0.284207	0.233734
F157	F	1.021919	-1.121388	-0.265466
F158	F	1.355253	-0.788054	0.067867
F159	F	1.688586	-0.454721	0.401200
H160	H	0.374424	-0.624712	-0.227330
H161	H	0.707757	-0.291379	0.106003
H162	H	1.041090	0.041954	0.439336
H163	H	1.168651	-1.070133	-0.412428
H164	H	1.501985	-0.736800	-0.079095
H165	H	1.835318	-0.403467	0.254238
F166	F	0.641832	-0.365751	-0.447086
F167	F	0.975165	-0.032418	-0.113753
F168	F	1.308498	0.300915	0.219580
F169	F	0.388975	-0.365783	-0.447109
F170	F	0.722309	-0.032449	-0.113775
F171	F	1.055642	0.300884	0.219558
H172	H	1.004385	-0.935920	-0.247955
H173	H	1.337719	-0.602586	0.085378
H174	H	1.671052	-0.269253	0.418712
H175	H	0.523153	-0.624689	-0.227312
H176	H	0.856486	-0.291356	0.106022
H177	H	1.189820	0.041977	0.439355
H178	H	0.627274	-0.624664	-0.227307
H179	H	0.960608	-0.291330	0.106026
H180	H	1.293941	0.042003	0.439360
F181	F	1.203325	-0.365482	-0.632693
F182	F	1.536659	-0.032149	-0.299360
F183	F	1.869992	0.301184	0.033973
F184	F	1.203374	-0.365449	-0.801914
F185	F	1.536707	-0.032115	-0.468581
F186	F	1.870041	0.301218	-0.135248
F187	F	1.203374	-0.365388	-0.885547
F188	F	1.536707	-0.032055	-0.552214
F189	F	1.870040	0.301278	-0.218880
F190	F	1.203406	-0.365321	-1.054780
F191	F	1.536740	-0.031988	-0.721447
F192	F	1.870073	0.301346	-0.388113
F193	F	0.784659	-0.641342	-0.213127
F194	F	1.117993	-0.308008	0.120206
F195	F	1.451326	0.025325	0.453539
F196	F	0.969744	-0.641250	-1.028367
F197	F	1.303078	-0.307916	-0.695033
F198	F	1.636411	0.025417	-0.361700
H199	H	1.137268	-0.898361	-0.381044
H200	H	1.470602	-0.565027	-0.047711
H201	H	1.803935	-0.231694	0.285622
F202	F	0.969695	-0.641342	-0.775507
F203	F	1.303028	-0.308009	-0.442173
F204	F	1.636362	0.025325	-0.108840
F205	F	0.969710	-0.641319	-0.859130
F206	F	1.303043	-0.307986	-0.525797
F207	F	1.636376	0.025347	-0.192464
H208	H	0.983807	-0.624685	-0.618123
H209	H	1.317141	-0.291351	-0.284790
H210	H	1.650474	0.041982	0.048543
H211	H	0.799203	-0.382424	-0.432912
H212	H	1.132536	-0.049091	-0.099578
H213	H	1.465870	0.284243	0.233755
