data_functionalizedCrystal
_audit_creation_method	'MofGen! by Chris Wilmer'
_symmetry_space_group_name_H-M	'P1'
_symmetry_Int_Tables_number	1
_symmetry_cell_setting	triclinic
loop_
_symmetry_equiv_pos_as_xyz
  x,y,z
_cell_length_a	10.540514
_cell_length_b	10.540539
_cell_length_c	9.130313
_cell_angle_alpha	89.997616
_cell_angle_beta	89.995964
_cell_angle_gamma	84.520326
loop_
_atom_site_label
_atom_site_type_symbol
_atom_site_fract_x
_atom_site_fract_y
_atom_site_fract_z
O1	O	1.685904	0.178748	-0.121810
O2	O	1.316487	0.195637	-0.121808
O3	O	1.509624	0.002485	-0.121808
O4	O	1.492768	0.371899	-0.121811
O5	O	1.509610	0.002479	0.121791
O6	O	1.316474	0.195631	0.121790
O7	O	1.685891	0.178742	0.121789
Cu8	Cu	1.501181	0.187186	0.144032
Cu9	Cu	1.501197	0.187193	-0.144052
O10	O	1.492754	0.371894	0.121788
C11	C	1.269177	0.194374	-0.000009
C12	C	1.128227	0.190605	-0.000008
C13	C	1.057522	0.328745	-0.000013
C14	C	0.910908	0.324871	-0.000573
C15	C	0.935897	0.115481	-0.138852
C16	C	1.082437	0.120335	-0.138961
C17	C	1.082824	0.118284	0.138066
C18	C	0.935845	0.116951	0.139883
C19	C	1.508353	-0.044821	-0.000011
C20	C	1.504571	-0.185769	-0.000019
C21	C	1.359652	-0.369182	-0.000565
C22	C	1.363486	-0.222564	-0.000016
C23	C	1.572460	-0.247436	0.139088
C24	C	1.567645	-0.393980	0.139205
C25	C	1.570529	-0.394492	-0.137812
C26	C	1.571829	-0.247510	-0.139651
C27	C	1.733201	0.180004	-0.000014
C28	C	1.874151	0.183774	-0.000024
C29	C	1.494025	0.419199	-0.000012
C30	C	1.497807	0.560147	-0.000014
N31	N	1.501179	0.187181	0.346655
N32	N	1.501209	0.187188	-0.346674
C33	C	1.586729	0.101689	0.423307
C34	C	1.586741	0.101689	0.576644
C35	C	1.415649	0.272684	0.576663
C36	C	1.415632	0.272676	0.423329
H37	H	0.869182	0.378361	-0.100677
H38	H	1.346000	0.342294	0.639106
H39	H	1.114312	0.164265	0.243326
H40	H	0.893296	0.162298	-0.242564
H41	H	1.345961	0.342294	0.360914
H42	H	0.894844	0.166860	0.242590
H43	H	1.676068	-0.225091	0.144260
H44	H	0.868239	0.378586	0.098922
H45	H	1.524873	-0.426038	-0.243246
H46	H	1.086056	0.384781	0.099527
H47	H	1.656402	0.032073	0.639050
H48	H	0.911660	0.014105	0.148680
H49	H	1.130080	0.016391	0.139407
H50	H	1.310067	-0.179954	-0.099733
H51	H	1.130443	0.018862	-0.144888
H52	H	1.110667	0.170219	-0.243135
H53	H	1.303926	-0.397775	-0.100320
H54	H	1.525289	-0.204834	0.242607
H55	H	1.087755	0.383965	-0.099422
H56	H	1.522155	-0.206645	-0.242559
H57	H	1.674691	-0.223298	-0.148052
H58	H	0.913583	0.011849	-0.143622
H59	H	1.304142	-0.399387	0.098633
H60	H	1.309682	-0.180806	0.099867
H61	H	1.669111	-0.441958	0.145515
H62	H	1.517460	-0.422177	0.243191
H63	H	1.672434	-0.441727	-0.138748
H64	H	1.656385	0.032072	0.360883
