data_functionalizedCrystal
_audit_creation_method	'MofGen! by Chris Wilmer'
_symmetry_space_group_name_H-M	'P1'
_symmetry_Int_Tables_number	1
_symmetry_cell_setting	triclinic
loop_
_symmetry_equiv_pos_as_xyz
  x,y,z
_cell_length_a	6.817900
_cell_length_b	17.982959
_cell_length_c	14.125465
_cell_angle_alpha	96.113992
_cell_angle_beta	100.398878
_cell_angle_gamma	102.451857
loop_
_atom_site_label
_atom_site_type_symbol
_atom_site_fract_x
_atom_site_fract_y
_atom_site_fract_z
V1	V	-3.986205	-0.104757	-0.300376
O2	O	-3.979787	0.005707	-0.294244
O3	O	-3.932905	-0.208364	-0.298719
O4	O	-3.922440	-0.102850	-0.431198
O5	O	-3.990324	-0.100536	-0.160848
V6	V	-4.472458	-0.091579	-0.283639
O7	O	-4.241473	-0.133664	-0.337090
O8	O	-4.667387	-0.062672	-0.246925
O9	O	-4.302552	0.012027	-0.285295
O10	O	-4.596273	-0.202044	-0.289770
O11	O	-4.585736	-0.095800	-0.423167
O12	O	-4.313017	-0.093486	-0.152816
C13	C	-3.777211	-0.233630	-0.294083
C14	C	-3.814816	-0.318328	-0.293600
C15	C	-4.013835	-0.361989	-0.298187
C16	C	-4.049159	-0.441572	-0.297740
C17	C	-3.885460	-0.477491	-0.292698
C18	C	-3.686426	-0.433824	-0.288113
C19	C	-3.651106	-0.354244	-0.288568
C20	C	-3.828861	-0.754764	-0.286281
C21	C	-3.864196	-0.834350	-0.285824
C22	C	-4.226914	-0.842092	-0.295452
C23	C	-4.191595	-0.762511	-0.295907
C24	C	-3.992567	-0.718852	-0.291328
C25	C	-3.954267	-0.632560	-0.291815
C26	C	-3.923755	-0.563781	-0.292204
C27	C	-3.763861	-0.099036	-0.463073
C28	C	-3.792977	-0.098163	-0.570023
C29	C	-3.846346	-0.096561	-0.765840
C30	C	-4.031686	-0.099774	-0.818174
C31	C	-4.061383	-0.098883	-0.927133
C32	C	-3.816641	-0.097452	-0.656871
C33	C	-4.121588	0.037289	-0.289929
C34	C	-4.063220	0.121986	-0.290418
C35	C	-4.134938	-0.097303	-0.120937
C36	C	-4.085061	-0.098172	-0.013985
H37	H	-4.211217	-0.477118	-0.301476
Br38	Br	-4.236013	-0.313248	-0.305023
Br39	Br	-4.413762	-0.713765	-0.302733
Br40	Br	-4.497031	-0.901348	-0.301667
H41	H	-4.168062	-0.103203	-0.781149
H42	H	-3.709985	-0.093141	-0.802865
H43	H	-3.730883	-0.863594	-0.281724
H44	H	-3.489049	-0.318696	-0.284837
Br45	Br	-3.558754	-0.695522	-0.280060
Br46	Br	-3.464261	-0.482572	-0.281280
