data_functionalizedCrystal
_audit_creation_method	'MofGen! by Chris Wilmer'
_symmetry_space_group_name_H-M	'P1'
_symmetry_Int_Tables_number	1
_symmetry_cell_setting	triclinic
loop_
_symmetry_equiv_pos_as_xyz
  x,y,z
_cell_length_a	12.759395
_cell_length_b	17.639999
_cell_length_c	12.759387
_cell_angle_alpha	101.232455
_cell_angle_beta	90.022941
_cell_angle_gamma	78.803948
loop_
_atom_site_label
_atom_site_type_symbol
_atom_site_fract_x
_atom_site_fract_y
_atom_site_fract_z
Zn1	Zn	-1.690798	0.314667	-0.509592
Zn2	Zn	-1.726200	0.446863	-0.298421
Zn3	Zn	-1.515106	0.314702	-0.333912
Zn4	Zn	-1.550583	0.446799	-0.474070
O5	O	-1.620672	0.380758	-0.403999
O6	O	-1.842518	0.332215	-0.481593
O7	O	-1.698167	0.429373	-0.156097
O8	O	-1.508748	0.204090	-0.386936
O9	O	-1.868528	0.429339	-0.326447
O10	O	-1.637828	0.204064	-0.516007
O11	O	-1.543076	0.332275	-0.182172
O12	O	-1.372787	0.332213	-0.352491
O13	O	-1.569214	0.429230	-0.625814
O14	O	-1.398853	0.429264	-0.455465
O15	O	-1.672229	0.332153	-0.651913
O16	O	-1.732568	0.557462	-0.292002
O17	O	-1.603543	0.557415	-0.421050
C18	C	-1.347698	0.380736	-0.403975
C19	C	-1.230924	0.380746	-0.403985
C20	C	-0.984452	0.279785	-0.565737
C21	C	-1.025796	0.229293	-0.646592
C22	C	-1.135515	0.229283	-0.646580
C23	C	-1.203894	0.279772	-0.565706
C24	C	-1.162550	0.330264	-0.484851
C25	C	-1.052827	0.330267	-0.484870
C26	C	-1.189580	0.431238	-0.323130
C27	C	-1.079860	0.431246	-0.323136
C28	C	-1.257959	0.481728	-0.242256
C29	C	-1.216614	0.532217	-0.161395
C30	C	-1.106888	0.532224	-0.161410
C31	C	-1.038516	0.481738	-0.242281
C32	C	-1.675775	0.586118	-0.348843
C33	C	-1.699445	0.673971	-0.325282
C34	C	-0.894709	0.380772	-0.404017
C35	C	-1.011481	0.380756	-0.404009
C36	C	-1.441123	0.962927	-0.583346
C37	C	-1.463366	1.045479	-0.561174
C38	C	-1.597804	1.045463	-0.426932
C39	C	-1.575575	0.962909	-0.449096
C40	C	-1.497233	0.921648	-0.527304
C41	C	-1.631685	0.921629	-0.393054
C42	C	-1.609454	0.839083	-0.415213
C43	C	-1.531113	0.797816	-0.493415
C44	C	-1.475002	0.839101	-0.549463
C45	C	-1.710022	0.962892	-0.314842
C46	C	-1.766132	0.921613	-0.258799
C47	C	-1.743907	0.839065	-0.280964
C48	C	-1.665566	0.797798	-0.359165
C49	C	-1.800018	0.797779	-0.224916
C50	C	-1.777787	0.715233	-0.247075
C51	C	-1.643335	0.715251	-0.381325
C52	C	-1.565349	1.174596	-0.459388
C53	C	-1.541689	1.086742	-0.482980
C54	C	-1.620730	0.380680	-0.678053
C55	C	-1.620755	0.380647	-0.794839
C56	C	-1.728036	0.279568	-0.822033
C57	C	-1.781688	0.229016	-0.890494
C58	C	-1.781705	0.228987	-1.000223
C59	C	-1.728063	0.279514	-1.041493
C60	C	-1.674411	0.330065	-0.973032
C61	C	-1.674402	0.330090	-0.863301
C62	C	-1.567126	0.431140	-0.945840
C63	C	-1.567113	0.431174	-0.836109
C64	C	-1.513483	0.481667	-0.987110
C65	C	-1.459837	0.532223	-0.918647
C66	C	-1.459822	0.532251	-0.808911
C67	C	-1.513461	0.481726	-0.767648
C68	C	-1.620659	0.380778	-0.131026
C69	C	-1.620777	0.380588	-0.014301
H70	H	-1.169177	0.188169	-0.712420
O71	O	-0.866111	0.279791	-0.565735
H72	H	-0.841522	0.295841	-0.640632
O73	O	-1.402848	1.090012	-0.621617
H74	H	-1.416547	1.074133	-0.708357
H75	H	-1.661587	1.079069	-0.363252
O76	O	-1.839574	0.174469	-1.074073
H77	H	-1.876878	0.139342	-1.026946
H78	H	-1.728039	0.279593	-0.732685
H79	H	-1.863797	0.831386	-0.161232
H80	H	-1.823477	0.681623	-0.201438
O81	O	-1.734007	1.051925	-0.290929
H82	H	-1.761065	1.073649	-0.364354
O83	O	-1.839541	0.174523	-0.845976
H84	H	-1.876843	0.139362	-0.912018
H85	H	-1.829915	0.955219	-0.195120
H86	H	-1.293234	0.279767	-0.565711
O87	O	-1.728069	0.279480	-1.159845
H88	H	-1.774388	0.235841	-1.200517
H89	H	-1.513497	0.481636	-1.076459
O90	O	-1.401977	0.586711	-0.963156
H91	H	-1.411000	0.578196	-1.050959
O92	O	-0.920174	0.481741	-0.242303
H93	H	-0.886889	0.465691	-0.167413
O94	O	-0.952047	0.174829	-0.733811
H95	H	-0.868803	0.183308	-0.720232
H96	H	-1.416118	0.573408	-0.753178
O97	O	-1.513443	0.481765	-0.649295
H98	H	-1.476219	0.422154	-0.636376
O99	O	-1.376297	0.481711	-0.242224
H100	H	-1.393559	0.438110	-0.312022
H101	H	-1.073234	0.573345	-0.095572
O102	O	-1.290362	0.586663	-0.074171
H103	H	-1.351186	0.626914	-0.110286
H104	H	-1.513007	0.730601	-0.511448
O105	O	-1.558837	0.670744	-0.465681
H106	H	-1.595695	0.633091	-0.529287
O107	O	-1.390504	0.794586	-0.633816
H108	H	-1.355215	0.837157	-0.669065
H109	H	-1.377336	0.929331	-0.647039
