data_functionalizedCrystal
_audit_creation_method	'MofGen! by Chris Wilmer'
_symmetry_space_group_name_H-M	'P1'
_symmetry_Int_Tables_number	1
_symmetry_cell_setting	triclinic
loop_
_symmetry_equiv_pos_as_xyz
  x,y,z
_cell_length_a	6.394989
_cell_length_b	14.750779
_cell_length_c	15.625950
_cell_angle_alpha	120.090508
_cell_angle_beta	85.314149
_cell_angle_gamma	76.986695
loop_
_atom_site_label
_atom_site_type_symbol
_atom_site_fract_x
_atom_site_fract_y
_atom_site_fract_z
O1	O	-0.064226	-0.368027	-1.287009
O2	O	-0.153065	-0.268570	-1.001195
O3	O	0.196207	-0.319709	-1.148159
O4	O	-0.413499	-0.316887	-1.140045
O5	O	0.294932	-0.493816	-1.189704
O6	O	-0.054340	-0.442676	-1.042740
O7	O	0.034499	-0.542133	-1.328554
Zn8	Zn	0.005754	-0.520048	-1.192243
Zn9	Zn	-0.124321	-0.290655	-1.137506
O10	O	-0.314774	-0.490994	-1.181590
C11	C	-0.109456	-0.342872	-0.985323
C12	C	-0.126572	-0.304876	-0.876135
N13	N	0.094529	-0.676605	-1.229607
C14	C	0.323077	-0.406200	-1.167326
C15	C	0.558357	-0.404493	-1.162423
C16	C	-0.460922	-0.947064	-0.995796
C17	C	-0.398727	-1.056676	-1.021986
C18	C	-0.089545	-1.101933	-1.152151
C19	C	-0.151708	-0.992321	-1.125969
C20	C	-0.337400	-0.914894	-1.047792
C21	C	-0.028186	-0.960152	-1.177964
C22	C	-0.090352	-0.850551	-1.151788
C23	C	-0.276040	-0.773119	-1.073615
C24	C	-0.399566	-0.805293	-1.021615
C25	C	0.157496	-1.037582	-1.256146
C26	C	0.281017	-1.005412	-1.308142
C27	C	0.218861	-0.895808	-1.281961
C28	C	0.033173	-0.818376	-1.203788
C29	C	0.342387	-0.863633	-1.333961
C30	C	0.280221	-0.754032	-1.307785
C31	C	-0.028993	-0.708775	-1.177612
C32	C	-0.009112	-0.467829	-1.344425
C33	C	0.008001	-0.505817	-1.453611
C34	C	0.086021	-0.654315	-0.630138
C35	C	0.069868	-0.618564	-0.527526
C36	C	-0.037750	-0.428777	-0.482287
C37	C	-0.021617	-0.464513	-0.584896
C38	C	0.040272	-0.577283	-0.658815
C39	C	-0.067365	-0.387480	-0.613573
C40	C	-0.051222	-0.423213	-0.716175
C41	C	0.010670	-0.535978	-0.790099
C42	C	0.056416	-0.613016	-0.761417
C43	C	-0.129239	-0.274711	-0.539653
C44	C	-0.174988	-0.197678	-0.568330
C45	C	-0.158860	-0.233410	-0.670932
C46	C	-0.096967	-0.346176	-0.744857
C47	C	-0.204605	-0.156373	-0.699615
C48	C	-0.188461	-0.192106	-0.802216
C49	C	-0.080824	-0.381909	-0.847459
N50	N	-0.213078	-0.134100	-1.100150
H51	H	-0.180188	-0.645727	-1.113945
H52	H	0.380805	-0.727842	-1.350126
H53	H	-0.326659	-0.683876	-1.052307
H54	H	-0.254973	-0.064556	-0.639417
F55	F	-0.237148	-0.110120	-0.832739
H56	H	-0.499332	-1.082859	-0.979639
F57	F	-0.658542	-0.864653	-0.912580
H58	H	-0.550762	-0.742245	-0.957948
H59	H	0.061643	-1.164986	-1.215807
F60	F	0.027868	-0.574010	-0.899299
F61	F	0.539991	-0.946049	-1.417170
F62	F	0.223640	-1.154231	-1.284006
F63	F	0.478635	-1.087824	-1.391345
H64	H	-0.030460	-0.473737	-0.907647
H65	H	0.106780	-0.704844	-0.821605
H66	H	0.107078	-0.681301	-0.504183
F67	F	0.151866	-0.774338	-0.708814
H68	H	-0.088130	-0.336959	-0.422089
F69	F	-0.146365	-0.236683	-0.430457
H70	H	-0.225368	-0.105860	-0.508133
