data_functionalizedCrystal
_audit_creation_method	'MofGen! by Chris Wilmer'
_symmetry_space_group_name_H-M	'P1'
_symmetry_Int_Tables_number	1
_symmetry_cell_setting	triclinic
loop_
_symmetry_equiv_pos_as_xyz
  x,y,z
_cell_length_a	12.827892
_cell_length_b	12.827893
_cell_length_c	12.827885
_cell_angle_alpha	90.016318
_cell_angle_beta	90.029786
_cell_angle_gamma	90.018175
loop_
_atom_site_label
_atom_site_type_symbol
_atom_site_fract_x
_atom_site_fract_y
_atom_site_fract_z
Zn1	Zn	-0.415905	1.597670	0.590766
Zn2	Zn	-0.590682	1.597564	0.416027
Zn3	Zn	-0.415964	1.422911	0.416049
Zn4	Zn	-0.590613	1.422896	0.590736
O5	O	-0.503291	1.510260	0.503394
O6	O	-0.439094	1.743892	0.567590
O7	O	-0.567559	1.574357	0.269793
O8	O	-0.269720	1.446144	0.439248
O9	O	-0.567502	1.743814	0.439210
O10	O	-0.269677	1.574538	0.567612
O11	O	-0.439195	1.446041	0.269810
O12	O	-0.439128	1.276673	0.439218
O13	O	-0.567384	1.446118	0.736976
O14	O	-0.567441	1.276662	0.567560
O15	O	-0.439026	1.574524	0.736998
O16	O	-0.736909	1.574343	0.439180
O17	O	-0.736858	1.446016	0.567538
C18	C	-0.503284	1.238750	0.503388
C19	C	-0.503307	1.122597	0.503411
C20	C	-0.774801	1.510195	0.503376
C21	C	-0.890954	1.510262	0.503403
C22	C	-0.942729	1.573838	0.439958
C23	C	-1.062780	1.573910	0.439984
C24	C	-0.503191	1.510331	0.775965
C25	C	-0.503148	1.510362	0.892118
C26	C	-0.230721	1.510354	0.503436
C27	C	-0.114568	1.510394	0.503453
C28	C	-0.503299	1.782830	0.503401
C29	C	-0.503302	1.898983	0.503404
C30	C	-0.439770	1.950807	0.566925
C31	C	-0.439771	2.070857	0.566929
C32	C	-0.503316	1.510249	0.231884
C33	C	-0.503064	1.510422	0.115732
C34	C	-0.439620	1.573907	0.943914
C35	C	-0.439575	1.573940	1.063964
H36	H	-0.898182	1.628220	0.385624
O37	O	-0.568349	2.069561	0.438577
C38	C	-0.746099	2.035841	0.387898
C39	C	-0.672556	2.095997	0.461369
H40	H	-0.830367	2.057176	0.406314
H41	H	-0.727887	2.057246	0.303601
H42	H	-0.734482	1.948498	0.399436
H43	H	-0.684133	2.183354	0.449924
H44	H	-0.690787	2.074505	0.545639
O45	O	-0.374796	1.638995	1.117050
C46	C	-0.324044	1.816745	1.150613
C47	C	-0.397489	1.743189	1.090445
H48	H	-0.342350	1.900999	1.129110
H49	H	-0.335573	1.805297	1.237979
H50	H	-0.239775	1.798379	1.129240
H51	H	-0.481786	1.761508	1.111731
H52	H	-0.385869	1.754650	1.003095
O53	O	-0.568147	1.951957	0.438381
C54	C	-0.618872	1.985546	0.260645
C55	C	-0.545383	1.925475	0.334167
H56	H	-0.600478	1.964174	0.176372
H57	H	-0.703164	1.964101	0.278878
H58	H	-0.607331	2.072902	0.272263
H59	H	-0.556831	1.838105	0.322590
H60	H	-0.461117	1.947007	0.315916
O61	O	-0.374724	1.638642	0.890680
C62	C	-0.233757	1.652608	0.767385
C63	C	-0.307202	1.579175	0.827585
H64	H	-0.179133	1.604557	0.716375
H65	H	-0.281751	1.707153	0.716208
H66	H	-0.185967	1.700485	0.825071
H67	H	-0.355008	1.531230	0.769974
H68	H	-0.259149	1.524699	0.878778
O69	O	-0.374988	1.897763	0.631954
C70	C	-0.324188	1.864271	0.809687
C71	C	-0.397634	1.924386	0.736158
H72	H	-0.342456	1.885789	0.893950
H73	H	-0.335755	1.776897	0.798215
H74	H	-0.239917	1.885676	0.791315
H75	H	-0.481933	1.903067	0.754484
H76	H	-0.385976	2.011745	0.747644
O77	O	-0.568007	1.445659	1.062490
C78	C	-0.709072	1.431644	0.939157
C79	C	-0.635574	1.505101	0.999382
H80	H	-0.763733	1.479673	0.888137
H81	H	-0.661124	1.377070	0.887989
H82	H	-0.756821	1.383799	0.996828
H83	H	-0.587810	1.553013	0.941786
H84	H	-0.683583	1.559606	1.050566
O85	O	-1.116050	1.638845	0.375310
C86	C	-1.284277	1.698092	0.316336
C87	C	-1.224076	1.624494	0.389631
H88	H	-1.371627	1.686499	0.327873
H89	H	-1.262844	1.782360	0.334779
H90	H	-1.262917	1.679850	0.232028
H91	H	-1.245404	1.642642	0.473963
H92	H	-1.245515	1.540248	0.371098
O93	O	-1.061417	1.445604	0.568372
C94	C	-0.937916	1.431507	0.709266
C95	C	-0.998073	1.504999	0.635828
H96	H	-0.886672	1.479497	0.763808
H97	H	-0.995538	1.383715	0.757135
H98	H	-0.886948	1.376886	0.661163
H99	H	-1.049043	1.559683	0.683851
H100	H	-0.940395	1.552718	0.587955
O101	O	-0.943977	1.445243	0.568180
C102	C	-0.977753	1.267506	0.618696
C103	C	-0.917626	1.341024	0.545284
H104	H	-0.956487	1.183228	0.600195
H105	H	-0.956253	1.285692	0.703006
H106	H	-1.065101	1.279177	0.607186
H107	H	-0.830265	1.329393	0.556701
H108	H	-0.939212	1.322819	0.461000
O109	O	-0.374977	2.124177	0.631778
C110	C	-0.315825	2.292448	0.690835
C111	C	-0.389277	2.232192	0.617356
H112	H	-0.327345	2.379789	0.679184
H113	H	-0.334128	2.271144	0.775138
H114	H	-0.231559	2.271009	0.672529
H115	H	-0.473567	2.253598	0.635568
H116	H	-0.370883	2.253501	0.533075
O117	O	-0.567886	1.445336	0.945190
C118	C	-0.618613	1.267605	0.978738
C119	C	-0.545214	1.341128	0.918590
H120	H	-0.600324	1.183339	0.957238
H121	H	-0.607016	1.279102	1.066106
H122	H	-0.702898	1.285959	0.957342
H123	H	-0.460901	1.322819	0.939899
H124	H	-0.556901	1.329618	0.831236
