data_functionalizedCrystal
_audit_creation_method	'MofGen! by Chris Wilmer'
_symmetry_space_group_name_H-M	'P1'
_symmetry_Int_Tables_number	1
_symmetry_cell_setting	triclinic
loop_
_symmetry_equiv_pos_as_xyz
  x,y,z
_cell_length_a	14.044220
_cell_length_b	8.559649
_cell_length_c	7.681187
_cell_angle_alpha	94.922842
_cell_angle_beta	96.251398
_cell_angle_gamma	98.516229
loop_
_atom_site_label
_atom_site_type_symbol
_atom_site_fract_x
_atom_site_fract_y
_atom_site_fract_z
O1	O	1.239897	-0.367581	0.146235
O2	O	0.964932	-0.353819	0.146280
O3	O	1.126639	-0.131552	0.146251
O4	O	1.078190	-0.589849	0.146263
O5	O	1.106711	-0.158948	-0.146615
O6	O	0.945004	-0.381216	-0.146587
O7	O	1.219968	-0.394978	-0.146632
Zn8	Zn	1.079322	-0.392447	-0.193108
Zn9	Zn	1.105579	-0.356350	0.192756
O10	O	1.058262	-0.617246	-0.146604
C11	C	0.920093	-0.361495	-0.000148
C12	C	0.816176	-0.343529	-0.000131
N13	N	1.061409	-0.417082	-0.456451
C14	C	1.120347	-0.086243	-0.000179
C15	C	1.131276	0.089580	-0.000171
C16	C	0.625903	-0.310691	-0.000166
C17	C	0.558994	-0.438098	-0.000171
C18	C	0.453120	-0.419826	-0.000190
C19	C	0.731787	-0.328960	-0.000146
C20	C	1.264809	-0.387302	-0.000201
C21	C	1.368726	-0.405267	-0.000206
C22	C	1.064554	-0.662554	-0.000169
C23	C	1.053625	-0.838376	-0.000166
N24	N	1.123500	-0.331704	0.456099
H25	H	0.603671	-0.187902	-0.000179
C26	C	1.296497	-0.256572	-0.486584
C27	C	1.209000	-0.214048	-0.442270
H28	H	1.349267	-0.183925	-0.423822
H29	H	1.301073	-0.360761	-0.456465
H30	H	1.298493	-0.253841	-0.609521
H31	H	1.207000	-0.216790	-0.319334
H32	H	1.204422	-0.109831	-0.472377
C33	C	0.912698	0.113203	0.150416
C34	C	0.952587	0.063325	-0.000139
H35	H	0.850318	0.052514	0.150424
H36	H	0.953668	0.098493	0.252521
H37	H	0.907042	0.222426	0.150390
H38	H	0.958250	-0.045896	-0.000106
H39	H	0.911607	0.078021	-0.102270
C40	C	1.223957	0.348882	-0.000196
C41	C	1.232319	0.187892	-0.000187
H42	H	1.286337	0.409573	-0.000193
H43	H	1.182995	0.363573	-0.102319
H44	H	1.196881	0.382685	0.101940
H45	H	1.259389	0.154086	-0.102331
H46	H	1.273296	0.173193	0.101946
H47	H	0.998052	-0.504210	-0.531677
H48	H	0.581227	-0.560897	-0.000159
