data_functionalizedCrystal
_audit_creation_method	'MofGen! by Chris Wilmer'
_symmetry_space_group_name_H-M	'P1'
_symmetry_Int_Tables_number	1
_symmetry_cell_setting	triclinic
loop_
_symmetry_equiv_pos_as_xyz
  x,y,z
_cell_length_a	19.188930
_cell_length_b	12.811438
_cell_length_c	11.892095
_cell_angle_alpha	80.666371
_cell_angle_beta	93.870839
_cell_angle_gamma	83.595539
loop_
_atom_site_label
_atom_site_type_symbol
_atom_site_fract_x
_atom_site_fract_y
_atom_site_fract_z
O1	O	0.082768	1.409324	-0.238481
O2	O	0.582768	1.909324	0.261519
O3	O	0.094485	1.101432	-0.206924
O4	O	0.594485	1.601432	0.293076
O5	O	-0.013027	1.264261	-0.223591
O6	O	0.486973	1.764261	0.276409
O7	O	0.190281	1.246494	-0.221814
O8	O	0.690281	1.746494	0.278186
O9	O	-0.004077	1.250685	-0.034194
O10	O	0.495923	1.750685	0.465806
O11	O	0.103436	1.087856	-0.017527
O12	O	0.603436	1.587856	0.482473
O13	O	0.091719	1.395747	-0.049084
O14	O	0.591719	1.895747	0.450916
Zn15	Zn	0.098998	1.239646	-0.003235
Zn16	Zn	0.598998	1.739646	0.496765
Zn17	Zn	0.087206	1.257533	-0.252773
Zn18	Zn	0.587206	1.757533	0.247227
O19	O	0.199231	1.232918	-0.032417
O20	O	0.699231	1.732918	0.467583
C21	C	0.098578	1.055253	-0.108188
C22	C	0.598578	1.555253	0.391812
C23	C	0.097431	0.937881	-0.096157
C24	C	0.597431	1.437881	0.403843
C25	C	0.100693	0.765051	0.024034
C26	C	0.600693	1.265051	0.524034
C27	C	0.101771	0.875332	0.012735
C28	C	0.601771	1.375332	0.512735
C29	C	0.092014	0.890142	-0.193757
C30	C	0.592014	1.390142	0.306243
C31	C	0.090935	0.779861	-0.182458
C32	C	0.590935	1.279861	0.317542
C33	C	0.095274	0.717320	-0.073559
C34	C	0.595274	1.217320	0.426441
C35	C	0.094190	0.607038	-0.062261
C36	C	0.594190	1.107038	0.437739
C37	C	0.084437	0.621849	-0.268752
C38	C	0.584437	1.121849	0.231248
C39	C	0.085516	0.732130	-0.280051
C40	C	0.585516	1.232130	0.219949
C41	C	-0.034563	1.256898	-0.128830
C42	C	0.465437	1.756898	0.371170
C43	C	-0.112067	1.255169	-0.128643
C44	C	0.387933	1.755169	0.371357
C45	C	-0.156985	1.350713	-0.138431
C46	C	0.343015	1.850713	0.361569
C47	C	-0.229810	1.349091	-0.138282
C48	C	0.270190	1.849091	0.361718
C49	C	-0.257712	1.251919	-0.128324
C50	C	0.242288	1.751919	0.371676
C51	C	-0.212784	1.156364	-0.118542
C52	C	0.287216	1.656364	0.381458
C53	C	-0.139962	1.157989	-0.118701
C54	C	0.360038	1.657989	0.381299
N55	N	-0.362675	1.173022	-0.056255
N56	N	0.137325	1.673022	0.443745
N57	N	-0.431854	1.171485	-0.056102
N58	N	0.068146	1.671485	0.443898
C59	C	-0.477122	1.247017	-0.127844
C60	C	0.022878	1.747017	0.372156
N61	N	-0.450599	1.324160	-0.199733
N62	N	0.049401	1.824160	0.300267
N63	N	-0.381413	1.325700	-0.199882
N64	N	0.118587	1.825700	0.300118
C65	C	-0.336675	1.250146	-0.128150
C66	C	0.163325	1.750146	0.371850
C67	C	-0.601006	1.340809	-0.137473
C68	C	-0.101006	1.840809	0.362527
C69	C	-0.673832	1.339184	-0.137332
C70	C	-0.173832	1.839184	0.362668
C71	C	-0.656804	1.146452	-0.117579
C72	C	-0.156804	1.646452	0.382421
C73	C	-0.583980	1.148081	-0.117732
C74	C	-0.083980	1.648081	0.382268
C75	C	-0.556086	1.245262	-0.127674
C76	C	-0.056086	1.745262	0.372326
C77	C	0.220767	1.240282	-0.127180
C78	C	0.720767	1.740282	0.372820
C79	C	0.298271	1.242011	-0.127375
C80	C	0.798271	1.742011	0.372625
N81	N	0.107046	1.227446	0.167068
N82	N	0.607046	1.727446	0.667068
C83	C	0.087626	1.441927	-0.147823
C84	C	0.587626	1.941927	0.352177
C85	C	0.088773	1.559299	-0.159861
C86	C	0.588773	2.059299	0.340139
N87	N	0.079153	1.269742	-0.423077
N88	N	0.579153	1.769742	0.076923
C89	C	0.023113	1.354635	0.390697
C90	C	0.523113	1.854635	0.890697
C91	C	0.028743	1.346115	0.509911
C92	C	0.528743	1.846115	1.009911
C93	C	0.123933	1.201882	0.524713
C94	C	0.623933	1.701882	1.024713
C95	C	0.118303	1.210402	0.405499
C96	C	0.618303	1.710402	0.905499
C97	C	0.067892	1.286782	0.338495
C98	C	0.567892	1.786782	0.838495
C99	C	0.062265	1.295306	0.219278
C100	C	0.562265	1.795306	0.719278
C101	C	0.157451	1.151069	0.234083
C102	C	0.657451	1.651069	0.734083
C103	C	0.163082	1.142549	0.353297
C104	C	0.663082	1.642549	0.853297
H105	H	0.106186	0.914190	0.092206
H106	H	0.606186	1.414190	0.592206
H107	H	-0.134279	1.429845	-0.146530
H108	H	0.365721	1.929845	0.353470
H109	H	0.204124	1.080358	0.407865
H110	H	0.704124	1.580358	0.907865
H111	H	0.088488	0.941081	-0.282417
H112	H	0.588488	1.441081	0.217583
Br113	Br	-0.250650	1.024487	-0.105040
Br114	Br	0.249350	1.524487	0.394960
H115	H	-0.103388	1.080183	-0.110731
H116	H	0.396612	1.580183	0.389269
H117	H	-0.266390	1.426897	-0.146257
H118	H	0.233610	1.926897	0.353743
Br119	Br	-0.032034	1.438200	0.580756
Br120	Br	0.467966	1.938200	1.080756
H121	H	-0.547406	1.070279	-0.109756
H122	H	-0.047406	1.570279	0.390244
Br123	Br	0.218231	1.058988	0.163226
Br124	Br	0.718231	1.558988	0.663226
Br125	Br	-0.734796	1.468863	-0.150628
Br126	Br	-0.234796	1.968863	0.349372
Br127	Br	-0.694664	1.014574	-0.104075
Br128	Br	-0.194664	1.514574	0.395925
H129	H	0.080027	0.582974	-0.348219
H130	H	0.580027	1.082974	0.151781
Br131	Br	0.100072	0.522162	0.085528
Br132	Br	0.600072	1.022162	0.585528
Br133	Br	0.106561	0.680173	0.171820
Br134	Br	0.606561	1.180173	0.671820
Br135	Br	-0.006145	1.398968	0.128345
Br136	Br	0.493855	1.898968	0.628345
H137	H	-0.017929	1.416834	0.336141
H138	H	0.482071	1.916834	0.836141
Br139	Br	0.192335	1.098214	0.615658
Br140	Br	0.692335	1.598214	1.115658
H141	H	0.081986	0.783065	-0.368713
H142	H	0.581986	1.283065	0.131287
Br143	Br	-0.563144	1.472692	-0.150954
Br144	Br	-0.063144	1.972692	0.349046
