data_functionalizedCrystal
_audit_creation_method	'MofGen! by Chris Wilmer'
_symmetry_space_group_name_H-M	'P1'
_symmetry_Int_Tables_number	1
_symmetry_cell_setting	triclinic
loop_
_symmetry_equiv_pos_as_xyz
  x,y,z
_cell_length_a	25.639242
_cell_length_b	29.839131
_cell_length_c	25.639234
_cell_angle_alpha	89.970402
_cell_angle_beta	89.980236
_cell_angle_gamma	90.030754
loop_
_atom_site_label
_atom_site_type_symbol
_atom_site_fract_x
_atom_site_fract_y
_atom_site_fract_z
Zn1	Zn	0.799225	-0.178951	-0.295711
Zn2	Zn	0.799158	-0.254069	-0.208263
Zn3	Zn	0.711805	-0.178948	-0.208275
Zn4	Zn	0.711752	-0.254049	-0.295653
O5	O	0.755485	-0.216504	-0.251976
O6	O	0.872381	-0.188925	-0.284130
O7	O	0.787564	-0.244111	-0.135099
O8	O	0.723452	-0.116081	-0.219904
O9	O	0.872332	-0.244114	-0.219882
O10	O	0.787679	-0.116084	-0.284143
O11	O	0.723387	-0.188919	-0.135109
O12	O	0.638633	-0.188900	-0.219847
O13	O	0.723361	-0.244080	-0.368826
O14	O	0.638594	-0.244077	-0.284043
O15	O	0.787628	-0.188906	-0.368869
O16	O	0.787512	-0.316933	-0.219825
O17	O	0.723296	-0.316919	-0.284030
C18	C	0.619642	-0.216486	-0.251940
C19	C	0.561528	-0.216490	-0.251937
C20	C	0.201154	-0.245283	-0.285371
C21	C	0.146550	-0.245285	-0.285379
O22	O	0.118303	-0.269744	-0.313775
N23	N	0.119246	-0.216516	-0.252010
C24	C	0.146549	-0.187740	-0.218634
O25	O	0.118312	-0.163270	-0.190252
C26	C	0.201153	-0.187735	-0.218629
C27	C	0.228454	-0.216509	-0.251996
C28	C	0.228455	-0.274054	-0.318736
C29	C	0.283055	-0.274052	-0.318727
C30	C	0.310355	-0.245278	-0.285352
C31	C	0.283054	-0.216507	-0.251987
C32	C	0.228455	-0.158957	-0.185256
C33	C	0.283062	-0.158954	-0.185254
C34	C	0.310363	-0.187728	-0.218621
C35	C	0.364954	-0.187731	-0.218604
N36	N	0.392258	-0.216500	-0.251973
C37	C	0.364958	-0.245273	-0.285347
C38	C	0.031879	-0.187751	-0.218648
C39	C	-0.022724	-0.187758	-0.218650
C40	C	-0.022720	-0.245303	-0.285396
C41	C	0.031884	-0.245298	-0.285391
C42	C	0.059182	-0.216520	-0.252017
C43	C	0.479623	-0.245267	-0.285325
C44	C	0.534229	-0.245263	-0.285312
C45	C	0.534220	-0.187717	-0.218568
C46	C	0.479619	-0.187722	-0.218580
C47	C	0.452322	-0.216498	-0.251962
O48	O	0.393236	-0.163283	-0.190224
O49	O	0.393203	-0.269735	-0.313729
C50	C	0.755405	-0.333227	-0.251931
C51	C	0.755419	-0.383161	-0.251930
C52	C	0.788921	-0.692771	-0.285472
C53	C	0.788977	-0.880444	-0.285504
O54	O	0.817384	-0.904680	-0.313990
N55	N	0.755574	-0.903946	-0.252034
C56	C	0.722151	-0.880527	-0.218556
O57	O	0.693737	-0.904824	-0.190092
C58	C	0.722092	-0.692855	-0.218527
C59	C	0.755502	-0.669355	-0.251996
C60	C	0.822327	-0.669271	-0.318939
C61	C	0.822315	-0.622356	-0.318928
C62	C	0.788896	-0.598940	-0.285452
C63	C	0.755489	-0.622440	-0.251986
C64	C	0.688667	-0.669437	-0.185052
C65	C	0.688654	-0.622516	-0.185049
C66	C	0.722064	-0.599016	-0.218518
C67	C	0.722058	-0.552109	-0.218499
N68	N	0.755461	-0.528607	-0.251969
C69	C	0.788880	-0.552022	-0.285446
C70	C	0.722185	-0.979058	-0.218572
C71	C	0.722200	-1.025976	-0.218578
C72	C	0.789026	-1.025889	-0.285527
C73	C	0.789013	-0.978970	-0.285518
C74	C	0.755589	-0.955556	-0.252042
C75	C	0.788852	-0.453496	-0.285421
C76	C	0.788838	-0.406577	-0.285407
C77	C	0.722010	-0.406667	-0.218460
C78	C	0.722026	-0.453583	-0.218472
C79	C	0.755449	-0.476996	-0.251957
O80	O	0.693662	-0.527844	-0.190032
O81	O	0.817282	-0.527718	-0.313913
C82	C	0.788933	-0.739686	-0.285483
C83	C	0.755527	-0.763186	-0.252016
C84	C	0.722108	-0.739771	-0.218540
C85	C	0.755542	-0.810104	-0.252023
C86	C	0.788961	-0.833520	-0.285499
C87	C	0.822365	-0.810017	-0.318969
C88	C	0.822352	-0.763102	-0.318959
C89	C	0.688704	-0.763273	-0.185070
C90	C	0.688720	-0.810188	-0.185082
C91	C	0.722139	-0.833604	-0.218559
C92	C	0.891858	-0.216522	-0.252011
C93	C	0.949972	-0.216530	-0.252027
C94	C	0.755496	-0.216491	-0.388349
C95	C	0.755501	-0.216486	-0.446463
C96	C	0.755579	-0.099326	-0.252031
C97	C	0.755619	-0.049391	-0.252055
C98	C	0.722072	-0.245159	-0.697628
C99	C	0.722063	-0.245169	-0.643024
O100	O	0.693591	-0.269592	-0.614763
N101	N	0.755521	-0.216450	-0.615737
C102	C	0.788986	-0.187715	-0.643057
O103	O	0.817443	-0.163288	-0.614833
C104	C	0.788992	-0.187703	-0.697660
C105	C	0.755536	-0.216428	-0.724944
C106	C	0.688619	-0.273880	-0.724912
C107	C	0.688629	-0.273870	-0.779513
C108	C	0.722092	-0.245139	-0.806829
C109	C	0.755546	-0.216418	-0.779545
C110	C	0.822454	-0.158967	-0.724979
C111	C	0.822457	-0.158957	-0.779586
C112	C	0.789001	-0.187682	-0.806870
C113	C	0.789020	-0.187677	-0.861462
N114	N	0.755562	-0.216396	-0.888749
C115	C	0.722098	-0.245127	-0.861433
C116	C	0.788970	-0.187742	-0.528386
C117	C	0.788967	-0.187756	-0.473784
C118	C	0.722043	-0.245209	-0.473754
C119	C	0.722049	-0.245197	-0.528358
C120	C	0.755512	-0.216461	-0.555673
C121	C	0.722122	-0.245105	-0.976098
C122	C	0.722137	-0.245094	-1.030703
C123	C	0.789058	-0.187640	-1.030728
C124	C	0.789046	-0.187652	-0.976127
C125	C	0.755574	-0.216386	-0.948813
O126	O	0.817476	-0.163265	-0.889757
O127	O	0.693641	-0.269546	-0.889663
C128	C	0.755504	-0.216484	-0.116133
C129	C	0.755601	-0.216363	-0.058019
H130	H	0.305286	-0.135516	-0.158079
O131	O	0.058314	-0.159785	-0.186171
C132	C	0.022501	-0.134390	-0.156732
H133	H	-0.016431	-0.152795	-0.154891
H134	H	0.016720	-0.100293	-0.175954
C135	C	0.091599	-0.105242	-0.103356
C136	C	0.043783	-0.127849	-0.101091
H137	H	0.104727	-0.101205	-0.069034
H138	H	0.115727	-0.122350	-0.123190
H139	H	0.086774	-0.076830	-0.119376
H140	H	0.048609	-0.156262	-0.085076
H141	H	0.019656	-0.110746	-0.081252
H142	H	-0.044957	-0.268731	-0.312573
H143	H	0.816238	-1.044962	-0.312785
H144	H	0.054108	-0.268728	-0.312562
H145	H	0.694893	-0.268487	-1.052915
H146	H	0.694806	-0.268587	-0.550569
O147	O	0.453177	-0.159732	-0.186147
C148	C	0.488985	-0.134346	-0.156676
H149	H	0.527920	-0.132818	-0.178088
H150	H	0.494759	-0.150749	-0.116929
C151	C	0.419880	-0.088399	-0.122956
C152	C	0.467701	-0.086519	-0.149256
H153	H	0.406751	-0.058897	-0.118377
H154	H	0.395756	-0.105502	-0.142809
H155	H	0.424699	-0.102069	-0.089836
H156	H	0.462880	-0.072854	-0.182378
H157	H	0.491824	-0.069412	-0.129408
O158	O	0.689565	-0.383847	-0.185992
C159	C	0.696729	-0.337398	-0.193157
H160	H	0.713826	-0.330961	-0.233523
H161	H	0.724588	-0.324082	-0.162171
C162	C	0.622827	-0.321251	-0.138736
C163	C	0.643822	-0.313344	-0.188316
H164	H	0.590192	-0.306413	-0.135747
H165	H	0.618001	-0.352545	-0.133907
H166	H	0.646048	-0.310154	-0.112920
H167	H	0.620604	-0.324447	-0.214131
H168	H	0.648643	-0.282052	-0.193149
O169	O	0.656314	-0.740481	-0.152522
C170	C	0.686099	-0.713352	-0.118768
H171	H	0.725705	-0.706282	-0.137252
H172	H	0.691882	-0.731457	-0.080035
C173	C	0.608681	-0.677496	-0.086551
C174	C	0.657323	-0.668809	-0.109255
H175	H	0.590929	-0.650021	-0.080680
H176	H	0.588613	-0.695774	-0.109289
H177	H	0.613506	-0.692585	-0.054276
H178	H	0.652497	-0.653726	-0.141532
H179	H	0.677389	-0.650528	-0.086521
O180	O	0.560805	-0.273152	-0.317755
C181	C	0.592411	-0.247614	-0.351587
H182	H	0.600604	-0.213546	-0.333222
H183	H	0.571387	-0.242725	-0.390346
C184	C	0.634203	-0.314187	-0.383550
C185	C	0.644271	-0.272345	-0.360992
H186	H	0.666192	-0.329442	-0.389354
H187	H	0.612909	-0.331392	-0.360758
H188	H	0.616682	-0.310106	-0.415847
H189	H	0.661785	-0.276426	-0.328693
H190	H	0.665569	-0.255141	-0.383779
H191	H	-0.044947	-0.164332	-0.191474
O192	O	0.202025	-0.130960	-0.152828
C193	C	0.237840	-0.105573	-0.123369
H194	H	0.276772	-0.104050	-0.144787
H195	H	0.243620	-0.121970	-0.083619
C196	C	0.168746	-0.059616	-0.089645
C197	C	0.216562	-0.057743	-0.115954
H198	H	0.155620	-0.030113	-0.085068
H199	H	0.144616	-0.076721	-0.109490
H200	H	0.173569	-0.073282	-0.056523
H201	H	0.211737	-0.044082	-0.149077
H202	H	0.240691	-0.040635	-0.096113
H203	H	0.556457	-0.164291	-0.191394
O204	O	0.656130	-0.599751	-0.152604
C205	C	0.622341	-0.572608	-0.182329
H206	H	0.619088	-0.586724	-0.223508
H207	H	0.638494	-0.537038	-0.184138
C208	C	0.572000	-0.554604	-0.106153
C209	C	0.568001	-0.571943	-0.156729
H210	H	0.538482	-0.554191	-0.090361
H211	H	0.594766	-0.572889	-0.086126
H212	H	0.585464	-0.524963	-0.107668
H213	H	0.554545	-0.601585	-0.155213
H214	H	0.545232	-0.553663	-0.176756
H215	H	0.816046	-0.387445	-0.312661
H216	H	0.816216	-0.164371	-0.451573
H217	H	0.816305	-0.164249	-1.052978
H218	H	0.849557	-0.743972	-0.346212
H219	H	0.849705	-0.135555	-0.801824
O220	O	0.689701	-1.048731	-0.186046
C221	C	0.660213	-1.017997	-0.156492
H222	H	0.658380	-0.984543	-0.177903
H223	H	0.679386	-1.013015	-0.116803
C224	C	0.606826	-1.077435	-0.122600
C225	C	0.604572	-1.036347	-0.148900
H226	H	0.572505	-1.088754	-0.117915
H227	H	0.626694	-1.098141	-0.142510
H228	H	0.622807	-1.073277	-0.089529
H229	H	0.588598	-1.040506	-0.181973
H230	H	0.584700	-1.015641	-0.128996
H231	H	0.816064	-0.472554	-0.312692
O232	O	0.854783	-0.599601	-0.351492
C233	C	0.884287	-0.630337	-0.381028
H234	H	0.862876	-0.663793	-0.382815
H235	H	0.924011	-0.635312	-0.361926
C236	C	0.918075	-0.570905	-0.434488
C237	C	0.891775	-0.611995	-0.436687
H238	H	0.922696	-0.559591	-0.468820
H239	H	0.898199	-0.550197	-0.414588
H240	H	0.951176	-0.575056	-0.418567
H241	H	0.858672	-0.607842	-0.452601
H242	H	0.911645	-0.632702	-0.456591
O243	O	0.821458	-0.159768	-0.554860
C244	C	0.810059	-0.114994	-0.541534
H245	H	0.789950	-0.114072	-0.501887
H246	H	0.783200	-0.099848	-0.572266
C247	C	0.885751	-0.088925	-0.587714
C248	C	0.861057	-0.087791	-0.539017
H249	H	0.917208	-0.072144	-0.586164
H250	H	0.893430	-0.119089	-0.596694
H251	H	0.863363	-0.076304	-0.613319
H252	H	0.883442	-0.100417	-0.513415
H253	H	0.853383	-0.057628	-0.530033
H254	H	0.457405	-0.268698	-0.312510
O255	O	0.854820	-0.692062	-0.351387
C256	C	0.888632	-0.719183	-0.321660
H257	H	0.870222	-0.726253	-0.282021
H258	H	0.927372	-0.701071	-0.315948
C259	C	0.920718	-0.755039	-0.399134
C260	C	0.898104	-0.763726	-0.350450
H261	H	0.926563	-0.782514	-0.416894
H262	H	0.897940	-0.736766	-0.419162
H263	H	0.952999	-0.739945	-0.394367
H264	H	0.865821	-0.778815	-0.355218
H265	H	0.920877	-0.782003	-0.330423
H266	H	0.305279	-0.297481	-0.345899
O267	O	0.201883	-0.302030	-0.351084
C268	C	0.170283	-0.331022	-0.321254
H269	H	0.162085	-0.315127	-0.281671
H270	H	0.191314	-0.364302	-0.315426
C271	C	0.128498	-0.358730	-0.398630
C272	C	0.118426	-0.339206	-0.350015
H273	H	0.096511	-0.363780	-0.416371
H274	H	0.149789	-0.339199	-0.418728
H275	H	0.146026	-0.386461	-0.393766
H276	H	0.100905	-0.311473	-0.354880
H277	H	0.097131	-0.358733	-0.329919
O278	O	0.656179	-0.692304	-0.152618
C279	C	0.622386	-0.719436	-0.182359
H280	H	0.640808	-0.726438	-0.221997
H281	H	0.583639	-0.701367	-0.188073
C282	C	0.590304	-0.755419	-0.104902
C283	C	0.612932	-0.764023	-0.153584
H284	H	0.584470	-0.782922	-0.087152
H285	H	0.613070	-0.737139	-0.084864
H286	H	0.558017	-0.740361	-0.109670
H287	H	0.645222	-0.779076	-0.148816
H288	H	0.590172	-0.782307	-0.173621
H289	H	0.816218	-0.959840	-0.312771
O290	O	0.854752	-0.832790	-0.351545
C291	C	0.824959	-0.859936	-0.385272
H292	H	0.783776	-0.845817	-0.388453
H293	H	0.823174	-0.895503	-0.369105
C294	C	0.901039	-0.877961	-0.435748
C295	C	0.850459	-0.860616	-0.439658
H296	H	0.916769	-0.878382	-0.469295
H297	H	0.921111	-0.859673	-0.413025
H298	H	0.899544	-0.907598	-0.422274
H299	H	0.851955	-0.830978	-0.453126
H300	H	0.830387	-0.878900	-0.462385
O301	O	0.656183	-0.301815	-0.698325
C302	C	0.685923	-0.330853	-0.666751
H303	H	0.725555	-0.315014	-0.658577
H304	H	0.691650	-0.364138	-0.687794
C305	C	0.608462	-0.358461	-0.624920
C306	C	0.657137	-0.339005	-0.614876
H307	H	0.590705	-0.363491	-0.592922
H308	H	0.588425	-0.338899	-0.646193
H309	H	0.613241	-0.386196	-0.642457
H310	H	0.652357	-0.311268	-0.597346
H311	H	0.677173	-0.358562	-0.593599
H312	H	0.694794	-0.268603	-0.451504
H313	H	0.694966	-0.959997	-0.191311
O314	O	0.656187	-0.832992	-0.152623
C315	C	0.604070	-0.821539	-0.163990
H316	H	0.601404	-0.808620	-0.205755
H317	H	0.590419	-0.794327	-0.135942
C318	C	0.572457	-0.879106	-0.106582
C319	C	0.569182	-0.863242	-0.157880
H320	H	0.550935	-0.904829	-0.102811
H321	H	0.607569	-0.886821	-0.098922
H322	H	0.561081	-0.856426	-0.083215
H323	H	0.580563	-0.885920	-0.181246
H324	H	0.534071	-0.855532	-0.165544
O325	O	0.821564	-0.159711	-0.949701
C326	C	0.851114	-0.134361	-0.985523
H327	H	0.829708	-0.132799	-1.024444
H328	H	0.890811	-0.150817	-0.991327
C329	C	0.884973	-0.088468	-0.916432
C330	C	0.858681	-0.086547	-0.964235
H331	H	0.889644	-0.058975	-0.903300
H332	H	0.865067	-0.105548	-0.892297
H333	H	0.918052	-0.102183	-0.921275
H334	H	0.825601	-0.072837	-0.959389
H335	H	0.878582	-0.069463	-0.988368
O336	O	0.689598	-0.273065	-0.949651
C337	C	0.660071	-0.298405	-0.985451
H338	H	0.681493	-0.299944	-1.024377
H339	H	0.620372	-0.281955	-0.991254
C340	C	0.626195	-0.344337	-0.916325
C341	C	0.652509	-0.346231	-0.964133
H342	H	0.621528	-0.373837	-0.903175
H343	H	0.646086	-0.327264	-0.892205
H344	H	0.593115	-0.330626	-0.921167
H345	H	0.685590	-0.359936	-0.959289
H346	H	0.632623	-0.363307	-0.988252
O347	O	0.656075	-0.301784	-0.805932
C348	C	0.626549	-0.327148	-0.770104
H349	H	0.624757	-0.308751	-0.731188
H350	H	0.645664	-0.361273	-0.764289
C351	C	0.573098	-0.356203	-0.839188
C352	C	0.570893	-0.333606	-0.791392
H353	H	0.538767	-0.360188	-0.852320
H354	H	0.592991	-0.339116	-0.863327
H355	H	0.589029	-0.384638	-0.834336
H356	H	0.554968	-0.305169	-0.796246
H357	H	0.550996	-0.350688	-0.767255
H358	H	0.694825	-0.472717	-0.191215
H359	H	0.849698	-0.135577	-0.702774
