data_functionalizedCrystal
_audit_creation_method	'MofGen! by Chris Wilmer'
_symmetry_space_group_name_H-M	'P1'
_symmetry_Int_Tables_number	1
_symmetry_cell_setting	triclinic
loop_
_symmetry_equiv_pos_as_xyz
  x,y,z
_cell_length_a	13.032831
_cell_length_b	21.295417
_cell_length_c	13.033454
_cell_angle_alpha	82.776573
_cell_angle_beta	89.091650
_cell_angle_gamma	82.833712
loop_
_atom_site_label
_atom_site_type_symbol
_atom_site_fract_x
_atom_site_fract_y
_atom_site_fract_z
Zn1	Zn	1.498454	-0.305622	-0.780811
Zn2	Zn	1.998454	0.194378	-0.280811
Zn3	Zn	1.520142	-0.425729	-0.608795
Zn4	Zn	2.020142	0.074271	-0.108795
Zn5	Zn	1.348293	-0.308977	-0.587041
Zn6	Zn	1.848293	0.191023	-0.087041
Zn7	Zn	1.326412	-0.399351	-0.758935
Zn8	Zn	1.826412	0.100649	-0.258935
O9	O	1.423325	-0.359920	-0.683895
O10	O	1.923325	0.140080	-0.183895
O11	O	1.645250	-0.331189	-0.776253
O12	O	2.145250	0.168811	-0.276253
O13	O	1.515580	-0.422686	-0.461982
O14	O	2.015580	0.077314	0.038018
O15	O	1.368293	-0.220445	-0.612796
O16	O	1.868293	0.279555	-0.112796
O17	O	1.661184	-0.419432	-0.649873
O18	O	2.161184	0.080568	-0.149873
O19	O	1.478615	-0.217980	-0.755158
O20	O	1.978615	0.282020	-0.255158
O21	O	1.389323	-0.336908	-0.445999
O22	O	1.889323	0.163092	0.054001
O23	O	1.201472	-0.311331	-0.591583
O24	O	1.701472	0.188669	-0.091583
O25	O	1.331000	-0.374474	-0.905764
O26	O	1.831000	0.125526	-0.405764
O27	O	1.185396	-0.377728	-0.717873
O28	O	1.685396	0.122272	-0.217873
O29	O	1.457398	-0.305612	-0.921837
O30	O	1.957398	0.194388	-0.421837
O31	O	1.494363	-0.510317	-0.628661
O32	O	1.994363	-0.010317	-0.128661
O33	O	1.352031	-0.490937	-0.738967
O34	O	1.852031	0.009063	-0.238967
C35	C	1.156117	-0.342032	-0.649994
C36	C	1.656117	0.157968	-0.149994
C37	C	1.041801	-0.334392	-0.635515
C38	C	1.541801	0.165608	-0.135515
C39	C	1.423201	-0.523467	-0.683827
C40	C	1.923201	-0.023467	-0.183827
C41	C	1.423237	-0.593437	-0.683844
C42	C	1.923237	-0.093437	-0.183844
C43	C	0.982921	-0.363907	-0.691452
C44	C	1.482921	0.136093	-0.191452
C45	C	0.864769	-0.356012	-0.676489
C46	C	1.364769	0.143988	-0.176489
C47	C	1.480639	-0.624956	-0.758014
C48	C	1.980639	-0.124956	-0.258014
C49	C	1.480672	-0.690699	-0.758044
C50	C	1.980672	-0.190699	-0.258044
C51	C	1.423317	-0.724922	-0.683887
C52	C	1.923317	-0.224922	-0.183887
C53	C	1.365903	-0.693395	-0.609710
C54	C	1.865903	-0.193395	-0.109710
C55	C	1.365864	-0.627652	-0.609689
C56	C	1.865864	-0.127652	-0.109689
N57	N	1.426973	-0.835434	-0.592892
N58	N	1.926973	-0.335434	-0.092892
N59	N	1.427016	-0.897887	-0.592917
N60	N	1.927016	-0.397887	-0.092917
C61	C	1.423431	-0.923001	-0.683948
C62	C	1.923431	-0.423001	-0.183948
N63	N	1.419821	-0.883304	-0.774960
N64	N	1.919821	-0.383304	-0.274960
N65	N	1.419783	-0.820846	-0.774935
N66	N	1.919783	-0.320846	-0.274935
C67	C	1.423353	-0.796209	-0.683902
C68	C	1.923353	-0.296209	-0.183902
C69	C	1.480871	-1.025806	-0.758157
C70	C	1.980871	-0.525806	-0.258157
C71	C	1.480896	-1.091549	-0.758188
C72	C	1.980896	-0.591549	-0.258188
C73	C	1.366135	-1.094245	-0.609846
C74	C	1.866135	-0.594245	-0.109846
C75	C	1.366103	-1.028501	-0.609823
C76	C	1.866103	-0.528501	-0.109823
C77	C	1.423476	-0.994286	-0.683978
C78	C	1.923476	-0.494286	-0.183978
C79	C	1.691577	-0.377879	-0.717930
C80	C	2.191577	0.122121	-0.217930
C81	C	1.805890	-0.385532	-0.732433
C82	C	2.305890	0.114468	-0.232433
C83	C	1.389339	-0.336726	-0.952162
C84	C	1.889339	0.163274	-0.452162
C85	C	1.374856	-0.326842	-1.066482
C86	C	1.874856	0.173158	-0.566482
C87	C	1.423476	-0.195734	-0.683990
C88	C	1.923476	0.304266	-0.183990
C89	C	1.423540	-0.125768	-0.684031
C90	C	1.923540	0.374232	-0.184031
C91	C	1.430868	-0.364877	-1.125357
C92	C	1.930868	0.135123	-0.625357
C93	C	1.415901	-0.354662	-1.243512
C94	C	1.915901	0.145338	-0.743512
C95	C	1.457239	-0.382982	-0.416680
C96	C	1.957239	0.117018	0.083320
C97	C	1.471921	-0.392702	-0.302386
C98	C	1.971921	0.107298	0.197614
H99	H	0.827711	-0.324893	-0.617521
H100	H	1.327711	0.175107	-0.117521
O101	O	1.509078	-0.418025	-1.076270
O102	O	2.009078	0.081975	-0.576270
H103	H	1.488817	-0.464484	-1.094569
H104	H	1.988817	0.035516	-0.594569
H105	H	1.004739	-0.303275	-0.576552
H106	H	1.504739	0.196725	-0.076552
H107	H	1.527584	-0.997946	-0.818542
H108	H	2.027584	-0.497946	-0.318542
O109	O	1.550141	-0.445852	-1.253311
O110	O	2.050141	0.054148	-0.753311
H111	H	1.529883	-0.492311	-1.271612
H112	H	2.029883	0.007689	-0.771612
H113	H	1.527353	-0.597100	-0.818397
H114	H	2.027353	-0.097100	-0.318397
H115	H	0.842945	-0.416644	-0.791411
H116	H	1.342945	0.083356	-0.291411
O117	O	1.032008	-0.405106	-0.769585
O118	O	1.532008	0.094894	-0.269585
H119	H	1.086776	-0.444326	-0.729624
H120	H	1.586776	0.055674	-0.229624
O121	O	1.542594	-0.724708	-0.838037
O122	O	2.042594	-0.224708	-0.338037
H123	H	1.582487	-0.689872	-0.889592
H124	H	2.082487	-0.189872	-0.389592
H125	H	1.319202	-0.721263	-0.549333
H126	H	1.819202	-0.221263	-0.049333
H127	H	1.315826	-0.286715	-1.103551
H128	H	1.815826	0.213285	-0.603551
H129	H	1.319120	-0.601989	-0.549289
H130	H	1.819120	-0.101989	-0.049289
O131	O	1.542804	-1.125549	-0.838194
O132	O	2.042804	-0.625549	-0.338194
H133	H	1.625757	-1.119821	-0.830848
H134	H	2.125757	-0.619821	-0.330848
O135	O	1.304276	-1.131147	-0.529853
O136	O	1.804276	-0.631147	-0.029853
H137	H	1.313952	-1.182159	-0.542322
H138	H	1.813952	-0.682159	-0.042322
H139	H	1.356866	-0.314532	-1.280577
H140	H	1.856866	0.185468	-0.780577
O141	O	1.304213	-0.994502	-0.529808
O142	O	1.804213	-0.494502	-0.029808
H143	H	1.264345	-1.029344	-0.478237
H144	H	1.764345	-0.529344	0.021763
