data_functionalizedCrystal
_audit_creation_method	'MofGen! by Chris Wilmer'
_symmetry_space_group_name_H-M	'P1'
_symmetry_Int_Tables_number	1
_symmetry_cell_setting	triclinic
loop_
_symmetry_equiv_pos_as_xyz
  x,y,z
_cell_length_a	6.817900
_cell_length_b	14.858572
_cell_length_c	11.102288
_cell_angle_alpha	93.467296
_cell_angle_beta	108.605689
_cell_angle_gamma	104.524003
loop_
_atom_site_label
_atom_site_type_symbol
_atom_site_fract_x
_atom_site_fract_y
_atom_site_fract_z
V1	V	-4.064547	-0.289960	-0.176639
O2	O	-4.024474	-0.284441	0.007665
O3	O	-4.041646	-0.287977	-0.349454
O4	O	-4.020838	-0.416422	-0.174283
O5	O	-4.045427	-0.155107	-0.168718
V6	V	-4.544264	-0.273831	-0.154551
O7	O	-4.334156	-0.325342	-0.225090
O8	O	-4.724852	-0.238449	-0.106100
O9	O	-4.343959	-0.275814	0.018263
O10	O	-4.701734	-0.279350	-0.338855
O11	O	-4.680781	-0.408684	-0.162472
O12	O	-4.364767	-0.147369	-0.156907
C13	C	-3.892698	-0.283403	-0.391571
C14	C	-3.955291	-0.282625	-0.532852
C15	C	-4.167954	-0.286899	-0.605712
C16	C	-4.226759	-0.286175	-0.738461
C17	C	-3.860216	-0.276898	-0.725477
C18	C	-3.801417	-0.277629	-0.592732
C19	C	-3.866154	-0.447246	-0.168122
C20	C	-3.911868	-0.550629	-0.167339
C21	C	-4.079186	-0.929197	-0.164478
C22	C	-4.032624	-0.823868	-0.165274
C23	C	-3.995529	-0.739916	-0.165910
C24	C	-3.948964	-0.634580	-0.166703
C25	C	-4.156249	-0.280385	0.060374
C26	C	-4.072895	-0.281170	0.201653
C27	C	-4.182793	-0.116540	-0.163073
C28	C	-4.116316	-0.013156	-0.163849
H29	H	-3.628238	-0.274152	-0.533407
H30	H	-4.293251	-0.290965	-0.556961
N31	N	-3.703070	-0.271776	-0.786667
N32	N	-3.659140	-0.204472	-0.845074
H33	H	-3.548152	-0.200851	-0.888290
N34	N	-4.443997	-0.290557	-0.812889
N35	N	-4.595999	-0.359603	-0.816620
H36	H	-4.749435	-0.362702	-0.869186
