data_functionalizedCrystal
_audit_creation_method	'MofGen! by Chris Wilmer'
_symmetry_space_group_name_H-M	'P1'
_symmetry_Int_Tables_number	1
_symmetry_cell_setting	triclinic
loop_
_symmetry_equiv_pos_as_xyz
  x,y,z
_cell_length_a	6.394989
_cell_length_b	19.288864
_cell_length_c	18.366186
_cell_angle_alpha	90.022894
_cell_angle_beta	90.003129
_cell_angle_gamma	84.816979
loop_
_atom_site_label
_atom_site_type_symbol
_atom_site_fract_x
_atom_site_fract_y
_atom_site_fract_z
O1	O	-0.260546	-0.923905	-0.060779
O2	O	-0.295693	-0.721988	-0.060729
O3	O	0.025972	-0.825812	-0.060755
O4	O	-0.582211	-0.820080	-0.060753
O5	O	0.025987	-0.825794	0.060344
O6	O	-0.295677	-0.721970	0.060370
O7	O	-0.260530	-0.923886	0.060320
Zn8	Zn	-0.278101	-0.822925	0.079572
Zn9	Zn	-0.278122	-0.822949	-0.079981
O10	O	-0.582195	-0.820062	0.060347
C11	C	-0.294554	-0.696092	-0.000173
C12	C	-0.291159	-0.618955	-0.000154
C13	C	-0.261669	-0.949783	-0.000238
C14	C	-0.265064	-1.026920	-0.000261
N15	N	-0.278086	-0.822914	0.188464
C16	C	0.103790	-0.824670	-0.000208
C17	C	0.339993	-0.821206	-0.000208
N18	N	-0.278121	-0.822966	-0.188872
C19	C	-0.479898	-0.576107	-0.000164
C20	C	-0.476708	-0.503629	-0.000173
C21	C	-0.284770	-0.474001	-0.000185
C22	C	-0.096007	-0.516859	-0.000170
C23	C	-0.099202	-0.589335	-0.000154
C24	C	-0.133890	-0.364268	-0.042636
C25	C	-0.130704	-0.291792	-0.042656
C26	C	-0.274908	-0.250459	-0.000229
C27	C	-0.422335	-0.281609	0.042209
C28	C	-0.425530	-0.354086	0.042225
C29	C	-0.281284	-0.395413	-0.000201
C30	C	-0.460201	-0.129022	-0.000247
C31	C	-0.457004	-0.056542	-0.000251
C32	C	-0.076297	-0.069774	-0.000255
C33	C	-0.079500	-0.142252	-0.000244
C34	C	-0.271458	-0.171871	-0.000244
C35	C	-0.135722	-0.868903	0.226552
C36	C	-0.135713	-0.868908	0.302780
C37	C	-0.278103	-0.822929	0.340916
C38	C	-0.420477	-0.776931	0.302818
C39	C	-0.420469	-0.776923	0.226592
C40	C	-0.468405	-0.815495	0.461679
C41	C	-0.468416	-0.815508	0.537904
C42	C	-0.278129	-0.822949	0.576024
C43	C	-0.087823	-0.830393	0.537910
C44	C	-0.087814	-0.830385	0.461683
C45	C	-0.278127	-0.822932	0.423571
C46	C	-0.135744	-0.868946	0.696767
C47	C	-0.135732	-0.868946	0.772997
C48	C	-0.420514	-0.776973	0.773034
C49	C	-0.420508	-0.776970	0.696806
C50	C	-0.278125	-0.822960	0.658677
H51	H	-0.630407	-0.468735	-0.000179
O52	O	0.111020	-0.484910	-0.000179
H53	H	0.121596	-0.452240	-0.049547
H54	H	0.079983	-0.045652	-0.000310
O55	O	-0.574105	-0.727381	0.814153
H56	H	-0.550205	-0.735114	0.873558
H57	H	-0.545564	-0.379446	0.076781
O58	O	-0.574087	-0.727345	0.343941
H59	H	-0.486454	-0.692827	0.378701
O60	O	-0.686927	-0.608056	-0.000143
H61	H	-0.817635	-0.566080	-0.000141
O62	O	0.017839	-0.918551	0.814078
H63	H	-0.006063	-0.910825	0.873490
O64	O	0.117441	-0.838414	0.579011
H65	H	0.085475	-0.837159	0.638419
O66	O	-0.574068	-0.727365	0.655723
H67	H	-0.550126	-0.735078	0.596311
H68	H	0.067140	-0.836444	0.430654
O69	O	-0.577879	-0.237042	0.087980
H70	H	-0.550878	-0.181412	0.080850
O71	O	0.104378	-0.635554	-0.000141
H72	H	0.112022	-0.668922	-0.049490
O73	O	-0.574016	-0.727311	0.185509
H74	H	-0.550075	-0.735027	0.126098
H75	H	-0.623375	-0.809451	0.568931
O76	O	-0.667232	-0.160974	-0.000230
H77	H	-0.757921	-0.143913	-0.049583
O78	O	-0.660581	-0.010322	-0.000256
H79	H	-0.752462	-0.021080	-0.049616
O80	O	0.124075	-0.188470	-0.000235
H81	H	0.131719	-0.221840	-0.049583
H82	H	-0.010668	-0.266435	-0.077214
H83	H	-0.019781	-0.906350	0.195510
O84	O	0.021650	-0.408851	-0.088397
H85	H	0.000680	-0.394231	-0.146559
O86	O	0.017819	-0.918519	0.343876
H87	H	0.116814	-0.950501	0.304557
O88	O	-0.673655	-0.807473	0.420565
H89	H	-0.805982	-0.802312	0.459872
O90	O	0.017841	-0.918537	0.655634
H91	H	0.116867	-0.950510	0.694930
