data_functionalizedCrystal
_audit_creation_method	'MofGen! by Chris Wilmer'
_symmetry_space_group_name_H-M	'P1'
_symmetry_Int_Tables_number	1
_symmetry_cell_setting	triclinic
loop_
_symmetry_equiv_pos_as_xyz
  x,y,z
_cell_length_a	12.827893
_cell_length_b	12.827885
_cell_length_c	12.827892
_cell_angle_alpha	90.027078
_cell_angle_beta	90.015540
_cell_angle_gamma	90.021379
loop_
_atom_site_label
_atom_site_type_symbol
_atom_site_fract_x
_atom_site_fract_y
_atom_site_fract_z
Zn1	Zn	-1.597657	-0.590923	0.416030
Zn2	Zn	-1.597545	-0.416192	0.590808
Zn3	Zn	-1.422898	-0.416191	0.416076
Zn4	Zn	-1.422878	-0.590886	0.590725
O5	O	-1.510245	-0.503548	0.503410
O6	O	-1.743879	-0.567761	0.439231
O7	O	-1.574339	-0.269956	0.567684
O8	O	-1.446136	-0.439384	0.269834
O9	O	-1.743796	-0.439387	0.567639
O10	O	-1.574531	-0.567759	0.269800
O11	O	-1.446027	-0.269955	0.439309
O12	O	-1.276660	-0.439349	0.439228
O13	O	-1.446102	-0.737127	0.567497
O14	O	-1.276645	-0.567697	0.567541
O15	O	-1.574511	-0.737154	0.439150
O16	O	-1.574320	-0.439351	0.737033
O17	O	-1.445993	-0.567698	0.736972
C18	C	-1.238735	-0.503519	0.503381
C19	C	-1.122582	-0.503532	0.503394
C20	C	-1.070838	-0.567152	0.439965
C21	C	-0.950787	-0.567167	0.439977
C22	C	-1.510317	-0.776118	0.503309
C23	C	-1.510348	-0.892272	0.503266
C24	C	-1.510170	-0.503543	0.774920
C25	C	-1.510234	-0.503576	0.891073
C26	C	-0.782815	-0.503569	0.503431
C27	C	-0.898968	-0.503557	0.503418
C28	C	-1.446827	-0.944043	0.566750
C29	C	-1.446857	-1.064094	0.566707
C30	C	-1.510233	-0.232038	0.503435
C31	C	-1.510405	-0.115886	0.503184
C32	C	-1.573808	-0.440139	0.942853
C33	C	-1.573875	-0.440172	1.062904
C34	C	-1.510340	-0.503589	1.230840
C35	C	-1.510358	-0.503638	1.114687
H36	H	-1.078005	-0.449072	0.557706
C37	C	-0.890682	-0.640755	0.366610
C38	C	-0.815653	-0.722665	0.412063
C39	C	-0.755545	-0.796256	0.338694
C40	C	-0.770467	-0.787936	0.219870
C41	C	-0.845500	-0.706023	0.174410
C42	C	-0.905607	-0.632432	0.247780
H43	H	-0.804604	-0.728826	0.500029
H44	H	-0.700001	-0.856893	0.372347
H45	H	-0.725972	-0.842413	0.165558
H46	H	-0.856549	-0.699861	0.086445
H47	H	-0.961151	-0.571794	0.214127
H48	H	-1.455860	-0.557915	0.935618
C49	C	-1.583850	-0.952449	0.429792
C50	C	-1.575378	-0.937556	0.310985
C51	C	-1.648883	-0.997730	0.237509
C52	C	-1.730860	-1.072797	0.282840
C53	C	-1.739336	-1.087693	0.401654
C54	C	-1.665831	-1.027519	0.475130
H55	H	-1.514690	-0.881984	0.277422
H56	H	-1.642608	-0.986703	0.149555
H57	H	-1.785273	-1.117341	0.228449
H58	H	-1.800024	-1.143265	0.435217
H59	H	-1.672106	-1.038547	0.563084
H60	H	-1.628300	-0.385858	1.107434
C61	C	-1.131046	-0.640717	0.366577
C62	C	-1.251092	-0.640592	0.366664
C63	C	-1.311297	-0.714155	0.293269
C64	C	-1.251457	-0.787844	0.219788
C65	C	-1.131405	-0.787973	0.219699
C66	C	-1.071200	-0.714410	0.293093
H67	H	-1.295395	-0.586040	0.421061
H68	H	-1.400168	-0.714059	0.293336
H69	H	-1.296025	-0.842301	0.165457
H70	H	-1.087102	-0.842525	0.165301
H71	H	-0.982329	-0.714505	0.293027
H72	H	-0.943460	-0.449092	0.557731
H73	H	-1.392426	-0.899490	0.621137
C74	C	-1.373385	-1.124230	0.640137
C75	C	-1.254572	-1.109312	0.631616
C76	C	-1.181097	-1.169451	0.705049
C77	C	-1.226435	-1.244509	0.787003
C78	C	-1.345253	-1.259431	0.795527
C79	C	-1.418728	-1.199292	0.722094
H80	H	-1.221005	-1.053746	0.570946
H81	H	-1.093140	-1.158404	0.698738
H82	H	-1.172044	-1.289027	0.841362
H83	H	-1.378820	-1.314997	0.856197
H84	H	-1.506686	-1.210339	0.728405
H85	H	-1.564785	-1.071370	0.448825
H86	H	-1.628191	-0.385808	0.898310
H87	H	-1.455923	-0.557948	1.070164
