data_functionalizedCrystal
_audit_creation_method	'MofGen! by Chris Wilmer'
_symmetry_space_group_name_H-M	'P1'
_symmetry_Int_Tables_number	1
_symmetry_cell_setting	triclinic
loop_
_symmetry_equiv_pos_as_xyz
  x,y,z
_cell_length_a	16.109301
_cell_length_b	15.186229
_cell_length_c	16.109304
_cell_angle_alpha	89.999066
_cell_angle_beta	83.462111
_cell_angle_gamma	89.999006
loop_
_atom_site_label
_atom_site_type_symbol
_atom_site_fract_x
_atom_site_fract_y
_atom_site_fract_z
O1	O	1.103132	-0.073175	0.106867
O2	O	1.603132	0.426825	0.606867
O3	O	0.861070	-0.073186	0.120166
O4	O	1.361070	0.426814	0.620166
O5	O	0.988749	-0.073181	-0.007514
O6	O	1.488749	0.426819	0.492486
O7	O	0.975452	-0.073180	0.234547
O8	O	1.475452	0.426820	0.734547
O9	O	0.988741	0.073277	-0.007516
O10	O	1.488741	0.573277	0.492484
O11	O	0.861061	0.073271	0.120164
O12	O	1.361061	0.573271	0.620164
O13	O	1.103123	0.073283	0.106865
O14	O	1.603123	0.573283	0.606865
Zn15	Zn	0.982091	0.096530	0.113514
Zn16	Zn	1.482091	0.596530	0.613514
Zn17	Zn	0.982102	-0.096434	0.113517
Zn18	Zn	1.482102	0.403566	0.613517
O19	O	0.975444	0.073277	0.234545
O20	O	1.475444	0.573277	0.734545
C21	C	0.830091	0.000041	0.119626
C22	C	1.330091	0.500041	0.619626
C23	C	0.737795	0.000036	0.118011
C24	C	1.237795	0.500036	0.618011
C25	C	0.428798	0.000052	0.188494
C26	C	0.928798	0.500052	0.688494
C27	C	0.515518	0.000046	0.190020
C28	C	1.015518	0.500046	0.690020
C29	C	0.535390	0.000034	0.038531
C30	C	1.035390	0.500034	0.538531
C31	C	0.448671	0.000033	0.037007
C32	C	0.948671	0.500033	0.537007
C33	C	0.395377	0.000046	0.111991
C34	C	0.895377	0.500046	0.611991
C35	C	0.568816	0.000042	0.115040
C36	C	1.068816	0.500042	0.615040
C37	C	0.662842	0.000037	0.116694
C38	C	1.162842	0.500037	0.616694
C39	C	0.301345	0.000050	0.110338
C40	C	0.801345	0.500050	0.610338
C41	C	0.988206	0.000046	-0.038490
C42	C	1.488206	0.500046	0.461510
C43	C	0.986590	0.000040	-0.130785
C44	C	1.486590	0.500040	0.369215
C45	C	1.134102	0.000054	0.107405
C46	C	1.634102	0.500054	0.607405
C47	C	1.226398	0.000053	0.109020
C48	C	1.726398	0.500053	0.609020
N49	N	0.982089	0.228223	0.113512
N50	N	1.482089	0.728223	0.613512
N51	N	0.982110	-0.228126	0.113512
N52	N	1.482110	0.271874	0.613512
C53	C	1.038645	0.453948	0.056994
C54	C	1.538645	0.953948	0.556994
C55	C	1.038647	0.546138	0.056992
C56	C	1.538647	1.046138	0.556992
C57	C	0.925549	0.546142	0.170033
C58	C	1.425549	1.046142	0.670033
C59	C	0.925543	0.453954	0.170030
C60	C	1.425543	0.953954	0.670030
C61	C	0.982095	0.407859	0.113512
C62	C	1.482095	0.907859	0.613512
C63	C	0.982104	0.592237	0.113513
C64	C	1.482104	1.092237	0.613513
C65	C	0.982106	0.692193	0.113511
C66	C	1.482106	1.192193	0.613511
C67	C	0.982092	0.307897	0.113512
C68	C	1.482092	0.807897	0.613512
C69	C	0.982861	-0.079791	-0.343122
C70	C	1.482861	0.420209	0.156878
C71	C	0.981335	-0.079790	-0.429842
C72	C	1.481335	0.420210	0.070158
C73	C	0.981330	0.079886	-0.429841
C74	C	1.481330	0.579886	0.070159
C75	C	0.982850	0.079884	-0.343121
C76	C	1.482850	0.579884	0.156879
C77	C	0.983620	0.000043	-0.299765
C78	C	1.483620	0.500043	0.200235
C79	C	0.980573	0.000046	-0.473204
C80	C	1.480573	0.500046	0.026796
C81	C	0.978919	0.000047	-0.567230
C82	C	1.478919	0.500047	-0.067230
C83	C	0.985273	0.000041	-0.205733
C84	C	1.485273	0.500041	0.294267
C85	C	0.975987	0.000048	0.265521
C86	C	1.475987	0.500048	0.765521
C87	C	0.977603	0.000049	0.357816
C88	C	1.477603	0.500049	0.857816
H89	H	0.421460	0.000026	-0.025296
H90	H	0.921460	0.500026	0.474704
H91	H	0.578792	0.000026	-0.022518
H92	H	1.078792	0.500026	0.477482
H93	H	0.879489	0.416426	0.216054
H94	H	1.379489	0.916426	0.716054
H95	H	0.983485	-0.144802	-0.307823
H96	H	1.483485	0.355198	0.192177
O97	O	0.980638	-0.157420	-0.471835
O98	O	1.480638	0.342580	0.028165
C99	C	0.981620	-0.227884	-0.414965
C100	C	1.481620	0.272116	0.085035
H101	H	1.009012	-0.204478	-0.356600
H102	H	1.509012	0.295522	0.143400
H103	H	1.021521	-0.283721	-0.445312
H104	H	1.521521	0.216279	0.054688
H105	H	0.915123	-0.252433	-0.396997
H106	H	1.415123	0.247567	0.103003
H107	H	0.980705	0.144889	-0.465153
H108	H	1.480705	0.644889	0.034847
O109	O	0.547844	0.000093	0.264408
O110	O	1.047844	0.500093	0.764408
C111	C	0.482207	0.000081	0.330258
C112	C	0.982207	0.500081	0.830258
H113	H	0.423305	0.027808	0.306962
H114	H	0.923305	0.527808	0.806962
H115	H	0.500314	0.042606	0.383669
H116	H	1.000314	0.542606	0.883669
H117	H	0.469927	-0.070180	0.353393
H118	H	0.969927	0.429820	0.853393
H119	H	0.983463	0.144898	-0.307819
H120	H	1.483463	0.644898	0.192181
H121	H	1.084692	0.416420	0.010973
H122	H	1.584692	0.916420	0.510973
H123	H	0.385408	0.000062	0.249551
H124	H	0.885408	0.500062	0.749551
H125	H	1.084694	0.583661	0.010970
H126	H	1.584694	1.083661	0.510970
H127	H	0.879506	0.583681	0.216050
H128	H	1.379506	1.083681	0.716050
