data_functionalizedCrystal
_audit_creation_method	'MofGen! by Chris Wilmer'
_symmetry_space_group_name_H-M	'P1'
_symmetry_Int_Tables_number	1
_symmetry_cell_setting	triclinic
loop_
_symmetry_equiv_pos_as_xyz
  x,y,z
_cell_length_a	15.995350
_cell_length_b	15.995350
_cell_length_c	14.586319
_cell_angle_alpha	89.998440
_cell_angle_beta	90.000141
_cell_angle_gamma	83.492375
loop_
_atom_site_label
_atom_site_type_symbol
_atom_site_fract_x
_atom_site_fract_y
_atom_site_fract_z
O1	O	1.110984	0.107926	-0.076158
O2	O	1.444318	0.441259	0.257175
O3	O	1.777651	0.774592	0.590509
O4	O	0.867209	0.121253	-0.076176
O5	O	1.200543	0.454586	0.257157
O6	O	1.533876	0.787920	0.590490
O7	O	0.995761	-0.007298	-0.076166
O8	O	1.329094	0.326035	0.257167
O9	O	1.662427	0.659368	0.590501
O10	O	0.982433	0.236477	-0.076169
O11	O	1.315766	0.569810	0.257165
O12	O	1.649100	0.903144	0.590498
O13	O	0.995752	-0.007300	0.076315
O14	O	1.329085	0.326033	0.409648
O15	O	1.662418	0.659366	0.742982
O16	O	0.867200	0.121251	0.076304
O17	O	1.200534	0.454584	0.409638
O18	O	1.533867	0.787918	0.742971
O19	O	1.110976	0.107924	0.076323
O20	O	1.444309	0.441257	0.409656
O21	O	1.777642	0.774590	0.742989
Cu22	Cu	0.989087	0.114587	0.090236
Cu23	Cu	1.322420	0.447921	0.423570
Cu24	Cu	1.655754	0.781254	0.756903
Cu25	Cu	0.989098	0.114589	-0.090090
Cu26	Cu	1.322431	0.447923	0.243243
Cu27	Cu	1.655764	0.781256	0.576577
O28	O	0.982424	0.236475	0.076312
O29	O	1.315757	0.569808	0.409646
O30	O	1.649091	0.903142	0.742979
C31	C	0.836010	0.120701	0.000062
C32	C	1.169343	0.454034	0.333395
C33	C	1.502677	0.787368	0.666728
C34	C	0.743060	0.119049	0.000054
C35	C	1.076393	0.452383	0.333388
C36	C	1.409726	0.785716	0.666721
C37	C	0.405312	0.113117	0.000074
C38	C	0.738645	0.446450	0.333407
C39	C	1.071979	0.779784	0.666740
C40	C	0.452746	0.021565	0.000415
C41	C	0.786079	0.354898	0.333748
C42	C	1.119413	0.688232	0.667081
C43	C	0.549436	0.023217	0.000065
C44	C	0.882770	0.356551	0.333398
C45	C	1.216103	0.689884	0.666731
C46	C	0.572873	0.116060	0.000065
C47	C	0.906206	0.449393	0.333398
C48	C	1.239539	0.782726	0.666731
C49	C	0.531791	0.161217	-0.087006
C50	C	0.865124	0.494551	0.246327
C51	C	1.198457	0.827884	0.579660
C52	C	0.435155	0.158917	-0.087073
C53	C	0.768488	0.492251	0.246261
C54	C	1.101822	0.825584	0.579594
C55	C	0.434806	0.160807	0.086327
C56	C	0.768139	0.494140	0.419660
C57	C	1.101472	0.827473	0.752993
C58	C	0.531751	0.160785	0.087471
C59	C	0.865085	0.494118	0.420804
C60	C	1.198418	0.827452	0.754138
C61	C	0.667570	0.117727	0.000057
C62	C	1.000903	0.451061	0.333390
C63	C	1.334237	0.784394	0.666723
C64	C	0.310614	0.111452	0.000076
C65	C	0.643948	0.444785	0.333409
C66	C	0.977281	0.778119	0.666742
C67	C	0.995205	-0.038494	0.000073
C68	C	1.328538	0.294839	0.333406
C69	C	1.661872	0.628173	0.666739
C70	C	0.993553	-0.131444	0.000067
C71	C	1.326887	0.201889	0.333401
C72	C	1.660220	0.535222	0.666734
C73	C	0.987621	-0.469192	0.000070
C74	C	1.320954	-0.135859	0.333403
C75	C	1.654288	0.197475	0.666737
C76	C	0.896069	-0.421758	-0.000279
C77	C	1.229403	-0.088425	0.333055
C78	C	1.562736	0.244909	0.666388
C79	C	0.897721	-0.325068	0.000065
C80	C	1.231055	0.008266	0.333398
C81	C	1.564388	0.341599	0.666732
C82	C	0.990564	-0.301631	0.000068
C83	C	1.323897	0.031702	0.333402
C84	C	1.657230	0.365035	0.666735
C85	C	1.035715	-0.342710	0.087144
C86	C	1.369049	-0.009377	0.420477
C87	C	1.702382	0.323957	0.753811
C88	C	1.033415	-0.439346	0.087217
C89	C	1.366749	-0.106012	0.420550
C90	C	1.700082	0.227321	0.753883
C91	C	1.035317	-0.439702	-0.086182
C92	C	1.368650	-0.106368	0.247151
C93	C	1.701983	0.226965	0.580484
C94	C	1.035295	-0.342756	-0.087333
C95	C	1.368628	-0.009423	0.246000
C96	C	1.701962	0.323910	0.579334
C97	C	0.992231	-0.206934	0.000070
C98	C	1.325565	0.126399	0.333404
C99	C	1.658898	0.459733	0.666737
C100	C	0.985956	-0.563890	0.000074
C101	C	1.319289	-0.230556	0.333408
C102	C	1.652623	0.102777	0.666741
C103	C	1.142175	0.108476	0.000083
C104	C	1.475508	0.441809	0.333416
C105	C	1.808841	0.775142	0.666749
C106	C	1.235125	0.110127	0.000084
C107	C	1.568458	0.443461	0.333417
C108	C	1.901792	0.776794	0.666750
C109	C	0.982980	0.267671	0.000072
C110	C	1.316313	0.601004	0.333405
C111	C	1.649646	0.934337	0.666738
C112	C	0.984631	0.360621	0.000071
C113	C	1.317965	0.693954	0.333404
C114	C	1.651298	1.027288	0.666738
N115	N	0.989086	0.114585	0.217068
N116	N	1.322419	0.447918	0.550401
N117	N	1.655752	0.781252	0.883735
N118	N	0.989106	0.114585	-0.216922
N119	N	1.322439	0.447918	0.116412
N120	N	1.655772	0.781252	0.449745
C121	C	1.046027	0.057682	0.452079
C122	C	1.379360	0.391015	0.785412
C123	C	1.712694	0.724348	1.118746
C124	C	1.046030	0.057680	0.548060
C125	C	1.379363	0.391013	0.881394
C126	C	1.712696	0.724346	1.214727
C127	C	0.932158	0.171491	0.548061
C128	C	1.265491	0.504824	0.881394
C129	C	1.598825	0.838158	1.214727
C130	C	0.932152	0.171488	0.452081
C131	C	1.265486	0.504822	0.785414
C132	C	1.598819	0.838155	1.118748
C133	C	0.989092	0.114585	0.404093
C134	C	1.322425	0.447918	0.737426
C135	C	1.655758	0.781251	1.070759
C136	C	0.989100	0.114585	0.596054
C137	C	1.322433	0.447919	0.929387
C138	C	1.655766	0.781252	1.262720
C139	C	0.989102	0.114584	0.700121
C140	C	1.322435	0.447917	1.033454
C141	C	1.655769	0.781250	1.366787
C142	C	0.989089	0.114585	0.300019
C143	C	1.322422	0.447919	0.633352
C144	C	1.655755	0.781252	0.966686
H145	H	0.577298	-0.012517	-0.062459
H146	H	0.910631	0.320816	0.270874
H147	H	1.243965	0.654149	0.604207
F148	F	0.996192	-0.466538	-0.172447
F149	F	1.329525	-0.133205	0.160886
F150	F	1.662859	0.200129	0.494219
F151	F	1.121269	-0.481499	0.092393
F152	F	1.454602	-0.148165	0.425727
F153	F	1.787935	0.185168	0.759060
H154	H	0.861983	-0.297204	0.062586
H155	H	1.195316	0.036130	0.395919
H156	H	1.528650	0.369463	0.729252
H157	H	0.577862	-0.012279	0.062481
H158	H	0.911195	0.321054	0.395814
H159	H	1.244528	0.654388	0.729148
H160	H	1.103000	-0.327394	-0.092588
H161	H	1.436333	0.005939	0.240745
H162	H	1.769666	0.339272	0.574079
F163	F	0.990367	-0.463270	0.172289
F164	F	1.323701	-0.129937	0.505622
F165	F	1.657034	0.203396	0.838956
H166	H	1.103924	-0.328584	0.090385
H167	H	1.437257	0.004749	0.423718
H168	H	1.770590	0.338082	0.757051
F169	F	0.871548	0.232052	0.401006
F170	F	1.204881	0.565386	0.734340
F171	F	1.538214	0.898719	1.067673
H172	H	1.092391	0.011343	0.587128
H173	H	1.425724	0.344676	0.920462
H174	H	1.759057	0.678010	1.253795
H175	H	1.102818	-0.471462	-0.086765
H176	H	1.436151	-0.138129	0.246568
H177	H	1.769484	0.195204	0.579902
F178	F	0.871564	0.232052	0.599139
F179	F	1.204898	0.565385	0.932472
F180	F	1.538231	0.898718	1.265806
F181	F	0.411227	0.115876	-0.172146
F182	F	0.744560	0.449209	0.161187
F183	F	1.077894	0.782543	0.494521
F184	F	0.551829	0.249281	0.094345
F185	F	0.885162	0.582615	0.427678
F186	F	1.218495	0.915948	0.761011
H187	H	0.559064	0.127820	0.151886
H188	H	0.892397	0.461154	0.485219
H189	H	1.225731	0.794487	0.818552
F190	F	0.393002	0.246771	-0.092238
F191	F	0.726335	0.580105	0.241095
F192	F	1.059668	0.913438	0.574428
H193	H	0.434220	-0.015031	0.062857
H194	H	0.767554	0.318302	0.396190
H195	H	1.100887	0.651635	0.729523
H196	H	0.433156	-0.014861	-0.061682
H197	H	0.766489	0.318472	0.271651
H198	H	1.099823	0.651806	0.604985
F199	F	0.550272	0.250365	-0.091256
F200	F	0.883605	0.583698	0.242078
F201	F	1.216939	0.917031	0.575411
H202	H	0.560169	0.129854	-0.151806
H203	H	0.893502	0.463188	0.181527
H204	H	1.226835	0.796521	0.514861
F205	F	1.106625	-0.002883	0.401010
F206	F	1.439958	0.330451	0.734344
F207	F	1.773292	0.663784	1.067677
H208	H	1.002283	-0.315507	-0.151749
H209	H	1.335617	0.017827	0.181584
H210	H	1.668950	0.351160	0.514917
H211	H	0.403044	0.228307	0.086915
H212	H	0.736378	0.561641	0.420249
H213	H	1.069711	0.894974	0.753582
F214	F	0.851330	-0.287914	-0.081522
F215	F	1.184663	0.045419	0.251812
F216	F	1.517997	0.378752	0.585145
F217	F	0.848242	-0.445977	-0.081899
F218	F	1.181575	-0.112643	0.251435
F219	F	1.514909	0.220690	0.584768
F220	F	0.407964	0.121682	0.172591
F221	F	0.741297	0.455016	0.505924
F222	F	1.074630	0.788349	0.839258
H223	H	0.859636	-0.441353	0.061812
H224	H	1.192969	-0.108019	0.395145
H225	H	1.526302	0.225314	0.728479
F226	F	0.994717	-0.305617	0.171840
F227	F	1.328050	0.027716	0.505173
F228	F	1.661384	0.361049	0.838506
