data_functionalizedCrystal
_audit_creation_method	'MofGen! by Chris Wilmer'
_symmetry_space_group_name_H-M	'P1'
_symmetry_Int_Tables_number	1
_symmetry_cell_setting	triclinic
loop_
_symmetry_equiv_pos_as_xyz
  x,y,z
_cell_length_a	23.532407
_cell_length_b	9.065218
_cell_length_c	8.140239
_cell_angle_alpha	90.001686
_cell_angle_beta	89.997376
_cell_angle_gamma	83.932281
loop_
_atom_site_label
_atom_site_type_symbol
_atom_site_fract_x
_atom_site_fract_y
_atom_site_fract_z
O1	O	-0.756573	-0.179072	-0.136402
O2	O	-0.590900	-0.204983	-0.136449
O3	O	-0.677161	0.022784	-0.136422
O4	O	-0.670312	-0.406838	-0.136430
O5	O	-0.677156	0.022786	0.136806
O6	O	-0.590895	-0.204980	0.136778
O7	O	-0.756568	-0.179069	0.136825
Zn8	Zn	-0.673731	-0.192024	0.180182
Zn9	Zn	-0.673737	-0.192028	-0.179807
O10	O	-0.670307	-0.406836	0.136797
C11	C	-0.569676	-0.204321	0.000158
C12	C	-0.506445	-0.202338	0.000140
C13	C	-0.676500	0.077739	0.000189
C14	C	-0.674532	0.241485	0.000181
C15	C	-0.777791	-0.179731	0.000214
C16	C	-0.841023	-0.181714	0.000221
C17	C	-0.108240	-0.324683	0.000212
C18	C	-0.048826	-0.322840	0.000222
O19	O	-0.012914	-0.436255	0.000279
N20	N	-0.025206	-0.187433	0.000222
C21	C	-0.061003	-0.053860	0.000228
O22	O	-0.035456	0.061484	0.000231
C23	C	-0.120415	-0.055704	0.000230
C24	C	-0.144032	-0.191120	0.000213
C25	C	-0.131857	-0.460088	0.000197
C26	C	-0.191267	-0.461930	0.000184
C27	C	-0.227059	-0.328367	0.000185
C28	C	-0.203442	-0.192962	0.000200
C29	C	-0.156211	0.077867	0.000248
C30	C	-0.215627	0.076011	0.000251
C31	C	-0.239244	-0.059405	0.000235
C32	C	-0.298644	-0.061242	0.000189
N33	N	-0.322264	-0.196649	0.000189
C34	C	-0.286472	-0.330211	0.000187
C35	C	0.063768	-0.049997	0.000228
C36	C	0.123180	-0.048151	0.000214
C37	C	0.135352	-0.317131	0.000211
C38	C	0.075939	-0.318976	0.000212
C39	C	0.040148	-0.185404	0.000228
C40	C	-0.411237	-0.334070	0.000158
C41	C	-0.470653	-0.335900	0.000138
C42	C	-0.482820	-0.066921	0.000150
C43	C	-0.423410	-0.065089	0.000162
C44	C	-0.387619	-0.198676	0.000171
O45	O	-0.334591	0.052114	0.000138
O46	O	-0.312027	-0.445536	0.000206
C47	C	-0.670968	-0.461791	0.000183
C48	C	-0.672936	-0.625537	0.000180
N49	N	-0.673731	-0.192021	0.425865
N50	N	-0.673742	-0.192019	-0.425489
H51	H	-0.489878	-0.446177	0.000123
H52	H	0.056715	-0.429243	0.000208
F53	F	0.173455	-0.459282	0.000216
H54	H	-0.382103	-0.442849	0.000171
F55	F	0.148308	0.095977	0.000195
F56	F	0.025680	0.092179	0.000228
H57	H	-0.210490	-0.572199	0.000169
H58	H	-0.102721	-0.568857	0.000201
H59	H	-0.136993	0.188137	0.000263
H60	H	-0.244767	0.184784	0.000265
F61	F	-0.398274	0.079034	0.000180
F62	F	-0.520923	0.075219	0.000155
