data_functionalizedCrystal
_audit_creation_method	'MofGen! by Chris Wilmer'
_symmetry_space_group_name_H-M	'P1'
_symmetry_Int_Tables_number	1
_symmetry_cell_setting	triclinic
loop_
_symmetry_equiv_pos_as_xyz
  x,y,z
_cell_length_a	14.809374
_cell_length_b	21.606444
_cell_length_c	21.606444
_cell_angle_alpha	59.990220
_cell_angle_beta	81.046749
_cell_angle_gamma	55.131918
loop_
_atom_site_label
_atom_site_type_symbol
_atom_site_fract_x
_atom_site_fract_y
_atom_site_fract_z
Zr1	Zr	0.880622	0.677514	-0.175262
O2	O	0.734664	0.806646	-0.258541
O3	O	0.925366	0.548383	-0.149717
O4	O	0.925368	0.677516	-0.278860
O5	O	0.734661	0.677510	-0.027545
O6	O	1.075800	0.677517	-0.294905
O7	O	0.734662	0.677513	-0.129398
O8	O	1.075796	0.446521	-0.063892
O9	O	0.734665	0.908506	-0.258559
O10	O	1.056715	0.601496	-0.150815
O11	O	0.944448	0.601494	-0.062829
O12	O	0.944451	0.753532	-0.214878
O13	O	0.832185	0.753530	-0.126892
Zr14	Zr	1.120542	0.677511	-0.038407
Zr15	Zr	1.120543	0.677515	-0.200852
Zr16	Zr	0.880621	0.677510	-0.012818
Zr17	Zr	0.880624	0.839969	-0.175289
Zr18	Zr	1.120541	0.515056	-0.038380
O19	O	1.075799	0.806642	-0.063952
O20	O	1.075801	0.806647	-0.294927
O21	O	0.734662	0.806641	-0.027567
O22	O	1.266500	0.548378	0.044872
O23	O	1.266503	0.548384	-0.186102
O24	O	0.925364	0.548378	0.081258
O25	O	1.266504	0.677514	-0.186124
O26	O	1.075796	0.677508	0.065191
O27	O	0.925365	0.677508	0.081236
O28	O	1.266503	0.677512	-0.084271
O29	O	0.925370	0.908507	-0.278899
O30	O	1.075794	0.446518	0.065230
O31	O	1.266500	0.446518	0.044889
O32	O	1.266501	0.446521	-0.084232
O33	O	0.734663	0.908503	-0.129437
O34	O	0.925369	0.908504	-0.149778
O35	O	1.056713	0.601493	0.001209
O36	O	1.168979	0.601495	-0.086777
O37	O	1.056716	0.753530	-0.150840
O38	O	0.944450	0.753528	-0.062854
C39	C	1.000580	0.474306	-0.106800
C40	C	1.000580	0.405339	-0.106789
C41	C	0.917703	0.429075	-0.154077
C42	C	0.917706	0.364286	-0.154093
C43	C	1.000582	0.275761	-0.106817
C44	C	1.083467	0.252026	-0.059527
C45	C	1.083468	0.316814	-0.059515
C46	C	1.083466	-0.009261	-0.059574
C47	C	1.083457	-0.074050	-0.059588
C48	C	0.917705	0.038211	-0.154152
C49	C	0.917706	0.102999	-0.154141
C50	C	1.000593	0.079258	-0.106853
C51	C	1.000591	0.149511	-0.106837
C52	C	1.000581	0.205509	-0.106828
C53	C	0.700477	0.677512	-0.074826
C54	C	0.598625	0.677511	-0.063962
C55	C	0.553216	0.677512	-0.112445
C56	C	0.447946	0.677512	-0.101218
C57	C	1.300687	0.677513	-0.138844
C58	C	1.402540	0.677513	-0.149707
C59	C	1.000584	0.677517	-0.310027
C60	C	1.000585	0.677519	-0.378989
C61	C	1.000584	0.880719	-0.106869
C62	C	1.000584	0.949686	-0.106880
C63	C	1.083458	0.677521	-0.420227
C64	C	1.083462	0.677515	-0.485020
C65	C	1.000586	0.677513	-0.508577
C66	C	0.917708	0.677508	-0.467334
C67	C	0.917710	0.677508	-0.402539
C68	C	0.917698	0.677508	-0.728643
C69	C	0.917700	0.677510	-0.793444
C70	C	1.083450	0.677514	-0.811124
C71	C	1.083452	0.677514	-0.746329
C72	C	1.000578	0.677505	-0.705089
C73	C	1.000576	0.677510	-0.634832
C74	C	1.000582	0.677514	-0.578836
C75	C	1.000580	0.677507	0.096358
C76	C	1.000580	0.677506	0.165320
C77	C	1.300685	0.474306	-0.138809
C78	C	1.402537	0.405340	-0.149661
C79	C	1.000579	0.474301	0.096392
C80	C	1.000577	0.405333	0.165366
C81	C	1.300683	0.474302	0.064384
C82	C	1.402535	0.405334	0.122493
C83	C	0.700481	0.880723	-0.278053
C84	C	0.598629	0.949691	-0.336163
C85	C	0.700479	0.880718	-0.074860
C86	C	0.598627	0.949684	-0.064008
C87	C	1.000586	0.880724	-0.310062
C88	C	1.000587	0.949692	-0.379035
C89	C	1.391767	0.372954	-0.188191
C90	C	1.487459	0.308162	-0.198402
C91	C	1.593920	0.275753	-0.170078
C92	C	1.604688	0.308146	-0.131546
C93	C	1.508997	0.372941	-0.121341
C94	C	1.059178	0.372944	0.231190
C95	C	1.059173	0.308150	0.296005
C96	C	1.000573	0.275742	0.294993
C97	C	0.941965	0.308137	0.229161
C98	C	0.941964	0.372934	0.164349
C99	C	1.508977	0.372947	0.103854
C100	C	1.604687	0.308153	0.158447
C101	C	1.593952	0.275743	0.231679
C102	C	1.487498	0.308137	0.250319
C103	C	1.391791	0.372933	0.195726
C104	C	0.492187	0.982086	-0.317523
C105	C	0.396477	1.046900	-0.372116
C106	C	0.407213	1.079313	-0.445349
C107	C	0.513666	1.046915	-0.463988
C108	C	0.609373	0.982107	-0.409395
C109	C	0.609397	0.982078	-0.025485
C110	C	0.513705	1.046888	-0.015292
C111	C	0.407244	1.079299	-0.043618
C112	C	0.396476	1.046903	-0.082147
C113	C	0.492167	0.982099	-0.092344
C114	C	1.059198	0.982080	-0.378000
C115	C	1.059221	1.046874	-0.442804
C116	C	1.000626	1.079284	-0.508641
C117	C	0.942012	1.046890	-0.509675
C118	C	0.941997	0.982092	-0.444873
H119	H	1.150950	-0.146134	-0.021088
H120	H	0.696074	0.955693	-0.002411
Cl121	Cl	0.262664	1.087611	-0.348667
H122	H	0.483382	0.955726	-0.123710
H123	H	1.517739	0.399325	0.044227
H124	H	1.478670	0.281795	-0.229777
H125	H	0.850217	0.057536	-0.192659
Cl126	Cl	0.286957	1.160767	-0.030791
H127	H	0.522394	1.073315	-0.523620
Cl128	Cl	1.187649	0.677516	-0.536862
H129	H	0.850219	0.383620	-0.192599
Cl130	Cl	1.474021	0.267382	0.342387
Cl131	Cl	1.714207	0.194293	-0.182913
H132	H	0.894249	0.399297	0.110754
H133	H	0.850216	0.175079	-0.192635
H134	H	1.305124	0.399294	0.210914
H135	H	1.106914	0.955701	-0.324397
Cl136	Cl	0.743183	0.941384	-0.432841
Cl137	Cl	0.387659	0.677504	-0.024291
H138	H	1.691357	0.281785	0.143257
Cl139	Cl	1.132904	1.087589	-0.441486
Cl140	Cl	1.187657	0.140737	-0.000095
H141	H	0.522495	1.073254	0.016083
Cl142	Cl	0.813524	0.677501	-0.350695
H143	H	1.517782	0.399302	-0.089962
H144	H	1.150941	0.677528	-0.401054
H145	H	1.106897	0.399323	0.232028
H146	H	1.000647	1.132046	-0.561403
H147	H	0.559571	0.677505	-0.014141
H148	H	1.150959	-0.028602	-0.021070
H149	H	1.671892	0.222981	0.276125
H150	H	0.483425	0.955698	-0.257897
Cl151	Cl	0.262631	1.087654	-0.117749
H152	H	1.106902	0.281781	0.349600
Cl153	Cl	0.868342	1.087652	-0.592448
H154	H	0.329273	1.132084	-0.489794
Cl155	Cl	1.738533	0.267390	-0.095939
H156	H	0.441597	0.677510	-0.199528
Cl157	Cl	0.868294	0.941393	-0.446186
H158	H	0.850205	0.501154	-0.192566
H159	H	0.592276	0.677509	-0.162262
Cl160	Cl	1.187664	0.286972	-0.000068
H161	H	1.150934	0.677520	-0.727154
H162	H	1.150934	0.677517	-0.844707
Cl163	Cl	0.813507	0.677506	-0.823056
H164	H	0.850217	0.677502	-0.695071
H165	H	0.850231	0.677501	-0.486515
Cl166	Cl	1.000587	0.194280	0.376478
H167	H	0.894254	0.281741	0.228348
H168	H	1.305090	0.399340	-0.211267
