data_functionalizedCrystal
_audit_creation_method	'MofGen! by Chris Wilmer'
_symmetry_space_group_name_H-M	'P1'
_symmetry_Int_Tables_number	1
_symmetry_cell_setting	triclinic
loop_
_symmetry_equiv_pos_as_xyz
  x,y,z
_cell_length_a	16.120484
_cell_length_b	16.625547
_cell_length_c	16.120297
_cell_angle_alpha	92.874036
_cell_angle_beta	95.614431
_cell_angle_gamma	92.925712
loop_
_atom_site_label
_atom_site_type_symbol
_atom_site_fract_x
_atom_site_fract_y
_atom_site_fract_z
Zn1	Zn	-0.356754	1.191152	-0.489547
Zn2	Zn	-0.106754	1.441152	-0.239547
Zn3	Zn	0.143246	1.691152	0.010453
Zn4	Zn	0.393246	1.941152	0.260453
Zn5	Zn	-0.489444	1.191051	-0.356858
Zn6	Zn	-0.239444	1.441051	-0.106858
Zn7	Zn	0.010556	1.691051	0.143142
Zn8	Zn	0.260556	1.941051	0.393142
Zn9	Zn	-0.349689	1.063517	-0.349783
Zn10	Zn	-0.099689	1.313517	-0.099783
Zn11	Zn	0.150311	1.563517	0.150217
Zn12	Zn	0.400311	1.813517	0.400217
Zn13	Zn	-0.496484	1.049081	-0.496569
Zn14	Zn	-0.246484	1.299081	-0.246569
Zn15	Zn	0.003516	1.549081	0.003431
Zn16	Zn	0.253516	1.799081	0.253431
O17	O	-0.423093	1.123700	-0.423189
O18	O	-0.173093	1.373700	-0.173189
O19	O	0.076907	1.623700	0.076811
O20	O	0.326907	1.873700	0.326811
O21	O	-0.374366	1.303970	-0.471968
O22	O	-0.124366	1.553970	-0.221968
O23	O	0.125634	1.803970	0.028032
O24	O	0.375634	2.053970	0.278032
O25	O	-0.465002	1.180132	-0.238958
O26	O	-0.215002	1.430132	0.011042
O27	O	0.034998	1.680132	0.261042
O28	O	0.284998	1.930132	0.511042
O29	O	-0.233661	1.086532	-0.362424
O30	O	0.016339	1.336532	-0.112424
O31	O	0.266339	1.586532	0.137576
O32	O	0.516339	1.836532	0.387576
O33	O	-0.471852	1.303895	-0.374481
O34	O	-0.221852	1.553895	-0.124481
O35	O	0.028148	1.803895	0.125519
O36	O	0.278148	2.053895	0.375519
O37	O	-0.238852	1.180306	-0.465108
O38	O	0.011148	1.430306	-0.215108
O39	O	0.261148	1.680306	0.034892
O40	O	0.511148	1.930306	0.284892
O41	O	-0.362325	1.086434	-0.233760
O42	O	-0.112325	1.336434	0.016240
O43	O	0.137675	1.586434	0.266240
O44	O	0.387675	1.836434	0.516240
O45	O	-0.369152	0.948771	-0.369233
O46	O	-0.119152	1.198771	-0.119233
O47	O	0.130848	1.448771	0.130767
O48	O	0.380848	1.698771	0.380767
O49	O	-0.483852	1.061928	-0.612599
O50	O	-0.233852	1.311928	-0.362599
O51	O	0.016148	1.561928	-0.112599
O52	O	0.266148	1.811928	0.137401
O53	O	-0.477001	0.938165	-0.477076
O54	O	-0.227001	1.188165	-0.227076
O55	O	0.022999	1.438165	0.022924
O56	O	0.272999	1.688165	0.272924
O57	O	-0.381193	1.166307	-0.607440
O58	O	-0.131193	1.416307	-0.357440
O59	O	0.118807	1.666307	-0.107440
O60	O	0.368807	1.916307	0.142560
O61	O	-0.607343	1.166134	-0.381290
O62	O	-0.357343	1.416134	-0.131290
O63	O	-0.107343	1.666134	0.118710
O64	O	0.142657	1.916134	0.368710
O65	O	-0.612515	1.061829	-0.483935
O66	O	-0.362515	1.311829	-0.233935
O67	O	-0.112515	1.561829	0.016065
O68	O	0.137485	1.811829	0.266065
C69	C	-0.423075	0.914212	-0.423149
C70	C	-0.173075	1.164212	-0.173149
C71	C	0.076925	1.414212	0.076851
C72	C	0.326925	1.664212	0.326851
C73	C	-0.423088	0.824590	-0.423152
C74	C	-0.173088	1.074590	-0.173152
C75	C	0.076912	1.324590	0.076848
C76	C	0.326912	1.574590	0.326848
C77	C	-0.640258	1.112425	-0.434160
C78	C	-0.390258	1.362425	-0.184160
C79	C	-0.140258	1.612425	0.065840
C80	C	0.109742	1.862425	0.315840
C81	C	-0.733163	1.107674	-0.438882
C82	C	-0.483163	1.357674	-0.188882
C83	C	-0.233163	1.607674	0.061118
C84	C	0.016837	1.857674	0.311118
C85	C	-0.423090	0.751807	-0.423163
C86	C	-0.173090	1.001807	-0.173163
C87	C	0.076910	1.251807	0.076837
C88	C	0.326910	1.501807	0.326837
C89	C	-0.423096	0.660498	-0.423184
C90	C	-0.173096	0.910498	-0.173184
C91	C	0.076904	1.160498	0.076816
C92	C	0.326904	1.410498	0.326816
C93	C	-0.423104	0.587720	-0.423206
C94	C	-0.173104	0.837720	-0.173206
C95	C	0.076896	1.087720	0.076794
C96	C	0.326896	1.337720	0.326794
C97	C	-0.423111	0.496404	-0.423226
C98	C	-0.173111	0.746404	-0.173226
C99	C	0.076889	0.996404	0.076774
C100	C	0.326889	1.246404	0.326774
C101	C	-0.903263	1.099003	-0.447519
C102	C	-0.653263	1.349003	-0.197519
C103	C	-0.403263	1.599003	0.052481
C104	C	-0.153263	1.849003	0.302481
C105	C	-0.942083	1.148542	-0.398873
C106	C	-0.692083	1.398542	-0.148873
C107	C	-0.442083	1.648542	0.101127
C108	C	-0.192083	1.898542	0.351127
C109	C	-1.036732	1.143717	-0.403679
C110	C	-0.786732	1.393717	-0.153679
C111	C	-0.536732	1.643717	0.096321
C112	C	-0.286732	1.893717	0.346321
C113	C	-0.808605	1.103826	-0.442715
C114	C	-0.558605	1.353826	-0.192715
C115	C	-0.308605	1.603826	0.057285
C116	C	-0.058605	1.853826	0.307285
C117	C	-0.205081	1.135041	-0.412193
C118	C	0.044919	1.385041	-0.162193
C119	C	0.294919	1.635041	0.087807
C120	C	0.544919	1.885041	0.337807
C121	C	-0.112177	1.139873	-0.407508
C122	C	0.137823	1.389873	-0.157508
C123	C	0.387823	1.639873	0.092492
C124	C	0.637823	1.889873	0.342492
C125	C	-0.434096	1.112518	-0.641194
C126	C	-0.184096	1.362518	-0.391194
C127	C	0.065904	1.612518	-0.141194
C128	C	0.315904	1.862518	0.108806
C129	C	-0.438784	1.107753	-0.734095
C130	C	-0.188784	1.357753	-0.484095
C131	C	0.061216	1.607753	-0.234095
C132	C	0.311216	1.857753	0.015905
C133	C	-0.423112	1.334006	-0.423230
C134	C	-0.173112	1.584006	-0.173230
C135	C	0.076888	1.834006	0.076770
C136	C	0.326888	2.084006	0.326770
C137	C	-0.423120	1.423626	-0.423248
C138	C	-0.173120	1.673626	-0.173248
C139	C	0.076880	1.923626	0.076752
C140	C	0.326880	2.173626	0.326752
C141	C	-0.447326	1.099025	-0.904184
C142	C	-0.197326	1.349025	-0.654184
C143	C	0.052674	1.599025	-0.404184
C144	C	0.302674	1.849025	-0.154184
C145	C	-0.398609	1.148547	-0.943033
C146	C	-0.148609	1.398547	-0.693033
C147	C	0.101391	1.648547	-0.443033
C148	C	0.351391	1.898547	-0.193033
C149	C	-0.403362	1.143691	-1.037677
C150	C	-0.153362	1.393691	-0.787677
C151	C	0.096638	1.643691	-0.537677
C152	C	0.346638	1.893691	-0.287677
C153	C	-0.442574	1.103880	-0.809532
C154	C	-0.192574	1.353880	-0.559532
C155	C	0.057426	1.603880	-0.309532
C156	C	0.307426	1.853880	-0.059532
C157	C	-0.412073	1.134888	-0.206029
C158	C	-0.162073	1.384888	0.043971
C159	C	0.087927	1.634888	0.293971
C160	C	0.337927	1.884888	0.543971
C161	C	-0.407149	1.139822	-0.113117
C162	C	-0.157149	1.389822	0.136883
C163	C	0.092851	1.639822	0.386883
C164	C	0.342851	1.889822	0.636883
H165	H	-0.904232	1.194576	-0.353615
H166	H	-0.654232	1.444576	-0.103615
H167	H	-0.404232	1.694576	0.146385
H168	H	-0.154232	1.944576	0.396385
C169	C	-0.508488	1.036823	-0.955275
C170	C	-0.258488	1.286823	-0.705275
C171	C	-0.008488	1.536823	-0.455275
C172	C	0.241512	1.786823	-0.205275
N173	N	-0.554556	0.989973	-0.993767
N174	N	-0.304556	1.239973	-0.743767
N175	N	-0.054556	1.489973	-0.493767
N176	N	0.195444	1.739973	-0.243767
H177	H	-0.941111	1.052971	-0.492772
H178	H	-0.691111	1.302971	-0.242772
H179	H	-0.441111	1.552971	0.007228
H180	H	-0.191111	1.802971	0.257228
C181	C	-0.337448	1.210759	-0.891942
C182	C	-0.087448	1.460759	-0.641942
C183	C	0.162552	1.710759	-0.391942
C184	C	0.412552	1.960759	-0.141942
N185	N	-0.291387	1.257618	-0.853457
N186	N	-0.041387	1.507618	-0.603457
N187	N	0.208613	1.757618	-0.353457
N188	N	0.458613	2.007618	-0.103457
