data_functionalizedCrystal
_audit_creation_method	'MofGen! by Chris Wilmer'
_symmetry_space_group_name_H-M	'P1'
_symmetry_Int_Tables_number	1
_symmetry_cell_setting	triclinic
loop_
_symmetry_equiv_pos_as_xyz
  x,y,z
_cell_length_a	19.288864
_cell_length_b	9.798715
_cell_length_c	19.288865
_cell_angle_alpha	90.008373
_cell_angle_beta	83.136245
_cell_angle_gamma	90.017526
loop_
_atom_site_label
_atom_site_type_symbol
_atom_site_fract_x
_atom_site_fract_y
_atom_site_fract_z
O1	O	0.921348	0.113944	0.086646
O2	O	0.719087	0.113853	0.098335
O3	O	0.826062	0.113874	-0.008640
O4	O	0.814373	0.113923	0.193621
O5	O	0.826054	-0.113108	-0.008640
O6	O	0.719079	-0.113129	0.098335
O7	O	0.921340	-0.113038	0.086646
Zn8	Zn	0.820208	-0.149122	0.092490
Zn9	Zn	0.820219	0.149937	0.092491
O10	O	0.814365	-0.113059	0.193621
C11	C	0.693207	0.000350	0.097959
C12	C	0.616103	0.000314	0.096830
N13	N	0.820206	-0.353222	0.092490
C14	C	0.571407	0.000350	0.159598
C15	C	0.498960	0.000365	0.158537
C16	C	0.471212	0.000371	0.094705
C17	C	0.515918	0.000327	0.031929
C18	C	0.588364	0.000298	0.032991
C19	C	0.362953	0.079927	0.044526
C20	C	0.290508	0.079963	0.043466
C21	C	0.247767	0.000453	0.091425
C22	C	0.277476	-0.079077	0.140456
C23	C	0.349922	-0.079106	0.141519
C24	C	0.392658	0.000401	0.093546
C25	C	0.124514	0.000503	0.153047
C26	C	0.052066	0.000510	0.151984
C27	C	0.069026	0.000485	0.025374
C28	C	0.141473	0.000465	0.026439
C29	C	0.169212	0.000480	0.090278
C30	C	0.865124	-0.420990	0.047378
C31	C	0.865135	-0.578152	0.047376
C32	C	0.947220	0.000468	0.087022
C33	C	1.024324	0.000513	0.088151
C34	C	0.825682	0.000379	-0.034516
C35	C	0.824553	0.000366	-0.111620
N36	N	0.820226	0.354037	0.092486
C37	C	0.887321	0.000388	-0.156316
C38	C	0.886260	0.000409	-0.228763
C39	C	0.822428	0.000381	-0.256511
C40	C	0.759652	0.000367	-0.211805
C41	C	0.760714	0.000360	-0.139359
C42	C	0.772245	-0.079148	-0.364798
C43	C	0.771186	-0.079149	-0.437243
C44	C	0.819148	0.000410	-0.479956
C45	C	0.868182	0.079953	-0.450218
C46	C	0.869245	0.079946	-0.377773
C47	C	0.821269	0.000390	-0.335065
C48	C	0.880770	0.000457	-0.603209
C49	C	0.879707	0.000486	-0.675657
C50	C	0.753097	0.000431	-0.658697
C51	C	0.754162	0.000415	-0.586250
C52	C	0.818000	0.000421	-0.558511
C53	C	0.814745	0.000439	0.219497
C54	C	0.815874	0.000461	0.296601
H55	H	0.593987	0.000366	0.211580
H56	H	0.397748	0.144682	0.005470
Br57	Br	0.250194	0.187914	-0.023066
Br58	Br	0.202136	0.000419	-0.058751
Br59	Br	0.675522	0.000334	-0.078695
H60	H	0.462561	0.000391	0.209652
H61	H	0.046435	0.000574	-0.026600
Br62	Br	0.673021	0.000347	-0.249460
Br63	Br	0.971451	0.000444	-0.289434
H64	H	0.493322	0.000350	-0.020044
Br65	Br	0.929035	-0.323779	-0.017168
H66	H	0.903594	-0.636430	0.008756
Br67	Br	0.668972	0.000384	-0.525587
Br68	Br	0.219478	-0.186989	0.205551
Br69	Br	0.707148	-0.187133	-0.306836
H70	H	0.147101	0.000496	0.205028
H71	H	0.939303	0.000398	-0.133736
H72	H	0.781770	-0.587695	0.131112
H73	H	0.015674	0.000532	0.203099
Br74	Br	0.666466	0.000407	-0.696346
Br75	Br	0.390242	-0.187037	0.208055
H76	H	0.909169	0.144715	-0.353563
Br77	Br	0.967406	0.000452	-0.565558
H78	H	0.781756	-0.411554	0.131107
Br79	Br	0.933280	0.187934	-0.508178
H80	H	0.930822	0.000511	-0.712049
H81	H	0.731256	-0.143910	-0.461449
H82	H	0.624756	0.000269	-0.018124
