data_functionalizedCrystal
_audit_creation_method	'MofGen! by Chris Wilmer'
_symmetry_space_group_name_H-M	'P1'
_symmetry_Int_Tables_number	1
_symmetry_cell_setting	triclinic
loop_
_symmetry_equiv_pos_as_xyz
  x,y,z
_cell_length_a	10.654554
_cell_length_b	10.654558
_cell_length_c	9.130313
_cell_angle_alpha	90.001600
_cell_angle_beta	89.998999
_cell_angle_gamma	84.487669
loop_
_atom_site_label
_atom_site_type_symbol
_atom_site_fract_x
_atom_site_fract_y
_atom_site_fract_z
O1	O	1.667836	0.176421	-0.121815
O2	O	1.302359	0.193221	-0.121812
O3	O	1.493495	0.002082	-0.121814
O4	O	1.476700	0.367559	-0.121812
O5	O	1.493492	0.002087	0.121784
O6	O	1.302357	0.193226	0.121787
O7	O	1.667834	0.176426	0.121784
Cu8	Cu	1.485095	0.184826	0.144028
Cu9	Cu	1.485098	0.184820	-0.144056
O10	O	1.476698	0.367564	0.121786
C11	C	1.255560	0.191988	-0.000012
C12	C	1.116117	0.188294	-0.000011
C13	C	0.933551	0.068808	-0.000030
C14	C	1.064573	0.072278	-0.000015
C15	C	1.036631	0.300847	-0.000006
C16	C	0.905612	0.297375	-0.000011
C17	C	0.949684	-0.063154	-0.000042
C18	C	1.080706	-0.059684	-0.000027
C19	C	1.492258	-0.044713	-0.000018
C20	C	1.488562	-0.184156	-0.000028
C21	C	1.714633	0.177658	-0.000019
C22	C	1.854076	0.181352	-0.000030
N23	N	1.485102	0.184830	0.346651
C24	C	1.477934	0.414359	-0.000013
C25	C	1.481631	0.553802	-0.000013
C26	C	1.486824	0.750348	0.132763
C27	C	1.483363	0.619325	0.132771
C28	C	1.483372	0.619307	-0.132814
C29	C	1.486842	0.750327	-0.132821
C30	C	1.486814	0.750358	0.286096
C31	C	1.483352	0.619335	0.286105
N32	N	1.485100	0.184807	-0.346679
C33	C	1.569759	0.100223	0.423301
C34	C	1.569756	0.100208	0.576638
C35	C	1.400434	0.269418	0.576660
C36	C	1.400433	0.269426	0.423326
C37	C	1.667519	0.002534	0.423290
C38	C	1.667516	0.002519	0.576627
H39	H	1.122463	-0.109401	-0.101975
H40	H	1.331488	0.338308	0.360918
H41	H	1.758704	0.033124	0.375731
H42	H	0.914055	-0.105177	-0.105225
Br43	Br	1.634596	0.791766	0.384230
Br44	Br	1.828373	0.038370	0.646004
H45	H	1.646073	-0.093998	0.381669
H46	H	1.126342	-0.099558	0.105157
H47	H	1.637000	-0.088704	0.624173
H48	H	0.920319	-0.114764	0.101896
H49	H	1.078608	0.395309	0.000012
H50	H	1.397368	0.802064	0.333668
Br51	Br	1.489233	0.839208	-0.313044
Br52	Br	1.285528	0.384218	0.680727
H53	H	0.840907	0.389020	0.000007
Br54	Br	1.481046	0.530382	-0.313023
H55	H	1.572797	0.567639	0.333695
Br56	Br	1.335559	0.577933	0.384230
