data_functionalizedCrystal
_audit_creation_method	'MofGen! by Chris Wilmer'
_symmetry_space_group_name_H-M	'P1'
_symmetry_Int_Tables_number	1
_symmetry_cell_setting	triclinic
loop_
_symmetry_equiv_pos_as_xyz
  x,y,z
_cell_length_a	14.044191
_cell_length_b	27.732048
_cell_length_c	13.101039
_cell_angle_alpha	93.329410
_cell_angle_beta	86.337551
_cell_angle_gamma	87.917216
loop_
_atom_site_label
_atom_site_type_symbol
_atom_site_fract_x
_atom_site_fract_y
_atom_site_fract_z
O1	O	1.261251	0.114035	-0.085186
O2	O	0.985344	0.109828	-0.085198
O3	O	1.131865	0.041938	-0.085172
O4	O	1.114729	0.181926	-0.085211
O5	O	1.121352	0.046818	0.085256
O6	O	0.974831	0.114708	0.085230
O7	O	1.250738	0.118915	0.085242
Zn8	Zn	1.111115	0.117586	0.112295
Zn9	Zn	1.124966	0.111157	-0.112251
O10	O	1.104216	0.186805	0.085216
C11	C	0.944800	0.110428	0.000015
C12	C	0.839654	0.104940	0.000011
C13	C	0.588945	0.133831	0.000013
C14	C	0.647143	0.094914	0.000023
C15	C	0.754266	0.100494	0.000016
C16	C	0.481811	0.128252	0.000020
C17	C	1.126249	0.026354	0.000045
C18	C	1.125165	-0.027352	0.000053
C19	C	1.204934	-0.362424	0.000004
C20	C	1.200915	-0.564272	-0.000010
O21	O	1.273858	-0.592105	-0.000052
N22	N	1.114033	-0.587475	-0.000013
C23	C	1.028150	-0.560212	-0.000019
O24	O	0.954160	-0.584578	-0.000032
C25	C	1.032170	-0.358364	-0.000012
C26	C	1.119057	-0.335164	0.000001
C27	C	1.291814	-0.339224	0.000016
C28	C	1.292817	-0.288764	0.000026
C29	C	1.206940	-0.261505	0.000023
C30	C	1.120060	-0.284705	0.000011
C31	C	0.946288	-0.331102	-0.000025
C32	C	0.947301	-0.280637	-0.000026
C33	C	1.034188	-0.257438	-0.000013
C34	C	1.035187	-0.206986	0.000017
N35	N	1.122069	-0.183784	0.000020
C36	C	1.207946	-0.211043	0.000023
C37	C	1.026046	-0.666185	-0.000021
C38	C	1.025040	-0.716646	-0.000021
C39	C	1.197806	-0.720704	-0.000014
C40	C	1.198810	-0.670241	-0.000006
C41	C	1.112928	-0.642982	-0.000018
C42	C	1.210046	-0.105075	0.000043
C43	C	1.211042	-0.054611	0.000056
C44	C	1.038277	-0.050558	0.000044
C45	C	1.037280	-0.101018	0.000036
C46	C	1.123173	-0.128275	0.000032
O47	O	0.962284	-0.179123	0.000047
O48	O	1.281926	-0.186668	0.000013
C49	C	1.203930	-0.412883	-0.000005
C50	C	1.117050	-0.436083	-0.000017
C51	C	1.031174	-0.408824	-0.000020
C52	C	1.116045	-0.486545	-0.000017
C53	C	1.201922	-0.513804	-0.000014
C54	C	1.288804	-0.490602	-0.000011
C55	C	1.289807	-0.440142	-0.000002
C56	C	0.944292	-0.432026	-0.000023
C57	C	0.943295	-0.482485	-0.000031
C58	C	1.029172	-0.509745	-0.000028
C59	C	1.291282	0.118315	0.000028
C60	C	1.396428	0.123803	0.000025
C61	C	1.109833	0.202389	-0.000003
C62	C	1.110917	0.256094	-0.000018
N63	N	1.101669	0.121974	0.265542
N64	N	1.134420	0.106765	-0.265498
C65	C	1.088817	0.127949	0.474583
C66	C	1.147269	0.100793	0.525469
C67	C	1.140118	0.104117	0.641786
C68	C	1.095967	0.124625	0.358255
H69	H	0.619570	0.171337	-0.000000
O70	O	1.022633	0.158673	0.526658
C71	C	0.969703	0.183282	0.456443
H72	H	0.973479	0.161283	0.379933
H73	H	0.892078	0.188308	0.487551
H74	H	1.000749	0.220154	0.445069
O75	O	1.295535	-0.032154	0.000020
C76	C	1.371111	-0.067038	0.000042
H77	H	1.347057	-0.103333	-0.032230
H78	H	1.434869	-0.055292	-0.049434
H79	H	1.392522	-0.070696	0.081805
H80	H	1.202682	0.075047	0.481676
H81	H	1.279988	-0.127262	0.000036
H82	H	0.875536	-0.349983	-0.000042
H83	H	0.616521	0.057403	-0.000039
H84	H	1.358727	-0.512805	-0.000004
O85	O	1.377307	-0.266310	-0.000015
C86	C	1.452876	-0.301198	0.000010
H87	H	1.428812	-0.337493	-0.032257
H88	H	1.516636	-0.289457	-0.049469
H89	H	1.474287	-0.304856	0.081773
O90	O	0.858805	-0.504943	-0.000088
C91	C	0.783230	-0.470055	-0.000065
H92	H	0.811271	-0.435601	-0.032315
H93	H	0.725579	-0.484622	-0.049560
H94	H	0.751725	-0.461732	0.081695
O95	O	0.863783	-0.254231	0.000009
C96	C	0.786890	-0.285534	-0.000032
H97	H	0.809510	-0.321178	0.032233
H98	H	0.723708	-0.268124	0.049441
H99	H	0.765274	-0.292611	-0.081799
H100	H	1.267730	-0.742907	-0.000011
O101	O	1.375171	-0.365747	0.000157
C102	C	1.374330	-0.392525	0.088439
H103	H	1.297367	-0.397489	0.117857
H104	H	1.411422	-0.429433	0.068594
H105	H	1.413521	-0.372308	0.150250
H106	H	1.269561	-0.651355	0.000004
O107	O	0.940557	-0.739104	-0.000068
C108	C	0.864981	-0.704216	-0.000047
H109	H	0.893021	-0.669764	-0.032308
H110	H	0.807327	-0.718786	-0.049532
H111	H	0.833483	-0.695889	0.081714
H112	H	0.956106	-0.643995	-0.000030
H113	H	0.966528	-0.119907	0.000054
H114	H	0.968358	-0.028354	0.000045
H115	H	1.360559	-0.421258	0.000009
H116	H	0.874359	-0.409836	-0.000027
