data_functionalizedCrystal
_audit_creation_method	'MofGen! by Chris Wilmer'
_symmetry_space_group_name_H-M	'P1'
_symmetry_Int_Tables_number	1
_symmetry_cell_setting	triclinic
loop_
_symmetry_equiv_pos_as_xyz
  x,y,z
_cell_length_a	13.897449
_cell_length_b	18.101396
_cell_length_c	18.101389
_cell_angle_alpha	89.983791
_cell_angle_beta	90.017847
_cell_angle_gamma	89.961697
loop_
_atom_site_label
_atom_site_type_symbol
_atom_site_fract_x
_atom_site_fract_y
_atom_site_fract_z
Zn1	Zn	1.474546	0.294882	0.418722
Zn2	Zn	1.474393	0.418708	0.294885
Zn3	Zn	1.313243	0.294887	0.294897
Zn4	Zn	1.313162	0.418689	0.418688
O5	O	1.393836	0.356792	0.356798
O6	O	1.609507	0.311313	0.402304
O7	O	1.452986	0.402293	0.191254
O8	O	1.334737	0.191254	0.311342
O9	O	1.609395	0.402288	0.311322
O10	O	1.453246	0.191250	0.402316
O11	O	1.334590	0.311322	0.191263
O12	O	1.178250	0.311304	0.311309
O13	O	1.334600	0.402256	0.522325
O14	O	1.178191	0.402261	0.402257
O15	O	1.453168	0.311295	0.522350
O16	O	1.452908	0.522338	0.311289
O17	O	1.334452	0.522324	0.402246
C18	C	1.143222	0.356782	0.356781
C19	C	1.036008	0.356795	0.356792
C20	C	0.839712	0.356798	0.356811
C21	C	0.948945	0.356794	0.356798
C22	C	1.393681	0.549202	0.356778
C23	C	1.393703	0.631516	0.356795
C24	C	1.393874	0.930607	0.356838
C25	C	1.319522	0.899304	0.414208
C26	C	1.319180	0.813686	0.414027
C27	C	1.393789	0.782225	0.356817
C28	C	1.366264	0.813362	0.278768
C29	C	1.365773	0.899007	0.279113
C30	C	1.495918	0.898953	0.376830
C31	C	1.495330	0.813302	0.378541
C32	C	1.393743	0.698365	0.356801
C33	C	1.393918	1.014467	0.356849
C34	C	1.645429	0.356802	0.356816
C35	C	1.752643	0.356806	0.356823
C36	C	1.393892	0.356773	0.549960
C37	C	1.393915	0.356765	0.632274
C38	C	1.393984	1.163630	0.356837
C39	C	1.393961	1.081315	0.356860
C40	C	1.393836	0.356757	0.164388
C41	C	1.393999	0.356556	0.082074
C42	C	1.393972	0.356626	0.931365
C43	C	1.319115	0.413674	0.900024
C44	C	1.319317	0.413938	0.814406
C45	C	1.393943	0.356695	0.782983
C46	C	1.495568	0.377877	0.814080
C47	C	1.495151	0.378252	0.899726
C48	C	1.368087	0.278269	0.899789
C49	C	1.365825	0.278722	0.814138
C50	C	1.393933	0.356733	0.699123
C51	C	1.393988	0.356590	1.015225
H52	H	1.336567	0.919862	0.472268
H53	H	1.244345	0.920890	0.401132
H54	H	1.418721	0.792983	0.234858
H55	H	1.552814	0.338504	0.920459
O56	O	1.219502	0.396378	0.786540
H57	H	1.221999	0.345512	0.752364
O58	O	1.525145	0.452943	0.785678
H59	H	1.597114	0.467304	0.808042
O60	O	1.524203	0.454126	0.926206
H61	H	1.538413	0.490206	0.877840
H62	H	1.292467	0.791975	0.261529
O63	O	1.218984	0.396298	0.927288
H64	H	1.221496	0.346820	0.963472
O65	O	1.266762	0.257559	0.787214
H66	H	1.247421	0.202393	0.809475
H67	H	1.243549	0.793262	0.400784
H68	H	1.552839	0.337632	0.793728
H69	H	1.291180	0.919049	0.262177
O70	O	1.271623	0.252712	0.928374
H71	H	1.273946	0.249484	0.989583
H72	H	1.416370	0.233962	0.792748
O73	O	1.440299	0.221961	0.926634
H74	H	1.439001	0.219952	0.987911
O75	O	1.341916	0.785788	0.490696
H76	H	1.353259	0.833469	0.528236
O77	O	1.572586	0.784949	0.327202
H78	H	1.575104	0.723726	0.330072
H79	H	1.417579	0.919716	0.234910
O80	O	1.529155	0.927496	0.450937
H81	H	1.473305	0.964566	0.474349
O82	O	1.522846	0.786333	0.454618
H83	H	1.464455	0.750939	0.476871
O84	O	1.341483	0.490136	0.928566
H85	H	1.405689	0.487686	0.964970
H86	H	1.336406	0.472019	0.793924
H87	H	1.551314	0.919194	0.335045
