data_functionalizedCrystal
_audit_creation_method	'MofGen! by Chris Wilmer'
_symmetry_space_group_name_H-M	'P1'
_symmetry_Int_Tables_number	1
_symmetry_cell_setting	triclinic
loop_
_symmetry_equiv_pos_as_xyz
  x,y,z
_cell_length_a	15.944499
_cell_length_b	14.421503
_cell_length_c	8.559649
_cell_angle_alpha	90.005396
_cell_angle_beta	103.371863
_cell_angle_gamma	90.010221
loop_
_atom_site_label
_atom_site_type_symbol
_atom_site_fract_x
_atom_site_fract_y
_atom_site_fract_z
O1	O	1.101283	0.077162	-0.205666
O2	O	0.855082	0.077151	-0.231160
O3	O	0.999873	0.077157	0.014194
O4	O	0.956492	0.077157	-0.451020
O5	O	0.999849	-0.077067	0.014158
O6	O	0.855058	-0.077072	-0.231196
O7	O	1.101259	-0.077061	-0.205702
Cu8	Cu	0.978157	-0.091149	-0.218453
Cu9	Cu	0.978185	0.091238	-0.218410
O10	O	0.956468	-0.077067	-0.451057
C11	C	0.823843	0.000038	-0.230134
C12	C	0.730796	0.000034	-0.227005
C13	C	0.430061	0.000048	-0.369550
C14	C	0.495884	0.076090	-0.295434
C15	C	0.395894	0.000056	-0.215637
C16	C	0.495849	-0.075962	-0.295428
C17	C	0.560441	0.000043	-0.221231
C18	C	0.460491	0.076160	-0.141478
C19	C	0.460449	-0.075960	-0.141494
C20	C	0.526262	0.000100	-0.067266
C21	C	0.301101	0.000063	-0.212419
C22	C	0.655233	0.000042	-0.224437
N23	N	0.978143	-0.219430	-0.218482
C24	C	0.911184	-0.469086	-0.331883
C25	C	0.985086	-0.530885	-0.362878
C26	C	0.978166	-0.408591	-0.218444
C27	C	0.904282	-0.530886	-0.187487
C28	C	0.978181	-0.591313	-0.218411
C29	C	1.052101	-0.469030	-0.249511
C30	C	0.971251	-0.469025	-0.074057
C31	C	1.045211	-0.530796	-0.104990
C32	C	0.978156	-0.303330	-0.218467
C33	C	0.978200	-0.696572	-0.218386
C34	C	1.132498	0.000054	-0.206728
C35	C	1.225545	0.000064	-0.209857
C36	C	1.003149	0.000047	0.073707
C37	C	1.012934	0.000052	0.251089
N38	N	0.978206	0.219520	-0.218368
C39	C	0.953193	0.000045	-0.510569
C40	C	0.943407	0.000046	-0.687952
H41	H	0.511790	0.140373	-0.360523
H42	H	0.990949	-0.558057	-0.484968
N43	N	0.854643	0.000046	0.201420
H44	H	0.822233	0.057213	0.222019
H45	H	0.822286	-0.057166	0.222032
N46	N	0.439613	0.161410	-0.055291
H47	H	0.376471	0.160903	-0.053713
H48	H	0.452826	0.218726	-0.113024
H49	H	0.965361	-0.441832	0.047995
N50	N	1.101710	0.000056	0.361700
H51	H	1.134115	-0.057112	0.341089
H52	H	1.096286	0.000084	0.476944
N53	N	0.439344	-0.161118	-0.055357
H54	H	0.376319	-0.160158	-0.052935
H55	H	0.475756	-0.161677	0.058138
H56	H	0.388487	0.000121	-0.497282
N57	N	1.120316	-0.566481	0.022103
H58	H	1.115585	-0.542981	0.130891
H59	H	1.176023	-0.543850	-0.001623
N60	N	0.581135	0.000139	0.102082
H61	H	0.568414	0.057596	0.160008
H62	H	0.644060	-0.000446	0.098912
N63	N	0.821509	-0.566879	-0.152825
H64	H	0.783688	-0.512927	-0.138134
H65	H	0.835165	-0.605417	-0.051591
N66	N	0.516870	-0.161114	-0.381701
H67	H	0.481315	-0.161043	-0.495866
H68	H	0.503245	-0.218501	-0.324613
H69	H	0.854587	-0.441990	-0.427892
N70	N	1.134885	-0.433202	-0.284360
H71	H	1.134358	-0.363171	-0.284204
H72	H	1.140228	-0.456318	-0.393017
