data_functionalizedCrystal
_audit_creation_method	'MofGen! by Chris Wilmer'
_symmetry_space_group_name_H-M	'P1'
_symmetry_Int_Tables_number	1
_symmetry_cell_setting	triclinic
loop_
_symmetry_equiv_pos_as_xyz
  x,y,z
_cell_length_a	18.215407
_cell_length_b	16.625546
_cell_length_c	18.215399
_cell_angle_alpha	90.029176
_cell_angle_beta	90.019833
_cell_angle_gamma	90.022916
loop_
_atom_site_label
_atom_site_type_symbol
_atom_site_fract_x
_atom_site_fract_y
_atom_site_fract_z
Zn1	Zn	1.125084	-0.321000	0.416110
Zn2	Zn	1.375084	-0.071000	0.666110
Zn3	Zn	1.625084	0.179000	0.916110
Zn4	Zn	1.875084	0.429000	1.166110
Zn5	Zn	1.124998	-0.455841	0.293041
Zn6	Zn	1.374998	-0.205841	0.543041
Zn7	Zn	1.624998	0.044159	0.793041
Zn8	Zn	1.874998	0.294159	1.043041
Zn9	Zn	1.002017	-0.321027	0.293057
Zn10	Zn	1.252017	-0.071027	0.543057
Zn11	Zn	1.502017	0.178973	0.793057
Zn12	Zn	1.752017	0.428973	1.043057
Zn13	Zn	1.001988	-0.455796	0.416066
Zn14	Zn	1.251988	-0.205796	0.666066
Zn15	Zn	1.501988	0.044204	0.916066
Zn16	Zn	1.751988	0.294204	1.166066
O17	O	1.063522	-0.388416	0.354568
O18	O	1.313522	-0.138416	0.604568
O19	O	1.563522	0.111584	0.854568
O20	O	1.813522	0.361584	1.104568
O21	O	1.228057	-0.338895	0.399796
O22	O	1.478057	-0.088895	0.649796
O23	O	1.728057	0.161105	0.899796
O24	O	1.978057	0.411105	1.149796
O25	O	1.108660	-0.437987	0.190059
O26	O	1.358660	-0.187987	0.440059
O27	O	1.608660	0.062013	0.690059
O28	O	1.858660	0.312013	0.940059
O29	O	1.018390	-0.208191	0.309405
O30	O	1.268390	0.041809	0.559405
O31	O	1.518390	0.291809	0.809405
O32	O	1.768390	0.541809	1.059405
O33	O	1.227994	-0.437961	0.309378
O34	O	1.477994	-0.187961	0.559378
O35	O	1.727994	0.062039	0.809378
O36	O	1.977994	0.312039	1.059378
O37	O	1.108807	-0.208171	0.399812
O38	O	1.358807	0.041829	0.649812
O39	O	1.608807	0.291829	0.899812
O40	O	1.858807	0.541829	1.149812
O41	O	1.018307	-0.338940	0.190070
O42	O	1.268307	-0.088940	0.440070
O43	O	1.518307	0.161060	0.690070
O44	O	1.768307	0.411060	0.940070
O45	O	0.899029	-0.338896	0.309363
O46	O	1.149029	-0.088896	0.559363
O47	O	1.399029	0.161104	0.809363
O48	O	1.649029	0.411104	1.059363
O49	O	1.018341	-0.437885	0.519056
O50	O	1.268341	-0.187885	0.769056
O51	O	1.518341	0.062115	1.019056
O52	O	1.768341	0.312115	1.269056
O53	O	0.899008	-0.437910	0.399737
O54	O	1.149008	-0.187910	0.649737
O55	O	1.399008	0.062090	0.899737
O56	O	1.649008	0.312090	1.149737
O57	O	1.108779	-0.338851	0.519088
O58	O	1.358779	-0.088851	0.769088
O59	O	1.608779	0.161149	1.019088
O60	O	1.858779	0.411149	1.269088
O61	O	1.108632	-0.568667	0.309335
O62	O	1.358632	-0.318667	0.559335
O63	O	1.608632	-0.068667	0.809335
O64	O	1.858632	0.181333	1.059335
O65	O	1.018257	-0.568634	0.399721
O66	O	1.268257	-0.318634	0.649721
O67	O	1.518257	-0.068634	0.899721
O68	O	1.768257	0.181366	1.149721
C69	C	0.872315	-0.388402	0.354547
C70	C	1.122315	-0.138402	0.604547
C71	C	1.372315	0.111598	0.854547
C72	C	1.622315	0.361598	1.104547
C73	C	0.790517	-0.388415	0.354556
C74	C	1.040517	-0.138415	0.604556
C75	C	1.290517	0.111585	0.854556
C76	C	1.540517	0.361585	1.104556
C77	C	0.602331	-0.440053	0.401554
C78	C	0.852331	-0.190053	0.651554
C79	C	1.102331	0.059947	0.901554
C80	C	1.352331	0.309947	1.151554
C81	C	0.525472	-0.440056	0.401563
C82	C	0.775472	-0.190056	0.651563
C83	C	1.025472	0.059944	0.901563
C84	C	1.275472	0.309944	1.151563
C85	C	0.525465	-0.336793	0.307598
C86	C	0.775465	-0.086793	0.557598
C87	C	1.025465	0.163207	0.807598
C88	C	1.275465	0.413207	1.057598
C89	C	0.602322	-0.336787	0.307593
C90	C	0.852322	-0.086787	0.557593
C91	C	1.102322	0.163213	0.807593
C92	C	1.352322	0.413213	1.057593
C93	C	0.640753	-0.388422	0.354570
C94	C	0.890753	-0.138422	0.604570
C95	C	1.140753	0.111578	0.854570
C96	C	1.390753	0.361578	1.104570
C97	C	0.487037	-0.388430	0.354584
C98	C	0.737037	-0.138430	0.604584
C99	C	0.987037	0.111570	0.854584
C100	C	1.237037	0.361570	1.104584
C101	C	0.403703	-0.388433	0.354594
C102	C	0.653703	-0.138433	0.604594
C103	C	0.903703	0.111567	0.854594
C104	C	1.153703	0.361567	1.104594
C105	C	0.724092	-0.388418	0.354562
C106	C	0.974092	-0.138418	0.604562
C107	C	1.224092	0.111582	0.854562
C108	C	1.474092	0.361582	1.104562
C109	C	1.063452	-0.597907	0.354537
C110	C	1.313452	-0.347907	0.604537
C111	C	1.563452	-0.097907	0.854537
C112	C	1.813452	0.152093	1.104537
C113	C	1.063490	-0.687528	0.354549
C114	C	1.313490	-0.437528	0.604549
C115	C	1.563490	-0.187528	0.854549
C116	C	1.813490	0.062472	1.104549
C117	C	1.063618	-1.015703	0.354625
C118	C	1.313618	-0.765703	0.604625
C119	C	1.563618	-0.515703	0.854625
C120	C	1.813618	-0.265703	1.104625
C121	C	1.063580	-0.924395	0.354606
C122	C	1.313580	-0.674395	0.604606
C123	C	1.563580	-0.424395	0.854606
C124	C	1.813580	-0.174395	1.104606
C125	C	1.063553	-0.851618	0.354587
C126	C	1.313553	-0.601618	0.604587
C127	C	1.563553	-0.351618	0.854587
C128	C	1.813553	-0.101618	1.104587
C129	C	1.063516	-0.760304	0.354568
C130	C	1.313516	-0.510304	0.604568
C131	C	1.563516	-0.260304	0.854568
C132	C	1.813516	-0.010304	1.104568
C133	C	1.255475	-0.388430	0.354590
C134	C	1.505475	-0.138430	0.604590
C135	C	1.755475	0.111570	0.854590
C136	C	2.005475	0.361570	1.104590
C137	C	1.337274	-0.388436	0.354599
C138	C	1.587274	-0.138436	0.604599
C139	C	1.837274	0.111564	0.854599
C140	C	2.087274	0.361564	1.104599
C141	C	1.063567	-0.388360	0.546521
C142	C	1.313567	-0.138360	0.796521
C143	C	1.563567	0.111640	1.046521
C144	C	1.813567	0.361640	1.296521
C145	C	1.063586	-0.388336	0.628320
C146	C	1.313586	-0.138336	0.878320
C147	C	1.563586	0.111664	1.128320
C148	C	1.813586	0.361664	1.378320
C149	C	1.063612	-0.178107	0.354615
C150	C	1.313612	0.071893	0.604615
C151	C	1.563612	0.321893	0.854615
C152	C	1.813612	0.571893	1.104615
C153	C	1.063650	-0.088486	0.354635
C154	C	1.313650	0.161514	0.604635
C155	C	1.563650	0.411514	0.854635
C156	C	1.813650	0.661514	1.104635
C157	C	1.063519	-0.388413	0.163362
C158	C	1.313519	-0.138413	0.413362
C159	C	1.563519	0.111587	0.663362
C160	C	1.813519	0.361587	0.913362
C161	C	1.063643	-0.388209	0.081563
C162	C	1.313643	-0.138209	0.331563
C163	C	1.563643	0.111791	0.581563
C164	C	1.813643	0.361791	0.831563
C165	C	1.110694	-0.336721	0.816532
C166	C	1.360694	-0.086721	1.066532
C167	C	1.610694	0.163279	1.316532
C168	C	1.860694	0.413279	1.566532
C169	C	1.110703	-0.336698	0.893391
C170	C	1.360703	-0.086698	1.143391
C171	C	1.610703	0.163302	1.393391
C172	C	1.860703	0.413302	1.643391
C173	C	1.016530	-0.439827	0.893346
C174	C	1.266530	-0.189827	1.143346
C175	C	1.516530	0.060173	1.393346
C176	C	1.766530	0.310173	1.643346
C177	C	1.016518	-0.439846	0.816489
C178	C	1.266518	-0.189846	1.066489
C179	C	1.516518	0.060154	1.316489
C180	C	1.766518	0.310154	1.566489
C181	C	1.063604	-0.388294	0.778084
C182	C	1.313604	-0.138294	1.028084
C183	C	1.563604	0.111706	1.278084
C184	C	1.813604	0.361706	1.528084
C185	C	1.063625	-0.388252	0.931800
C186	C	1.313625	-0.138252	1.181800
C187	C	1.563625	0.111748	1.431800
C188	C	1.813625	0.361748	1.681800
C189	C	1.063634	-0.388227	1.015134
C190	C	1.313634	-0.138227	1.265134
C191	C	1.563634	0.111773	1.515134
C192	C	1.813634	0.361773	1.765134
C193	C	1.063594	-0.388318	0.694745
C194	C	1.313594	-0.138318	0.944745
C195	C	1.563594	0.111682	1.194745
C196	C	1.813594	0.361682	1.444745
H197	H	0.494192	-0.482098	0.439823
H198	H	0.744192	-0.232098	0.689823
H199	H	0.994192	0.017902	0.939823
H200	H	1.244192	0.267902	1.189823
C201	C	0.688726	-0.325442	0.208615
C202	C	0.938726	-0.075442	0.458615
C203	C	1.188726	0.174558	0.708615
C204	C	1.438726	0.424558	0.958615
C205	C	0.644564	-0.280031	0.255945
C206	C	0.894564	-0.030031	0.505945
C207	C	1.144564	0.219969	0.755945
C208	C	1.394564	0.469969	1.005945
H209	H	0.714807	-0.290402	0.176737
H210	H	0.964807	-0.040402	0.426737
H211	H	1.214807	0.209598	0.676737
H212	H	1.464807	0.459598	0.926737
H213	H	0.658721	-0.360527	0.180410
H214	H	0.908721	-0.110527	0.430410
H215	H	1.158721	0.139473	0.680410
H216	H	1.408721	0.389473	0.930410
H217	H	0.722608	-0.356186	0.236604
H218	H	0.972608	-0.106186	0.486604
H219	H	1.222608	0.143814	0.736604
H220	H	1.472608	0.393814	0.986604
H221	H	0.610677	-0.249291	0.227956
H222	H	0.860677	0.000709	0.477956
H223	H	1.110677	0.250709	0.727956
H224	H	1.360677	0.500709	0.977956
H225	H	0.674571	-0.244932	0.284153
H226	H	0.924571	0.005068	0.534153
H227	H	1.174571	0.255068	0.784153
H228	H	1.424571	0.505068	1.034153
C229	C	0.594616	-0.542115	0.494443
C230	C	0.844616	-0.292115	0.744443
C231	C	1.094616	-0.042115	0.994443
C232	C	1.344616	0.207885	1.244443
C233	C	0.644575	-0.496800	0.453198
C234	C	0.894575	-0.246800	0.703198
C235	C	1.144575	0.003200	0.953198
C236	C	1.394575	0.253200	1.203198
H237	H	0.620695	-0.577143	0.526331
H238	H	0.870695	-0.327143	0.776331
H239	H	1.120695	-0.077143	1.026331
H240	H	1.370695	0.172857	1.276331
H241	H	0.564619	-0.572917	0.462333
H242	H	0.814619	-0.322917	0.712333
H243	H	1.064619	-0.072917	0.962333
H244	H	1.314619	0.177083	1.212333
H245	H	0.564658	-0.507014	0.522646
H246	H	0.814658	-0.257014	0.772646
H247	H	1.064658	-0.007014	1.022646
H248	H	1.314658	0.242986	1.272646
H249	H	0.674529	-0.531901	0.424991
H250	H	0.924529	-0.281901	0.674991
H251	H	1.174529	-0.031901	0.924991
H252	H	1.424529	0.218099	1.174991
H253	H	0.674584	-0.465996	0.485313
H254	H	0.924584	-0.215996	0.735313
H255	H	1.174584	0.034004	0.985313
H256	H	1.424584	0.284004	1.235313
C257	C	0.407644	-0.290950	0.265883
C258	C	0.657644	-0.040950	0.515883
C259	C	0.907644	0.209050	0.765883
C260	C	1.157644	0.459050	1.015883
C261	C	0.483218	-0.280041	0.255960
C262	C	0.733218	-0.030041	0.505960
C263	C	0.983218	0.219959	0.755960
C264	C	1.233218	0.469959	1.005960
H265	H	0.381565	-0.255916	0.233999
H266	H	0.631565	-0.005916	0.483999
H267	H	0.881565	0.244084	0.733999
H268	H	1.131565	0.494084	0.983999
H269	H	0.395076	-0.279219	0.315344
H270	H	0.645076	-0.029219	0.565344
H271	H	0.895076	0.220781	0.815344
H272	H	1.145076	0.470781	1.065344
H273	H	0.395035	-0.345114	0.255023
H274	H	0.645035	-0.095114	0.505023
H275	H	0.895035	0.154886	0.755023
H276	H	1.145035	0.404886	1.005023
H277	H	0.495828	-0.225879	0.266826
H278	H	0.745828	0.024121	0.516826
H279	H	0.995828	0.274121	0.766826
H280	H	1.245828	0.524121	1.016826
H281	H	0.495791	-0.291767	0.206488
H282	H	0.745791	-0.041767	0.456488
H283	H	0.995791	0.208233	0.706488
H284	H	1.245791	0.458233	0.956488
C285	C	1.120981	-0.228208	0.979839
C286	C	1.370981	0.021792	1.229839
C287	C	1.620981	0.271792	1.479839
C288	C	1.870981	0.521792	1.729839
C289	C	1.162465	-0.280003	0.935650
C290	C	1.412465	-0.030003	1.185650
C291	C	1.662465	0.219997	1.435650
C292	C	1.912465	0.469997	1.685650
H293	H	1.152938	-0.193201	1.005923
H294	H	1.402938	0.056799	1.255923
H295	H	1.652938	0.306799	1.505923
H296	H	1.902938	0.556799	1.755923
H297	H	1.092953	-0.258906	1.013712
H298	H	1.342953	-0.008906	1.263712
H299	H	1.592953	0.241094	1.513712
H300	H	1.842953	0.491094	1.763712
H301	H	1.088926	-0.197380	0.949846
H302	H	1.338926	0.052620	1.199846
H303	H	1.588926	0.302620	1.449846
H304	H	1.838926	0.552620	1.699846
H305	H	1.194516	-0.310836	0.965644
H306	H	1.444516	-0.060836	1.215644
H307	H	1.694516	0.189164	1.465644
H308	H	1.944516	0.439164	1.715644
H309	H	1.190505	-0.249303	0.901773
H310	H	1.440505	0.000697	1.151773
H311	H	1.690505	0.250697	1.401773
H312	H	1.940505	0.500697	1.651773
C313	C	1.146584	-0.200194	0.792912
C314	C	1.396584	0.049806	1.042912
C315	C	1.646584	0.299806	1.292912
C316	C	1.896584	0.549806	1.542912
C317	C	1.162442	-0.280048	0.774317
C318	C	1.412442	-0.030048	1.024317
C319	C	1.662442	0.219952	1.274317
C320	C	1.912442	0.469952	1.524317
H321	H	1.178528	-0.165205	0.766848
H322	H	1.428528	0.084795	1.016848
H323	H	1.678528	0.334795	1.266848
H324	H	1.928528	0.584795	1.516848
H325	H	1.153331	-0.192810	0.844183
H326	H	1.403331	0.057190	1.094183
H327	H	1.653331	0.307190	1.344183
H328	H	1.903331	0.557190	1.594183
H329	H	1.097137	-0.188409	0.780305
H330	H	1.347137	0.061591	1.030305
H331	H	1.597137	0.311591	1.280305
H332	H	1.847137	0.561591	1.530305
H333	H	1.211887	-0.291835	0.786929
H334	H	1.461887	-0.041835	1.036929
H335	H	1.711887	0.208165	1.286929
H336	H	1.961887	0.458165	1.536929
H337	H	1.155701	-0.287437	0.723035
H338	H	1.405701	-0.037437	0.973035
H339	H	1.655701	0.212563	1.223035
H340	H	1.905701	0.462563	1.473035
H341	H	0.978195	-0.481800	0.924625
H342	H	1.228195	-0.231800	1.174625
H343	H	1.478195	0.018200	1.424625
H344	H	1.728195	0.268200	1.674625
H345	H	0.978166	-0.481842	0.785183
H346	H	1.228166	-0.231842	1.035183
H347	H	1.478166	0.018158	1.285183
H348	H	1.728166	0.268158	1.535183
