data_functionalizedCrystal
_audit_creation_method	'MofGen! by Chris Wilmer'
_symmetry_space_group_name_H-M	'P1'
_symmetry_Int_Tables_number	1
_symmetry_cell_setting	triclinic
loop_
_symmetry_equiv_pos_as_xyz
  x,y,z
_cell_length_a	16.109318
_cell_length_b	14.586319
_cell_length_c	16.109301
_cell_angle_alpha	90.007381
_cell_angle_beta	83.465022
_cell_angle_gamma	89.996962
loop_
_atom_site_label
_atom_site_type_symbol
_atom_site_fract_x
_atom_site_fract_y
_atom_site_fract_z
O1	O	1.103118	0.076167	0.106938
O2	O	1.603118	0.576167	0.606938
O3	O	0.861058	0.076186	0.120222
O4	O	1.361058	0.576186	0.620222
O5	O	0.988737	0.076167	-0.007451
O6	O	1.488737	0.576167	0.492549
O7	O	0.975438	0.076186	0.234610
O8	O	1.475438	0.576186	0.734610
O9	O	0.988736	-0.076314	-0.007459
O10	O	1.488736	0.423686	0.492541
O11	O	0.861057	-0.076295	0.120214
O12	O	1.361057	0.423705	0.620214
O13	O	1.103117	-0.076314	0.106930
O14	O	1.603117	0.423686	0.606930
Cu15	Cu	0.982087	-0.090227	0.113571
Cu16	Cu	1.482087	0.409773	0.613571
Cu17	Cu	0.982088	0.090099	0.113581
Cu18	Cu	1.482088	0.590099	0.613581
O19	O	0.975437	-0.076294	0.234602
O20	O	1.475437	0.423706	0.734602
C21	C	0.988198	-0.000074	-0.038430
C22	C	1.488198	0.499926	0.461570
C23	C	0.986583	-0.000075	-0.130725
C24	C	1.486583	0.499925	0.369275
C25	C	0.830083	-0.000052	0.119677
C26	C	1.330083	0.499948	0.619677
C27	C	0.737788	-0.000045	0.118057
C28	C	1.237788	0.499955	0.618057
C29	C	0.438715	0.083055	0.112826
C30	C	0.938715	0.583055	0.612826
C31	C	0.525436	0.083061	0.114343
C32	C	1.025436	0.583061	0.614343
C33	C	0.525454	-0.083182	0.114323
C34	C	1.025454	0.416818	0.614323
C35	C	0.438735	-0.083187	0.112800
C36	C	0.938735	0.416813	0.612800
C37	C	0.395367	-0.000065	0.112056
C38	C	0.895367	0.499935	0.612056
C39	C	0.568807	-0.000055	0.115096
C40	C	1.068807	0.499945	0.615096
C41	C	0.662835	-0.000049	0.116742
C42	C	1.162835	0.499951	0.616742
C43	C	0.301334	-0.000070	0.110409
C44	C	0.801334	0.499930	0.610409
C45	C	1.134092	-0.000074	0.107474
C46	C	1.634092	0.499926	0.607474
C47	C	1.226387	-0.000075	0.109095
C48	C	1.726387	0.499925	0.609095
N49	N	0.982089	0.216931	0.113581
N50	N	1.482089	0.716931	0.613581
N51	N	0.982092	-0.217059	0.113564
N52	N	1.482092	0.282941	0.613564
C53	C	1.038735	0.451929	0.057157
C54	C	1.538735	0.951929	0.557157
C55	C	1.038737	0.547910	0.057155
C56	C	1.538737	1.047910	0.557155
C57	C	0.925444	0.547937	0.169994
C58	C	1.425444	1.047937	0.669994
C59	C	0.925446	0.451957	0.169999
C60	C	1.425446	0.951957	0.669999
C61	C	0.982091	0.403956	0.113576
C62	C	1.482091	0.903956	0.613576
C63	C	0.982091	0.595916	0.113569
C64	C	1.482091	1.095916	0.613569
C65	C	0.982093	0.699984	0.113567
C66	C	1.482093	1.199984	0.613567
C67	C	0.982090	0.299882	0.113579
C68	C	1.482090	0.799882	0.613579
C69	C	1.058590	-0.000067	-0.352993
C70	C	1.558590	0.499933	0.147007
C71	C	1.057066	-0.000059	-0.439713
C72	C	1.557066	0.499941	0.060287
C73	C	0.905579	-0.000051	-0.419848
C74	C	1.405579	0.499949	0.080152
C75	C	0.907104	-0.000052	-0.333130
C76	C	1.407104	0.499948	0.166870
C77	C	0.983612	-0.000064	-0.299704
C78	C	1.483612	0.499936	0.200296
C79	C	0.980563	-0.000056	-0.473144
C80	C	1.480563	0.499944	0.026856
C81	C	0.978910	-0.000047	-0.567170
C82	C	1.478910	0.499953	-0.067170
C83	C	0.985265	-0.000071	-0.205672
C84	C	1.485265	0.499929	0.294328
C85	C	0.975976	-0.000052	0.265581
C86	C	1.475976	0.499948	0.765581
C87	C	0.977592	-0.000044	0.357877
C88	C	1.477592	0.499956	0.857877
H89	H	0.560726	0.150746	0.114970
H90	H	1.060726	0.650746	0.614970
O91	O	0.396499	-0.163853	0.112008
O92	O	0.896499	0.336147	0.612008
C93	C	0.310657	-0.146031	0.110519
C94	C	0.810657	0.353969	0.610519
H95	H	0.302260	-0.074593	0.084019
H96	H	0.802260	0.425407	0.584019
H97	H	0.282995	-0.199111	0.069587
H98	H	0.782995	0.300889	0.569587
H99	H	0.277304	-0.149976	0.176744
H100	H	0.777304	0.350024	0.676744
O101	O	1.132855	0.000053	-0.320423
O102	O	1.632855	0.500053	0.179577
C103	C	1.138273	0.079035	-0.270862
C104	C	1.638273	0.579035	0.229138
H105	H	1.072737	0.105362	-0.249244
H106	H	1.572737	0.605362	0.250756
H107	H	1.171404	0.061275	-0.214088
H108	H	1.671404	0.561275	0.285912
H109	H	1.175058	0.134335	-0.309178
H110	H	1.675058	0.634335	0.190822
O111	O	1.093839	0.405442	0.002321
O112	O	1.593839	0.905442	0.502321
C113	C	1.143820	0.468371	-0.047490
C114	C	1.643820	0.968371	0.452510
H115	H	1.144683	0.536793	-0.013394
H116	H	1.644683	1.036793	0.486606
H117	H	1.210226	0.440634	-0.060027
H118	H	1.710226	0.940634	0.439973
H119	H	1.116967	0.478571	-0.109328
H120	H	1.616967	0.978571	0.390672
O121	O	0.567475	-0.163981	0.115162
O122	O	1.067475	0.336019	0.615162
C123	C	0.536867	-0.214537	0.186756
C124	C	1.036867	0.285463	0.686756
H125	H	0.470755	-0.190904	0.209643
H126	H	0.970755	0.309096	0.709643
H127	H	0.536028	-0.290578	0.170510
H128	H	1.036028	0.209422	0.670510
H129	H	0.579065	-0.203014	0.238006
H130	H	1.079065	0.296986	0.738006
H131	H	0.846043	-0.000047	-0.289740
H132	H	1.346043	0.499953	0.210260
H133	H	0.403408	0.150738	0.112219
H134	H	0.903408	0.650738	0.612219
O135	O	1.093589	0.594542	0.002201
O136	O	1.593589	1.094542	0.502201
C137	C	1.049086	0.649936	-0.049208
C138	C	1.549086	1.149936	0.450792
H139	H	0.984029	0.664394	-0.016133
H140	H	1.484029	1.164394	0.483867
H141	H	1.083805	0.717397	-0.062467
H142	H	1.583805	1.217397	0.437533
H143	H	1.043439	0.612813	-0.110593
H144	H	1.543439	1.112813	0.389407
O145	O	0.870530	0.594669	0.224829
O146	O	1.370530	1.094669	0.724829
C147	C	0.914923	0.650184	0.276246
C148	C	1.414923	1.150184	0.776246
H149	H	0.980038	0.664554	0.243277
H150	H	1.480038	1.164554	0.743277
H151	H	0.880198	0.717680	0.289314
H152	H	1.380198	1.217680	0.789314
H153	H	0.920430	0.613210	0.337724
H154	H	1.420430	1.113210	0.837724
O155	O	0.870337	0.405492	0.224838
O156	O	1.370337	0.905492	0.724838
C157	C	0.820349	0.468438	0.274646
C158	C	1.320349	0.968438	0.774646
H159	H	0.819481	0.536849	0.240548
H160	H	1.319481	1.036849	0.740548
H161	H	0.753945	0.440706	0.287182
H162	H	1.253945	0.940706	0.787182
H163	H	0.847198	0.478658	0.336485
H164	H	1.347198	0.978658	0.836485
O165	O	1.129977	-0.000105	-0.491359
O166	O	1.629977	0.499895	0.008641
C167	C	1.197827	-0.000091	-0.443257
C168	C	1.697827	0.499909	0.056743
H169	H	1.176708	-0.028961	-0.378534
H170	H	1.676708	0.471039	0.121466
H171	H	1.250361	-0.044363	-0.475265
H172	H	1.750361	0.455637	0.024735
H173	H	1.221279	0.073059	-0.437075
H174	H	1.721279	0.573059	0.062925
H175	H	0.843288	-0.000042	-0.447074
H176	H	1.343288	0.499958	0.052926
