data_functionalizedCrystal
_audit_creation_method	'MofGen! by Chris Wilmer'
_symmetry_space_group_name_H-M	'P1'
_symmetry_Int_Tables_number	1
_symmetry_cell_setting	triclinic
loop_
_symmetry_equiv_pos_as_xyz
  x,y,z
_cell_length_a	21.295420
_cell_length_b	21.295417
_cell_length_c	12.594509
_cell_angle_alpha	90.035198
_cell_angle_beta	90.021167
_cell_angle_gamma	90.027953
loop_
_atom_site_label
_atom_site_type_symbol
_atom_site_fract_x
_atom_site_fract_y
_atom_site_fract_z
Zn1	Zn	0.962337	-0.250620	0.601804
Zn2	Zn	0.962247	-0.355898	0.423804
Zn3	Zn	0.857067	-0.250644	0.423833
Zn4	Zn	0.857031	-0.355852	0.601734
O5	O	0.909671	-0.303253	0.512794
O6	O	1.050414	-0.264594	0.578209
O7	O	0.948272	-0.341966	0.274862
O8	O	0.871083	-0.162551	0.447483
O9	O	1.050349	-0.341942	0.447433
O10	O	0.948425	-0.162533	0.578237
O11	O	0.870996	-0.264636	0.274883
O12	O	0.768973	-0.264590	0.447415
O13	O	0.871023	-0.341863	0.750689
O14	O	0.768946	-0.341886	0.578119
O15	O	0.948391	-0.264549	0.750741
O16	O	0.948238	-0.443981	0.447365
O17	O	0.870936	-0.443947	0.578090
C18	C	0.746119	-0.303236	0.512763
C19	C	0.676151	-0.303244	0.512775
C20	C	0.909590	-0.466805	0.512740
C21	C	0.909614	-0.536773	0.512752
C22	C	0.176696	-0.343575	0.580785
C23	C	0.242438	-0.343576	0.580774
C24	C	0.275311	-0.303268	0.512827
C25	C	0.242437	-0.262968	0.444868
C26	C	0.176695	-0.262973	0.444873
N27	N	0.378552	-0.248151	0.504823
N28	N	0.441003	-0.248148	0.504824
C29	C	0.473386	-0.303250	0.512805
N30	N	0.440958	-0.358356	0.520805
N31	N	0.378501	-0.358359	0.520809
C32	C	0.346597	-0.303258	0.512813
C33	C	0.577538	-0.343551	0.580742
C34	C	0.643282	-0.343552	0.580724
C35	C	0.643279	-0.262938	0.444823
C36	C	0.577537	-0.262943	0.444836
C37	C	0.544670	-0.303248	0.512802
C38	C	0.949862	-0.569573	0.580885
C39	C	0.949885	-0.635316	0.580911
C40	C	0.909665	-0.668256	0.512786
C41	C	0.869408	-0.635447	0.444649
C42	C	0.869383	-0.569706	0.444632
N43	N	0.904909	-0.771522	0.419635
N44	N	0.904936	-0.833973	0.419654
C45	C	0.909738	-0.866330	0.512834
N46	N	0.914523	-0.833877	0.605996
N47	N	0.914498	-0.771419	0.605976
C48	C	0.909688	-0.739541	0.512797
C49	C	0.950013	-0.970416	0.581001
C50	C	0.950031	-1.036160	0.581029
C51	C	0.869558	-1.036290	0.444757
C52	C	0.869537	-0.970548	0.444738
C53	C	0.909768	-0.937614	0.512859
C54	C	1.073861	-0.303271	0.512825
C55	C	1.143829	-0.303278	0.512838
C56	C	0.909713	-0.303198	0.790415
C57	C	0.909731	-0.303175	0.908720
C58	C	0.909768	-0.139063	0.512871
C59	C	0.909810	-0.069095	0.512904
C60	C	0.909665	-0.303263	0.236253
C61	C	0.909769	-0.303109	0.117948
C62	C	0.867664	-0.345202	0.977946
C63	C	0.925099	-0.360584	1.048733
C64	C	0.852340	-0.287754	1.048733
C65	C	0.967196	-0.318587	0.977949
C66	C	0.894399	-0.245731	0.977943
C67	C	0.951874	-0.261091	1.048698
H68	H	0.149940	-0.376397	0.636124
N69	N	0.826133	-0.935163	0.371242
H70	H	0.781154	-0.946635	0.387699
H71	H	0.835996	-0.946644	0.295241
H72	H	0.269204	-0.376390	0.636107
H73	H	0.803790	-0.274739	1.079826
N74	N	0.141244	-0.219508	0.371582
H75	H	0.152706	-0.174541	0.388243
H76	H	0.094621	-0.225681	0.381933
N77	N	0.542079	-0.387022	0.654032
H78	H	0.553545	-0.377300	0.730110
H79	H	0.553507	-0.431970	0.637272
H80	H	0.938088	-0.409135	1.079828
N81	N	0.678735	-0.219461	0.371550
H82	H	0.667317	-0.174497	0.388224
H83	H	0.667262	-0.229234	0.295498
N84	N	0.877173	-0.181442	0.936705
H85	H	0.833775	-0.169856	0.962402
H86	H	0.877730	-0.181901	0.856524
N87	N	0.993390	-0.934885	0.654483
H88	H	1.022567	-0.907604	0.611269
H89	H	1.018846	-0.965679	0.697648
N90	N	0.999067	-0.213979	1.089610
H91	H	0.998561	-0.213956	1.169798
H92	H	0.987833	-0.170764	1.062647
H93	H	0.836806	-1.063109	0.389295
N94	N	0.277888	-0.219495	0.371577
H95	H	0.324523	-0.225604	0.381885
H96	H	0.266418	-0.174549	0.388277
N97	N	0.678735	-0.387023	0.654003
H98	H	0.647936	-0.412554	0.697056
H99	H	0.706038	-0.361431	0.703330
H100	H	0.550776	-0.230126	0.389511
H101	H	0.982619	-0.542761	0.636355
H102	H	0.982655	-0.662027	0.636405
H103	H	0.836659	-0.662271	0.389183
H104	H	0.982806	-1.062865	0.636515
N105	N	0.825971	-0.534324	0.371141
H106	H	0.800493	-0.565164	0.327988
H107	H	0.851603	-0.507050	0.321917
H108	H	0.832117	-0.380798	0.946881
N109	N	1.031527	-0.335901	0.936950
H110	H	1.031111	-0.335837	0.856759
H111	H	1.043179	-0.379115	0.963403
