data_functionalizedCrystal
_audit_creation_method	'MofGen! by Chris Wilmer'
_symmetry_space_group_name_H-M	'P1'
_symmetry_Int_Tables_number	1
_symmetry_cell_setting	triclinic
loop_
_symmetry_equiv_pos_as_xyz
  x,y,z
_cell_length_a	17.640280
_cell_length_b	17.640112
_cell_length_c	17.640968
_cell_angle_alpha	92.139080
_cell_angle_beta	114.317439
_cell_angle_gamma	87.815931
loop_
_atom_site_label
_atom_site_type_symbol
_atom_site_fract_x
_atom_site_fract_y
_atom_site_fract_z
Zn1	Zn	-0.023073	-1.251359	0.189698
Zn2	Zn	0.476927	-0.751359	0.689698
Zn3	Zn	-0.188752	-1.251298	0.024069
Zn4	Zn	0.311248	-0.751298	0.524069
Zn5	Zn	-0.075311	-1.106797	0.076159
Zn6	Zn	0.424689	-0.606797	0.576159
Zn7	Zn	-0.178182	-1.148399	0.179117
Zn8	Zn	0.321818	-0.648399	0.679117
O9	O	-0.116329	-1.189463	0.117261
O10	O	0.383671	-0.689463	0.617261
O11	O	-0.027613	-1.354914	0.150355
O12	O	0.472387	-0.854914	0.650355
O13	O	-0.199989	-1.214694	-0.081425
O14	O	0.300011	-0.714694	0.418575
O15	O	0.044008	-1.108588	0.117448
O16	O	0.544008	-0.608588	0.617448
O17	O	-0.149337	-1.354870	0.028669
O18	O	0.350663	-0.854870	0.528669
O19	O	0.082386	-1.214797	0.200865
O20	O	0.582386	-0.714797	0.700865
O21	O	-0.116644	-1.108529	-0.043155
O22	O	0.383356	-0.608529	0.456845
O23	O	-0.106394	-1.008752	0.107188
O24	O	0.393606	-0.508752	0.607188
O25	O	-0.131321	-1.179493	0.292925
O26	O	0.368679	-0.679493	0.792925
O27	O	-0.181973	-1.039317	0.182831
O28	O	0.318027	-0.539317	0.682831
O29	O	-0.017364	-1.255137	0.300699
O30	O	0.482636	-0.755137	0.800699
O31	O	-0.299739	-1.255033	0.018409
O32	O	0.200261	-0.755033	0.518409
O33	O	-0.291973	-1.179434	0.132322
O34	O	0.208027	-0.679434	0.632322
C35	C	-0.148705	-0.997182	0.149514
C36	C	0.351295	-0.497182	0.649514
C37	C	-0.162571	-0.914929	0.163327
C38	C	0.337429	-0.414929	0.663327
C39	C	-0.324990	-1.221764	0.068579
C40	C	0.175010	-0.721764	0.568579
C41	C	-0.414238	-1.235655	0.047768
C42	C	0.085762	-0.735655	0.547768
C43	C	-0.067336	-1.221962	0.326772
C44	C	0.432664	-0.721962	0.826772
C45	C	-0.046458	-1.235811	0.416053
C46	C	0.453542	-0.735811	0.916053
C47	C	-0.687787	-1.084287	0.275600
C48	C	-0.187787	-0.584287	0.775600
C49	C	-0.771655	-1.097337	0.256019
C50	C	-0.271655	-0.597337	0.756019
C51	C	-0.779643	-1.176134	0.137496
C52	C	-0.279643	-0.676134	0.637496
C53	C	-0.695773	-1.163094	0.157069
C54	C	-0.195773	-0.663094	0.657069
C55	C	-0.649852	-1.117169	0.226122
C56	C	-0.149852	-0.617169	0.726122
C57	C	-0.657837	-1.195976	0.107591
C58	C	-0.157837	-0.695976	0.607591
C59	C	-0.573976	-1.182933	0.127160
C60	C	-0.073976	-0.682933	0.627160
C61	C	-0.528050	-1.137009	0.196208
C62	C	-0.028050	-0.637009	0.696208
C63	C	-0.565990	-1.104127	0.245691
C64	C	-0.065990	-0.604127	0.745691
C65	C	-0.703761	-1.241896	0.038535
C66	C	-0.203761	-0.741896	0.538535
C67	C	-0.665825	-1.274778	-0.010944
C68	C	-0.165825	-0.774778	0.489056
C69	C	-0.581961	-1.261740	0.008629
C70	C	-0.081961	-0.761740	0.508629
C71	C	-0.536035	-1.215815	0.077677
C72	C	-0.036035	-0.715815	0.577677
C73	C	-0.544020	-1.294622	-0.040854
C74	C	-0.044020	-0.794622	0.459146
C75	C	-0.460159	-1.281579	-0.021285
C76	C	0.039841	-0.781579	0.478715
C77	C	-0.452173	-1.202773	0.097246
C78	C	0.047827	-0.702773	0.597246
C79	C	0.093153	-1.157059	0.166147
C80	C	0.593153	-0.657059	0.666147
C81	C	0.182422	-1.143250	0.186980
C82	C	0.682422	-0.643250	0.686980
C83	C	-0.083827	-1.382495	0.084882
C84	C	0.416173	-0.882495	0.584882
C85	C	-0.069977	-1.464754	0.071084
C86	C	0.430023	-0.964754	0.571084
C87	C	-0.010979	-0.564743	0.012337
C88	C	0.489021	-0.064743	0.512337
C89	C	-0.024022	-0.487458	0.025323
C90	C	0.475978	0.012542	0.525323
C91	C	-0.102905	-0.519334	0.103880
C92	C	0.397095	-0.019334	0.603880
C93	C	-0.089865	-0.596623	0.090904
C94	C	0.410135	-0.096623	0.590904
C95	C	-0.043903	-0.619321	0.045131
C96	C	0.456097	-0.119321	0.545131
C97	C	-0.122789	-0.651201	0.123697
C98	C	0.377211	-0.151201	0.623697
C99	C	-0.109754	-0.728483	0.110718
C100	C	0.390246	-0.228483	0.610718
C101	C	-0.063796	-0.751188	0.064946
C102	C	0.436204	-0.251188	0.564946
C103	C	-0.030868	-0.696603	0.032152
C104	C	0.469132	-0.196603	0.532152
C105	C	-0.168756	-0.628502	0.169465
C106	C	0.331244	-0.128502	0.669465
C107	C	-0.201680	-0.683080	0.202259
C108	C	0.298320	-0.183080	0.702259
C109	C	-0.188640	-0.760364	0.189285
C110	C	0.311360	-0.260364	0.689285
C111	C	-0.142682	-0.783068	0.143512
C112	C	0.357318	-0.283068	0.643512
C113	C	-0.221568	-0.814949	0.222079
C114	C	0.278432	-0.314949	0.722079
C115	C	-0.208534	-0.892231	0.209100
C116	C	0.291466	-0.392231	0.709100
C117	C	-0.129647	-0.860351	0.130533
C118	C	0.370353	-0.360351	0.630533
C119	C	-0.165067	-1.157124	-0.091429
C120	C	0.334933	-0.657124	0.408571
C121	C	-0.185695	-1.143383	-0.180681
C122	C	0.314305	-0.643383	0.319319
C123	C	-0.274453	-1.084469	0.689444
C124	C	0.225547	-0.584469	1.189444
C125	C	-0.254822	-1.097496	0.773337
C126	C	0.245178	-0.597496	1.273337
C127	C	-0.136168	-1.176258	0.781421
C128	C	0.363832	-0.676258	1.281421
C129	C	-0.155787	-1.163234	0.697528
C130	C	0.344213	-0.663234	1.197528
C131	C	-0.224930	-1.117340	0.651546
C132	C	0.275070	-0.617340	1.151546
C133	C	-0.106264	-1.196105	0.659630
C134	C	0.393736	-0.696105	1.159630
C135	C	-0.125884	-1.183085	0.575743
C136	C	0.374116	-0.683085	1.075743
C137	C	-0.195026	-1.137195	0.529754
C138	C	0.304974	-0.637195	1.029754
C139	C	-0.244550	-1.104320	0.567659
C140	C	0.255450	-0.604320	1.067659
C141	C	-0.037124	-1.242004	0.705612
C142	C	0.462876	-0.742004	1.205612
C143	C	0.012398	-1.274874	0.667713
C144	C	0.512398	-0.774874	1.167713
C145	C	-0.007218	-1.261851	0.583827
C146	C	0.492782	-0.761851	1.083827
C147	C	-0.076360	-1.215960	0.537838
C148	C	0.423640	-0.715960	1.037838
C149	C	0.042306	-1.294725	0.545922
C150	C	0.542306	-0.794725	1.045922
C151	C	0.022686	-1.281706	0.462035
C152	C	0.522686	-0.781706	0.962035
C153	C	-0.095980	-1.202940	0.453951
C154	C	0.404020	-0.702940	0.953951
H155	H	-0.414780	-1.165383	0.153481
H156	H	0.085220	-0.665383	0.653481
H157	H	-0.258998	-0.796456	0.259340
H158	H	0.241002	-0.296456	0.759340
C159	C	0.019697	-0.721574	-0.018197
C160	C	0.519697	-0.221574	0.481803
N161	N	0.057780	-0.740383	-0.056120
N162	N	0.557780	-0.240383	0.443880
H163	H	-0.211002	-1.126598	0.461447
H164	H	0.288998	-0.626598	0.961447
H165	H	-0.179368	-0.565572	0.180031
H166	H	0.320632	-0.065572	0.680031
H167	H	-0.650394	-1.046897	0.331835
H168	H	-0.150394	-0.546897	0.831835
H169	H	-0.703226	-1.312167	-0.067168
H170	H	-0.203226	-0.812167	0.432832
H171	H	-0.581424	-1.332007	-0.097081
H172	H	-0.081424	-0.832007	0.402919
H173	H	-0.092205	-0.878832	0.093275
H174	H	0.407795	-0.378832	0.593275
C175	C	0.039586	-0.589714	-0.038012
C176	C	0.539586	-0.089714	0.461988
N177	N	0.077668	-0.608523	-0.075935
N178	N	0.577668	-0.108523	0.424065
H179	H	-0.459767	-1.126385	0.212135
H180	H	0.040233	-0.626385	0.712135
C181	C	-0.049455	-0.836202	0.050671
C182	C	0.450545	-0.336202	0.550671
N183	N	-0.038651	-0.900234	0.039921
N184	N	0.461349	-0.400234	0.539921
C185	C	-0.418424	-1.317758	-0.075708
C186	C	0.081576	-0.817758	0.424292
N187	N	-0.386990	-1.345009	-0.116701
N188	N	0.113010	-0.845009	0.383299
H189	H	0.002799	-0.443020	-0.001378
H190	H	0.502799	0.056980	0.498622
H191	H	-0.140330	-0.500842	0.141145
H192	H	0.359670	-0.000842	0.641145
C193	C	-0.830166	-1.226646	0.061537
C194	C	-0.330166	-0.726646	0.561537
N195	N	-0.868220	-1.264693	0.004325
N196	N	-0.368220	-0.764693	0.504325
C197	C	-0.252236	-0.658102	0.252609
C198	C	0.247764	-0.158102	0.752609
N199	N	-0.290312	-0.639291	0.290537
N200	N	0.209688	-0.139291	0.790537
H201	H	-0.528597	-1.066737	0.301926
H202	H	-0.028597	-0.566737	0.801926
C203	C	-0.813379	-1.061165	0.310459
C204	C	-0.313379	-0.561165	0.810459
N205	N	-0.844806	-1.033921	0.351462
N206	N	-0.344806	-0.533921	0.851462
H207	H	-0.235342	-0.936671	0.235805
H208	H	0.264658	-0.436671	0.735805
H209	H	-0.152268	-1.165548	0.416517
H210	H	0.347732	-0.665548	0.916517
C211	C	-0.320612	-1.053833	0.517074
C212	C	0.179388	-0.553833	1.017074
N213	N	-0.377900	-1.015810	0.478973
N214	N	0.122100	-0.515810	0.978973
H215	H	-0.772045	-1.252515	0.022606
H216	H	-0.272045	-0.752515	0.522606
C217	C	-0.309304	-1.061330	0.815023
C218	C	0.190696	-0.561330	1.315023
N219	N	-0.350340	-1.034090	0.846420
N220	N	0.149660	-0.534090	1.346420
C221	C	-0.350514	-1.033982	0.638859
C222	C	0.149486	-0.533982	1.138859
N223	N	-0.407803	-0.995959	0.600758
N224	N	0.092197	-0.495959	1.100758
H225	H	-0.079873	-1.213628	0.818870
H226	H	0.420127	-0.713628	1.318870
C227	C	-0.015543	-1.256323	0.797891
C228	C	0.484457	-0.756323	1.297891
N229	N	0.000713	-1.267107	0.867396
N230	N	0.500713	-0.767107	1.367396
C231	C	0.088460	-1.325349	0.718306
C232	C	0.588460	-0.825349	1.218306
N233	N	0.145755	-1.363363	0.756413
N234	N	0.645755	-0.863363	1.256413
H235	H	0.098597	-1.332098	0.583371
H236	H	0.598597	-0.832098	1.083371
C237	C	0.077164	-1.317864	0.420345
C238	C	0.577164	-0.817864	0.920345
N239	N	0.118197	-1.345100	0.388944
N240	N	0.618197	-0.845100	0.888944
