data_functionalizedCrystal
_audit_creation_method	'MofGen! by Chris Wilmer'
_symmetry_space_group_name_H-M	'P1'
_symmetry_Int_Tables_number	1
_symmetry_cell_setting	triclinic
loop_
_symmetry_equiv_pos_as_xyz
  x,y,z
_cell_length_a	10.540535
_cell_length_b	10.540539
_cell_length_c	8.140239
_cell_angle_alpha	89.998610
_cell_angle_beta	89.999658
_cell_angle_gamma	84.524567
loop_
_atom_site_label
_atom_site_type_symbol
_atom_site_fract_x
_atom_site_fract_y
_atom_site_fract_z
O1	O	1.685888	0.178871	-0.136515
O2	O	1.316474	0.195733	-0.136537
O3	O	1.509609	0.002595	-0.136524
O4	O	1.492753	0.372009	-0.136529
O5	O	1.509598	0.002593	0.136703
O6	O	1.316463	0.195731	0.136690
O7	O	1.685877	0.178869	0.136712
Zn8	Zn	1.501168	0.187299	0.180082
Zn9	Zn	1.501182	0.187302	-0.179907
O10	O	1.492742	0.372006	0.136698
C11	C	1.269165	0.194469	0.000073
C12	C	1.128217	0.190689	0.000065
C13	C	1.091546	0.049675	0.000073
C14	C	0.944946	0.045698	0.000709
C15	C	0.918875	0.255058	0.155806
C16	C	1.065640	0.258059	0.155920
C17	C	1.065536	0.260113	-0.154801
C18	C	0.919190	0.253591	-0.156831
C19	C	1.508339	-0.044709	0.000087
C20	C	1.504557	-0.185657	0.000078
C21	C	1.359640	-0.369081	-0.000544
C22	C	1.363474	-0.222463	0.000071
C23	C	1.572447	-0.247317	0.156108
C24	C	1.567632	-0.393861	0.156239
C25	C	1.570514	-0.394377	-0.154471
C26	C	1.571813	-0.247395	-0.156534
C27	C	1.733185	0.180133	0.000098
C28	C	1.874134	0.183913	0.000096
C29	C	1.494011	0.419311	0.000084
C30	C	1.497793	0.560259	0.000082
N31	N	1.501168	0.187297	0.425764
N32	N	1.501193	0.187295	-0.425590
H33	H	0.870142	0.354465	-0.166719
O34	O	1.096165	0.394982	0.164726
H35	H	1.006131	0.458763	0.168897
O36	O	0.907246	-0.027633	0.149449
H37	H	0.858967	-0.111377	0.109058
H38	H	1.135000	-0.003570	0.111573
H39	H	0.871518	0.356823	0.161156
O40	O	1.509981	-0.190898	0.309918
H41	H	1.430593	-0.118961	0.275628
O42	O	1.094932	0.397539	-0.156830
H43	H	1.153890	0.416367	-0.048137
O44	O	1.506114	-0.193174	-0.309446
H45	H	1.511099	-0.088495	-0.312714
H46	H	1.105807	0.210009	0.272764
O47	O	0.881299	0.185035	-0.309438
H48	H	0.831295	0.101217	-0.273670
H49	H	0.887968	0.206245	0.272133
H50	H	1.669097	-0.441831	0.163324
O51	O	1.510038	-0.436152	-0.311131
H52	H	1.427466	-0.489721	-0.280577
H53	H	1.674674	-0.223175	-0.165950
O54	O	1.705494	-0.456938	-0.155880
H55	H	1.720776	-0.520043	-0.047102
H56	H	0.915613	-0.009943	-0.110887
H57	H	1.108000	0.216112	-0.272865
O58	O	1.292689	-0.166021	-0.148065
H59	H	1.338599	-0.206562	-0.261633
O60	O	1.147213	-0.022095	-0.147750
H61	H	1.201610	0.041969	-0.222814
O62	O	1.285810	-0.406987	-0.148738
H63	H	1.335841	-0.381493	-0.262305
H64	H	1.304131	-0.399289	0.110715
O65	O	1.292236	-0.167137	0.148483
H66	H	1.254919	-0.245122	0.220102
O67	O	1.709684	-0.217703	0.163835
H68	H	1.731008	-0.158578	0.056293
H69	H	1.517449	-0.422061	0.272869
