data_functionalizedCrystal
_audit_creation_method	'MofGen! by Chris Wilmer'
_symmetry_space_group_name_H-M	'P1'
_symmetry_Int_Tables_number	1
_symmetry_cell_setting	triclinic
loop_
_symmetry_equiv_pos_as_xyz
  x,y,z
_cell_length_a	8.497366
_cell_length_b	8.497374
_cell_length_c	12.759401
_cell_angle_alpha	89.999864
_cell_angle_beta	89.968686
_cell_angle_gamma	90.036547
loop_
_atom_site_label
_atom_site_type_symbol
_atom_site_fract_x
_atom_site_fract_y
_atom_site_fract_z
Zn1	Zn	-0.892053	0.627719	1.606487
Zn2	Zn	-0.628319	0.891657	1.606384
Zn3	Zn	-0.628286	0.627881	1.430750
Zn4	Zn	-0.892056	0.891447	1.430819
O5	O	-0.760179	0.759676	1.518610
O6	O	-0.857081	0.662752	1.753494
O7	O	-0.407552	0.856822	1.583014
O8	O	-0.663261	0.407097	1.454076
O9	O	-0.663316	0.856666	1.753419
O10	O	-0.857049	0.406978	1.583189
O11	O	-0.407528	0.663027	1.453976
O12	O	-0.663264	0.662823	1.283738
O13	O	-1.112819	0.856307	1.454194
O14	O	-0.857054	0.856464	1.283789
O15	O	-1.112816	0.662548	1.583256
O16	O	-0.663319	1.112392	1.583081
O17	O	-0.857086	1.112237	1.454094
C18	C	-0.760157	0.759639	1.245643
C19	C	-0.760185	0.759661	1.128866
C20	C	-0.861234	0.658880	1.074036
C21	C	-0.861244	0.658911	0.964312
C22	C	-0.659150	0.860516	0.964257
C23	C	-0.659134	0.860476	1.073979
C24	C	-0.977917	0.542490	1.074067
C25	C	-0.977927	0.542520	0.964343
C26	C	-0.171659	0.759532	1.518671
C27	C	-0.350303	0.759862	1.518532
C28	C	-0.760201	1.169556	1.518597
C29	C	-0.760176	1.348200	1.518625
C30	C	-0.760202	0.759714	1.792643
C31	C	-0.760211	0.759731	1.909420
H32	H	-1.093905	0.586348	1.108157
Br33	Br	-0.905294	0.349028	0.907552
Br34	Br	-1.181490	0.597252	0.914795
H35	H	-0.576835	0.942527	1.118617
Br36	Br	-0.522012	0.997325	0.889761
H37	H	-0.945374	0.420268	1.103810
