data_functionalizedCrystal
_audit_creation_method	'MofGen! by Chris Wilmer'
_symmetry_space_group_name_H-M	'P1'
_symmetry_Int_Tables_number	1
_symmetry_cell_setting	triclinic
loop_
_symmetry_equiv_pos_as_xyz
  x,y,z
_cell_length_a	16.956993
_cell_length_b	13.330367
_cell_length_c	16.992695
_cell_angle_alpha	90.004697
_cell_angle_beta	96.638539
_cell_angle_gamma	89.987907
loop_
_atom_site_label
_atom_site_type_symbol
_atom_site_fract_x
_atom_site_fract_y
_atom_site_fract_z
O1	O	-1.060103	0.083525	0.032365
O2	O	-0.829692	0.083505	0.059778
O3	O	-0.943974	0.083507	-0.068011
O4	O	-0.945821	0.083523	0.160154
O5	O	-0.943956	-0.083340	-0.068013
O6	O	-0.829675	-0.083342	0.059776
O7	O	-1.060085	-0.083322	0.032363
Cu8	Cu	-0.944878	-0.098566	0.046070
Cu9	Cu	-0.944899	0.098750	0.046072
O10	O	-0.945803	-0.083324	0.160153
C11	C	-0.800065	0.000079	0.061181
C12	C	-0.711810	0.000072	0.065354
N13	N	-0.944869	-0.237348	0.046068
C14	C	-0.214500	0.000096	0.096571
C15	C	-0.297425	0.000097	0.092644
C16	C	-0.343815	0.000086	0.018931
C17	C	-0.307277	0.000083	-0.050859
C18	C	-0.224354	0.000089	-0.046931
C19	C	-0.592349	0.000075	-0.000509
C20	C	-0.675278	0.000066	-0.004432
C21	C	-0.665419	0.000082	0.139072
C22	C	-0.582495	0.000081	0.142993
C23	C	-0.545964	0.000084	0.073203
N24	N	-0.428578	0.000084	0.014916
N25	N	-0.461203	0.000093	0.077219
C26	C	-0.894292	-0.709971	0.102636
C27	C	-0.995528	-0.709938	-0.010500
C28	C	-0.995519	-0.604920	-0.010502
C29	C	-0.944896	-0.552422	0.046067
C30	C	-0.894283	-0.604943	0.102637
C31	C	-1.046137	-0.552391	-0.067067
C32	C	-1.046130	-0.447366	-0.067070
C33	C	-0.995503	-0.394867	-0.010504
C34	C	-0.944887	-0.447394	0.046068
C35	C	-0.894265	-0.394897	0.102637
C36	C	-0.843644	-0.447423	0.159207
C37	C	-0.843656	-0.552444	0.159203
C38	C	-0.995492	-0.289845	-0.010501
C39	C	-0.894256	-0.289869	0.102638
C40	C	-0.089712	0.000099	0.030960
C41	C	-0.177967	0.000090	0.026786
C42	C	-0.941589	0.000084	-0.097071
C43	C	-0.934498	0.000083	-0.183655
N44	N	-0.944914	0.237531	0.046067
C45	C	-1.002913	0.000088	-0.238330
C46	C	-0.996246	0.000097	-0.319684
C47	C	-0.921163	0.000094	-0.346363
C48	C	-0.852743	0.000092	-0.291682
C49	C	-0.859411	0.000090	-0.210329
C50	C	-0.893527	0.000105	-0.588169
C51	C	-0.886865	0.000104	-0.669529
C52	C	-1.030368	0.000111	-0.697526
C53	C	-1.037029	0.000103	-0.616170
C54	C	-0.968609	0.000107	-0.561496
N55	N	-0.914346	0.000100	-0.429520
N56	N	-0.975427	0.000108	-0.478341
C57	C	-0.948189	0.000102	0.189212
C58	C	-0.955279	0.000109	0.275797
H59	H	-0.176733	0.000098	0.156596
H60	H	-0.544728	0.000094	0.203018
C61	C	-1.119626	0.000105	-0.586831
N62	N	-1.181839	0.000103	-0.564733
H63	H	-1.036747	-0.752684	-0.056554
H64	H	-0.802430	-0.404667	0.205269
H65	H	-0.345056	0.000080	-0.110878
C66	C	-0.705610	0.000088	0.215836
N67	N	-0.735882	0.000097	0.273658
C68	C	-0.787974	-0.610230	0.221421
N69	N	-0.746034	-0.653759	0.268281
H70	H	-1.064053	0.000084	-0.216615
C71	C	-1.101817	-0.610143	-0.129288
N72	N	-1.143756	-0.653648	-0.176157
H73	H	-0.853029	-0.247132	0.148701
H74	H	-1.086071	0.000110	-0.742050
H75	H	-0.853075	-0.752740	0.148692
H76	H	-0.825720	0.000086	-0.691246
C77	C	-1.101807	-0.389597	-0.129303
N78	N	-1.143740	-0.346085	-0.176180
C79	C	-0.818262	0.000115	-0.528038
N80	N	-0.761569	0.000125	-0.482744
H81	H	-0.194611	0.000087	-0.103758
C82	C	-1.051171	-0.232072	-0.072723
N83	N	-1.093111	-0.188558	-0.119594
C84	C	-1.071508	0.000086	-0.379823
N85	N	-1.128199	0.000073	-0.425120
H86	H	-0.713048	0.000062	-0.064460
C87	C	-0.770151	0.000080	-0.321031
N88	N	-0.707941	0.000064	-0.343136
H89	H	-0.803700	0.000087	-0.165813
H90	H	-0.327165	0.000111	0.149470
H91	H	-0.562616	0.000074	-0.057337
