data_functionalizedCrystal
_audit_creation_method	'MofGen! by Chris Wilmer'
_symmetry_space_group_name_H-M	'P1'
_symmetry_Int_Tables_number	1
_symmetry_cell_setting	triclinic
loop_
_symmetry_equiv_pos_as_xyz
  x,y,z
_cell_length_a	18.101398
_cell_length_b	12.594516
_cell_length_c	18.101390
_cell_angle_alpha	89.972985
_cell_angle_beta	89.975319
_cell_angle_gamma	90.011320
loop_
_atom_site_label
_atom_site_type_symbol
_atom_site_fract_x
_atom_site_fract_y
_atom_site_fract_z
Zn1	Zn	1.132201	-0.423836	-0.418869
Zn2	Zn	1.132129	-0.601849	-0.295040
Zn3	Zn	1.008359	-0.423870	-0.295030
Zn4	Zn	1.008343	-0.601758	-0.418829
O5	O	1.070258	-0.512828	-0.356942
O6	O	1.235824	-0.447473	-0.402464
O7	O	1.115687	-0.578291	-0.191406
O8	O	1.024824	-0.274919	-0.311470
O9	O	1.235771	-0.578258	-0.311488
O10	O	1.115810	-0.274895	-0.402454
O11	O	1.024754	-0.447531	-0.191399
O12	O	0.904724	-0.447443	-0.311431
O13	O	1.024797	-0.578104	-0.522467
O14	O	0.904713	-0.578137	-0.402386
O15	O	1.115795	-0.447385	-0.522497
O16	O	1.115671	-0.750782	-0.311449
O17	O	1.024727	-0.750716	-0.402396
C18	C	0.877848	-0.512785	-0.356904
C19	C	0.795533	-0.512792	-0.356905
C20	C	0.496443	-0.512858	-0.356967
C21	C	0.527750	-0.430218	-0.300020
C22	C	0.613368	-0.430440	-0.299777
C23	C	0.644825	-0.512825	-0.356936
C24	C	0.613727	-0.624949	-0.335619
C25	C	0.528082	-0.624490	-0.335224
C26	C	0.528052	-0.484349	-0.435364
C27	C	0.613703	-0.481852	-0.434936
C28	C	0.728685	-0.512812	-0.356920
C29	C	0.412583	-0.512878	-0.356981
C30	C	1.070210	-0.789369	-0.356935
C31	C	1.070257	-0.907674	-0.356957
C32	C	1.020787	-0.976930	-0.406388
C33	C	1.002745	-1.047795	-0.338810
C34	C	1.088366	-1.047609	-0.424546
C35	C	1.052179	-0.976981	-0.289343
C36	C	1.137831	-0.976789	-0.375124
C37	C	1.119815	-1.047621	-0.307500
C38	C	1.263420	-0.512872	-0.356981
C39	C	1.345734	-0.512891	-0.356998
C40	C	1.070302	-0.512731	-0.550104
C41	C	1.070321	-0.512689	-0.632418
C42	C	1.070327	-0.235207	-0.356966
C43	C	1.070356	-0.116902	-0.356976
C44	C	1.070361	-0.512623	-0.931509
C45	C	1.127803	-0.430668	-0.900203
C46	C	1.127624	-0.430364	-0.814585
C47	C	1.070342	-0.512656	-0.783127
C48	C	0.992319	-0.482173	-0.814191
C49	C	0.992663	-0.481558	-0.899836
C50	C	1.090254	-0.625273	-0.899931
C51	C	1.091966	-0.624698	-0.814282
C52	C	1.070326	-0.512676	-0.699267
C53	C	1.070371	-0.512600	-1.015369
C54	C	1.070257	-0.512848	-0.164532
C55	C	1.070382	-0.512590	-0.082218
H56	H	0.508074	-0.648666	-0.277911
Br57	Br	1.189618	-1.099031	-0.237765
H58	H	1.146151	-0.653028	-0.921583
Br59	Br	1.232982	-0.924766	-0.400763
H60	H	1.048420	-0.686338	-0.920182
Br61	Br	0.907570	-1.099774	-0.313201
Br62	Br	1.026610	-0.925494	-0.194058
Br63	Br	0.493559	-0.730593	-0.401335
Br64	Br	1.105674	-0.291269	-0.780443
H65	H	0.975801	-0.399212	-0.919820
H66	H	0.634394	-0.347296	-0.313138
Br67	Br	0.491822	-0.461251	-0.203761
Br68	Br	0.492077	-0.350444	-0.467669
Br69	Br	0.493443	-0.291208	-0.322040
H70	H	1.103643	-1.078633	-0.481697
H71	H	0.633825	-0.449288	-0.241685
H72	H	0.634032	-0.399341	-0.451010
H73	H	1.053172	-0.689043	-0.792865
Br74	Br	0.494311	-0.584671	-0.506085
Br75	Br	0.649391	-0.574865	-0.509447
H76	H	1.114800	-0.347681	-0.921733
H77	H	0.634104	-0.688172	-0.375799
Br78	Br	0.918893	-0.576701	-0.934356
H79	H	1.185847	-0.449523	-0.920811
Br80	Br	0.649423	-0.665949	-0.241127
H81	H	0.948358	-0.540026	-0.793812
H82	H	0.978877	-0.945890	-0.448129
Br83	Br	1.224054	-0.462167	-0.779576
Br84	Br	0.963703	-0.346444	-0.778456
H85	H	1.149384	-0.647685	-0.793978
