data_functionalizedCrystal
_audit_creation_method	'MofGen! by Chris Wilmer'
_symmetry_space_group_name_H-M	'P1'
_symmetry_Int_Tables_number	1
_symmetry_cell_setting	triclinic
loop_
_symmetry_equiv_pos_as_xyz
  x,y,z
_cell_length_a	8.597314
_cell_length_b	14.853567
_cell_length_c	7.088929
_cell_angle_alpha	83.771294
_cell_angle_beta	76.046591
_cell_angle_gamma	95.510918
loop_
_atom_site_label
_atom_site_type_symbol
_atom_site_fract_x
_atom_site_fract_y
_atom_site_fract_z
O1	O	-2.101635	0.123823	0.187171
O2	O	-1.636987	0.138538	0.110641
O3	O	-1.881722	-0.000068	0.150944
O4	O	-1.856900	0.262428	0.146868
O5	O	-1.914428	-0.018633	0.474306
O6	O	-1.669693	0.119973	0.434002
O7	O	-2.134342	0.105258	0.510532
Cu8	Cu	-1.905004	0.110920	0.501793
Cu9	Cu	-1.866325	0.132875	0.119381
O10	O	-1.889607	0.243863	0.470229
C11	C	-1.593876	0.128709	0.262527
C12	C	-1.416692	0.127069	0.233343
C13	C	-1.896950	-0.042937	0.312434
C14	C	-1.893578	-0.143015	0.311862
C15	C	-1.733956	-0.555312	0.285608
C16	C	-2.024707	-0.577027	0.333496
C17	C	-2.027875	-0.482998	0.334007
C18	C	-1.884081	-0.425121	0.310320
C19	C	-1.737120	-0.461274	0.286124
C20	C	-2.174836	-0.446839	0.358223
C21	C	-2.178010	-0.352804	0.358736
C22	C	-2.034213	-0.294924	0.335036
C23	C	-1.887246	-0.331083	0.310836
C24	C	-1.743452	-0.273206	0.287150
C25	C	-1.596481	-0.309362	0.262936
C26	C	-1.593323	-0.403395	0.262423
C27	C	-2.037371	-0.200891	0.335548
C28	C	-1.746616	-0.179168	0.287665
C29	C	-1.177453	0.115086	0.358649
C30	C	-1.354639	0.116722	0.387843
C31	C	-1.874378	0.286733	0.308735
C32	C	-1.877749	0.386811	0.309294
N33	N	-1.932220	0.095477	0.770763
N34	N	-1.839121	0.148311	-0.149587
H35	H	-1.629519	-0.132049	0.268368
O36	O	-2.180116	-0.165747	0.359404
C37	C	-2.207561	-0.121591	0.528573
H38	H	-2.135943	-0.150479	0.631880
H39	H	-2.167078	-0.045235	0.484658
C40	C	-2.476933	-0.102000	0.506252
C41	C	-2.388981	-0.137486	0.633143
H42	H	-2.588841	-0.111800	0.570753
H43	H	-2.458442	-0.131745	0.392275
H44	H	-2.443179	-0.038372	0.469666
H45	H	-2.422721	-0.201114	0.669708
H46	H	-2.407482	-0.107752	0.747129
O47	O	-1.456812	-0.253079	0.239592
C48	C	-1.433044	-0.188406	0.071026
H49	H	-1.502743	-0.216190	-0.032598
H50	H	-1.478347	-0.122237	0.115730
C51	C	-1.166126	-0.135488	0.093757
C52	C	-1.251721	-0.169616	-0.033524
H53	H	-1.054278	-0.123893	0.029269
H54	H	-1.182140	-0.179056	0.207328
H55	H	-1.203897	-0.080351	0.131000
H56	H	-1.213964	-0.224757	-0.070745
H57	H	-1.235696	-0.126055	-0.147104
H58	H	-2.291907	-0.493969	0.377525
H59	H	-1.437067	0.109111	0.542451
H60	H	-1.334257	0.134674	0.078726
O61	O	-1.450644	-0.438612	0.238678
C62	C	-1.423159	-0.482730	0.069458
H63	H	-1.543257	-0.503036	0.034330
H64	H	-1.340764	-0.434409	-0.059433
C65	C	-1.194697	-0.543829	0.149318
C66	C	-1.342206	-0.568776	0.106183
H67	H	-1.144755	-0.596904	0.171966
H68	H	-1.213209	-0.514103	0.263321
H69	H	-1.126054	-0.503560	0.041901
H70	H	-1.410852	-0.609035	0.213609
H71	H	-1.323703	-0.598511	-0.007802
H72	H	-1.614295	-0.584754	0.265886
H73	H	-2.141779	-0.624156	0.352796
O74	O	-2.320761	-0.317660	0.382574
C75	C	-2.348219	-0.273502	0.551739
H76	H	-2.276616	-0.302391	0.655063
H77	H	-2.307727	-0.197146	0.507822
C78	C	-2.617577	-0.253902	0.529372
C79	C	-2.529644	-0.289390	0.656284
H80	H	-2.729489	-0.263699	0.593857
H81	H	-2.599077	-0.283649	0.415398
H82	H	-2.583815	-0.190275	0.492784
H83	H	-2.563392	-0.353018	0.692850
H84	H	-2.548154	-0.259654	0.770267
O85	O	-1.724171	0.213746	0.734179
C86	C	-1.755492	0.300117	0.788147
H87	H	-1.888925	0.297205	0.865249
H88	H	-1.679001	0.319978	0.891608
C89	C	-1.548899	0.375147	0.508488
C90	C	-1.712788	0.371572	0.603172
H91	H	-1.522551	0.419225	0.394390
H92	H	-1.527793	0.316958	0.472132
H93	H	-1.485176	0.391695	0.594726
H94	H	-1.776508	0.355014	0.516944
H95	H	-1.733904	0.429761	0.639510
H96	H	-2.028725	0.040729	0.868311
