data_functionalizedCrystal
_audit_creation_method	'MofGen! by Chris Wilmer'
_symmetry_space_group_name_H-M	'P1'
_symmetry_Int_Tables_number	1
_symmetry_cell_setting	triclinic
loop_
_symmetry_equiv_pos_as_xyz
  x,y,z
_cell_length_a	17.077403
_cell_length_b	17.077404
_cell_length_c	17.077396
_cell_angle_alpha	89.980813
_cell_angle_beta	89.981574
_cell_angle_gamma	89.998960
loop_
_atom_site_label
_atom_site_type_symbol
_atom_site_fract_x
_atom_site_fract_y
_atom_site_fract_z
Zn1	Zn	-0.312538	1.200158	-0.443943
Zn2	Zn	-0.443815	1.200121	-0.312702
Zn3	Zn	-0.312563	1.068895	-0.312686
Zn4	Zn	-0.443762	1.068909	-0.443921
O5	O	-0.378170	1.134521	-0.378313
O6	O	-0.329964	1.310000	-0.426549
O7	O	-0.426437	1.182693	-0.202853
O8	O	-0.202713	1.086317	-0.330100
O9	O	-0.426413	1.309973	-0.330127
O10	O	-0.202695	1.182756	-0.426534
O11	O	-0.330007	1.086281	-0.202841
O12	O	-0.329955	0.959050	-0.330079
O13	O	-0.426322	1.086340	-0.553771
O14	O	-0.426346	0.959060	-0.426497
O15	O	-0.329913	1.182769	-0.553787
O16	O	-0.553655	1.182706	-0.330106
O17	O	-0.553616	1.086305	-0.426512
C18	C	-0.378148	0.930573	-0.378284
C19	C	-0.378158	0.843323	-0.378291
C20	C	-0.328061	0.467520	-0.428629
C21	C	-0.328055	0.549500	-0.428620
C22	C	-0.378186	0.590474	-0.378333
C23	C	-0.428332	0.549463	-0.328056
C24	C	-0.428341	0.467484	-0.328069
C25	C	-0.428308	0.720333	-0.328031
C26	C	-0.428298	0.802318	-0.328016
C27	C	-0.328022	0.802349	-0.428582
C28	C	-0.328031	0.720370	-0.428595
C29	C	-0.378176	0.679365	-0.378317
C30	C	-0.582118	1.134524	-0.378325
C31	C	-0.669367	1.134597	-0.378356
C32	C	-0.173425	1.134539	-0.378318
C33	C	-0.086176	1.134547	-0.378320
C34	C	-0.045194	1.084343	-0.328115
C35	C	0.036787	1.084349	-0.328125
C36	C	0.077784	1.134563	-0.378337
C37	C	0.036796	1.184769	-0.428547
C38	C	-0.045183	1.184759	-0.428541
C39	C	0.207666	1.184789	-0.428556
C40	C	0.289651	1.184801	-0.428562
C41	C	0.289636	1.084380	-0.328140
C42	C	0.207657	1.084369	-0.328134
C43	C	0.166675	1.134576	-0.378343
C44	C	-0.378109	1.134560	-0.583057
C45	C	-0.378083	1.134577	-0.670307
C46	C	-0.378192	1.339265	-0.378342
C47	C	-0.378201	1.426515	-0.378355
C48	C	-0.327866	1.084391	-0.711291
C49	C	-0.327848	1.084404	-0.793271
C50	C	-0.378044	1.134607	-0.834267
C51	C	-0.428267	1.184795	-0.793277
C52	C	-0.428288	1.184778	-0.711298
C53	C	-0.428218	1.184829	-0.964147
C54	C	-0.428196	1.184848	-1.046132
C55	C	-0.327778	1.084455	-1.046120
C56	C	-0.327799	1.084438	-0.964141
C57	C	-0.378021	1.134627	-0.923158
C58	C	-0.378174	1.134527	-0.174365
C59	C	-0.377978	1.134662	-0.087116
H60	H	-0.469122	0.835677	-0.287070
H61	H	0.174301	1.225663	-0.469452
Br62	Br	-0.259990	0.664763	-0.496838
H63	H	0.070181	1.225652	-0.469435
Br64	Br	-0.100802	1.252891	-0.496682
H65	H	-0.287233	0.434165	-0.469574
H66	H	-0.286986	1.043514	-0.677918
H67	H	-0.469152	0.582831	-0.287114
H68	H	-0.469172	0.434099	-0.287132
H69	H	0.323008	1.043499	-0.287258
H70	H	-0.286921	1.043561	-0.930765
H71	H	-0.286959	1.043534	-0.826637
H72	H	-0.286884	1.043590	-1.079493
Br73	Br	-0.496312	1.252989	-1.101769
Br74	Br	-0.496381	1.252939	-0.908527
H75	H	-0.469141	1.225668	-0.826662
H76	H	-0.469174	1.225651	-0.677930
H77	H	-0.287229	0.582883	-0.469561
H78	H	-0.287192	0.835740	-0.469519
H79	H	-0.469145	0.686949	-0.287093
H80	H	-0.078568	1.043456	-0.287224
Br81	Br	0.092402	1.016199	-0.260000
H82	H	0.174279	1.043485	-0.287243
H83	H	0.323027	1.225689	-0.469450
