data_functionalizedCrystal
_audit_creation_method	'MofGen! by Chris Wilmer'
_symmetry_space_group_name_H-M	'P1'
_symmetry_Int_Tables_number	1
_symmetry_cell_setting	triclinic
loop_
_symmetry_equiv_pos_as_xyz
  x,y,z
_cell_length_a	21.395362
_cell_length_b	29.839131
_cell_length_c	21.395355
_cell_angle_alpha	89.979828
_cell_angle_beta	89.956060
_cell_angle_gamma	90.057297
loop_
_atom_site_label
_atom_site_type_symbol
_atom_site_fract_x
_atom_site_fract_y
_atom_site_fract_z
Zn1	Zn	0.957813	-0.178715	-0.354578
Zn2	Zn	1.457813	0.321285	0.145422
Zn3	Zn	0.957696	-0.253830	-0.249798
Zn4	Zn	1.457696	0.246170	0.250202
Zn5	Zn	0.853028	-0.178736	-0.249780
Zn6	Zn	1.353028	0.321264	0.250220
Zn7	Zn	0.852977	-0.253840	-0.354503
Zn8	Zn	1.352977	0.246160	0.145497
O9	O	0.905378	-0.216280	-0.302165
O10	O	1.405378	0.283720	0.197835
O11	O	1.045475	-0.188667	-0.340718
O12	O	1.545475	0.311333	0.159282
O13	O	0.943783	-0.243874	-0.162117
O14	O	1.443783	0.256126	0.337883
O15	O	0.866998	-0.115866	-0.263706
O16	O	1.366998	0.384134	0.236294
O17	O	1.045389	-0.243853	-0.263737
O18	O	1.545389	0.256147	0.236263
O19	O	0.943983	-0.115851	-0.340701
O20	O	1.443983	0.384149	0.159299
O21	O	0.866884	-0.188702	-0.162104
O22	O	1.366884	0.311298	0.337896
O23	O	0.765343	-0.188711	-0.263632
O24	O	1.265343	0.311289	0.236368
O25	O	0.866912	-0.243869	-0.442191
O26	O	1.366912	0.256131	0.057809
O27	O	0.765306	-0.243889	-0.340571
O28	O	1.265306	0.256111	0.159429
O29	O	0.943934	-0.188676	-0.442246
O30	O	1.443934	0.311324	0.057754
O31	O	0.943735	-0.316699	-0.263663
O32	O	1.443735	0.183301	0.236337
O33	O	0.866798	-0.316705	-0.340589
O34	O	1.366798	0.183295	0.159411
C35	C	0.742591	-0.216304	-0.302092
C36	C	1.242591	0.283696	0.197908
C37	C	0.672950	-0.216325	-0.302076
C38	C	1.172950	0.283675	0.197924
C39	C	0.640233	-0.245094	-0.342078
C40	C	1.140233	0.254906	0.157922
C41	C	0.574798	-0.245083	-0.342106
C42	C	1.074798	0.254917	0.157894
C43	C	0.542081	-0.216308	-0.302120
C44	C	1.042081	0.283692	0.197880
C45	C	0.574805	-0.187533	-0.262115
C46	C	1.074805	0.312467	0.237885
C47	C	0.640239	-0.187541	-0.262093
C48	C	1.140239	0.312459	0.237907
C49	C	0.438357	-0.212688	-0.245715
C50	C	0.938357	0.287312	0.254285
C51	C	0.372925	-0.212683	-0.245736
C52	C	0.872925	0.287317	0.254264
C53	C	0.340261	-0.216278	-0.302189
C54	C	0.840261	0.283722	0.197811
C55	C	0.373038	-0.219889	-0.358623
C56	C	0.873038	0.280111	0.141377
C57	C	0.438472	-0.219897	-0.358601
C58	C	0.938472	0.280103	0.141399
C59	C	0.471129	-0.216295	-0.302140
C60	C	0.971129	0.283705	0.197860
C61	C	0.236592	-0.245037	-0.342226
C62	C	0.736592	0.254963	0.157774
C63	C	0.171155	-0.245023	-0.342254
C64	C	0.671155	0.254977	0.157746
C65	C	0.171164	-0.187475	-0.262258
C66	C	0.671164	0.312525	0.237742
C67	C	0.236599	-0.187487	-0.262235
C68	C	0.736599	0.312513	0.237765
C69	C	0.269309	-0.216270	-0.302218
C70	C	0.769309	0.283730	0.197782
C71	C	0.905265	-0.333003	-0.302133
C72	C	1.405265	0.166997	0.197867
C73	C	0.905274	-0.382937	-0.302141
C74	C	1.405274	0.117063	0.197859
C75	C	0.945512	-0.692564	-0.262168
C76	C	1.445512	-0.192564	0.237832
C77	C	0.945589	-0.880237	-0.262192
C78	C	1.445589	-0.380237	0.237808
O79	O	0.979711	-0.904488	-0.228181
O80	O	1.479711	-0.404488	0.271819
N81	N	0.905508	-0.903722	-0.302212
N82	N	1.405508	-0.403722	0.197788
C83	C	0.865408	-0.880286	-0.342231
C84	C	1.365408	-0.380286	0.157769
O85	O	0.831323	-0.904567	-0.376276
O86	O	1.331323	-0.404567	0.123724
C87	C	0.865334	-0.692614	-0.342210
C88	C	1.365334	-0.192614	0.157790
C89	C	0.905414	-0.669131	-0.302183
C90	C	1.405414	-0.169131	0.197817
C91	C	0.985588	-0.669082	-0.222145
C92	C	1.485588	-0.169082	0.277855
C93	C	0.985566	-0.622166	-0.222136
C94	C	1.485566	-0.122166	0.277864
C95	C	0.945468	-0.598733	-0.262152
C96	C	1.445468	-0.098733	0.237848
C97	C	0.905391	-0.622216	-0.302175
C98	C	1.405391	-0.122216	0.197825
C99	C	0.825238	-0.669178	-0.382232
C100	C	1.325238	-0.169178	0.117768
C101	C	0.825224	-0.622257	-0.382224
C102	C	1.325224	-0.122257	0.117776
C103	C	0.865303	-0.598775	-0.342197
C104	C	1.365303	-0.098775	0.157803
C105	C	0.865271	-0.551867	-0.342182
C106	C	1.365271	-0.051867	0.157818
N107	N	0.905352	-0.528383	-0.302162
N108	N	1.405352	-0.028383	0.197838
C109	C	0.945450	-0.551816	-0.262147
C110	C	1.445450	-0.051816	0.237853
C111	C	0.865449	-0.978816	-0.342239
C112	C	1.365449	-0.478816	0.157761
C113	C	0.865466	-1.025734	-0.342244
C114	C	1.365466	-0.525734	0.157756
C115	C	0.945649	-1.025683	-0.262205
C116	C	1.445649	-0.525683	0.237795
C117	C	0.945627	-0.978764	-0.262198
C118	C	1.445627	-0.478764	0.237802
C119	C	0.905530	-0.955332	-0.302219
C120	C	1.405530	-0.455332	0.197781
C121	C	0.945400	-0.453290	-0.262132
C122	C	1.445400	0.046710	0.237868
C123	C	0.945373	-0.406370	-0.262126
C124	C	1.445373	0.093630	0.237874
C125	C	0.865193	-0.406426	-0.342167
C126	C	1.365193	0.093574	0.157833
C127	C	0.865218	-0.453342	-0.342171
C128	C	1.365218	0.046658	0.157829
C129	C	0.905327	-0.476772	-0.302152
C130	C	1.405327	0.023228	0.197848
O131	O	0.831172	-0.527587	-0.376180
O132	O	1.331172	-0.027587	0.123820
O133	O	0.979540	-0.527526	-0.228117
O134	O	1.479540	-0.027526	0.271883
C135	C	0.945534	-0.739480	-0.262176
C136	C	1.445534	-0.239480	0.237824
C137	C	0.905458	-0.762962	-0.302199
C138	C	1.405458	-0.262962	0.197801
C139	C	0.865359	-0.739529	-0.342214
C140	C	1.365359	-0.239529	0.157786
C141	C	0.905475	-0.809880	-0.302204
C142	C	1.405475	-0.309880	0.197796
C143	C	0.945574	-0.833313	-0.262189
C144	C	1.445574	-0.333313	0.237811
C145	C	0.985655	-0.809828	-0.222169
C146	C	1.485655	-0.309828	0.277831
C147	C	0.985633	-0.762913	-0.222161
C148	C	1.485633	-0.262913	0.277839
C149	C	0.825278	-0.763014	-0.382234
C150	C	1.325278	-0.263014	0.117766
C151	C	0.825303	-0.809929	-0.382238
C152	C	1.325303	-0.309929	0.117762
C153	C	0.865402	-0.833362	-0.342223
C154	C	1.365402	-0.333362	0.157777
C155	C	1.068802	-0.216257	-0.302238
C156	C	1.568802	0.283743	0.197762
C157	C	1.138443	-0.216247	-0.302269
C158	C	1.638443	0.283753	0.197731
C159	C	0.905431	-0.216271	-0.465588
C160	C	1.405431	0.283729	0.034412
C161	C	0.905453	-0.216267	-0.535229
C162	C	1.405453	0.283733	-0.035229
C163	C	0.905509	-0.099102	-0.302210
C164	C	1.405509	0.400898	0.197790
C165	C	0.905565	-0.049167	-0.302229
C166	C	1.405565	0.450833	0.197771
C167	C	0.945556	-0.187527	-0.567972
C168	C	1.445556	0.312473	-0.067972
C169	C	0.945556	-0.187507	-0.633408
C170	C	1.445556	0.312493	-0.133408
C171	C	0.905458	-0.216237	-0.666098
C172	C	1.405458	0.283763	-0.166098
C173	C	0.865346	-0.244979	-0.633347
C174	C	1.365346	0.255021	-0.133347
C175	C	0.865344	-0.244994	-0.567912
C176	C	1.365344	0.255006	-0.067912
C177	C	0.900471	-0.256689	-0.769760
C178	C	1.400471	0.243311	-0.269760
C179	C	0.900478	-0.256674	-0.835193
C180	C	1.400478	0.243326	-0.335193
C181	C	0.905461	-0.216189	-0.867918
C182	C	1.405461	0.283811	-0.367918
C183	C	0.910451	-0.175717	-0.835203
C184	C	1.410451	0.324283	-0.335203
C185	C	0.910449	-0.175733	-0.769769
C186	C	1.410449	0.324267	-0.269769
C187	C	0.905455	-0.216223	-0.737050
C188	C	1.405455	0.283777	-0.237050
C189	C	0.945566	-0.187425	-0.971614
C190	C	1.445566	0.312575	-0.471614
C191	C	0.945561	-0.187405	-1.037051
C192	C	1.445561	0.312595	-0.537051
C193	C	0.865355	-0.244881	-1.036988
C194	C	1.365355	0.255119	-0.536988
C195	C	0.865357	-0.244897	-0.971553
C196	C	1.365357	0.255103	-0.471553
C197	C	0.905466	-0.216170	-0.938870
C198	C	1.405466	0.283830	-0.438870
C199	C	0.905363	-0.216257	-0.139377
C200	C	1.405363	0.283743	0.360623
C201	C	0.905462	-0.216134	-0.069736
C202	C	1.405462	0.283866	0.430264
H203	H	0.346444	-0.222815	-0.404593
H204	H	0.846444	0.277185	0.095407
H205	H	0.144526	-0.164043	-0.229704
H206	H	0.644526	0.335957	0.270296
Cl207	Cl	0.814940	-0.280994	-1.078078
Cl208	Cl	1.314940	0.219006	-0.578078
H209	H	0.548156	-0.268511	-0.374683
H210	H	1.048156	0.231489	0.125317
H211	H	0.914510	-0.142779	-0.743135
H212	H	1.414510	0.357221	-0.243135
Cl213	Cl	0.996057	-1.055150	-0.211900
Cl214	Cl	1.496057	-0.555150	0.288100
Cl215	Cl	0.894211	-0.307552	-0.876314
Cl216	Cl	1.394211	0.192448	-0.376314
Cl217	Cl	0.681352	-0.281277	-0.392345
Cl218	Cl	1.181352	0.218723	0.107655
H219	H	0.792598	-0.688290	-0.414823
H220	H	1.292598	-0.188290	0.085177
H221	H	0.832704	-0.268303	-0.944893
H222	H	1.332704	0.231697	-0.444893
H223	H	0.464947	-0.209759	-0.199741
H224	H	0.964947	0.290241	0.300259
Cl225	Cl	0.995975	-0.151410	-0.526888
Cl226	Cl	1.495975	0.348590	-0.026888
H227	H	0.263237	-0.164062	-0.229657
H228	H	0.763237	0.335938	0.270343
H229	H	0.548163	-0.164102	-0.229560
H230	H	1.048163	0.335898	0.270440
H231	H	0.914510	-0.142751	-0.861847
H232	H	1.414510	0.357249	-0.361847
Cl233	Cl	0.681370	-0.151371	-0.211800
Cl234	Cl	1.181370	0.348629	0.288200
Cl235	Cl	0.995985	-0.151309	-0.930524
Cl236	Cl	1.495985	0.348691	-0.430524
H237	H	0.144519	-0.268450	-0.374833
H238	H	0.644519	0.231550	0.125167
H239	H	0.978010	-0.387252	-0.229529
H240	H	1.478010	0.112748	0.270471
Cl241	Cl	0.774813	-0.592803	-0.432541
Cl242	Cl	1.274813	-0.092803	0.067459
H243	H	0.346242	-0.209746	-0.199785
H244	H	0.846242	0.290254	0.300215
H245	H	0.832544	-0.387340	-0.374745
H246	H	1.332544	0.112660	0.125255
H247	H	0.832683	-0.268398	-0.541253
H248	H	1.332683	0.231602	-0.041253
H249	H	0.465156	-0.222836	-0.404551
H250	H	0.965156	0.277164	0.095449
H251	H	0.978217	-0.163998	-1.063709
H252	H	1.478217	0.336002	-0.563709
Cl253	Cl	0.894224	-0.307590	-0.728626
Cl254	Cl	1.394224	0.192410	-0.228626
Cl255	Cl	0.814820	-0.482863	-0.392478
Cl256	Cl	1.314820	0.017137	0.107522
Cl257	Cl	0.774863	-0.733563	-0.432544
Cl258	Cl	1.274863	-0.233563	0.067456
H259	H	0.978062	-0.472362	-0.229546
H260	H	1.478062	0.027638	0.270454
Cl261	Cl	1.036023	-0.733399	-0.171841
Cl262	Cl	1.536023	-0.233399	0.328159
Cl263	Cl	1.035964	-0.592653	-0.171824
Cl264	Cl	1.535964	-0.092653	0.328176
H265	H	1.018245	-0.688156	-0.189559
H266	H	1.518245	-0.188156	0.310441
Cl267	Cl	0.815072	-1.055249	-0.392558
Cl268	Cl	1.315072	-0.555249	0.107442
Cl269	Cl	0.814935	-0.281094	-0.674441
Cl270	Cl	1.314935	0.218906	-0.174441
H271	H	0.263226	-0.268472	-0.374785
H272	H	0.763226	0.231528	0.125215
Cl273	Cl	0.996015	-0.949248	-0.211877
Cl274	Cl	1.496015	-0.449248	0.288123
Cl275	Cl	0.815033	-0.949365	-0.392556
Cl276	Cl	1.315033	-0.449365	0.107444
Cl277	Cl	0.774912	-0.839444	-0.432563
Cl278	Cl	1.274912	-0.339444	0.067437
Cl279	Cl	0.995963	-0.151364	-0.674579
Cl280	Cl	1.495963	0.348636	-0.174579
Cl281	Cl	1.036062	-0.839296	-0.171864
Cl282	Cl	1.536062	-0.339296	0.328136
