data_functionalizedCrystal
_audit_creation_method	'MofGen! by Chris Wilmer'
_symmetry_space_group_name_H-M	'P1'
_symmetry_Int_Tables_number	1
_symmetry_cell_setting	triclinic
loop_
_symmetry_equiv_pos_as_xyz
  x,y,z
_cell_length_a	15.297475
_cell_length_b	29.839131
_cell_length_c	15.296720
_cell_angle_alpha	80.362437
_cell_angle_beta	88.382886
_cell_angle_gamma	80.343089
loop_
_atom_site_label
_atom_site_type_symbol
_atom_site_fract_x
_atom_site_fract_y
_atom_site_fract_z
Zn1	Zn	1.253182	-0.349614	0.726505
Zn2	Zn	1.278404	-0.414299	0.580004
Zn3	Zn	1.132076	-0.324378	0.554753
Zn4	Zn	1.106633	-0.409883	0.701134
O5	O	1.192574	-0.374544	0.640599
O6	O	1.379098	-0.370604	0.728258
O7	O	1.280197	-0.393657	0.454082
O8	O	1.148233	-0.264871	0.577587
O9	O	1.397629	-0.418128	0.620623
O10	O	1.237209	-0.283412	0.703773
O11	O	1.172690	-0.327593	0.435530
O12	O	1.006131	-0.323311	0.552985
O13	O	1.104870	-0.410602	0.827071
O14	O	0.987438	-0.386132	0.660530
O15	O	1.212539	-0.366323	0.845712
O16	O	1.255527	-0.476568	0.596021
O17	O	1.129327	-0.473324	0.685015
C18	C	0.965003	-0.351504	0.601265
C19	C	0.867644	-0.341660	0.584458
C20	C	1.192423	-0.491247	0.640528
C21	C	1.192434	-0.541184	0.640541
C22	C	0.554433	-0.444905	0.760721
C23	C	0.645908	-0.454157	0.776509
C24	C	0.701346	-0.426033	0.728498
C25	C	0.665301	-0.388656	0.664695
C26	C	0.573819	-0.379405	0.648901
C27	C	0.720732	-0.360534	0.616678
C28	C	0.684687	-0.323157	0.552875
C29	C	0.593213	-0.313908	0.537084
C30	C	0.537775	-0.342031	0.585095
C31	C	0.812214	-0.369785	0.632472
C32	C	0.831600	-0.304286	0.520652
C33	C	0.740125	-0.295034	0.504864
C34	C	1.258374	-0.852537	0.594359
C35	C	1.258476	-1.040223	0.594412
O36	O	1.314421	-1.065927	0.555092
N37	N	1.192744	-1.062009	0.640696
C38	C	1.126986	-1.036871	0.686975
O39	O	1.071084	-1.059708	0.726352
C40	C	1.126888	-0.849186	0.686927
C41	C	1.192619	-0.827402	0.640633
C42	C	1.324100	-0.830753	0.548069
C43	C	1.324071	-0.783833	0.548053
C44	C	1.258316	-0.758698	0.594326
C45	C	1.192590	-0.780482	0.640616
C46	C	1.061134	-0.824049	0.733211
C47	C	1.061116	-0.777125	0.733197
C48	C	1.126847	-0.755341	0.686902
C49	C	1.126806	-0.708428	0.686873
N50	N	1.192537	-0.686642	0.640589
C51	C	1.258292	-0.711777	0.594315
C52	C	1.127041	-1.135408	0.686996
C53	C	1.127064	-1.182328	0.687007
C54	C	1.258556	-1.185678	0.594445
C55	C	1.258528	-1.138756	0.594429
C56	C	1.192772	-1.113622	0.640712
C57	C	1.258226	-0.613243	0.594283
C58	C	1.258189	-0.566319	0.594268
C59	C	1.126701	-0.562974	0.686833
C60	C	1.126734	-0.609893	0.686845
C61	C	1.192505	-0.635027	0.640569
O62	O	1.070896	-0.682697	0.726181
O63	O	1.314197	-0.688934	0.554961
C64	C	1.258403	-0.899456	0.594376
C65	C	1.192677	-0.921240	0.640666
C66	C	1.126922	-0.896105	0.686939
C67	C	1.192700	-0.968161	0.640677
C68	C	1.258455	-0.993296	0.594404
C69	C	1.324187	-0.971511	0.548119
C70	C	1.324158	-0.924591	0.548103
C71	C	1.061190	-0.917891	0.733224
C72	C	1.061224	-0.964810	0.733236
C73	C	1.126979	-0.989946	0.686962
C74	C	1.421033	-0.397674	0.680087
C75	C	1.518389	-0.407530	0.696915
C76	C	1.153053	-0.390785	0.869062
C77	C	1.136212	-0.397706	0.966419
C78	C	1.192746	-0.257388	0.640693
C79	C	1.192819	-0.207464	0.640733
C80	C	1.231992	-0.358339	0.413033
C81	C	1.249003	-0.351308	0.315706
C82	C	1.312975	-0.325003	1.279676
C83	C	1.328804	-0.318502	1.188205
C84	C	1.280657	-0.338302	1.132754
C85	C	1.216679	-0.364605	1.168783
C86	C	1.200853	-0.371110	1.260264
C87	C	1.168535	-0.384409	1.113342
C88	C	1.104557	-0.410712	1.149371
C89	C	1.088734	-0.417215	1.240843
C90	C	1.136881	-0.397415	1.296294
C91	C	1.184361	-0.377904	1.021861
C92	C	1.072239	-0.424011	1.002450
C93	C	1.056410	-0.430512	1.093921
H94	H	0.841552	-0.400218	0.684422
H95	H	0.675249	-0.484590	0.828455
C96	C	1.396375	-0.759876	0.497116
N97	N	1.450836	-0.741834	0.458745
C98	C	0.801973	-0.436219	0.745853
N99	N	0.877769	-0.443894	0.758924
C100	C	1.018360	-0.446151	1.280473
N101	N	0.965352	-0.467946	1.310321
C102	C	1.019272	-0.445791	0.941457
N103	N	0.979381	-0.462195	0.895512
H104	H	0.509289	-0.467801	0.799799
C105	C	0.553567	-0.272792	0.466898
N106	N	0.523707	-0.241823	0.414035
H107	H	0.876738	-0.281386	0.481556
C108	C	0.437144	-0.331850	0.567744
N109	N	0.361346	-0.324180	0.554682
C110	C	0.700464	-0.253921	0.434680
N111	N	0.670591	-0.222955	0.381816
H112	H	1.380897	-0.297088	1.158877
H113	H	1.073161	-0.542501	0.724506
C114	C	1.254730	-0.348968	0.982239
N115	N	1.307734	-0.327170	0.952396
C116	C	0.988778	-0.749481	0.784113
N117	N	0.934292	-0.728660	0.822462
H118	H	1.311715	-0.548584	0.556566
H119	H	1.007645	-0.897429	0.770906
C120	C	1.330572	-0.640883	0.543370
N121	N	1.385060	-0.661700	0.505017
C122	C	1.365925	-0.303224	1.340675
N123	N	1.405808	-0.286817	1.386622
C124	C	1.396517	-0.999168	0.497217
N125	N	1.450995	-1.020003	0.458884
C126	C	1.396438	-0.858393	0.497155
N127	N	1.450923	-0.879208	0.458796
H128	H	1.377682	-0.906858	0.510406
H129	H	1.004318	-0.451928	1.123269
C130	C	1.330838	-1.114798	0.543505
N131	N	1.385307	-1.096756	0.505149
H132	H	1.073532	-1.200060	0.724695
C133	C	1.330891	-1.213336	0.543549
N134	N	1.385375	-1.234171	0.505223
H135	H	1.123997	-0.402707	1.370778
C136	C	1.054719	-1.107770	0.737941
N137	N	1.000251	-1.086957	0.776321
C138	C	0.988825	-0.848002	0.784143
N139	N	0.934359	-0.866042	0.822510
C140	C	0.988908	-0.988767	0.784166
N141	N	0.934446	-1.006811	0.822531
C142	C	1.054425	-0.633856	0.737768
N143	N	0.999966	-0.651903	0.776132
H144	H	1.293549	-0.333007	1.058275
