data_functionalizedCrystal
_audit_creation_method	'MofGen! by Chris Wilmer'
_symmetry_space_group_name_H-M	'P1'
_symmetry_Int_Tables_number	1
_symmetry_cell_setting	triclinic
loop_
_symmetry_equiv_pos_as_xyz
  x,y,z
_cell_length_a	18.101395
_cell_length_b	18.101398
_cell_length_c	16.120256
_cell_angle_alpha	92.887765
_cell_angle_beta	92.874436
_cell_angle_gamma	90.026661
loop_
_atom_site_label
_atom_site_type_symbol
_atom_site_fract_x
_atom_site_fract_y
_atom_site_fract_z
Zn1	Zn	-0.316171	1.110900	-0.471191
Zn2	Zn	-0.433731	1.117074	-0.331781
Zn3	Zn	-0.309900	0.993336	-0.331815
Zn4	Zn	-0.439965	0.987010	-0.471171
O5	O	-0.374942	1.052080	-0.401489
O6	O	-0.331781	1.215352	-0.452692
O7	O	-0.412072	1.105891	-0.215121
O8	O	-0.207100	1.008994	-0.350327
O9	O	-0.418152	1.219888	-0.350268
O10	O	-0.211707	1.095368	-0.452725
O11	O	-0.321094	1.014981	-0.215146
O12	O	-0.327138	0.888863	-0.350307
O13	O	-0.428776	0.998213	-0.587838
O14	O	-0.422696	0.884216	-0.452691
O15	O	-0.337825	1.089234	-0.587853
O16	O	-0.538190	1.099758	-0.350248
O17	O	-0.542770	1.004200	-0.452657
C18	C	-0.374913	0.859669	-0.401501
C19	C	-0.374920	0.777354	-0.401526
C20	C	-0.374962	0.478264	-0.401491
C21	C	-0.435346	0.506704	-0.465590
C22	C	-0.435178	0.592311	-0.465853
C23	C	-0.374941	0.626646	-0.401508
C24	C	-0.298022	0.594510	-0.425515
C25	C	-0.298388	0.508845	-0.425971
C26	C	-0.390802	0.513787	-0.313230
C27	C	-0.392535	0.599415	-0.313702
C28	C	-0.374925	0.710505	-0.401517
C29	C	-0.374973	0.394405	-0.401485
C30	C	-0.567351	1.051982	-0.401465
C31	C	-0.649666	1.052006	-0.401482
C32	C	-0.948759	1.052167	-0.401527
C33	C	-0.920353	0.992170	-0.466120
C34	C	-0.834726	0.991908	-0.465918
C35	C	-0.800376	1.052087	-0.401505
C36	C	-0.827562	1.034915	-0.313645
C37	C	-0.913225	1.034530	-0.314032
C38	C	-0.918123	1.129496	-0.424021
C39	C	-0.832559	1.128948	-0.425948
C40	C	-0.716515	1.052044	-0.401488
C41	C	-1.032619	1.052209	-0.401539
C42	C	-0.181782	1.052198	-0.401532
C43	C	-0.099468	1.052248	-0.401550
C44	C	-0.384695	1.042329	-0.618941
C45	C	-0.388852	1.038174	-0.711605
C46	C	-0.374971	1.245242	-0.401478
C47	C	-0.374983	1.327556	-0.401473
C48	C	-0.353247	1.073747	-0.922560
C49	C	-0.396410	1.030563	-0.881260
C50	C	-0.392203	1.034799	-0.786855
C51	C	-0.357453	1.069512	-1.016973
C52	C	-0.365173	1.061835	-0.184884
C53	C	-0.360807	1.066134	-0.092220
H54	H	-0.492343	0.613984	-0.450807
H55	H	-0.449116	0.620535	-0.295595
H56	H	-0.351430	0.623082	-0.263378
Cl57	Cl	-0.291312	1.135727	-0.867689
H58	H	-0.436517	0.990406	-0.916802
Cl59	Cl	-0.942839	0.947439	-0.284612
Cl60	Cl	-0.322823	0.485828	-0.239491
H61	H	-0.492707	0.486759	-0.450712
Cl62	Cl	-0.419899	0.468958	-0.565970
H63	H	-0.251984	0.616912	-0.380285
Cl64	Cl	-0.955777	1.154858	-0.521250
Cl65	Cl	-0.806740	1.007784	-0.566502
Cl66	Cl	-0.793195	0.948782	-0.283695
H67	H	-0.284486	0.485978	-0.490494
Cl68	Cl	-0.419483	0.619423	-0.566819
H69	H	-0.804965	1.077414	-0.264207
H70	H	-0.252006	0.490129	-0.381425
Cl71	Cl	-0.276039	0.623208	-0.524052
Cl72	Cl	-0.941754	1.099392	-0.237189
H73	H	-0.445724	0.493156	-0.291412
H74	H	-0.943850	1.002315	-0.531479
H75	H	-0.815114	1.141970	-0.490608
H76	H	-0.809183	1.175696	-0.382329
H77	H	-0.941272	0.935117	-0.451409
H78	H	-0.813626	0.934510	-0.451019
Cl79	Cl	-0.946132	1.198437	-0.351400
