data_functionalizedCrystal
_audit_creation_method	'MofGen! by Chris Wilmer'
_symmetry_space_group_name_H-M	'P1'
_symmetry_Int_Tables_number	1
_symmetry_cell_setting	triclinic
loop_
_symmetry_equiv_pos_as_xyz
  x,y,z
_cell_length_a	19.188930
_cell_length_b	19.188930
_cell_length_c	13.930277
_cell_angle_alpha	89.990320
_cell_angle_beta	89.978906
_cell_angle_gamma	83.144779
loop_
_atom_site_label
_atom_site_type_symbol
_atom_site_fract_x
_atom_site_fract_y
_atom_site_fract_z
O1	O	0.926148	0.087167	-0.080150
O2	O	1.259481	0.420500	0.253183
O3	O	1.592814	0.753834	0.586516
O4	O	0.722836	0.098901	-0.080086
O5	O	1.056170	0.432235	0.253248
O6	O	1.389503	0.765568	0.586581
O7	O	0.830359	-0.008621	-0.080101
O8	O	1.163692	0.324712	0.253232
O9	O	1.497026	0.658045	0.586566
O10	O	0.818625	0.194690	-0.080135
O11	O	1.151958	0.528023	0.253198
O12	O	1.485292	0.861357	0.586532
O13	O	0.830344	-0.008624	0.079561
O14	O	1.163678	0.324710	0.412894
O15	O	1.497011	0.658043	0.746227
O16	O	0.722821	0.098899	0.079576
O17	O	1.056155	0.432232	0.412909
O18	O	1.389488	0.765566	0.746243
O19	O	0.926133	0.087165	0.079512
O20	O	1.259466	0.420498	0.412845
O21	O	1.592799	0.753832	0.746178
Zn22	Zn	0.824475	0.093032	0.104894
Zn23	Zn	1.157808	0.426365	0.438227
Zn24	Zn	1.491141	0.759698	0.771560
Zn25	Zn	0.824494	0.093035	-0.105468
Zn26	Zn	1.157828	0.426368	0.227866
Zn27	Zn	1.491161	0.759701	0.561199
O28	O	0.818610	0.194688	0.079527
O29	O	1.151943	0.528021	0.412860
O30	O	1.485277	0.861354	0.746194
C31	C	0.696818	0.098520	-0.000246
C32	C	1.030151	0.431854	0.333087
C33	C	1.363485	0.765187	0.666420
C34	C	0.619313	0.097380	-0.000221
C35	C	0.952647	0.430713	0.333112
C36	C	1.285980	0.764046	0.666446
C37	C	0.574389	0.160470	-0.000247
C38	C	0.907723	0.493804	0.333087
C39	C	1.241056	0.827137	0.666420
C40	C	0.501566	0.159399	-0.000257
C41	C	0.834899	0.492732	0.333076
C42	C	1.168232	0.826065	0.666410
C43	C	0.473669	0.095233	-0.000261
C44	C	0.807002	0.428566	0.333072
C45	C	1.140336	0.761899	0.666406
C46	C	0.518603	0.032133	-0.000230
C47	C	0.851936	0.365467	0.333103
C48	C	1.185270	0.698800	0.666437
C49	C	0.591425	0.033207	-0.000210
C50	C	0.924758	0.366540	0.333123
C51	C	1.258092	0.699874	0.666457
N52	N	0.365694	0.046186	-0.054631
N53	N	0.699027	0.379520	0.278702
N54	N	1.032361	0.712853	0.612035
N55	N	0.296515	0.045171	-0.054652
N56	N	0.629849	0.378504	0.278681
N57	N	0.963182	0.711838	0.612014
C58	C	0.254260	0.091994	-0.000319
C59	C	0.587594	0.425328	0.333014
C60	C	0.920927	0.758661	0.666347
N61	N	0.283796	0.139882	0.054024
N62	N	0.617129	0.473216	0.387357
N63	N	0.950463	0.806549	0.720691
N64	N	0.352981	0.140900	0.054041
N65	N	0.686314	0.474233	0.387374
N66	N	1.019647	0.807567	0.720707
C67	C	0.394707	0.094062	-0.000282
C68	C	0.728040	0.427395	0.333051
C69	C	1.061373	0.760728	0.666385
C70	C	0.130372	0.153928	-0.000355
C71	C	0.463705	0.487261	0.332979
C72	C	0.797039	0.820594	0.666312
C73	C	0.057547	0.152853	-0.000359
C74	C	0.390881	0.486187	0.332974
C75	C	0.724214	0.819520	0.666308
C76	C	0.074586	0.025586	-0.000342
C77	C	0.407919	0.358920	0.332991
C78	C	0.741253	0.692253	0.666325
C79	C	0.147409	0.026662	-0.000328
C80	C	0.480743	0.359996	0.333006
C81	C	0.814076	0.693329	0.666339
C82	C	0.175298	0.090835	-0.000339
C83	C	0.508631	0.424168	0.332995
C84	C	0.841964	0.757502	0.666328
C85	C	0.829972	-0.034634	-0.000267
C86	C	1.163305	0.298700	0.333066
C87	C	1.496638	0.632033	0.666399
C88	C	0.828831	-0.112138	-0.000259
C89	C	1.162164	0.221195	0.333075
C90	C	1.495498	0.554529	0.666408
C91	C	0.891922	-0.157062	-0.000274
C92	C	1.225255	0.176271	0.333059
C93	C	1.558589	0.509605	0.666393
C94	C	0.890850	-0.229886	-0.000289
C95	C	1.224184	0.103448	0.333044
C96	C	1.557517	0.436781	0.666378
C97	C	0.826684	-0.257782	-0.000269
C98	C	1.160017	0.075551	0.333064
C99	C	1.493351	0.408884	0.666397
C100	C	0.763585	-0.212849	-0.000259
C101	C	1.096918	0.120485	0.333074
C102	C	1.430252	0.453818	0.666407
C103	C	0.764658	-0.140026	-0.000254
C104	C	1.097992	0.193307	0.333079
C105	C	1.431325	0.526640	0.666413
N106	N	0.777632	-0.365788	0.054082
N107	N	1.110965	-0.032455	0.387415
N108	N	1.444298	0.300879	0.720749
N109	N	0.776616	-0.434967	0.054079
N110	N	1.109950	-0.101633	0.387412
N111	N	1.443283	0.231700	0.720746
C112	C	0.823446	-0.477191	-0.000288
C113	C	1.156779	-0.143858	0.333045
C114	C	1.490113	0.189476	0.666379
N115	N	0.871340	-0.447625	-0.054639
N116	N	1.204673	-0.114291	0.278694
N117	N	1.538007	0.219042	0.612027
N118	N	0.872358	-0.378440	-0.054632
N119	N	1.205691	-0.045107	0.278701
N120	N	1.539024	0.288227	0.612035
C121	C	0.825513	-0.336745	-0.000276
C122	C	1.158846	-0.003412	0.333057
C123	C	1.492180	0.329922	0.666391
C124	C	0.885379	-0.601079	-0.000321
C125	C	1.218712	-0.267746	0.333012
C126	C	1.552046	0.065587	0.666346
C127	C	0.884305	-0.673904	-0.000342
C128	C	1.217638	-0.340571	0.332991
C129	C	1.550971	-0.007238	0.666325
C130	C	0.757038	-0.656865	-0.000303
C131	C	1.090371	-0.323532	0.333031
C132	C	1.423704	0.009801	0.666364
C133	C	0.758114	-0.584042	-0.000291
C134	C	1.091447	-0.250709	0.333042
C135	C	1.424781	0.082624	0.666375
C136	C	0.822286	-0.556154	-0.000296
C137	C	1.155620	-0.222821	0.333037
C138	C	1.488953	0.110513	0.666371
C139	C	0.952151	0.087546	-0.000330
C140	C	1.285485	0.420879	0.333003
C141	C	1.618818	0.754213	0.666337
C142	C	1.029656	0.088687	-0.000362
C143	C	1.362989	0.422020	0.332972
C144	C	1.696322	0.755353	0.666305
C145	C	0.818997	0.220700	-0.000309
C146	C	1.152331	0.554033	0.333024
C147	C	1.485664	0.887366	0.666358
C148	C	0.820138	0.298204	-0.000324
C149	C	1.153471	0.631538	0.333009
C150	C	1.486805	0.964871	0.666343
N151	N	0.824467	0.093029	0.248460
N152	N	1.157800	0.426362	0.581793
N153	N	1.491133	0.759696	0.915126
N154	N	0.824508	0.093031	-0.249034
N155	N	1.157842	0.426365	0.084300
N156	N	1.491175	0.759698	0.417633
C157	C	0.776882	0.140627	0.700736
C158	C	1.110215	0.473960	1.034069
C159	C	1.443548	0.807294	1.367402
C160	C	0.872126	0.045437	0.700692
C161	C	1.205460	0.378770	1.034025
C162	C	1.538793	0.712103	1.367358
C163	C	0.872118	0.045434	0.600196
C164	C	1.205452	0.378768	0.933529
C165	C	1.538785	0.712101	1.266863
C166	C	0.824492	0.093030	0.549965
C167	C	1.157825	0.426363	0.883299
C168	C	1.491158	0.759697	1.216632
C169	C	0.776873	0.140628	0.600231
C170	C	1.110206	0.473961	0.933564
C171	C	1.443540	0.807294	1.266897
C172	C	0.919740	-0.002158	0.549923
C173	C	1.253074	0.331176	0.883256
C174	C	1.586407	0.664509	1.216590
C175	C	0.919735	-0.002161	0.449421
C176	C	1.253068	0.331172	0.782755
C177	C	1.586401	0.664505	1.116088
C178	C	0.872104	0.045432	0.399189
C179	C	1.205437	0.378765	0.732522
C180	C	1.538771	0.712098	1.065856
C181	C	0.824483	0.093031	0.449460
C182	C	1.157816	0.426364	0.782794
C183	C	1.491150	0.759697	1.116127
C184	C	0.776856	0.140626	0.399230
C185	C	1.110190	0.473960	0.732563
C186	C	1.443523	0.807293	1.065897
C187	C	0.729232	0.188223	0.449500
C188	C	1.062565	0.521556	0.782833
C189	C	1.395898	0.854889	1.116166
C190	C	0.729243	0.188221	0.549999
C191	C	1.062576	0.521554	0.883332
C192	C	1.395909	0.854887	1.216665
C193	C	0.872093	0.045434	0.298690
C194	C	1.205427	0.378767	0.632023
C195	C	1.538760	0.712100	0.965357
C196	C	0.776848	0.140627	0.298725
C197	C	1.110181	0.473960	0.632058
C198	C	1.443515	0.807294	0.965392
H199	H	0.020970	0.204232	-0.000374
H200	H	0.354303	0.537565	0.332959
H201	H	0.687637	0.870898	0.666292
H202	H	0.944176	-0.134360	-0.000281
H203	H	1.277509	0.198973	0.333052
H204	H	1.610843	0.532306	0.666386
Br205	Br	0.480745	-0.054950	-0.000226
Br206	Br	0.814079	0.278383	0.333108
Br207	Br	1.147412	0.611717	0.666441
H208	H	0.153080	0.206181	-0.000349
H209	H	0.486413	0.539514	0.332984
H210	H	0.819746	0.872847	0.666317
Br211	Br	0.612235	0.247561	-0.000260
Br212	Br	0.945568	0.580894	0.333074
Br213	Br	1.278902	0.914228	0.666407
H214	H	0.937632	-0.578372	-0.000329
H215	H	1.270966	-0.245038	0.333004
H216	H	1.604299	0.088295	0.666338
H217	H	0.706738	-0.547464	-0.000273
H218	H	1.040072	-0.214131	0.333060
H219	H	1.373405	0.119203	0.666393
Br220	Br	0.652398	-0.052423	-0.000173
Br221	Br	0.985731	0.280910	0.333160
Br222	Br	1.319064	0.614243	0.666493
Br223	Br	0.936728	-0.019150	0.230473
Br224	Br	1.270061	0.314183	0.563806
Br225	Br	1.603394	0.647516	0.897140
H226	H	0.690469	0.226972	0.590934
H227	H	1.023802	0.560306	0.924268
H228	H	1.357136	0.893639	1.257601
Br229	Br	0.676502	-0.250706	-0.000245
Br230	Br	1.009835	0.082627	0.333088
Br231	Br	1.343168	0.415961	0.666422
H232	H	0.051874	-0.026659	-0.000405
H233	H	0.385207	0.306674	0.332929
H234	H	0.718540	0.640008	0.666262
H235	H	0.738062	0.179383	0.257833
H236	H	1.071395	0.512716	0.591167
H237	H	1.404729	0.846049	0.924500
H238	H	0.183988	-0.024713	-0.000312
H239	H	0.517321	0.308620	0.333021
H240	H	0.850654	0.641954	0.666354
Br241	Br	0.976479	-0.290866	-0.000314
Br242	Br	1.309813	0.042467	0.333019
Br243	Br	1.643146	0.375801	0.666352
Br244	Br	0.969936	-0.734875	-0.000373
Br245	Br	1.303269	-0.401542	0.332960
Br246	Br	1.636603	-0.068209	0.666294
Br247	Br	0.440585	0.245028	-0.000286
Br248	Br	0.773919	0.578361	0.333048
Br249	Br	1.107252	0.911695	0.666381
Br250	Br	0.669953	-0.694717	-0.000286
Br251	Br	1.003287	-0.361383	0.333048
Br252	Br	1.336620	-0.028050	0.666381
H253	H	0.690457	0.226978	0.408590
H254	H	1.023790	0.560312	0.741924
H255	H	1.357123	0.893645	1.075257
Br256	Br	0.936767	-0.019149	0.768857
Br257	Br	1.270101	0.314184	1.102191
Br258	Br	1.603434	0.647518	1.435524
Br259	Br	0.984364	-0.066755	0.381204
Br260	Br	1.317698	0.266579	0.714537
Br261	Br	1.651031	0.599912	1.047870
H262	H	0.738104	0.179378	0.741668
H263	H	1.071438	0.512711	1.075001
H264	H	1.404771	0.846044	1.408334
Br265	Br	0.984381	-0.066743	0.618089
Br266	Br	1.317714	0.266590	0.951422
Br267	Br	1.651048	0.599923	1.284756
H268	H	0.713281	-0.103449	-0.000241
H269	H	1.046614	0.229885	0.333092
H270	H	1.379947	0.563218	0.666425
