data_functionalizedCrystal
_audit_creation_method	'MofGen! by Chris Wilmer'
_symmetry_space_group_name_H-M	'P1'
_symmetry_Int_Tables_number	1
_symmetry_cell_setting	triclinic
loop_
_symmetry_equiv_pos_as_xyz
  x,y,z
_cell_length_a	14.971487
_cell_length_b	13.448316
_cell_length_c	14.971486
_cell_angle_alpha	89.996136
_cell_angle_beta	83.614266
_cell_angle_gamma	90.001095
loop_
_atom_site_label
_atom_site_type_symbol
_atom_site_fract_x
_atom_site_fract_y
_atom_site_fract_z
O1	O	-1.186945	0.082550	-0.116564
O2	O	-0.853612	0.415883	0.216769
O3	O	-0.520279	0.749217	0.550103
O4	O	-0.926545	0.082583	-0.130522
O5	O	-0.593212	0.415917	0.202811
O6	O	-0.259879	0.749250	0.536144
O7	O	-1.063725	0.082559	0.006657
O8	O	-0.730391	0.415892	0.339990
O9	O	-0.397058	0.749225	0.673324
O10	O	-1.049766	0.082575	-0.253743
O11	O	-0.716432	0.415908	0.079590
O12	O	-0.383099	0.749241	0.412924
O13	O	-1.063711	-0.082825	0.006658
O14	O	-0.730378	0.250508	0.339992
O15	O	-0.397044	0.583841	0.673325
O16	O	-0.926531	-0.082801	-0.130521
O17	O	-0.593198	0.250533	0.202812
O18	O	-0.259865	0.583866	0.536146
O19	O	-1.186932	-0.082834	-0.116563
O20	O	-0.853598	0.250499	0.216771
O21	O	-0.520265	0.583833	0.550104
Cu22	Cu	-1.056730	-0.097918	-0.123542
Cu23	Cu	-0.723397	0.235415	0.209792
Cu24	Cu	-0.390064	0.568749	0.543125
Cu25	Cu	-1.056746	0.097667	-0.123543
Cu26	Cu	-0.723413	0.431001	0.209790
Cu27	Cu	-0.390080	0.764334	0.543123
O28	O	-1.049752	-0.082809	-0.253742
O29	O	-0.716419	0.250524	0.079591
O30	O	-0.383085	0.583857	0.412925
C31	C	-0.893214	-0.000104	-0.129897
C32	C	-0.559880	0.333229	0.203436
C33	C	-0.226547	0.666562	0.536769
C34	C	-0.793917	-0.000092	-0.128026
C35	C	-0.460583	0.333241	0.205307
C36	C	-0.127250	0.666575	0.538640
N37	N	-1.056725	-0.235482	-0.123540
N38	N	-0.723392	0.097851	0.209793
N39	N	-0.390059	0.431184	0.543126
C40	C	-0.736691	-0.000087	-0.208615
C41	C	-0.403358	0.333246	0.124718
C42	C	-0.070025	0.666580	0.458051
C43	C	-0.643392	-0.000100	-0.206852
C44	C	-0.310059	0.333233	0.126481
C45	C	0.023275	0.666567	0.459815
C46	C	-0.607320	-0.000110	-0.124499
C47	C	-0.273986	0.333223	0.208835
C48	C	0.059347	0.666556	0.542168
C49	C	-0.664552	-0.000118	-0.043903
C50	C	-0.331219	0.333215	0.289430
C51	C	0.002114	0.666549	0.622763
C52	C	-0.757850	-0.000112	-0.045668
C53	C	-0.424516	0.333221	0.287666
C54	C	-0.091183	0.666554	0.620999
C55	C	-0.470090	-0.000127	-0.040232
C56	C	-0.136756	0.333206	0.293101
C57	C	0.196577	0.666539	0.626435
C58	C	-0.376786	-0.000131	-0.038467
C59	C	-0.043452	0.333202	0.294866
C60	C	0.289881	0.666536	0.628199
C61	C	-0.355632	-0.000115	-0.201416
C62	C	-0.022298	0.333218	0.131917
C63	C	0.311035	0.666552	0.465250
C64	C	-0.448929	-0.000109	-0.203181
C65	C	-0.115596	0.333224	0.130153
C66	C	0.217737	0.666557	0.463486
C67	C	-0.506156	-0.000115	-0.122585
C68	C	-0.172822	0.333218	0.210749
C69	C	0.160511	0.666552	0.544082
C70	C	-1.111028	-0.287522	-0.177881
C71	C	-0.777694	0.045811	0.155452
C72	C	-0.444361	0.379144	0.488785
C73	C	-1.111039	-0.391625	-0.177878
C74	C	-0.777705	-0.058292	0.155456
C75	C	-0.444372	0.275041	0.488789
C76	C	-1.056742	-0.443687	-0.123537
C77	C	-0.723409	-0.110354	0.209797
C78	C	-0.390076	0.222980	0.543130
C79	C	-1.002438	-0.391640	-0.069189
C80	C	-0.669104	-0.058306	0.264144
C81	C	-0.335771	0.275027	0.597478
C82	C	-1.002432	-0.287538	-0.069189
C83	C	-0.669099	0.045795	0.264144
C84	C	-0.335765	0.379128	0.597478
C85	C	-1.002452	-0.608620	-0.069195
C86	C	-0.669119	-0.275287	0.264138
C87	C	-0.335785	0.058047	0.597472
C88	C	-1.002456	-0.712728	-0.069196
C89	C	-0.669123	-0.379395	0.264137
C90	C	-0.335789	-0.046062	0.597470
C91	C	-1.111059	-0.712707	-0.177884
C92	C	-0.777725	-0.379374	0.155449
C93	C	-0.444392	-0.046040	0.488783
C94	C	-1.111053	-0.608606	-0.177884
C95	C	-0.777720	-0.275272	0.155450
C96	C	-0.444386	0.058061	0.488783
C97	C	-1.056747	-0.556566	-0.123537
C98	C	-0.723414	-0.223232	0.209796
C99	C	-0.390080	0.110101	0.543130
C100	C	-0.220263	-0.000138	-0.117187
C101	C	0.113070	0.333195	0.216146
C102	C	0.446404	0.666529	0.549480
C103	C	-0.319560	-0.000126	-0.119056
C104	C	0.013773	0.333207	0.214277
C105	C	0.347106	0.666540	0.547610
C106	C	-1.063094	-0.000133	0.039982
C107	C	-0.729760	0.333200	0.373316
C108	C	-0.396427	0.666534	0.706649
C109	C	-1.061223	-0.000132	0.139279
C110	C	-0.727889	0.333202	0.472613
C111	C	-0.394556	0.666535	0.805946
N112	N	-1.056758	0.235232	-0.123538
N113	N	-0.723425	0.568565	0.209796
N114	N	-0.390092	0.901898	0.543129
C115	C	-1.050383	-0.000116	-0.287067
C116	C	-0.717050	0.333218	0.046266
C117	C	-0.383717	0.666551	0.379599
C118	C	-1.052254	-0.000110	-0.386364
C119	C	-0.718921	0.333223	-0.053031
C120	C	-0.385587	0.666557	0.280302
C121	C	-1.141812	-0.000143	0.196504
C122	C	-0.808479	0.333191	0.529838
C123	C	-0.475145	0.666524	0.863171
C124	C	-1.140049	-0.000133	0.289804
C125	C	-0.806716	0.333201	0.623137
C126	C	-0.473382	0.666534	0.956471
C127	C	-1.057696	-0.000118	0.325876
C128	C	-0.724362	0.333215	0.659210
C129	C	-0.391029	0.666548	0.992543
C130	C	-0.977100	-0.000104	0.268644
C131	C	-0.643767	0.333229	0.601977
C132	C	-0.310434	0.666562	0.935311
C133	C	-0.978864	-0.000108	0.175346
C134	C	-0.645531	0.333226	0.508680
C135	C	-0.312198	0.666559	0.842013
C136	C	-0.973429	-0.000100	0.463107
C137	C	-0.640096	0.333233	0.796440
C138	C	-0.306763	0.666566	1.129773
C139	C	-0.971665	-0.000099	0.556411
C140	C	-0.638331	0.333234	0.889744
C141	C	-0.304998	0.666568	1.223077
C142	C	-1.134614	-0.000125	0.577564
C143	C	-0.801280	0.333208	0.910897
C144	C	-0.467947	0.666541	1.244231
C145	C	-1.136378	-0.000128	0.484266
C146	C	-0.803044	0.333205	0.817600
C147	C	-0.469711	0.666538	1.150933
C148	C	-1.055782	-0.000116	0.427040
C149	C	-0.722449	0.333217	0.760374
C150	C	-0.389115	0.666550	1.093707
H151	H	-0.766053	-0.000078	-0.275677
H152	H	-0.432720	0.333255	0.057656
H153	H	-0.099387	0.666589	0.390990
H154	H	-1.155259	-0.433992	-0.222126
H155	H	-0.821926	-0.100658	0.111207
H156	H	-0.488592	0.232675	0.444541
H157	H	-1.208873	-0.000160	0.167142
H158	H	-0.875540	0.333173	0.500475
H159	H	-0.542207	0.666506	0.833809
H160	H	-0.913240	-0.000098	0.128754
H161	H	-0.579907	0.333235	0.462087
H162	H	-0.246573	0.666568	0.795420
H163	H	-0.635175	-0.000141	0.023150
H164	H	-0.301842	0.333193	0.356484
H165	H	0.031492	0.666526	0.689817
H166	H	-0.958213	-0.245169	-0.024939
H167	H	-0.624880	0.088164	0.308395
H168	H	-0.291547	0.421498	0.641728
Br169	Br	-1.249425	-0.000147	0.367464
Br170	Br	-0.916092	0.333186	0.700798
Br171	Br	-0.582758	0.666519	1.034131
H172	H	-0.596802	-0.000095	-0.272476
H173	H	-0.263469	0.333238	0.060857
H174	H	0.069865	0.666572	0.394191
H175	H	-1.155262	-0.566220	-0.222137
H176	H	-0.821928	-0.232887	0.111196
H177	H	-0.488595	0.100447	0.444530
Br178	Br	-0.327830	-0.000179	0.073299
Br179	Br	0.005503	0.333155	0.406632
Br180	Br	0.338836	0.666488	0.739966
Br181	Br	-0.497885	-0.000080	-0.314947
Br182	Br	-0.164551	0.333253	0.018387
Br183	Br	0.168782	0.666587	0.351720
H184	H	-1.155273	-0.755083	-0.222138
H185	H	-0.821940	-0.421749	0.111195
H186	H	-0.488606	-0.088416	0.444528
H187	H	-0.958242	-0.755114	-0.024948
H188	H	-0.624909	-0.421781	0.308385
H189	H	-0.291575	-0.088447	0.641718
Br190	Br	-1.248144	-0.000145	0.435311
Br191	Br	-0.914811	0.333188	0.768644
Br192	Br	-0.581477	0.666522	1.101978
Br193	Br	-0.864048	-0.000080	0.385443
Br194	Br	-0.530715	0.333253	0.718776
Br195	Br	-0.197381	0.666586	1.052109
H196	H	-0.904606	-0.000104	0.585777
H197	H	-0.571272	0.333230	0.919111
H198	H	-0.237939	0.666563	1.252444
H199	H	-0.516682	-0.000134	0.025398
H200	H	-0.183348	0.333200	0.358731
H201	H	0.149985	0.666533	0.692065
H202	H	-1.200238	-0.000132	0.624162
H203	H	-0.866904	0.333201	0.957496
H204	H	-0.533571	0.666534	1.290829
H205	H	-0.958231	-0.566252	-0.024939
H206	H	-0.624898	-0.232919	0.308394
H207	H	-0.291565	0.100415	0.641727
Br208	Br	-0.928752	-0.462293	0.004564
Br209	Br	-0.595419	-0.128960	0.337898
Br210	Br	-0.262085	0.204373	0.671231
Br211	Br	-0.865333	-0.000069	0.317598
Br212	Br	-0.532000	0.333265	0.650932
Br213	Br	-0.198667	0.666598	0.984265
H214	H	-0.309033	-0.000114	-0.267040
H215	H	0.024300	0.333219	0.066293
H216	H	0.357633	0.666552	0.399626
Br217	Br	-1.184717	-0.216877	-0.251637
Br218	Br	-0.851383	0.116456	0.081696
Br219	Br	-0.518050	0.449789	0.415029
Br220	Br	-0.835515	-0.000128	0.063708
Br221	Br	-0.502181	0.333206	0.397041
Br222	Br	-0.168848	0.666539	0.730374
