data_functionalizedCrystal
_audit_creation_method	'MofGen! by Chris Wilmer'
_symmetry_space_group_name_H-M	'P1'
_symmetry_Int_Tables_number	1
_symmetry_cell_setting	triclinic
loop_
_symmetry_equiv_pos_as_xyz
  x,y,z
_cell_length_a	15.995300
_cell_length_b	16.098524
_cell_length_c	17.019448
_cell_angle_alpha	89.196975
_cell_angle_beta	83.437365
_cell_angle_gamma	93.066695
loop_
_atom_site_label
_atom_site_type_symbol
_atom_site_fract_x
_atom_site_fract_y
_atom_site_fract_z
O1	O	1.113878	0.061817	0.104297
O2	O	1.363878	0.311817	0.354297
O3	O	1.613878	0.561817	0.604297
O4	O	1.863878	0.811817	0.854297
O5	O	0.870039	0.060913	0.116853
O6	O	1.120039	0.310913	0.366853
O7	O	1.370039	0.560913	0.616853
O8	O	1.620039	0.810913	0.866853
O9	O	0.999146	0.069558	-0.003883
O10	O	1.249146	0.319558	0.246117
O11	O	1.499146	0.569558	0.496117
O12	O	1.749146	0.819558	0.746117
O13	O	0.984771	0.053172	0.225033
O14	O	1.234771	0.303172	0.475033
O15	O	1.484771	0.553172	0.725033
O16	O	1.734771	0.803172	0.975033
O17	O	0.992479	-0.068506	-0.010162
O18	O	1.242479	0.181494	0.239838
O19	O	1.492479	0.431494	0.489838
O20	O	1.742479	0.681494	0.739838
O21	O	0.863372	-0.077152	0.110574
O22	O	1.113372	0.172848	0.360574
O23	O	1.363372	0.422848	0.610574
O24	O	1.613372	0.672848	0.860574
O25	O	1.107211	-0.076247	0.098018
O26	O	1.357211	0.173753	0.348018
O27	O	1.607211	0.423753	0.598018
O28	O	1.857211	0.673753	0.848018
Zn29	Zn	0.984233	-0.098620	0.103299
Zn30	Zn	1.234233	0.151380	0.353299
Zn31	Zn	1.484233	0.401380	0.603299
Zn32	Zn	1.734233	0.651380	0.853299
Zn33	Zn	0.993017	0.083285	0.111572
Zn34	Zn	1.243017	0.333285	0.361572
Zn35	Zn	1.493017	0.583285	0.611572
Zn36	Zn	1.743017	0.833285	0.861572
O37	O	0.978104	-0.084892	0.218754
O38	O	1.228104	0.165108	0.468754
O39	O	1.478104	0.415108	0.718754
O40	O	1.728104	0.665108	0.968754
C41	C	0.835513	-0.008084	0.113202
C42	C	1.085513	0.241916	0.363202
C43	C	1.335513	0.491916	0.613202
C44	C	1.585513	0.741916	0.863202
C45	C	0.742567	-0.007976	0.111666
C46	C	0.992567	0.242024	0.361666
C47	C	1.242567	0.492024	0.611666
C48	C	1.492567	0.742024	0.861666
N49	N	0.978244	-0.222766	0.097653
N50	N	1.228244	0.027234	0.347653
N51	N	1.478244	0.277234	0.597653
N52	N	1.728244	0.527234	0.847653
C53	C	0.572397	-0.007766	0.108831
C54	C	0.822397	0.242234	0.358831
C55	C	1.072397	0.492234	0.608831
C56	C	1.322397	0.742234	0.858831
C57	C	0.524538	-0.013922	0.194798
C58	C	0.774538	0.236078	0.444798
C59	C	1.024538	0.486078	0.694798
C60	C	1.274538	0.736078	0.944798
C61	C	0.427872	-0.013494	0.193244
C62	C	0.677872	0.236506	0.443244
C63	C	0.927872	0.486506	0.693244
C64	C	1.177872	0.736506	0.943244
C65	C	0.404853	-0.007561	0.106041
C66	C	0.654853	0.242439	0.356041
C67	C	0.904853	0.492439	0.606041
C68	C	1.154853	0.742439	0.856041
C69	C	0.449981	0.074178	0.066968
C70	C	0.699981	0.324178	0.316968
C71	C	0.949981	0.574178	0.566968
C72	C	1.199981	0.824178	0.816968
C73	C	0.546608	0.074086	0.069146
C74	C	0.796608	0.324086	0.319146
C75	C	1.046608	0.574086	0.569146
C76	C	1.296608	0.824086	0.819146
C77	C	0.539311	-0.082833	0.060733
C78	C	0.789311	0.167167	0.310733
C79	C	1.039311	0.417167	0.560733
C80	C	1.289311	0.667167	0.810733
C81	C	0.442316	-0.083866	0.060694
C82	C	0.692316	0.166134	0.310694
C83	C	0.942316	0.416134	0.560694
C84	C	1.192316	0.666134	0.810694
C85	C	0.310166	-0.007442	0.104459
C86	C	0.560166	0.242558	0.354459
C87	C	0.810166	0.492558	0.604459
C88	C	1.060166	0.742558	0.854459
C89	C	0.667086	-0.007880	0.110410
C90	C	0.917086	0.242120	0.360410
C91	C	1.167086	0.492120	0.610410
C92	C	1.417086	0.742120	0.860410
C93	C	1.026711	-0.269620	0.143386
C94	C	1.276711	-0.019620	0.393386
C95	C	1.526711	0.230380	0.643386
C96	C	1.776711	0.480380	0.893386
C97	C	1.022533	-0.356526	0.139431
C98	C	1.272533	-0.106526	0.389431
C99	C	1.522533	0.143474	0.639431
C100	C	1.772533	0.393474	0.889431
C101	C	0.969883	-0.396577	0.089747
C102	C	1.219883	-0.146577	0.339747
C103	C	1.469883	0.103423	0.589747
C104	C	1.719883	0.353423	0.839747
C105	C	0.921414	-0.349716	0.044009
C106	C	1.171414	-0.099716	0.294009
C107	C	1.421414	0.150284	0.544009
C108	C	1.671414	0.400284	0.794009
C109	C	0.925597	-0.262811	0.047960
C110	C	1.175597	-0.012811	0.297960
C111	C	1.425597	0.237189	0.547960
C112	C	1.675597	0.487189	0.797960
C113	C	0.954727	-0.658803	0.075425
C114	C	1.204727	-0.408803	0.325425
C115	C	1.454727	-0.158803	0.575425
C116	C	1.704727	0.091197	0.825425
C117	C	0.950545	-0.745715	0.071479
C118	C	1.200545	-0.495715	0.321479
C119	C	1.450545	-0.245715	0.571479
C120	C	1.700545	0.004285	0.821479
C121	C	1.051667	-0.752518	0.166901
C122	C	1.301667	-0.502518	0.416901
C123	C	1.551667	-0.252518	0.666901
C124	C	1.801667	-0.002518	0.916901
C125	C	1.055841	-0.665611	0.170851
C126	C	1.305841	-0.415611	0.420851
C127	C	1.555841	-0.165611	0.670851
C128	C	1.805841	0.084389	0.920851
C129	C	1.007376	-0.618758	0.125110
C130	C	1.257376	-0.368758	0.375110
C131	C	1.507376	-0.118758	0.625110
C132	C	1.757376	0.131242	0.875110
C133	C	0.965609	-0.485409	0.085705
C134	C	1.215609	-0.235409	0.335705
C135	C	1.465609	0.014591	0.585705
C136	C	1.715609	0.264591	0.835705
C137	C	1.011655	-0.529927	0.129149
C138	C	1.261655	-0.279927	0.379149
C139	C	1.511655	-0.029927	0.629149
C140	C	1.761655	0.220073	0.879149
C141	C	1.141738	-0.007249	0.101670
C142	C	1.391738	0.242751	0.351670
C143	C	1.641738	0.492751	0.601670
C144	C	1.891738	0.742751	0.851670
C145	C	1.234684	-0.007352	0.103206
C146	C	1.484684	0.242648	0.353206
C147	C	1.734684	0.492648	0.603206
C148	C	1.984684	0.742648	0.853206
C149	C	0.995396	0.002624	-0.036315
C150	C	1.245396	0.252624	0.213685
C151	C	1.495396	0.502624	0.463685
C152	C	1.745396	0.752624	0.713685
C153	C	0.994144	0.008877	-0.123598
C154	C	1.244144	0.258877	0.126402
C155	C	1.494144	0.508877	0.376402
C156	C	1.744144	0.758877	0.626402
N157	N	0.999013	0.207431	0.117212
N158	N	1.249013	0.457431	0.367212
N159	N	1.499013	0.707431	0.617212
N160	N	1.749013	0.957431	0.867212
C161	C	0.987325	0.048108	-0.617087
C162	C	1.237325	0.298108	-0.367087
C163	C	1.487325	0.548108	-0.117087
C164	C	1.737325	0.798108	0.132913
C165	C	0.988493	0.042215	-0.535075
C166	C	1.238493	0.292215	-0.285075
C167	C	1.488493	0.542215	-0.035075
C168	C	1.738493	0.792215	0.214925
C169	C	0.985436	-0.035990	-0.497507
C170	C	1.235436	0.214010	-0.247507
C171	C	1.485436	0.464010	0.002493
C172	C	1.735436	0.714010	0.252493
C173	C	0.981219	-0.108307	-0.541957
C174	C	1.231219	0.141693	-0.291957
C175	C	1.481219	0.391693	-0.041957
C176	C	1.731219	0.641693	0.208043
C177	C	0.980058	-0.102414	-0.623968
C178	C	1.230058	0.147586	-0.373968
C179	C	1.480058	0.397586	-0.123968
C180	C	1.730058	0.647586	0.126032
C181	C	0.988766	-0.057547	-0.250059
C182	C	1.238766	0.192453	-0.000059
C183	C	1.488766	0.442453	0.249941
C184	C	1.738766	0.692453	0.499941
C185	C	0.989925	-0.063435	-0.168041
C186	C	1.239925	0.186565	0.081959
C187	C	1.489925	0.436565	0.331959
C188	C	1.739925	0.686565	0.581959
C189	C	0.997200	0.087088	-0.161165
C190	C	1.247200	0.337088	0.088835
C191	C	1.497200	0.587088	0.338835
C192	C	1.747200	0.837088	0.588835
C193	C	0.996033	0.092974	-0.243178
C194	C	1.246033	0.342974	0.006822
C195	C	1.496033	0.592974	0.256822
C196	C	1.746033	0.842974	0.506822
C197	C	0.991822	0.020657	-0.287621
C198	C	1.241822	0.270657	-0.037621
C199	C	1.491822	0.520657	0.212379
C200	C	1.741822	0.770657	0.462379
C201	C	0.986626	-0.042014	-0.413677
C202	C	1.236626	0.207986	-0.163677
C203	C	1.486626	0.457986	0.086323
C204	C	1.736626	0.707986	0.336323
C205	C	0.990637	0.026682	-0.371450
C206	C	1.240637	0.276682	-0.121450
C207	C	1.490637	0.526682	0.128550
C208	C	1.740637	0.776682	0.378550
C209	C	0.981854	-0.017957	0.251186
C210	C	1.231854	0.232043	0.501186
C211	C	1.481854	0.482043	0.751186
C212	C	1.731854	0.732043	1.001186
C213	C	0.983107	-0.024204	0.338470
C214	C	1.233107	0.225796	0.588470
C215	C	1.483107	0.475796	0.838470
C216	C	1.733107	0.725796	1.088470
H217	H	0.396532	-0.072285	0.224192
H218	H	0.646532	0.177715	0.474192
H219	H	0.896532	0.427715	0.724192
H220	H	1.146532	0.677715	0.974192
Cl221	Cl	0.991162	0.146428	-0.664306
Cl222	Cl	1.241162	0.396428	-0.414306
Cl223	Cl	1.491162	0.646428	-0.164306
Cl224	Cl	1.741162	0.896428	0.085694
H225	H	0.436305	0.081469	0.003027
H226	H	0.686305	0.331469	0.253027
H227	H	0.936305	0.581469	0.503027
H228	H	1.186305	0.831469	0.753027
Cl229	Cl	0.999879	0.191293	-0.290400
Cl230	Cl	1.249879	0.441293	-0.040400
Cl231	Cl	1.499879	0.691293	0.209600
Cl232	Cl	1.749879	0.941293	0.459600
Cl233	Cl	0.977381	-0.206623	-0.494729
Cl234	Cl	1.227381	0.043377	-0.244729
Cl235	Cl	1.477381	0.293377	0.005271
Cl236	Cl	1.727381	0.543377	0.255271
H237	H	0.878549	-0.382332	0.003551
H238	H	1.128549	-0.132332	0.253551
H239	H	1.378549	0.117668	0.503551
H240	H	1.628549	0.367668	0.753551
Cl241	Cl	1.077845	-0.479576	0.191604
Cl242	Cl	1.327845	-0.229576	0.441604
Cl243	Cl	1.577845	0.020424	0.691604
Cl244	Cl	1.827845	0.270424	0.941604
H245	H	1.098718	-0.633008	0.211307
H246	H	1.348718	-0.383008	0.461307
H247	H	1.598718	-0.133008	0.711307
H248	H	1.848718	0.116992	0.961307
Cl249	Cl	1.112593	-0.811423	0.224398
Cl250	Cl	1.362593	-0.561423	0.474398
Cl251	Cl	1.612593	-0.311423	0.724398
Cl252	Cl	1.862593	-0.061423	0.974398
H253	H	0.907667	-0.778321	0.031021
H254	H	1.157667	-0.528321	0.281021
H255	H	1.407667	-0.278321	0.531021
H256	H	1.657667	-0.028321	0.781021
H257	H	0.579332	0.081967	0.006173
H258	H	0.829332	0.331967	0.256173
H259	H	1.079332	0.581967	0.506173
H260	H	1.329332	0.831967	0.756173
H261	H	0.412023	-0.144308	0.089193
H262	H	0.662023	0.105692	0.339193
H263	H	0.912023	0.355692	0.589193
H264	H	1.162023	0.605692	0.839193
Cl265	Cl	0.974759	-0.193325	-0.679841
Cl266	Cl	1.224759	0.056675	-0.429841
Cl267	Cl	1.474759	0.306675	-0.179841
Cl268	Cl	1.724759	0.556675	0.070159
Cl269	Cl	1.083465	-0.415425	0.196928
Cl270	Cl	1.333465	-0.165425	0.446928
Cl271	Cl	1.583465	0.084575	0.696928
Cl272	Cl	1.833465	0.334575	0.946928
Cl273	Cl	0.549177	-0.104494	0.244408
Cl274	Cl	0.799177	0.145506	0.494408
Cl275	Cl	1.049177	0.395506	0.744408
Cl276	Cl	1.299177	0.645506	0.994408
H277	H	0.424300	0.130863	0.098882
H278	H	0.674300	0.380863	0.348882
H279	H	0.924300	0.630863	0.598882
H280	H	1.174300	0.880863	0.848882
Cl281	Cl	0.566312	-0.178070	0.100241
Cl282	Cl	0.816312	0.071930	0.350241
Cl283	Cl	1.066312	0.321930	0.600241
Cl284	Cl	1.316312	0.571930	0.850241
H285	H	0.915263	-0.620666	0.038179
H286	H	1.165263	-0.370666	0.288179
H287	H	1.415263	-0.120666	0.538179
H288	H	1.665263	0.129334	0.788179
Cl289	Cl	0.418709	-0.084542	-0.037799
Cl290	Cl	0.668709	0.165458	0.212201
Cl291	Cl	0.918709	0.415458	0.462201
Cl292	Cl	1.168709	0.665458	0.712201
Cl293	Cl	0.588785	-0.077010	-0.037171
Cl294	Cl	0.838785	0.172990	0.212829
Cl295	Cl	1.088785	0.422990	0.462829
Cl296	Cl	1.338785	0.672990	0.712829
H297	H	0.546711	0.039984	0.231393
H298	H	0.796711	0.289984	0.481393
H299	H	1.046711	0.539984	0.731393
H300	H	1.296711	0.789984	0.981393
Cl301	Cl	1.002513	0.177995	-0.105292
Cl302	Cl	1.252513	0.427995	0.144708
Cl303	Cl	1.502513	0.677995	0.394708
Cl304	Cl	1.752513	0.927995	0.644708
Cl305	Cl	0.982779	-0.140326	-0.366442
Cl306	Cl	1.232779	0.109674	-0.116442
Cl307	Cl	1.482779	0.359674	0.133558
Cl308	Cl	1.732779	0.609674	0.383558
H309	H	0.886129	-0.224664	0.010720
H310	H	1.136129	0.025336	0.260720
H311	H	1.386129	0.275336	0.510720
H312	H	1.636129	0.525336	0.760720
H313	H	0.991929	0.101100	-0.498892
H314	H	1.241929	0.351100	-0.248892
H315	H	1.491929	0.601100	0.001108
H316	H	1.741929	0.851100	0.251108
Cl317	Cl	0.899414	-0.535767	0.023253
Cl318	Cl	1.149414	-0.285767	0.273253
Cl319	Cl	1.399414	-0.035767	0.523253
Cl320	Cl	1.649414	0.214233	0.773253
Cl321	Cl	1.092903	-0.219279	0.205850
Cl322	Cl	1.342903	0.030721	0.455850
Cl323	Cl	1.592903	0.280721	0.705850
Cl324	Cl	1.842903	0.530721	0.955850
H325	H	0.987411	-0.127122	-0.137454
H326	H	1.237411	0.122878	0.112546
H327	H	1.487411	0.372878	0.362546
H328	H	1.737411	0.622878	0.612546
H329	H	0.985338	-0.116434	-0.286235
H330	H	1.235338	0.133566	-0.036235
H331	H	1.485338	0.383566	0.213765
H332	H	1.735338	0.633566	0.463765
Cl333	Cl	0.994486	0.124994	-0.418680
Cl334	Cl	1.244486	0.374994	-0.168680
Cl335	Cl	1.494486	0.624994	0.081320
Cl336	Cl	1.744486	0.874994	0.331320
Cl337	Cl	0.388866	0.070414	0.248744
Cl338	Cl	0.638866	0.320414	0.498744
Cl339	Cl	0.888866	0.570414	0.748744
Cl340	Cl	1.138866	0.820414	0.998744
H341	H	0.567637	0.130927	0.102570
H342	H	0.817637	0.380927	0.352570
H343	H	1.067637	0.630927	0.602570
H344	H	1.317637	0.880927	0.852570
