data_functionalizedCrystal
_audit_creation_method	'MofGen! by Chris Wilmer'
_symmetry_space_group_name_H-M	'P1'
_symmetry_Int_Tables_number	1
_symmetry_cell_setting	triclinic
loop_
_symmetry_equiv_pos_as_xyz
  x,y,z
_cell_length_a	16.959455
_cell_length_b	16.959453
_cell_length_c	18.215399
_cell_angle_alpha	89.971976
_cell_angle_beta	89.981437
_cell_angle_gamma	90.016935
loop_
_atom_site_label
_atom_site_type_symbol
_atom_site_fract_x
_atom_site_fract_y
_atom_site_fract_z
Zn1	Zn	1.208417	-0.314754	-0.416091
Zn2	Zn	1.708417	0.185246	0.083909
Zn3	Zn	1.208330	-0.446939	-0.293024
Zn4	Zn	1.708330	0.053061	0.206976
Zn5	Zn	1.076236	-0.314772	-0.293041
Zn6	Zn	1.576236	0.185228	0.206959
Zn7	Zn	1.076211	-0.446887	-0.416052
Zn8	Zn	1.576211	0.053113	0.083948
O9	O	1.142299	-0.380838	-0.354552
O10	O	1.642299	0.119162	0.145448
O11	O	1.319017	-0.332303	-0.399775
O12	O	1.819017	0.167697	0.100225
O13	O	1.190782	-0.429436	-0.190042
O14	O	1.690782	0.070564	0.309958
O15	O	1.093817	-0.204159	-0.309387
O16	O	1.593817	0.295841	0.190613
O17	O	1.318953	-0.429419	-0.309358
O18	O	1.818953	0.070581	0.190642
O19	O	1.190930	-0.204146	-0.399791
O20	O	1.690930	0.295854	0.100209
O21	O	1.093733	-0.332333	-0.190054
O22	O	1.593733	0.167667	0.309946
O23	O	0.965622	-0.332283	-0.309349
O24	O	1.465622	0.167717	0.190651
O25	O	1.093774	-0.429330	-0.519041
O26	O	1.593774	0.070670	-0.019041
O27	O	0.965603	-0.429348	-0.399725
O28	O	1.465603	0.070652	0.100275
O29	O	1.190906	-0.332253	-0.519070
O30	O	1.690906	0.167747	-0.019070
O31	O	1.190757	-0.557543	-0.309321
O32	O	1.690757	-0.057543	0.190679
O33	O	1.093690	-0.557505	-0.399709
O34	O	1.593690	-0.057505	0.100291
C35	C	0.936932	-0.380812	-0.354535
C36	C	1.436932	0.119188	0.145465
C37	C	0.849076	-0.380820	-0.354545
C38	C	1.349076	0.119180	0.145455
C39	C	0.477585	-0.330255	-0.307591
C40	C	0.977585	0.169745	0.192409
C41	C	0.477615	-0.431486	-0.401554
C42	C	0.977615	0.068514	0.098446
C43	C	0.560161	-0.431475	-0.401550
C44	C	1.060161	0.068525	0.098450
C45	C	0.601423	-0.380854	-0.354565
C46	C	1.101423	0.119146	0.145435
C47	C	0.560139	-0.330244	-0.307584
C48	C	1.060139	0.169756	0.192416
C49	C	0.601451	-0.482089	-0.448524
C50	C	1.101451	0.017911	0.051476
C51	C	0.684002	-0.482081	-0.448521
C52	C	1.184002	0.017919	0.051479
C53	C	0.725265	-0.431455	-0.401539
C54	C	1.225265	0.068545	0.098461
C55	C	0.683976	-0.380843	-0.354557
C56	C	1.183976	0.119157	0.145443
C57	C	0.725238	-0.330221	-0.307572
C58	C	1.225238	0.169779	0.192428
C59	C	0.683951	-0.279604	-0.260593
C60	C	1.183951	0.220396	0.239407
C61	C	0.601402	-0.279618	-0.260602
C62	C	1.101402	0.220382	0.239398
C63	C	0.807814	-0.431441	-0.401530
C64	C	1.307814	0.068559	0.098470
C65	C	0.807792	-0.330210	-0.307564
C66	C	1.307792	0.169790	0.192436
C67	C	1.142233	-0.586204	-0.354525
C68	C	1.642233	-0.086204	0.145475
C69	C	1.142277	-0.674061	-0.354538
C70	C	1.642277	-0.174061	0.145462
C71	C	1.192930	-1.045471	-0.401714
C72	C	1.692930	-0.545471	0.098286
C73	C	1.091888	-1.045602	-0.307499
C74	C	1.591888	-0.545602	0.192501
C75	C	1.091858	-0.963056	-0.307482
C76	C	1.591858	-0.463056	0.192518
C77	C	1.142365	-0.921714	-0.354583
C78	C	1.642365	-0.421714	0.145417
C79	C	1.192901	-0.962918	-0.401700
C80	C	1.692901	-0.462918	0.098300
C81	C	1.041318	-0.921846	-0.260370
C82	C	1.541318	-0.421846	0.239630
C83	C	1.041286	-0.839295	-0.260352
C84	C	1.541286	-0.339295	0.239648
C85	C	1.091797	-0.797952	-0.307450
C86	C	1.591797	-0.297952	0.192550
C87	C	1.142335	-0.839160	-0.354569
C88	C	1.642335	-0.339160	0.145431
C89	C	1.192842	-0.797818	-0.401669
C90	C	1.692842	-0.297818	0.098331
C91	C	1.243385	-0.839026	-0.448785
C92	C	1.743385	-0.339026	0.051215
C93	C	1.243412	-0.921574	-0.448798
C94	C	1.743412	-0.421574	0.051202
C95	C	1.091770	-0.715403	-0.307437
C96	C	1.591770	-0.215403	0.192563
C97	C	1.192812	-0.715265	-0.401655
C98	C	1.692812	-0.215265	0.098345
C99	C	1.348467	-0.380865	-0.354569
C100	C	1.848467	0.119135	0.145431
C101	C	1.436323	-0.380876	-0.354577
C102	C	1.936323	0.119124	0.145423
C103	C	1.142347	-0.380784	-0.546505
C104	C	1.642347	0.119216	-0.046505
C105	C	1.142367	-0.380760	-0.628304
C106	C	1.642367	0.119240	-0.128304
C107	C	1.142386	-0.174670	-0.354595
C108	C	1.642386	0.325330	0.145405
C109	C	1.142424	-0.086813	-0.354613
C110	C	1.642424	0.413187	0.145387
C111	C	1.192962	-0.330165	-0.816514
C112	C	1.692962	0.169835	-0.316514
C113	C	1.192971	-0.330142	-0.893373
C114	C	1.692971	0.169858	-0.393373
C115	C	1.091828	-0.431234	-0.893332
C116	C	1.591828	0.068766	-0.393332
C117	C	1.091816	-0.431252	-0.816474
C118	C	1.591816	0.068748	-0.316474
C119	C	1.142387	-0.380719	-0.778067
C120	C	1.642387	0.119281	-0.278067
C121	C	1.142409	-0.380677	-0.931783
C122	C	1.642409	0.119323	-0.431783
C123	C	1.142419	-0.380653	-1.015117
C124	C	1.642419	0.119347	-0.515117
C125	C	1.142376	-0.380742	-0.694728
C126	C	1.642376	0.119258	-0.194728
C127	C	1.142296	-0.380835	-0.163345
C128	C	1.642296	0.119165	0.336655
C129	C	1.142429	-0.380636	-0.081547
C130	C	1.642429	0.119364	0.418453
H131	H	0.717557	-0.238392	-0.222335
H132	H	1.217557	0.261608	0.277665
H133	H	0.567779	-0.238409	-0.222353
H134	H	1.067779	0.261591	0.277647
O135	O	1.037239	-0.485766	-0.775010
O136	O	1.537239	0.014234	-0.275010
H137	H	1.050758	-0.547807	-0.789736
H138	H	1.550758	-0.047807	-0.289736
H139	H	1.233944	-0.681609	-0.440008
H140	H	1.733944	-0.181609	0.059992
O141	O	0.852296	-0.275620	-0.256878
O142	O	1.352296	0.224380	0.243122
H143	H	0.809717	-0.240436	-0.224209
H144	H	1.309717	0.259564	0.275791
O145	O	0.986841	-0.966427	-0.209571
O146	O	1.486841	-0.466427	0.290429
H147	H	1.000424	-0.950604	-0.151823
H148	H	1.500424	-0.450604	0.348177
O149	O	0.556939	-0.536677	-0.499199
O150	O	1.056939	-0.036677	0.000801
H151	H	0.519364	-0.501340	-0.536700
H152	H	1.019364	-0.001340	-0.036700
O153	O	0.986789	-0.794851	-0.209526
O154	O	1.486789	-0.294851	0.290474
H155	H	0.951681	-0.837468	-0.176771
H156	H	1.451681	-0.337468	0.323229
O157	O	1.297862	-0.794434	-0.499585
O158	O	1.797862	-0.294434	0.000415
H159	H	1.289349	-0.730111	-0.491654
H160	H	1.789349	-0.230111	0.008346
O161	O	0.433063	-0.275681	-0.256904
O162	O	0.933063	0.224319	0.243096
H163	H	0.368729	-0.284199	-0.264791
H164	H	0.868729	0.215801	0.235209
H165	H	0.841426	-0.472655	-0.439777
H166	H	1.341426	0.027345	0.060223
H167	H	1.050615	-0.681856	-0.269080
H168	H	1.550615	-0.181856	0.230920
O169	O	0.433117	-0.486082	-0.452231
O170	O	0.933117	0.013918	0.047769
H171	H	0.368779	-0.477584	-0.444347
H172	H	0.868779	0.022416	0.055653
H173	H	0.717611	-0.523296	-0.486775
H174	H	1.217611	-0.023296	0.013225
H175	H	1.284560	-0.955133	-0.487157
H176	H	1.784560	-0.455133	0.012843
H177	H	1.234083	-1.079026	-0.440073
H178	H	1.734083	-0.579026	0.059927
H179	H	1.234138	-0.289015	-0.785245
H180	H	1.734138	0.210985	-0.285245
O181	O	1.247524	-0.275621	-0.934843
O182	O	1.747524	0.224379	-0.434843
H183	H	1.282689	-0.240492	-0.895221
H184	H	1.782689	0.259508	-0.395221
H185	H	1.050765	-1.079268	-0.269155
H186	H	1.550765	-0.579268	0.230845
H187	H	1.050657	-0.472378	-0.924612
H188	H	1.550657	0.027622	-0.424612
