data_functionalizedCrystal
_audit_creation_method	'MofGen! by Chris Wilmer'
_symmetry_space_group_name_H-M	'P1'
_symmetry_Int_Tables_number	1
_symmetry_cell_setting	triclinic
loop_
_symmetry_equiv_pos_as_xyz
  x,y,z
_cell_length_a	19.077068
_cell_length_b	19.077236
_cell_length_c	19.076919
_cell_angle_alpha	89.887323
_cell_angle_beta	94.470751
_cell_angle_gamma	94.708605
loop_
_atom_site_label
_atom_site_type_symbol
_atom_site_fract_x
_atom_site_fract_y
_atom_site_fract_z
Zn1	Zn	-0.256314	1.047584	-0.450390
Zn2	Zn	0.077019	1.380917	-0.117057
Zn3	Zn	0.410352	1.714251	0.216276
Zn4	Zn	-0.369471	1.047497	-0.337231
Zn5	Zn	-0.036138	1.380830	-0.003898
Zn6	Zn	0.297196	1.714163	0.329435
Zn7	Zn	-0.255944	0.934815	-0.328156
Zn8	Zn	0.077389	1.268148	0.005177
Zn9	Zn	0.410723	1.601482	0.338511
Zn10	Zn	-0.378891	0.924923	-0.450332
Zn11	Zn	-0.045558	1.258256	-0.116998
Zn12	Zn	0.287776	1.591589	0.216335
O13	O	-0.315155	0.988705	-0.391527
O14	O	0.018178	1.322038	-0.058194
O15	O	0.351511	1.655371	0.275139
O16	O	-0.267537	1.146064	-0.439202
O17	O	0.065796	1.479398	-0.105869
O18	O	0.399129	1.812731	0.227465
O19	O	-0.350314	1.036653	-0.237539
O20	O	-0.016981	1.369986	0.095794
O21	O	0.316352	1.703320	0.429127
O22	O	-0.157183	0.953950	-0.340597
O23	O	0.176150	1.287284	-0.007264
O24	O	0.509484	1.620617	0.326070
O25	O	-0.350673	1.146000	-0.356065
O26	O	-0.017340	1.479334	-0.022731
O27	O	0.315993	1.812667	0.310602
O28	O	-0.157455	1.036801	-0.430402
O29	O	0.175878	1.370135	-0.097069
O30	O	0.509212	1.703468	0.236265
O31	O	-0.266906	0.953866	-0.230872
O32	O	0.066427	1.287199	0.102462
O33	O	0.399760	1.620533	0.435795
O34	O	-0.276041	0.835011	-0.340540
O35	O	0.057293	1.168344	-0.007207
O36	O	0.390626	1.501677	0.326126
O37	O	-0.366728	0.937090	-0.548828
O38	O	-0.033395	1.270424	-0.215494
O39	O	0.299938	1.603757	0.117839
O40	O	-0.366369	0.827743	-0.430302
O41	O	-0.033036	1.161076	-0.096969
O42	O	0.300297	1.494410	0.236365
O43	O	-0.276672	1.027209	-0.548871
O44	O	0.056662	1.360542	-0.215537
O45	O	0.389995	1.693876	0.117796
O46	O	-0.469531	1.027061	-0.356008
O47	O	-0.136198	1.360394	-0.022675
O48	O	0.197136	1.693727	0.310659
O49	O	-0.476452	0.937006	-0.439102
O50	O	-0.143118	1.270339	-0.105769
O51	O	0.190215	1.603673	0.227565
C52	C	-0.322188	0.805839	-0.384430
C53	C	0.011146	1.139172	-0.051097
C54	C	0.344479	1.472506	0.282236
C55	C	-0.325214	0.727607	-0.381412
C56	C	0.008120	1.060940	-0.048078
C57	C	0.341453	1.394273	0.285255
C58	C	-0.283426	0.690881	-0.423350
C59	C	0.049908	1.024215	-0.090017
C60	C	0.383241	1.357548	0.243317
C61	C	-0.286266	0.617374	-0.420507
C62	C	0.047068	0.950708	-0.087174
C63	C	0.380401	1.284041	0.246159
C64	C	-0.330898	0.580594	-0.375730
C65	C	0.002436	0.913927	-0.042396
C66	C	0.335769	1.247260	0.290937
C67	C	-0.372687	0.617325	-0.333787
C68	C	-0.039354	0.950658	-0.000453
C69	C	0.293979	1.283991	0.332880
C70	C	-0.369843	0.690831	-0.336626
C71	C	-0.036510	1.024164	-0.003293
C72	C	0.296823	1.357497	0.330041
C73	C	-0.344033	0.360752	-0.362585
C74	C	-0.010700	0.694085	-0.029252
C75	C	0.322633	1.027418	0.304082
C76	C	-0.346876	0.287240	-0.359750
C77	C	-0.013542	0.620574	-0.026417
C78	C	0.319791	0.953907	0.306916
C79	C	-0.260453	0.287295	-0.446471
C80	C	0.072881	0.620629	-0.113137
C81	C	0.406214	0.953962	0.220196
C82	C	-0.257616	0.360802	-0.449309
C83	C	0.075718	0.694136	-0.115976
C84	C	0.409051	1.027469	0.217358
C85	C	-0.299403	0.397527	-0.407363
C86	C	0.033931	0.730860	-0.074030
C87	C	0.367264	1.064194	0.259303
N88	N	-0.333803	0.505458	-0.372825
N89	N	-0.000470	0.838791	-0.039491
N90	N	0.332864	1.172124	0.293842
N91	N	-0.296493	0.472662	-0.410265
N92	N	0.036840	0.805995	-0.076932
N93	N	0.370174	1.139329	0.256402
C94	C	-0.498612	0.980969	-0.398550
C95	C	-0.165278	1.314302	-0.065216
C96	C	0.168055	1.647635	0.268117
C97	C	-0.577094	0.977723	-0.401580
C98	C	-0.243760	1.311056	-0.068246
C99	C	0.089573	1.644390	0.265087
C100	C	-0.610338	1.023118	-0.359779
C101	C	-0.277005	1.356451	-0.026446
C102	C	0.056329	1.689785	0.306887
C103	C	-0.684080	1.020069	-0.362634
C104	C	-0.350747	1.353402	-0.029300
C105	C	-0.017414	1.686736	0.304033
C106	C	-0.724577	0.971621	-0.407285
C107	C	-0.391244	1.304954	-0.073952
C108	C	-0.057910	1.638288	0.259382
C109	C	-0.691328	0.926224	-0.449090
C110	C	-0.357994	1.259557	-0.115757
C111	C	-0.024661	1.592891	0.217576
C112	C	-0.617587	0.929277	-0.446239
C113	C	-0.284253	1.262610	-0.112906
C114	C	0.049080	1.595943	0.220428
C115	C	-0.945508	0.957462	-0.420451
C116	C	-0.612175	1.290795	-0.087117
C117	C	-0.278842	1.624129	0.246216
C118	C	-1.019254	0.954411	-0.423297
C119	C	-0.685921	1.287745	-0.089964
C120	C	-0.352588	1.621078	0.243370
C121	C	-1.012002	1.048258	-0.336841
C122	C	-0.678669	1.381591	-0.003508
C123	C	-0.345335	1.714924	0.329826
C124	C	-0.938260	1.051303	-0.333991
C125	C	-0.604927	1.384637	-0.000657
C126	C	-0.271593	1.717970	0.332676
C127	C	-0.905017	1.005909	-0.375798
C128	C	-0.571684	1.339242	-0.042465
C129	C	-0.238350	1.672575	0.290868
N130	N	-0.799954	0.968502	-0.410202
N131	N	-0.466620	1.301835	-0.076869
N132	N	-0.133287	1.635168	0.256465
N133	N	-0.829642	1.009032	-0.372885
N134	N	-0.496308	1.342365	-0.039551
N135	N	-0.162975	1.675699	0.293782
C136	C	-0.130982	0.996489	-0.384494
C137	C	0.202351	1.329822	-0.051160
C138	C	0.535684	1.663156	0.282173
C139	C	-0.052499	0.999806	-0.381497
C140	C	0.280835	1.333140	-0.048163
C141	C	0.614168	1.666473	0.285170
C142	C	-0.322792	0.981056	-0.575100
C143	C	0.010541	1.314389	-0.241767
C144	C	0.343875	1.647723	0.091567
C145	C	-0.326047	0.977797	-0.653328
C146	C	0.007287	1.311130	-0.319994
C147	C	0.340620	1.644463	0.013339
C148	C	-0.308096	1.172284	-0.398652
C149	C	0.025237	1.505618	-0.065319
C150	C	0.358571	1.838951	0.268014
C151	C	-0.305088	1.250515	-0.401689
C152	C	0.028246	1.583848	-0.068355
C153	C	0.361579	1.917182	0.264978
C154	C	-0.280690	1.023183	-0.690103
C155	C	0.052643	1.356516	-0.356770
C156	C	0.385977	1.689850	-0.023436
C157	C	-0.283745	1.020112	-0.763606
C158	C	0.049588	1.353445	-0.430272
C159	C	0.382921	1.686779	-0.096939
C160	C	-0.332161	0.971657	-0.800332
C161	C	0.001172	1.304991	-0.466999
C162	C	0.334505	1.638324	-0.133666
C163	C	-0.377520	0.926266	-0.763552
C164	C	-0.044187	1.259600	-0.430219
C165	C	0.289147	1.592933	-0.096885
C166	C	-0.374461	0.929334	-0.690050
C167	C	-0.041127	1.262668	-0.356717
C168	C	0.292206	1.596001	-0.023384
C169	C	-0.346336	0.957447	-1.020156
C170	C	-0.013003	1.290780	-0.686823
C171	C	0.320331	1.624114	-0.353490
C172	C	-0.349393	0.954384	-1.093664
C173	C	-0.016060	1.287717	-0.760330
C174	C	0.317273	1.621050	-0.426997
C175	C	-0.255618	1.048229	-1.093712
C176	C	0.077716	1.381562	-0.760379
C177	C	0.411049	1.714896	-0.427045
C178	C	-0.252565	1.051296	-1.020209
C179	C	0.080768	1.384629	-0.686876
C180	C	0.414101	1.717962	-0.353542
C181	C	-0.297921	1.005902	-0.983435
C182	C	0.035412	1.339235	-0.650102
C183	C	0.368745	1.672569	-0.316768
N184	N	-0.335287	0.968519	-0.875464
N185	N	-0.001954	1.301852	-0.542131
N186	N	0.331379	1.635185	-0.208798
N187	N	-0.294792	1.009038	-0.908304
N188	N	0.038542	1.342371	-0.574971
N189	N	0.371875	1.675704	-0.241638
C190	C	-0.307495	0.996366	-0.208668
C191	C	0.025838	1.329699	0.124665
C192	C	0.359171	1.663033	0.457998
C193	C	-0.304037	0.999770	-0.130439
C194	C	0.029296	1.333103	0.202895
C195	C	0.362630	1.666437	0.536228
H196	H	-0.378060	0.390644	-0.328430
H197	H	-0.044726	0.723977	0.004903
H198	H	0.288607	1.057311	0.338236
H199	H	-0.241266	1.062642	-0.660206
H200	H	0.092067	1.395975	-0.326872
H201	H	0.425400	1.729309	0.006461
H202	H	-0.221274	0.390744	-0.485775
H203	H	0.112059	0.724077	-0.152441
H204	H	0.445392	1.057410	0.180892
H205	H	-0.711145	1.057034	-0.328595
H206	H	-0.377811	1.390367	0.004739
H207	H	-0.044478	1.723701	0.338072
H208	H	-0.388821	0.914924	-1.123564
H209	H	-0.055488	1.248257	-0.790231
H210	H	0.277845	1.581591	-0.456898
O211	O	-0.730769	0.879182	-0.492404
O212	O	-0.397436	1.212515	-0.159071
O213	O	-0.064103	1.545849	0.174263
C214	C	-0.847583	0.832911	-0.535140
C215	C	-0.514250	1.166245	-0.201807
C216	C	-0.180916	1.499578	0.131527
C217	C	-0.803003	0.886211	-0.486046
C218	C	-0.469669	1.219545	-0.152713
C219	C	-0.136336	1.552878	0.180621
H220	H	-0.905992	0.838586	-0.530027
H221	H	-0.572659	1.171920	-0.196694
H222	H	-0.239325	1.505253	0.136639
H223	H	-0.834857	0.777266	-0.519974
H224	H	-0.501524	1.110599	-0.186641
H225	H	-0.168191	1.443933	0.146693
H226	H	-0.834895	0.843456	-0.591807
H227	H	-0.501562	1.176789	-0.258474
H228	H	-0.168228	1.510123	0.074859
H229	H	-0.815666	0.875732	-0.429364
H230	H	-0.482332	1.209065	-0.096030
H231	H	-0.148999	1.542398	0.237303
H232	H	-0.815735	0.941839	-0.501272
H233	H	-0.482402	1.275173	-0.167938
H234	H	-0.149068	1.608506	0.165395
O235	O	-0.239659	1.064275	-0.799222
O236	O	0.093674	1.397608	-0.465889
O237	O	0.427008	1.730941	-0.132555
C238	C	-0.146301	1.157657	-0.791512
C239	C	0.187032	1.490990	-0.458178
C240	C	0.520366	1.824324	-0.124845
C241	C	-0.196201	1.107693	-0.751091
C242	C	0.137132	1.441026	-0.417757
C243	C	0.470465	1.774360	-0.084424
H244	H	-0.111143	1.192763	-0.752614
H245	H	0.222191	1.526096	-0.419281
H246	H	0.555524	1.859430	-0.085948
H247	H	-0.178702	1.191699	-0.828574
H248	H	0.154631	1.525032	-0.495241
H249	H	0.487965	1.858366	-0.161908
H250	H	-0.112082	1.125458	-0.823276
H251	H	0.221251	1.458791	-0.489943
H252	H	0.554585	1.792124	-0.156609
H253	H	-0.230431	1.139837	-0.719287
H254	H	0.102902	1.473170	-0.385953
H255	H	0.436236	1.806503	-0.052620
H256	H	-0.163758	1.073649	-0.714071
H257	H	0.169575	1.406982	-0.380737
H258	H	0.502908	1.740316	-0.047404
H259	H	-0.403871	0.720732	-0.302475
H260	H	-0.070538	1.054065	0.030859
H261	H	0.262796	1.387398	0.364192
H262	H	-1.052225	0.914967	-0.459670
H263	H	-0.718892	1.248300	-0.126337
H264	H	-0.385559	1.581634	0.206996
H265	H	-0.577370	1.062567	-0.323416
H266	H	-0.244037	1.395900	0.009917
H267	H	0.089296	1.729233	0.343251
O268	O	-0.585403	0.885110	-0.486870
O269	O	-0.252070	1.218443	-0.153537
O270	O	0.081263	1.551777	0.179797
C271	C	-0.600374	0.791743	-0.572963
C272	C	-0.267041	1.125076	-0.239630
C273	C	0.066292	1.458409	0.093703
C274	C	-0.636911	0.841705	-0.526968
C275	C	-0.303577	1.175038	-0.193634
C276	C	0.029756	1.508372	0.139699
H277	H	-0.642001	0.756647	-0.605405
H278	H	-0.308668	1.089980	-0.272071
H279	H	0.024665	1.423314	0.061262
H280	H	-0.565985	0.757690	-0.537900
H281	H	-0.232652	1.091023	-0.204566
H282	H	0.100681	1.424357	0.128767
H283	H	-0.566079	0.823943	-0.609674
H284	H	-0.232745	1.157277	-0.276341
H285	H	0.100588	1.490610	0.056992
H286	H	-0.671242	0.809560	-0.490250
H287	H	-0.337909	1.142893	-0.156917
H288	H	-0.004575	1.476226	0.176416
H289	H	-0.671257	0.875760	-0.562074
H290	H	-0.337924	1.209093	-0.228740
H291	H	-0.004590	1.542426	0.104593
H292	H	-0.383278	0.920494	-0.990225
H293	H	-0.049945	1.253828	-0.656891
H294	H	0.283389	1.587161	-0.323558
H295	H	-0.905289	1.090754	-0.297632
H296	H	-0.571955	1.424087	0.035701
H297	H	-0.238622	1.757420	0.369035
H298	H	-0.213142	1.090754	-0.990311
H299	H	0.120192	1.424088	-0.656978
H300	H	0.453525	1.757421	-0.323645
O301	O	-0.424530	0.879258	-0.799336
O302	O	-0.091196	1.212592	-0.466003
O303	O	0.242137	1.545925	-0.132670
C304	C	-0.470775	0.832912	-0.912543
C305	C	-0.137442	1.166245	-0.579210
C306	C	0.195891	1.499579	-0.245877
C307	C	-0.417513	0.886192	-0.872109
C308	C	-0.084180	1.219526	-0.538775
C309	C	0.249154	1.552859	-0.205442
H310	H	-0.465110	0.838490	-0.971386
H311	H	-0.131777	1.171823	-0.638053
H312	H	0.201556	1.505156	-0.304719
H313	H	-0.526653	0.843464	-0.900798
H314	H	-0.193320	1.176798	-0.567465
H315	H	0.140014	1.510131	-0.234131
H316	H	-0.459960	0.777296	-0.895370
H317	H	-0.126626	1.110629	-0.562037
H318	H	0.206707	1.443963	-0.228703
H319	H	-0.428263	0.941828	-0.889258
H320	H	-0.094930	1.275162	-0.555925
H321	H	0.238403	1.608495	-0.222592
H322	H	-0.361653	0.875579	-0.883856
H323	H	-0.028319	1.208912	-0.550522
H324	H	0.305014	1.542245	-0.217189
H325	H	-0.218691	1.085185	-1.123662
H326	H	0.114643	1.418518	-0.790328
H327	H	0.447976	1.751852	-0.456995
H328	H	-0.918448	0.920499	-0.454491
H329	H	-0.585114	1.253832	-0.121157
H330	H	-0.251781	1.587165	0.212176
H331	H	-0.409024	0.587372	-0.297324
H332	H	-0.075691	0.920706	0.036009
H333	H	0.257643	1.254039	0.369343
H334	H	-0.247083	0.720822	-0.459815
H335	H	0.086250	1.054156	-0.126482
H336	H	0.419583	1.387489	0.206852
H337	H	-0.252239	0.587475	-0.454660
H338	H	0.081095	0.920809	-0.121326
H339	H	0.414428	1.254142	0.212007
H340	H	-0.226431	0.257386	-0.480619
H341	H	0.106902	0.590720	-0.147286
H342	H	0.440235	0.924053	0.186047
O343	O	-0.418450	0.885278	-0.654214
O344	O	-0.085116	1.218611	-0.320881
O345	O	0.248217	1.551944	0.012452
C346	C	-0.455324	0.848441	-0.540959
C347	C	-0.121991	1.181774	-0.207626
C348	C	0.211343	1.515107	0.125708
C349	C	-0.405456	0.898368	-0.581454
C350	C	-0.072123	1.231702	-0.248120
C351	C	0.261211	1.565035	0.085213
H352	H	-0.444846	0.859017	-0.482126
H353	H	-0.111513	1.192350	-0.148793
H354	H	0.221820	1.525683	0.184541
H355	H	-0.445704	0.791596	-0.552678
H356	H	-0.112371	1.124929	-0.219345
H357	H	0.220962	1.458262	0.113988
H358	H	-0.512381	0.857780	-0.558105
H359	H	-0.179048	1.191113	-0.224772
H360	H	0.154285	1.524447	0.108562
H361	H	-0.348380	0.889092	-0.564331
H362	H	-0.015047	1.222425	-0.230998
H363	H	0.318286	1.555759	0.102336
H364	H	-0.415137	0.955196	-0.569733
H365	H	-0.081804	1.288529	-0.236399
H366	H	0.251530	1.621862	0.096934
H367	H	-0.383224	0.257296	-0.323286
H368	H	-0.049891	0.590629	0.010047
H369	H	0.283443	0.923962	0.343380
H370	H	-1.039077	1.085216	-0.302805
H371	H	-0.705743	1.418549	0.030529
H372	H	-0.372410	1.751883	0.363862
