data_functionalizedCrystal
_audit_creation_method	'MofGen! by Chris Wilmer'
_symmetry_space_group_name_H-M	'P1'
_symmetry_Int_Tables_number	1
_symmetry_cell_setting	triclinic
loop_
_symmetry_equiv_pos_as_xyz
  x,y,z
_cell_length_a	18.215407
_cell_length_b	18.215406
_cell_length_c	18.215399
_cell_angle_alpha	89.984834
_cell_angle_beta	90.020595
_cell_angle_gamma	89.999279
loop_
_atom_site_label
_atom_site_type_symbol
_atom_site_fract_x
_atom_site_fract_y
_atom_site_fract_z
Zn1	Zn	-1.125195	-0.292993	-0.416196
Zn2	Zn	-0.791862	0.040340	-0.082863
Zn3	Zn	-0.458528	0.373673	0.250470
Zn4	Zn	-1.125155	-0.416065	-0.293157
Zn5	Zn	-0.791822	-0.082731	0.040176
Zn6	Zn	-0.458489	0.250602	0.373509
Zn7	Zn	-1.002128	-0.293016	-0.293142
Zn8	Zn	-0.668794	0.040317	0.040191
Zn9	Zn	-0.335461	0.373650	0.373525
Zn10	Zn	-1.002145	-0.416022	-0.416181
Zn11	Zn	-0.668812	-0.082689	-0.082847
Zn12	Zn	-0.335479	0.250644	0.250486
O13	O	-1.063656	-0.354524	-0.354669
O14	O	-0.730323	-0.021191	-0.021336
O15	O	-0.396989	0.312143	0.311998
O16	O	-1.228174	-0.309327	-0.399888
O17	O	-0.894841	0.024006	-0.066555
O18	O	-0.561507	0.357340	0.266779
O19	O	-1.108811	-0.399769	-0.190171
O20	O	-0.775478	-0.066436	0.143162
O21	O	-0.442145	0.266898	0.476496
O22	O	-1.018462	-0.190029	-0.309465
O23	O	-0.685129	0.143304	0.023868
O24	O	-0.351796	0.476638	0.357201
O25	O	-1.228145	-0.399747	-0.309492
O26	O	-0.894811	-0.066414	0.023842
O27	O	-0.561478	0.266920	0.357175
O28	O	-1.108879	-0.190012	-0.399873
O29	O	-0.775546	0.143321	-0.066540
O30	O	-0.442213	0.476655	0.266794
O31	O	-1.018424	-0.309366	-0.190160
O32	O	-0.685090	0.023967	0.143174
O33	O	-0.351757	0.357301	0.476507
O34	O	-0.899146	-0.309325	-0.309450
O35	O	-0.565812	0.024008	0.023883
O36	O	-0.232479	0.357341	0.357216
O37	O	-1.018492	-0.399675	-0.519167
O38	O	-0.685159	-0.066342	-0.185834
O39	O	-0.351826	0.266992	0.147500
O40	O	-0.899159	-0.399697	-0.399846
O41	O	-0.565825	-0.066364	-0.066513
O42	O	-0.232492	0.266969	0.266820
O43	O	-1.108896	-0.309286	-0.519178
O44	O	-0.775563	0.024047	-0.185845
O45	O	-0.442230	0.357381	0.147488
O46	O	-1.108828	-0.519043	-0.309477
O47	O	-0.775495	-0.185710	0.023857
O48	O	-0.442162	0.147623	0.357190
O49	O	-1.018454	-0.519012	-0.399861
O50	O	-0.685120	-0.185679	-0.066528
O51	O	-0.351787	0.147654	0.266805
C52	C	-0.872450	-0.354510	-0.354645
C53	C	-0.539116	-0.021176	-0.021312
C54	C	-0.205783	0.312157	0.312021
C55	C	-0.790651	-0.354521	-0.354653
C56	C	-0.457317	-0.021188	-0.021319
C57	C	-0.123984	0.312145	0.312014
C58	C	-0.602483	-0.401650	-0.401660
C59	C	-0.269149	-0.068317	-0.068327
C60	C	0.064184	0.265016	0.265006
C61	C	-0.525624	-0.401652	-0.401669
C62	C	-0.192291	-0.068319	-0.068335
C63	C	0.141043	0.265015	0.264998
C64	C	-0.525581	-0.307402	-0.307681
C65	C	-0.192248	0.025931	0.025653
C66	C	0.141086	0.359265	0.358986
C67	C	-0.602438	-0.307397	-0.307677
C68	C	-0.269105	0.025936	0.025657
C69	C	0.064228	0.359269	0.358990
C70	C	-0.640887	-0.354526	-0.354665
C71	C	-0.307554	-0.021192	-0.021332
C72	C	0.025779	0.312141	0.312001
C73	C	-0.487171	-0.354532	-0.354678
C74	C	-0.153838	-0.021199	-0.021344
C75	C	0.179496	0.312135	0.311989
C76	C	-0.403837	-0.354533	-0.354686
C77	C	-0.070504	-0.021200	-0.021353
C78	C	0.262829	0.312133	0.311981
C79	C	-0.724226	-0.354523	-0.354658
C80	C	-0.390893	-0.021190	-0.021325
C81	C	-0.057560	0.312143	0.312008
C82	C	-1.063659	-0.545730	-0.354685
C83	C	-0.730325	-0.212397	-0.021352
C84	C	-0.396992	0.120936	0.311982
C85	C	-1.063727	-0.627529	-0.354717
C86	C	-0.730394	-0.294196	-0.021383
C87	C	-0.397060	0.039137	0.311950
C88	C	-0.255609	-0.354537	-0.354690
C89	C	0.077725	-0.021203	-0.021357
C90	C	0.411058	0.312130	0.311977
C91	C	-0.337408	-0.354536	-0.354690
C92	C	-0.004074	-0.021203	-0.021357
C93	C	0.329259	0.312130	0.311976
C94	C	-1.063701	-0.354473	-0.546622
C95	C	-0.730367	-0.021140	-0.213289
C96	C	-0.397034	0.312193	0.120045
C97	C	-1.063720	-0.354452	-0.628421
C98	C	-0.730386	-0.021118	-0.295088
C99	C	-0.397053	0.312215	0.038246
C100	C	-1.063673	-0.162571	-0.354669
C101	C	-0.730340	0.170762	-0.021336
C102	C	-0.397007	0.504095	0.311997
C103	C	-1.063681	-0.080772	-0.354669
C104	C	-0.730347	0.252561	-0.021336
C105	C	-0.397014	0.585894	0.311997
C106	C	-1.016624	0.107414	-0.307621
C107	C	-0.683290	0.440747	0.025713
C108	C	-0.349957	0.774081	0.359046
C109	C	-1.016630	0.184273	-0.307629
C110	C	-0.683297	0.517606	0.025704
C111	C	-0.349963	0.850939	0.359037
C112	C	-1.110786	0.184279	-0.401770
C113	C	-0.777453	0.517612	-0.068437
C114	C	-0.444119	0.850946	0.264896
C115	C	-1.110776	0.107422	-0.401765
C116	C	-0.777442	0.440755	-0.068431
C117	C	-0.444109	0.774088	0.264902
C118	C	-1.063696	0.068991	-0.354685
C119	C	-0.730362	0.402325	-0.021352
C120	C	-0.397029	0.735658	0.311981
C121	C	-1.063712	0.222707	-0.354700
C122	C	-0.730379	0.556041	-0.021367
C123	C	-0.397045	0.889374	0.311966
C124	C	-1.063719	0.306041	-0.354710
C125	C	-0.730386	0.639374	-0.021377
C126	C	-0.397052	0.972708	0.311956
C127	C	-1.063687	-0.014348	-0.354676
C128	C	-0.730354	0.318986	-0.021343
C129	C	-0.397021	0.652319	0.311990
C130	C	-1.110810	-0.307342	-0.816622
C131	C	-0.777477	0.025991	-0.483289
C132	C	-0.444143	0.359324	-0.149956
C133	C	-1.110819	-0.307321	-0.893481
C134	C	-0.777486	0.026013	-0.560148
C135	C	-0.444152	0.359346	-0.226814
C136	C	-1.016681	-0.401447	-0.893458
C137	C	-0.683348	-0.068114	-0.560124
C138	C	-0.350015	0.265219	-0.226791
C139	C	-1.016669	-0.401465	-0.816600
C140	C	-0.683336	-0.068131	-0.483267
C141	C	-0.350003	0.265202	-0.149934
C142	C	-1.063738	-0.354413	-0.778185
C143	C	-0.730405	-0.021080	-0.444851
C144	C	-0.397071	0.312254	-0.111518
C145	C	-1.063759	-0.354374	-0.931901
C146	C	-0.730425	-0.021041	-0.598567
C147	C	-0.397092	0.312292	-0.265234
C148	C	-1.063768	-0.354352	-1.015234
C149	C	-0.730435	-0.021018	-0.681901
C150	C	-0.397101	0.312315	-0.348568
C151	C	-1.063728	-0.354435	-0.694846
C152	C	-0.730395	-0.021102	-0.361512
C153	C	-0.397061	0.312232	-0.028179
C154	C	-1.063654	-0.354522	-0.163463
C155	C	-0.730320	-0.021188	0.169870
C156	C	-0.396987	0.312145	0.503204
C157	C	-1.063777	-0.354336	-0.081664
C158	C	-0.730444	-0.021003	0.251669
C159	C	-0.397110	0.312331	0.585002
H160	H	-0.494266	-0.269033	-0.269423
H161	H	-0.160933	0.064300	0.063911
H162	H	0.172400	0.397634	0.397244
O163	O	-0.970804	0.221515	-0.261945
O164	O	-0.637470	0.554849	0.071389
O165	O	-0.304137	0.888182	0.404722
C166	C	-0.897457	0.202756	-0.278029
C167	C	-0.564124	0.536090	0.055304
C168	C	-0.230790	0.869423	0.388638
H169	H	-0.895934	0.146958	-0.306315
H170	H	-0.562600	0.480291	0.027019
H171	H	-0.229267	0.813625	0.360352
H172	H	-0.864446	0.200119	-0.224912
H173	H	-0.531112	0.533453	0.108422
H174	H	-0.197779	0.866786	0.441755
H175	H	-0.872682	0.246021	-0.315866
H176	H	-0.539349	0.579355	0.017468
H177	H	-0.206015	0.912688	0.350801
H178	H	-0.633786	-0.440023	-0.439924
H179	H	-0.300452	-0.106690	-0.106590
H180	H	0.032881	0.226643	0.226743
O181	O	-0.488237	-0.447467	-0.447216
O182	O	-0.154904	-0.114133	-0.113882
O183	O	0.178429	0.219200	0.219451
C184	C	-0.443776	-0.494960	-0.405247
C185	C	-0.110443	-0.161626	-0.071914
C186	C	0.222891	0.171707	0.261420
H187	H	-0.432235	-0.468933	-0.349517
H188	H	-0.098902	-0.135600	-0.016184
H189	H	0.234432	0.197733	0.317150
H190	H	-0.389744	-0.504863	-0.435214
H191	H	-0.056411	-0.171530	-0.101880
H192	H	0.276923	0.161804	0.231453
H193	H	-0.473394	-0.549485	-0.397074
H194	H	-0.140061	-0.216152	-0.063741
H195	H	0.193272	0.117181	0.269593
H196	H	-0.978286	0.076126	-0.269287
H197	H	-0.644953	0.409459	0.064046
H198	H	-0.311620	0.742793	0.397379
O199	O	-1.156499	-0.261700	-0.779191
O200	O	-0.823166	0.071634	-0.445857
O201	O	-0.489832	0.404967	-0.112524
C202	C	-1.146383	-0.271792	-0.703111
C203	C	-0.813050	0.061541	-0.369778
C204	C	-0.479716	0.394875	-0.036444
H205	H	-1.122283	-0.328590	-0.692604
H206	H	-0.788949	0.004743	-0.359271
H207	H	-0.455616	0.338077	-0.025937
H208	H	-1.201502	-0.266801	-0.673912
H209	H	-0.868169	0.066533	-0.340579
H210	H	-0.534835	0.399866	-0.007246
H211	H	-1.107186	-0.228147	-0.681297
H212	H	-0.773852	0.105186	-0.347964
H213	H	-0.440519	0.438520	-0.014630
O214	O	-1.156616	-0.261574	-0.930705
O215	O	-0.823283	0.071759	-0.597372
O216	O	-0.489949	0.405092	-0.264038
C217	C	-1.198140	-0.220038	-0.880314
C218	C	-0.864807	0.113295	-0.546981
C219	C	-0.531473	0.446628	-0.213647
H220	H	-1.200678	-0.250197	-0.825528
H221	H	-0.867344	0.083136	-0.492195
H222	H	-0.534011	0.416470	-0.158862
H223	H	-1.256127	-0.212186	-0.902533
H224	H	-0.922794	0.121147	-0.569200
H225	H	-0.589461	0.454481	-0.235866
H226	H	-1.171194	-0.164146	-0.872134
H227	H	-0.837861	0.169188	-0.538800
H228	H	-0.504527	0.502521	-0.205467
H229	H	-0.633708	-0.269018	-0.269408
H230	H	-0.300375	0.064315	0.063926
H231	H	0.032959	0.397649	0.397259
O232	O	-1.156498	0.221726	-0.447426
O233	O	-0.823165	0.555059	-0.114093
O234	O	-0.489832	0.888392	0.219240
C235	C	-1.146404	0.297802	-0.437352
C236	C	-0.813070	0.631135	-0.104018
C237	C	-0.479737	0.964468	0.229315
H238	H	-1.122286	0.308291	-0.380557
H239	H	-0.788953	0.641624	-0.047223
H240	H	-0.455620	0.974957	0.286110
H241	H	-1.201534	0.327004	-0.442349
H242	H	-0.868201	0.660338	-0.109015
H243	H	-0.534868	0.993671	0.224318
H244	H	-1.107230	0.319627	-0.481003
H245	H	-0.773896	0.652961	-0.147669
H246	H	-0.440563	0.986294	0.185664
O247	O	-1.156573	0.070207	-0.447510
O248	O	-0.823240	0.403540	-0.114177
O249	O	-0.489907	0.736873	0.219157
C250	C	-1.198121	0.120605	-0.489074
C251	C	-0.864787	0.453939	-0.155740
C252	C	-0.531454	0.787272	0.177593
H253	H	-1.200673	0.175386	-0.458936
H254	H	-0.867340	0.508720	-0.125602
H255	H	-0.534006	0.842053	0.207731
H256	H	-1.256101	0.098389	-0.496929
H257	H	-0.922768	0.431722	-0.163596
H258	H	-0.589435	0.765056	0.169737
H259	H	-1.171185	0.128794	-0.544963
H260	H	-0.837852	0.462127	-0.211630
H261	H	-0.504519	0.795461	0.121703
O262	O	-0.971034	-0.447131	-0.930890
O263	O	-0.637701	-0.113797	-0.597557
O264	O	-0.304368	0.219536	-0.264224
C265	C	-0.981125	-0.437011	-1.006969
C266	C	-0.647792	-0.103678	-0.673636
C267	C	-0.314459	0.229655	-0.340303
H268	H	-1.037923	-0.412910	-1.017479
H269	H	-0.704589	-0.079576	-0.684146
H270	H	-0.371256	0.253757	-0.350813
H271	H	-0.976135	-0.492129	-1.036175
H272	H	-0.642801	-0.158796	-0.702842
H273	H	-0.309468	0.174537	-0.369509
H274	H	-0.937479	-0.397814	-1.028773
H275	H	-0.604146	-0.064481	-0.695440
H276	H	-0.270813	0.268853	-0.362107
H277	H	-0.978332	-0.439795	-0.785304
H278	H	-0.644999	-0.106462	-0.451970
H279	H	-0.311666	0.226872	-0.118637
