data_functionalizedCrystal
_audit_creation_method	'MofGen! by Chris Wilmer'
_symmetry_space_group_name_H-M	'P1'
_symmetry_Int_Tables_number	1
_symmetry_cell_setting	triclinic
loop_
_symmetry_equiv_pos_as_xyz
  x,y,z
_cell_length_a	12.811438
_cell_length_b	14.044220
_cell_length_c	11.892095
_cell_angle_alpha	94.243827
_cell_angle_beta	80.666371
_cell_angle_gamma	88.595284
loop_
_atom_site_label
_atom_site_type_symbol
_atom_site_fract_x
_atom_site_fract_y
_atom_site_fract_z
O1	O	1.420301	0.112339	-0.239597
O2	O	1.113964	0.128242	-0.208198
O3	O	1.262534	-0.017681	-0.223415
O4	O	1.271731	0.258262	-0.224380
O5	O	1.250144	-0.005533	-0.034139
O6	O	1.101574	0.140390	-0.018922
O7	O	1.407912	0.124487	-0.050321
Zn8	Zn	1.252776	0.134367	-0.004570
Zn9	Zn	1.269100	0.118361	-0.253950
O10	O	1.259342	0.270410	-0.035104
C11	C	1.068328	0.133797	-0.109517
C12	C	0.950804	0.132240	-0.097471
C13	C	0.778406	0.136667	0.022676
C14	C	0.888830	0.138131	0.011363
C15	C	0.902346	0.124887	-0.194998
C16	C	0.791922	0.123423	-0.183684
C17	C	0.729956	0.129312	-0.074844
C18	C	0.619530	0.127841	-0.063531
C19	C	0.633048	0.114604	-0.269891
C20	C	0.743472	0.116068	-0.281204
C21	C	1.252313	-0.046911	-0.128364
C22	C	1.240306	-0.152105	-0.127132
C23	C	1.218355	-0.344709	-0.124898
C24	C	1.303517	-0.402569	-0.133631
C25	C	1.291303	-0.509740	-0.132388
C26	C	1.230567	-0.237527	-0.126141
C27	C	1.453548	0.118931	-0.149004
C28	C	1.571073	0.120488	-0.161058
C29	C	1.269562	0.299639	-0.130158
C30	C	1.281570	0.404833	-0.131397
N31	N	1.241644	0.145290	0.165625
N32	N	1.280240	0.107431	-0.424145
C33	C	1.357700	0.031371	0.390386
C34	C	1.349927	0.039012	0.509524
C35	C	1.218319	0.168210	0.523041
C36	C	1.226092	0.160568	0.403903
C37	C	1.295786	0.092147	0.337579
C38	C	1.303565	0.084511	0.218439
C39	C	1.171951	0.213703	0.231959
C40	C	1.164178	0.221345	0.351097
H41	H	0.593588	0.108618	-0.349299
H42	H	0.727952	0.141467	0.111298
H43	H	0.928273	0.144123	0.090774
H44	H	1.136279	-0.375660	-0.116488
H45	H	1.360316	0.028801	0.164438
H46	H	1.161568	0.223911	0.577059
H47	H	1.414456	-0.024334	0.336383
H48	H	1.121540	0.263195	0.188951
H49	H	1.400342	-0.010479	0.552515
H50	H	0.793939	0.111277	-0.369819
H51	H	0.569078	0.132642	0.025092
H52	H	0.952817	0.120101	-0.283611
H53	H	1.107431	0.277050	0.405112
H54	H	1.385604	-0.371621	-0.142120
