data_functionalizedCrystal
_audit_creation_method	'MofGen! by Chris Wilmer'
_symmetry_space_group_name_H-M	'P1'
_symmetry_Int_Tables_number	1
_symmetry_cell_setting	triclinic
loop_
_symmetry_equiv_pos_as_xyz
  x,y,z
_cell_length_a	8.559649
_cell_length_b	10.723024
_cell_length_c	7.088929
_cell_angle_alpha	83.718137
_cell_angle_beta	95.325015
_cell_angle_gamma	77.123267
loop_
_atom_site_label
_atom_site_type_symbol
_atom_site_fract_x
_atom_site_fract_y
_atom_site_fract_z
O1	O	2.103422	-0.027906	-0.158957
O2	O	1.638923	0.036470	-0.158966
O3	O	1.881888	-0.178393	-0.158954
O4	O	1.860458	0.186957	-0.158969
O5	O	1.914357	-0.207166	0.159022
O6	O	1.671392	0.007698	0.159011
O7	O	2.135892	-0.056678	0.159020
Cu8	Cu	1.906607	-0.027117	0.188049
Cu9	Cu	1.868208	0.006909	-0.187995
O10	O	1.892927	0.158185	0.159008
C11	C	1.595681	0.026962	0.000021
C12	C	1.418460	0.041484	0.000018
C13	C	1.896563	-0.239119	0.000032
C14	C	1.891897	-0.377194	0.000025
C15	C	2.027846	-0.466115	0.000025
C16	C	2.023026	-0.608824	0.000018
C17	C	2.179133	-0.047170	0.000028
C18	C	2.356353	-0.061691	0.000019
C19	C	1.878252	0.218911	0.000017
C20	C	1.882917	0.356987	0.000012
N21	N	1.933626	-0.051052	0.452538
N22	N	1.841202	0.030832	-0.452485
H23	H	2.147807	-0.436593	0.000039
H24	H	1.336043	0.140934	0.000003
C25	C	1.725672	-0.539865	0.000012
C26	C	1.672024	-0.427800	-0.165101
C27	C	1.514780	-0.324642	-0.165101
C28	C	1.411184	-0.333549	0.000012
C29	C	1.464830	-0.445619	0.165137
C30	C	1.622074	-0.548777	0.165137
H31	H	1.748714	-0.421202	-0.287339
H32	H	1.475069	-0.241681	-0.287339
H33	H	1.294783	-0.257186	0.000012
H34	H	1.388140	-0.452217	0.287375
H35	H	1.661785	-0.631738	0.287375
C36	C	2.063048	-0.165692	0.562839
C37	C	2.055796	-0.304882	0.535512
C38	C	2.185215	-0.419520	0.645813
C39	C	2.321886	-0.394968	0.783441
C40	C	2.329143	-0.255772	0.810775
C41	C	2.199724	-0.141134	0.700474
H42	H	1.954619	-0.323062	0.433625
H43	H	2.179842	-0.522562	0.625577
H44	H	2.417690	-0.479830	0.865093
H45	H	2.430320	-0.237591	0.912662
H46	H	2.205097	-0.038091	0.720710
C47	C	1.711787	0.145466	0.437222
C48	C	1.689823	0.165500	0.217064
C49	C	1.560405	0.280137	0.106757
C50	C	1.452952	0.374739	0.216608
C51	C	1.474912	0.354708	0.436778
C52	C	1.604330	0.240072	0.547085
H53	H	1.769369	0.095468	0.135735
H54	H	1.544149	0.294965	-0.056228
H55	H	1.357149	0.459600	0.134952
H56	H	1.395366	0.424741	0.518107
H57	H	1.620586	0.225244	0.710070
H58	H	1.438759	-0.161133	0.000013
H59	H	2.139411	-0.685189	0.000026
H60	H	1.771936	-0.406717	0.000010
