data_functionalizedCrystal
_audit_creation_method	'MofGen! by Chris Wilmer'
_symmetry_space_group_name_H-M	'P1'
_symmetry_Int_Tables_number	1
_symmetry_cell_setting	triclinic
loop_
_symmetry_equiv_pos_as_xyz
  x,y,z
_cell_length_a	19.377372
_cell_length_b	14.560438
_cell_length_c	14.560438
_cell_angle_alpha	60.000095
_cell_angle_beta	90.000766
_cell_angle_gamma	72.110174
loop_
_atom_site_label
_atom_site_type_symbol
_atom_site_fract_x
_atom_site_fract_y
_atom_site_fract_z
Zr1	Zr	0.580507	1.278751	-0.257261
O2	O	0.484272	1.425036	-0.381249
O3	O	0.610013	1.101038	-0.219251
O4	O	0.610002	1.292646	-0.410856
O5	O	0.484285	1.233426	-0.038503
O6	O	0.709175	1.339357	-0.434212
O7	O	0.484283	1.233428	-0.189643
O8	O	0.709194	0.996605	-0.091466
O9	O	0.484266	1.576179	-0.381250
O10	O	0.696602	1.220634	-0.220472
O11	O	0.622593	1.185773	-0.090247
O12	O	0.622580	1.411367	-0.315838
O13	O	0.548571	1.376506	-0.185613
Zr14	Zr	0.738679	1.353248	-0.053460
Zr15	Zr	0.738675	1.353250	-0.294511
Zr16	Zr	0.580511	1.278749	-0.016210
Zr17	Zr	0.580497	1.519806	-0.257263
Zr18	Zr	0.738689	1.112192	-0.053458
O19	O	0.709173	1.530961	-0.091470
O20	O	0.709167	1.530964	-0.434214
O21	O	0.484277	1.425033	-0.038505
O22	O	0.834914	1.206962	0.070527
O23	O	0.834909	1.206965	-0.272216
O24	O	0.610019	1.101035	0.123493
O25	O	0.834901	1.398572	-0.272218
O26	O	0.709184	1.339352	0.100135
O27	O	0.610011	1.292641	0.123491
O28	O	0.834904	1.398571	-0.121078
O29	O	0.609989	1.635395	-0.410859
O30	O	0.709197	0.996603	0.100138
O31	O	0.834921	1.055820	0.070529
O32	O	0.834917	1.055821	-0.121075
O33	O	0.484269	1.576177	-0.189646
O34	O	0.609992	1.635394	-0.219256
O35	O	0.696606	1.220632	0.005117
O36	O	0.770616	1.255493	-0.125108
O37	O	0.696593	1.446226	-0.220474
O38	O	0.622584	1.411365	-0.090249
C39	C	0.659605	1.014476	-0.155358
C40	C	0.659609	0.912142	-0.155357
C41	C	0.714226	0.710373	-0.084963
C42	C	0.714244	0.806517	-0.084961
C43	C	0.604958	0.921624	-0.225766
C44	C	0.604943	0.825482	-0.225772
C45	C	0.804740	0.880455	-0.044066
C46	C	0.859384	0.870968	0.026353
C47	C	0.882789	0.777260	0.132206
C48	C	0.851542	0.693033	0.167663
C49	C	0.796893	0.702524	0.097250
C50	C	0.773500	0.796233	-0.008618
C51	C	0.514447	0.751537	-0.266656
C52	C	0.459795	0.761026	-0.337065
C53	C	0.436382	0.854736	-0.442920
C54	C	0.467617	0.938969	-0.478373
C55	C	0.522269	0.929481	-0.407965
C56	C	0.545683	0.835764	-0.302110
C57	C	0.461748	1.222813	-0.108766
C58	C	0.394601	1.191186	-0.092952
C59	C	-0.019425	1.584962	-0.289843
C60	C	-0.082510	1.555217	-0.274969
C61	C	-0.005227	1.356106	-0.175415
C62	C	0.057866	1.385834	-0.190276
C63	C	0.050760	1.500264	-0.247492
C64	C	0.128051	1.301136	-0.147925
C65	C	0.191137	1.330862	-0.162790
C66	C	0.184039	1.445286	-0.220006
C67	C	0.113846	1.529989	-0.262357
C68	C	0.135155	1.186707	-0.090715
C69	C	0.205340	1.102009	-0.048364
C70	C	0.268428	1.131734	-0.063222
C71	C	0.261330	1.246158	-0.120438
C72	C	0.338621	1.047031	-0.020871
C73	C	0.401707	1.076756	-0.035736
C74	C	0.324416	1.275884	-0.135303
C75	C	0.857438	1.409186	-0.201955
C76	C	0.924585	1.440813	-0.217769
C77	C	0.659588	1.316002	-0.456879
C78	C	0.659586	1.316003	-0.559211
C79	C	0.659581	1.617522	-0.155363
C80	C	0.659577	1.719857	-0.155364
C81	C	0.620948	1.415562	-0.657068
C82	C	0.620957	1.415560	-0.753219
C83	C	0.698243	1.216430	-0.653643
C84	C	0.698238	1.216435	-0.557496
C85	C	0.609656	1.551709	-0.952699
C86	C	0.571005	1.651268	-1.050559
C87	C	0.501765	1.722631	-1.055041
C88	C	0.471159	1.694431	-0.961664
C89	C	0.509805	1.594867	-0.863807
C90	C	0.579058	1.523515	-0.859328
C91	C	0.709531	1.080291	-0.358016
C92	C	0.748173	0.980724	-0.260156
C93	C	0.817413	0.909351	-0.255666
C94	C	0.848014	0.937535	-0.349039
C95	C	0.809372	1.037102	-0.446899
C96	C	0.740133	1.108476	-0.451383
C97	C	0.659598	1.315997	0.146158
C98	C	0.659600	1.315996	0.248490
C99	C	0.857450	1.107663	-0.201953
C100	C	0.924601	1.036955	-0.217766
C101	C	0.659610	1.014473	0.146160
C102	C	0.659616	0.912138	0.248494
C103	C	0.857455	1.107660	0.099566
C104	C	0.924608	1.036952	0.186085
C105	C	0.461731	1.524338	-0.410287
C106	C	0.394579	1.595047	-0.496806
C107	C	0.461736	1.524336	-0.108768
C108	C	0.394585	1.595043	-0.092956
C109	C	0.659576	1.617525	-0.456882
C110	C	0.659570	1.719860	-0.559215
C111	C	0.917502	0.985554	-0.274980
C112	C	0.980591	0.919127	-0.289859
C113	C	1.050779	0.904097	-0.247516
C114	C	1.057877	0.955506	-0.190299
C115	C	0.994788	1.021938	-0.175428
C116	C	0.994782	1.021946	0.158738
C117	C	1.057885	0.955525	0.240022
C118	C	1.050812	0.904102	0.348652
C119	C	0.980630	0.919114	0.375999
C120	C	0.917529	0.985541	0.294716
C121	C	0.324404	1.610064	-0.469459
C122	C	0.261301	1.676516	-0.550743
C123	C	0.268374	1.727943	-0.659373
C124	C	0.338556	1.712925	-0.686720
C125	C	0.401657	1.646481	-0.605437
C126	C	0.401685	1.646454	-0.035751
C127	C	0.338595	1.712908	-0.020898
C128	C	0.268407	1.727942	-0.063245
C129	C	0.261309	1.676528	-0.120457
C130	C	0.324398	1.610082	-0.135316
C131	C	0.698252	0.882255	0.346349
C132	C	0.698249	0.786105	0.442501
C133	C	0.620973	0.749727	0.342928
C134	C	0.620972	0.845879	0.246780
C135	C	0.709550	0.713532	0.641981
C136	C	0.748199	0.683635	0.739840
C137	C	0.817435	0.693915	0.744321
C138	C	0.848039	0.734076	0.650942
C139	C	0.809395	0.763962	0.553086
C140	C	0.740146	0.753699	0.548609
C141	C	0.609679	0.918450	0.047300
C142	C	0.571039	0.948333	-0.050560
C143	C	0.501802	0.938049	-0.055048
C144	C	0.471203	0.897874	0.038327
C145	C	0.509843	0.867991	0.136186
C146	C	0.579079	0.878283	0.140667
H147	H	0.771451	0.633949	0.126119
O148	O	0.604017	1.681683	-1.151267
H149	H	0.565505	1.762894	-1.220068
H150	H	0.211115	1.008841	-0.001782
O151	O	0.106192	1.653410	-0.324067
H152	H	0.046789	1.707318	-0.351025
H153	H	0.860357	0.997792	-0.309478
O154	O	0.684338	1.474740	-0.947872
H155	H	0.706075	1.400774	-0.864138
H156	H	0.204162	1.688728	-0.528456
H157	H	0.758712	0.624372	-0.027633
O158	O	1.002427	1.077405	0.041579
H159	H	0.946764	1.126116	-0.010362
H160	H	0.547699	0.998075	-0.436839
H161	H	0.318631	1.568190	-0.381013
H162	H	0.484930	0.835258	0.212219
H163	H	0.344395	0.953863	0.025705
O164	O	0.346264	1.768340	0.040823
H165	H	0.319363	1.737227	0.112227
H166	H	0.470348	0.962369	-0.134734
H167	H	0.834312	0.796660	0.477059
H168	H	0.974882	0.877237	0.464455
H169	H	1.102144	0.850000	-0.259632
H170	H	0.927282	0.769542	0.189542
H171	H	0.434360	0.692437	-0.308188
H172	H	0.729710	1.135365	-0.652260
O173	O	0.841840	1.001696	0.324217
H174	H	0.847531	0.954760	0.413410
O175	O	0.185605	1.692747	-0.166130
H176	H	0.142935	1.747580	-0.146172
H177	H	0.216987	1.782043	-0.725548
O178	O	0.067110	1.154647	-0.074694
H179	H	0.083841	1.060850	-0.027811
O180	O	0.316737	1.554620	-0.197005
H181	H	0.257331	1.576234	-0.223940
O182	O	0.539700	0.650449	-0.152483
H183	H	0.599662	0.603795	-0.139057
H184	H	1.115032	0.943258	-0.155828
H185	H	0.560476	1.007633	-0.283088
H186	H	0.834294	1.060048	-0.522927
H187	H	0.458795	1.634256	-0.627717
O188	O	0.684406	0.929340	0.052372
H189	H	0.679070	1.019102	-0.002963
H190	H	0.458830	1.634220	-0.001257
H191	H	0.344306	1.754806	-0.775176
H192	H	1.000579	1.063782	-0.128832
O193	O	1.133576	0.939326	0.210517
H194	H	1.127886	0.986226	0.121323
H195	H	0.595958	0.981045	-0.126589
H196	H	0.217043	1.782049	-0.051139
O197	O	0.634847	1.157272	-0.362854
H198	H	0.613122	1.231248	-0.446584
O199	O	0.377429	0.864971	-0.518857
H200	H	0.366397	0.944291	-0.598420
H201	H	0.870598	0.616741	0.253864
H202	H	-0.025213	1.678142	-0.336402
O203	O	0.739925	0.953728	0.348192
H204	H	0.766786	0.916796	0.432395
O205	O	0.922811	0.744861	0.655836
H206	H	0.944571	0.717234	0.739589
H207	H	0.848906	0.669559	0.824007
H208	H	1.102199	0.850016	0.414827
O209	O	0.893098	0.961796	-0.011899
H210	H	0.935025	0.939456	0.054852
H211	H	0.448542	1.015286	-0.564563
O212	O	0.634880	0.702408	0.637177
H213	H	0.596348	0.756536	0.661972
H214	H	0.723275	0.650937	0.815867
H215	H	0.974797	0.877274	-0.336449
O216	O	0.002435	1.232690	-0.113710
H217	H	-0.024454	1.214381	-0.042293
H218	H	0.785694	0.956755	-0.130264
H219	H	0.589511	0.695766	0.341545
O220	O	0.922686	0.860543	-0.344218
H221	H	0.944414	0.786573	-0.260485
H222	H	0.414830	0.889487	0.034674
H223	H	0.318628	1.369064	-0.181861
H224	H	0.235410	1.469486	-0.232110
H225	H	-0.139659	1.624197	-0.309464
H226	H	0.589476	1.496636	-0.658471
O227	O	0.477412	0.985410	0.009933
H228	H	0.508009	0.994199	0.067790
H229	H	0.484885	1.571904	-0.787782
H230	H	0.414773	1.752538	-0.965328
O231	O	0.859093	0.801953	-0.150119
H232	H	0.826185	0.794336	-0.085941
H233	H	0.723247	0.957771	-0.184131
O234	O	0.460079	1.830022	-1.160583
H235	H	0.492994	1.837645	-1.224755
