data_functionalizedCrystal
_audit_creation_method	'MofGen! by Chris Wilmer'
_symmetry_space_group_name_H-M	'P1'
_symmetry_Int_Tables_number	1
_symmetry_cell_setting	triclinic
loop_
_symmetry_equiv_pos_as_xyz
  x,y,z
_cell_length_a	31.640172
_cell_length_b	14.560438
_cell_length_c	14.560438
_cell_angle_alpha	60.006784
_cell_angle_beta	89.994927
_cell_angle_gamma	59.993131
loop_
_atom_site_label
_atom_site_type_symbol
_atom_site_fract_x
_atom_site_fract_y
_atom_site_fract_z
Zr1	Zr	0.407196	1.005100	-0.120413
O2	O	0.339710	1.196700	-0.267026
O3	O	0.427881	0.813511	-0.075488
O4	O	0.427884	1.005095	-0.267062
O5	O	0.339707	1.005116	0.075687
O6	O	0.497441	1.005080	-0.267068
O7	O	0.339707	1.005115	-0.075452
O8	O	0.497435	0.662370	0.075623
O9	O	0.339713	1.347825	-0.267004
O10	O	0.488615	0.892299	-0.056309
O11	O	0.436706	0.892311	0.056490
O12	O	0.436710	1.117877	-0.169065
O13	O	0.384801	1.117889	-0.056266
Zr14	Zr	0.518130	1.005076	0.120627
Zr15	Zr	0.518130	1.005076	-0.120423
Zr16	Zr	0.407196	1.005101	0.120637
Zr17	Zr	0.407200	1.246128	-0.120378
Zr18	Zr	0.518126	0.764048	0.120592
O19	O	0.497445	1.196665	0.075702
O20	O	0.497444	1.196665	-0.267040
O21	O	0.339710	1.196701	0.075715
O22	O	0.585615	0.813476	0.267240
O23	O	0.585615	0.813476	-0.075502
O24	O	0.427881	0.813512	0.267254
O25	O	0.585619	1.005061	-0.075473
O26	O	0.497441	1.005081	0.267276
O27	O	0.427885	1.005096	0.267282
O28	O	0.585619	1.005061	0.075666
O29	O	0.427891	1.347806	-0.267012
O30	O	0.497435	0.662371	0.267226
O31	O	0.585613	0.662351	0.267218
O32	O	0.585613	0.662351	0.075616
O33	O	0.339713	1.347826	-0.075402
O34	O	0.427891	1.347806	-0.075409
O35	O	0.488615	0.892299	0.169279
O36	O	0.540524	0.892288	0.056480
O37	O	0.488619	1.117865	-0.056276
O38	O	0.436710	1.117877	0.056523
C39	C	0.462657	0.703599	0.000063
C40	C	0.462655	0.601277	0.000048
C41	C	0.424339	0.636412	-0.083170
C42	C	0.424348	0.540223	-0.083113
C43	C	0.500990	0.373765	0.083388
C44	C	0.500984	0.469953	0.083326
C45	C	0.380089	0.732514	-0.179296
C46	C	0.380097	0.636325	-0.179239
C47	C	0.323901	1.005119	0.000119
C48	C	0.276807	1.005130	0.000123
C49	C	-0.015199	1.005065	-0.083155
C50	C	-0.192185	1.005048	-0.083163
O51	O	-0.215058	1.004990	-0.153948
N52	N	-0.214316	1.005051	0.000100
C53	C	-0.192195	1.005049	0.083375
O54	O	-0.215077	1.005038	0.154201
C55	C	-0.015207	1.005056	0.083387
C56	C	0.006918	1.005067	0.000112
C57	C	0.006927	1.005073	-0.166422
C58	C	0.051169	1.005085	-0.166423
C59	C	0.073286	1.005087	-0.083156
C60	C	0.051160	1.005078	0.000111
C61	C	0.006915	1.005045	0.166666
C62	C	0.051165	1.005044	0.166663
C63	C	0.073290	1.005054	0.083388
C64	C	0.117519	1.005091	0.083377
N65	N	0.139650	1.005089	0.000115
C66	C	0.117533	1.005086	-0.083152
C67	C	-0.285117	1.005048	0.083361
C68	C	-0.329364	1.005049	0.083357
C69	C	-0.329351	1.005045	-0.083180
C70	C	-0.285105	1.005054	-0.083179
C71	C	-0.262986	1.005046	0.000099
C72	C	0.210445	1.005111	-0.083148
C73	C	0.254690	1.005127	-0.083143
C74	C	0.254674	1.005124	0.083396
C75	C	0.210431	1.005114	0.083389
C76	C	0.188319	1.005103	0.000112
O77	O	0.140423	1.005134	0.154133
O78	O	0.140429	1.005069	-0.153954
C79	C	-0.059441	1.005053	-0.083154
C80	C	-0.081567	1.005044	0.000113
C81	C	-0.059450	1.005047	0.083380
C82	C	-0.125814	1.005045	0.000109
C83	C	-0.147931	1.005043	-0.083157
C84	C	-0.125800	1.005040	-0.166420
C85	C	-0.081558	1.005051	-0.166421
C86	C	-0.081581	1.005050	0.166643
C87	C	-0.125824	1.005040	0.166636
C88	C	-0.147940	1.005038	0.083369
C89	C	0.601425	1.005057	0.000095
C90	C	0.648519	1.005047	0.000091
C91	C	0.462663	1.005088	-0.301410
C92	C	0.462662	1.005087	-0.403742
C93	C	0.462668	1.306577	0.000151
C94	C	0.462670	1.408899	0.000166
C95	C	0.424344	1.005090	-0.451809
C96	C	0.424343	1.005096	-0.547964
C97	C	0.500984	1.005090	-0.547972
C98	C	0.500982	1.005094	-0.451824
C99	C	0.380098	1.005088	-0.451802
C100	C	0.380097	1.005094	-0.547957
C101	C	0.462663	1.005089	0.301624
C102	C	0.462663	1.005089	0.403956
C103	C	0.601419	0.703568	0.000051
C104	C	0.648512	0.601235	0.000032
C105	C	0.462658	0.703600	0.301579
C106	C	0.462656	0.601278	0.403896
C107	C	0.601419	0.703569	0.301567
C108	C	0.648512	0.601236	0.403880
C109	C	0.323906	1.306607	-0.301353
C110	C	0.276814	1.408940	-0.403666
C111	C	0.323907	1.306608	0.000163
C112	C	0.276814	1.408941	0.000182
C113	C	0.462668	1.306576	-0.301365
C114	C	0.462670	1.408899	-0.403682
C115	C	0.643531	0.553185	-0.058862
C116	C	0.687775	0.457045	-0.058903
C117	C	0.736999	0.408952	-0.000042
C118	C	0.741979	0.457012	0.058853
C119	C	0.697736	0.553156	0.058887
C120	C	0.697728	0.553173	0.393048
C121	C	0.741980	0.457034	0.489172
C122	C	0.737016	0.408953	0.596128
C123	C	0.687795	0.457025	0.606958
C124	C	0.643544	0.553169	0.510835
C125	C	0.227598	1.457015	-0.392834
C126	C	0.183345	1.553184	-0.488958
C127	C	0.188309	1.601270	-0.595914
C128	C	0.237530	1.553192	-0.606744
C129	C	0.281782	1.457031	-0.510621
C130	C	0.281795	1.457002	0.059066
C131	C	0.237551	1.553168	0.059080
C132	C	0.188326	1.601265	0.000216
C133	C	0.183346	1.553200	-0.058675
C134	C	0.227590	1.457042	-0.058695
C135	C	0.489752	0.553196	0.510840
C136	C	0.489746	0.457058	0.606974
C137	C	0.435547	0.457089	0.489207
C138	C	0.435551	0.553232	0.393075
C139	C	0.521045	0.553173	0.578833
C140	C	0.521039	0.457035	0.674966
H141	H	0.344897	0.792196	-0.162497
H142	H	0.413479	0.417959	0.480410
H143	H	0.782064	0.417840	0.106775
N144	N	0.384881	0.811497	-0.282312
N145	N	0.422467	0.819139	-0.280585
H146	H	0.425853	0.874918	-0.353338
N147	N	0.682728	0.407878	0.716213
N148	N	0.659651	0.354212	0.744897
H149	H	0.656073	0.319492	0.822061
N150	N	0.073776	1.005096	-0.251475
N151	N	0.077513	1.096151	-0.315569
H152	H	0.093479	1.096158	-0.375639
H153	H	0.701779	0.592307	0.305968
H154	H	0.152272	1.679570	-0.674175
H155	H	0.562469	0.367010	0.727148
N156	N	0.593276	0.602242	0.521929
N157	N	0.588857	0.559291	0.617437
H158	H	0.553355	0.593944	0.625281
H159	H	0.683710	0.417926	-0.106862
N160	N	0.792250	0.407957	0.478074
N161	N	0.796670	0.450893	0.382568
H162	H	0.832172	0.416235	0.374725
H163	H	0.321872	1.417849	0.107008
N164	N	0.242605	1.602282	-0.715992
N165	N	0.286549	1.559347	-0.725664
H166	H	0.290133	1.594011	-0.802823
H167	H	0.773021	0.330664	-0.000077
H168	H	0.321854	1.417889	-0.519454
N169	N	0.540120	1.005088	-0.402708
N170	N	0.540115	1.005089	-0.316861
H171	H	0.567757	1.005084	-0.282171
N172	N	0.702837	0.602217	0.119057
N173	N	0.746793	0.559254	0.171604
H174	H	0.750400	0.593900	0.214102
N175	N	0.332699	1.118507	-0.475747
N176	N	0.333520	1.198403	-0.466331
H177	H	0.300046	1.278506	-0.483240
N178	N	-0.262510	1.005051	-0.168243
N179	N	-0.282267	1.005046	-0.242577
H180	H	-0.266310	1.005037	-0.302654
H181	H	0.773053	0.330666	0.674389
N182	N	0.593253	0.602319	-0.119017
N183	N	0.562520	0.720358	-0.196523
H184	H	0.527013	0.755060	-0.239017
N185	N	-0.015683	1.005034	0.251725
N186	N	-0.061327	1.096077	0.224817
H187	H	-0.077286	1.096067	0.284897
N188	N	0.389791	0.636246	-0.275142
N189	N	0.428149	0.537356	-0.262188
H190	H	0.434994	0.537294	-0.329916
N191	N	0.222529	1.407890	-0.283581
N192	N	0.241167	1.289858	-0.216808
H193	H	0.237584	1.255171	-0.139648
N194	N	-0.015652	1.005063	-0.251489
N195	N	0.004118	1.005066	-0.325818
H196	H	-0.011827	1.005066	-0.385907
N197	N	0.222489	1.407967	-0.118851
N198	N	0.178533	1.450929	-0.171397
H199	H	0.174926	1.416276	-0.213888
N200	N	0.499194	0.666105	0.578848
N201	N	0.459611	0.771956	0.500007
H202	H	0.444175	0.851716	0.500016
N203	N	0.133076	1.602268	-0.477860
N204	N	0.128655	1.559305	-0.382354
H205	H	0.093154	1.593968	-0.374511
N206	N	0.407839	0.602401	0.283843
N207	N	0.383625	0.559524	0.274203
H208	H	0.364042	0.594269	0.197055
N209	N	0.540133	1.005073	-0.597064
N210	N	0.574345	1.005064	-0.554128
H211	H	0.601996	1.005049	-0.588795
N212	N	0.389786	0.888096	-0.355912
N213	N	0.397042	0.800481	-0.364505
H214	H	0.403881	0.717858	-0.296784
H215	H	0.561105	0.517033	0.570095
N216	N	0.495142	0.502382	0.738845
N217	N	0.511090	0.542916	0.778005
H218	H	0.492797	0.574948	0.823113
N219	N	0.540132	0.434042	0.168327
N220	N	0.574349	0.316786	0.242671
H221	H	0.602000	0.291418	0.302706
H222	H	0.241616	1.592286	0.107040
H223	H	0.152304	1.679562	0.000242
N224	N	0.133059	1.602354	-0.118797
N225	N	0.093564	1.688204	-0.118757
H226	H	0.058047	1.722919	-0.161214
H227	H	0.342308	0.647148	-0.170926
N228	N	0.277282	1.005143	-0.168222
N229	N	0.257527	1.005137	-0.242557
H230	H	0.273482	1.005146	-0.302641
N231	N	0.540138	0.239629	0.168470
N232	N	0.574345	0.208279	0.242769
H233	H	0.601994	0.113546	0.302862
N234	N	0.187870	1.005093	-0.168216
N235	N	0.207638	1.005099	-0.242549
H236	H	0.191693	1.005092	-0.302633
N237	N	-0.351952	1.005036	-0.168224
N238	N	-0.391455	1.005025	-0.168199
H239	H	-0.407417	1.005006	-0.228252
H240	H	-0.143816	1.005045	-0.234223
H241	H	0.383909	0.914696	-0.528863
N242	N	-0.351972	1.005082	0.168398
N243	N	-0.367987	1.096141	0.178633
H244	H	-0.383952	1.096162	0.238697
N245	N	-0.262576	1.005115	0.168436
N246	N	-0.288525	1.096212	0.178604
H247	H	-0.272624	1.096286	0.238689
N248	N	0.073753	1.005025	0.251745
N249	N	0.053991	1.005012	0.326086
H250	H	0.069942	1.005000	0.386175
H251	H	0.272687	1.005132	0.151189
N252	N	0.187823	1.005158	0.168431
N253	N	0.207570	1.005189	0.242755
H254	H	0.191605	1.005222	0.302818
H255	H	-0.063547	1.005059	-0.234231
H256	H	-0.143837	1.005042	0.234447
H257	H	-0.063576	1.005049	0.234450
H258	H	0.344903	1.098367	-0.624399
