data_functionalizedCrystal
_audit_creation_method	'MofGen! by Chris Wilmer'
_symmetry_space_group_name_H-M	'P1'
_symmetry_Int_Tables_number	1
_symmetry_cell_setting	triclinic
loop_
_symmetry_equiv_pos_as_xyz
  x,y,z
_cell_length_a	16.959455
_cell_length_b	16.625539
_cell_length_c	16.959454
_cell_angle_alpha	90.024917
_cell_angle_beta	89.982978
_cell_angle_gamma	89.980538
loop_
_atom_site_label
_atom_site_type_symbol
_atom_site_fract_x
_atom_site_fract_y
_atom_site_fract_z
Zn1	Zn	1.208424	-0.455904	0.314745
Zn2	Zn	1.708424	0.044096	0.814745
Zn3	Zn	1.208335	-0.321080	0.446933
Zn4	Zn	1.708335	0.178920	0.946933
Zn5	Zn	1.076240	-0.321088	0.314765
Zn6	Zn	1.576240	0.178912	0.814765
Zn7	Zn	1.076217	-0.455872	0.446878
Zn8	Zn	1.576217	0.044128	0.946878
O9	O	1.142304	-0.388486	0.380830
O10	O	1.642304	0.111514	0.880830
O11	O	1.319023	-0.438030	0.332294
O12	O	1.819023	0.061970	0.832294
O13	O	1.190784	-0.208248	0.429432
O14	O	1.690784	0.291752	0.929432
O15	O	1.093822	-0.338988	0.204151
O16	O	1.593822	0.161012	0.704151
O17	O	1.318957	-0.338975	0.429412
O18	O	1.818957	0.161025	0.929412
O19	O	1.190937	-0.438038	0.204136
O20	O	1.690937	0.061962	0.704136
O21	O	1.093735	-0.208254	0.332329
O22	O	1.593735	0.291746	0.832329
O23	O	0.965626	-0.338957	0.332276
O24	O	1.465626	0.161043	0.832276
O25	O	1.093782	-0.568709	0.429319
O26	O	1.593782	-0.068709	0.929319
O27	O	0.965609	-0.437982	0.429338
O28	O	1.465609	0.062018	0.929338
O29	O	1.190914	-0.568733	0.332241
O30	O	1.690914	-0.068733	0.832241
O31	O	1.190762	-0.338943	0.557536
O32	O	1.690762	0.161057	1.057536
O33	O	1.093695	-0.437975	0.557496
O34	O	1.593695	0.062025	1.057496
C35	C	0.936938	-0.388468	0.380804
C36	C	1.436938	0.111532	0.880804
C37	C	0.849081	-0.388479	0.380812
C38	C	1.349081	0.111521	0.880812
C39	C	0.477590	-0.337031	0.330248
C40	C	0.977590	0.162969	0.830248
C41	C	0.477621	-0.439987	0.431477
C42	C	0.977621	0.060013	0.931477
C43	C	0.560167	-0.439982	0.431466
C44	C	1.060167	0.060018	0.931466
C45	C	0.601428	-0.388500	0.380846
C46	C	1.101428	0.111500	0.880846
C47	C	0.560144	-0.337023	0.330237
C48	C	1.060144	0.162977	0.830237
C49	C	0.601458	-0.491453	0.482079
C50	C	1.101458	0.008547	0.982079
C51	C	0.684008	-0.491449	0.482070
C52	C	1.184008	0.008551	0.982070
C53	C	0.725271	-0.439970	0.431446
C54	C	1.225271	0.060030	0.931446
C55	C	0.683982	-0.388492	0.380834
C56	C	1.183982	0.111508	0.880834
C57	C	0.725243	-0.337010	0.330214
C58	C	1.225243	0.162990	0.830214
C59	C	0.683955	-0.285534	0.279598
C60	C	1.183955	0.214466	0.779598
C61	C	0.601406	-0.285544	0.279612
C62	C	1.101406	0.214456	0.779612
C63	C	0.807820	-0.439961	0.431432
C64	C	1.307820	0.060039	0.931432
C65	C	0.807797	-0.337001	0.330203
C66	C	1.307797	0.162999	0.830203
C67	C	1.142355	-0.598795	0.380771
C68	C	1.642355	-0.098795	0.880771
C69	C	1.142377	-0.688416	0.380746
C70	C	1.642377	-0.188416	0.880746
C71	C	1.142414	-1.016592	0.380658
C72	C	1.642414	-0.516592	0.880658
C73	C	1.142401	-0.925283	0.380685
C74	C	1.642401	-0.425283	0.880685
C75	C	1.142396	-0.852507	0.380702
C76	C	1.642396	-0.352507	0.880702
C77	C	1.142383	-0.761193	0.380728
C78	C	1.642383	-0.261193	0.880728
C79	C	1.348472	-0.388505	0.380857
C80	C	1.848472	0.111495	0.880857
C81	C	1.436329	-0.388513	0.380868
C82	C	1.936329	0.111487	0.880868
C83	C	1.142238	-0.388472	0.586196
C84	C	1.642238	0.111528	1.086196
C85	C	1.142282	-0.388493	0.674053
C86	C	1.642282	0.111507	1.174053
C87	C	1.142298	-0.178995	0.380832
C88	C	1.642298	0.321005	0.880832
C89	C	1.142429	-0.089374	0.380634
C90	C	1.642429	0.410626	0.880634
C91	C	1.142392	-0.388517	0.174662
C92	C	1.642392	0.111483	0.674662
C93	C	1.142429	-0.388531	0.086805
C94	C	1.642429	0.111469	0.586805
C95	C	1.091835	-0.440046	1.045537
C96	C	1.591835	0.059954	1.545537
C97	C	1.192993	-0.337008	1.045519
C98	C	1.692993	0.162992	1.545519
C99	C	1.192966	-0.337001	0.962974
C100	C	1.692966	0.162999	1.462974
C101	C	1.142371	-0.388516	0.921706
C102	C	1.642371	0.111484	1.421706
C103	C	1.091804	-0.440039	0.962984
C104	C	1.591804	0.059961	1.462984
C105	C	1.243526	-0.285473	0.921689
C106	C	1.743526	0.214527	1.421689
C107	C	1.243500	-0.285463	0.839138
C108	C	1.743500	0.214537	1.339138
C109	C	1.192908	-0.336983	0.797869
C110	C	1.692908	0.163017	1.297869
C111	C	1.142340	-0.388508	0.839152
C112	C	1.642340	0.111492	1.339152
C113	C	1.091746	-0.440024	0.797885
C114	C	1.591746	0.059976	1.297885
C115	C	1.041181	-0.491554	0.839166
C116	C	1.541181	0.008446	1.339166
C117	C	1.041213	-0.491559	0.921715
C118	C	1.541213	0.008441	1.421715
C119	C	1.192876	-0.336978	0.715321
C120	C	1.692876	0.163022	1.215321
C121	C	1.091715	-0.440016	0.715331
C122	C	1.591715	0.059984	1.215331
H123	H	0.717618	-0.533364	0.523285
H124	H	1.217618	-0.033364	1.023285
N125	N	1.247547	-0.281442	1.090035
N126	N	1.747547	0.218558	1.590035
H127	H	1.284168	-0.314243	1.124249
H128	H	1.784168	0.185757	1.624249
H129	H	1.279524	-0.248808	1.051314
H130	H	1.779524	0.251192	1.551314
N131	N	1.298076	-0.229906	0.966208
N132	N	1.798076	0.270094	1.466208
H133	H	1.334701	-0.262708	1.000418
H134	H	1.834701	0.237292	1.500418
H135	H	1.330049	-0.197264	0.927491
H136	H	1.830049	0.302736	1.427491
N137	N	0.728461	-0.230003	0.225007
N138	N	1.228461	0.269997	0.725007
H139	H	0.787019	-0.237809	0.232687
H140	H	1.287019	0.262191	0.732687
H141	H	0.714055	-0.242652	0.168571
H142	H	1.214055	0.257348	0.668571
H143	H	1.050668	-0.482003	1.079153
H144	H	1.550668	0.017997	1.579153
H145	H	0.443970	-0.295123	0.289036
H146	H	0.943970	0.204877	0.789036
H147	H	1.284673	-0.243505	0.805532
H148	H	1.784673	0.256495	1.305532
H149	H	1.234042	-0.295019	0.681713
H150	H	1.734042	0.204981	1.181713
H151	H	0.444021	-0.481897	0.472694
H152	H	0.944021	0.018103	0.972694
N153	N	0.852353	-0.495467	0.486023
N154	N	1.352353	0.004533	0.986023
H155	H	0.813688	-0.528078	0.518095
H156	H	1.313688	-0.028078	1.018095
H157	H	0.886623	-0.532837	0.453893
H158	H	1.386623	-0.032837	0.953893
N159	N	1.037148	-0.495584	0.670823
N160	N	1.537148	0.004416	1.170823
H161	H	1.005123	-0.528225	0.709502
H162	H	1.505123	-0.028225	1.209502
H163	H	1.000571	-0.462725	0.636617
H164	H	1.500571	0.037275	1.136617
N165	N	0.556876	-0.230003	0.225048
N166	N	1.056876	0.269997	0.725048
H167	H	0.498321	-0.237811	0.232749
H168	H	0.998321	0.262189	0.732749
H169	H	0.571294	-0.172405	0.237302
H170	H	1.071294	0.327595	0.737302
N171	N	0.986609	-0.547107	0.794647
N172	N	1.486609	-0.047107	1.294647
H173	H	1.018698	-0.584493	0.760351
H174	H	1.518698	-0.084493	1.260351
H175	H	0.954589	-0.579700	0.833366
H176	H	1.454589	-0.079700	1.333366
H177	H	1.000045	-0.533511	0.955333
H178	H	1.500045	-0.033511	1.455333
H179	H	0.567856	-0.533361	0.523297
H180	H	1.067856	-0.033361	1.023297
N181	N	0.852290	-0.281477	0.275595
N182	N	1.352290	0.218523	0.775595
H183	H	0.837895	-0.223846	0.287797
H184	H	1.337895	0.276154	0.787797
H185	H	0.910836	-0.289345	0.283288
H186	H	1.410836	0.210655	0.783288
