data_functionalizedCrystal
_audit_creation_method	'MofGen! by Chris Wilmer'
_symmetry_space_group_name_H-M	'P1'
_symmetry_Int_Tables_number	1
_symmetry_cell_setting	triclinic
loop_
_symmetry_equiv_pos_as_xyz
  x,y,z
_cell_length_a	17.077404
_cell_length_b	17.077402
_cell_length_c	18.215407
_cell_angle_alpha	89.989341
_cell_angle_beta	89.989808
_cell_angle_gamma	90.021402
loop_
_atom_site_label
_atom_site_type_symbol
_atom_site_fract_x
_atom_site_fract_y
_atom_site_fract_z
Zn1	Zn	-1.199973	0.312700	0.416123
Zn2	Zn	-1.199899	0.443936	0.293060
Zn3	Zn	-1.068727	0.312681	0.293070
Zn4	Zn	-1.068670	0.443921	0.416085
O5	O	-1.134317	0.378309	0.354584
O6	O	-1.309810	0.330122	0.399810
O7	O	-1.182491	0.426524	0.190077
O8	O	-1.086192	0.202837	0.309414
O9	O	-1.309755	0.426541	0.309396
O10	O	-1.182618	0.202850	0.399820
O11	O	-1.086120	0.330091	0.190085
O12	O	-0.958872	0.330077	0.309377
O13	O	-1.086094	0.426515	0.519074
O14	O	-0.958830	0.426497	0.399755
O15	O	-1.182563	0.330107	0.519102
O16	O	-1.182436	0.553781	0.309359
O17	O	-1.086022	0.553769	0.399745
C18	C	-0.930369	0.378284	0.354563
C19	C	-0.843119	0.378292	0.354572
C20	C	-0.802158	0.328175	0.401721
C21	C	-0.720178	0.328179	0.401723
C22	C	-0.679160	0.378304	0.354578
C23	C	-0.720127	0.428423	0.307424
C24	C	-0.802106	0.428414	0.307419
C25	C	-0.549257	0.428438	0.307438
C26	C	-0.467272	0.428447	0.307444
C27	C	-0.467329	0.328202	0.401742
C28	C	-0.549308	0.328194	0.401737
C29	C	-0.590269	0.378314	0.354584
C30	C	-1.134236	0.582257	0.354563
C31	C	-1.134273	0.669507	0.354578
C32	C	-1.134330	0.378311	0.546537
C33	C	-1.134336	0.378312	0.628336
C34	C	-0.339061	0.378332	0.354600
C35	C	-0.426311	0.378331	0.354593
C36	C	-1.184526	0.710477	0.307566
C37	C	-1.184562	0.792457	0.307588
C38	C	-1.134341	0.833466	0.354619
C39	C	-1.084086	0.792491	0.401636
C40	C	-1.084055	0.710512	0.401617
C41	C	-1.084155	0.963361	0.401670
C42	C	-1.084185	1.045345	0.401688
C43	C	-1.184662	1.045306	0.307642
C44	C	-1.184631	0.963327	0.307623
C45	C	-1.134374	0.922357	0.354639
C46	C	-1.134413	1.173565	0.354632
C47	C	-1.134438	1.086315	0.354677
C48	C	-1.184552	0.328121	0.816546
C49	C	-1.184547	0.328121	0.893405
C50	C	-1.084095	0.428515	0.893364
C51	C	-1.084096	0.428511	0.816507
C52	C	-1.134329	0.378315	0.778100
C53	C	-1.134324	0.378319	0.931816
C54	C	-1.134318	0.378319	1.015149
C55	C	-1.134333	0.378314	0.694761
C56	C	-1.134304	0.378324	1.163378
C57	C	-1.134316	0.378322	1.081579
H58	H	-0.835549	0.287360	0.440114
C59	C	-1.028863	0.918296	0.453385
N60	N	-0.987213	0.884352	0.492330
C61	C	-0.675125	0.273049	0.453593
N62	N	-0.641191	0.231523	0.492665
C63	C	-0.422270	0.273072	0.453615
N64	N	-0.388328	0.231554	0.492687
H65	H	-1.043199	0.825887	0.439932
C66	C	-1.028948	1.090454	0.453432
N67	N	-0.987345	1.124429	0.492409
H68	H	-1.043135	0.677155	0.439900
H69	H	-1.043193	0.469384	0.785203
C70	C	-1.239802	0.272898	0.774301
N71	N	-1.281415	0.231299	0.742483
H72	H	-0.686723	0.469232	0.269034
H73	H	-0.582703	0.287383	0.440131
C74	C	-1.028841	0.483726	0.935619
N75	N	-0.987222	0.525312	0.967445
C76	C	-0.594312	0.483575	0.255568
N77	N	-0.628247	0.525107	0.216504
C78	C	-0.422154	0.483586	0.255581
N79	N	-0.388171	0.525117	0.216517
H80	H	-0.835455	0.469224	0.269025
H81	H	-1.225442	0.287247	0.924704
H82	H	-1.225418	0.677093	0.269266
H83	H	-1.225482	0.825812	0.269306
H84	H	-1.225520	0.929938	0.269324
C85	C	-1.239951	1.090375	0.255929
N86	N	-1.281593	1.124324	0.216981
