data_functionalizedCrystal
_audit_creation_method	'MofGen! by Chris Wilmer'
_symmetry_space_group_name_H-M	'P1'
_symmetry_Int_Tables_number	1
_symmetry_cell_setting	triclinic
loop_
_symmetry_equiv_pos_as_xyz
  x,y,z
_cell_length_a	10.723022
_cell_length_b	22.010155
_cell_length_c	10.723023
_cell_angle_alpha	90.002629
_cell_angle_beta	95.532613
_cell_angle_gamma	90.014181
loop_
_atom_site_label
_atom_site_type_symbol
_atom_site_fract_x
_atom_site_fract_y
_atom_site_fract_z
O1	O	1.657209	0.050520	-0.175004
O2	O	1.294056	0.050522	-0.191759
O3	O	1.484009	0.050518	-0.001805
O4	O	1.467255	0.050524	-0.364958
O5	O	1.483954	-0.050532	-0.001827
O6	O	1.294000	-0.050528	-0.191781
O7	O	1.657153	-0.050530	-0.175026
Cu8	Cu	1.475572	-0.059756	-0.183406
Cu9	Cu	1.475637	0.059748	-0.183380
O10	O	1.467200	-0.050526	-0.364980
C11	C	1.247529	-0.000003	-0.190551
C12	C	1.108974	-0.000002	-0.186904
N13	N	1.475535	-0.143808	-0.183423
C14	C	0.890796	0.000001	-0.289421
C15	C	1.033998	0.000000	-0.293192
C16	C	1.399280	-0.436414	-0.106991
C17	C	1.399269	-0.372807	-0.106996
O18	O	1.334387	-0.339910	-0.042013
N19	N	1.475583	-0.340992	-0.183385
C20	C	1.551923	-0.372789	-0.259763
O21	O	1.616835	-0.339888	-0.324737
C22	C	1.551940	-0.436396	-0.259750
C23	C	1.475611	-0.468207	-0.183366
C24	C	1.322958	-0.468225	-0.030612
C25	C	1.322967	-0.531828	-0.030608
C26	C	1.399299	-0.563621	-0.106984
C27	C	1.475621	-0.531810	-0.183363
C28	C	1.628286	-0.468192	-0.336121
C29	C	1.628297	-0.531802	-0.336101
C30	C	1.551968	-0.563613	-0.259717
C31	C	1.551961	-0.627205	-0.259735
N32	N	1.475647	-0.659019	-0.183346
C33	C	1.399315	-0.627227	-0.106971
C34	C	1.551884	-0.239212	-0.259783
C35	C	1.551862	-0.175606	-0.259804
C36	C	1.399208	-0.175628	-0.107035
C37	C	1.399225	-0.239234	-0.107022
C38	C	1.475569	-0.271026	-0.183395
C39	C	1.399340	-0.760798	-0.106970
C40	C	1.399353	-0.824407	-0.106977
C41	C	1.552010	-0.824380	-0.259741
C42	C	1.551994	-0.760777	-0.259739
C43	C	1.475655	-0.728987	-0.183344
O44	O	1.616814	-0.660142	-0.324681
O45	O	1.334427	-0.660136	-0.041995
C46	C	1.703681	-0.000004	-0.176234
C47	C	1.842235	-0.000001	-0.179881
C48	C	1.482763	-0.000006	0.044683
C49	C	1.479115	-0.000005	0.183238
N50	N	1.475684	0.143800	-0.183352
C51	C	1.473749	0.052343	0.388211
C52	C	1.477518	0.052343	0.245007
C53	C	1.468446	-0.000001	0.588531
C54	C	1.472094	-0.000003	0.449977
H55	H	0.826353	0.000006	-0.380409
H56	H	1.075810	-0.000002	-0.386980
O57	O	1.477585	-0.053512	0.246476
C58	C	1.586304	-0.087040	0.227991
H59	H	1.624777	-0.071441	0.137833
H60	H	1.562123	-0.137435	0.220697
H61	H	1.659925	-0.079357	0.310492
H62	H	1.067171	0.000013	-0.093113
H63	H	1.614129	-0.734875	-0.321955
H64	H	1.478931	0.097158	0.191888
O65	O	1.473510	-0.053455	0.386511
C66	C	1.367619	-0.056693	0.297967
H67	H	1.291194	-0.025458	0.328057
H68	H	1.331417	-0.105410	0.291916
H69	H	1.394617	-0.041831	0.202333
O70	O	0.919231	0.000079	-0.071409
C71	C	0.995367	0.052422	-0.066668
H72	H	1.002678	0.069872	-0.165794
H73	H	1.092838	0.040651	-0.021142
H74	H	0.952154	0.089067	-0.009237
O75	O	1.702557	-0.437395	-0.410348
C76	C	1.769906	-0.479108	-0.477760
H77	H	1.776733	-0.524443	-0.426150
H78	H	1.868103	-0.460724	-0.486389
H79	H	1.719346	-0.485886	-0.575250
H80	H	1.337178	-0.734923	-0.044762
H81	H	1.260817	-0.557723	0.031596
O82	O	1.248607	-0.437378	0.043439
C83	C	1.122260	-0.452973	0.010021
H84	H	1.111080	-0.470459	-0.090509
H85	H	1.060770	-0.411163	0.017849
H86	H	1.092761	-0.489905	0.075698
H87	H	1.337191	-0.850305	-0.044776
H88	H	1.472382	0.097159	0.441348
H89	H	1.614154	-0.850277	-0.321927
O90	O	1.325053	-0.270039	-0.032700
C91	C	1.257655	-0.228331	0.034675
H92	H	1.309242	-0.182982	0.041466
H93	H	1.249084	-0.246699	0.132885
H94	H	1.160141	-0.221588	-0.015842
H95	H	1.614001	-0.149711	-0.322018
O96	O	1.324981	-0.144675	-0.033018
C97	C	1.240455	-0.107915	-0.108352
H98	H	1.280082	-0.098387	-0.201301
H99	H	1.226112	-0.063186	-0.058072
H100	H	1.146824	-0.132447	-0.126599
H101	H	1.614049	-0.265092	-0.321987
H102	H	1.690469	-0.557683	-0.398293
