data_functionalizedCrystal
_audit_creation_method	'MofGen! by Chris Wilmer'
_symmetry_space_group_name_H-M	'P1'
_symmetry_Int_Tables_number	1
_symmetry_cell_setting	triclinic
loop_
_symmetry_equiv_pos_as_xyz
  x,y,z
_cell_length_a	17.699104
_cell_length_b	10.489741
_cell_length_c	16.776229
_cell_angle_alpha	90.012635
_cell_angle_beta	89.999243
_cell_angle_gamma	83.915346
loop_
_atom_site_label
_atom_site_type_symbol
_atom_site_fract_x
_atom_site_fract_y
_atom_site_fract_z
O1	O	1.005114	0.161436	0.066304
O2	O	0.784875	0.182393	0.066302
O3	O	0.900006	-0.013776	0.066298
O4	O	0.889983	0.357605	0.066308
O5	O	0.900011	-0.013815	-0.066278
O6	O	0.784880	0.182354	-0.066275
O7	O	1.005120	0.161397	-0.066273
Zn8	Zn	0.895001	0.171869	-0.087323
Zn9	Zn	0.894994	0.171920	0.087352
O10	O	0.889988	0.357566	-0.066269
C11	C	0.756676	0.181618	0.000013
C12	C	0.672644	0.179351	0.000013
C13	C	0.899252	-0.061313	0.000010
C14	C	0.896987	-0.202901	0.000012
C15	C	0.148443	0.281717	0.000024
C16	C	0.227400	0.283839	0.000026
C17	C	0.275264	0.168680	0.000023
C18	C	0.244167	0.051392	0.000025
C19	C	0.165211	0.049272	0.000029
C20	C	0.562589	0.059941	0.000013
C21	C	0.641550	0.062071	0.000007
C22	C	0.624778	0.294509	0.000010
C23	C	0.545822	0.292388	0.000013
C24	C	0.514732	0.175101	0.000020
C25	C	0.429117	0.172802	0.000019
C26	C	0.360878	0.170978	0.000018
C27	C	0.823732	-0.269689	0.000017
C28	C	0.858340	-0.362470	-0.065350
C29	C	0.858352	-0.362406	0.065360
C30	C	0.931624	-0.293816	-0.065409
C31	C	0.931626	-0.293743	0.065360
C32	C	0.966287	-0.386497	-0.000023
C33	C	1.033318	0.162172	0.000018
C34	C	1.117350	0.164438	0.000024
C35	C	0.890743	0.405103	0.000021
C36	C	0.893008	0.546690	0.000024
N37	N	0.894989	0.171946	0.206564
N38	N	0.895011	0.171833	-0.206534
C39	C	0.848766	0.094510	0.248272
C40	C	0.848771	0.094489	0.331724
C41	C	0.894996	0.171911	0.373466
C42	C	0.941225	0.249350	0.331752
C43	C	0.941223	0.249364	0.248302
C44	C	0.941234	0.249294	0.668300
C45	C	0.941231	0.249277	0.751756
C46	C	0.848783	0.094419	0.751722
C47	C	0.848781	0.094433	0.668271
C48	C	0.895012	0.171866	0.626564
C49	C	0.895006	0.171887	0.536076
C50	C	0.894998	0.171898	0.463953
H51	H	0.109476	0.375493	0.000020
O52	O	0.972655	-0.253763	-0.138690
H53	H	0.991380	-0.339726	-0.175076
H54	H	1.026570	-0.437034	-0.000059
H55	H	0.811120	0.031471	0.214291
O56	O	0.529067	-0.066561	0.000002
H57	H	0.548252	-0.121879	0.054028
H58	H	0.978878	0.312346	0.634352
O59	O	0.798911	0.010979	0.376712
H60	H	0.766759	-0.042840	0.333666
H61	H	0.978863	0.312419	0.214344
O62	O	0.295787	-0.072821	0.000014
H63	H	0.355914	-0.051646	0.000001
O64	O	0.972647	-0.253335	0.138561
H65	H	0.942121	-0.280476	0.192746
O66	O	0.817284	-0.402665	0.138565
H67	H	0.758128	-0.355406	0.138421
O68	O	0.494198	0.416596	0.000010
H69	H	0.457819	0.421202	0.054044
H70	H	0.811136	0.031393	0.634288
H71	H	0.978866	0.312382	0.365746
H72	H	0.811141	0.031365	0.785689
H73	H	0.978876	0.312327	0.785741
O74	O	0.260930	0.410340	0.000008
H75	H	0.241747	0.465699	0.054036
H76	H	0.650101	0.390010	0.000008
H77	H	0.680521	-0.031711	0.000007
H78	H	0.139898	-0.046229	0.000031
O79	O	0.817288	-0.402815	-0.138553
H80	H	0.856377	-0.469774	-0.174476
O81	O	0.743957	-0.202429	-0.000065
H82	H	0.713734	-0.229759	-0.054411
