data_functionalizedCrystal
_audit_creation_method	'MofGen! by Chris Wilmer'
_symmetry_space_group_name_H-M	'P1'
_symmetry_Int_Tables_number	1
_symmetry_cell_setting	triclinic
loop_
_symmetry_equiv_pos_as_xyz
  x,y,z
_cell_length_a	12.759395
_cell_length_b	21.295416
_cell_length_c	12.759387
_cell_angle_alpha	89.963938
_cell_angle_beta	90.019431
_cell_angle_gamma	89.969823
loop_
_atom_site_label
_atom_site_type_symbol
_atom_site_fract_x
_atom_site_fract_y
_atom_site_fract_z
Zn1	Zn	1.606155	0.250579	0.593936
Zn2	Zn	1.605997	0.355862	0.418241
Zn3	Zn	1.430453	0.250610	0.418277
Zn4	Zn	1.430397	0.355814	0.593883
O5	O	1.518250	0.303216	0.506084
O6	O	1.753155	0.264552	0.570637
O7	O	1.582668	0.341933	0.271224
O8	O	1.453849	0.162516	0.441616
O9	O	1.753039	0.341902	0.441554
O10	O	1.582936	0.162493	0.570672
O11	O	1.453696	0.264605	0.271251
O12	O	1.283424	0.264558	0.441564
O13	O	1.453754	0.341821	0.740911
O14	O	1.283383	0.341851	0.570581
O15	O	1.582883	0.264505	0.740951
O16	O	1.582614	0.443945	0.441503
O17	O	1.453602	0.443909	0.570546
C18	C	1.245283	0.303203	0.506071
C19	C	1.128506	0.303213	0.506091
C20	C	1.128607	0.222798	0.640722
C21	C	1.073797	0.182598	0.708046
C22	C	0.964075	0.182609	0.708059
C23	C	0.909162	0.222823	0.640738
C24	C	0.963972	0.263023	0.573414
C25	C	1.073696	0.263009	0.573411
C26	C	0.963871	0.343434	0.438780
C27	C	1.073592	0.343427	0.438770
C28	C	0.908957	0.383649	0.371459
C29	C	0.963767	0.423853	0.304139
C30	C	1.073496	0.423840	0.304129
C31	C	1.128403	0.383627	0.371446
C32	C	1.518114	0.466768	0.506038
C33	C	1.518151	0.536736	0.506053
C34	C	1.585388	0.569600	0.438931
C35	C	1.585437	0.635342	0.438960
C36	C	1.518231	0.668218	0.506099
C37	C	1.450990	0.635346	0.573234
C38	C	1.450950	0.569605	0.573211
N39	N	1.426325	0.771483	0.514111
N40	N	1.426366	0.833935	0.514127
C41	C	1.518350	0.866293	0.506173
N42	N	1.610294	0.833840	0.498183
N43	N	1.610251	0.771383	0.498162
C44	C	1.518268	0.739503	0.506132
C45	C	1.585646	0.970442	0.439079
C46	C	1.585698	1.036186	0.439114
C47	C	1.451241	1.036189	0.573383
C48	C	1.451199	0.970446	0.573353
C49	C	1.518400	0.937577	0.506195
C50	C	1.792284	0.303229	0.506098
C51	C	1.909060	0.303234	0.506104
C52	C	1.518330	0.303154	0.780118
C53	C	1.518364	0.303128	0.896895
C54	C	1.518418	1.139026	0.506172
C55	C	1.518492	1.069057	0.506255
C56	C	1.518232	0.303232	0.233117
C57	C	1.518402	0.303081	0.116341
C58	C	1.652834	0.222624	0.896955
C59	C	1.720084	0.182363	0.951846
C60	C	1.720109	0.182340	1.061568
C61	C	1.652876	0.222581	1.116401
C62	C	1.585626	0.262843	1.061510
C63	C	1.585610	0.262863	0.951786
C64	C	1.451152	0.343342	1.061449
C65	C	1.451130	0.343369	0.951728
C66	C	1.383918	0.383583	1.116283
C67	C	1.316672	0.423849	1.061391
C68	C	1.316650	0.423870	0.951663
C69	C	1.383880	0.383630	0.896837
H70	H	0.919449	0.149871	0.762874
H71	H	1.652894	0.222554	1.205742
H72	H	1.217948	0.222782	0.640713
H73	H	1.118520	0.149855	0.762855
H74	H	1.118116	0.456574	0.249302
H75	H	1.652830	0.222645	0.807614
H76	H	1.261930	0.456606	1.106045
H77	H	1.640456	1.062943	0.384458
H78	H	1.383940	0.383559	1.205624
H79	H	0.819820	0.222824	0.640747
H80	H	1.396444	0.943687	0.628005
H81	H	1.396525	1.062956	0.628054
H82	H	1.774822	0.149599	0.907189
H83	H	1.640193	0.662105	0.384301
H84	H	0.819616	0.383653	0.371472
H85	H	1.640369	0.943679	0.384398
H86	H	1.774863	0.149552	1.106260
H87	H	1.261875	0.456649	0.906977
H88	H	0.919048	0.456589	0.249328
H89	H	1.383873	0.383647	0.807495
H90	H	1.640110	0.542839	0.384250
H91	H	1.217744	0.383610	0.371440
H92	H	1.396272	0.662118	0.627901
H93	H	1.396197	0.542846	0.627871
