data_functionalizedCrystal
_audit_creation_method	'MofGen! by Chris Wilmer'
_symmetry_space_group_name_H-M	'P1'
_symmetry_Int_Tables_number	1
_symmetry_cell_setting	triclinic
loop_
_symmetry_equiv_pos_as_xyz
  x,y,z
_cell_length_a	29.839131
_cell_length_b	12.594517
_cell_length_c	12.594509
_cell_angle_alpha	89.974182
_cell_angle_beta	90.034966
_cell_angle_gamma	89.963643
loop_
_atom_site_label
_atom_site_type_symbol
_atom_site_fract_x
_atom_site_fract_y
_atom_site_fract_z
Zn1	Zn	-0.178900	-1.627079	0.601938
Zn2	Zn	0.321100	-1.127079	1.101938
Zn3	Zn	-0.254035	-1.626891	0.423938
Zn4	Zn	0.245965	-1.126891	0.923938
Zn5	Zn	-0.178913	-1.449083	0.423953
Zn6	Zn	0.321087	-0.949083	0.923953
Zn7	Zn	-0.253998	-1.448987	0.601854
Zn8	Zn	0.246002	-0.948987	1.101854
O9	O	-0.216462	-1.538010	0.512921
O10	O	0.283538	-1.038010	1.012921
O11	O	-0.188878	-1.776000	0.578355
O12	O	0.311122	-1.276000	1.078355
O13	O	-0.244091	-1.603266	0.274994
O14	O	0.255909	-1.103266	0.774994
O15	O	-0.116044	-1.472814	0.447604
O16	O	0.383956	-0.972814	0.947604
O17	O	-0.244079	-1.775862	0.447579
O18	O	0.255921	-1.275862	0.947579
O19	O	-0.116035	-1.603587	0.578368
O20	O	0.383965	-1.103587	1.078368
O21	O	-0.188899	-1.472632	0.275005
O22	O	0.311101	-0.972632	0.775005
O23	O	-0.188863	-1.300125	0.447523
O24	O	0.311137	-0.800125	0.947523
O25	O	-0.244015	-1.472649	0.750811
O26	O	0.255985	-0.972649	1.250811
O27	O	-0.244027	-1.300054	0.578226
O28	O	0.255973	-0.800054	1.078226
O29	O	-0.188841	-1.603493	0.750872
O30	O	0.311159	-1.103493	1.250872
O31	O	-0.316897	-1.603173	0.447498
O32	O	0.183103	-1.103173	0.947498
O33	O	-0.316870	-1.472467	0.578212
O34	O	0.183130	-0.972467	1.078212
C35	C	-0.216443	-1.261469	0.512868
C36	C	0.283557	-0.761469	1.012868
C37	C	-0.216445	-1.143164	0.512870
C38	C	0.283555	-0.643164	1.012870
C39	C	-0.333184	-1.537818	0.512868
C40	C	0.166816	-1.037818	1.012868
C41	C	-0.383119	-1.537833	0.512881
C42	C	0.116881	-1.037833	1.012881
C43	C	-0.186398	-1.073918	0.441911
C44	C	0.313602	-0.573918	0.941911
C45	C	-0.227375	-1.003064	0.415714
C46	C	0.272625	-0.503064	0.915714
C47	C	-0.175481	-1.003219	0.539069
C48	C	0.324519	-0.503219	1.039069
C49	C	-0.257444	-1.073868	0.486623
C50	C	0.242556	-0.573868	0.986623
C51	C	-0.205522	-1.074029	0.610023
C52	C	0.294478	-0.574029	1.110023
C53	C	-0.246527	-1.003206	0.583863
C54	C	0.253473	-0.503206	1.083863
C55	C	-0.692764	-1.606192	0.444957
C56	C	-0.192764	-1.106192	0.944957
C57	C	-0.880437	-1.606324	0.444999
C58	C	-0.380437	-1.106324	0.944999
O59	O	-0.904703	-1.664293	0.387207
O60	O	-0.404703	-1.164293	0.887207
N61	N	-0.903904	-1.538231	0.513001
N62	N	-0.403904	-1.038231	1.013001
C63	C	-0.880449	-1.470105	0.581003
C64	C	-0.380449	-0.970105	1.081003
O65	O	-0.904716	-1.412199	0.638852
O66	O	-0.404716	-0.912199	1.138852
C67	C	-0.692777	-1.469980	0.580966
C68	C	-0.192777	-0.969980	1.080966
C69	C	-0.669313	-1.538070	0.512952
C70	C	-0.169313	-1.038070	1.012952
C71	C	-0.669299	-1.674278	0.376949
C72	C	-0.169299	-1.174278	0.876949
C73	C	-0.622384	-1.674240	0.376935
C74	C	-0.122384	-1.174240	0.876935
C75	C	-0.598933	-1.606117	0.444930
C76	C	-0.098933	-1.106117	0.944930
C77	C	-0.622397	-1.538032	0.512938
C78	C	-0.122397	-1.038032	1.012938
C79	C	-0.669324	-1.401860	0.648972
C80	C	-0.169324	-0.901860	1.148972
C81	C	-0.622403	-1.401837	0.648959
C82	C	-0.122403	-0.901837	1.148959
C83	C	-0.598938	-1.469927	0.580945
C84	C	-0.098938	-0.969927	1.080945
C85	C	-0.552031	-1.469872	0.580918
C86	C	-0.052031	-0.969872	1.080918
N87	N	-0.528564	-1.537965	0.512916
N88	N	-0.028564	-1.037965	1.012916
C89	C	-0.552015	-1.606087	0.444922
C90	C	-0.052015	-1.106087	0.944922
C91	C	-0.978980	-1.470174	0.581016
C92	C	-0.478980	-0.970174	1.081016
C93	C	-1.025898	-1.470204	0.581024
C94	C	-0.525898	-0.970204	1.081024
C95	C	-1.025882	-1.606424	0.445021
C96	C	-0.525882	-1.106424	0.945021
C97	C	-0.978963	-1.606388	0.445008
C98	C	-0.478963	-1.106388	0.945008
C99	C	-0.955513	-1.538267	0.513013
C100	C	-0.455513	-1.038267	1.013013
C101	C	-0.453489	-1.606003	0.444897
C102	C	0.046511	-1.106003	0.944897
C103	C	-0.406570	-1.605956	0.444887
C104	C	0.093430	-1.105956	0.944887
C105	C	-0.406590	-1.469740	0.580893
C106	C	0.093410	-0.969740	1.080893
C107	C	-0.453505	-1.469782	0.580900
C108	C	0.046495	-0.969782	1.080900
C109	C	-0.476954	-1.537922	0.512899
C110	C	0.023046	-1.037922	1.012899
O111	O	-0.527736	-1.411941	0.638688
O112	O	-0.027736	-0.911941	1.138688
O113	O	-0.527741	-1.664002	0.387098
O114	O	-0.027741	-1.164002	0.887098
C115	C	-0.739679	-1.606230	0.444971
C116	C	-0.239679	-1.106230	0.944971
C117	C	-0.763144	-1.538145	0.512979
C118	C	-0.263144	-1.038145	1.012979
C119	C	-0.739693	-1.470022	0.580973
C120	C	-0.239693	-0.970022	1.080973
C121	C	-0.810061	-1.538175	0.512987
C122	C	-0.310061	-1.038175	1.012987
C123	C	-0.833512	-1.606297	0.444993
C124	C	-0.333512	-1.106297	0.944993
C125	C	-0.810046	-1.674390	0.376990
C126	C	-0.310046	-1.174390	0.876990
C127	C	-0.763130	-1.674353	0.376977
C128	C	-0.263130	-1.174353	0.876977
C129	C	-0.763160	-1.401929	0.648976
C130	C	-0.263160	-0.901929	1.148976
C131	C	-0.810075	-1.401972	0.648983
C132	C	-0.310075	-0.901972	1.148983
C133	C	-0.833526	-1.470094	0.580989
C134	C	-0.333526	-0.970094	1.080989
C135	C	-0.099283	-1.538232	0.512997
C136	C	0.400717	-1.038232	1.012997
C137	C	-0.049349	-1.538327	0.513029
C138	C	0.450651	-1.038327	1.013029
C139	C	-0.216422	-1.538081	0.790542
C140	C	0.283578	-1.038081	1.290542
C141	C	-0.216405	-1.538112	0.908847
C142	C	0.283595	-1.038112	1.408847
C143	C	-0.216472	-0.815631	0.512955
C144	C	0.283528	-0.315631	1.012955
C145	C	-0.216453	-0.933936	0.512919
C146	C	0.283547	-0.433936	1.012919
C147	C	-0.216468	-1.538000	0.236380
C148	C	0.283532	-1.038000	0.736380
C149	C	-0.216359	-1.538176	0.118075
C150	C	0.283641	-1.038176	0.618075
C151	C	-0.246397	-1.466968	0.978067
C152	C	0.253603	-0.966968	1.478067
C153	C	-0.257378	-1.564077	1.048862
C154	C	0.242622	-1.064077	1.548862
C155	C	-0.205398	-1.441079	1.048851
C156	C	0.294602	-0.941079	1.548851
C157	C	-0.227407	-1.635272	0.978084
C158	C	0.272593	-1.135272	1.478084
C159	C	-0.175409	-1.512208	0.978067
C160	C	0.324591	-1.012208	1.478067
C161	C	-0.186373	-1.609384	1.048830
C162	C	0.313627	-1.109384	1.548830
H163	H	-0.161016	-1.104966	0.381836
H164	H	0.338984	-0.604966	0.881836
F165	F	-0.239606	-1.742595	0.937628
F166	F	0.260394	-1.242595	1.437628
H167	H	-0.472611	-1.414341	0.636287
H168	H	0.027389	-0.914341	1.136287
H169	H	-0.292100	-1.104773	0.464393
H170	H	0.207900	-0.604773	0.964393
H171	H	-1.044984	-1.661893	0.389657
H172	H	-0.544984	-1.161893	0.889657
H173	H	-0.140769	-1.490234	0.946947
H174	H	0.359231	-0.990234	1.446947
F175	F	-0.953995	-1.678859	0.372619
F176	F	-0.453995	-1.178859	0.872619
H177	H	-0.829176	-1.346515	0.704368
H178	H	-0.329176	-0.846515	1.204368
F179	F	-0.193423	-1.114800	0.717356
F180	F	0.306577	-0.614800	1.217356
F181	F	-0.738208	-1.329421	0.721350
F182	F	-0.238208	-0.829421	1.221350
H183	H	-0.160990	-1.669644	1.079704
H184	H	0.339010	-1.169644	1.579704
H185	H	-0.196107	-1.358992	1.079938
H186	H	0.303893	-0.858992	1.579938
H187	H	-0.688388	-1.729757	0.321580
H188	H	-0.188388	-1.229757	0.821580
H189	H	-0.236620	-0.971896	0.333575
H190	H	0.263380	-0.471896	0.833575
H191	H	-0.271970	-0.972354	0.643892
H192	H	0.228030	-0.472354	1.143892
H193	H	-0.292028	-1.586022	1.079959
H194	H	0.207972	-1.086022	1.579959
F195	F	-0.597417	-1.746723	0.304557
F196	F	-0.097417	-1.246723	0.804557
F197	F	-0.130197	-0.962647	0.568004
F198	F	0.369803	-0.462647	1.068004
H199	H	-0.387466	-1.661403	0.389497
H200	H	0.112534	-1.161403	0.889497
F201	F	-1.050865	-1.397722	0.653402
F202	F	-0.550865	-0.897722	1.153402
H203	H	-0.387488	-1.414272	0.636250
H204	H	0.112512	-0.914272	1.136250
H205	H	-0.472576	-1.661491	0.389527
H206	H	0.027424	-1.161491	0.889527
H207	H	-0.959890	-1.414699	0.636395
H208	H	-0.459890	-0.914699	1.136395
H209	H	-0.603312	-1.346366	0.704341
H210	H	-0.103312	-0.846366	1.204341
F211	F	-0.694286	-1.329398	0.721373
F212	F	-0.194286	-0.829398	1.221373
F213	F	-0.738163	-1.746827	0.304589
F214	F	-0.238163	-1.246827	0.804589
F215	F	-0.835012	-1.746889	0.304623
F216	F	-0.335012	-1.246889	0.804623
H217	H	-0.271800	-1.406851	0.946998
H218	H	0.228200	-0.906851	1.446998
