data_functionalizedCrystal
_audit_creation_method	'MofGen! by Chris Wilmer'
_symmetry_space_group_name_H-M	'P1'
_symmetry_Int_Tables_number	1
_symmetry_cell_setting	triclinic
loop_
_symmetry_equiv_pos_as_xyz
  x,y,z
_cell_length_a	14.519731
_cell_length_b	12.996460
_cell_length_c	14.519731
_cell_angle_alpha	90.007128
_cell_angle_beta	96.311147
_cell_angle_gamma	89.993310
loop_
_atom_site_label
_atom_site_type_symbol
_atom_site_fract_x
_atom_site_fract_y
_atom_site_fract_z
O1	O	-1.223866	0.085596	0.120985
O2	O	-0.955393	0.085592	0.135201
O3	O	-1.096737	0.085585	-0.006143
O4	O	-1.082521	0.085603	0.262330
O5	O	-1.096723	-0.085549	-0.006151
O6	O	-0.955378	-0.085542	0.135193
O7	O	-1.223851	-0.085538	0.120977
Cu8	Cu	-1.089613	-0.101166	0.128085
Cu9	Cu	-1.089631	0.101220	0.128094
O10	O	-1.082507	-0.085531	0.262322
C11	C	-0.921026	0.000025	0.134531
C12	C	-0.818645	0.000023	0.132535
N13	N	-1.089608	-0.243513	0.128078
C14	C	-0.735501	0.000026	0.130913
C15	C	-0.631192	0.000024	0.128887
C16	C	-0.548053	0.000022	0.127278
C17	C	-0.443738	0.000022	0.125252
C18	C	-1.089629	-0.663327	0.128095
C19	C	-1.089621	-0.546522	0.128093
C20	C	-1.089619	-0.453424	0.128087
C21	C	-1.089609	-0.336611	0.128084
C22	C	-0.258218	0.000027	0.121648
C23	C	-0.360598	0.000020	0.123644
C24	C	-1.096064	0.000018	-0.040507
C25	C	-1.094068	0.000017	-0.142887
N26	N	-1.089644	0.243567	0.128094
C27	C	-1.092446	0.000019	-0.226031
C28	C	-1.090419	0.000027	-0.330340
C29	C	-1.088811	0.000034	-0.413479
C30	C	-1.086785	0.000040	-0.517795
C31	C	-1.083180	0.000039	0.296685
C32	C	-1.085176	0.000046	0.399066
