data_functionalizedCrystal
_audit_creation_method	'MofGen! by Chris Wilmer'
_symmetry_space_group_name_H-M	'P1'
_symmetry_Int_Tables_number	1
_symmetry_cell_setting	triclinic
loop_
_symmetry_equiv_pos_as_xyz
  x,y,z
_cell_length_a	16.120256
_cell_length_b	13.897449
_cell_length_c	13.897447
_cell_angle_alpha	89.979190
_cell_angle_beta	92.876392
_cell_angle_gamma	87.120616
loop_
_atom_site_label
_atom_site_type_symbol
_atom_site_fract_x
_atom_site_fract_y
_atom_site_fract_z
Zn1	Zn	-0.471376	-1.447017	-0.411678
Zn2	Zn	-0.138043	-1.113683	-0.078345
Zn3	Zn	0.195290	-0.780350	0.254989
Zn4	Zn	-0.331970	-1.455090	-0.564800
Zn5	Zn	0.001363	-1.121756	-0.231466
Zn6	Zn	0.334697	-0.788423	0.101867
Zn7	Zn	-0.331982	-1.293889	-0.403525
Zn8	Zn	0.001352	-0.960556	-0.070191
Zn9	Zn	0.334685	-0.627223	0.263142
Zn10	Zn	-0.471340	-1.285684	-0.572934
Zn11	Zn	-0.138006	-0.952351	-0.239601
Zn12	Zn	0.195327	-0.619018	0.093732
O13	O	-0.401667	-1.370420	-0.488234
O14	O	-0.068334	-1.037087	-0.154901
O15	O	0.265000	-0.703753	0.178432
O16	O	-0.452894	-1.583069	-0.431998
O17	O	-0.119561	-1.249735	-0.098665
O18	O	0.213772	-0.916402	0.234669
O19	O	-0.215308	-1.440519	-0.536590
O20	O	0.118025	-1.107185	-0.203256
O21	O	0.451359	-0.773852	0.130077
O22	O	-0.350493	-1.314257	-0.269626
O23	O	-0.017160	-0.980924	0.063708
O24	O	0.316174	-0.647591	0.397041
O25	O	-0.350473	-1.589000	-0.544496
O26	O	-0.017140	-1.255667	-0.211162
O27	O	0.316194	-0.922333	0.122171
O28	O	-0.452905	-1.426759	-0.275616
O29	O	-0.119572	-1.093426	0.057717
O30	O	0.213761	-0.760092	0.391051
O31	O	-0.215317	-1.322085	-0.418102
O32	O	0.118017	-0.988752	-0.084768
O33	O	0.451350	-0.655419	0.248565
O34	O	-0.350457	-1.157820	-0.425989
O35	O	-0.017124	-0.824487	-0.092656
O36	O	0.316209	-0.491153	0.240677
O37	O	-0.588008	-1.300273	-0.558360
O38	O	-0.254675	-0.966940	-0.225027
O39	O	0.078659	-0.633606	0.108307
O40	O	-0.452843	-1.151792	-0.550454
O41	O	-0.119510	-0.818459	-0.217120
O42	O	0.213824	-0.485125	0.116213
O43	O	-0.588035	-1.418803	-0.439886
O44	O	-0.254702	-1.085470	-0.106552
O45	O	0.078632	-0.752137	0.226781
O46	O	-0.350438	-1.432563	-0.700859
O47	O	-0.017104	-1.099229	-0.367526
O48	O	0.316229	-0.765896	-0.034193
O49	O	-0.452832	-1.308101	-0.706836
O50	O	-0.119498	-0.974768	-0.373502
O51	O	0.213835	-0.641435	-0.040169
C52	C	-0.401648	-1.119807	-0.488220
C53	C	-0.068315	-0.786474	-0.154887
C54	C	0.265019	-0.453140	0.178446
C55	C	-0.401660	-1.012592	-0.488239
C56	C	-0.068326	-0.679259	-0.154905
C57	C	0.265007	-0.345926	0.178428
C58	C	-0.401648	-1.370343	-0.738847
C59	C	-0.068314	-1.037009	-0.405514
C60	C	0.265019	-0.703676	-0.072181
C61	C	-0.401667	-1.370396	-0.846062
C62	C	-0.068334	-1.037063	-0.512729
C63	C	0.264999	-0.703730	-0.179396
C64	C	-0.619117	-1.357722	-0.500940
C65	C	-0.285784	-1.024389	-0.167606
C66	C	0.047550	-0.691056	0.165727
C67	C	-0.711781	-1.352311	-0.506354
C68	C	-0.378448	-1.018978	-0.173021
C69	C	-0.045115	-0.685645	0.160313
C70	C	-0.922740	-1.398636	-0.459975
C71	C	-0.589407	-1.065303	-0.126641
C72	C	-0.256074	-0.731969	0.206692
C73	C	-0.881435	-1.342400	-0.516199
C74	C	-0.548101	-1.009067	-0.182866
C75	C	-0.214768	-0.675733	0.150468
C76	C	-0.787031	-1.347916	-0.510720
C77	C	-0.453697	-1.014583	-0.177386
C78	C	-0.120364	-0.681250	0.155947
C79	C	-1.017153	-1.393121	-0.465453
C80	C	-0.683819	-1.059788	-0.132120
C81	C	-0.350486	-0.726454	0.201214
C82	C	-0.185063	-1.383124	-0.475509
C83	C	0.148271	-1.049791	-0.142175
C84	C	0.481604	-0.716457	0.191158
C85	C	-0.092399	-1.388722	-0.469823
C86	C	0.240934	-1.055388	-0.136489
C87	C	0.574268	-0.722055	0.196844
C88	C	-0.401686	-1.622012	-0.488249
C89	C	-0.068353	-1.288679	-0.154916
C90	C	0.264980	-0.955345	0.178418
C91	C	-0.401695	-1.729225	-0.488255
C92	C	-0.068361	-1.395892	-0.154922
C93	C	0.264972	-1.062559	0.178411
C94	C	-0.401681	-0.816296	-0.488243
C95	C	-0.068348	-0.482963	-0.154910
C96	C	0.264985	-0.149629	0.178423
C97	C	-0.401667	-0.925529	-0.488238
C98	C	-0.068334	-0.592196	-0.154904
C99	C	0.265000	-0.258863	0.178429
C100	C	-0.401686	-1.370442	-0.933133
C101	C	-0.068353	-1.037108	-0.599800
C102	C	0.264980	-0.703775	-0.266467
C103	C	-0.401708	-1.370508	-1.042367
C104	C	-0.068374	-1.037175	-0.709034
C105	C	0.264959	-0.703842	-0.375700
C106	C	-0.401705	-1.370523	-0.236643
C107	C	-0.068371	-1.037190	0.096690
C108	C	0.264962	-0.703856	0.430023
C109	C	-0.401721	-1.370567	-0.129430
C110	C	-0.068387	-1.037233	0.203903
C111	C	0.264946	-0.703900	0.537236
H112	H	-0.916971	-1.290107	-0.568444
H113	H	-0.583638	-0.956773	-0.235111
H114	H	-0.250304	-0.623440	0.098223
H115	H	-0.887206	-1.450920	-0.407729
H116	H	-0.553873	-1.117587	-0.074396
H117	H	-0.220539	-0.784254	0.258938
