data_functionalizedCrystal
_audit_creation_method	'MofGen! by Chris Wilmer'
_symmetry_space_group_name_H-M	'P1'
_symmetry_Int_Tables_number	1
_symmetry_cell_setting	triclinic
loop_
_symmetry_equiv_pos_as_xyz
  x,y,z
_cell_length_a	18.215407
_cell_length_b	12.759400
_cell_length_c	18.215399
_cell_angle_alpha	89.976571
_cell_angle_beta	89.982632
_cell_angle_gamma	90.010609
loop_
_atom_site_label
_atom_site_type_symbol
_atom_site_fract_x
_atom_site_fract_y
_atom_site_fract_z
Zn1	Zn	1.125132	-0.418349	-0.416091
Zn2	Zn	1.458465	-0.085015	-0.082757
Zn3	Zn	1.791799	0.248318	0.250576
Zn4	Zn	1.125065	-0.594046	-0.293034
Zn5	Zn	1.458399	-0.260713	0.040299
Zn6	Zn	1.791732	0.072621	0.373633
Zn7	Zn	1.002064	-0.418374	-0.293043
Zn8	Zn	1.335398	-0.085041	0.040290
Zn9	Zn	1.668731	0.248293	0.373623
Zn10	Zn	1.002055	-0.593978	-0.416064
Zn11	Zn	1.335389	-0.260645	-0.082731
Zn12	Zn	1.668722	0.072688	0.250602
O13	O	1.063579	-0.506187	-0.354558
O14	O	1.396913	-0.172853	-0.021225
O15	O	1.730246	0.160480	0.312109
O16	O	1.228107	-0.441673	-0.399774
O17	O	1.561441	-0.108340	-0.066441
O18	O	1.894774	0.224993	0.266893
O19	O	1.108725	-0.570782	-0.190051
O20	O	1.442058	-0.237448	0.143282
O21	O	1.775392	0.095885	0.476616
O22	O	1.018421	-0.271350	-0.309381
O23	O	1.351754	0.061984	0.023953
O24	O	1.685088	0.395317	0.357286
O25	O	1.228059	-0.570757	-0.309365
O26	O	1.561392	-0.237424	0.023968
O27	O	1.894725	0.095909	0.357302
O28	O	1.108838	-0.271331	-0.399783
O29	O	1.442172	0.062002	-0.066450
O30	O	1.775505	0.395336	0.266884
O31	O	1.018357	-0.441716	-0.190058
O32	O	1.351690	-0.108383	0.143276
O33	O	1.685023	0.224951	0.476609
O34	O	0.899079	-0.441650	-0.309355
O35	O	1.232412	-0.108317	0.023978
O36	O	1.565746	0.225016	0.357312
O37	O	1.018406	-0.570642	-0.519052
O38	O	1.351739	-0.237309	-0.185719
O39	O	1.685073	0.096025	0.147615
O40	O	0.899072	-0.570666	-0.399738
O41	O	1.232406	-0.237333	-0.066405
O42	O	1.565739	0.096000	0.266929
O43	O	1.108830	-0.441608	-0.519071
O44	O	1.442163	-0.108274	-0.185738
O45	O	1.775496	0.225059	0.147595
O46	O	1.108716	-0.741058	-0.309339
O47	O	1.442050	-0.407725	0.023994
O48	O	1.775383	-0.074391	0.357327
O49	O	1.018341	-0.741008	-0.399729
O50	O	1.351675	-0.407675	-0.066396
O51	O	1.685008	-0.074342	0.266938
C52	C	0.872373	-0.506154	-0.354545
C53	C	1.205706	-0.172821	-0.021212
C54	C	1.539040	0.160512	0.312122
C55	C	0.790574	-0.506166	-0.354557
C56	C	1.123907	-0.172833	-0.021224
C57	C	1.457241	0.160501	0.312110
C58	C	0.602405	-0.439090	-0.401707
C59	C	0.935738	-0.105757	-0.068374
C60	C	1.269071	0.227576	0.264959
C61	C	0.525546	-0.439099	-0.401710
C62	C	0.858879	-0.105766	-0.068377
C63	C	1.192213	0.227567	0.264957
C64	C	0.525506	-0.573313	-0.307421
C65	C	0.858839	-0.239979	0.025912
C66	C	1.192173	0.093354	0.359245
C67	C	0.602363	-0.573298	-0.307416
C68	C	0.935697	-0.239964	0.025917
C69	C	1.269030	0.093369	0.359251
C70	C	0.640811	-0.506188	-0.354563
C71	C	0.974144	-0.172855	-0.021230
C72	C	1.307477	0.160479	0.312104
C73	C	0.487095	-0.506212	-0.354571
C74	C	0.820428	-0.172879	-0.021238
C75	C	1.153761	0.160455	0.312096
C76	C	0.403761	-0.506222	-0.354573
C77	C	0.737094	-0.172889	-0.021240
C78	C	1.070428	0.160444	0.312093
C79	C	0.724150	-0.506176	-0.354560
C80	C	1.057483	-0.172843	-0.021227
C81	C	1.390816	0.160491	0.312107
C82	C	1.063541	-0.779154	-0.354546
C83	C	1.396874	-0.445821	-0.021213
C84	C	1.730207	-0.112487	0.312120
C85	C	1.063592	-0.895931	-0.354566
C86	C	1.396925	-0.562597	-0.021233
C87	C	1.730258	-0.229264	0.312101
C88	C	1.110648	-0.950703	-0.401677
C89	C	1.443981	-0.617370	-0.068344
C90	C	1.777315	-0.284037	0.264990
C91	C	1.110682	-1.060427	-0.401695
C92	C	1.444016	-0.727094	-0.068362
C93	C	1.777349	-0.393761	0.264972
C94	C	1.016601	-1.060596	-0.307484
C95	C	1.349935	-0.727263	0.025849
C96	C	1.683268	-0.393930	0.359182
C97	C	1.016564	-0.950874	-0.307471
C98	C	1.349897	-0.617541	0.025863
C99	C	1.683231	-0.284208	0.359196
C100	C	1.157676	-0.895760	-0.448772
C101	C	1.491009	-0.562426	-0.115439
C102	C	1.824342	-0.229093	0.217894
C103	C	1.204737	-0.950533	-0.495887
C104	C	1.538070	-0.617199	-0.162553
C105	C	1.871403	-0.283866	0.170780
C106	C	1.204771	-1.060257	-0.495905
C107	C	1.538104	-0.726923	-0.162571
C108	C	1.871438	-0.393590	0.170762
C109	C	1.157744	-1.115208	-0.448808
C110	C	1.491078	-0.781875	-0.115475
C111	C	1.824411	-0.448541	0.217859
C112	C	1.255532	-0.506220	-0.354571
C113	C	1.588866	-0.172887	-0.021238
C114	C	1.922199	0.160447	0.312095
C115	C	1.337331	-0.506234	-0.354577
C116	C	1.670664	-0.172901	-0.021244
C117	C	2.003998	0.160433	0.312090
C118	C	1.063624	-0.506114	-0.546511
C119	C	1.396957	-0.172781	-0.213178
C120	C	1.730291	0.160552	0.120156
C121	C	1.063643	-0.506083	-0.628310
C122	C	1.396977	-0.172750	-0.294977
C123	C	1.730310	0.160583	0.038357
C124	C	1.063638	-0.232154	-0.354586
C125	C	1.396971	0.101180	-0.021252
C126	C	1.730305	0.434513	0.312081
C127	C	1.063663	-0.115377	-0.354598
C128	C	1.396996	0.217956	-0.021264
C129	C	1.730330	0.551290	0.312069
C130	C	1.110744	-0.438832	-0.816515
C131	C	1.444077	-0.105499	-0.483182
C132	C	1.777410	0.227834	-0.149849
C133	C	1.110753	-0.438802	-0.893374
C134	C	1.444086	-0.105469	-0.560041
C135	C	1.777419	0.227865	-0.226707
C136	C	1.016595	-0.573172	-0.893343
C137	C	1.349928	-0.239839	-0.560009
C138	C	1.683261	0.093495	-0.226676
C139	C	1.016583	-0.573197	-0.816485
C140	C	1.349916	-0.239863	-0.483152
C141	C	1.683249	0.093470	-0.149819
C142	C	1.063661	-0.506028	-0.778074
C143	C	1.396995	-0.172695	-0.444740
C144	C	1.730328	0.160638	-0.111407
C145	C	1.063682	-0.505973	-0.931790
C146	C	1.397016	-0.172640	-0.598456
C147	C	1.730349	0.160693	-0.265123
C148	C	1.063691	-0.505940	-1.015123
C149	C	1.397025	-0.172607	-0.681790
C150	C	1.730358	0.160726	-0.348457
C151	C	1.063652	-0.506059	-0.694735
C152	C	1.396985	-0.172726	-0.361401
C153	C	1.730318	0.160607	-0.028068
C154	C	1.063577	-0.506183	-0.163352
C155	C	1.396910	-0.172850	0.169982
C156	C	1.730244	0.160484	0.503315
C157	C	1.063700	-0.505918	-0.081553
C158	C	1.397034	-0.172585	0.251780
C159	C	1.730367	0.160749	0.585113
H160	H	0.633634	-0.627938	-0.269021
H161	H	0.966968	-0.294604	0.064312
H162	H	1.300301	0.038729	0.397645
H163	H	0.633706	-0.384442	-0.440095
H164	H	0.967040	-0.051109	-0.106762
H165	H	1.300373	0.282225	0.226571
Br166	Br	0.473426	-0.348030	-0.465692
Br167	Br	0.806759	-0.014697	-0.132358
Br168	Br	1.140093	0.318637	0.200975
Br169	Br	0.952701	-0.876533	-0.243533
Br170	Br	1.286035	-0.543200	0.089801
Br171	Br	1.619368	-0.209866	0.423134
Br172	Br	1.174634	-0.347674	-0.764387
Br173	Br	1.507968	-0.014341	-0.431054
Br174	Br	1.841301	0.318992	-0.097720
Br175	Br	1.174658	-0.347611	-0.945542
Br176	Br	1.507991	-0.014278	-0.612209
Br177	Br	1.841325	0.319056	-0.278876
Br178	Br	1.268545	-0.875960	-0.559810
Br179	Br	1.601878	-0.542626	-0.226477
Br180	Br	1.935212	-0.209293	0.106856
Br181	Br	0.473323	-0.664387	-0.243440
Br182	Br	0.806656	-0.331054	0.089893
Br183	Br	1.139990	0.002279	0.423226
H184	H	1.157655	-0.806417	-0.448761
H185	H	1.490988	-0.473084	-0.115428
H186	H	1.824321	-0.139750	0.217905
H187	H	1.243084	-1.104850	-0.534273
H188	H	1.576418	-0.771516	-0.200940
H189	H	1.909751	-0.438183	0.132394
Br190	Br	0.952708	-0.664328	-0.945477
Br191	Br	1.286041	-0.330995	-0.612144
Br192	Br	1.619375	0.002339	-0.278811
Br193	Br	1.157914	-1.264120	-0.448712
Br194	Br	1.491248	-0.930787	-0.115378
Br195	Br	1.824581	-0.597454	0.217955
H196	H	0.978315	-1.105347	-0.269141
H197	H	1.311648	-0.772013	0.064193
H198	H	1.644981	-0.438680	0.397526
Br199	Br	0.952674	-0.664388	-0.764309
Br200	Br	1.286007	-0.331055	-0.430976
Br201	Br	1.619341	0.002278	-0.097643
