data_functionalizedCrystal
_audit_creation_method	'MofGen! by Chris Wilmer'
_symmetry_space_group_name_H-M	'P1'
_symmetry_Int_Tables_number	1
_symmetry_cell_setting	triclinic
loop_
_symmetry_equiv_pos_as_xyz
  x,y,z
_cell_length_a	10.686220
_cell_length_b	12.759399
_cell_length_c	12.759393
_cell_angle_alpha	89.969094
_cell_angle_beta	85.651479
_cell_angle_gamma	85.603213
loop_
_atom_site_label
_atom_site_type_symbol
_atom_site_fract_x
_atom_site_fract_y
_atom_site_fract_z
Zn1	Zn	1.929127	0.294843	0.470991
Zn2	Zn	2.429127	0.794843	0.970991
Zn3	Zn	1.928995	0.470567	0.295318
Zn4	Zn	2.428995	0.970567	0.795318
Zn5	Zn	1.718110	0.308389	0.308783
Zn6	Zn	2.218110	0.808389	0.808783
Zn7	Zn	1.718098	0.483976	0.484405
Zn8	Zn	2.218098	0.983976	0.984405
O9	O	1.823583	0.389444	0.389874
O10	O	2.323583	0.889444	0.889874
O11	O	2.105683	0.306872	0.436438
O12	O	2.605683	0.806872	0.936438
O13	O	1.900970	0.449111	0.150086
O14	O	2.400970	0.949111	0.650086
O15	O	1.746162	0.159567	0.330322
O16	O	2.246162	0.659567	0.830322
O17	O	2.105585	0.435975	0.307372
O18	O	2.605585	0.935975	0.807372
O19	O	1.901196	0.149615	0.449495
O20	O	2.401196	0.649615	0.949495
O21	O	1.746033	0.329960	0.159979
O22	O	2.246033	0.829960	0.659979
O23	O	1.541535	0.342962	0.343329
O24	O	2.041535	0.842962	0.843329
O25	O	1.746142	0.458830	0.629643
O26	O	2.246142	0.958830	1.129643
O27	O	1.541527	0.471965	0.472357
O28	O	2.041527	0.971965	0.972357
O29	O	1.901185	0.319874	0.619788
O30	O	2.401185	0.819874	1.119788
O31	O	1.900959	0.619370	0.320379
O32	O	2.400959	1.119370	0.820379
O33	O	1.746014	0.629222	0.459301
O34	O	2.246014	1.129222	0.959301
C35	C	1.495748	0.410389	0.410760
C36	C	1.995748	0.910389	0.910760
C37	C	1.355499	0.419375	0.419721
C38	C	1.855499	0.919375	0.919721
C39	C	1.823505	0.662416	0.389855
C40	C	2.323505	1.162416	0.889855
C41	C	1.823588	0.779187	0.389875
C42	C	2.323588	1.279187	0.889875
C43	C	1.823677	0.389337	0.663902
C44	C	2.323677	0.889337	1.163902
C45	C	1.823717	0.389291	0.780676
C46	C	2.323717	0.889291	1.280676
C47	C	2.152697	0.368417	0.368907
C48	C	2.652697	0.868417	0.868907
C49	C	2.292947	0.359456	0.359972
C50	C	2.792947	0.859456	0.859972
C51	C	1.823695	0.115403	0.389914
C52	C	2.323695	0.615403	0.889914
C53	C	1.823742	-0.001377	0.389931
C54	C	2.323742	0.498623	0.889931
C55	C	1.904360	0.828879	0.317609
C56	C	2.404360	1.328879	0.817609
C57	C	1.904441	0.938597	0.317639
C58	C	2.404441	1.438597	0.817639
C59	C	1.742967	0.948925	0.462204
C60	C	2.242967	1.448925	0.962204
C61	C	1.742893	0.839207	0.462178
C62	C	2.242893	1.339207	0.962178
C63	C	1.823561	0.389470	0.116908
C64	C	2.323561	0.889470	0.616908
C65	C	1.823765	0.389204	0.000119
C66	C	2.323765	0.889204	0.500119
C67	C	1.904454	0.316926	0.830407
C68	C	2.404454	0.816926	1.330407
C69	C	1.904475	0.316879	0.940130
C70	C	2.404475	0.816879	1.440130
C71	C	1.743020	0.461572	0.950380
C72	C	2.243020	0.961572	1.450380
C73	C	1.742993	0.461613	0.840660
C74	C	2.242993	0.961613	1.340660
H75	H	1.301751	0.477559	0.477726
H76	H	1.801751	0.977559	0.977726
H77	H	1.970181	0.258034	0.781572
H78	H	2.470181	0.758034	1.281572
H79	H	1.970068	0.780012	0.258737
H80	H	2.470068	1.280012	0.758737
N81	N	1.991557	0.238838	0.993779
N82	N	2.491557	0.738838	1.493779
H83	H	1.940308	0.193406	1.042569
H84	H	2.440308	0.693406	1.542569
H85	H	2.042675	0.193099	0.939069
H86	H	2.542675	0.693099	1.439069
N87	N	1.364135	0.282389	0.283144
N88	N	1.864135	0.782389	0.783144
H89	H	1.341283	0.208791	0.301037
H90	H	1.841283	0.708791	0.801037
H91	H	1.341200	0.300154	0.209523
H92	H	1.841200	0.800154	0.709523
H93	H	1.677267	0.997806	0.521070
H94	H	2.177267	1.497806	1.021070
N95	N	1.991561	0.992194	0.239698
N96	N	2.491561	1.492194	0.739698
H97	H	2.042666	0.937520	0.193894
H98	H	2.542666	1.437520	0.693894
H99	H	1.940260	1.041078	0.194327
H100	H	2.440260	1.541078	0.694327
H101	H	1.677119	0.798746	0.521031
H102	H	2.177119	1.298746	1.021031
H103	H	1.677300	0.520457	0.999232
H104	H	2.177300	1.020457	1.499232
N105	N	1.655884	0.539648	0.787013
N106	N	2.155884	1.039648	1.287013
H107	H	1.604749	0.585458	0.841660
H108	H	2.104749	1.085458	1.341660
H109	H	1.707192	0.585012	0.738203
H110	H	2.207192	1.085012	1.238203
