data_functionalizedCrystal
_audit_creation_method	'MofGen! by Chris Wilmer'
_symmetry_space_group_name_H-M	'P1'
_symmetry_Int_Tables_number	1
_symmetry_cell_setting	triclinic
loop_
_symmetry_equiv_pos_as_xyz
  x,y,z
_cell_length_a	16.109302
_cell_length_b	15.944493
_cell_length_c	15.186229
_cell_angle_alpha	90.002130
_cell_angle_beta	89.994701
_cell_angle_gamma	83.468412
loop_
_atom_site_label
_atom_site_type_symbol
_atom_site_fract_x
_atom_site_fract_y
_atom_site_fract_z
O1	O	1.103143	0.107972	-0.073256
O2	O	0.861083	0.121408	-0.073248
O3	O	0.988748	-0.007590	-0.073260
O4	O	0.975478	0.236970	-0.073245
O5	O	0.988740	-0.007592	0.073197
O6	O	0.861074	0.121406	0.073209
O7	O	1.103134	0.107970	0.073201
Zn8	Zn	0.982103	0.114688	0.096458
Zn9	Zn	0.982114	0.114690	-0.096506
O10	O	0.975469	0.236969	0.073213
C11	C	0.830103	0.120863	-0.000019
C12	C	0.737808	0.119231	-0.000016
C13	C	0.988201	-0.038886	-0.000035
C14	C	0.986575	-0.132134	-0.000046
C15	C	0.525462	0.115456	0.079809
C16	C	0.438742	0.113914	0.079806
C17	C	0.438762	0.113920	-0.079870
C18	C	0.525481	0.115456	-0.079866
C19	C	0.568828	0.116229	-0.000024
C20	C	0.395389	0.113150	-0.000031
C21	C	0.301363	0.111477	-0.000035
C22	C	0.662861	0.117900	-0.000020
C23	C	1.061722	-0.367918	-0.000032
C24	C	1.021202	-0.418472	-0.072241
C25	C	0.983562	-0.302854	-0.000035
C26	C	1.021176	-0.418450	0.072154
C27	C	0.980658	-0.467763	-0.000021
C28	C	0.943064	-0.352179	-0.072304
C29	C	0.943049	-0.352154	0.072156
C30	C	0.902472	-0.402675	-0.000071
C31	C	0.985238	-0.207855	-0.000044
C32	C	0.978976	-0.562759	-0.000018
C33	C	1.134114	0.108516	-0.000031
C34	C	1.226409	0.110148	-0.000039
C35	C	0.976016	0.268264	-0.000014
C36	C	0.977642	0.361512	-0.000009
N37	N	0.982101	0.114686	0.228151
N38	N	0.982122	0.114686	-0.228198
C39	C	1.038651	0.057585	0.453869
C40	C	1.038653	0.057583	0.546058
C41	C	0.925567	0.171790	0.546078
C42	C	0.925561	0.171787	0.453890
C43	C	0.982108	0.114686	0.407788
C44	C	0.982116	0.114686	0.592165
C45	C	0.982119	0.114685	0.692121
C46	C	0.982104	0.114686	0.307825
H47	H	0.403437	0.113285	0.144814
H48	H	0.560791	0.116083	-0.144879
H49	H	1.129047	-0.352312	-0.000107
N50	N	1.096399	-0.000746	0.593142
N51	N	1.096388	-0.000750	0.675452
H52	H	1.137166	-0.041953	0.708706
N53	N	1.062620	-0.454789	-0.148829
N54	N	1.137972	-0.446876	-0.161702
H55	H	1.167229	-0.472521	-0.215790
H56	H	0.560753	0.116085	0.144821
N57	N	0.394469	0.113130	-0.161415
N58	N	0.317041	0.111759	-0.161409
H59	H	0.285759	0.111203	-0.219002
N60	N	1.062576	-0.454749	0.148749
N61	N	1.023419	-0.494388	0.202827
H62	H	1.052662	-0.520022	0.256920
H63	H	0.879529	0.218282	0.583623
N64	N	0.901703	-0.316008	-0.148977
N65	N	0.940722	-0.275898	-0.202755
H66	H	0.911515	-0.250350	-0.256906
N67	N	0.817947	-0.422044	-0.000122
N68	N	0.770238	-0.397624	-0.062177
H69	H	0.710543	-0.411303	-0.062218
N70	N	0.901677	-0.315818	0.148753
N71	N	0.928338	-0.337232	0.223677
H72	H	0.899125	-0.311570	0.277781
H73	H	1.084693	0.011088	0.416334
N74	N	0.867789	0.230118	0.406826
N75	N	0.817309	0.281099	0.447997
H76	H	0.776506	0.322292	0.414759
