data_functionalizedCrystal
_audit_creation_method	'MofGen! by Chris Wilmer'
_symmetry_space_group_name_H-M	'P1'
_symmetry_Int_Tables_number	1
_symmetry_cell_setting	triclinic
loop_
_symmetry_equiv_pos_as_xyz
  x,y,z
_cell_length_a	14.519709
_cell_length_b	19.288865
_cell_length_c	18.366186
_cell_angle_alpha	89.988521
_cell_angle_beta	89.996571
_cell_angle_gamma	83.408197
loop_
_atom_site_label
_atom_site_type_symbol
_atom_site_fract_x
_atom_site_fract_y
_atom_site_fract_z
O1	O	1.223296	0.091051	-0.060464
O2	O	0.954751	0.101773	-0.060487
O3	O	1.096783	-0.004690	-0.060460
O4	O	1.081264	0.197514	-0.060490
O5	O	1.096759	-0.004696	0.060639
O6	O	0.954727	0.101768	0.060613
O7	O	1.223272	0.091046	0.060636
Zn8	Zn	1.088995	0.096406	0.079851
Zn9	Zn	1.089027	0.096413	-0.079702
O10	O	1.081240	0.197509	0.060609
C11	C	1.096272	-0.030571	0.000092
C12	C	1.094773	-0.107680	0.000098
C13	C	0.920382	0.101271	0.000060
C14	C	0.818010	0.099773	0.000052
C15	C	1.178111	-0.152077	0.000109
C16	C	1.176702	-0.224529	0.000097
C17	C	1.091951	-0.252581	0.000089
C18	C	1.008602	-0.208175	0.000074
C19	C	1.010013	-0.135725	0.000079
C20	C	1.025319	-0.361110	0.042502
C21	C	1.023911	-0.433560	0.042502
C22	C	1.087597	-0.476043	0.000073
C23	C	1.152705	-0.446068	-0.042348
C24	C	1.154116	-0.373618	-0.042343
C25	C	1.090412	-0.331141	0.000084
C26	C	1.169414	-0.599000	0.000070
C27	C	1.168002	-0.671454	0.000054
C28	C	0.999899	-0.655098	0.000038
C29	C	1.001314	-0.582647	0.000047
C30	C	1.086073	-0.554602	0.000066
C31	C	0.443150	0.094261	0.000086
C32	C	0.547448	0.095792	0.000076
C33	C	0.630577	0.097017	0.000068
C34	C	0.734882	0.098548	0.000060
C35	C	1.257640	0.091548	0.000087
C36	C	1.360012	0.093045	0.000091
C37	C	1.081751	0.223390	0.000056
C38	C	1.083250	0.300499	0.000045
N39	N	1.088981	0.096401	0.188742
N40	N	1.089049	0.096413	-0.188594
C41	C	1.151893	0.049282	0.226855
C42	C	1.151899	0.049279	0.303082
C43	C	1.089001	0.096406	0.341195
C44	C	1.026077	0.143529	0.303074
C45	C	1.026067	0.143526	0.226847
C46	C	1.076656	0.159650	0.461945
C47	C	1.076672	0.159654	0.538170
C48	C	1.089027	0.096415	0.576303
C49	C	1.101385	0.033170	0.538201
C50	C	1.101375	0.033167	0.461974
C51	C	1.089005	0.096415	0.423850
C52	C	1.151949	0.049289	0.697070
C53	C	1.151949	0.049285	0.773299
C54	C	1.026131	0.143541	0.773289
C55	C	1.026128	0.143539	0.697061
C56	C	1.089041	0.096414	0.658956
H57	H	1.247128	-0.129248	0.000122
H58	H	0.970893	-0.457959	0.077039
C59	C	0.897868	-0.356024	0.126377
C60	C	0.955305	-0.314416	0.089141
H61	H	0.854648	-0.327196	0.155169
H62	H	0.865449	-0.381173	0.092259
H63	H	0.934556	-0.387911	0.156967
H64	H	0.918617	-0.282532	0.058547
H65	H	0.987726	-0.289255	0.123264
C66	C	0.900810	-0.727068	-0.062230
C67	C	0.906738	-0.685925	0.000027
H68	H	0.843296	-0.746104	-0.062235
H69	H	0.904861	-0.699132	-0.104448
H70	H	0.950247	-0.763879	-0.062219
H71	H	0.857305	-0.649111	0.000013
H72	H	0.902678	-0.713863	0.042256
H73	H	1.244568	-0.260683	0.000103
H74	H	1.111445	-0.018325	0.569246
H75	H	0.939597	-0.231020	0.000066
H76	H	1.203119	0.010908	0.195832
C77	C	1.240480	-0.789774	0.000041
C78	C	1.259614	-0.720259	0.000058
H79	H	1.297040	-0.819904	0.000038
H80	H	1.205712	-0.798299	0.042263
H81	H	1.205724	-0.798267	-0.042197
H82	H	1.294365	-0.711765	0.042300
H83	H	1.294397	-0.711731	-0.042168
C84	C	0.971476	0.263694	0.673569
C85	C	0.956982	0.195343	0.655164
H86	H	0.928788	0.295675	0.647700
H87	H	0.962477	0.270434	0.724415
H88	H	1.032992	0.271330	0.661063
H89	H	0.895468	0.187706	0.667675
H90	H	0.965973	0.188600	0.604307
C91	C	1.276306	-0.043884	0.704733
C92	C	1.221092	-0.002517	0.655179
H93	H	1.318987	-0.075869	0.678872
H94	H	1.309359	-0.014917	0.734452
H95	H	1.238017	-0.068930	0.734476
H96	H	1.259381	0.022533	0.625440
H97	H	1.188037	-0.031488	0.625448
H98	H	1.203177	0.010912	0.804331
H99	H	1.203131	0.010907	0.334119
H100	H	1.066616	0.211151	0.569187
C101	C	1.125789	-0.091858	0.469651
C102	C	1.114944	-0.036347	0.420092
H103	H	1.134156	-0.134773	0.443793
H104	H	1.178468	-0.087918	0.499371
H105	H	1.072087	-0.090533	0.499393
H106	H	1.168648	-0.037668	0.390354
H107	H	1.062259	-0.040288	0.390360
C108	C	1.281273	-0.393249	-0.126224
C109	C	1.225669	-0.340668	-0.088977
H110	H	1.325440	-0.372905	-0.155019
H111	H	1.312603	-0.424614	-0.092112
H112	H	1.243483	-0.417881	-0.156812
H113	H	1.263458	-0.316040	-0.058385
H114	H	1.194337	-0.309292	-0.123094
C115	C	0.971410	0.263685	0.326512
C116	C	0.956935	0.195333	0.344961
H117	H	0.928715	0.295665	0.352368
H118	H	1.032916	0.271332	0.338999
H119	H	0.962399	0.270416	0.275658
H120	H	0.965952	0.188600	0.395815
H121	H	0.895414	0.187684	0.332479
H122	H	0.974915	0.181911	0.804320
H123	H	0.942147	-0.099576	0.000070
C124	C	1.005650	0.238019	0.141106
C125	C	0.956916	0.195328	0.184949
H126	H	0.962958	0.269998	0.115236
H127	H	1.043923	0.263067	0.170835
H128	H	1.043108	0.209945	0.107504
H129	H	0.919462	0.223402	0.218555
H130	H	0.918627	0.170278	0.155217
H131	H	1.066579	0.211150	0.430904
H132	H	1.238430	-0.576166	0.000082
C133	C	1.174898	-0.529817	-0.139290
C134	C	1.222714	-0.492752	-0.088997
H135	H	1.218119	-0.558635	-0.168090
H136	H	1.135936	-0.558037	-0.114028
H137	H	1.138220	-0.497913	-0.169870
H138	H	1.259386	-0.524657	-0.058414
H139	H	1.261691	-0.464530	-0.114261
H140	H	0.933451	-0.546498	0.000042
