data_functionalizedCrystal
_audit_creation_method	'MofGen! by Chris Wilmer'
_symmetry_space_group_name_H-M	'P1'
_symmetry_Int_Tables_number	1
_symmetry_cell_setting	triclinic
loop_
_symmetry_equiv_pos_as_xyz
  x,y,z
_cell_length_a	16.109302
_cell_length_b	11.792241
_cell_length_c	15.186229
_cell_angle_alpha	89.996105
_cell_angle_beta	89.994701
_cell_angle_gamma	83.827598
loop_
_atom_site_label
_atom_site_type_symbol
_atom_site_fract_x
_atom_site_fract_y
_atom_site_fract_z
O1	O	1.103817	0.145889	-0.073268
O2	O	0.861840	0.164043	-0.073262
O3	O	0.988701	-0.010256	-0.073259
O4	O	0.976957	0.320188	-0.073271
O5	O	0.988692	-0.010258	0.073198
O6	O	0.861832	0.164041	0.073196
O7	O	1.103808	0.145887	0.073189
Zn8	Zn	0.982819	0.154963	0.096445
Zn9	Zn	0.982830	0.154967	-0.096518
O10	O	0.976948	0.320186	0.073186
C11	C	0.830858	0.163307	-0.000032
C12	C	0.738552	0.161102	-0.000029
C13	C	0.526183	0.156001	0.079796
C14	C	0.439453	0.153917	0.079793
C15	C	0.439472	0.153926	-0.079883
C16	C	0.526202	0.156002	-0.079879
C17	C	0.569554	0.157045	-0.000037
C18	C	0.396095	0.152885	-0.000044
C19	C	0.302059	0.150625	-0.000048
C20	C	0.663596	0.159303	-0.000033
C21	C	0.987959	-0.052541	-0.000031
C22	C	0.985751	-0.178536	-0.000031
C23	C	0.981690	-0.409212	-0.000046
C24	C	0.983946	-0.280847	-0.000038
C25	C	1.134791	0.146623	-0.000043
C26	C	1.227097	0.148829	-0.000051
C27	C	0.977690	0.362472	-0.000044
C28	C	0.979898	0.488466	-0.000049
N29	N	0.982817	0.154961	0.228138
N30	N	0.982838	0.154961	-0.228211
C31	C	1.039010	0.077807	0.453862
C32	C	1.039013	0.077804	0.546052
C33	C	0.926639	0.232118	0.546059
C34	C	0.926633	0.232114	0.453871
C35	C	0.982823	0.154960	0.407775
C36	C	0.982832	0.154961	0.592152
C37	C	0.982834	0.154959	0.692109
C38	C	0.982820	0.154961	0.307812
H39	H	0.561477	0.156851	0.144809
O40	O	0.397446	0.152960	0.157422
C41	C	0.454314	0.154296	0.227887
H42	H	0.512857	0.191690	0.204482
H43	H	0.471852	0.063517	0.252439
C44	C	0.341755	0.181939	0.332059
C45	C	0.413657	0.227877	0.303314
H46	H	0.316676	0.227322	0.378588
H47	H	0.303442	0.181035	0.284586
H48	H	0.356381	0.106291	0.352512
H49	H	0.399029	0.303517	0.282852
H50	H	0.451967	0.228795	0.350786
O51	O	0.872096	0.307222	0.590739
C52	C	0.886125	0.419581	0.568215
H53	H	0.918168	0.419449	0.501276
H54	H	0.927665	0.454702	0.620090
C55	C	0.762692	0.495212	0.646174
C56	C	0.802042	0.495051	0.563955
H57	H	0.710828	0.541768	0.643550
H58	H	0.753242	0.419514	0.661352
H59	H	0.797318	0.524477	0.689395
H60	H	0.767422	0.465774	0.520738
H61	H	0.811485	0.570746	0.548769
O62	O	0.397225	0.152969	-0.157358
C63	C	0.311377	0.150888	-0.140245
H64	H	0.296242	0.186509	-0.071633
H65	H	0.295077	0.059300	-0.144031
C66	C	0.278651	0.180464	-0.293393
C67	C	0.260062	0.224225	-0.209124
H68	H	0.246996	0.225697	-0.335882
H69	H	0.336488	0.181862	-0.304923
H70	H	0.265068	0.104142	-0.296535
H71	H	0.273655	0.300540	-0.205980
H72	H	0.202225	0.222841	-0.197595
O73	O	0.872166	0.307118	0.409000
C74	C	0.917003	0.377169	0.355678
H75	H	0.981854	0.331987	0.341862
H76	H	0.923031	0.461057	0.391198
C77	C	0.790585	0.456898	0.285082
C78	C	0.870234	0.401400	0.268107
H79	H	0.761735	0.471850	0.231066
H80	H	0.760377	0.409707	0.321008
H81	H	0.795620	0.526798	0.314684
H82	H	0.865198	0.331496	0.238516
H83	H	0.900441	0.448581	0.232174
H84	H	0.561516	0.156849	-0.144892
O85	O	1.093617	0.002746	0.409220
C86	C	1.143221	-0.065333	0.469672
H87	H	1.109133	-0.066623	0.535392
H88	H	1.205148	-0.028459	0.479463
C89	C	1.201670	-0.186185	0.352983
C90	C	1.159799	-0.187777	0.433700
H91	H	1.211899	-0.261713	0.330793
H92	H	1.168253	-0.140317	0.312255
H93	H	1.253270	-0.155451	0.361154
H94	H	1.108195	-0.218496	0.425526
H95	H	1.193208	-0.233653	0.474426
O96	O	1.093480	0.002748	0.590860
C97	C	1.048648	-0.067276	0.644212
H98	H	0.983074	-0.069221	0.616441
H99	H	1.044453	-0.031758	0.714079
C100	C	1.174461	-0.186730	0.679735
C101	C	1.093924	-0.189126	0.645622
H102	H	1.202390	-0.261891	0.680609
H103	H	1.204666	-0.139551	0.643794
H104	H	1.170954	-0.157126	0.737954
H105	H	1.097432	-0.218715	0.587400
H106	H	1.063720	-0.236312	0.681554
