data_functionalizedCrystal
_audit_creation_method	'MofGen! by Chris Wilmer'
_symmetry_space_group_name_H-M	'P1'
_symmetry_Int_Tables_number	1
_symmetry_cell_setting	triclinic
loop_
_symmetry_equiv_pos_as_xyz
  x,y,z
_cell_length_a	15.995300
_cell_length_b	15.995292
_cell_length_c	9.730223
_cell_angle_alpha	90.001861
_cell_angle_beta	89.998209
_cell_angle_gamma	83.470212
loop_
_atom_site_label
_atom_site_type_symbol
_atom_site_fract_x
_atom_site_fract_y
_atom_site_fract_z
O1	O	1.110985	0.107725	-0.114330
O2	O	0.867201	0.121097	-0.114321
O3	O	0.995782	-0.007481	-0.114328
O4	O	0.982403	0.236303	-0.114323
O5	O	0.995780	-0.007478	0.114252
O6	O	0.867199	0.121100	0.114259
O7	O	1.110983	0.107728	0.114250
Zn8	Zn	0.989091	0.114415	0.150546
Zn9	Zn	0.989093	0.114411	-0.150618
O10	O	0.982402	0.236307	0.114257
C11	C	0.836005	0.120553	-0.000030
C12	C	0.743052	0.118918	-0.000027
C13	C	0.995237	-0.038675	-0.000041
C14	C	0.993604	-0.131627	-0.000052
C15	C	0.572870	0.115899	-0.000037
C16	C	0.525385	0.207449	-0.000032
C17	C	0.428697	0.205779	-0.000555
C18	C	0.405314	0.112927	-0.000046
C19	C	0.446457	0.067504	-0.130320
C20	C	0.543090	0.069820	-0.130426
C21	C	0.543367	0.068469	0.129521
C22	C	0.446423	0.068477	0.131230
C23	C	0.310619	0.111242	-0.000056
C24	C	0.667565	0.117580	-0.000037
C25	C	0.987603	-0.469365	-0.000039
C26	C	1.080409	-0.446069	0.000468
C27	C	1.082173	-0.349394	-0.000052
C28	C	0.990581	-0.301809	-0.000044
C29	C	0.944183	-0.330904	-0.130569
C30	C	0.943066	-0.427694	-0.130673
C31	C	0.941169	-0.427547	0.129265
C32	C	0.944608	-0.331055	0.130985
C33	C	0.992259	-0.207114	-0.000052
C34	C	0.985922	-0.564060	-0.000040
C35	C	1.142179	0.108272	-0.000045
C36	C	1.235131	0.109907	-0.000057
C37	C	0.982947	0.267500	-0.000033
C38	C	0.984579	0.360453	-0.000032
N39	N	0.989096	0.114417	0.356083
N40	N	0.989095	0.114402	-0.356154
C41	C	1.046046	0.057502	0.428006
C42	C	1.046044	0.057492	0.571889
C43	C	0.932138	0.171320	0.571913
C44	C	0.932137	0.171325	0.428033
C45	C	1.103004	0.000594	0.356056
C46	C	1.159960	-0.056325	0.427979
C47	C	1.159958	-0.056335	0.571862
C48	C	1.103000	0.000574	0.643822
H49	H	0.400226	0.241470	0.092810
H50	H	1.206327	-0.102686	0.630420
F51	F	0.857224	-0.287948	0.141298
H52	H	0.876783	-0.299024	-0.135416
F53	F	0.986298	-0.304697	-0.257542
F54	F	0.551002	0.254822	-0.121955
F55	F	0.851880	-0.445819	0.130425
H56	H	0.970395	-0.455640	0.228203
F57	F	1.102996	0.000552	0.796956
H58	H	1.103013	0.000599	0.238899
H59	H	0.975200	-0.454518	-0.228248
H60	H	0.400843	0.241314	-0.094483
H61	H	0.561403	0.102554	-0.228175
F62	F	1.129652	-0.324529	0.122258
F63	F	0.428047	-0.021672	-0.136181
F64	F	1.127168	-0.482669	0.122817
H65	H	0.885766	0.217654	0.630512
H66	H	0.543868	0.244242	0.093373
H67	H	0.875019	-0.442232	-0.136581
H68	H	1.206328	-0.102663	0.369381
H69	H	0.575377	0.002594	-0.135993
F70	F	0.409414	0.108259	-0.257519
F71	F	0.570153	0.107866	0.258625
H72	H	0.885762	0.217670	0.369473
H73	H	0.431099	0.000781	0.139480
F74	F	0.410679	0.111831	0.257207
F75	F	0.584938	-0.019752	0.131174
F76	F	1.129949	-0.325344	-0.122568
F77	F	1.126910	-0.484006	-0.121196
H78	H	0.978393	-0.312495	0.227546
