data_functionalizedCrystal
_audit_creation_method	'MofGen! by Chris Wilmer'
_symmetry_space_group_name_H-M	'P1'
_symmetry_Int_Tables_number	1
_symmetry_cell_setting	triclinic
loop_
_symmetry_equiv_pos_as_xyz
  x,y,z
_cell_length_a	13.635800
_cell_length_b	11.353959
_cell_length_c	11.102300
_cell_angle_alpha	76.860692
_cell_angle_beta	108.605850
_cell_angle_gamma	72.473377
loop_
_atom_site_label
_atom_site_type_symbol
_atom_site_fract_x
_atom_site_fract_y
_atom_site_fract_z
V1	V	2.065849	-0.180904	0.436288
O2	O	2.034797	0.008693	0.386790
O3	O	2.064147	-0.358703	0.472923
O4	O	2.054084	-0.178121	0.608494
O5	O	2.044930	-0.173138	0.250280
V6	V	2.303136	-0.158226	0.409227
O7	O	2.206292	-0.230650	0.495649
O8	O	2.387791	-0.108480	0.349867
O9	O	2.193234	0.019573	0.372593
O10	O	2.392886	-0.347823	0.458726
O11	O	2.382753	-0.165992	0.595235
O12	O	2.203297	-0.161009	0.237022
V13	V	2.565849	-0.180904	0.436288
O14	O	2.534797	0.008693	0.386790
O15	O	2.564147	-0.358703	0.472923
O16	O	2.554084	-0.178121	0.608494
O17	O	2.544930	-0.173138	0.250280
V18	V	2.803136	-0.158226	0.409227
O19	O	2.706292	-0.230650	0.495649
O20	O	2.887791	-0.108480	0.349867
O21	O	2.693234	0.019573	0.372593
O22	O	2.892886	-0.347823	0.458726
O23	O	2.882753	-0.165992	0.595235
O24	O	2.703297	-0.161009	0.237022
C25	C	1.991719	-0.402046	0.476263
C26	C	2.031054	-0.547399	0.507364
C27	C	2.019011	-0.594457	0.406697
C28	C	2.059666	-0.744686	0.438839
C29	C	1.978881	-0.171695	0.649195
C30	C	2.010053	-0.170596	0.790234
C31	C	2.097334	0.062909	0.369251
C32	C	2.047618	0.208260	0.338158
C33	C	2.110171	-0.167439	0.196315
C34	C	2.068618	-0.168532	0.055273
C35	C	2.491719	-0.402046	0.476263
C36	C	2.531054	-0.547399	0.507364
C37	C	2.478881	-0.171695	0.649195
C38	C	2.510053	-0.170596	0.790234
C39	C	2.117067	-0.176610	0.864414
C40	C	2.146349	-0.175573	0.996933
C41	C	1.961593	-0.162513	0.981082
C42	C	1.932310	-0.163541	0.848562
C43	C	2.597334	0.062909	0.369251
C44	C	2.547618	0.208260	0.338158
C45	C	2.610171	-0.167439	0.196315
C46	C	2.568618	-0.168532	0.055273
C47	C	2.641916	-0.622325	0.529795
C48	C	2.678895	-0.758903	0.559038
C49	C	2.605008	-0.820551	0.565840
C50	C	2.494138	-0.745616	0.543411
C51	C	2.457163	-0.609041	0.514178
C52	C	2.609251	0.283186	0.315731
C53	C	2.562544	0.419763	0.286495
C54	C	2.454208	0.481411	0.279695
C55	C	2.392570	0.406476	0.302121
C56	C	2.439274	0.269903	0.331347
C57	C	2.617067	-0.176610	0.864414
C58	C	2.646349	-0.175573	0.996933
C59	C	2.461593	-0.162513	0.981082
C60	C	2.432310	-0.163541	0.848562
H61	H	1.978609	-0.523527	0.296718
F62	F	2.628162	0.499490	0.262635
F63	F	2.339166	-0.529311	0.490298
H64	H	2.635130	-0.931760	0.589645
F65	F	2.796893	-0.838630	0.582898
F66	F	2.760246	-0.181974	1.075875
H67	H	2.416192	0.592619	0.255895
F68	F	2.415514	-0.811245	0.550651
F69	F	2.699807	-0.184114	0.802339
H70	H	2.007214	-0.720815	0.228171
F71	F	2.083877	-0.640104	0.651120
F72	F	2.260246	-0.181974	1.075875
H73	H	2.180371	-0.182353	0.816927
F74	F	1.878866	-0.155018	1.043176
F75	F	2.112490	-0.837388	0.582603
H76	H	2.702091	-0.572148	0.524253
F77	F	2.277268	0.472107	0.294872
H78	H	2.697467	0.233011	0.321264
F79	F	1.818405	-0.157136	0.769608
F80	F	2.318405	-0.157136	0.769608
F81	F	2.373666	0.190175	0.355218
F82	F	2.378866	-0.155018	1.043176
