data_functionalizedCrystal
_audit_creation_method	'MofGen! by Chris Wilmer'
_symmetry_space_group_name_H-M	'P1'
_symmetry_Int_Tables_number	1
_symmetry_cell_setting	triclinic
loop_
_symmetry_equiv_pos_as_xyz
  x,y,z
_cell_length_a	23.532407
_cell_length_b	15.944551
_cell_length_c	14.421503
_cell_angle_alpha	89.996660
_cell_angle_beta	89.997762
_cell_angle_gamma	96.826292
loop_
_atom_site_label
_atom_site_type_symbol
_atom_site_fract_x
_atom_site_fract_y
_atom_site_fract_z
O1	O	0.755658	-0.101953	-0.076998
O2	O	1.255658	0.398047	0.423002
O3	O	0.589852	-0.116706	-0.077025
O4	O	1.089852	0.383294	0.422975
O5	O	0.677283	0.012983	-0.077003
O6	O	1.177283	0.512983	0.422997
O7	O	0.668227	-0.231642	-0.077021
O8	O	1.168227	0.268358	0.422979
O9	O	0.677268	0.012964	0.077221
O10	O	1.177268	0.512964	0.577221
O11	O	0.589837	-0.116726	0.077198
O12	O	1.089837	0.383274	0.577198
O13	O	0.755643	-0.101972	0.077225
O14	O	1.255643	0.398028	0.577225
Cu15	Cu	0.672739	-0.109351	0.091294
Cu16	Cu	1.172739	0.390649	0.591294
Cu17	Cu	0.672756	-0.109328	-0.091094
Cu18	Cu	1.172756	0.390672	0.408906
O19	O	0.668213	-0.231662	0.077203
O20	O	1.168213	0.268338	0.577203
C21	C	0.568627	-0.116340	0.000083
C22	C	1.068627	0.383660	0.500083
C23	C	0.505406	-0.115211	0.000073
C24	C	1.005406	0.384789	0.500073
C25	C	0.676899	0.044265	0.000109
C26	C	1.176899	0.544265	0.500109
C27	C	0.675772	0.137501	0.000110
C28	C	1.175772	0.637501	0.500110
N29	N	0.672731	-0.109366	0.219575
N30	N	1.172731	0.390634	0.719575
C31	C	0.106572	-0.184874	0.000109
C32	C	0.606572	0.315126	0.500109
C33	C	0.047168	-0.183824	0.000115
C34	C	0.547168	0.316176	0.500115
O35	O	0.010674	-0.248403	0.000144
O36	O	0.510674	0.251597	0.500144
N37	N	0.024243	-0.106724	0.000119
N38	N	0.524243	0.393276	0.500119
C39	C	0.060726	-0.030668	0.000127
C40	C	0.560726	0.469332	0.500127
O41	O	0.035772	0.035009	0.000132
O42	O	0.535772	0.535009	0.500132
C43	C	0.120129	-0.031718	0.000128
C44	C	0.620129	0.468282	0.500128
C45	C	0.143051	-0.108823	0.000114
C46	C	0.643051	0.391177	0.500114
C47	C	0.129494	-0.261973	0.000097
C48	C	0.629494	0.238027	0.500097
C49	C	0.188894	-0.263022	0.000089
C50	C	0.688894	0.236978	0.500089
C51	C	0.225373	-0.186971	0.000094
C52	C	0.725373	0.313029	0.500094
C53	C	0.202451	-0.109872	0.000107
C54	C	0.702451	0.390128	0.500107
C55	C	0.156611	0.044337	0.000143
C56	C	0.656611	0.544337	0.500143
C57	C	0.216018	0.043281	0.000144
C58	C	0.716018	0.543281	0.500144
C59	C	0.238939	-0.033825	0.000131
C60	C	0.738939	0.466175	0.500131
C61	C	0.298329	-0.034871	0.000105
C62	C	0.798329	0.465129	0.500105
N63	N	0.321254	-0.111971	0.000100
N64	N	0.821254	0.388029	0.500100
C65	C	0.284776	-0.188022	0.000095
C66	C	0.784776	0.311978	0.500095
C67	C	-0.064025	-0.028468	0.000127
C68	C	0.435975	0.471532	0.500127
C69	C	-0.123427	-0.027417	0.000119
C70	C	0.376573	0.472583	0.500119
C71	C	-0.136981	-0.180574	0.000109
C72	C	0.363019	0.319426	0.500109
C73	C	-0.077578	-0.181624	0.000110
C74	C	0.422422	0.318376	0.500110
C75	C	-0.041100	-0.105569	0.000123
C76	C	0.458900	0.394431	0.500123
C77	C	0.409521	-0.190219	0.000079
C78	C	0.909521	0.309781	0.500079
C79	C	0.468927	-0.191261	0.000067
C80	C	0.968927	0.308739	0.500067
C81	C	0.482476	-0.038104	0.000083
C82	C	0.982476	0.461896	0.500083
C83	C	0.423075	-0.037062	0.000089
C84	C	0.923075	0.462938	0.500089
C85	C	0.386599	-0.113126	0.000090
C86	C	0.886599	0.386874	0.500090
O87	O	0.334859	0.029673	0.000080
O88	O	0.834859	0.529673	0.500080
O89	O	0.309738	-0.253687	0.000103
O90	O	0.809738	0.246313	0.500103
C91	C	0.776868	-0.102338	0.000115
C92	C	1.276868	0.397662	0.500115
C93	C	0.840090	-0.103468	0.000119
C94	C	1.340090	0.396532	0.500119
C95	C	0.668596	-0.262943	0.000089
C96	C	1.168596	0.237057	0.500089
C97	C	0.669723	-0.356179	0.000082
C98	C	1.169723	0.143821	0.500082
C99	C	0.618885	0.351879	0.000087
C100	C	1.118885	0.851879	0.500087
C101	C	0.645294	0.413109	0.076133
C102	C	1.145294	0.913109	0.576133
C103	C	0.673733	0.308210	0.000102
C104	C	1.173733	0.808210	0.500102
C105	C	0.645322	0.413111	-0.075919
C106	C	1.145322	0.913111	0.424081
C107	C	0.671760	0.473106	0.000091
C108	C	1.171760	0.973106	0.500091
C109	C	0.700158	0.368212	0.076211
C110	C	1.200158	0.868212	0.576211
C111	C	0.700178	0.368208	-0.075910
C112	C	1.200178	0.868208	0.424090
C113	C	0.726627	0.429421	0.000155
C114	C	1.226627	0.929421	0.500155
C115	C	0.674869	0.213217	0.000109
C116	C	1.174869	0.713217	0.500109
C117	C	0.670629	0.568097	0.000090
C118	C	1.170629	1.068097	0.500090
N119	N	0.672769	-0.109306	-0.219375
N120	N	1.172769	0.390694	0.280625
C121	C	0.632296	-0.169308	0.469218
C122	C	1.132296	0.330692	0.969218
C123	C	0.683757	-0.185182	0.531028
C124	C	1.183757	0.314818	1.031028
C125	C	0.672745	-0.109346	0.408736
C126	C	1.172745	0.390654	0.908736
C127	C	0.621298	-0.093492	0.531020
C128	C	1.121298	0.406508	1.031020
C129	C	0.672754	-0.109328	0.591458
C130	C	1.172754	0.390672	1.091458
C131	C	0.724232	-0.125257	0.469185
C132	C	1.224232	0.374743	0.969185
C133	C	0.661739	-0.033535	0.469172
C134	C	1.161739	0.466465	0.969172
C135	C	0.713237	-0.049376	0.530954
C136	C	1.213237	0.450624	1.030954
C137	C	0.672739	-0.109358	0.303475
C138	C	1.172739	0.390642	0.803475
C139	C	0.672766	-0.109315	0.696717
C140	C	1.172766	0.390685	1.196717
H141	H	0.487586	-0.254052	0.000056
H142	H	0.987586	0.245948	0.500056
F143	F	0.730449	0.342332	0.160335
F144	F	1.230449	0.842332	0.660335
F145	F	0.254837	0.124232	0.000160
F146	F	0.754837	0.624232	0.500160
H147	H	0.598124	-0.220056	0.442111
H148	H	1.098124	0.279944	0.942111
H149	H	0.577786	-0.080090	0.558184
H150	H	1.077786	0.419910	1.058184
F151	F	0.132230	0.126405	0.000144
F152	F	0.632230	0.626405	0.500144
H153	H	0.622089	0.433014	0.140416
H154	H	1.122089	0.933014	0.640416
H155	H	0.404412	0.025724	0.000087
H156	H	0.904412	0.525724	0.500087
F157	F	0.695936	-0.268969	0.566541
F158	F	1.195936	0.231031	1.066541
H159	H	0.772194	0.462964	0.000205
H160	H	1.272194	0.962964	0.500205
H161	H	0.512187	0.023814	0.000083
H162	H	1.012187	0.523814	0.500083
H163	H	0.723363	0.348281	-0.140196
H164	H	1.223363	0.848281	0.359804
F165	F	0.614994	0.439126	-0.159945
F166	F	1.114994	0.939126	0.340055
H167	H	0.767753	-0.138736	0.442138
H168	H	1.267753	0.361264	0.942138
H169	H	0.747484	0.001343	0.557891
H170	H	1.247484	0.501343	1.057891
F171	F	0.649539	0.050228	0.433629
F172	F	1.149539	0.550228	0.933629
H173	H	0.099799	-0.323906	0.000096
H174	H	0.599799	0.176094	0.500096
F175	F	0.213281	-0.345089	0.000079
F176	F	0.713281	0.154911	0.500079
F177	F	-0.053189	-0.263689	0.000097
F178	F	0.446811	0.236311	0.500097
F179	F	-0.175814	-0.261514	0.000107
F180	F	0.324186	0.238486	0.500107
F181	F	-0.147815	0.054649	0.000113
F182	F	0.352185	0.554649	0.500113
F183	F	-0.025207	0.052486	0.000132
F184	F	0.474793	0.552486	0.500132
F185	F	0.370708	-0.271175	0.000081
F186	F	0.870708	0.228825	0.500081
H187	H	0.573358	0.318187	0.000156
H188	H	1.073358	0.818187	0.500156
