data_functionalizedCrystal
_audit_creation_method	'MofGen! by Chris Wilmer'
_symmetry_space_group_name_H-M	'P1'
_symmetry_Int_Tables_number	1
_symmetry_cell_setting	triclinic
loop_
_symmetry_equiv_pos_as_xyz
  x,y,z
_cell_length_a	13.897449
_cell_length_b	12.645330
_cell_length_c	13.897441
_cell_angle_alpha	90.029436
_cell_angle_beta	90.020733
_cell_angle_gamma	90.013926
loop_
_atom_site_label
_atom_site_type_symbol
_atom_site_fract_x
_atom_site_fract_y
_atom_site_fract_z
Zn1	Zn	1.474736	-0.421969	0.545389
Zn2	Zn	1.474645	-0.599265	0.384094
Zn3	Zn	1.313426	-0.422020	0.384107
Zn4	Zn	1.313421	-0.599195	0.545346
O5	O	1.394057	-0.510612	0.464734
O6	O	1.609706	-0.445496	0.524005
O7	O	1.453222	-0.575803	0.249114
O8	O	1.334864	-0.273666	0.405525
O9	O	1.609638	-0.575754	0.405502
O10	O	1.453378	-0.273629	0.524018
O11	O	1.334775	-0.445582	0.249124
O12	O	1.178443	-0.445514	0.405484
O13	O	1.334857	-0.575635	0.680334
O14	O	1.178440	-0.575684	0.523945
O15	O	1.453374	-0.445428	0.680365
O16	O	1.453218	-0.747603	0.405461
O17	O	1.334768	-0.747552	0.523932
C18	C	1.143443	-0.510598	0.464712
C19	C	1.036229	-0.510618	0.464726
C20	C	0.839934	-0.510621	0.464751
C21	C	0.949166	-0.510616	0.464734
C22	C	1.394009	-0.786042	0.464711
C23	C	1.394076	-0.903872	0.464734
C24	C	1.468474	-1.071424	0.390052
C25	C	1.468716	-0.948864	0.390235
C26	C	1.421645	-0.948249	0.566410
C27	C	1.422236	-1.070847	0.566014
C28	C	1.292081	-1.071203	0.438741
C29	C	1.292570	-0.948599	0.436461
C30	C	1.645650	-0.510627	0.464757
C31	C	1.752864	-0.510634	0.464766
C32	C	1.394125	-0.510519	0.716327
C33	C	1.394155	-0.510479	0.823541
C34	C	1.394132	-0.234107	0.464778
C35	C	1.394164	-0.116277	0.464797
C36	C	1.394044	-0.510629	0.214120
C37	C	1.394202	-0.510370	0.106906
C38	C	1.394181	-0.510407	1.019836
C39	C	1.394163	-0.510450	0.910604
H40	H	1.451467	-0.918865	0.314843
H41	H	1.370483	-1.100513	0.623623
Cl42	Cl	1.206597	-1.115989	0.522788
H43	H	1.234216	-0.917984	0.486910
Cl44	Cl	1.340621	-0.903263	0.654698
Cl45	Cl	1.535549	-0.900716	0.601057
H46	H	1.544325	-0.919453	0.407469
H47	H	1.267011	-1.102216	0.365890
Cl48	Cl	1.584585	-1.118858	0.416360
Cl49	Cl	1.442184	-1.117063	0.273309
Cl50	Cl	1.537440	-1.114869	0.600086
Cl51	Cl	1.260467	-0.903830	0.320940
