data_functionalizedCrystal
_audit_creation_method	'MofGen! by Chris Wilmer'
_symmetry_space_group_name_H-M	'P1'
_symmetry_Int_Tables_number	1
_symmetry_cell_setting	triclinic
loop_
_symmetry_equiv_pos_as_xyz
  x,y,z
_cell_length_a	14.853566
_cell_length_b	17.019294
_cell_length_c	13.930277
_cell_angle_alpha	86.116472
_cell_angle_beta	89.995631
_cell_angle_gamma	83.514243
loop_
_atom_site_label
_atom_site_type_symbol
_atom_site_fract_x
_atom_site_fract_y
_atom_site_fract_z
O1	O	1.196090	0.102985	-0.088279
O2	O	1.696090	0.602985	0.411721
O3	O	0.933597	0.115254	-0.089309
O4	O	1.433597	0.615254	0.410691
O5	O	1.072165	-0.005705	-0.079297
O6	O	1.572165	0.494295	0.420703
O7	O	1.057521	0.223944	-0.098291
O8	O	1.557521	0.723944	0.401709
O9	O	1.072146	-0.005708	0.080365
O10	O	1.572146	0.494292	0.580365
O11	O	0.933578	0.115252	0.070353
O12	O	1.433578	0.615252	0.570353
O13	O	1.196071	0.102982	0.071383
O14	O	1.696071	0.602982	0.571383
Zn15	Zn	1.064821	0.109116	0.096218
Zn16	Zn	1.564821	0.609116	0.596218
Zn17	Zn	1.064846	0.109120	-0.114144
Zn18	Zn	1.564846	0.609120	0.385856
O19	O	1.057502	0.223942	0.061371
O20	O	1.557502	0.723942	0.561371
C21	C	0.900000	0.114697	-0.009434
C22	C	1.400000	0.614697	0.490566
C23	C	0.799921	0.113032	-0.009302
C24	C	1.299921	0.613032	0.490698
C25	C	0.376765	0.105989	-0.095735
C26	C	0.876765	0.605989	0.404265
C27	C	0.376766	0.105987	0.078335
C28	C	0.876766	0.605987	0.578335
C29	C	0.470796	0.107551	0.078203
C30	C	0.970796	0.607551	0.578203
C31	C	0.517815	0.108335	-0.008900
C32	C	1.017815	0.608335	0.491100
C33	C	0.470804	0.107555	-0.095870
C34	C	0.970804	0.607555	0.404130
C35	C	0.517812	0.108338	0.165171
C36	C	1.017812	0.608338	0.665171
C37	C	0.611848	0.109903	0.165042
C38	C	1.111848	0.609903	0.665042
C39	C	0.658869	0.110682	0.077939
C40	C	1.158869	0.610682	0.577939
C41	C	0.611853	0.109901	-0.009035
C42	C	1.111853	0.609901	0.490965
C43	C	0.658872	0.110686	-0.096137
C44	C	1.158872	0.610686	0.403863
C45	C	0.611858	0.109900	-0.183111
C46	C	1.111858	0.609900	0.316889
C47	C	0.517825	0.108334	-0.182973
C48	C	1.017825	0.608334	0.317027
C49	C	0.752902	0.112247	0.077800
C50	C	1.252902	0.612247	0.577800
C51	C	0.752910	0.112252	-0.096273
C52	C	1.252910	0.612252	0.403727
C53	C	1.071600	-0.035096	0.002963
C54	C	1.571600	0.464904	0.502963
C55	C	1.069934	-0.122669	0.010199
C56	C	1.569934	0.377331	0.510199
C57	C	1.069164	-0.163804	-0.073432
C58	C	1.569164	0.336196	0.426568
C59	C	1.067592	-0.246087	-0.066630
C60	C	1.567592	0.253913	0.433370
C61	C	1.066798	-0.287233	0.023805
C62	C	1.566798	0.212767	0.523805
C63	C	1.067565	-0.246092	0.107443
C64	C	1.567565	0.253908	0.607443
C65	C	1.069130	-0.163810	0.100639
C66	C	1.569130	0.336190	0.600639
C67	C	1.062066	-0.535671	0.048701
C68	C	1.562066	-0.035671	0.548701
C69	C	1.060504	-0.617959	0.055498
C70	C	1.560504	-0.117959	0.555498
C71	C	1.060529	-0.617949	-0.118576
C72	C	1.560529	-0.117949	0.381424
C73	C	1.062099	-0.535666	-0.125371
C74	C	1.562099	-0.035666	0.374629
C75	C	1.062862	-0.494531	-0.041733
C76	C	1.562862	0.005469	0.458267
C77	C	1.065194	-0.371340	0.030760
C78	C	1.565194	0.128660	0.530760
C79	C	1.064459	-0.410425	-0.048690
C80	C	1.564459	0.089575	0.451310
C81	C	1.229667	0.103539	-0.008494
C82	C	1.729667	0.603539	0.491506
C83	C	1.329747	0.105205	-0.008632
C84	C	1.829747	0.605205	0.491368
C85	C	1.058067	0.253333	-0.020891
C86	C	1.558067	0.753333	0.479109
C87	C	1.059733	0.340905	-0.028134
C88	C	1.559733	0.840905	0.471866
N89	N	1.064810	0.109114	0.239784
N90	N	1.564810	0.609114	0.739784
N91	N	1.064864	0.109116	-0.257710
N92	N	1.564864	0.609116	0.242290
C93	C	1.003486	0.162660	0.687621
C94	C	1.503486	0.662660	1.187621
C95	C	1.126232	0.055574	0.696454
C96	C	1.626232	0.555574	1.196454
C97	C	1.126221	0.055571	0.595959
C98	C	1.626221	0.555571	1.095959
C99	C	1.064843	0.109115	0.541290
C100	C	1.564843	0.609115	1.041290
C101	C	1.003475	0.162660	0.587116
C102	C	1.503475	0.662660	1.087116
C103	C	1.187594	0.002032	0.550124
C104	C	1.687594	0.502032	1.050124
C105	C	1.187586	0.002028	0.449623
C106	C	1.687586	0.502028	0.949623
C107	C	1.126203	0.055568	0.394952
C108	C	1.626203	0.555568	0.894952
C109	C	1.064832	0.109115	0.440785
C110	C	1.564832	0.609115	0.940785
C111	C	1.003453	0.162659	0.386116
C112	C	1.503453	0.662659	0.886116
C113	C	0.942078	0.216203	0.431947
C114	C	1.442078	0.716203	0.931947
C115	C	0.942092	0.216201	0.532446
C116	C	1.442092	0.716201	1.032446
C117	C	1.126189	0.055570	0.294453
C118	C	1.626189	0.555570	0.794453
C119	C	1.003443	0.162659	0.285610
C120	C	1.503443	0.662659	0.785610
H121	H	0.650119	0.110542	0.235862
H122	H	1.150119	0.610542	0.735862
N123	N	0.940745	0.217366	0.229786
N124	N	1.440745	0.717366	0.729786
N125	N	0.941881	0.290281	0.234985
N126	N	1.441881	0.790281	0.734985
H127	H	0.897600	0.328919	0.195560
H128	H	1.397600	0.828919	0.695560
H129	H	1.065100	-0.376920	-0.122321
H130	H	1.565100	0.123080	0.377679
H131	H	1.062705	-0.502191	0.116805
H132	H	1.562705	-0.002191	0.616805
N133	N	0.940804	0.217361	0.734427
N134	N	1.440804	0.717361	1.234427
N135	N	0.941939	0.290278	0.717169
N136	N	1.441939	0.790278	1.217169
H137	H	0.897668	0.328912	0.750226
H138	H	1.397668	0.828912	1.250226
H139	H	1.064550	-0.404851	0.104393
H140	H	1.564550	0.095149	0.604393
N141	N	0.879397	0.270896	0.376084
N142	N	1.379397	0.770896	0.876084
N143	N	0.879410	0.270889	0.286354
N144	N	1.379410	0.770889	0.786354
H145	H	0.835144	0.309516	0.246896
H146	H	1.335144	0.809516	0.746896
N147	N	0.469815	0.107528	-0.271814
N148	N	0.969815	0.607528	0.228186
N149	N	0.488695	0.052142	-0.325510
N150	N	0.988695	0.552142	0.174490
H151	H	0.454785	0.051573	-0.388255
H152	H	0.954785	0.551573	0.111745
H153	H	1.237571	-0.041558	0.594639
H154	H	1.737571	0.458442	1.094639
H155	H	0.650152	0.110544	-0.254031
H156	H	1.150152	0.610544	0.245969
N157	N	0.879408	0.270884	0.579276
N158	N	1.379408	0.770884	1.079276
N159	N	0.879432	0.270876	0.669007
N160	N	1.379432	0.770876	1.169007
H161	H	0.835164	0.309497	0.702086
H162	H	1.335164	0.809497	1.202086
N163	N	1.188939	0.000907	0.752306
N164	N	1.688939	0.500907	1.252306
N165	N	1.188952	0.000927	0.842035
N166	N	1.688952	0.500927	1.342035
H167	H	1.233247	-0.037680	0.881485
H168	H	1.733247	0.462320	1.381485
H169	H	0.791175	0.112895	0.148612
H170	H	1.291175	0.612895	0.648612
H171	H	1.237560	-0.041571	0.412314
H172	H	1.737560	0.458429	0.912314
N173	N	1.188798	0.000806	0.247659
N174	N	1.688798	0.500806	0.747659
N175	N	1.243541	-0.047043	0.296486
N176	N	1.743541	0.452957	0.796486
H177	H	1.287728	-0.085754	0.263442
H178	H	1.787728	0.414246	0.763442
N179	N	0.328736	0.105178	-0.184564
N180	N	0.828736	0.605178	0.315436
N181	N	0.244779	0.103773	-0.184437
N182	N	0.744779	0.603773	0.315563
H183	H	0.210856	0.103200	-0.247173
H184	H	0.710856	0.603200	0.252827
H185	H	0.791186	0.112888	-0.167203
H186	H	1.291186	0.612888	0.332797
H187	H	0.338477	0.105353	0.149249
H188	H	0.838477	0.605353	0.649249
H189	H	0.479522	0.107705	0.236084
H190	H	0.979522	0.607705	0.736084
H191	H	1.066969	-0.279577	-0.134732
H192	H	1.566969	0.220423	0.365268
N193	N	1.069987	-0.121792	-0.165818
N194	N	1.569987	0.378208	0.334182
N195	N	1.069300	-0.158534	-0.240481
N196	N	1.569300	0.341466	0.259519
H197	H	1.069880	-0.128865	-0.305732
H198	H	1.569880	0.371135	0.194268
H199	H	1.062748	-0.502171	-0.199012
H200	H	1.562748	-0.002171	0.300988
N201	N	1.059752	-0.659980	-0.203994
N202	N	1.559752	-0.159980	0.296006
N203	N	1.058357	-0.733446	-0.197913
N204	N	1.558357	-0.233446	0.302087
H205	H	1.057806	-0.763132	-0.258243
H206	H	1.557806	-0.263132	0.241757
N207	N	1.059686	-0.659978	0.147888
N208	N	1.559686	-0.159978	0.647888
N209	N	1.060362	-0.623242	0.222556
N210	N	1.560362	-0.123242	0.722556
H211	H	1.059783	-0.652916	0.287804
H212	H	1.559783	-0.152916	0.787804
H213	H	1.066913	-0.279599	0.181077
H214	H	1.566913	0.220401	0.681077
H215	H	1.069745	-0.130316	0.168741
H216	H	1.569745	0.369684	0.668741
