data_functionalizedCrystal
_audit_creation_method	'MofGen! by Chris Wilmer'
_symmetry_space_group_name_H-M	'P1'
_symmetry_Int_Tables_number	1
_symmetry_cell_setting	triclinic
loop_
_symmetry_equiv_pos_as_xyz
  x,y,z
_cell_length_a	13.596369
_cell_length_b	14.519731
_cell_length_c	8.559648
_cell_angle_alpha	76.733759
_cell_angle_beta	90.010964
_cell_angle_gamma	89.992959
loop_
_atom_site_label
_atom_site_type_symbol
_atom_site_fract_x
_atom_site_fract_y
_atom_site_fract_z
O1	O	0.081789	-1.208816	-0.209563
O2	O	0.415122	-0.875483	0.123771
O3	O	0.748455	-0.542150	0.457104
O4	O	0.081782	-0.938574	-0.234188
O5	O	0.415115	-0.605241	0.099145
O6	O	0.748448	-0.271908	0.432479
O7	O	0.081810	-1.097504	0.010655
O8	O	0.415143	-0.764171	0.343989
O9	O	0.748477	-0.430837	0.677322
O10	O	0.081760	-1.049887	-0.454406
O11	O	0.415094	-0.716554	-0.121073
O12	O	0.748427	-0.383220	0.212260
O13	O	-0.081773	-1.097485	0.010642
O14	O	0.251560	-0.764152	0.343975
O15	O	0.584894	-0.430819	0.677308
O16	O	-0.081801	-0.938556	-0.234202
O17	O	0.251532	-0.605223	0.099132
O18	O	0.584866	-0.271889	0.432465
O19	O	-0.081794	-1.208798	-0.209576
O20	O	0.251539	-0.875465	0.123757
O21	O	0.584872	-0.542131	0.457090
Zn22	Zn	-0.107770	-1.073674	-0.221891
Zn23	Zn	0.225563	-0.740341	0.111442
Zn24	Zn	0.558897	-0.407007	0.444776
Zn25	Zn	0.107758	-1.073698	-0.221873
Zn26	Zn	0.441091	-0.740365	0.111460
Zn27	Zn	0.774424	-0.407032	0.444793
O28	O	-0.081822	-1.049868	-0.454420
O29	O	0.251511	-0.716535	-0.121086
O30	O	0.584844	-0.383202	0.212247
C31	C	-0.000010	-0.904289	-0.233041
C32	C	0.333323	-0.570955	0.100292
C33	C	0.666657	-0.237622	0.433626
C34	C	-0.000011	-0.802157	-0.229583
C35	C	0.333322	-0.468823	0.103750
C36	C	0.666656	-0.135490	0.437083
N37	N	-0.254862	-1.073664	-0.221902
N38	N	0.078471	-0.740331	0.111431
N39	N	0.411805	-0.406998	0.444764
C40	C	0.000027	-1.101103	0.070168
C41	C	0.333360	-0.767770	0.403501
C42	C	0.666694	-0.434437	0.736834
C43	C	0.000052	-1.111845	0.247516
C44	C	0.333385	-0.778511	0.580849
C45	C	0.666719	-0.445178	0.914182
C46	C	-0.343860	-1.073669	-0.221906
C47	C	-0.010526	-0.740335	0.111427
C48	C	0.322807	-0.407002	0.444761
C49	C	-0.455511	-1.073678	-0.221895
C50	C	-0.122178	-0.740345	0.111438
C51	C	0.211156	-0.407012	0.444772
C52	C	-0.544502	-1.073692	-0.221877
C53	C	-0.211168	-0.740358	0.111456
C54	C	0.122165	-0.407025	0.444790
C55	C	-0.656160	-1.073703	-0.221867
C56	C	-0.322827	-0.740370	0.111466
C57	C	0.010507	-0.407036	0.444799
N58	N	0.254849	-1.073716	-0.221849
N59	N	0.588183	-0.740383	0.111484
N60	N	0.921516	-0.407050	0.444817
C61	C	-0.000008	-0.719214	-0.226774
C62	C	0.333325	-0.385881	0.106559
C63	C	0.666658	-0.052547	0.439893
C64	C	-0.000010	-0.615157	-0.223263
C65	C	0.333324	-0.281824	0.110070
C66	C	0.666657	0.051509	0.443403
C67	C	-0.000011	-0.532218	-0.220477
C68	C	0.333322	-0.198885	0.112856
C69	C	0.666656	0.134448	0.446189
C70	C	-0.000010	-0.428155	-0.216967
C71	C	0.333323	-0.094821	0.116366
C72	C	0.666656	0.238512	0.449700
C73	C	-0.000005	-0.243084	-0.210723
C74	C	0.333328	0.090250	0.122610
C75	C	0.666662	0.423583	0.455943
C76	C	-0.000012	-0.345216	-0.214181
C77	C	0.333322	-0.011882	0.119152
C78	C	0.666655	0.321451	0.452486
C79	C	-0.000010	-1.046269	0.486068
C80	C	0.333324	-0.712936	0.819401
C81	C	0.666657	-0.379602	1.152735
C82	C	0.000053	-1.035528	0.308720
C83	C	0.333387	-0.702194	0.642053
C84	C	0.666720	-0.368861	0.975387
H85	H	0.000040	-0.961972	0.225443
H86	H	0.333373	-0.628639	0.558776
H87	H	0.666707	-0.295306	0.892110
Br88	Br	0.000051	-1.234453	0.386318
Br89	Br	0.333385	-0.901120	0.719651
Br90	Br	0.666718	-0.567787	1.052985
