data_functionalizedCrystal
_audit_creation_method	'MofGen! by Chris Wilmer'
_symmetry_space_group_name_H-M	'P1'
_symmetry_Int_Tables_number	1
_symmetry_cell_setting	triclinic
loop_
_symmetry_equiv_pos_as_xyz
  x,y,z
_cell_length_a	10.868271
_cell_length_b	8.559649
_cell_length_c	8.559649
_cell_angle_alpha	69.778664
_cell_angle_beta	90.003424
_cell_angle_gamma	90.000625
loop_
_atom_site_label
_atom_site_type_symbol
_atom_site_fract_x
_atom_site_fract_y
_atom_site_fract_z
O1	O	-0.102303	-2.126872	0.055031
O2	O	0.397697	-1.626872	0.555031
O3	O	-0.102308	-1.651387	-0.028750
O4	O	0.397692	-1.151387	0.471250
O5	O	-0.102304	-1.931020	0.250883
O6	O	0.397696	-1.431020	0.750883
O7	O	-0.102307	-1.847239	-0.224602
O8	O	0.397693	-1.347239	0.275398
O9	O	0.102341	-1.931019	0.250896
O10	O	0.602341	-1.431019	0.750896
O11	O	0.102337	-1.651386	-0.028737
O12	O	0.602337	-1.151386	0.471263
O13	O	0.102342	-2.126871	0.055044
O14	O	0.602342	-1.626871	0.555044
Zn15	Zn	0.134831	-1.889128	0.013156
Zn16	Zn	0.634831	-1.389128	0.513156
Zn17	Zn	-0.134797	-1.889130	0.013138
Zn18	Zn	0.365203	-1.389130	0.513138
O19	O	0.102338	-1.847238	-0.224589
O20	O	0.602338	-1.347238	0.275411
C21	C	0.000014	-1.591077	-0.035093
C22	C	0.500014	-1.091077	0.464907
C23	C	0.000012	-1.411378	-0.053992
C24	C	0.500012	-0.911378	0.446008
N25	N	-0.318811	-1.889133	0.013138
N26	N	0.181189	-1.389133	0.513138
C27	C	0.000016	-1.937369	0.311198
C28	C	0.500016	-1.437369	0.811198
C29	C	0.000010	-1.956268	0.490898
C30	C	0.500010	-1.456268	0.990898
C31	C	-0.569817	-1.889130	0.013148
C32	C	-0.069817	-1.389130	0.513148
C33	C	-0.430140	-1.889126	0.013137
C34	C	0.069860	-1.389126	0.513137
N35	N	0.318845	-1.889139	0.013170
N36	N	0.818845	-1.389139	0.513170
C37	C	0.000017	-2.187180	0.061387
C38	C	0.500017	-1.687180	0.561387
C39	C	0.000011	-2.366879	0.080286
C40	C	0.500011	-1.866879	0.580286
C41	C	0.000015	-1.840889	-0.284904
C42	C	0.500015	-1.340889	0.215096
C43	C	0.000013	-1.821990	-0.464604
C44	C	0.500013	-1.321990	0.035396
H45	H	0.000004	-1.311990	-0.183420
H46	H	0.500004	-0.811990	0.316580
H47	H	0.000006	-1.466258	0.209705
H48	H	0.500006	-0.966258	0.709705
H49	H	0.000016	-1.692570	0.436018
H50	H	0.500016	-1.192570	0.936018
H51	H	0.000021	-2.085696	0.590286
H52	H	0.500021	-1.585696	1.090286
