data_functionalizedCrystal
_audit_creation_method	'MofGen! by Chris Wilmer'
_symmetry_space_group_name_H-M	'P1'
_symmetry_Int_Tables_number	1
_symmetry_cell_setting	triclinic
loop_
_symmetry_equiv_pos_as_xyz
  x,y,z
_cell_length_a	21.395362
_cell_length_b	11.169416
_cell_length_c	21.395356
_cell_angle_alpha	90.020097
_cell_angle_beta	90.042977
_cell_angle_gamma	90.026221
loop_
_atom_site_label
_atom_site_type_symbol
_atom_site_fract_x
_atom_site_fract_y
_atom_site_fract_z
Zn1	Zn	0.957942	-0.477329	0.354619
Zn2	Zn	1.291276	-0.143995	0.687952
Zn3	Zn	1.624609	0.189338	1.021285
Zn4	Zn	0.957884	-0.678032	0.249855
Zn5	Zn	1.291217	-0.344698	0.583188
Zn6	Zn	1.624550	-0.011365	0.916522
Zn7	Zn	0.853159	-0.477417	0.249820
Zn8	Zn	1.186492	-0.144083	0.583153
Zn9	Zn	1.519826	0.189250	0.916487
Zn10	Zn	0.853164	-0.678024	0.354560
Zn11	Zn	1.186497	-0.344691	0.687893
Zn12	Zn	1.519830	-0.011357	1.021226
O13	O	0.905537	-0.577700	0.302213
O14	O	1.238870	-0.244367	0.635547
O15	O	1.572204	0.088966	0.968880
O16	O	1.045612	-0.503919	0.340761
O17	O	1.378946	-0.170585	0.674094
O18	O	1.712279	0.162748	1.007428
O19	O	0.943965	-0.651459	0.162172
O20	O	1.277299	-0.318126	0.495506
O21	O	1.610632	0.015207	0.828839
O22	O	0.867081	-0.309455	0.263732
O23	O	1.200414	0.023878	0.597065
O24	O	1.533748	0.357211	0.930398
O25	O	1.045569	-0.651374	0.263792
O26	O	1.378903	-0.318041	0.597125
O27	O	1.712236	0.015293	0.930458
O28	O	0.944065	-0.309391	0.340727
O29	O	1.277398	0.023943	0.674060
O30	O	1.610732	0.357276	1.007393
O31	O	0.867024	-0.504069	0.162147
O32	O	1.200358	-0.170735	0.495480
O33	O	1.533691	0.162598	0.828813
O34	O	0.765482	-0.504061	0.263675
O35	O	1.098815	-0.170728	0.597008
O36	O	1.432148	0.162605	0.930341
O37	O	0.867089	-0.651362	0.442246
O38	O	1.200422	-0.318028	0.775579
O39	O	1.533756	0.015305	1.108912
O40	O	0.765485	-0.651447	0.340626
O41	O	1.098818	-0.318114	0.673960
O42	O	1.432152	0.015220	1.007293
O43	O	0.944070	-0.503911	0.442289
O44	O	1.277403	-0.170578	0.775622
O45	O	1.610736	0.162755	1.108955
O46	O	0.943970	-0.845980	0.263734
O47	O	1.277303	-0.512647	0.597068
O48	O	1.610636	-0.179314	0.930401
O49	O	0.867032	-0.845975	0.340661
O50	O	1.200366	-0.512641	0.673994
O51	O	1.533699	-0.179308	1.007327
C52	C	0.742749	-0.577764	0.302141
C53	C	1.076083	-0.244430	0.635474
C54	C	1.409416	0.088903	0.968807
C55	C	0.673108	-0.577820	0.302124
C56	C	1.006441	-0.244487	0.635458
C57	C	1.339775	0.088847	0.968791
C58	C	0.640413	-0.654665	0.342133
C59	C	0.973747	-0.321332	0.675467
C60	C	1.307080	0.012002	1.008800
C61	C	0.574978	-0.654636	0.342161
C62	C	0.908311	-0.321302	0.675495
C63	C	1.241644	0.012031	1.008828
C64	C	0.542240	-0.577774	0.302169
C65	C	0.875573	-0.244440	0.635502
C66	C	1.208907	0.088893	0.968836
C67	C	0.574943	-0.500913	0.262157
C68	C	0.908276	-0.167580	0.595491
C69	C	1.241609	0.165753	0.928824
C70	C	0.640377	-0.500937	0.262135
C71	C	0.973710	-0.167603	0.595468
C72	C	1.307043	0.165730	0.928802
C73	C	0.438514	-0.568122	0.245763
C74	C	0.771848	-0.234789	0.579097
C75	C	1.105181	0.098544	0.912430
C76	C	0.373081	-0.568108	0.245784
C77	C	0.706415	-0.234774	0.579118
C78	C	1.039748	0.098559	0.912451
C79	C	0.340419	-0.577695	0.302238
C80	C	0.673752	-0.244362	0.635572
C81	C	1.007086	0.088971	0.968905
C82	C	0.373198	-0.587323	0.358673
C83	C	0.706531	-0.253990	0.692006
C84	C	1.039865	0.079344	1.025339
C85	C	0.438632	-0.587346	0.358650
C86	C	0.771965	-0.254013	0.691984
C87	C	1.105299	0.079321	1.025317
C88	C	0.471287	-0.577739	0.302189
C89	C	0.804621	-0.244406	0.635522
C90	C	1.137954	0.088927	0.968856
C91	C	0.236772	-0.654513	0.342281
C92	C	0.570105	-0.321179	0.675614
C93	C	0.903438	0.012154	1.008947
C94	C	0.171335	-0.654475	0.342310
C95	C	0.504668	-0.321142	0.675643
C96	C	0.838002	0.012192	1.008976
C97	C	0.171301	-0.500759	0.262300
C98	C	0.504635	-0.167426	0.595634
C99	C	0.837968	0.165908	0.928967
C100	C	0.236737	-0.500790	0.262277
C101	C	0.570070	-0.167457	0.595610
C102	C	0.903403	0.165876	0.928944
C103	C	0.269468	-0.577674	0.302266
C104	C	0.602801	-0.244340	0.635600
C105	C	0.936135	0.088993	0.968933
C106	C	0.905512	-0.889525	0.302209
C107	C	1.238846	-0.556192	0.635542
C108	C	1.572179	-0.222858	0.968875
C109	C	0.905559	-1.022925	0.302228
C110	C	1.238892	-0.689592	0.635561
C111	C	1.572226	-0.356258	0.968894
C112	C	1.068960	-0.577637	0.302287
C113	C	1.402294	-0.244304	0.635620
C114	C	1.735627	0.089029	0.968953
C115	C	1.138602	-0.577611	0.302318
C116	C	1.471935	-0.244277	0.635651
C117	C	1.805268	0.089056	0.968985
C118	C	0.905586	-0.577626	0.465637
C119	C	1.238920	-0.244293	0.798970
C120	C	1.572253	0.089041	1.132303
C121	C	0.905607	-0.577594	0.535278
C122	C	1.238941	-0.244261	0.868611
C123	C	1.572274	0.089073	1.201945
C124	C	0.905579	-0.264658	0.302232
C125	C	1.238912	0.068675	0.635565
C126	C	1.572246	0.402009	0.968899
C127	C	0.905597	-0.131258	0.302240
C128	C	1.238930	0.202075	0.635573
C129	C	1.572264	0.535409	0.968906
C130	C	0.905524	-0.577688	0.139426
C131	C	1.238857	-0.244354	0.472759
C132	C	1.572191	0.088979	0.806092
C133	C	0.905624	-0.577381	0.069785
C134	C	1.238958	-0.244048	0.403118
C135	C	1.572291	0.089285	0.736452
C136	C	0.865555	-0.500839	0.567968
C137	C	1.198888	-0.167506	0.901301
C138	C	1.532222	0.165828	1.234635
C139	C	0.865553	-0.500817	0.633403
C140	C	1.198886	-0.167484	0.966737
C141	C	1.532219	0.165850	1.300070
C142	C	0.905614	-0.577537	0.666146
C143	C	1.238948	-0.244204	0.999480
C144	C	1.572281	0.089130	1.332813
C145	C	0.945669	-0.654307	0.633449
C146	C	1.279003	-0.320974	0.966782
C147	C	1.612336	0.012360	1.300115
C148	C	0.945666	-0.654336	0.568014
C149	C	1.278999	-0.321002	0.901348
C150	C	1.612333	0.012331	1.234681
C151	C	0.962068	-0.586943	0.769852
C152	C	1.295401	-0.253610	1.103186
C153	C	1.628735	0.079724	1.436519
C154	C	0.962073	-0.586906	0.835285
C155	C	1.295406	-0.253573	1.168619
C156	C	1.628739	0.079761	1.501952
C157	C	0.905625	-0.577456	0.867967
C158	C	1.238958	-0.244123	1.201301
C159	C	1.572291	0.089211	1.534634
C160	C	0.849170	-0.568018	0.835208
C161	C	1.182504	-0.234685	1.168541
C162	C	1.515837	0.098649	1.501875
C163	C	0.849167	-0.568046	0.769774
C164	C	1.182500	-0.234713	1.103107
C165	C	1.515834	0.098620	1.436440
C166	C	0.905622	-0.577515	0.737099
C167	C	1.238956	-0.244182	1.070432
C168	C	1.572289	0.089151	1.403765
C169	C	0.865566	-0.500673	0.971610
C170	C	1.198900	-0.167339	1.304943
C171	C	1.532233	0.165994	1.638276
C172	C	0.865563	-0.500659	1.037046
C173	C	1.198897	-0.167326	1.370380
C174	C	1.532230	0.166008	1.703713
C175	C	0.945686	-0.654143	1.037090
C176	C	1.279019	-0.320809	1.370424
C177	C	1.612352	0.012524	1.703757
C178	C	0.945683	-0.654163	0.971655
C179	C	1.279016	-0.320830	1.304988
C180	C	1.612350	0.012504	1.638322
C181	C	0.905624	-0.577422	0.938919
C182	C	1.238958	-0.244088	1.272252
C183	C	1.572291	0.089245	1.605585
H184	H	0.144647	-0.438171	0.229741
H185	H	0.477980	-0.104837	0.563074
H186	H	0.811313	0.228496	0.896408
Cl187	Cl	1.033042	-0.598784	0.876462
Cl188	Cl	1.366375	-0.265451	1.209795
Cl189	Cl	1.699708	0.067882	1.543128
Cl190	Cl	0.815211	-0.404291	0.674508
Cl191	Cl	1.148545	-0.070958	1.007841
Cl192	Cl	1.481878	0.262376	1.341174
Cl193	Cl	0.815192	-0.404370	0.526817
Cl194	Cl	1.148526	-0.071037	0.860150
Cl195	Cl	1.481859	0.262296	1.193483
Cl196	Cl	0.681481	-0.404323	0.211834
Cl197	Cl	1.014815	-0.070990	0.545167
Cl198	Cl	1.348148	0.262344	0.878500
Cl199	Cl	0.681558	-0.751313	0.392408
Cl200	Cl	1.014891	-0.417980	0.725742
Cl201	Cl	1.348224	-0.084646	1.059075
H202	H	0.978306	-0.716607	1.063749
H203	H	1.311639	-0.383274	1.397083
H204	H	1.644972	-0.049941	1.730416
Cl205	Cl	0.533867	-0.751249	0.392462
Cl206	Cl	0.867200	-0.417916	0.725795
Cl207	Cl	1.200534	-0.084582	1.059128
H208	H	0.346398	-0.560276	0.199832
H209	H	0.679731	-0.226942	0.533166
H210	H	1.013064	0.106391	0.866499
H211	H	0.263357	-0.438221	0.229694
H212	H	0.596690	-0.104887	0.563028
H213	H	0.930024	0.228446	0.896361
Cl214	Cl	0.479568	-0.556073	0.174785
Cl215	Cl	0.812902	-0.222740	0.508119
Cl216	Cl	1.146235	0.110594	0.841452
Cl217	Cl	0.778199	-0.556190	0.728593
Cl218	Cl	1.111533	-0.222857	1.061926
Cl219	Cl	1.444866	0.110476	1.395260
Cl220	Cl	0.996042	-0.750652	0.930557
Cl221	Cl	1.329375	-0.417319	1.263890
Cl222	Cl	1.662709	-0.083986	1.597224
Cl223	Cl	1.033038	-0.598833	0.728774
Cl224	Cl	1.366371	-0.265499	1.062107
Cl225	Cl	1.699705	0.067834	1.395440
Cl226	Cl	0.815189	-0.404192	1.078143
Cl227	Cl	1.148522	-0.070858	1.411476
Cl228	Cl	1.481856	0.262475	1.744809
H229	H	0.803205	-0.560315	0.861816
H230	H	1.136539	-0.226981	1.195149
H231	H	1.469872	0.106352	1.528483
H232	H	0.978288	-0.716773	0.660112
H233	H	1.311621	-0.383440	0.993446
H234	H	1.644954	-0.050107	1.326779
H235	H	0.263423	-0.717110	0.374846
H236	H	0.596756	-0.383776	0.708179
H237	H	0.930090	-0.050443	1.041512
Cl238	Cl	0.130232	-0.751083	0.392615
Cl239	Cl	0.463566	-0.417750	0.725948
Cl240	Cl	0.796899	-0.084416	1.059282
H241	H	0.978284	-0.716838	0.541399
H242	H	1.311618	-0.383504	0.874732
H243	H	1.644951	-0.050171	1.208065
H244	H	0.832948	-0.438186	0.944954
H245	H	1.166281	-0.104853	1.278288
H246	H	1.499615	0.228480	1.611621
H247	H	0.465318	-0.595182	0.404601
H248	H	0.798651	-0.261848	0.737934
H249	H	1.131985	0.071485	1.071268
H250	H	0.346606	-0.595128	0.404643
H251	H	0.679939	-0.261795	0.737976
H252	H	1.013273	0.071539	1.071310
Cl253	Cl	0.533787	-0.404281	0.211885
Cl254	Cl	0.867121	-0.070947	0.545218
Cl255	Cl	1.200454	0.262386	0.878551
