data_functionalizedCrystal
_audit_creation_method	'MofGen! by Chris Wilmer'
_symmetry_space_group_name_H-M	'P1'
_symmetry_Int_Tables_number	1
_symmetry_cell_setting	triclinic
loop_
_symmetry_equiv_pos_as_xyz
  x,y,z
_cell_length_a	14.519709
_cell_length_b	17.666332
_cell_length_c	14.519731
_cell_angle_alpha	90.007449
_cell_angle_beta	83.684499
_cell_angle_gamma	90.003734
loop_
_atom_site_label
_atom_site_type_symbol
_atom_site_fract_x
_atom_site_fract_y
_atom_site_fract_z
O1	O	1.223883	0.062851	0.120892
O2	O	0.955407	0.062875	0.135128
O3	O	1.096753	0.062856	-0.006227
O4	O	1.082537	0.062871	0.262247
O5	O	1.096728	-0.063041	-0.006235
O6	O	0.955382	-0.063022	0.135120
O7	O	1.223858	-0.063045	0.120884
Cu8	Cu	1.089618	-0.074529	0.128002
Cu9	Cu	1.089647	0.074359	0.128010
O10	O	1.082512	-0.063026	0.262239
C11	C	0.921035	-0.000071	0.134461
C12	C	0.818654	-0.000062	0.132473
N13	N	1.089604	-0.179248	0.127995
C14	C	0.443757	-0.000097	0.125153
C15	C	0.548065	-0.000087	0.127186
C16	C	0.631202	-0.000079	0.128813
C17	C	0.735517	-0.000070	0.130846
C18	C	1.152212	-0.218867	0.065433
C19	C	1.152218	-0.298114	0.065429
C20	C	1.089624	-0.337741	0.128002
C21	C	1.027003	-0.298113	0.190568
C22	C	1.026994	-0.218867	0.190564
N23	N	1.078025	-0.462154	0.209585
N24	N	1.078040	-0.537434	0.209585
C25	C	1.089648	-0.576505	0.128015
N26	N	1.101259	-0.537450	0.046441
N27	N	1.101249	-0.462163	0.046442
C28	C	1.089627	-0.423670	0.128012
C29	C	1.152266	-0.702052	0.065443
C30	C	1.152264	-0.781301	0.065438
C31	C	1.027055	-0.781298	0.190585
C32	C	1.027051	-0.702051	0.190582
C33	C	1.089662	-0.662432	0.128013
C34	C	1.258230	-0.000098	0.121551
C35	C	1.360612	-0.000102	0.123539
C36	C	1.096075	-0.000093	-0.040591
C37	C	1.094079	-0.000093	-0.142971
N38	N	1.089669	0.179078	0.128010
C39	C	1.092457	-0.000091	-0.226115
C40	C	1.090430	-0.000085	-0.330424
C41	C	1.088822	-0.000080	-0.413563
C42	C	1.086795	-0.000076	-0.517878
C43	C	1.083191	-0.000076	0.296603
C44	C	1.085187	-0.000071	0.398983
H45	H	1.203191	-0.186612	0.014483
H46	H	1.203245	-0.813559	0.014488
H47	H	0.976009	-0.186609	0.241510
Cl48	Cl	0.948345	-0.652240	0.269240
Cl49	Cl	1.230970	-0.652245	-0.013220
H50	H	0.976086	-0.813561	0.241529
H51	H	0.976037	-0.330380	0.241514
Cl52	Cl	1.230933	-0.347928	-0.013226
