data_functionalizedCrystal
_audit_creation_method	'MofGen! by Chris Wilmer'
_symmetry_space_group_name_H-M	'P1'
_symmetry_Int_Tables_number	1
_symmetry_cell_setting	triclinic
loop_
_symmetry_equiv_pos_as_xyz
  x,y,z
_cell_length_a	27.732048
_cell_length_b	14.472311
_cell_length_c	15.995350
_cell_angle_alpha	89.990778
_cell_angle_beta	96.932485
_cell_angle_gamma	89.988354
loop_
_atom_site_label
_atom_site_type_symbol
_atom_site_fract_x
_atom_site_fract_y
_atom_site_fract_z
O1	O	0.641349	0.076718	-0.099638
O2	O	1.141349	0.576718	0.400362
O3	O	0.500621	0.076745	-0.114786
O4	O	1.000621	0.576745	0.385214
O5	O	0.574831	0.076730	0.014726
O6	O	1.074831	0.576730	0.514726
O7	O	0.567138	0.076733	-0.229149
O8	O	1.067138	0.576733	0.270851
O9	O	0.574841	-0.076952	0.014749
O10	O	1.074841	0.423048	0.514749
O11	O	0.500630	-0.076937	-0.114763
O12	O	1.000630	0.423063	0.385237
O13	O	0.641359	-0.076964	-0.099614
O14	O	1.141359	0.423036	0.400386
Cu15	Cu	0.570995	-0.090983	-0.107186
Cu16	Cu	1.070995	0.409017	0.392814
Cu17	Cu	0.570984	0.090764	-0.107214
Cu18	Cu	1.070984	0.590764	0.392786
O19	O	0.567148	-0.076949	-0.229126
O20	O	1.067148	0.423051	0.270874
C21	C	0.482617	-0.000092	-0.114456
C22	C	0.982617	0.499908	0.385544
C23	C	0.428958	-0.000082	-0.113499
C24	C	0.928958	0.499918	0.386501
N25	N	0.570976	0.218595	-0.107227
N26	N	1.070976	0.718595	0.392773
C27	C	0.574518	-0.000109	0.045928
C28	C	1.074518	0.499891	0.545928
C29	C	0.573565	-0.000104	0.138866
C30	C	1.073565	0.499896	0.638866
C31	C	0.090447	-0.000121	-0.184004
C32	C	0.590447	0.499879	0.315996
C33	C	-0.111228	-0.000129	-0.180451
C34	C	0.388772	0.499871	0.319549
O35	O	-0.142205	-0.000168	-0.244923
O36	O	0.357795	0.499832	0.255077
N37	N	-0.130683	-0.000128	-0.103656
N38	N	0.369317	0.499872	0.396344
C39	C	-0.099715	-0.000132	-0.027744
C40	C	0.400285	0.499868	0.472256
O41	O	-0.120891	-0.000141	0.037657
O42	O	0.379109	0.499859	0.537657
C43	C	0.101959	-0.000130	-0.031297
C44	C	0.601959	0.499870	0.468703
C45	C	0.121410	-0.000121	-0.108097
C46	C	0.621410	0.499879	0.391903
C47	C	0.109900	-0.000113	-0.260797
C48	C	0.609900	0.499887	0.239203
C49	C	0.160315	-0.000106	-0.261685
C50	C	0.660315	0.499894	0.238315
C51	C	0.191279	-0.000107	-0.185778
C52	C	0.691279	0.499893	0.314222
C53	C	0.171826	-0.000114	-0.108985
C54	C	0.671826	0.499886	0.391015
C55	C	0.132925	-0.000140	0.044614
C56	C	0.632925	0.499860	0.544614
C57	C	0.183346	-0.000142	0.043719
C58	C	0.683346	0.499858	0.543719
C59	C	0.202798	-0.000133	-0.033081
C60	C	0.702798	0.499867	0.466919
C61	C	0.253205	-0.000108	-0.033965
C62	C	0.753205	0.499892	0.466035
N63	N	0.272660	-0.000108	-0.110760
N64	N	0.772660	0.499892	0.389240
C65	C	0.241697	-0.000108	-0.186667
C66	C	0.741697	0.499892	0.313333
C67	C	-0.205598	-0.000131	-0.025883
C68	C	0.294402	0.499869	0.474117
C69	C	-0.256016	-0.000130	-0.024995
C70	C	0.243984	0.499870	0.475005
C71	C	-0.267525	-0.000129	-0.177703
C72	C	0.232475	0.499871	0.322297
C73	C	-0.217106	-0.000123	-0.178590
C74	C	0.282894	0.499877	0.321410
C75	C	-0.186143	-0.000132	-0.102679
C76	C	0.313857	0.499868	0.397321
C77	C	0.347574	-0.000092	-0.188525
C78	C	0.847574	0.499908	0.311475
C79	C	0.397995	-0.000081	-0.189405
C80	C	0.897995	0.499919	0.310595
C81	C	0.409499	-0.000087	-0.036698
C82	C	0.909499	0.499913	0.463302
C83	C	0.359083	-0.000093	-0.035817
C84	C	0.859083	0.499907	0.464183
C85	C	0.328121	-0.000099	-0.111737
C86	C	0.828121	0.499901	0.388263
O87	O	0.284211	-0.000079	0.030472
O88	O	0.784211	0.499921	0.530472
O89	O	0.262881	-0.000119	-0.252058
O90	O	0.762881	0.499881	0.247942
C91	C	0.040031	-0.000128	-0.183116
C92	C	0.540031	0.499872	0.316884
C93	C	0.020579	-0.000136	-0.106323
C94	C	0.520579	0.499864	0.393677
C95	C	0.051542	-0.000136	-0.030416
C96	C	0.551542	0.499864	0.469584
C97	C	-0.029839	-0.000134	-0.105434
C98	C	0.470161	0.499866	0.394566
C99	C	-0.060803	-0.000134	-0.181340
C100	C	0.439197	0.499866	0.318660
C101	C	-0.041348	-0.000134	-0.258135
C102	C	0.458652	0.499866	0.241865
C103	C	0.009068	-0.000127	-0.259023
C104	C	0.509068	0.499873	0.240977
C105	C	0.032087	-0.000136	0.046379
C106	C	0.532087	0.499864	0.546379
C107	C	-0.018329	-0.000142	0.047260
C108	C	0.481671	0.499858	0.547260
C109	C	-0.049292	-0.000141	-0.028646
C110	C	0.450708	0.499859	0.471354
C111	C	0.659362	-0.000125	-0.099944
C112	C	1.159362	0.499875	0.400056
C113	C	0.713021	-0.000129	-0.100901
C114	C	1.213021	0.499871	0.399099
N115	N	0.571007	-0.218814	-0.107166
N116	N	1.071007	0.281186	0.392834
C117	C	0.570997	0.592686	-0.107186
C118	C	1.070997	1.092686	0.392814
C119	C	0.531330	0.553528	-0.176559
C120	C	1.031330	1.053528	0.323441
C121	C	0.531183	0.446440	-0.176396
C122	C	1.031183	0.946440	0.323604
C123	C	0.570986	0.407095	-0.107207
C124	C	1.070986	0.907095	0.392793
C125	C	0.560103	0.445950	-0.019912
C126	C	1.060103	0.945950	0.480088
C127	C	0.559824	0.553071	-0.020308
C128	C	1.059824	1.053071	0.479692
C129	C	0.621664	0.553190	-0.124326
C130	C	1.121664	1.053190	0.375674
C131	C	0.621320	0.446062	-0.126328
C132	C	1.121320	0.946062	0.373672
C133	C	0.570981	0.302207	-0.107214
C134	C	1.070981	0.802207	0.392786
C135	C	0.571000	0.697574	-0.107174
C136	C	1.071000	1.197574	0.392826
C137	C	0.567461	-0.000108	-0.260328
C138	C	1.067461	0.499892	0.239672
C139	C	0.568414	-0.000107	-0.353266
C140	C	1.068414	0.499893	0.146734
C141	C	0.570140	-0.000106	0.476569
C142	C	1.070140	0.499894	0.976569
C143	C	0.517288	0.000249	0.428451
C144	C	1.017288	0.500249	0.928451
C145	C	0.518242	-0.000098	0.331773
C146	C	1.018242	0.499902	0.831773
C147	C	0.571839	-0.000105	0.309031
C148	C	1.071839	0.499895	0.809031
C149	C	0.597913	-0.087868	0.350459
C150	C	1.097913	0.412132	0.850459
C151	C	0.596585	-0.087941	0.447077
C152	C	1.096585	0.412059	0.947077
C153	C	0.597666	0.086824	0.447423
C154	C	1.097666	0.586824	0.947423
C155	C	0.597653	0.087984	0.350477
C156	C	1.097653	0.587984	0.850477
C157	C	0.572802	-0.000107	0.214346
C158	C	1.072802	0.499893	0.714346
C159	C	0.569179	-0.000110	0.571255
C160	C	1.069179	0.499890	1.071255
H161	H	0.413829	-0.000073	-0.251948
H162	H	0.913829	0.499927	0.248052
H163	H	0.587623	0.578972	0.032843
H164	H	1.087623	1.078972	0.532843
H165	H	0.322370	-0.000100	-0.250346
H166	H	0.822370	0.499900	0.249654
H167	H	0.522877	0.578066	-0.005138
H168	H	1.022877	1.078066	0.494862
H169	H	0.523578	0.419124	-0.004362
H170	H	1.023578	0.919124	0.495638
H171	H	0.578590	0.152909	0.322972
H172	H	1.078590	0.652909	0.822972
H173	H	0.497617	-0.063110	0.303651
H174	H	0.997617	0.436890	0.803651
H175	H	-0.292744	-0.000128	-0.239509
H176	H	0.207256	0.499872	0.260491
H177	H	-0.271849	-0.000122	0.037543
H178	H	0.228151	0.499878	0.537543
H179	H	0.632155	0.580221	-0.186591
H180	H	1.132155	1.080221	0.313409
H181	H	-0.066567	-0.000130	-0.319941
H182	H	0.433433	0.499870	0.180059
H183	H	0.636738	0.093278	0.335620
H184	H	1.136738	0.593278	0.835620
H185	H	0.636633	0.087409	0.479688
H186	H	1.136633	0.587409	0.979688
H187	H	0.496160	0.063186	0.446700
H188	H	0.996160	0.563186	0.946700
H189	H	-0.180391	-0.000138	0.035937
H190	H	0.319609	0.499862	0.535937
H191	H	0.577580	-0.153541	0.465143
H192	H	1.077580	0.346459	0.965143
H193	H	0.637289	-0.091136	0.336843
H194	H	1.137289	0.408864	0.836843
H195	H	0.537646	0.420172	-0.241299
H196	H	1.037646	0.920172	0.258701
H197	H	0.580382	0.153343	0.467729
H198	H	1.080382	0.653343	0.967729
H199	H	0.176148	-0.000099	-0.324223
H200	H	0.676148	0.499901	0.175777
H201	H	0.434719	-0.000084	0.025103
H202	H	0.934719	0.499916	0.525103
H203	H	0.208554	-0.000149	0.105537
H204	H	0.708554	0.499851	0.605537
H205	H	0.117096	-0.000148	0.107153
H206	H	0.617096	0.499852	0.607153
H207	H	0.579811	-0.153174	0.321853
H208	H	1.079811	0.346826	0.821853
H209	H	0.629577	0.420684	-0.190550
H210	H	1.129577	0.920684	0.309450
H211	H	-0.034161	-0.000141	0.109804
H212	H	0.465839	0.499859	0.609804
H213	H	0.588229	0.420461	0.032929
H214	H	1.088229	0.920461	0.532929
H215	H	0.652209	0.419277	-0.079049
H216	H	1.152209	0.919277	0.420951
H217	H	0.635388	-0.091928	0.479828
H218	H	1.135388	0.408072	0.979828
H219	H	0.057293	-0.000138	0.108193
H220	H	0.557293	0.499862	0.608193
H221	H	0.496262	-0.062330	0.447783
H222	H	0.996262	0.437670	0.947783
H223	H	0.084694	-0.000116	-0.322613
H224	H	0.584694	0.499884	0.177387
H225	H	0.024901	-0.000122	-0.321561
H226	H	0.524901	0.499878	0.178439
H227	H	0.343245	-0.000087	0.026720
H228	H	0.843245	0.499913	0.526720
H229	H	0.537688	0.579306	-0.241675
H230	H	1.037688	1.079306	0.258325
H231	H	-0.201272	-0.000121	-0.241128
H232	H	0.298728	0.499879	0.258872
H233	H	0.493580	0.420825	-0.165495
H234	H	0.993580	0.920825	0.334505
H235	H	0.493940	0.580457	-0.165813
H236	H	0.993940	1.080457	0.334187
H237	H	0.651181	0.578515	-0.073733
H238	H	1.151181	1.078515	0.426267
H239	H	0.497747	0.062815	0.303077
H240	H	0.997747	0.562815	0.803077
