data_functionalizedCrystal
_audit_creation_method	'MofGen! by Chris Wilmer'
_symmetry_space_group_name_H-M	'P1'
_symmetry_Int_Tables_number	1
_symmetry_cell_setting	triclinic
loop_
_symmetry_equiv_pos_as_xyz
  x,y,z
_cell_length_a	13.033409
_cell_length_b	13.031981
_cell_length_c	13.032268
_cell_angle_alpha	89.068348
_cell_angle_beta	105.162573
_cell_angle_gamma	90.920217
loop_
_atom_site_label
_atom_site_type_symbol
_atom_site_fract_x
_atom_site_fract_y
_atom_site_fract_z
Zn1	Zn	1.474940	-0.644045	-0.321287
Zn2	Zn	1.480419	-0.794830	-0.126685
Zn3	Zn	1.324196	-0.605824	-0.170605
Zn4	Zn	1.280341	-0.794792	-0.326840
O5	O	1.389974	-0.709873	-0.236354
O6	O	1.622488	-0.680058	-0.274768
O7	O	1.480342	-0.753778	0.014316
O8	O	1.360253	-0.468707	-0.206650
O9	O	1.626513	-0.790839	-0.131794
O10	O	1.471004	-0.496787	-0.317355
O11	O	1.365565	-0.614916	-0.017952
O12	O	1.171557	-0.614880	-0.212035
O13	O	1.285509	-0.790775	-0.472930
O14	O	1.139338	-0.753713	-0.326820
O15	O	1.428480	-0.680022	-0.468850
O16	O	1.437818	-0.937012	-0.137179
O17	O	1.290821	-0.936984	-0.284233
C18	C	1.117378	-0.680146	-0.274796
C19	C	1.000755	-0.667455	-0.291264
C20	C	0.830236	-0.703389	-0.244799
C21	C	0.950773	-0.716508	-0.227773
C22	C	1.360181	-0.973871	-0.206561
C23	C	1.347526	-1.086825	-0.193837
C24	C	1.396631	-1.150997	-0.243008
C25	C	1.383553	-1.267741	-0.229858
C26	C	1.663634	-0.739716	-0.197762
C27	C	1.780251	-0.752434	-0.181317
C28	C	1.351491	-0.739657	-0.510025
C29	C	1.335092	-0.752350	-0.626647
C30	C	1.419909	-0.444849	-0.266282
C31	C	1.432666	-0.331911	-0.279036
C32	C	1.398521	-0.703210	-0.676622
C33	C	1.381573	-0.716327	-0.797158
C34	C	1.428376	-0.680137	0.036252
C35	C	1.445010	-0.667181	0.152870
H36	H	0.783791	-0.651691	-0.311757
H37	H	1.331821	-1.299226	-0.178029
H38	H	1.448351	-1.119509	-0.294845
H39	H	1.314712	-0.768104	-0.843606
H40	H	1.295797	-1.118315	-0.142012
H41	H	1.484388	-1.300427	-0.330876
O42	O	0.835569	-0.814270	-0.101541
C43	C	0.856968	-0.985093	-0.026055
C44	C	0.794254	-0.915182	-0.116477
H45	H	0.823575	-1.066690	-0.038088
H46	H	0.944313	-0.984775	-0.026549
H47	H	0.849401	-0.955543	0.053464
H48	H	0.801735	-0.944681	-0.196042
H49	H	0.706935	-0.915505	-0.115889
O50	O	1.006334	-0.778120	-0.147912
C51	C	1.177113	-0.847452	-0.058201
C52	C	1.114324	-0.777629	-0.148665
H53	H	1.264430	-0.847095	-0.058793
H54	H	1.169610	-0.817958	0.021363
H55	H	1.143757	-0.929063	-0.070249
H56	H	1.147636	-0.696001	-0.136718
H57	H	1.121825	-0.807208	-0.228196
H58	H	1.511860	-0.615389	-0.800686
H59	H	1.268236	-0.804123	-0.673099
O60	O	1.478256	-0.641512	-0.621049
C61	C	1.567785	-0.572107	-0.450262
C62	C	1.477455	-0.642029	-0.513062
H63	H	1.567153	-0.572484	-0.362948
H64	H	1.647403	-0.601498	-0.457719
H65	H	1.555624	-0.490506	-0.483654
H66	H	1.489515	-0.723647	-0.479714
H67	H	1.397870	-0.612551	-0.505607
H68	H	0.954316	-0.615753	-0.358226
