data_functionalizedCrystal
_audit_creation_method	'MofGen! by Chris Wilmer'
_symmetry_space_group_name_H-M	'P1'
_symmetry_Int_Tables_number	1
_symmetry_cell_setting	triclinic
loop_
_symmetry_equiv_pos_as_xyz
  x,y,z
_cell_length_a	19.121063
_cell_length_b	19.121141
_cell_length_c	21.395356
_cell_angle_alpha	92.464120
_cell_angle_beta	92.411537
_cell_angle_gamma	89.873858
loop_
_atom_site_label
_atom_site_type_symbol
_atom_site_fract_x
_atom_site_fract_y
_atom_site_fract_z
Zn1	Zn	-0.324937	-1.059881	-0.406931
Zn2	Zn	0.175063	-0.559881	0.093069
Zn3	Zn	-0.442171	-1.054780	-0.306417
Zn4	Zn	0.057829	-0.554780	0.193583
Zn5	Zn	-0.319944	-0.942635	-0.297518
Zn6	Zn	0.180056	-0.442635	0.202482
Zn7	Zn	-0.437125	-0.937606	-0.406508
Zn8	Zn	0.062875	-0.437606	0.093492
O9	O	-0.381044	-0.998726	-0.354344
O10	O	0.118956	-0.498726	0.145656
O11	O	-0.344689	-1.157310	-0.397499
O12	O	0.155311	-0.657310	0.102501
O13	O	-0.425979	-1.039873	-0.217558
O14	O	0.074021	-0.539873	0.282442
O15	O	-0.222503	-0.962428	-0.308485
O16	O	0.277497	-0.462428	0.191515
O17	O	-0.430820	-1.153562	-0.323651
O18	O	0.069180	-0.653562	0.176349
O19	O	-0.226171	-1.048568	-0.388870
O20	O	0.273829	-0.548568	0.111130
O21	O	-0.336180	-0.957481	-0.211020
O22	O	0.163820	-0.457481	0.288980
O23	O	-0.331287	-0.843863	-0.308075
O24	O	0.168713	-0.343863	0.191925
O25	O	-0.422221	-0.953857	-0.494242
O26	O	0.077779	-0.453857	0.005758
O27	O	-0.417380	-0.840168	-0.388149
O28	O	0.082620	-0.340168	0.111851
O29	O	-0.339797	-1.043692	-0.494553
O30	O	0.160203	-0.543692	0.005447
O31	O	-0.539605	-1.034997	-0.323241
O32	O	-0.039605	-0.534997	0.176759
O33	O	-0.535898	-0.948910	-0.396778
O34	O	-0.035898	-0.448910	0.103222
C35	C	-0.373245	-0.816578	-0.347101
C36	C	0.126755	-0.316578	0.152899
C37	C	-0.369925	-0.738654	-0.344018
C38	C	0.130075	-0.238654	0.155982
C39	C	-0.413257	-0.700136	-0.384200
C40	C	0.086743	-0.200136	0.115800
C41	C	-0.410128	-0.626919	-0.381305
C42	C	0.089872	-0.126919	0.118695
C43	C	-0.363671	-0.592219	-0.338226
C44	C	0.136329	-0.092219	0.161774
C45	C	-0.320335	-0.630742	-0.298043
C46	C	0.179665	-0.130742	0.201957
C47	C	-0.323460	-0.703958	-0.300941
C48	C	0.176540	-0.203958	0.199059
C49	C	-0.351985	-0.371248	-0.327398
C50	C	0.148015	0.128752	0.172602
C51	C	-0.348865	-0.298026	-0.324502
C52	C	0.151135	0.201974	0.175498
C53	C	-0.438658	-0.294208	-0.407765
C54	C	0.061342	0.205792	0.092235
C55	C	-0.441782	-0.367426	-0.410657
C56	C	0.058218	0.132574	0.089343
C57	C	-0.398443	-0.405942	-0.370476
C58	C	0.101557	0.094058	0.129524
C59	C	-0.360474	-0.517379	-0.335266
C60	C	0.139526	-0.017379	0.164734
C61	C	-0.401637	-0.480781	-0.373440
C62	C	0.098363	0.019219	0.126560
C63	C	-0.563189	-0.990873	-0.360944
C64	C	-0.063189	-0.490873	0.139056
C65	C	-0.641115	-0.987578	-0.363791
C66	C	-0.141115	-0.487578	0.136209
C67	C	-0.679632	-1.030885	-0.326876
C68	C	-0.179632	-0.530885	0.173124
C69	C	-0.752851	-1.027790	-0.329558
C70	C	-0.252851	-0.527790	0.170442
C71	C	-0.787551	-0.981384	-0.369151
C72	C	-0.287551	-0.481384	0.130849
C73	C	-0.749029	-0.938074	-0.406069
C74	C	-0.249029	-0.438074	0.093931
C75	C	-0.675811	-0.941173	-0.403391
C76	C	-0.175811	-0.441173	0.096609
C77	C	-1.008526	-0.969786	-0.379155
C78	C	-0.508526	-0.469786	0.120845
C79	C	-1.081749	-0.966688	-0.381829
C80	C	-0.581749	-0.466688	0.118171
C81	C	-1.085566	-1.056405	-0.305318
C82	C	-0.585566	-0.556405	0.194682
C83	C	-1.012347	-1.059497	-0.302640
C84	C	-0.512347	-0.559497	0.197360
C85	C	-0.973831	-1.016191	-0.339561
C86	C	-0.473831	-0.516191	0.160439
C87	C	-0.862393	-0.978217	-0.371891
C88	C	-0.362393	-0.478217	0.128109
C89	C	-0.898991	-1.019361	-0.336824
C90	C	-0.398991	-0.519361	0.163176
C91	C	-0.198188	-1.006628	-0.347732
C92	C	0.301812	-0.506628	0.152268
C93	C	-0.120266	-1.009996	-0.344915
C94	C	0.379734	-0.509996	0.155085
C95	C	-0.381003	-0.998783	-0.517767
C96	C	0.118997	-0.498783	-0.017767
C97	C	-0.380986	-0.998807	-0.587409
C98	C	0.119014	-0.498807	-0.087409
C99	C	-0.388871	-0.181585	-0.361607
C100	C	0.111129	0.318415	0.138393
C101	C	-0.392197	-0.259509	-0.364683
C102	C	0.107803	0.240491	0.135317
C103	C	-0.334222	-0.955918	-0.616708
C104	C	0.165778	-0.455918	-0.116708
C105	C	-0.334209	-0.955916	-0.682143
C106	C	0.165791	-0.455916	-0.182143
C107	C	-0.380952	-0.998816	-0.718277
C108	C	0.119048	-0.498816	-0.218277
C109	C	-0.427724	-1.041708	-0.688970
C110	C	0.072276	-0.541708	-0.188970
C111	C	-0.427741	-1.041704	-0.623536
C112	C	0.072259	-0.541704	-0.123536
C113	C	-0.389164	-1.061747	-0.824669
C114	C	0.110836	-0.561747	-0.324669
C115	C	-0.389143	-1.061753	-0.890101
C116	C	0.110857	-0.561753	-0.390101
C117	C	-0.380906	-0.998830	-0.920096
C118	C	0.119094	-0.498830	-0.420096
C119	C	-0.372675	-0.935899	-0.884650
C120	C	0.127325	-0.435899	-0.384650
C121	C	-0.372691	-0.935894	-0.819216
C122	C	0.127309	-0.435894	-0.319216
C123	C	-0.380940	-0.998826	-0.789229
C124	C	0.119060	-0.498826	-0.289229
C125	C	-0.334126	-0.955935	-1.020347
C126	C	0.165874	-0.455935	-0.520347
C127	C	-0.334118	-0.955932	-1.085783
C128	C	0.165882	-0.455932	-0.585783
C129	C	-0.427629	-1.041730	-1.092609
C130	C	0.072371	-0.541730	-0.592609
C131	C	-0.427641	-1.041727	-1.027174
C132	C	0.072359	-0.541727	-0.527174
C133	C	-0.380885	-0.998830	-0.991047
C134	C	0.119115	-0.498830	-0.491047
C135	C	-0.381036	-0.998711	-0.191555
C136	C	0.118964	-0.498711	0.308445
C137	C	-0.380862	-0.998831	-0.121912
C138	C	0.119138	-0.498831	0.378088
H139	H	-0.322650	-0.489118	-0.300189
H140	H	0.177350	0.010882	0.199811
H141	H	-0.445415	-0.595561	-0.414025
H142	H	0.054585	-0.095561	0.085975
C143	C	-0.398196	-1.130978	-0.929086
C144	C	0.101804	-0.630978	-0.429086
N145	N	-0.405016	-1.183120	-0.958447
N146	N	0.094984	-0.683120	-0.458447
C147	C	-0.464364	-0.738299	-0.431590
C148	C	0.035636	-0.238299	0.068410
N149	N	-0.502858	-0.767041	-0.467288
N150	N	-0.002858	-0.267041	0.032712
C151	C	-0.633442	-0.893532	-0.444000
C152	C	-0.133442	-0.393532	0.056000
N153	N	-0.601530	-0.857649	-0.474590
N154	N	-0.101530	-0.357649	0.025410
C155	C	-0.398230	-1.130972	-0.791682
C156	C	0.101770	-0.630972	-0.291682
N157	N	-0.405060	-1.183111	-0.766836
N158	N	0.094940	-0.683111	-0.266836
C159	C	-0.795217	-1.075428	-0.288944
C160	C	-0.295217	-0.575428	0.211056
N161	N	-0.827127	-1.111309	-0.258351
N162	N	-0.327127	-0.611309	0.241649
H163	H	-0.465687	-1.076662	-1.122028
H164	H	0.034313	-0.576662	-0.622028
H165	H	-0.777287	-0.900292	-0.438310
H166	H	-0.277287	-0.400292	0.061690
C167	C	-0.900570	-0.927163	-0.415435
C168	C	-0.400570	-0.427163	0.084565
N169	N	-0.929327	-0.888708	-0.448231
N170	N	-0.429327	-0.388708	0.051769
C171	C	-0.282795	-0.908724	-0.576972
C172	C	0.217205	-0.408724	-0.076972
N173	N	-0.244062	-0.873176	-0.547042
N174	N	0.255938	-0.373176	-0.047042
C175	C	-0.641469	-1.081935	-0.283319
C176	C	-0.141469	-0.581935	0.216681
N177	N	-0.612727	-1.120388	-0.250511
N178	N	-0.112727	-0.620388	0.249489
C179	C	-0.282761	-0.908736	-0.714379
C180	C	0.217239	-0.408736	-0.214379
N181	N	-0.244009	-0.873201	-0.738658
N182	N	0.255991	-0.373201	-0.238658
H183	H	-0.984096	-1.097285	-0.270401
H184	H	-0.484096	-0.597285	0.229599
C185	C	-0.492892	-0.405590	-0.458044
C186	C	0.007108	0.094410	0.041956
N187	N	-0.531392	-0.434334	-0.493735
N188	N	-0.031392	0.065666	0.006265
H189	H	-0.365991	-0.884654	-0.790359
H190	H	0.134009	-0.384654	-0.290359
H191	H	-0.465783	-1.076638	-0.718394
H192	H	0.034217	-0.576638	-0.218394
H193	H	-0.465820	-1.076632	-0.599681
H194	H	0.034180	-0.576632	-0.099681
C195	C	-0.363620	-0.866676	-0.917639
C196	C	0.136380	-0.366676	-0.417639
N197	N	-0.356801	-0.814539	-0.942490
N198	N	0.143199	-0.314539	-0.442490
H199	H	-0.296039	-0.921001	-1.109637
H200	H	0.203961	-0.421001	-0.609637
C201	C	-0.486323	-0.251835	-0.451966
C202	C	0.013677	0.248165	0.048034
N203	N	-0.522223	-0.219919	-0.485262
N204	N	-0.022223	0.280081	0.014738
H205	H	-0.311026	-0.269776	-0.289425
H206	H	0.188974	0.230224	0.210575
C207	C	-0.275793	-0.746327	-0.256736
C208	C	0.224207	-0.246327	0.243264
N209	N	-0.239888	-0.778238	-0.223441
N210	N	0.260112	-0.278238	0.276559
C211	C	-0.452741	-0.518953	-0.420824
C212	C	0.047259	-0.018953	0.079176
N213	N	-0.491235	-0.547710	-0.456511
N214	N	0.008765	-0.047710	0.043489
C215	C	-1.127940	-1.104041	-0.264710
C216	C	-0.627940	-0.604041	0.235290
N217	N	-1.159856	-1.139924	-0.234123
N218	N	-0.659856	-0.639924	0.265877
H219	H	-0.316701	-0.402599	-0.294675
H220	H	0.183299	0.097401	0.205325
H221	H	-0.282505	-0.602484	-0.262970
H222	H	0.217495	-0.102484	0.237030
H223	H	-1.109999	-0.928907	-0.414082
H224	H	-0.609999	-0.428907	0.085918
C225	C	-0.282701	-0.908741	-0.980605
C226	C	0.217299	-0.408741	-0.480605
N227	N	-0.243969	-0.873192	-0.950673
N228	N	0.256031	-0.373192	-0.450673
H229	H	-0.465719	-1.076654	-1.003318
H230	H	0.034281	-0.576654	-0.503318
H231	H	-0.977171	-0.934522	-0.409216
H232	H	-0.477171	-0.434522	0.090784
H233	H	-0.870736	-1.057148	-0.304590
H234	H	-0.370736	-0.557148	0.195410
