data_functionalizedCrystal
_audit_creation_method	'MofGen! by Chris Wilmer'
_symmetry_space_group_name_H-M	'P1'
_symmetry_Int_Tables_number	1
_symmetry_cell_setting	triclinic
loop_
_symmetry_equiv_pos_as_xyz
  x,y,z
_cell_length_a	15.624803
_cell_length_b	14.750779
_cell_length_c	17.699083
_cell_angle_alpha	77.376932
_cell_angle_beta	96.223640
_cell_angle_gamma	94.868986
loop_
_atom_site_label
_atom_site_type_symbol
_atom_site_fract_x
_atom_site_fract_y
_atom_site_fract_z
O1	O	1.083795	0.457219	-0.192691
O2	O	1.583795	0.957219	0.307309
O3	O	0.841953	0.373014	-0.187176
O4	O	1.341953	0.873014	0.312824
O5	O	0.969712	0.417474	-0.080247
O6	O	1.469712	0.917474	0.419753
O7	O	0.956036	0.412759	-0.299619
O8	O	1.456036	0.912759	0.200381
O9	O	1.005828	0.270392	-0.050023
O10	O	1.505828	0.770392	0.449977
O11	O	0.878069	0.225932	-0.156952
O12	O	1.378069	0.725932	0.343048
O13	O	1.119911	0.310137	-0.162467
O14	O	1.619911	0.810137	0.337533
Zn15	Zn	1.004724	0.244682	-0.154911
Zn16	Zn	1.504724	0.744682	0.345089
Zn17	Zn	0.957140	0.438469	-0.194732
Zn18	Zn	1.457140	0.938469	0.305268
O19	O	0.992152	0.265677	-0.269395
O20	O	1.492152	0.765677	0.230605
C21	C	0.829068	0.288699	-0.169318
C22	C	1.329068	0.788699	0.330682
C23	C	0.736868	0.256595	-0.161130
C24	C	1.236868	0.756595	0.338870
C25	C	0.335270	0.551971	-0.216549
C26	C	0.835270	1.051971	0.283451
C27	C	0.248636	0.521804	-0.208839
C28	C	0.748636	1.021804	0.291161
C29	C	0.287987	0.361453	-0.175888
C30	C	0.787987	0.861453	0.324112
C31	C	0.374626	0.391607	-0.183592
C32	C	0.874626	0.891607	0.316408
C33	C	0.398260	0.486867	-0.203923
C34	C	0.898260	0.986867	0.296077
C35	C	0.437617	0.326503	-0.170966
C36	C	0.937617	0.826503	0.329034
C37	C	0.524248	0.356655	-0.178673
C38	C	1.024248	0.856655	0.321327
C39	C	0.547889	0.451911	-0.199006
C40	C	1.047889	0.951911	0.300994
C41	C	0.484891	0.517019	-0.211630
C42	C	0.984891	1.017019	0.288370
C43	C	0.413980	0.231244	-0.150640
C44	C	0.913980	0.731244	0.349360
C45	C	0.476971	0.166140	-0.138014
C46	C	0.976971	0.666140	0.361986
C47	C	0.563605	0.196292	-0.145716
C48	C	1.063605	0.696292	0.354284
C49	C	0.587246	0.291547	-0.166048
C50	C	1.087246	0.791547	0.333952
C51	C	0.626602	0.131184	-0.133091
C52	C	1.126602	0.631184	0.366909
C53	C	0.713234	0.161335	-0.140798
C54	C	1.213234	0.661335	0.359202
C55	C	0.673877	0.321699	-0.173755
C56	C	1.173877	0.821699	0.326245
N57	N	1.037205	0.112430	-0.127734
N58	N	1.537205	0.612430	0.372266
C59	C	0.833951	-0.310121	-0.297771
C60	C	1.333951	0.189879	0.202229
C61	C	0.856717	-0.402697	-0.278732
C62	C	1.356717	0.097303	0.221268
C63	C	0.969871	-0.363283	-0.184087
C64	C	1.469871	0.136717	0.315913
C65	C	0.947111	-0.270702	-0.203115
C66	C	1.447111	0.229298	0.296885
C67	C	0.879151	-0.244129	-0.259958
C68	C	1.379151	0.255871	0.240042
C69	C	0.992311	-0.204710	-0.165302
C70	C	1.492311	0.295290	0.334698
C71	C	0.969556	-0.112136	-0.184331
C72	C	1.469556	0.387864	0.315669
C73	C	0.901600	-0.085555	-0.241173
C74	C	1.401600	0.414445	0.258827
C75	C	0.856395	-0.151555	-0.278987
C76	C	1.356395	0.348445	0.221013
C77	C	1.060275	-0.231283	-0.108463
C78	C	1.560275	0.268717	0.391537
C79	C	1.105475	-0.165291	-0.070650
C80	C	1.605475	0.334709	0.429350
C81	C	1.082716	-0.072717	-0.089675
C82	C	1.582716	0.427283	0.410325
C83	C	1.014760	-0.046136	-0.146517
C84	C	1.514760	0.453864	0.353483
C85	C	1.127921	-0.006717	-0.051861
C86	C	1.627921	0.493283	0.448139
C87	C	1.105165	0.085857	-0.070891
C88	C	1.605165	0.585857	0.429109
C89	C	0.992005	0.046438	-0.165547
C90	C	1.492005	0.546438	0.334453
C91	C	1.132796	0.394454	-0.180325
C92	C	1.632796	0.894454	0.319675
C93	C	1.224995	0.426564	-0.188515
C94	C	1.724995	0.926564	0.311485
C95	C	0.987281	0.343759	-0.036901
C96	C	1.487281	0.843759	0.463099
C97	C	0.985815	0.343236	0.047228
C98	C	1.485815	0.843236	0.547228
N99	N	0.924666	0.570724	-0.221903
N100	N	1.424666	1.070724	0.278097
C101	C	1.060805	0.369339	0.090279
C102	C	1.560805	0.869339	0.590279
C103	C	1.059421	0.368855	0.169326
C104	C	1.559421	0.868855	0.669326
C105	C	0.983046	0.342261	0.205321
C106	C	1.483046	0.842261	0.705321
C107	C	0.908050	0.316159	0.162264
C108	C	1.408050	0.816159	0.662264
C109	C	0.909434	0.316650	0.083218
C110	C	1.409434	0.816650	0.583218
C111	C	0.902466	0.314179	0.481049
C112	C	1.402466	0.814179	0.981049
C113	C	0.901088	0.313688	0.560102
C114	C	1.401088	0.813688	1.060102
C115	C	1.052453	0.366384	0.567158
C116	C	1.552453	0.866384	1.067158
C117	C	1.053837	0.366875	0.488111
C118	C	1.553837	0.866875	0.988111
C119	C	0.978840	0.340778	0.445060
C120	C	1.478840	0.840778	0.945060
C121	C	0.980342	0.341305	0.359348
C122	C	1.480342	0.841305	0.859348
C123	C	0.981545	0.341727	0.291033
C124	C	1.481545	0.841727	0.791033
C125	C	0.974590	0.339363	0.687265
C126	C	1.474590	0.839363	1.187265
C127	C	0.976078	0.339797	0.603153
C128	C	1.476078	0.839797	1.103153
H129	H	0.197348	0.574826	-0.219124
H130	H	0.697348	1.074826	0.280876
H131	H	0.268731	0.283892	-0.159337
H132	H	0.768731	0.783892	0.340663
H133	H	0.845863	0.294511	0.191577
H134	H	1.345863	0.794511	0.691577
O135	O	1.043167	-0.391945	-0.122777
O136	O	1.543167	0.108055	0.377223
H137	H	1.051394	-0.467405	-0.115893
H138	H	1.551394	0.032595	0.384107
H139	H	0.343438	0.206697	-0.144370
H140	H	0.843438	0.706697	0.355630
H141	H	1.113518	0.387638	0.602219
H142	H	1.613518	0.887638	1.102219
O143	O	1.201227	-0.035380	0.009437
O144	O	1.701227	0.464620	0.509437
H145	H	1.186412	-0.021265	0.065557
H146	H	1.686412	0.478735	0.565557
H147	H	0.457715	0.088579	-0.121463
H148	H	0.957715	0.588579	0.378537
H149	H	1.141973	0.139590	-0.040100
H150	H	1.641973	0.639590	0.459900
H151	H	1.122999	0.390990	0.060979
H152	H	1.622999	0.890990	0.560979
O153	O	0.783076	-0.122879	-0.340276
O154	O	1.283076	0.377121	0.159724
H155	H	0.807575	-0.068529	-0.388286
H156	H	1.307575	0.431471	0.111714
H157	H	0.819905	-0.456427	-0.309530
H158	H	1.319905	0.043573	0.190470
H159	H	0.841398	0.292929	0.446006
H160	H	1.341398	0.792929	0.946006
H161	H	1.120486	0.390109	0.204375
H162	H	1.620486	0.890109	0.704375
O163	O	0.828555	0.288487	0.036780
O164	O	1.328555	0.788487	0.536780
H165	H	0.775216	0.269901	0.075090
H166	H	1.275216	0.769901	0.575090
O167	O	0.601043	0.028422	-0.111612
O168	O	1.101043	0.528422	0.388388
H169	H	0.530197	0.018386	-0.108536
H170	H	1.030197	0.518386	0.391464
O171	O	0.510403	0.619763	-0.233549
O172	O	1.010403	1.119763	0.266451
H173	H	0.476833	0.649827	-0.290983
H174	H	0.976833	1.149827	0.209017
O175	O	0.877047	0.014290	-0.261695
O176	O	1.377047	0.514290	0.238305
H177	H	0.933059	0.060319	-0.283353
H178	H	1.433059	0.560319	0.216647
H179	H	0.764523	0.108321	-0.130521
H180	H	1.264523	0.608321	0.369479
O181	O	1.136208	0.395571	0.449283
O182	O	1.636208	0.895571	0.949283
H183	H	1.188119	0.413653	0.492497
H184	H	1.688119	0.913653	0.992497
H185	H	1.078802	-0.306663	-0.092974
H186	H	1.578802	0.193337	0.407026
O187	O	0.918686	0.075085	-0.226844
O188	O	1.418686	0.575085	0.273156
H189	H	0.868027	0.103200	-0.200685
H190	H	1.368027	0.603200	0.299315
O191	O	0.760649	-0.281447	-0.359080
O192	O	1.260649	0.218553	0.140920
H193	H	0.733039	-0.342886	-0.382181
H194	H	1.233039	0.157114	0.117819
H195	H	0.693120	0.399269	-0.190309
H196	H	1.193120	0.899269	0.309691
O197	O	1.178771	-0.193954	-0.009340
O198	O	1.678771	0.306046	0.490660
H199	H	1.186999	-0.269414	-0.002455
H200	H	1.686999	0.230586	0.497545
H201	H	0.838892	0.292029	0.589407
H202	H	1.338892	0.792029	1.089407
H203	H	0.618430	0.476458	-0.205285
H204	H	1.118430	0.976458	0.294715
H205	H	0.354513	0.629541	-0.233102
H206	H	0.854513	1.129541	0.266898
