data_functionalizedCrystal
_audit_creation_method	'MofGen! by Chris Wilmer'
_symmetry_space_group_name_H-M	'P1'
_symmetry_Int_Tables_number	1
_symmetry_cell_setting	triclinic
loop_
_symmetry_equiv_pos_as_xyz
  x,y,z
_cell_length_a	23.096457
_cell_length_b	23.096457
_cell_length_c	18.760492
_cell_angle_alpha	59.999917
_cell_angle_beta	89.995950
_cell_angle_gamma	59.998275
loop_
_atom_site_label
_atom_site_type_symbol
_atom_site_fract_x
_atom_site_fract_y
_atom_site_fract_z
Zr1	Zr	0.557755	0.633761	-0.093553
O2	O	0.465308	0.754549	-0.207362
O3	O	0.586096	0.512971	-0.058666
O4	O	0.586099	0.633761	-0.207370
O5	O	0.465301	0.633759	0.058645
O6	O	0.681379	0.633763	-0.207374
O7	O	0.465305	0.633759	-0.058658
O8	O	0.681375	0.417691	0.058630
O9	O	0.465306	0.849830	-0.207360
O10	O	0.669288	0.562655	-0.043788
O11	O	0.598179	0.562654	0.043757
O12	O	0.598182	0.704869	-0.131323
O13	O	0.527072	0.704867	-0.043778
Zr14	Zr	0.709709	0.633763	0.093525
Zr15	Zr	0.709716	0.633763	-0.093559
Zr16	Zr	0.557748	0.633761	0.093532
Zr17	Zr	0.557751	0.785723	-0.093549
Zr18	Zr	0.709712	0.481801	0.093521
O19	O	0.681368	0.754553	0.058638
O20	O	0.681377	0.754553	-0.207372
O21	O	0.465298	0.754549	0.058648
O22	O	0.802156	0.512975	0.207334
O23	O	0.802166	0.512975	-0.058676
O24	O	0.586087	0.512971	0.207344
O25	O	0.802163	0.633765	-0.058673
O26	O	0.681365	0.633763	0.207342
O27	O	0.586085	0.633761	0.207347
O28	O	0.802159	0.633765	0.058630
O29	O	0.586095	0.849832	-0.207365
O30	O	0.681369	0.417692	0.207337
O31	O	0.802158	0.417694	0.207332
O32	O	0.802164	0.417694	0.058625
O33	O	0.465300	0.849830	-0.058653
O34	O	0.586089	0.849832	-0.058658
O35	O	0.669282	0.562655	0.131295
O36	O	0.740392	0.562656	0.043750
O37	O	0.669285	0.704870	-0.043785
O38	O	0.598176	0.704869	0.043760
C39	C	0.633736	0.443680	-0.000018
C40	C	0.633737	0.379168	-0.000020
C41	C	0.670852	-0.081350	-0.045697
C42	C	0.670850	-0.020730	-0.045705
C43	C	0.633733	0.009582	-0.000007
C44	C	0.596599	-0.020716	0.045684
C45	C	0.596596	-0.081329	0.045683
N46	N	0.638883	0.071976	0.074359
N47	N	0.638889	0.129555	0.074357
C48	C	0.633738	0.192208	-0.000005
N49	N	0.628594	0.195100	-0.074364
N50	N	0.628591	0.137513	-0.074361
C51	C	0.633731	0.075308	-0.000002
C52	C	0.670863	0.288234	-0.045706
C53	C	0.670856	0.348859	-0.045717
C54	C	0.596610	0.348866	0.045680
C55	C	0.596612	0.288248	0.045682
C56	C	0.633743	0.257933	-0.000009
C57	C	0.443652	0.633759	-0.000005
C58	C	0.379140	0.633758	-0.000002
C59	C	0.385951	0.559526	0.045682
C60	C	0.325336	0.559525	0.045685
C61	C	0.257910	0.633760	-0.000012
C62	C	0.251101	0.708001	-0.045698
C63	C	0.311716	0.708000	-0.045693
N64	N	0.135115	0.689016	-0.074384
N65	N	0.077536	0.689012	-0.074386
C66	C	0.075277	0.633767	-0.000027
N67	N	0.132779	0.578513	0.074334
N68	N	0.190365	0.578515	0.074335
C69	C	0.192178	0.633769	-0.000022
C70	C	0.016364	0.559529	0.045665
C71	C	-0.044254	0.559531	0.045671
C72	C	-0.118489	0.708009	-0.045721
C73	C	-0.057871	0.708005	-0.045719
C74	C	0.009553	0.633763	-0.000028
C75	C	0.823812	0.633765	-0.000022
C76	C	0.888324	0.633766	-0.000025
C77	C	0.633740	0.633762	-0.234028
C78	C	0.633743	0.633762	-0.313450
C79	C	0.633728	0.823844	-0.000009
C80	C	0.633727	0.888356	-0.000008
C81	C	0.670841	0.559525	-0.603571
C82	C	0.596605	0.707998	-0.694955
C83	C	0.596609	0.708000	-0.620335
C84	C	0.633730	0.633762	-0.537328
C85	C	0.670846	0.559524	-0.528943
C86	C	0.559489	0.782237	-0.628714
C87	C	0.559491	0.782241	-0.554091
C88	C	0.596616	0.708003	-0.471082
C89	C	0.633734	0.633761	-0.462699
C90	C	0.670854	0.559524	-0.379693
C91	C	0.707977	0.485282	-0.371308
C92	C	0.707971	0.485286	-0.445934
C93	C	0.596623	0.707999	-0.396456
C94	C	0.670859	0.559523	-0.305064
C95	C	0.633724	0.633762	0.234000
C96	C	0.633721	0.633762	0.313422
C97	C	0.823816	0.443683	-0.000027
C98	C	0.888329	0.379172	-0.000031
C99	C	0.633728	0.443680	0.233996
C100	C	0.633726	0.379168	0.313416
C101	C	0.823808	0.443683	0.233987
C102	C	0.888318	0.379172	0.313405
C103	C	0.443656	0.823841	-0.234015
C104	C	0.379146	0.888352	-0.313433
C105	C	0.443648	0.823841	-0.000001
C106	C	0.379135	0.888352	0.000003
C107	C	0.633736	0.823844	-0.234023
C108	C	0.633738	0.888356	-0.313444
C109	C	0.881510	0.348876	-0.045735
C110	C	0.942121	0.288270	-0.045757
C111	C	1.009550	0.257956	-0.000069
C112	C	1.016368	0.288258	0.045637
C113	C	0.955758	0.348867	0.045653
C114	C	0.670841	0.348873	0.396415
C115	C	0.670837	0.288266	0.471046
C116	C	0.633722	0.257950	0.462677
C117	C	0.596603	0.288251	0.379669
C118	C	0.596603	0.348861	0.305040
C119	C	0.955738	0.348878	0.305003
C120	C	1.016358	0.288271	0.379617
C121	C	1.009556	0.257956	0.462633
C122	C	0.942130	0.288257	0.471033
C123	C	0.881511	0.348866	0.396419
C124	C	0.311726	0.918653	-0.305030
C125	C	0.251106	0.979279	-0.379645
C126	C	0.257908	1.009597	-0.462660
C127	C	0.325334	0.979293	-0.471061
C128	C	0.385953	0.918673	-0.396447
C129	C	0.385954	0.918654	0.045700
C130	C	0.325343	0.979277	0.045701
C131	C	0.257914	1.009593	0.000010
C132	C	0.251096	0.979289	-0.045692
C133	C	0.311706	0.918671	-0.045697
C134	C	0.670860	0.918652	-0.305047
C135	C	0.670875	0.979260	-0.379664
C136	C	0.633763	1.009575	-0.462677
C137	C	0.596640	0.979272	-0.471073
C138	C	0.596630	0.918661	-0.396457
H139	H	0.566363	-0.105994	0.082889
C140	C	0.555814	1.012631	-0.562390
H141	H	0.561134	1.053074	-0.605619
H142	H	0.574134	0.969128	-0.568957
H143	H	0.506977	1.036291	-0.568936
H144	H	0.196198	0.768444	-0.082905
C145	C	0.332810	1.012637	-0.562378
H146	H	0.381644	0.985914	-0.556705
H147	H	0.310698	1.002702	-0.593377
H148	H	0.310707	1.069868	-0.593385
H149	H	0.701094	0.263553	-0.082914
H150	H	0.196211	1.003942	-0.372788
C151	C	0.711663	0.477863	-0.594342
H152	H	0.733770	0.433652	-0.534218
H153	H	0.679619	0.474783	-0.621550
H154	H	0.746793	0.474768	-0.621554
H155	H	0.566380	0.768439	-0.762541
C156	C	0.555780	0.885352	-0.405700
H157	H	0.561085	0.844911	-0.349377
H158	H	0.506953	0.928881	-0.436710
H159	H	0.574111	0.861703	-0.436710
H160	H	0.566382	0.373520	0.237461
C161	C	0.711684	-0.114684	-0.095967
H162	H	0.733789	-0.087950	-0.123186
H163	H	0.746805	-0.171911	-0.056530
H164	H	0.679640	-0.104738	-0.139215
H165	H	1.071278	0.263567	0.082834
H166	H	0.208542	1.058957	-0.523408
C167	C	0.711696	0.382183	-0.095977
H168	H	0.733813	0.355439	-0.123180
H169	H	0.679664	0.439408	-0.139222
H170	H	0.746820	0.372243	-0.056527
C171	C	0.555780	0.254917	0.095948
H172	H	0.533677	0.281646	0.123168
H173	H	0.520657	0.264852	0.056506
H174	H	0.587819	0.197687	0.139194
H175	H	0.633727	0.208597	0.523452
C176	C	0.555782	0.254897	0.370470
H177	H	0.533671	0.281620	0.310351
H178	H	0.587827	0.197670	0.397689
H179	H	0.520656	0.264838	0.397685
C180	C	0.191249	1.076269	0.000026
H181	H	0.204974	1.089965	0.033794
H182	H	0.163825	1.123567	-0.058188
H183	H	0.163827	1.056399	0.024503
C184	C	0.460110	0.885337	-0.405700
H185	H	0.455472	0.912073	-0.465829
H186	H	0.485313	0.895261	-0.378493
H187	H	0.485292	0.828109	-0.378502
C188	C	0.934654	0.254907	0.562350
H189	H	0.885820	0.281631	0.556677
H190	H	0.956765	0.197679	0.593355
H191	H	0.956757	0.264851	0.593352
H192	H	0.529266	0.842677	-0.696301
H193	H	0.961320	0.373526	0.082875
H194	H	0.701083	0.003941	-0.082912
H195	H	0.529265	0.842694	-0.560927
H196	H	0.071265	0.499076	0.082888
H197	H	0.738194	0.424842	-0.439116
H198	H	0.196186	1.003981	-0.082892
H199	H	0.566393	0.768446	-0.403286
C200	C	1.090517	0.254944	0.370361
H201	H	1.085881	0.281671	0.310233
H202	H	1.115712	0.264883	0.397558
H203	H	1.115706	0.197713	0.397571
C204	C	0.460119	0.885316	0.095964
H205	H	0.455489	0.912058	0.123169
H206	H	0.485307	0.828091	0.139209
H207	H	0.485310	0.895253	0.056517
C208	C	0.807344	0.382216	-0.095998
H209	H	0.772216	0.422649	-0.089444
H210	H	0.802029	0.405866	-0.156116
H211	H	0.802028	0.338696	-0.073431
C212	C	1.076217	0.191281	-0.000083
H213	H	1.117356	0.177564	0.033669
H214	H	1.076211	0.143994	0.024377
H215	H	1.076217	0.211158	-0.058309
C216	C	-0.065358	0.789658	-0.095758
H217	H	-0.019601	0.779026	-0.089138
H218	H	-0.090554	0.820326	-0.155909
H219	H	-0.090530	0.819995	-0.073017
H220	H	0.306143	0.894000	-0.082906
H221	H	1.058922	0.208604	0.523380
C222	C	0.555769	0.012627	0.095947
H223	H	0.561092	0.053061	0.089410
H224	H	0.506936	0.036279	0.073378
H225	H	0.574096	-0.030889	0.156069
H226	H	0.330909	1.003941	0.082920
H227	H	0.826618	0.373524	0.403273
H228	H	0.701080	0.893980	-0.237460
C229	C	0.304231	0.885323	-0.213723
H230	H	0.255392	0.912067	-0.219418
H231	H	0.326327	0.828097	-0.182707
H232	H	0.326336	0.895264	-0.182721
H233	H	0.701104	1.003926	-0.372811
C234	C	0.633774	1.076251	-0.544747
H235	H	0.661194	1.089955	-0.527849
H236	H	0.653648	1.056393	-0.578515
H237	H	0.586483	1.123552	-0.578500
H238	H	0.566384	0.373549	0.082883
C239	C	0.460114	0.477865	0.095949
H240	H	0.495241	0.488493	0.089407
H241	H	0.465424	0.447363	0.156065
H242	H	0.465436	0.447364	0.073374
C243	C	0.332822	0.477867	0.095935
H244	H	0.381659	0.433652	0.123143
H245	H	0.310715	0.474776	0.139176
H246	H	0.310722	0.474791	0.056477
H247	H	-0.173387	0.768453	-0.082929
H248	H	0.306165	0.768450	-0.082893
H249	H	-0.038701	0.499080	0.082879
C250	C	0.711673	0.254939	0.562345
H251	H	0.706354	0.214507	0.605599
H252	H	0.760504	0.231291	0.568882
H253	H	0.693340	0.298465	0.568881
H254	H	0.738196	0.424838	-0.303715
C255	C	0.934608	0.254940	-0.096024
H256	H	0.885768	0.281667	-0.123216
H257	H	0.956701	0.264878	-0.139279
H258	H	0.956712	0.197710	-0.056578
C259	C	0.711666	0.382215	0.405634
H260	H	0.706361	0.422649	0.349305
H261	H	0.693330	0.405865	0.436638
H262	H	0.760501	0.338696	0.436642
C263	C	0.963233	0.382216	0.213695
H264	H	1.012072	0.355493	0.219390
H265	H	0.941137	0.372279	0.182682
H266	H	0.941128	0.439447	0.182690
H267	H	0.701089	0.499069	-0.237479
