data_functionalizedCrystal
_audit_creation_method	'MofGen! by Chris Wilmer'
_symmetry_space_group_name_H-M	'P1'
_symmetry_Int_Tables_number	1
_symmetry_cell_setting	triclinic
loop_
_symmetry_equiv_pos_as_xyz
  x,y,z
_cell_length_a	19.288859
_cell_length_b	8.559649
_cell_length_c	17.766277
_cell_angle_alpha	89.994756
_cell_angle_beta	89.989768
_cell_angle_gamma	76.456195
loop_
_atom_site_label
_atom_site_type_symbol
_atom_site_fract_x
_atom_site_fract_y
_atom_site_fract_z
O1	O	0.910992	0.199358	-0.062605
O2	O	0.707332	0.226268	-0.062603
O3	O	0.827105	-0.019919	-0.062604
O4	O	0.791220	0.445545	-0.062605
O5	O	0.827087	-0.019931	0.062585
O6	O	0.707314	0.226255	0.062585
O7	O	0.910974	0.199346	0.062583
Cu8	Cu	0.809143	0.212799	0.074015
Cu9	Cu	0.809164	0.212814	-0.074035
O10	O	0.791202	0.445533	0.062584
C11	C	0.681492	0.225397	-0.000009
C12	C	0.604523	0.222803	-0.000008
C13	C	0.033885	0.349705	-0.000009
C14	C	0.106204	0.352156	-0.000013
C15	C	0.158420	0.207705	-0.000011
C16	C	0.138312	0.060791	-0.000025
C17	C	0.065994	0.058344	-0.000029
C18	C	0.285284	0.099970	0.043851
C19	C	0.357600	0.102423	0.043859
C20	C	0.381474	0.215248	-0.000004
C21	C	0.333019	0.325646	-0.043865
C22	C	0.260701	0.323198	-0.043869
C23	C	0.236839	0.210343	-0.000008
C24	C	0.479991	0.364810	0.000000
C25	C	0.552312	0.367256	-0.000008
C26	C	0.584419	0.075887	-0.000013
C27	C	0.512099	0.073445	-0.000012
C28	C	0.459888	0.217912	-0.000002
C29	C	0.829815	-0.079475	-0.000011
C30	C	0.837910	-0.256914	-0.000015
C31	C	0.936815	0.200216	-0.000013
C32	C	1.013784	0.202810	-0.000019
C33	C	0.788491	0.505088	-0.000011
C34	C	0.780396	0.682527	-0.000011
N35	N	0.809133	0.212788	0.178145
N36	N	0.809180	0.212813	-0.178165
C37	C	0.862180	0.103830	0.217532
C38	C	0.862185	0.103822	0.296334
C39	C	0.809147	0.212801	0.335746
C40	C	0.756090	0.321767	0.296350
C41	C	0.756083	0.321761	0.217549
C42	C	0.792277	0.358445	0.460584
C43	C	0.792288	0.358454	0.539382
C44	C	0.809164	0.212820	0.578792
C45	C	0.826043	0.067171	0.539394
C46	C	0.826036	0.067165	0.460593
C47	C	0.809148	0.212819	0.421192
C48	C	0.862220	0.103845	0.703625
C49	C	0.862220	0.103835	0.782428
C50	C	0.756127	0.321794	0.782442
C51	C	0.756125	0.321790	0.703641
C52	C	0.809175	0.212817	0.664237
H53	H	0.265855	0.008086	0.079570
F54	F	0.707939	-0.207814	-0.000009
F55	F	0.918649	-0.012152	0.338259
F56	F	0.193885	-0.092944	-0.000026
H57	H	0.893347	-0.340821	-0.000010
F58	F	0.918638	-0.012153	0.175597
F59	F	0.699620	0.437735	0.175629
H60	H	0.778522	0.477046	0.428503
H61	H	0.568675	0.486880	-0.000007
H62	H	0.049630	-0.061279	-0.000036
H63	H	-0.008621	0.467341	-0.000005
H64	H	0.839778	-0.051427	0.428518
H65	H	0.712904	0.410497	0.328443
F66	F	0.844010	-0.087835	0.581330
H67	H	0.905415	0.015107	0.671541
F68	F	0.424422	0.518562	0.000009
F69	F	0.358419	0.445744	-0.090544
H70	H	0.626932	-0.041728	-0.000017
H71	H	0.495733	-0.046172	-0.000015
F72	F	0.918679	-0.012147	0.824348
H73	H	0.712940	0.410520	0.814531
F74	F	0.209136	0.440682	-0.090551
H75	H	0.712930	0.410520	0.671570
H76	H	0.122574	0.471779	0.000001
F77	F	0.409161	-0.015060	0.090545
F78	F	0.774329	0.513464	0.581306
