data_functionalizedCrystal
_audit_creation_method	'MofGen! by Chris Wilmer'
_symmetry_space_group_name_H-M	'P1'
_symmetry_Int_Tables_number	1
_symmetry_cell_setting	triclinic
loop_
_symmetry_equiv_pos_as_xyz
  x,y,z
_cell_length_a	20.919309
_cell_length_b	20.919319
_cell_length_c	15.698487
_cell_angle_alpha	57.453614
_cell_angle_beta	89.999275
_cell_angle_gamma	60.108551
loop_
_atom_site_label
_atom_site_type_symbol
_atom_site_fract_x
_atom_site_fract_y
_atom_site_fract_z
Zr1	Zr	0.668268	0.648478	-0.110504
O2	O	0.567675	0.789835	-0.259003
O3	O	0.695333	0.512848	-0.060429
O4	O	0.700774	0.645942	-0.244704
O5	O	0.562234	0.656743	0.065452
O6	O	0.810055	0.637427	-0.238601
O7	O	0.562234	0.656740	-0.074729
O8	O	0.800323	0.399345	0.091032
O9	O	0.571966	0.894825	-0.264181
O10	O	0.792989	0.560158	-0.040018
O11	O	0.711433	0.566515	0.060043
O12	O	0.717839	0.723217	-0.156916
O13	O	0.636282	0.729573	-0.056855
Zr14	Zr	0.842558	0.634901	0.122801
Zr15	Zr	0.842560	0.634897	-0.100772
Zr16	Zr	0.668267	0.648482	0.113068
Zr17	Zr	0.675112	0.815924	-0.118762
Zr18	Zr	0.835715	0.467454	0.131059
O19	O	0.815493	0.770531	0.072726
O20	O	0.815495	0.770525	-0.245165
O21	O	0.567673	0.789841	0.058888
O22	O	0.943152	0.493543	0.271300
O23	O	0.943153	0.493538	-0.046591
O24	O	0.695331	0.512854	0.257462
O25	O	0.948593	0.626635	-0.053155
O26	O	0.810053	0.637436	0.257000
O27	O	0.700771	0.645951	0.250898
O28	O	0.948592	0.626638	0.087026
O29	O	0.710505	0.884030	-0.256445
O30	O	0.800322	0.399348	0.268742
O31	O	0.938861	0.388553	0.276478
O32	O	0.938862	0.388550	0.098767
O33	O	0.571965	0.894828	-0.086471
O34	O	0.710504	0.884033	-0.078735
O35	O	0.792988	0.560162	0.169213
O36	O	0.874544	0.553805	0.069151
O37	O	0.799394	0.716864	-0.047747
O38	O	0.717837	0.723220	0.052315
C39	C	0.746853	0.432239	0.016478
C40	C	0.743948	0.361153	0.019983
C41	C	0.725652	-0.041035	0.042864
C42	C	0.728341	0.025805	0.039502
C43	C	0.772253	0.055909	-0.014418
C44	C	0.813485	0.019162	-0.064970
C45	C	0.810800	-0.047682	-0.061601
C46	C	0.782494	0.257563	-0.027199
C47	C	0.785175	0.324413	-0.030567
C48	C	0.700032	0.331051	0.073907
C49	C	0.697346	0.264210	0.077266
C50	C	0.738582	0.227465	0.026719
C51	C	0.775001	0.124232	-0.017859
C52	C	0.735838	0.159138	0.030167
C53	C	0.537401	0.658677	-0.006025
C54	C	0.463410	0.664442	-0.010157
C55	C	0.467874	0.582038	0.048916
C56	C	0.398349	0.587461	0.045031
C57	C	0.324360	0.675289	-0.017933
C58	C	0.319897	0.757699	-0.077008
C59	C	0.389422	0.752275	-0.073116
C60	C	0.112479	0.695923	-0.032730
C61	C	0.042952	0.701340	-0.036619
C62	C	0.121409	0.531102	0.085422
C63	C	0.190931	0.525686	0.089302
C64	C	0.186463	0.608096	0.030232
C65	C	0.253293	0.680834	-0.021908
C66	C	0.257529	0.602550	0.034214
C67	C	0.973425	0.624702	0.018322
C68	C	1.047417	0.618936	0.022453
C69	C	0.755415	0.641684	-0.273507
C70	C	0.755415	0.641682	-0.368419
C71	C	0.763974	0.851140	-0.004181
C72	C	0.766879	0.922225	-0.007687
C73	C	0.755415	0.641680	-0.445498
C74	C	0.755415	0.641685	-0.542202
C75	C	0.755412	0.641694	0.285803
C76	C	0.755411	0.641696	0.380716
C77	C	0.964865	0.415251	0.028651
C78	C	1.035951	0.338400	0.036288
C79	C	0.746851	0.432244	0.296133
C80	C	0.743946	0.361160	0.394551
C81	C	0.964864	0.415256	0.308306
C82	C	1.035949	0.338407	0.410856
C83	C	0.545963	0.868122	-0.296010
C84	C	0.474877	0.944971	-0.398559
C85	C	0.545961	0.868127	-0.016355
C86	C	0.474875	0.944978	-0.023992
C87	C	0.763975	0.851135	-0.283836
C88	C	0.766881	0.922218	-0.382254
C89	C	1.026763	0.305626	-0.017120
C90	C	1.093550	0.233427	-0.009965
C91	C	1.169523	0.193997	0.050604
C92	C	1.178710	0.226778	0.104013
C93	C	1.111925	0.298981	0.096852
C94	C	0.785152	0.324462	0.497764
C95	C	0.782419	0.257681	0.590246
C96	C	0.738484	0.227594	0.579513
C97	C	0.697273	0.264299	0.476289
C98	C	0.700001	0.331084	0.383809
C99	C	1.111910	0.298999	0.406784
C100	C	1.178710	0.226800	0.503131
C101	C	1.169546	0.194006	0.603550
C102	C	1.093577	0.233421	0.607620
C103	C	1.026779	0.305623	0.511273
C104	C	0.398916	0.984387	-0.394487
C105	C	0.332118	1.056607	-0.490836
C106	C	0.341282	1.089405	-0.591255
C107	C	0.417251	1.049986	-0.595325
C108	C	0.484048	0.977772	-0.498977
C109	C	0.484064	0.977759	0.029406
C110	C	0.417278	1.049977	0.022227
C111	C	0.341304	1.089409	-0.038346
C112	C	0.332117	1.056625	-0.091751
C113	C	0.398903	0.984413	-0.084577
C114	C	0.810823	0.952284	-0.371487
C115	C	0.813569	1.019064	-0.463951
C116	C	0.772367	1.055783	-0.567182
C117	C	0.728423	1.025712	-0.577948
C118	C	0.725683	0.958927	-0.485484
H119	H	0.666461	0.360974	0.115060
H120	H	0.849244	0.043672	-0.108868
H121	H	0.424703	1.076699	-0.677097
O122	O	0.269226	1.167299	-0.695163
H123	H	0.268208	1.141678	-0.741004
H124	H	0.125038	0.464008	0.133514
H125	H	1.223944	0.135213	0.681994
O126	O	0.678277	0.926516	-0.497120
H127	H	0.718235	0.849491	-0.453087
H128	H	0.844375	0.922397	-0.287439
H129	H	0.849352	1.043541	-0.455165
H130	H	0.545897	0.945680	-0.502305
O131	O	0.832538	0.356910	0.509352
H132	H	0.860720	0.320172	0.596666
O133	O	0.684013	1.065296	-0.689294
H134	H	0.653007	1.033160	-0.681259
H135	H	0.815981	0.227803	0.674286
H136	H	0.964907	0.337729	-0.066454
H137	H	0.736268	0.173213	0.654825
O138	O	0.337327	0.507823	0.102125
H139	H	0.342792	0.468050	0.072891
O140	O	1.121804	0.334373	0.298480
H141	H	1.185852	0.294842	0.311852
O142	O	0.649927	0.231802	0.135339
H143	H	0.621693	0.268598	0.169902
O144	O	0.855259	-0.087307	-0.116131
H145	H	0.886239	-0.055138	-0.154202
O146	O	0.427202	1.085313	0.079849
H147	H	0.368003	1.142158	0.064684
H148	H	0.270251	1.088741	-0.141069
O149	O	0.775315	1.127828	-0.666911
H150	H	0.812787	1.142569	-0.642070
H151	H	0.689889	-0.065535	0.086765
H152	H	1.086054	0.206746	-0.053459
O153	O	1.083698	0.198042	0.715932
H154	H	1.048700	0.170239	0.724620
O155	O	0.944848	0.348107	0.515671
H156	H	0.949706	0.313157	0.601689
H157	H	0.820935	0.348921	-0.074479
O158	O	0.822352	0.156718	-0.076025
H159	H	0.885505	0.095581	-0.038043
O160	O	0.269272	1.167270	-0.046045
H161	H	0.288432	1.183420	0.001287
O162	O	0.388988	0.949050	-0.142163
H163	H	0.324937	0.988599	-0.185474
O164	O	1.260658	0.184242	0.169338
H165	H	1.255838	0.219161	0.205273
H166	H	0.391440	0.957688	-0.312730
O167	O	0.683870	0.065441	0.094015
H168	H	0.652874	0.033289	0.132060
O169	O	1.241551	0.116122	0.058317
H170	H	1.295928	0.094210	0.109399
H171	H	0.545919	0.945659	0.078738
O172	O	0.688464	0.126689	0.088310
H173	H	0.728445	0.049670	0.154731
H174	H	0.528116	0.510519	0.100193
H175	H	0.401991	0.520359	0.093136
H176	H	1.119417	0.325656	0.140351
H177	H	0.270267	1.088691	-0.487502
O178	O	0.649912	0.231818	0.464721
H179	H	0.654958	0.179197	0.546377
H180	H	1.240561	0.194715	0.499799
O181	O	0.826954	0.217949	-0.081733
H182	H	0.857928	0.250125	-0.119806
H183	H	0.251172	0.454167	0.140554
O184	O	-0.036856	0.796073	-0.104524
H185	H	-0.028284	0.852467	-0.144937
O186	O	0.384605	0.841157	-0.136933
H187	H	0.445379	0.822632	-0.123677
O188	O	0.107639	0.784816	-0.096454
H189	H	0.075468	0.826669	-0.068716
O190	O	0.240098	0.852431	-0.144933
H191	H	0.192502	0.842361	-0.137729
O192	O	0.655681	0.370528	0.272499
H193	H	0.624725	0.338327	0.280590
H194	H	0.193044	0.752343	-0.073173
