data_functionalizedCrystal
_audit_creation_method	'MofGen! by Chris Wilmer'
_symmetry_space_group_name_H-M	'P1'
_symmetry_Int_Tables_number	1
_symmetry_cell_setting	triclinic
loop_
_symmetry_equiv_pos_as_xyz
  x,y,z
_cell_length_a	18.101398
_cell_length_b	25.639239
_cell_length_c	18.101390
_cell_angle_alpha	89.965145
_cell_angle_beta	89.977223
_cell_angle_gamma	90.033952
loop_
_atom_site_label
_atom_site_type_symbol
_atom_site_fract_x
_atom_site_fract_y
_atom_site_fract_z
Zn1	Zn	1.132071	-0.208197	-0.418828
Zn2	Zn	1.131954	-0.295641	-0.294982
Zn3	Zn	1.008233	-0.208214	-0.294989
Zn4	Zn	1.008164	-0.295596	-0.418771
O5	O	1.070105	-0.251912	-0.356893
O6	O	1.235688	-0.219808	-0.402421
O7	O	1.115522	-0.284069	-0.191350
O8	O	1.024738	-0.135046	-0.311444
O9	O	1.235602	-0.284053	-0.311432
O10	O	1.115721	-0.135034	-0.402428
O11	O	1.024625	-0.219837	-0.191356
O12	O	0.904591	-0.219794	-0.311388
O13	O	1.024621	-0.283977	-0.522411
O14	O	0.904540	-0.283993	-0.402330
O15	O	1.115654	-0.219765	-0.522454
O16	O	1.115455	-0.368800	-0.311376
O17	O	1.024507	-0.368767	-0.402323
C18	C	0.877695	-0.251891	-0.356854
C19	C	0.795381	-0.251894	-0.356855
C20	C	0.496290	-0.251927	-0.356917
C21	C	0.527622	-0.211332	-0.299978
C22	C	0.613240	-0.211441	-0.299735
C23	C	0.644672	-0.251910	-0.356886
C24	C	0.613544	-0.306988	-0.335559
C25	C	0.527899	-0.306762	-0.335163
C26	C	0.527905	-0.237923	-0.435317
C27	C	0.613556	-0.236696	-0.434890
C28	C	0.728532	-0.251904	-0.356870
C29	C	0.412430	-0.251937	-0.356932
C30	C	1.069981	-0.387755	-0.356859
C31	C	1.069995	-0.445869	-0.356869
C32	C	1.117585	-0.806236	-0.309617
C33	C	1.117614	-0.860840	-0.309627
O34	O	1.157948	-0.889081	-0.269415
N35	N	1.070235	-0.888151	-0.356942
C36	C	1.022830	-0.860855	-0.404255
O37	O	0.982534	-0.889098	-0.444501
C38	C	1.022806	-0.806251	-0.404248
C39	C	1.070182	-0.778943	-0.356925
C40	C	1.164958	-0.778928	-0.262299
C41	C	1.164928	-0.724328	-0.262288
C42	C	1.117526	-0.697035	-0.309596
C43	C	1.070152	-0.724343	-0.356914
C44	C	0.975405	-0.778956	-0.451564
C45	C	0.975385	-0.724349	-0.451554
C46	C	1.022762	-0.697041	-0.404231
C47	C	1.022720	-0.642450	-0.404212
N48	N	1.070098	-0.615139	-0.356897
C49	C	1.117501	-0.642432	-0.309589
C50	C	1.022886	-0.975525	-0.404266
C51	C	1.022906	-1.030128	-0.404270
C52	C	1.117691	-1.030110	-0.309643
C53	C	1.117667	-0.975506	-0.309636
C54	C	1.070265	-0.948215	-0.356952
C55	C	1.117434	-0.527767	-0.309570
C56	C	1.117398	-0.473161	-0.309561
C57	C	1.022616	-0.473184	-0.404190
C58	C	1.022650	-0.527785	-0.404197
C59	C	1.070065	-0.555075	-0.356884
O60	O	0.982409	-0.614175	-0.444406
O61	O	1.157797	-0.614181	-0.269357
C62	C	1.263267	-0.251934	-0.356932
C63	C	1.345581	-0.251943	-0.356949
C64	C	1.070143	-0.251865	-0.550055
C65	C	1.070159	-0.251844	-0.632369
C66	C	1.070250	-0.115539	-0.356943
C67	C	1.070312	-0.057425	-0.356964
C68	C	1.070185	-0.251828	-0.783077
C69	C	1.127463	-0.211424	-0.814458
C70	C	1.127703	-0.211533	-0.900076
C71	C	1.070212	-0.251811	-0.931460
C72	C	1.091077	-0.306959	-0.900349
C73	C	1.091477	-0.306735	-0.814704
C74	C	0.991903	-0.237562	-0.814628
C75	C	0.992338	-0.236337	-0.900280
C76	C	1.070225	-0.251805	-1.015320
C77	C	1.070174	-0.251838	-0.699218
C78	C	1.070110	-0.251922	-0.164482
C79	C	1.070238	-0.251795	-0.082169
H80	H	0.633694	-0.220700	-0.241642
H81	H	0.507170	-0.338033	-0.374826
H82	H	0.984019	-0.450954	-0.442706
C83	C	0.923296	-0.808983	-0.503626
H84	H	0.895073	-0.784900	-0.531802
H85	H	0.891049	-0.830321	-0.475280
H86	H	0.951622	-0.830245	-0.535930
H87	H	0.947411	-0.263599	-0.921640
C88	C	0.923242	-0.694331	-0.503603
H89	H	0.895031	-0.718418	-0.531781
H90	H	0.951541	-0.672994	-0.535894
H91	H	0.890974	-0.673068	-0.475237
H92	H	0.506073	-0.220486	-0.242223
H93	H	0.984074	-0.550020	-0.442733
C94	C	1.110119	-0.156299	-0.928500
H95	H	1.102768	-0.133590	-0.887704
H96	H	1.066578	-0.157285	-0.957743
H97	H	1.150179	-0.143939	-0.957578
H98	H	0.507887	-0.318638	-0.277849
H99	H	0.633902	-0.338045	-0.375733
C100	C	0.934255	-0.277309	-0.787205
H101	H	0.957739	-0.302477	-0.756676
H102	H	0.912273	-0.294241	-0.828367
H103	H	0.897197	-0.259730	-0.759638
H104	H	1.185717	-0.220986	-0.920577
H105	H	1.114586	-0.170413	-0.793886
C106	C	1.205383	-0.224046	-0.785412
H107	H	1.203160	-0.253833	-0.754246
H108	H	1.223733	-0.195151	-0.758185
H109	H	1.237325	-0.230953	-0.825891
C110	C	1.036464	-0.348737	-0.927805
H111	H	1.050101	-0.381775	-0.908339
H112	H	1.037607	-0.350028	-0.980238
H113	H	0.987987	-0.340185	-0.911764
C114	C	1.168769	-0.323031	-0.787728
H115	H	1.199629	-0.329723	-0.829111
H116	H	1.164835	-0.353681	-0.758477
H117	H	1.189534	-0.295733	-0.758964
H118	H	0.634958	-0.319070	-0.278864
C119	C	1.037554	-0.348801	-0.786648
H120	H	1.037430	-0.348947	-0.734164
H121	H	1.052734	-0.382001	-0.804271
H122	H	0.989226	-0.341401	-0.804193
C123	C	0.500529	-0.277861	-0.492632
H124	H	0.469980	-0.302950	-0.468938
H125	H	0.541709	-0.294867	-0.514470
H126	H	0.472992	-0.260405	-0.529838
H127	H	1.155978	-0.450929	-0.271023
C128	C	0.641678	-0.156266	-0.317778
H129	H	0.600888	-0.133582	-0.325320
H130	H	0.670958	-0.157395	-0.361309
H131	H	0.670722	-0.143774	-0.277820
C132	C	1.169584	-0.557778	-0.257522
H133	H	1.197784	-0.533688	-0.229338
H134	H	1.201851	-0.579044	-0.285878
H135	H	1.141280	-0.579112	-0.225225
H136	H	0.506340	-0.198459	-0.454708
C137	C	0.499824	-0.155991	-0.317819
H138	H	0.468858	-0.157145	-0.360150
H139	H	0.540810	-0.133826	-0.327339
H140	H	0.472631	-0.142864	-0.276971
H141	H	1.147660	-0.319237	-0.921826
C142	C	0.971063	-0.181513	-0.927754
H143	H	0.923906	-0.172374	-0.908705
H144	H	0.969409	-0.181388	-0.980206
H145	H	1.006749	-0.156952	-0.911292
H146	H	0.972838	-0.198039	-0.793035
C147	C	0.641048	-0.181944	-0.456620
H148	H	0.671367	-0.168410	-0.418322
H149	H	0.599907	-0.159543	-0.463905
H150	H	0.668850	-0.184104	-0.501036
H151	H	0.634955	-0.264108	-0.479587
H152	H	1.203508	-0.702097	-0.223756
C153	C	1.217102	-0.808942	-0.210251
H154	H	1.245303	-0.784850	-0.182070
H155	H	1.249368	-0.830210	-0.238604
H156	H	1.188797	-0.830273	-0.177952
H157	H	1.156245	-0.953275	-0.271102
H158	H	0.984321	-1.052357	-0.442798
H159	H	0.984280	-0.953307	-0.442794
C160	C	1.169832	-1.060138	-0.257603
H161	H	1.163061	-1.096568	-0.264391
H162	H	1.159019	-1.051223	-0.207832
H163	H	1.219584	-1.051156	-0.268491
