data_functionalizedCrystal
_audit_creation_method	'MofGen! by Chris Wilmer'
_symmetry_space_group_name_H-M	'P1'
_symmetry_Int_Tables_number	1
_symmetry_cell_setting	triclinic
loop_
_symmetry_equiv_pos_as_xyz
  x,y,z
_cell_length_a	21.295420
_cell_length_b	21.295417
_cell_length_c	18.101389
_cell_angle_alpha	90.022566
_cell_angle_beta	90.019054
_cell_angle_gamma	90.026289
loop_
_atom_site_label
_atom_site_type_symbol
_atom_site_fract_x
_atom_site_fract_y
_atom_site_fract_z
Zn1	Zn	0.962321	-0.250746	0.418713
Zn2	Zn	1.295654	0.082587	0.752047
Zn3	Zn	1.628988	0.415921	1.085380
Zn4	Zn	0.962233	-0.356000	0.294863
Zn5	Zn	1.295567	-0.022666	0.628196
Zn6	Zn	1.628900	0.310667	0.961529
Zn7	Zn	0.857054	-0.250740	0.294886
Zn8	Zn	1.190388	0.082593	0.628219
Zn9	Zn	1.523721	0.415926	0.961552
Zn10	Zn	0.857014	-0.355974	0.418663
Zn11	Zn	1.190347	-0.022640	0.751996
Zn12	Zn	1.523680	0.310693	1.085329
O13	O	0.909656	-0.303365	0.356781
O14	O	1.242989	0.029968	0.690114
O15	O	1.576322	0.363302	1.023448
O16	O	1.050399	-0.264721	0.402296
O17	O	1.383732	0.068612	0.735629
O18	O	1.717065	0.401945	1.068962
O19	O	0.948262	-0.342045	0.191233
O20	O	1.281595	-0.008712	0.524566
O21	O	1.614928	0.324621	0.857899
O22	O	0.871072	-0.162652	0.311342
O23	O	1.204405	0.170682	0.644676
O24	O	1.537738	0.504015	0.978009
O25	O	1.050334	-0.342051	0.311303
O26	O	1.383668	-0.008717	0.644637
O27	O	1.717001	0.324616	0.977970
O28	O	0.948411	-0.162656	0.402318
O29	O	1.281744	0.170677	0.735651
O30	O	1.615077	0.504011	1.068985
O31	O	0.870987	-0.264712	0.191250
O32	O	1.204320	0.068621	0.524583
O33	O	1.537654	0.401955	0.857916
O34	O	0.768960	-0.264687	0.311294
O35	O	1.102293	0.068647	0.644627
O36	O	1.435626	0.401980	0.977960
O37	O	0.871002	-0.342006	0.522302
O38	O	1.204336	-0.008673	0.855636
O39	O	1.537669	0.324660	1.188969
O40	O	0.768930	-0.342001	0.402232
O41	O	1.102263	-0.008668	0.735565
O42	O	1.435596	0.324666	1.068899
O43	O	0.948371	-0.264696	0.522339
O44	O	1.281704	0.068637	0.855673
O45	O	1.615038	0.401970	1.189006
O46	O	0.948222	-0.444086	0.311254
O47	O	1.281556	-0.110752	0.644588
O48	O	1.614889	0.222581	0.977921
O49	O	0.870918	-0.444066	0.402210
O50	O	1.204251	-0.110733	0.735543
O51	O	1.537584	0.222600	1.068876
C52	C	0.746104	-0.303341	0.356760
C53	C	1.079437	0.029992	0.690093
C54	C	1.412771	0.363326	1.023427
C55	C	0.676136	-0.303346	0.356769
C56	C	1.009469	0.029988	0.690102
C57	C	1.342803	0.363321	1.023435
C58	C	0.176711	-0.263194	0.404249
C59	C	0.510044	0.070139	0.737582
C60	C	0.843377	0.403472	1.070916
C61	C	0.242453	-0.263190	0.404249
C62	C	0.575787	0.070144	0.737582
C63	C	0.909120	0.403477	1.070916
C64	C	0.275296	-0.303384	0.356798
C65	C	0.608630	0.029949	0.690132
C66	C	0.941963	0.363283	1.023465
C67	C	0.242392	-0.343597	0.309358
C68	C	0.575725	-0.010264	0.642691
C69	C	0.909058	0.323069	0.976024
C70	C	0.176650	-0.343605	0.309364
C71	C	0.509984	-0.010272	0.642698
C72	C	0.843317	0.323061	0.976031
N73	N	0.378492	-0.308121	0.291953
N74	N	0.711825	0.025213	0.625286
N75	N	1.045158	0.358546	0.958619
N76	N	0.440943	-0.308109	0.291948
N77	N	0.774276	0.025224	0.625282
N78	N	1.107610	0.358557	0.958615
C79	C	0.473371	-0.303363	0.356777
C80	C	0.806704	0.029970	0.690110
C81	C	1.140038	0.363303	1.023443
N82	N	0.440988	-0.298617	0.421610
N83	N	0.774322	0.034717	0.754944
N84	N	1.107655	0.368050	1.088277
N85	N	0.378531	-0.298625	0.421614
N86	N	0.711865	0.034709	0.754947
N87	N	1.045198	0.368042	1.088280
C88	C	0.346582	-0.303380	0.356786
C89	C	0.679915	0.029953	0.690119
C90	C	1.013248	0.363287	1.023453
C91	C	0.577553	-0.263151	0.404218
C92	C	0.910887	0.070183	0.737551
C93	C	1.244220	0.403516	1.070884
C94	C	0.643297	-0.263150	0.404219
C95	C	0.976631	0.070183	0.737552
C96	C	1.309964	0.403516	1.070886
C97	C	0.643234	-0.343555	0.309321
C98	C	0.976568	-0.010221	0.642654
C99	C	1.309901	0.323112	0.975988
C100	C	0.577492	-0.343558	0.309327
C101	C	0.910825	-0.010225	0.642660
C102	C	1.244159	0.323108	0.975993
C103	C	0.544655	-0.303353	0.356774
C104	C	0.877989	0.029981	0.690107
C105	C	1.211322	0.363314	1.023441
C106	C	0.909573	-0.466917	0.356740
C107	C	1.242906	-0.133583	0.690073
C108	C	1.576240	0.199750	1.023407
C109	C	0.909595	-0.536885	0.356747
C110	C	1.242929	-0.203551	0.690081
C111	C	1.576262	0.129782	1.023414
C112	C	0.949884	-0.569740	0.309435
C113	C	1.283217	-0.236407	0.642769
C114	C	1.616550	0.096926	0.976102
C115	C	0.949913	-0.635483	0.309452
C116	C	1.283246	-0.302150	0.642785
C117	C	1.616580	0.031184	0.976119
C118	C	0.909643	-0.668367	0.356773
C119	C	1.242976	-0.335034	0.690106
C120	C	1.576310	-0.001700	1.023439
C121	C	0.869352	-0.635504	0.404094
C122	C	1.202685	-0.302170	0.737427
C123	C	1.536019	0.031163	1.070761
C124	C	0.869328	-0.569762	0.404081
C125	C	1.202661	-0.236429	0.737414
C126	C	1.535995	0.096904	1.070748
N127	N	0.854576	-0.771630	0.362411
N128	N	1.187909	-0.438296	0.695745
N129	N	1.521242	-0.104963	1.029078
N130	N	0.854600	-0.834081	0.362419
N131	N	1.187933	-0.500748	0.695753
N132	N	1.521267	-0.167414	1.029086
C133	C	0.909714	-0.866442	0.356815
C134	C	1.243047	-0.533108	0.690149
C135	C	1.576380	-0.199775	1.023482
N136	N	0.964803	-0.833992	0.351189
N137	N	1.298136	-0.500659	0.684522
N138	N	1.631470	-0.167325	1.017855
N139	N	0.964778	-0.771535	0.351177
N140	N	1.298111	-0.438201	0.684510
N141	N	1.631444	-0.104868	1.017844
C142	C	0.909665	-0.739653	0.356792
C143	C	1.242998	-0.406319	0.690126
C144	C	1.576331	-0.072986	1.023459
C145	C	0.950037	-0.970583	0.309519
C146	C	1.283371	-0.637250	0.642852
C147	C	1.616704	-0.303916	0.976186
C148	C	0.950068	-1.036327	0.309541
C149	C	1.283401	-0.702993	0.642874
C150	C	1.616735	-0.369660	0.976207
C151	C	0.869501	-1.036346	0.404179
C152	C	1.202834	-0.703013	0.737512
C153	C	1.536168	-0.369680	1.070845
C154	C	0.869476	-0.970604	0.404161
C155	C	1.202809	-0.637270	0.737494
C156	C	1.536143	-0.303937	1.070827
C157	C	0.909743	-0.937726	0.356827
C158	C	1.243077	-0.604393	0.690160
C159	C	1.576410	-0.271059	1.023494
C160	C	1.073846	-0.303390	0.356803
C161	C	1.407179	0.029944	0.690136
C162	C	1.740512	0.363277	1.023469
C163	C	1.143814	-0.303400	0.356812
C164	C	1.477147	0.029933	0.690145
C165	C	1.810481	0.363267	1.023478
C166	C	0.909692	-0.303349	0.549943
C167	C	1.243025	0.029984	0.883276
C168	C	1.576359	0.363318	1.216610
C169	C	0.909707	-0.303342	0.632257
C170	C	1.243041	0.029991	0.965591
C171	C	1.576374	0.363324	1.298924
C172	C	0.909756	-0.139175	0.356838
C173	C	1.243089	0.194159	0.690172
C174	C	1.576422	0.527492	1.023505
C175	C	0.909798	-0.069207	0.356863
C176	C	1.243131	0.264127	0.690196
C177	C	1.576465	0.597460	1.023530
C178	C	0.909656	-0.303335	0.164371
C179	C	1.242989	0.029998	0.497704
C180	C	1.576322	0.363331	0.831037
C181	C	0.909762	-0.303165	0.082057
C182	C	1.243095	0.030169	0.415390
C183	C	1.576429	0.363502	0.748724
C184	C	0.909744	-0.303224	0.931348
C185	C	1.243077	0.030109	1.264682
C186	C	1.576411	0.363442	1.598015
C187	C	0.860898	-0.351711	0.900000
C188	C	1.194231	-0.018378	1.233333
C189	C	1.527565	0.314956	1.566666
C190	C	0.861030	-0.351936	0.814381
C191	C	1.194363	-0.018603	1.147715
C192	C	1.527697	0.314731	1.481048
C193	C	0.909725	-0.303283	0.782966
C194	C	1.243059	0.030051	1.116299
C195	C	1.576392	0.363384	1.449632
C196	C	0.976048	-0.321294	0.814063
C197	C	1.309382	0.012039	1.147396
C198	C	1.642715	0.345372	1.480729
C199	C	0.975776	-0.321613	0.899708
C200	C	1.309109	0.011721	1.233041
C201	C	1.642443	0.345054	1.566374
C202	C	0.892844	-0.236618	0.899780
C203	C	1.226177	0.096715	1.233113
C204	C	1.559511	0.430049	1.566447
C205	C	0.891368	-0.237003	0.814129
C206	C	1.224702	0.096331	1.147463
C207	C	1.558035	0.429664	1.480796
C208	C	0.909719	-0.303315	0.699106
C209	C	1.243052	0.030019	1.032440
C210	C	1.576386	0.363352	1.365773
C211	C	0.909755	-0.303194	1.015208
C212	C	1.243088	0.030140	1.348541
C213	C	1.576422	0.363473	1.681875
H214	H	0.670081	-0.230412	0.442853
H215	H	1.003414	0.102921	0.776187
H216	H	1.336747	0.436255	1.109520
H217	H	0.924349	-0.198959	0.792745
H218	H	1.257683	0.134374	1.126078
H219	H	1.591016	0.467707	1.459411
H220	H	0.872188	-0.401307	0.793894
H221	H	1.205521	-0.067973	1.127227
H222	H	1.538854	0.265360	1.460560
H223	H	0.842561	-0.223420	0.793804
H224	H	1.175894	0.109913	1.127137
H225	H	1.509227	0.443247	1.460470
H226	H	0.149979	-0.230459	0.442887
H227	H	0.483313	0.102875	0.776221
H228	H	0.816646	0.436208	1.109554
H229	H	0.550707	-0.376295	0.270695
H230	H	0.884040	-0.042962	0.604028
H231	H	1.217374	0.290371	0.937361
H232	H	0.990103	-0.370303	0.919685
H233	H	1.323436	-0.036969	1.253019
H234	H	1.656770	0.296364	1.586352
H235	H	0.928421	-0.200493	0.920055
H236	H	1.261755	0.132840	1.253389
H237	H	1.595088	0.466174	1.586722
H238	H	0.836667	-0.943851	0.442684
H239	H	1.170000	-0.610517	0.776017
H240	H	1.503334	-0.277184	1.109350
H241	H	0.845322	-0.220209	0.921373
H242	H	1.178655	0.113124	1.254706
H243	H	1.511989	0.446458	1.588039
H244	H	0.982673	-0.542973	0.270895
H245	H	1.316006	-0.209640	0.604229
H246	H	1.649340	0.123693	0.937562
H247	H	0.811569	-0.340555	0.920592
H248	H	1.144902	-0.007221	1.253925
H249	H	1.478236	0.326112	1.587259
H250	H	0.269243	-0.230447	0.442877
H251	H	0.602576	0.102887	0.776210
H252	H	0.935910	0.436220	1.109544
H253	H	0.836715	-1.063120	0.442712
H254	H	1.170049	-0.729787	0.776045
H255	H	1.503382	-0.396453	1.109378
H256	H	0.269137	-0.376326	0.270725
H257	H	0.602470	-0.042992	0.604058
H258	H	0.935804	0.290341	0.937392
H259	H	0.811849	-0.340664	0.793355
H260	H	1.145182	-0.007331	1.126688
H261	H	1.478516	0.326002	1.460022
H262	H	1.013404	-0.287830	0.920447
H263	H	1.346737	0.045503	1.253780
H264	H	1.680070	0.378836	1.587114
H265	H	0.149866	-0.376347	0.270734
H266	H	0.483200	-0.043014	0.604068
H267	H	0.816533	0.290320	0.937401
H268	H	1.013420	-0.287089	0.793716
H269	H	1.346753	0.046245	1.127049
H270	H	1.680086	0.379578	1.460382
H271	H	0.871945	-0.400780	0.921520
H272	H	1.205278	-0.067447	1.254853
H273	H	1.538612	0.265886	1.588187
H274	H	0.990623	-0.369467	0.792615
H275	H	1.323956	-0.036134	1.125948
H276	H	1.657289	0.297200	1.459281
H277	H	0.550817	-0.230413	0.442852
H278	H	0.884150	0.102920	0.776185
H279	H	1.217483	0.436254	1.109519
H280	H	0.669975	-0.376287	0.270692
H281	H	1.003308	-0.042953	0.604025
H282	H	1.336641	0.290380	0.937358
H283	H	0.982723	-0.662239	0.270925
H284	H	1.316056	-0.328906	0.604259
H285	H	1.649390	0.004427	0.937592
H286	H	0.836565	-0.662282	0.442624
H287	H	1.169898	-0.328949	0.775957
H288	H	1.503232	0.004385	1.109291
H289	H	0.982827	-0.943813	0.270979
H290	H	1.316161	-0.610480	0.604312
H291	H	1.649494	-0.277146	0.937646
H292	H	0.836520	-0.543011	0.442609
H293	H	1.169853	-0.209677	0.775942
H294	H	1.503187	0.123656	1.109276
H295	H	0.982879	-1.063077	0.271015
H296	H	1.316213	-0.729743	0.604349
H297	H	1.649546	-0.396410	0.937682
