data_functionalizedCrystal
_audit_creation_method	'MofGen! by Chris Wilmer'
_symmetry_space_group_name_H-M	'P1'
_symmetry_Int_Tables_number	1
_symmetry_cell_setting	triclinic
loop_
_symmetry_equiv_pos_as_xyz
  x,y,z
_cell_length_a	19.805407
_cell_length_b	19.805405
_cell_length_c	19.805399
_cell_angle_alpha	90.026615
_cell_angle_beta	90.017803
_cell_angle_gamma	90.024042
loop_
_atom_site_label
_atom_site_type_symbol
_atom_site_fract_x
_atom_site_fract_y
_atom_site_fract_z
Zn1	Zn	1.034734	-0.269527	0.382692
Zn2	Zn	1.034648	-0.382716	0.269506
Zn3	Zn	0.921549	-0.269541	0.269520
Zn4	Zn	0.921512	-0.382674	0.382656
O5	O	0.978111	-0.326115	0.326094
O6	O	1.129439	-0.284554	0.367687
O7	O	1.019625	-0.367726	0.174791
O8	O	0.936615	-0.174822	0.284554
O9	O	1.129376	-0.367713	0.284529
O10	O	1.019771	-0.174813	0.367701
O11	O	0.936531	-0.284576	0.174802
O12	O	0.826827	-0.284536	0.284519
O13	O	0.936551	-0.367642	0.477378
O14	O	0.826800	-0.367655	0.367639
O15	O	1.019735	-0.284514	0.477404
O16	O	1.019589	-0.477427	0.284494
O17	O	0.936468	-0.477396	0.367625
C18	C	0.802255	-0.326093	0.326077
C19	C	0.727023	-0.326101	0.326086
C20	C	0.691712	-0.282876	0.369452
C21	C	0.621024	-0.282880	0.369455
C22	C	0.585647	-0.326112	0.326094
C23	C	0.620963	-0.369338	0.282724
C24	C	0.691650	-0.369330	0.282718
C25	C	0.335890	-0.369368	0.282744
C26	C	0.265197	-0.369374	0.282755
C27	C	0.265263	-0.282918	0.369481
C28	C	0.335950	-0.282910	0.369476
C29	C	0.371260	-0.326134	0.326103
C30	C	0.447908	-0.326128	0.326099
C31	C	0.509000	-0.326121	0.326100
C32	C	0.978034	-0.501971	0.326069
C33	C	0.978063	-0.577203	0.326081
C34	C	1.021337	-0.612483	0.369410
C35	C	1.021361	-0.683172	0.369422
C36	C	0.978114	-0.718578	0.326103
C37	C	0.934835	-0.683292	0.282772
C38	C	0.934808	-0.612605	0.282763
C39	C	0.934944	-0.968366	0.282807
C40	C	0.934976	-1.039058	0.282817
C41	C	1.021497	-1.038932	0.369466
C42	C	1.021470	-0.968245	0.369457
C43	C	0.978189	-0.932965	0.326129
C44	C	0.978162	-0.856317	0.326117
C45	C	0.978144	-0.795225	0.326111
C46	C	1.154653	-0.326136	0.326111
C47	C	1.229885	-0.326146	0.326118
C48	C	0.978149	-0.326072	0.502636
C49	C	0.978165	-0.326054	0.577868
C50	C	0.978207	-0.149572	0.326133
C51	C	0.978247	-0.074340	0.326150
C52	C	0.978112	-0.326108	0.150238
C53	C	0.978227	-0.325936	0.075006
C54	C	1.021480	-0.282766	0.613227
C55	C	1.021487	-0.282747	0.683916
C56	C	0.978182	-0.326018	0.719244
C57	C	0.934862	-0.369308	0.683880
C58	C	0.934852	-0.369323	0.613193
C59	C	0.934900	-0.369244	0.968954
C60	C	0.934915	-0.369227	1.039646
C61	C	1.021535	-0.282668	1.039677
C62	C	1.021525	-0.282684	0.968989
C63	C	0.978203	-0.325970	0.933632
C64	C	0.978195	-0.325990	0.856983
C65	C	0.978193	-0.326002	0.795891
H66	H	0.364630	-0.404564	0.247428
O67	O	0.892912	-0.411329	0.934545
C68	C	0.883725	-0.502767	0.854760
C69	C	0.931357	-0.455135	0.893672
H70	H	0.914789	-0.538205	0.821716
H71	H	0.848350	-0.471735	0.821626
H72	H	0.852768	-0.533655	0.892176
H73	H	0.962358	-0.424236	0.856306
H74	H	0.966687	-0.486205	0.926817
H75	H	0.899648	-0.404465	1.068408
O76	O	1.063617	-0.240827	0.578881
C77	C	1.154963	-0.231740	0.499058
C78	C	1.107299	-0.279318	0.537923
H79	H	1.190282	-0.262840	0.465923
H80	H	1.185971	-0.200807	0.536444
H81	H	1.123885	-0.196341	0.465999
H82	H	1.138325	-0.314758	0.570983
H83	H	1.076289	-0.310203	0.500501
O84	O	1.063677	-0.240591	1.073920
C85	C	1.149567	-0.154707	1.066487
C86	C	1.101887	-0.202333	1.027626
H87	H	1.180462	-0.123753	1.029076
H88	H	1.184991	-0.185746	1.099563
H89	H	1.118506	-0.119330	1.099601
H90	H	1.132893	-0.237719	0.994476
H91	H	1.066461	-0.171252	0.994593
H92	H	0.899756	-1.067884	0.247540
H93	H	0.899620	-0.712126	0.247503
H94	H	0.592154	-0.404535	0.247416
H95	H	0.899704	-0.939647	0.247527
H96	H	0.899569	-0.583880	0.247482
H97	H	0.720399	-0.404528	0.247405
O98	O	1.063367	-0.578197	0.411557
C99	C	1.149211	-0.585542	0.497483
C100	C	1.101637	-0.624452	0.449793
H101	H	1.180175	-0.622922	0.528399
H102	H	1.118132	-0.552472	0.532887
H103	H	1.184582	-0.552418	0.466429
H104	H	1.066257	-0.657613	0.480793
H105	H	1.132758	-0.657479	0.414388
O106	O	1.063307	-0.717468	0.411582
C107	C	1.072413	-0.797234	0.502963
C108	C	1.024828	-0.758428	0.455268
H109	H	1.041322	-0.830370	0.538287
H110	H	1.103306	-0.759811	0.533965
H111	H	1.107849	-0.830288	0.471909
H112	H	0.989351	-0.725374	0.486270
H113	H	0.993982	-0.795888	0.424264
H114	H	1.056688	-0.939419	0.404730
O115	O	1.063464	-0.240620	0.718289
C116	C	1.072626	-0.149230	0.798132
C117	C	1.025010	-0.196894	0.759239
H118	H	1.041556	-0.113875	0.831260
H119	H	1.103560	-0.118260	0.760765
H120	H	1.108022	-0.180306	0.831200
H121	H	0.989574	-0.165870	0.726170
H122	H	0.994123	-0.227866	0.796643
O123	O	0.892828	-0.411436	0.718122
C124	C	0.859941	-0.526562	0.739748
C125	C	0.907574	-0.478926	0.700917
H126	H	0.871855	-0.581138	0.725863
H127	H	0.805356	-0.514728	0.725832
H128	H	0.867378	-0.519082	0.796340
H129	H	0.900196	-0.486379	0.644316
H130	H	0.962141	-0.490772	0.714889
O131	O	1.063498	-1.073132	0.411658
C132	C	1.096258	-1.094693	0.526829
C133	C	1.048663	-1.055909	0.479125
H134	H	1.084272	-1.080794	0.581387
H135	H	1.150850	-1.080750	0.515049
H136	H	1.088857	-1.151293	0.519363
H137	H	1.056004	-0.999301	0.486564
H138	H	0.994089	-1.069909	0.490917
O139	O	0.892875	-0.411408	0.578764
C140	C	0.883719	-0.502829	0.498957
C141	C	0.931335	-0.455202	0.537894
H142	H	0.914795	-0.538258	0.465914
H143	H	0.848352	-0.471792	0.465818
H144	H	0.852752	-0.533727	0.536355
H145	H	0.962346	-0.424293	0.500544
H146	H	0.966657	-0.486277	0.571042
H147	H	0.720511	-0.247674	0.404763
H148	H	0.364750	-0.247709	0.404786
O149	O	0.586828	-0.240871	0.411645
C150	C	0.594353	-0.155086	0.497640
C151	C	0.633163	-0.202642	0.449906
H152	H	0.631797	-0.124156	0.528577
H153	H	0.561278	-0.186177	0.533023
H154	H	0.561242	-0.119684	0.466620
H155	H	0.666309	-0.238054	0.480872
H156	H	0.666194	-0.171509	0.414521
H157	H	1.056791	-0.247450	0.940229
O158	O	0.230936	-0.411390	0.240565
C159	C	0.238326	-0.497168	0.154562
C160	C	0.277211	-0.449611	0.202291
H161	H	0.275722	-0.528091	0.123615
H162	H	0.205244	-0.466078	0.119188
H163	H	0.205217	-0.532576	0.185587
H164	H	0.310357	-0.414193	0.171320
H165	H	0.310250	-0.480742	0.237666
O166	O	0.231037	-0.240830	0.411578
C167	C	0.209435	-0.125741	0.444622
C168	C	0.248246	-0.173324	0.396915
H169	H	0.223323	-0.071153	0.432775
H170	H	0.223365	-0.137647	0.499187
H171	H	0.152839	-0.133203	0.437191
H172	H	0.304851	-0.165890	0.404286
H173	H	0.234260	-0.161408	0.342368
