data_functionalizedCrystal
_audit_creation_method	'MofGen! by Chris Wilmer'
_symmetry_space_group_name_H-M	'P1'
_symmetry_Int_Tables_number	1
_symmetry_cell_setting	triclinic
loop_
_symmetry_equiv_pos_as_xyz
  x,y,z
_cell_length_a	18.215407
_cell_length_b	18.050590
_cell_length_c	18.215399
_cell_angle_alpha	89.971265
_cell_angle_beta	89.980167
_cell_angle_gamma	90.019000
loop_
_atom_site_label
_atom_site_type_symbol
_atom_site_fract_x
_atom_site_fract_y
_atom_site_fract_z
Zn1	Zn	1.125104	-0.295658	-0.416112
Zn2	Zn	1.625104	0.204342	0.083888
Zn3	Zn	1.125026	-0.419853	-0.293044
Zn4	Zn	1.625026	0.080147	0.206956
Zn5	Zn	1.002037	-0.295682	-0.293059
Zn6	Zn	1.502037	0.204318	0.206941
Zn7	Zn	1.002016	-0.419812	-0.416069
Zn8	Zn	1.502016	0.080188	0.083931
O9	O	1.063546	-0.357751	-0.354571
O10	O	1.563546	0.142249	0.145429
O11	O	1.228078	-0.312140	-0.399798
O12	O	1.728078	0.187860	0.100202
O13	O	1.108687	-0.403409	-0.190062
O14	O	1.608687	0.096591	0.309938
O15	O	1.018403	-0.191755	-0.309407
O16	O	1.518403	0.308245	0.190593
O17	O	1.228021	-0.403386	-0.309381
O18	O	1.728021	0.096614	0.190619
O19	O	1.108820	-0.191737	-0.399813
O20	O	1.608820	0.308263	0.100187
O21	O	1.018328	-0.312181	-0.190073
O22	O	1.518328	0.187819	0.309927
O23	O	0.899050	-0.312141	-0.309365
O24	O	1.399050	0.187859	0.190635
O25	O	1.018368	-0.403315	-0.519059
O26	O	1.518368	0.096685	-0.019059
O27	O	0.899035	-0.403339	-0.399740
O28	O	1.399035	0.096661	0.100260
O29	O	1.108801	-0.312100	-0.519090
O30	O	1.608801	0.187900	-0.019090
O31	O	1.108668	-0.523772	-0.309339
O32	O	1.608668	-0.023772	0.190661
O33	O	1.018293	-0.523742	-0.399725
O34	O	1.518293	-0.023742	0.100275
C35	C	0.872340	-0.357739	-0.354550
C36	C	1.372340	0.142261	0.145450
C37	C	0.790541	-0.357751	-0.354558
C38	C	1.290541	0.142249	0.145442
C39	C	1.063489	-0.550704	-0.354542
C40	C	1.563489	-0.050704	0.145458
C41	C	1.063533	-0.633249	-0.354554
C42	C	1.563533	-0.133249	0.145446
C43	C	0.602358	-0.405312	-0.401557
C44	C	1.102358	0.094688	0.098443
C45	C	0.525500	-0.405315	-0.401566
C46	C	1.025500	0.094685	0.098434
C47	C	0.525486	-0.310204	-0.307601
C48	C	1.025486	0.189796	0.192399
C49	C	0.602343	-0.310199	-0.307596
C50	C	1.102343	0.189801	0.192404
C51	C	0.640777	-0.357757	-0.354573
C52	C	1.140777	0.142243	0.145427
C53	C	0.487061	-0.357765	-0.354587
C54	C	0.987061	0.142235	0.145413
C55	C	0.403728	-0.357767	-0.354597
C56	C	0.903728	0.142233	0.145403
C57	C	0.724116	-0.357754	-0.354565
C58	C	1.224116	0.142246	0.145435
C59	C	1.112781	-0.832689	-0.305470
C60	C	1.612781	-0.332689	0.194530
C61	C	1.130758	-0.882022	-0.372637
C62	C	1.630758	-0.382022	0.127363
C63	C	1.063574	-0.784380	-0.354583
C64	C	1.563574	-0.284380	0.145417
C65	C	1.045672	-0.882129	-0.287446
C66	C	1.545672	-0.382129	0.212554
C67	C	1.063616	-0.930365	-0.354605
C68	C	1.563616	-0.430365	0.145395
C69	C	1.081586	-0.832624	-0.421785
C70	C	1.581586	-0.332624	0.078215
C71	C	0.996469	-0.832728	-0.336549
C72	C	1.496469	-0.332728	0.163451
C73	C	1.014421	-0.882038	-0.403762
C74	C	1.514421	-0.382038	0.096238
C75	C	1.063552	-0.700281	-0.354569
C76	C	1.563552	-0.200281	0.145431
C77	C	1.063638	-1.014461	-0.354627
C78	C	1.563638	-0.514461	0.145373
C79	C	1.255499	-0.357765	-0.354593
C80	C	1.755499	0.142235	0.145407
C81	C	1.337298	-0.357770	-0.354602
C82	C	1.837298	0.142230	0.145398
C83	C	1.063591	-0.357700	-0.546524
C84	C	1.563591	0.142300	-0.046524
C85	C	1.063610	-0.357678	-0.628323
C86	C	1.563610	0.142322	-0.128323
C87	C	1.063623	-0.164046	-0.354616
C88	C	1.563623	0.335954	0.145384
C89	C	1.063656	-0.081500	-0.354636
C90	C	1.563656	0.418500	0.145364
C91	C	1.110715	-0.310138	-0.816535
C92	C	1.610715	0.189862	-0.316535
C93	C	1.110724	-0.310117	-0.893393
C94	C	1.610724	0.189883	-0.393393
C95	C	1.016557	-0.405104	-0.893349
C96	C	1.516557	0.094896	-0.393349
C97	C	1.016545	-0.405121	-0.816492
C98	C	1.516545	0.094879	-0.316492
C99	C	1.063628	-0.357639	-0.778086
C100	C	1.563628	0.142361	-0.278086
C101	C	1.063649	-0.357600	-0.931803
C102	C	1.563649	0.142400	-0.431803
C103	C	1.063658	-0.357577	-1.015136
C104	C	1.563658	0.142423	-0.515136
C105	C	1.063618	-0.357661	-0.694747
C106	C	1.563618	0.142339	-0.194747
C107	C	1.063544	-0.357749	-0.163365
C108	C	1.563544	0.142251	0.336635
C109	C	1.063667	-0.357561	-0.081566
C110	C	1.563667	0.142439	0.418434
H111	H	0.494222	-0.444038	-0.439827
H112	H	0.994222	0.055962	0.060173
N113	N	0.643778	-0.258901	-0.256913
N114	N	1.143778	0.241099	0.243087
H115	H	0.675646	-0.289034	-0.222754
H116	H	1.175646	0.210966	0.277246
H117	H	0.675642	-0.224529	-0.286931
H118	H	1.175642	0.275471	0.213069
H119	H	0.494183	-0.271485	-0.269352
H120	H	0.994183	0.228515	0.230648
H121	H	0.939718	-0.811057	-0.321261
H122	H	1.439718	-0.311057	0.178739
H123	H	1.154407	-0.811021	-0.263980
H124	H	1.654407	-0.311021	0.236020
H125	H	1.187525	-0.903676	-0.387905
H126	H	1.687525	-0.403676	0.112095
H127	H	1.096688	-0.810972	-0.478620
H128	H	1.596688	-0.310972	0.021380
H129	H	0.972826	-0.903569	-0.445353
H130	H	1.472826	-0.403569	0.054647
H131	H	1.149051	-0.271474	-0.785267
H132	H	1.649051	0.228526	-0.285267
N133	N	1.025588	-0.910936	-0.212231
N134	N	1.525588	-0.410936	0.287769
H135	H	1.062778	-0.892985	-0.175168
H136	H	1.562778	-0.392985	0.324832
H137	H	0.975233	-0.892229	-0.198283
H138	H	1.475233	-0.392229	0.301717
N139	N	1.161501	-0.258875	-0.934863
N140	N	1.661501	0.241125	-0.434863
H141	H	1.191322	-0.228798	-0.898869
H142	H	1.691322	0.271202	-0.398869
H143	H	1.195554	-0.289091	-0.966756
H144	H	1.695554	0.210909	-0.466756
H145	H	0.978225	-0.443763	-0.924628
H146	H	1.478225	0.056237	-0.424628
H147	H	0.633649	-0.444035	-0.439811
H148	H	1.133649	0.055965	0.060189
H149	H	0.978196	-0.443802	-0.785186
H150	H	1.478196	0.056198	-0.285186
