data_functionalizedCrystal
_audit_creation_method	'MofGen! by Chris Wilmer'
_symmetry_space_group_name_H-M	'P1'
_symmetry_Int_Tables_number	1
_symmetry_cell_setting	triclinic
loop_
_symmetry_equiv_pos_as_xyz
  x,y,z
_cell_length_a	12.811457
_cell_length_b	23.532357
_cell_length_c	22.610064
_cell_angle_alpha	89.998923
_cell_angle_beta	95.423661
_cell_angle_gamma	83.439233
loop_
_atom_site_label
_atom_site_type_symbol
_atom_site_fract_x
_atom_site_fract_y
_atom_site_fract_z
O1	O	1.391829	0.076705	0.025464
O2	O	1.891829	0.576705	0.525464
O3	O	1.086162	0.085045	0.009066
O4	O	1.586162	0.585045	0.509066
O5	O	1.248240	-0.002008	0.017773
O6	O	1.748240	0.497992	0.517773
O7	O	1.229751	0.163758	0.016757
O8	O	1.729751	0.663758	0.516757
O9	O	1.248211	-0.001995	0.116141
O10	O	1.748211	0.498005	0.616141
O11	O	1.086133	0.085058	0.107434
O12	O	1.586133	0.585058	0.607434
O13	O	1.391801	0.076719	0.123831
O14	O	1.891801	0.576719	0.623831
Zn15	Zn	1.238962	0.080890	0.131250
Zn16	Zn	1.738962	0.580890	0.631250
Zn17	Zn	1.239000	0.080873	0.001647
Zn18	Zn	1.739000	0.580873	0.501647
O19	O	1.229722	0.163772	0.115124
O20	O	1.729722	0.663772	0.615124
C21	C	1.047049	0.084584	0.056153
C22	C	1.547049	0.584584	0.556153
C23	C	0.930548	0.083184	0.049903
C24	C	1.430548	0.583184	0.549903
C25	C	0.711601	0.080557	0.145413
C26	C	1.211601	0.580557	0.645413
C27	C	0.602138	0.079241	0.139544
C28	C	1.102138	0.579241	0.639544
C29	C	0.602160	0.079232	0.032298
C30	C	1.102160	0.579232	0.532298
C31	C	0.711622	0.080548	0.038167
C32	C	1.211622	0.580548	0.538167
C33	C	0.766339	0.081211	0.094726
C34	C	1.266339	0.581211	0.594726
C35	C	0.875802	0.082531	0.100594
C36	C	1.375802	0.582531	0.600594
C37	C	0.875823	0.082518	-0.006652
C38	C	1.375823	0.582518	0.493348
C39	C	0.766360	0.081203	-0.012520
C40	C	1.266360	0.581203	0.487480
C41	C	1.247763	-0.023221	0.066934
C42	C	1.747763	0.476779	0.566934
C43	C	1.246373	-0.086447	0.066865
C44	C	1.746373	0.413553	0.566865
C45	C	1.237659	-0.478513	0.012744
C46	C	1.737659	0.021487	0.512744
C47	C	1.236338	-0.537920	0.012670
C48	C	1.736338	-0.037920	0.512670
O49	O	1.235632	-0.568646	-0.032970
O50	O	1.735632	-0.068646	0.467030
N51	N	1.235666	-0.567627	0.066254
N52	N	1.735666	-0.067627	0.566254
C53	C	1.236306	-0.537924	0.119916
C54	C	1.736306	-0.037924	0.619916
O55	O	1.235613	-0.568648	0.165487
O56	O	1.735613	-0.068648	0.665487
C57	C	1.237621	-0.478518	0.119989
C58	C	1.737621	0.021482	0.619989
C59	C	1.238302	-0.448815	0.066402
C60	C	1.738302	0.051185	0.566402
C61	C	1.238340	-0.448809	-0.040839
C62	C	1.738340	0.051191	0.459161
C63	C	1.239664	-0.389407	-0.040764
C64	C	1.739664	0.110593	0.459236
C65	C	1.240307	-0.359708	0.012894
C66	C	1.740307	0.140292	0.512894
C67	C	1.239626	-0.389412	0.066477
C68	C	1.739626	0.110588	0.566477
C69	C	1.238253	-0.448816	0.173650
C70	C	1.738253	0.051184	0.673650
C71	C	1.239566	-0.389406	0.173718
C72	C	1.739566	0.110594	0.673718
C73	C	1.240248	-0.359702	0.120131
C74	C	1.740248	0.140298	0.620131
C75	C	1.241593	-0.300311	0.120209
C76	C	1.741593	0.199689	0.620209
N77	N	1.242264	-0.270604	0.066624
N78	N	1.742264	0.229396	0.566624
C79	C	1.241621	-0.300302	0.012967
C80	C	1.741621	0.199698	0.512967
C81	C	1.233545	-0.662681	0.119758
C82	C	1.733545	-0.162681	0.619758
C83	C	1.232238	-0.722086	0.119686
C84	C	1.732238	-0.222086	0.619686
C85	C	1.232267	-0.722078	0.012439
C86	C	1.732267	-0.222078	0.512439
C87	C	1.233581	-0.662672	0.012513
C88	C	1.733581	-0.162672	0.512513
C89	C	1.234216	-0.632973	0.066174
C90	C	1.734216	-0.132973	0.566174
C91	C	1.244402	-0.175553	0.013128
C92	C	1.744402	0.324447	0.513128
C93	C	1.245730	-0.116146	0.013207
C94	C	1.745730	0.383854	0.513207
C95	C	1.245695	-0.116159	0.120453
C96	C	1.745695	0.383841	0.620453
C97	C	1.244372	-0.175562	0.120374
C98	C	1.744372	0.324438	0.620374
C99	C	1.243722	-0.205257	0.066706
C100	C	1.743722	0.294743	0.566706
O101	O	1.242295	-0.269547	0.165826
O102	O	1.742295	0.230453	0.665826
O103	O	1.242300	-0.269571	-0.032597
O104	O	1.742300	0.230429	0.467403
C105	C	1.430913	0.077179	0.076743
C106	C	1.930913	0.577179	0.576743
C107	C	1.547414	0.078580	0.082989
C108	C	2.047414	0.578580	0.582989
C109	C	1.230199	0.184984	0.065962
C110	C	1.730199	0.684984	0.565962
C111	C	1.231589	0.248210	0.066027
C112	C	1.731589	0.748210	0.566027
N113	N	1.238944	0.080902	0.219702
N114	N	1.738944	0.580902	0.719702
C115	C	1.310770	0.042336	0.632202
C116	C	1.810770	0.542336	1.132202
C117	C	1.310776	0.042332	0.694122
C118	C	1.810776	0.542332	1.194122
O119	O	1.371801	0.009548	0.729419
O120	O	1.871801	0.509548	1.229419
N121	N	1.238998	0.080866	0.721242
N122	N	1.738998	0.580866	1.221242
C123	C	1.167203	0.119402	0.686438
C124	C	1.667203	0.619402	1.186438
O125	O	1.106150	0.152177	0.715191
O126	O	1.606150	0.652177	1.215191
C127	C	1.167194	0.119402	0.624519
C128	C	1.667194	0.619402	1.124519
C129	C	1.238983	0.080870	0.597403
C130	C	1.738983	0.580870	1.097403
C131	C	1.382553	0.003806	0.605085
C132	C	1.882553	0.503806	1.105085
C133	C	1.382549	0.003811	0.543170
C134	C	1.882549	0.503811	1.043170
C135	C	1.310762	0.042345	0.508370
C136	C	1.810762	0.542345	1.008370
C137	C	1.238979	0.080875	0.535487
C138	C	1.738979	0.580875	1.035487
C139	C	1.095395	0.157935	0.589715
C140	C	1.595395	0.657935	1.089715
C141	C	1.095391	0.157932	0.527792
C142	C	1.595391	0.657932	1.027792
C143	C	1.167180	0.119400	0.500676
C144	C	1.667180	0.619400	1.000676
C145	C	1.167187	0.119413	0.438771
C146	C	1.667187	0.619413	0.938771
N147	N	1.238965	0.080880	0.411652
N148	N	1.738965	0.580880	0.911652
C149	C	1.310752	0.042346	0.446451
C150	C	1.810752	0.542346	0.946451
C151	C	1.167227	0.119397	0.816473
C152	C	1.667227	0.619397	1.316473
C153	C	1.167241	0.119400	0.878391
C154	C	1.667241	0.619400	1.378391
C155	C	1.310812	0.042329	0.886071
C156	C	1.810812	0.542329	1.386071
C157	C	1.310803	0.042330	0.824152
C158	C	1.810803	0.542330	1.324152
C159	C	1.239005	0.080864	0.789353
C160	C	1.739005	0.580864	1.289353
C161	C	1.310739	0.042358	0.316423
C162	C	1.810739	0.542358	0.816423
C163	C	1.310731	0.042368	0.254501
C164	C	1.810731	0.542368	0.754501
C165	C	1.167156	0.119436	0.246827
C166	C	1.667156	0.619436	0.746827
C167	C	1.167167	0.119429	0.308743
C168	C	1.667167	0.619429	0.808743
C169	C	1.238962	0.080885	0.343540
C170	C	1.738962	0.580885	0.843540
O171	O	1.106190	0.152179	0.403437
O172	O	1.606190	0.652179	0.903437
O173	O	1.371786	0.009571	0.417689
O174	O	1.871786	0.509571	0.917689
N175	N	1.239025	0.080864	0.913196
N176	N	1.739025	0.580864	1.413196
H177	H	0.557593	0.078683	-0.013750
H178	H	1.057593	0.578683	0.486250
Cl179	Cl	1.243535	-0.212906	0.187742
Cl180	Cl	1.743535	0.287094	0.687742
Cl181	Cl	1.401057	-0.006115	0.929832
Cl182	Cl	1.901057	0.493885	1.429832
H183	H	1.369194	0.010990	0.232426
H184	H	1.869194	0.510990	0.732426
H185	H	0.756150	0.081104	0.191466
H186	H	1.256150	0.581104	0.691466
Cl187	Cl	0.533329	0.078417	0.203268
Cl188	Cl	1.033329	0.578417	0.703268
H189	H	1.108763	0.150781	0.788142
H190	H	1.608763	0.650781	1.288142
Cl191	Cl	1.400999	-0.006097	0.360157
Cl192	Cl	1.900999	0.493903	0.860157
H193	H	1.243867	-0.199723	-0.030574
H194	H	1.743867	0.300277	0.469426
Cl195	Cl	0.697568	0.080350	-0.083619
Cl196	Cl	1.197568	0.580350	0.416381
H197	H	1.036921	0.189310	0.499461
H198	H	1.536921	0.689310	0.999461
H199	H	1.108794	0.150783	0.900465
H200	H	1.608794	0.650783	1.400465
H201	H	1.108720	0.150811	0.330822
H202	H	1.608720	0.650811	0.830822
Cl203	Cl	1.076914	0.167878	0.203069
Cl204	Cl	1.576914	0.667878	0.703069
H205	H	1.036937	0.189311	0.611784
H206	H	1.536937	0.689311	1.111784
Cl207	Cl	0.944640	0.083351	-0.070376
Cl208	Cl	1.444640	0.583351	0.429624
Cl209	Cl	1.234435	-0.625336	-0.054857
Cl210	Cl	1.734435	-0.125336	0.445143
Cl211	Cl	1.234352	-0.625353	0.187225
Cl212	Cl	1.734352	-0.125353	0.687225
H213	H	1.246287	-0.091964	-0.030432
H214	H	1.746287	0.408036	0.469568
H215	H	1.240215	-0.365227	-0.084400
H216	H	1.740215	0.134773	0.415600
H217	H	1.237813	-0.472983	-0.084536
H218	H	1.737813	0.027017	0.415464
Cl219	Cl	1.246503	-0.078813	0.187904
Cl220	Cl	1.746503	0.421187	0.687904
H221	H	1.231740	-0.746269	-0.031252
H222	H	1.731740	-0.246269	0.468748
H223	H	0.920350	0.083074	0.146648
H224	H	1.420350	0.583074	0.646648
Cl225	Cl	1.472795	-0.044635	0.509087
Cl226	Cl	1.972795	0.455365	1.009087
H227	H	1.231699	-0.746267	0.163323
H228	H	1.731699	-0.246267	0.663323
Cl229	Cl	1.237389	-0.486142	0.241021
Cl230	Cl	1.737389	0.013858	0.741021
Cl231	Cl	1.472812	-0.044643	0.648824
Cl232	Cl	1.972812	0.455357	1.148824
H233	H	1.240067	-0.365227	0.217416
H234	H	1.740067	0.134773	0.717416
H235	H	1.369259	0.010953	0.802078
H236	H	1.869259	0.510953	1.302078
