data_functionalizedCrystal
_audit_creation_method	'MofGen! by Chris Wilmer'
_symmetry_space_group_name_H-M	'P1'
_symmetry_Int_Tables_number	1
_symmetry_cell_setting	triclinic
loop_
_symmetry_equiv_pos_as_xyz
  x,y,z
_cell_length_a	19.851628
_cell_length_b	14.446369
_cell_length_c	14.446369
_cell_angle_alpha	119.999750
_cell_angle_beta	59.999397
_cell_angle_gamma	89.994910
loop_
_atom_site_label
_atom_site_type_symbol
_atom_site_fract_x
_atom_site_fract_y
_atom_site_fract_z
Zr1	Zr	0.648984	0.121411	1.013130
O2	O	0.541418	0.269240	1.206259
O3	O	0.681958	0.076088	0.820008
O4	O	0.681959	0.269207	1.013117
O5	O	0.541417	-0.076208	1.013159
O6	O	0.792821	0.269189	1.013099
O7	O	0.541417	0.076120	1.013150
O8	O	0.792818	-0.076266	0.667663
O9	O	0.541419	0.269247	1.358594
O10	O	0.778756	0.056752	0.899426
O11	O	0.696021	-0.056916	0.899446
O12	O	0.696023	0.170457	1.126806
O13	O	0.613288	0.056790	1.126826
Zr14	Zr	0.825795	-0.121565	1.013115
Zr15	Zr	0.825796	0.121382	1.013102
Zr16	Zr	0.648984	-0.121535	1.013144
Zr17	Zr	0.648985	0.121423	1.256088
Zr18	Zr	0.825794	-0.121576	0.770157
O19	O	0.792822	-0.076241	1.206237
O20	O	0.792822	0.269198	1.206218
O21	O	0.541418	-0.076199	1.206278
O22	O	0.933361	-0.269393	0.819987
O23	O	0.933361	0.076046	0.819968
O24	O	0.681957	-0.269351	0.820027
O25	O	0.933362	0.076055	1.013087
O26	O	0.792820	-0.269361	1.013129
O27	O	0.681958	-0.269342	1.013146
O28	O	0.933362	-0.076274	1.013095
O29	O	0.681961	0.269223	1.358572
O30	O	0.792818	-0.269376	0.667674
O31	O	0.933360	-0.269400	0.667651
O32	O	0.933360	-0.076290	0.667640
O33	O	0.541419	0.076136	1.358605
O34	O	0.681961	0.076113	1.358582
O35	O	0.778756	-0.170611	0.899439
O36	O	0.861491	-0.056943	0.899419
O37	O	0.778758	0.056762	1.126799
O38	O	0.696023	-0.056905	1.126819
C39	C	0.516225	-0.000040	1.013158
C40	C	0.441164	-0.000027	1.013171
C41	C	0.737390	0.303813	1.013106
C42	C	0.737390	0.406950	1.013100
C43	C	0.737389	-0.303966	1.013139
C44	C	0.737389	-0.407103	1.013145
C45	C	0.214709	0.061932	1.137119
C46	C	0.192347	0.106847	1.075142
C47	C	0.303757	-0.000060	1.013137
C48	C	0.192378	-0.044954	1.075121
C49	C	0.171025	-0.000091	1.013113
C50	C	0.282384	0.044918	0.951159
C51	C	0.282412	-0.106942	0.951156
C52	C	0.260104	-0.062054	0.889089
C53	C	0.380219	-0.000039	1.013154
C54	C	0.094568	-0.000109	1.013086
C55	C	0.958554	-0.000114	1.013087
C56	C	1.033615	-0.000126	1.013075
C57	C	0.737388	-0.000091	0.709219
C58	C	0.737387	-0.000095	0.606077
C59	C	0.789830	0.481917	0.869707
C60	C	0.789603	0.374589	0.869610
C61	C	0.647493	0.481528	1.084343
C62	C	0.647780	0.588387	1.083432
C63	C	0.774121	0.589939	1.086365
C64	C	0.775940	0.481267	1.083662
C65	C	0.685456	-0.072114	0.459080
C66	C	0.685174	-0.071823	0.566700
C67	C	0.699322	0.123446	0.655073
C68	C	0.698931	0.123072	0.547840
C69	C	0.827420	-0.050555	0.372608
C70	C	0.827288	-0.053076	0.478759
C71	C	0.737392	-0.000063	1.317026
C72	C	0.737392	-0.000058	1.420168
C73	C	0.958552	-0.000128	0.709184
C74	C	1.033613	-0.000145	0.606030
C75	C	0.737387	-0.303980	0.709236
C76	C	0.737387	-0.407122	0.606100
C77	C	0.958552	-0.304017	0.709200
C78	C	1.033612	-0.407171	0.606052
C79	C	0.516227	0.303864	1.317045
C80	C	0.441167	0.407018	1.420194
C81	C	0.516227	-0.000026	1.317062
C82	C	0.441166	-0.000009	1.420216
C83	C	0.737392	0.303827	1.317009
C84	C	0.737393	0.406969	1.420146
C85	C	1.025675	0.059205	0.557591
C86	C	1.096196	0.059211	0.460680
C87	C	1.174653	-0.000139	0.412203
C88	C	1.182589	-0.059491	0.460651
C89	C	1.112069	-0.059490	0.557567
C90	C	1.112056	-0.396281	0.557602
C91	C	1.182590	-0.493196	0.460697
C92	C	1.174679	-0.601001	0.412236
C93	C	1.096227	-0.611890	0.460696
C94	C	1.025695	-0.514975	0.557606
C95	C	0.362723	0.396127	1.468655
C96	C	0.292189	0.493043	1.565591
C97	C	0.300101	0.600848	1.614056
C98	C	0.378552	0.611736	1.565591
C99	C	0.449085	0.514822	1.468663
C100	C	0.449104	-0.059348	1.468665
C101	C	0.378583	-0.059328	1.565602
C102	C	0.300126	0.000026	1.614083
C103	C	0.292190	0.059373	1.565630
C104	C	0.362710	0.059359	1.468701
C105	C	0.684953	-0.482102	0.459794
C106	C	0.685175	-0.374769	0.566714
C107	C	0.827285	-0.481696	0.479232
C108	C	0.827003	-0.588560	0.371857
C109	C	0.700663	-0.590117	0.546851
C110	C	0.698839	-0.481440	0.655321
H111	H	0.196259	0.114431	1.241951
H112	H	0.153577	-0.082910	1.127549
H113	H	0.735333	0.179455	0.683849
Cl114	Cl	0.872400	-0.588152	0.231732
H115	H	1.246462	-0.484310	0.421251
H116	H	0.228318	0.484155	1.605035
H117	H	1.089798	-0.699677	0.421225
Cl118	Cl	0.211422	0.722674	1.735907
Cl119	Cl	0.388484	0.747272	1.626528
Cl120	Cl	0.342332	-0.246448	0.870331
Cl121	Cl	0.547728	-0.133968	1.407744
Cl122	Cl	0.547697	0.528533	1.407743
H123	H	0.606724	0.508770	1.189847
Cl124	Cl	0.724681	-0.212929	0.321884
Cl125	Cl	0.887445	0.030087	0.332492
H126	H	0.619441	-0.037398	0.494851
H127	H	0.632610	-0.430005	0.745823
H128	H	0.855800	0.320301	0.813715
Cl129	Cl	0.388579	-0.133947	1.626488
Cl130	Cl	0.596650	0.185480	0.610681
Cl131	Cl	0.211480	0.000030	1.735936
Cl132	Cl	0.927052	0.133832	0.618519
H133	H	0.618976	-0.320486	0.656073
Cl134	Cl	0.132426	0.246379	1.156035
H135	H	0.856199	0.479565	0.813403
H136	H	0.741716	0.506793	1.188344
H137	H	1.089718	0.107542	0.421245
H138	H	0.228301	0.107697	1.605118
H139	H	0.961825	-0.523859	0.597041
Cl140	Cl	0.723918	-0.480513	0.321353
Cl141	Cl	0.582482	-0.478474	0.517302
H142	H	0.618767	-0.036814	0.655510
H143	H	0.868201	-0.667148	0.341898
H144	H	0.733066	-0.506967	0.687442
Cl145	Cl	0.753570	0.210451	0.513892
H146	H	0.356236	0.107677	1.429257
H147	H	0.710655	-0.320989	0.529241
Cl148	Cl	0.890234	-0.523750	0.513564
H149	H	0.764586	0.480885	0.813697
H150	H	1.232068	-0.000132	0.333287
Cl151	Cl	0.352756	0.260613	1.407747
H152	H	0.856898	-0.430096	0.440667
H153	H	0.635464	-0.594221	0.586433
Cl154	Cl	0.288749	-0.142926	0.727149
H155	H	0.321079	0.082977	0.898793
Cl156	Cl	0.750206	0.291590	0.782867
Cl157	Cl	0.598016	0.186288	0.797599
H158	H	0.738679	-0.668339	0.522058
Cl159	Cl	0.584176	0.709728	1.245908
Cl160	Cl	0.602381	0.587978	1.005286
Cl161	Cl	0.878195	0.401858	1.003466
H162	H	0.617878	0.429928	1.034875
H163	H	0.839320	0.594043	1.040456
H164	H	0.736093	0.668149	1.192042
H165	H	1.246478	-0.107811	0.421167
H166	H	0.710707	-0.162794	0.529991
H167	H	1.118544	-0.107826	0.596993
H168	H	1.118513	-0.308509	0.597044
H169	H	0.859223	-0.140127	0.278861
Cl170	Cl	1.263357	-0.722827	0.290402
H171	H	0.855725	-0.144090	0.439158
H172	H	0.869244	-0.006054	0.500251
