data_functionalizedCrystal
_audit_creation_method	'MofGen! by Chris Wilmer'
_symmetry_space_group_name_H-M	'P1'
_symmetry_Int_Tables_number	1
_symmetry_cell_setting	triclinic
loop_
_symmetry_equiv_pos_as_xyz
  x,y,z
_cell_length_a	12.759401
_cell_length_b	19.076808
_cell_length_c	12.759393
_cell_angle_alpha	92.335254
_cell_angle_beta	90.018567
_cell_angle_gamma	92.322593
loop_
_atom_site_label
_atom_site_type_symbol
_atom_site_fract_x
_atom_site_fract_y
_atom_site_fract_z
Zn1	Zn	1.589373	-0.280194	0.577139
Zn2	Zn	2.089373	0.219806	1.077139
Zn3	Zn	1.582174	-0.397917	0.394381
Zn4	Zn	2.082174	0.102083	0.894381
Zn5	Zn	1.413673	-0.280229	0.401476
Zn6	Zn	1.913673	0.219771	0.901476
Zn7	Zn	1.406574	-0.397861	0.570026
Zn8	Zn	1.906574	0.102139	1.070026
O9	O	1.497949	-0.339050	0.485755
O10	O	1.997949	0.160950	0.985755
O11	O	1.735439	-0.295820	0.552903
O12	O	2.235439	0.204180	1.052903
O13	O	1.559780	-0.382344	0.248299
O14	O	2.059780	0.117656	0.748299
O15	O	1.442964	-0.181727	0.430723
O16	O	1.942964	0.318273	0.930723
O17	O	1.730150	-0.382310	0.418632
O18	O	2.230150	0.117690	0.918632
O19	O	1.572050	-0.181702	0.559782
O20	O	2.072050	0.318298	1.059782
O21	O	1.435983	-0.295879	0.253511
O22	O	1.935983	0.204121	0.753511
O23	O	1.265711	-0.295824	0.423827
O24	O	1.765711	0.204176	0.923827
O25	O	1.430864	-0.382214	0.717993
O26	O	1.930864	0.117786	1.217993
O27	O	1.260495	-0.382248	0.547660
O28	O	1.760495	0.117752	1.047660
O29	O	1.565166	-0.295765	0.723218
O30	O	2.065166	0.204235	1.223218
O31	O	1.552897	-0.496407	0.411735
O32	O	2.052897	0.003593	0.911735
O33	O	1.423884	-0.496365	0.540781
O34	O	1.923884	0.003635	1.040781
C35	C	1.224982	-0.339034	0.485742
C36	C	1.724982	0.160966	0.985742
C37	C	1.108205	-0.339044	0.485760
C38	C	1.608205	0.160956	0.985760
C39	C	1.056085	-0.294093	0.555774
C40	C	1.556085	0.205907	1.055774
C41	C	0.946360	-0.294107	0.555780
C42	C	1.446360	0.205893	1.055780
C43	C	0.940885	-0.384027	0.415754
C44	C	1.440885	0.115973	0.915754
C45	C	1.050608	-0.384010	0.415744
C46	C	1.550608	0.115990	0.915744
C47	C	1.059245	-0.242180	0.636619
C48	C	1.559245	0.257820	1.136619
C49	C	0.949520	-0.242194	0.636625
C50	C	1.449520	0.257806	1.136625
C51	C	1.486868	-0.521925	0.474739
C52	C	1.986868	-0.021925	0.974739
C53	C	1.482223	-0.600160	0.470062
C54	C	1.982223	-0.100160	0.970062
C55	C	1.547199	-0.636841	0.535113
C56	C	2.047199	-0.136841	1.035113
C57	C	1.542831	-0.710351	0.530719
C58	C	2.042831	-0.210351	1.030719
C59	C	1.473491	-0.747178	0.461269
C60	C	1.973491	-0.247178	0.961269
C61	C	1.408508	-0.710492	0.396216
C62	C	1.908508	-0.210492	0.896216
C63	C	1.412872	-0.636983	0.400615
C64	C	1.912872	-0.136983	0.900615
C65	C	1.453235	-0.967032	0.440906
C66	C	1.953235	-0.467032	0.940906
C67	C	1.448878	-1.040546	0.436509
C68	C	1.948878	-0.540546	0.936509
C69	C	1.583200	-1.040400	0.571015
C70	C	2.083200	-0.540400	1.071015
C71	C	1.587562	-0.966890	0.575403
C72	C	2.087562	-0.466890	1.075403
C73	C	1.522575	-0.930210	0.510354
C74	C	2.022575	-0.430210	1.010354
N75	N	1.469027	-0.822317	0.456775
N76	N	1.969027	-0.322317	0.956775
N77	N	1.527035	-0.855073	0.514854
N78	N	2.027035	-0.355073	1.014854
C79	C	1.771981	-0.339067	0.485770
C80	C	2.271981	0.160933	0.985770
C81	C	1.888757	-0.339075	0.485776
C82	C	2.388757	0.160925	0.985776
C83	C	1.498026	-0.338979	0.759793
C84	C	1.998026	0.161021	1.259793
C85	C	1.498060	-0.338949	0.876572
C86	C	1.998060	0.161051	1.376572
C87	C	1.509101	-0.155462	0.496837
C88	C	2.009101	0.344538	0.996837
C89	C	1.513854	-0.077227	0.501560
C90	C	2.013854	0.422773	1.001560
C91	C	1.497935	-0.339070	0.212787
C92	C	1.997935	0.160930	0.712787
C93	C	1.498117	-0.338902	0.096021
C94	C	1.998117	0.161098	0.596021
C95	C	1.568000	-0.293931	0.934157
C96	C	2.068000	0.206069	1.434157
C97	C	1.568026	-0.293905	1.043882
C98	C	2.068026	0.206095	1.543882
C99	C	1.428169	-0.383923	1.038428
C100	C	1.928169	0.116077	1.538428
C101	C	1.428138	-0.383944	0.928705
C102	C	1.928138	0.116056	1.428705
C103	C	1.648749	-0.241962	0.937306
C104	C	2.148749	0.258038	1.437306
C105	C	1.648775	-0.241937	1.047032
C106	C	2.148775	0.258063	1.547032
H107	H	0.893976	-0.420637	0.358750
H108	H	1.393976	0.079363	0.858750
H109	H	1.400322	-0.937173	0.387938
H110	H	1.900322	-0.437173	0.887938
H111	H	1.595749	-0.740213	0.583683
H112	H	2.095749	-0.240213	1.083683
C113	C	1.351258	-0.433413	1.095785
C114	C	1.851258	0.066587	1.595785
N115	N	1.293327	-0.470691	1.138985
N116	N	1.793327	0.029309	1.638985
H117	H	1.622782	-0.190143	1.084194
H118	H	2.122782	0.309857	1.584194
H119	H	1.093040	-0.420606	0.358723
H120	H	1.593040	0.079394	0.858723
C121	C	1.103902	-0.168507	0.611791
C122	C	1.603902	0.331493	1.111791
N123	N	1.137538	-0.113017	0.593088
N124	N	1.637538	0.386983	1.093088
C125	C	1.663860	-0.926385	0.651785
C126	C	2.163860	-0.426385	1.151785
N127	N	1.721339	-0.895877	0.709307
N128	N	2.221339	-0.395877	1.209307
H129	H	1.352046	-0.740482	0.339672
H130	H	1.852046	-0.240482	0.839672
H131	H	1.092130	-0.261764	0.712680
H132	H	1.592130	0.238236	1.212680
C133	C	1.351183	-0.433457	0.865365
C134	C	1.851183	0.066543	1.365365
N135	N	1.293215	-0.470751	0.817659
N136	N	1.793215	0.029249	1.317659
C137	C	1.654674	-1.080753	0.642571
C138	C	2.154674	-0.580753	1.142571
N139	N	1.708507	-1.111148	0.696475
N140	N	2.208507	-0.611148	1.196475
C141	C	1.341394	-0.596635	0.329053
C142	C	1.841394	-0.096635	0.829053
N143	N	1.287552	-0.566245	0.275152
N144	N	1.787552	-0.066245	0.775152
C145	C	1.623769	-0.168324	0.901529
C146	C	2.123769	0.331676	1.401529
N147	N	1.604952	-0.112862	0.874582
N148	N	2.104952	0.387138	1.374582
C149	C	1.372592	-1.081054	0.360109
C150	C	1.872592	-0.581054	0.860109
N151	N	1.315136	-1.111566	0.302568
N152	N	1.815136	-0.611566	0.802568
C153	C	1.757509	-0.261669	1.086080
C154	C	2.257509	0.238331	1.586080
N155	N	1.839403	-0.276533	1.115490
N156	N	2.339403	0.223467	1.615490
H157	H	1.724843	-0.261505	0.902096
H158	H	2.224843	0.238495	1.402096
H159	H	1.603667	-0.606861	0.591662
H160	H	2.103667	-0.106861	1.091662
H161	H	0.918600	-0.190388	0.610740
H162	H	1.418600	0.309612	1.110740
H163	H	0.918891	-0.256862	0.717079
H164	H	1.418891	0.243138	1.217079
