data_functionalizedCrystal
_audit_creation_method	'MofGen! by Chris Wilmer'
_symmetry_space_group_name_H-M	'P1'
_symmetry_Int_Tables_number	1
_symmetry_cell_setting	triclinic
loop_
_symmetry_equiv_pos_as_xyz
  x,y,z
_cell_length_a	18.050591
_cell_length_b	18.101395
_cell_length_c	18.101389
_cell_angle_alpha	90.016841
_cell_angle_beta	89.974987
_cell_angle_gamma	89.972890
loop_
_atom_site_label
_atom_site_type_symbol
_atom_site_fract_x
_atom_site_fract_y
_atom_site_fract_z
Zn1	Zn	1.135308	0.294986	-0.418860
Zn2	Zn	1.135203	0.418812	-0.295022
Zn3	Zn	1.011118	0.294980	-0.295020
Zn4	Zn	1.011069	0.418782	-0.418809
O5	O	1.073174	0.356890	-0.356928
O6	O	1.239218	0.311427	-0.402455
O7	O	1.118720	0.402395	-0.191389
O8	O	1.027656	0.191348	-0.311468
O9	O	1.239142	0.402401	-0.311472
O10	O	1.118898	0.191352	-0.402453
O11	O	1.027555	0.311417	-0.191387
O12	O	0.907187	0.311387	-0.311419
O13	O	1.027572	0.402350	-0.522449
O14	O	0.907151	0.402344	-0.402366
O15	O	1.118850	0.311398	-0.522487
O16	O	1.118672	0.522441	-0.311422
O17	O	1.027471	0.522419	-0.402368
C18	C	0.880222	0.356862	-0.356887
C19	C	0.797676	0.356868	-0.356887
C20	C	0.598224	0.307349	-0.307544
C21	C	0.548800	0.374893	-0.289321
C22	C	0.646546	0.356891	-0.356921
C23	C	0.548889	0.289370	-0.375142
C24	C	0.500561	0.356907	-0.356952
C25	C	0.598209	0.424471	-0.338662
C26	C	0.598302	0.338902	-0.424515
C27	C	0.548900	0.406493	-0.406317
C28	C	0.730644	0.356881	-0.356901
C29	C	0.416464	0.356924	-0.356971
C30	C	1.073075	0.549301	-0.356906
C31	C	1.073100	0.631615	-0.356922
C32	C	1.073217	0.356871	-0.550090
C33	C	1.073236	0.356863	-0.632404
C34	C	1.266880	0.356918	-0.356970
C35	C	1.349426	0.356930	-0.356987
C36	C	1.073294	0.163728	-0.356966
C37	C	1.073345	0.081414	-0.356982
C38	C	1.073263	0.930706	-0.356962
C39	C	1.016015	0.899397	-0.414324
C40	C	1.015743	0.813779	-0.414145
C41	C	1.073182	0.782323	-0.356942
C42	C	1.051994	0.813459	-0.278891
C43	C	1.051625	0.899104	-0.279234
C44	C	1.151826	0.899058	-0.376964
C45	C	1.151364	0.813408	-0.378675
C46	C	1.073138	0.698464	-0.356927
C47	C	1.073306	1.014565	-0.356972
C48	C	1.073279	0.356724	-0.931495
C49	C	1.015652	0.413767	-0.900146
C50	C	1.015807	0.414032	-0.814528
C51	C	1.073257	0.356793	-0.783113
C52	C	1.151502	0.377983	-0.814220
C53	C	1.151181	0.378357	-0.899865
C54	C	1.053341	0.278365	-0.899917
C55	C	1.051600	0.278818	-0.814266
C56	C	1.073249	0.356831	-0.699253
C57	C	1.073292	0.356689	-1.015355
C58	C	1.073174	0.356855	-0.164518
C59	C	1.073300	0.356655	-0.082204
H60	H	1.029000	0.792727	-0.472019
Cl61	Cl	1.178051	0.465482	-0.781121
H62	H	1.029140	0.919956	-0.472386
Cl63	Cl	1.113199	0.931085	-0.210991
H64	H	1.167342	0.793056	-0.436117
H65	H	0.997277	0.259061	-0.921502
H66	H	1.196273	0.791991	-0.339941
Cl67	Cl	0.925796	0.393502	-0.931920
Cl68	Cl	0.515670	0.471259	-0.470807
H69	H	0.620063	0.323654	-0.481647
H70	H	1.028970	0.472114	-0.794048
Cl71	Cl	1.111683	0.209716	-0.781262
H72	H	1.194478	0.919304	-0.335184
H73	H	1.168082	0.435639	-0.919850
H74	H	0.994019	0.262839	-0.793933
Cl75	Cl	1.118144	0.212749	-0.931219
H76	H	1.028684	0.471495	-0.921674
Cl77	Cl	0.515228	0.398404	-0.201088
Cl78	Cl	0.631664	0.242734	-0.243009
Cl79	Cl	1.219678	0.316956	-0.931889
Cl80	Cl	0.631513	0.512667	-0.314785
H81	H	0.527185	0.232269	-0.390515
H82	H	0.958137	0.920977	-0.401241
H83	H	0.957511	0.793350	-0.400895
Cl84	Cl	0.962960	0.930041	-0.253077
H85	H	1.092379	0.793083	-0.234985
Cl86	Cl	0.964265	0.780438	-0.252263
Cl87	Cl	0.926227	0.393556	-0.782050
H88	H	1.195591	0.337741	-0.793873
H89	H	1.171144	0.920618	-0.432909
