data_functionalizedCrystal
_audit_creation_method	'MofGen! by Chris Wilmer'
_symmetry_space_group_name_H-M	'P1'
_symmetry_Int_Tables_number	1
_symmetry_cell_setting	triclinic
loop_
_symmetry_equiv_pos_as_xyz
  x,y,z
_cell_length_a	10.654541
_cell_length_b	10.540535
_cell_length_c	9.130307
_cell_angle_alpha	89.995336
_cell_angle_beta	89.999822
_cell_angle_gamma	84.503785
loop_
_atom_site_label
_atom_site_type_symbol
_atom_site_fract_x
_atom_site_fract_y
_atom_site_fract_z
O1	O	1.667899	0.178284	-0.121760
O2	O	1.302425	0.195275	-0.121773
O3	O	1.493503	0.002070	-0.121751
O4	O	1.476821	0.371490	-0.121781
O5	O	1.493497	0.002068	0.121848
O6	O	1.302419	0.195273	0.121826
O7	O	1.667892	0.178282	0.121839
Cu8	Cu	1.485155	0.186778	0.144075
Cu9	Cu	1.485162	0.186780	-0.144009
O10	O	1.476815	0.371488	0.121818
C11	C	1.255624	0.194027	0.000025
C12	C	1.116179	0.190297	0.000021
C13	C	1.492250	-0.045234	0.000049
C14	C	1.488511	-0.186181	0.000051
C15	C	1.088286	0.421326	-0.000017
C16	C	1.008829	0.535083	-0.000041
C17	C	0.877810	0.531570	-0.000042
C18	C	0.826246	0.414287	-0.000014
C19	C	0.905702	0.300531	0.000010
C20	C	1.036722	0.304056	0.000007
C21	C	0.933595	0.069504	0.000058
C22	C	1.064614	0.073014	0.000048
C23	C	0.882030	-0.047778	0.000085
C24	C	0.961487	-0.161538	0.000099
C25	C	1.092513	-0.158020	0.000099
C26	C	1.144070	-0.040743	0.000073
C27	C	1.349001	-0.222800	0.000035
C28	C	1.345066	-0.369399	-0.000544
C29	C	1.552198	-0.395528	-0.138816
C30	C	1.555167	-0.248764	-0.138907
C31	C	1.557189	-0.248905	0.138121
C32	C	1.550737	-0.395249	0.139919
C33	C	1.714694	0.179530	0.000038
C34	C	1.854139	0.183261	0.000033
C35	C	1.478068	0.418791	0.000014
C36	C	1.481807	0.559738	0.000003
N37	N	1.485159	0.186775	0.346698
N38	N	1.485168	0.186772	-0.346631
C39	C	1.654428	0.015742	0.346707
C40	C	1.739071	-0.069771	0.423379
C41	C	1.739083	-0.069771	0.576712
C42	C	1.654441	0.015747	0.653378
C43	C	1.569799	0.101260	0.576706
C44	C	1.569798	0.101254	0.423370
C45	C	1.400526	0.272285	0.576697
C46	C	1.400517	0.272294	0.423364
C47	C	1.315884	0.357804	0.653363
C48	C	1.231245	0.443325	0.576691
C49	C	1.231237	0.443323	0.423349
C50	C	1.315874	0.357807	0.346692
H51	H	1.194967	0.424198	-0.000048
F52	F	0.793245	0.652641	-0.000056
H53	H	1.315880	0.357802	0.221840
H54	H	1.654447	0.015731	0.778230
F55	F	1.489085	-0.435882	-0.274386
H56	H	1.659830	-0.226747	0.139478
H57	H	1.295424	-0.180819	0.099576
F58	F	1.141166	0.534323	0.658290
H59	H	0.919491	-0.257020	0.000120
F60	F	1.063717	0.659897	-0.000070
F61	F	0.742587	-0.051514	0.000092
F62	F	1.177068	-0.279099	0.000135
F63	F	1.283511	-0.036989	0.000064
F64	F	1.141140	0.534333	0.341762
F65	F	1.681215	-0.459334	0.151386
F66	F	0.686802	0.410554	0.000007
F67	F	1.273106	-0.407734	0.129495
F68	F	1.683796	-0.457470	-0.145056
H69	H	1.296327	-0.179315	-0.099373
F70	F	1.315891	0.357797	0.816554
H71	H	1.290295	-0.397823	-0.100657
H72	H	1.507634	-0.208566	-0.243079
H73	H	1.657439	-0.225770	-0.144815
F74	F	1.500284	-0.193402	0.275709
H75	H	1.808002	-0.139408	0.639138
H76	H	1.807983	-0.139402	0.360944
H77	H	1.499513	-0.423845	0.242620
F78	F	1.654437	0.015748	0.183516
