data_functionalizedCrystal
_audit_creation_method	'MofGen! by Chris Wilmer'
_symmetry_space_group_name_H-M	'P1'
_symmetry_Int_Tables_number	1
_symmetry_cell_setting	triclinic
loop_
_symmetry_equiv_pos_as_xyz
  x,y,z
_cell_length_a	16.992694
_cell_length_b	16.109301
_cell_length_c	15.455313
_cell_angle_alpha	87.337130
_cell_angle_beta	87.142206
_cell_angle_gamma	92.935148
loop_
_atom_site_label
_atom_site_type_symbol
_atom_site_fract_x
_atom_site_fract_y
_atom_site_fract_z
O1	O	1.043779	-0.172886	-0.072027
O2	O	1.543779	0.327114	0.427973
O3	O	0.815495	-0.170951	-0.072052
O4	O	1.315495	0.329049	0.427948
O5	O	0.935908	-0.051306	-0.072030
O6	O	1.435908	0.448694	0.427970
O7	O	0.923366	-0.292530	-0.072049
O8	O	1.423366	0.207470	0.427951
O9	O	0.929022	-0.058118	0.072231
O10	O	1.429022	0.441882	0.572231
O11	O	0.808610	-0.177762	0.072209
O12	O	1.308610	0.322238	0.572209
O13	O	1.036893	-0.179698	0.072234
O14	O	1.536893	0.320302	0.572234
Cu15	Cu	0.922123	-0.179352	0.085394
Cu16	Cu	1.422123	0.320648	0.585394
Cu17	Cu	0.930266	-0.171296	-0.085211
Cu18	Cu	1.430266	0.328704	0.414789
O19	O	0.916481	-0.299342	0.072212
O20	O	1.416481	0.200658	0.572212
C21	C	0.782841	-0.171868	0.000075
C22	C	1.282841	0.328132	0.500075
C23	C	0.695799	-0.164444	0.000066
C24	C	1.195799	0.335556	0.500066
C25	C	0.645540	-0.236070	0.000061
C26	C	1.145540	0.263930	0.500061
C27	C	0.563755	-0.229091	0.000073
C28	C	1.063755	0.270909	0.500073
C29	C	0.532230	-0.150485	0.000085
C30	C	1.032230	0.349515	0.500085
C31	C	0.582495	-0.078853	0.000092
C32	C	1.082495	0.421147	0.500092
C33	C	0.664278	-0.085834	0.000086
C34	C	1.164278	0.414166	0.500086
C35	C	0.288638	-0.121553	0.000110
C36	C	0.788638	0.378447	0.500110
C37	C	0.206849	-0.114578	0.000114
C38	C	0.706849	0.385422	0.500114
C39	C	0.188114	-0.264816	0.000097
C40	C	0.688114	0.235184	0.500097
C41	C	0.269900	-0.271789	0.000085
C42	C	0.769900	0.228211	0.500085
C43	C	0.320158	-0.200158	0.000097
C44	C	0.820158	0.299842	0.500097
N45	N	0.448632	-0.143348	0.000095
N46	N	0.948632	0.356652	0.500095
N47	N	0.403753	-0.207296	0.000093
N48	N	0.903753	0.292704	0.500093
C49	C	0.931957	-0.023703	0.000101
C50	C	1.431957	0.476297	0.500101
C51	C	0.930434	0.068694	0.000102
C52	C	1.430434	0.568694	0.500102
C53	C	1.069548	-0.178780	0.000105
C54	C	1.569548	0.321220	0.500105
C55	C	1.156590	-0.186203	0.000109
C56	C	1.656590	0.313797	0.500109
C57	C	0.920432	-0.326945	0.000079
C58	C	1.420432	0.173055	0.500079
C59	C	0.921955	-0.419342	0.000073
C60	C	1.421955	0.080658	0.500073
N61	N	0.916401	-0.185018	0.205388
N62	N	1.416401	0.314982	0.705388
C63	C	0.998343	0.286435	0.000096
C64	C	1.498343	0.786435	0.500096
C65	C	0.996906	0.373251	0.000089
C66	C	1.496906	0.873251	0.500089
C67	C	0.854040	0.362911	0.000076
C68	C	1.354040	0.862911	0.500076
C69	C	0.855478	0.276096	0.000077
C70	C	1.355478	0.776096	0.500077
C71	C	0.927632	0.237860	0.000092
C72	C	1.427632	0.737860	0.500092
C73	C	0.924757	0.411492	0.000083
C74	C	1.424757	0.911492	0.500083
C75	C	0.923198	0.505622	0.000075
C76	C	1.423198	1.005622	0.500075
C77	C	0.929191	0.143724	0.000098
C78	C	1.429191	0.643724	0.500098
N79	N	0.935994	-0.165624	-0.205206
N80	N	1.435994	0.334376	0.294794
C81	C	0.967574	-0.134210	0.250792
C82	C	1.467574	0.365790	0.750792
C83	C	0.963254	-0.138503	0.341599
C84	C	1.463254	0.361497	0.841599
C85	C	0.907764	-0.193608	0.387001
C86	C	1.407764	0.306392	0.887001
C87	C	0.856586	-0.244419	0.341591
C88	C	1.356586	0.255581	0.841591
C89	C	0.860902	-0.240121	0.250785
C90	C	1.360902	0.259879	0.750785
C91	C	0.889132	-0.212137	0.658579
C92	C	1.389132	0.287863	1.158579
C93	C	0.884821	-0.216432	0.749391
C94	C	1.384821	0.283568	1.249391
C95	C	0.991489	-0.110515	0.749392
C96	C	1.491489	0.389485	1.249392
C97	C	0.995804	-0.106226	0.658585
C98	C	1.495804	0.393774	1.158585
C99	C	0.944622	-0.157033	0.613183
C100	C	1.444622	0.342967	1.113183
N101	N	0.903349	-0.198000	0.479820
N102	N	1.403349	0.302000	0.979820
N103	N	0.949034	-0.152637	0.520365
N104	N	1.449034	0.347363	1.020365
H105	H	0.671201	-0.300080	0.000051
H106	H	1.171201	0.199920	0.500051
H107	H	0.181185	-0.050564	0.000122
H108	H	0.681185	0.449436	0.500122
H109	H	0.795295	0.394053	0.000066
H110	H	1.295295	0.894053	0.500066
H111	H	0.819231	-0.281493	0.213819
H112	H	1.319231	0.218507	0.713819
H113	H	1.033157	-0.069149	0.786367
H114	H	1.533157	0.430851	1.286367
H115	H	1.054487	0.412797	0.000090
H116	H	1.554487	0.912797	0.500090
H117	H	1.057095	0.255306	0.000106
H118	H	1.557095	0.755306	0.500106
H119	H	0.147186	-0.323133	0.000088
H120	H	0.647186	0.176867	0.500088
H121	H	0.811401	-0.289284	0.378562
H122	H	1.311401	0.210716	0.878562
H123	H	0.522837	-0.287416	0.000068
H124	H	1.022837	0.212584	0.500068
H125	H	0.797893	0.236545	0.000071
H126	H	1.297893	0.736545	0.500071
N127	N	1.027429	-0.074779	0.201826
N128	N	1.527429	0.425221	0.701826
H129	H	1.059190	-0.043243	0.244371
H130	H	1.559190	0.456757	0.744371
H131	H	0.999216	-0.034228	0.164161
H132	H	1.499216	0.465772	0.664161
N133	N	0.303887	-0.356579	0.000079
N134	N	0.803887	0.143421	0.500079
H135	H	0.334857	-0.365353	0.053553
H136	H	0.834857	0.134647	0.553553
H137	H	0.339907	-0.360248	-0.053438
H138	H	0.839907	0.139752	0.446562
H139	H	0.839632	-0.261309	0.786353
H140	H	1.339632	0.238691	1.286353
N141	N	0.342838	-0.044298	0.000129
N142	N	0.842838	0.455702	0.500129
H143	H	0.310455	0.006556	0.000136
H144	H	0.810455	0.506556	0.500136
H145	H	0.379729	-0.041389	-0.053349
H146	H	0.879729	0.458611	0.446651
N147	N	1.055661	-0.046797	0.609621
N148	N	1.555661	0.453203	1.109621
H149	H	1.050636	-0.051790	0.545206
H150	H	1.550636	0.448210	1.045206
H151	H	1.110519	-0.060898	0.625492
H152	H	1.610519	0.439102	1.125492
N153	N	1.018475	-0.083733	0.390571
N154	N	1.518475	0.416267	0.890571
H155	H	1.054295	-0.048187	0.348030
H156	H	1.554295	0.451813	0.848030
H157	H	1.051321	-0.119703	0.428219
H158	H	1.551321	0.380297	0.928219
N159	N	0.833926	-0.266937	0.609627
N160	N	1.333926	0.233063	1.109627
H161	H	0.842187	-0.327297	0.625418
H162	H	1.342187	0.172703	1.125418
H163	H	0.845096	-0.255788	0.545227
H164	H	1.345096	0.244212	1.045227
N165	N	0.548488	0.005926	0.000115
N166	N	1.048488	0.505926	0.500115
H167	H	0.517519	0.014699	-0.053360
H168	H	1.017519	0.514699	0.446640
H169	H	0.592777	0.050192	0.000154
H170	H	1.092777	0.550192	0.500154
N171	N	0.718490	-0.008582	0.000098
N172	N	1.218490	0.491418	0.500098
H173	H	0.686110	0.042275	0.000105
H174	H	1.186110	0.542275	0.500105
H175	H	0.755378	-0.005676	-0.053381
H176	H	1.255378	0.494324	0.446619
