data_functionalizedCrystal
_audit_creation_method	'MofGen! by Chris Wilmer'
_symmetry_space_group_name_H-M	'P1'
_symmetry_Int_Tables_number	1
_symmetry_cell_setting	triclinic
loop_
_symmetry_equiv_pos_as_xyz
  x,y,z
_cell_length_a	10.540539
_cell_length_b	16.109318
_cell_length_c	15.186229
_cell_angle_alpha	90.000224
_cell_angle_beta	89.998389
_cell_angle_gamma	83.997027
loop_
_atom_site_label
_atom_site_type_symbol
_atom_site_fract_x
_atom_site_fract_y
_atom_site_fract_z
O1	O	0.163264	1.104120	-0.073151
O2	O	0.183546	0.862184	-0.073168
O3	O	-0.011380	0.988672	-0.073158
O4	O	0.358189	0.977632	-0.073161
O5	O	-0.011383	0.988663	0.073299
O6	O	0.183543	0.862175	0.073289
O7	O	0.163261	1.104111	0.073306
Zn8	Zn	0.173401	0.983142	0.096551
Zn9	Zn	0.173405	0.983153	-0.096413
O10	O	0.358186	0.977624	0.073296
C11	C	0.182719	0.831200	0.000058
C12	C	0.180244	0.738890	0.000051
C13	C	0.172253	0.439772	-0.079767
C14	C	0.174570	0.526508	-0.079772
C15	C	0.174549	0.526517	0.079903
C16	C	0.172224	0.439784	0.079908
C17	C	0.171082	0.396413	0.000070
C18	C	0.175724	0.569882	0.000060
C19	C	0.178236	0.663924	0.000055
C20	C	0.168567	0.302365	0.000075
C21	C	-0.058673	0.987839	0.000069
C22	C	-0.199586	0.985363	0.000064
C23	C	-0.381669	0.890454	-0.000272
C24	C	-0.235086	0.892964	0.000058
C25	C	-0.261875	1.029824	0.083701
C26	C	-0.408374	1.026671	0.083772
C27	C	-0.408916	1.028559	-0.082778
C28	C	-0.261946	1.029411	-0.083883
C29	C	0.405479	0.978456	0.000067
C30	C	0.546392	0.980933	0.000066
C31	C	0.164088	1.135095	0.000078
C32	C	0.166562	1.227405	0.000079
N33	N	0.173398	0.983141	0.228243
N34	N	0.173398	0.983161	-0.228106
C35	C	0.087114	1.039169	0.453971
C36	C	0.087111	1.039171	0.546160
C37	C	0.259686	0.927127	0.546161
C38	C	0.259682	0.927121	0.453973
C39	C	0.173398	0.983147	0.407880
C40	C	0.173399	0.983155	0.592258
C41	C	0.173396	0.983158	0.692214
C42	C	0.173398	0.983143	0.307918
H43	H	-0.191986	0.857980	-0.059897
C44	C	0.354592	0.865501	0.596871
N45	N	0.426076	0.819083	0.635065
H46	H	0.329945	0.881498	0.416443
C47	C	-0.230524	1.120423	-0.090697
N48	N	-0.206862	1.188977	-0.095821
H49	H	0.175522	0.561807	-0.144784
C50	C	0.170946	0.392086	0.167739
N51	N	0.169984	0.356159	0.233891
C52	C	0.175873	0.574228	0.167720
N53	N	0.176895	0.610160	0.233866
H54	H	0.016854	1.084787	0.416444
C55	C	0.170981	0.392069	-0.167591
N56	N	0.170017	0.356142	-0.233742
H57	H	-0.409751	0.853958	-0.060250
C58	C	-0.421743	0.841349	0.080314
N59	N	-0.451917	0.804369	0.141018
H60	H	-0.192832	0.857727	0.060108
H61	H	0.016850	1.084788	0.583685
H62	H	-0.436110	0.993804	0.146288
C63	C	-0.474452	1.116441	0.088917
N64	N	-0.524216	1.184055	0.092799
H65	H	-0.457087	1.095298	-0.083335
H66	H	-0.240482	1.097679	0.086816
C67	C	-0.203746	0.988086	0.167781
N68	N	-0.159967	0.956643	0.231108
C69	C	-0.206052	0.985504	-0.167474
N70	N	-0.163956	0.952425	-0.230433
H71	H	-0.440044	0.998658	-0.146169
