data_functionalizedCrystal
_audit_creation_method	'MofGen! by Chris Wilmer'
_symmetry_space_group_name_H-M	'P1'
_symmetry_Int_Tables_number	1
_symmetry_cell_setting	triclinic
loop_
_symmetry_equiv_pos_as_xyz
  x,y,z
_cell_length_a	29.839135
_cell_length_b	29.839131
_cell_length_c	12.759387
_cell_angle_alpha	89.955090
_cell_angle_beta	89.973869
_cell_angle_gamma	90.037758
loop_
_atom_site_label
_atom_site_type_symbol
_atom_site_fract_x
_atom_site_fract_y
_atom_site_fract_z
Zn1	Zn	0.686786	-0.178799	-0.594060
Zn2	Zn	0.686712	-0.253937	-0.418337
Zn3	Zn	0.611655	-0.178825	-0.418379
Zn4	Zn	0.611625	-0.253906	-0.593959
O5	O	0.649195	-0.216367	-0.506184
O6	O	0.749644	-0.188768	-0.570774
O7	O	0.676738	-0.243997	-0.271321
O8	O	0.621665	-0.115955	-0.441744
O9	O	0.749589	-0.243972	-0.441671
O10	O	0.676863	-0.115936	-0.570815
O11	O	0.621593	-0.188812	-0.271352
O12	O	0.548784	-0.188783	-0.441646
O13	O	0.621613	-0.243920	-0.740993
O14	O	0.548762	-0.243945	-0.570643
O15	O	0.676834	-0.188739	-0.741067
O16	O	0.676708	-0.316800	-0.441573
O17	O	0.621542	-0.316778	-0.570602
C18	C	0.532472	-0.216363	-0.506139
C19	C	0.482538	-0.216373	-0.506144
C20	C	0.172919	-0.187666	-0.573506
C21	C	-0.014754	-0.187669	-0.573536
O22	O	-0.038997	-0.163251	-0.630760
N23	N	-0.038247	-0.216367	-0.506222
C24	C	-0.014820	-0.245065	-0.438891
O25	O	-0.039109	-0.269471	-0.381629
C26	C	0.172852	-0.245059	-0.438856
C27	C	0.196343	-0.216362	-0.506183
C28	C	0.196411	-0.158971	-0.640826
C29	C	0.243326	-0.158972	-0.640822
C30	C	0.266750	-0.187669	-0.573498
C31	C	0.243259	-0.216363	-0.506178
C32	C	0.196278	-0.273754	-0.371521
C33	C	0.243199	-0.273749	-0.371516
C34	C	0.266691	-0.245052	-0.438842
C35	C	0.313598	-0.245061	-0.438850
N36	N	0.337092	-0.216363	-0.506165
C37	C	0.313668	-0.187667	-0.573488
C38	C	-0.113351	-0.245066	-0.438915
C39	C	-0.160269	-0.245068	-0.438925
C40	C	-0.160199	-0.187672	-0.573569
C41	C	-0.113280	-0.187673	-0.573564
C42	C	-0.089857	-0.216368	-0.506229
C43	C	0.412194	-0.187672	-0.573475
C44	C	0.459114	-0.187677	-0.573468
C45	C	0.459040	-0.245071	-0.438821
C46	C	0.412124	-0.245068	-0.438831
C47	C	0.388703	-0.216364	-0.506162
O48	O	0.337871	-0.269462	-0.381648
O49	O	0.337966	-0.163257	-0.630725
C50	C	0.126004	-0.187665	-0.573511
C51	C	0.102513	-0.216360	-0.506191
C52	C	0.125937	-0.245056	-0.438867
C53	C	0.055595	-0.216362	-0.506200
C54	C	0.032171	-0.187666	-0.573524
C55	C	0.055665	-0.158967	-0.640839
C56	C	0.102580	-0.158969	-0.640834
C57	C	0.102443	-0.273754	-0.371553
C58	C	0.055527	-0.273751	-0.371563
C59	C	0.032103	-0.245055	-0.438887
C60	C	0.649126	-0.333090	-0.506095
C61	C	0.649138	-0.383024	-0.506092
C62	C	0.677930	-0.692623	-0.573487
C63	C	0.677979	-0.880296	-0.573550
O64	O	0.702392	-0.904522	-0.630786
N65	N	0.649271	-0.903809	-0.506300
C66	C	0.620547	-0.880401	-0.439035
O67	O	0.596126	-0.904707	-0.381844
C68	C	0.620496	-0.692729	-0.438978
C69	C	0.649209	-0.669218	-0.506224
C70	C	0.706641	-0.669112	-0.640729
C71	C	0.706630	-0.622196	-0.640709
C72	C	0.677909	-0.598792	-0.573446
C73	C	0.649198	-0.622303	-0.506204
C74	C	0.591769	-0.669322	-0.371718
C75	C	0.591759	-0.622401	-0.371712
C76	C	0.620472	-0.598890	-0.438958
C77	C	0.620466	-0.551983	-0.438921
N78	N	0.649174	-0.528469	-0.506171
C79	C	0.677896	-0.551874	-0.573433
C80	C	0.620576	-0.978932	-0.439068
C81	C	0.620589	-1.025850	-0.439081
C82	C	0.678021	-1.025741	-0.573598
C83	C	0.678010	-0.978822	-0.573579
C84	C	0.649284	-0.955418	-0.506318
C85	C	0.677871	-0.453348	-0.573384
C86	C	0.677859	-0.406428	-0.573355
C87	C	0.620426	-0.406541	-0.438842
C88	C	0.620439	-0.453457	-0.438867
C89	C	0.649163	-0.476859	-0.506147
O90	O	0.596062	-0.527727	-0.381723
O91	O	0.702305	-0.527560	-0.630632
C92	C	0.677941	-0.739538	-0.573507
C93	C	0.649231	-0.763049	-0.506265
C94	C	0.620509	-0.739645	-0.439003
C95	C	0.649244	-0.809967	-0.506278
C96	C	0.677965	-0.833371	-0.573541
C97	C	0.706673	-0.809858	-0.640791
C98	C	0.706662	-0.762942	-0.640770
C99	C	0.591801	-0.763158	-0.371753
C100	C	0.591815	-0.810073	-0.371778
C101	C	0.620536	-0.833478	-0.439041
C102	C	0.766373	-0.216371	-0.506229
C103	C	0.816307	-0.216372	-0.506249
C104	C	0.649229	-0.216323	-0.780217
C105	C	0.649243	-0.216304	-0.896994
C106	C	0.649276	-0.099189	-0.506296
C107	C	0.649310	-0.049254	-0.506343
C108	C	0.706748	-0.158848	-0.897091
C109	C	0.735507	-0.130113	-0.952000
C110	C	0.735518	-0.130097	-1.061722
C111	C	0.706766	-0.158818	-1.116537
C112	C	0.678007	-0.187552	-1.061628
C113	C	0.678000	-0.187566	-0.951903
C114	C	0.620500	-0.245005	-1.061531
C115	C	0.620491	-0.245025	-0.951809
C116	C	0.591748	-0.273726	-1.116346
C117	C	0.562991	-0.302463	-1.061436
C118	C	0.562982	-0.302479	-0.951708
C119	C	0.591732	-0.273759	-0.896900
C120	C	0.649187	-0.216378	-0.233216
C121	C	0.649259	-0.216271	-0.116440
H122	H	0.478120	-0.268436	-0.384009
H123	H	0.706774	-0.158798	-1.205878
H124	H	0.730043	-0.743803	-0.695529
C125	C	0.531367	-0.334053	-1.121731
C126	C	0.531375	-0.334032	-1.242422
C127	C	0.499750	-0.365622	-1.302721
C128	C	0.468117	-0.397233	-1.242331
C129	C	0.468108	-0.397255	-1.121634
C130	C	0.499733	-0.365664	-1.061334
H131	H	0.554792	-0.310631	-1.287132
H132	H	0.499757	-0.365606	-1.392069
H133	H	0.444707	-0.420618	-1.286968
H134	H	0.444691	-0.420656	-1.076923
H135	H	0.499726	-0.365681	-0.971986
H136	H	0.730009	-0.603056	-0.695470
C137	C	0.128416	-0.127399	-0.714891
C138	C	0.121981	-0.131124	-0.834309
C139	C	0.147812	-0.099551	-0.908369
C140	C	0.180078	-0.064253	-0.863011
C141	C	0.186514	-0.060526	-0.743587
C142	C	0.160683	-0.092099	-0.669527
H143	H	0.098095	-0.157255	-0.867891
H144	H	0.143048	-0.102310	-0.996775
H145	H	0.199200	-0.040881	-0.917835
H146	H	0.210400	-0.034395	-0.710005
H147	H	0.165447	-0.089340	-0.581121
H148	H	0.568365	-0.603348	-0.316941
H149	H	-0.179391	-0.268441	-0.384113
C150	C	0.531346	-0.334088	-0.891309
C151	C	0.480279	-0.330413	-0.906369
C152	C	0.448643	-0.362023	-0.845974
C153	C	0.468075	-0.397308	-0.770520
C154	C	0.519145	-0.400985	-0.755457
C155	C	0.550780	-0.369376	-0.815852
H156	H	0.465892	-0.304291	-0.962228
H157	H	0.410838	-0.359300	-0.857125
H158	H	0.444656	-0.420708	-0.725812
H159	H	0.533531	-0.427107	-0.699598
H160	H	0.588586	-0.372098	-0.804701
H161	H	0.478238	-0.164308	-0.628297
C162	C	0.386279	-0.276636	-0.364782
C163	C	0.354023	-0.257125	-0.282388
C164	C	0.328181	-0.288691	-0.208331
C165	C	0.334595	-0.339767	-0.216668
C166	C	0.366854	-0.359281	-0.299066
C167	C	0.392696	-0.327716	-0.373123
H168	H	0.349273	-0.219313	-0.276213
H169	H	0.304301	-0.274245	-0.147335
H170	H	0.315466	-0.363134	-0.161847
H171	H	0.371604	-0.397093	-0.305241
H172	H	0.416575	-0.342161	-0.434119
H173	H	0.393130	-0.164297	-0.628299
C174	C	0.709614	-1.051490	-0.647593
C175	C	0.744902	-1.083733	-0.602164
C176	C	0.776491	-1.109485	-0.676161
C177	C	0.772791	-1.102994	-0.795587
C178	C	0.737501	-1.070750	-0.841022
C179	C	0.705912	-1.044998	-0.767025
H180	H	0.747642	-1.088539	-0.513752
H181	H	0.802614	-1.133354	-0.642526
H182	H	0.796174	-1.122057	-0.850363
H183	H	0.734761	-1.065943	-0.929433
H184	H	0.679788	-1.021129	-0.800660
H185	H	0.262449	-0.135604	-0.695644
C186	C	0.767153	-0.098490	-1.122129
C187	C	0.798778	-0.066898	-1.061846
C188	C	0.830413	-0.035292	-1.122253
C189	C	0.830423	-0.035277	-1.242943
C190	C	0.798796	-0.066870	-1.303233
C191	C	0.767161	-0.098476	-1.242826
H192	H	0.798772	-0.066908	-0.972498
H193	H	0.853825	-0.011905	-1.077622
H194	H	0.853841	-0.011880	-1.287660
H195	H	0.798802	-0.066860	-1.392581
H196	H	0.743749	-0.121863	-1.287457
H197	H	-0.094284	-0.268435	-0.384080
H198	H	0.591758	-0.273709	-1.205687
H199	H	0.591729	-0.273771	-0.807558
C200	C	0.170448	-0.305319	-0.297450
C201	C	0.138192	-0.285809	-0.215052
C202	C	0.112363	-0.317375	-0.140972
C203	C	0.118789	-0.368451	-0.149290
C204	C	0.151047	-0.387963	-0.231692
C205	C	0.176876	-0.356397	-0.305772
H206	H	0.133433	-0.247998	-0.208891
H207	H	0.088484	-0.302931	-0.079973
H208	H	0.099669	-0.391818	-0.094452
H209	H	0.155805	-0.425775	-0.237853
H210	H	0.200755	-0.370841	-0.366771
H211	H	0.177344	-0.135601	-0.695650
H212	H	0.597183	-0.959880	-0.384293
C213	C	-0.087441	-0.156103	-0.647615
C214	C	-0.055179	-0.175605	-0.730008
C215	C	-0.029343	-0.144032	-0.804060
C216	C	-0.035769	-0.092958	-0.795718
C217	C	-0.068033	-0.073453	-0.713321
C218	C	-0.093869	-0.105025	-0.639269
H219	H	-0.050421	-0.213416	-0.736187
H220	H	-0.005459	-0.158472	-0.865056
H221	H	-0.016644	-0.069586	-0.850535
H222	H	-0.072791	-0.035641	-0.707142
H223	H	-0.117753	-0.090586	-0.578273
C224	C	0.029690	-0.305321	-0.297498
C225	C	0.036125	-0.301589	-0.178081
C226	C	0.010290	-0.333154	-0.104011
C227	C	-0.021979	-0.368452	-0.149357
C228	C	-0.028415	-0.372185	-0.268780
C229	C	-0.002580	-0.340620	-0.342851
H230	H	0.060014	-0.275458	-0.144507
H231	H	0.015055	-0.330390	-0.015606
H232	H	-0.041104	-0.391819	-0.094526
H233	H	-0.052304	-0.398316	-0.302354
H234	H	-0.007345	-0.343384	-0.431256
C235	C	0.709443	-0.380567	-0.647336
C236	C	0.741033	-0.406315	-0.721328
C237	C	0.772615	-0.380456	-0.795308
C238	C	0.772607	-0.328848	-0.795296
C239	C	0.741017	-0.303097	-0.721301
C240	C	0.709435	-0.328956	-0.647321
H241	H	0.741039	-0.444521	-0.721339
H242	H	0.796000	-0.399519	-0.850084
H243	H	0.795986	-0.309705	-0.850061
H244	H	0.741010	-0.264891	-0.721290
H245	H	0.686049	-0.309893	-0.592545
H246	H	0.121510	-0.297122	-0.316727
H247	H	-0.179279	-0.164307	-0.628388
C248	C	0.709470	-0.479086	-0.647386
C249	C	0.760541	-0.472587	-0.638914
C250	C	0.792141	-0.498325	-0.712908
C251	C	0.772671	-0.530562	-0.795374
C252	C	0.721598	-0.537063	-0.803849
C253	C	0.689997	-0.511325	-0.729855
H254	H	0.774956	-0.448722	-0.577865
H255	H	0.829949	-0.493513	-0.706634
H256	H	0.796064	-0.549615	-0.850149
H257	H	0.707182	-0.560928	-0.864898
H258	H	0.652189	-0.516137	-0.736129
C259	C	0.738240	-0.694850	-0.714722
C260	C	0.789310	-0.688345	-0.706247
C261	C	0.820915	-0.714079	-0.780239
C262	C	0.801450	-0.746320	-0.862704
C263	C	0.750377	-0.752827	-0.871182
C264	C	0.718772	-0.727092	-0.797191
H265	H	0.803721	-0.664478	-0.645198
H266	H	0.858722	-0.709262	-0.773962
H267	H	0.824845	-0.765370	-0.917477
H268	H	0.735965	-0.776694	-0.932231
H269	H	0.680965	-0.731909	-0.803467
C270	C	0.709592	-0.952962	-0.647557
C271	C	0.760667	-0.959371	-0.639102
C272	C	0.792249	-0.933514	-0.713085
C273	C	0.772757	-0.901247	-0.795523
C274	C	0.721679	-0.894837	-0.803981
C275	C	0.690097	-0.920694	-0.729998
H276	H	0.775098	-0.983258	-0.578074
H277	H	0.830060	-0.938259	-0.706824
H278	H	0.796136	-0.882106	-0.850290
H279	H	0.707247	-0.870950	-0.865009
H280	H	0.652285	-0.915949	-0.736260
C281	C	0.589007	-1.051708	-0.365100
C282	C	0.592695	-1.045296	-0.245671
C283	C	0.561109	-1.071152	-0.171694
C284	C	0.525835	-1.103421	-0.217145
C285	C	0.522145	-1.109834	-0.336580
C286	C	0.553731	-1.083978	-0.410558
H287	H	0.618809	-1.021408	-0.212020
H288	H	0.563841	-1.066404	-0.083280
H289	H	0.502453	-1.122561	-0.162383
H290	H	0.496032	-1.133722	-0.370232
H291	H	0.550999	-1.088726	-0.498972
H292	H	0.262268	-0.297116	-0.316681
C293	C	0.560178	-0.695174	-0.297755
C294	C	0.563857	-0.688761	-0.178324
C295	C	0.532260	-0.714611	-0.104360
C296	C	0.496984	-0.746873	-0.149826
C297	C	0.493303	-0.753288	-0.269262
C298	C	0.524900	-0.727438	-0.343227
H299	H	0.589972	-0.664877	-0.144662
H300	H	0.534985	-0.709862	-0.015945
H301	H	0.473594	-0.766009	-0.095073
H302	H	0.467188	-0.777172	-0.302924
H303	H	0.522175	-0.732186	-0.431642
H304	H	0.036585	-0.135603	-0.695659
H305	H	0.597062	-0.472600	-0.384101
H306	H	0.597042	-0.387478	-0.384074
H307	H	0.568434	-0.829212	-0.317008
H308	H	0.730060	-0.828922	-0.695555
H309	H	0.758916	-0.106729	-0.907358
H310	H	0.568412	-0.744106	-0.316981
H311	H	0.706746	-0.158863	-0.807750
