data_functionalizedCrystal
_audit_creation_method	'MofGen! by Chris Wilmer'
_symmetry_space_group_name_H-M	'P1'
_symmetry_Int_Tables_number	1
_symmetry_cell_setting	triclinic
loop_
_symmetry_equiv_pos_as_xyz
  x,y,z
_cell_length_a	14.519709
_cell_length_b	10.654550
_cell_length_c	9.130313
_cell_angle_alpha	89.997756
_cell_angle_beta	89.999392
_cell_angle_gamma	95.917463
loop_
_atom_site_label
_atom_site_type_symbol
_atom_site_fract_x
_atom_site_fract_y
_atom_site_fract_z
O1	O	-1.224722	0.164626	-0.121576
O2	O	-0.724722	0.664626	0.378424
O3	O	-0.956346	0.184013	-0.121623
O4	O	-0.456346	0.684013	0.378377
O5	O	-1.096704	-0.008479	-0.121605
O6	O	-0.596704	0.491521	0.378395
O7	O	-1.084364	0.357118	-0.121595
O8	O	-0.584364	0.857118	0.378405
O9	O	-1.096690	-0.008491	0.121994
O10	O	-0.596690	0.491509	0.621994
O11	O	-0.956331	0.184001	0.121975
O12	O	-0.456331	0.684001	0.621975
O13	O	-1.224708	0.164614	0.122022
O14	O	-0.724708	0.664614	0.622022
Cu15	Cu	-1.090518	0.174306	0.144241
Cu16	Cu	-0.590518	0.674306	0.644241
Cu17	Cu	-1.090535	0.174320	-0.143842
Cu18	Cu	-0.590535	0.674320	0.356158
O19	O	-1.084349	0.357106	0.122004
O20	O	-0.584349	0.857106	0.622004
C21	C	-0.921974	0.183103	0.000170
C22	C	-0.421974	0.683103	0.500170
C23	C	-0.819579	0.180396	0.000151
C24	C	-0.319579	0.680396	0.500151
C25	C	-0.444631	0.170428	0.000212
C26	C	0.055369	0.670428	0.500212
C27	C	-0.548954	0.173196	0.000195
C28	C	-0.048954	0.673196	0.500195
C29	C	-0.632102	0.175412	0.000180
C30	C	-0.132102	0.675412	0.500180
C31	C	-0.736431	0.178180	0.000166
C32	C	-0.236431	0.678180	0.500166
C33	C	-1.095791	-0.055275	0.000190
C34	C	-0.595791	0.444725	0.500190
C35	C	-1.093080	-0.194692	0.000175
C36	C	-0.593080	0.305308	0.500175
N37	N	-1.090513	0.174295	0.346864
N38	N	-0.590513	0.674295	0.846864
C39	C	-0.259079	0.165524	0.000222
C40	C	0.240921	0.665524	0.500222
C41	C	-0.361475	0.168231	0.000220
C42	C	0.138525	0.668231	0.500220
C43	C	-1.085262	0.403901	0.000206
C44	C	-0.585262	0.903901	0.500206
C45	C	-1.087973	0.543318	0.000211
C46	C	-0.587973	1.043318	0.500211
C47	C	-1.005332	0.623599	0.000193
C48	C	-0.505332	1.123599	0.500193
C49	C	-1.007885	0.754595	0.000170
C50	C	-0.507885	1.254595	0.500170
C51	C	-1.175727	0.725018	0.000189
C52	C	-0.675727	1.225018	0.500189
C53	C	-1.173174	0.594024	0.000201
C54	C	-0.673174	1.094024	0.500201
C55	C	-1.034116	0.097978	0.576898
C56	C	-0.534116	0.597978	1.076898
C57	C	-1.034106	0.097960	0.423561
C58	C	-0.534106	0.597960	0.923561
C59	C	-1.146940	0.250643	0.423512
C60	C	-0.646940	0.750643	0.923512
C61	C	-1.146955	0.250653	0.576846
C62	C	-0.646955	0.750653	1.076846
N63	N	-1.090537	0.174322	0.653535
N64	N	-0.590537	0.674322	1.153535
H65	H	-0.940590	0.819955	0.000153
H66	H	-0.440590	1.319955	0.500153
H67	H	-0.935957	0.582319	0.000205
H68	H	-0.435957	1.082319	0.500205
H69	H	-1.245095	0.766319	0.000196
H70	H	-0.745095	1.266319	0.500196
C71	C	-1.262832	0.506702	0.000446
C72	C	-0.762832	1.006702	0.500446
C73	C	-1.266252	0.430612	0.125756
C74	C	-0.766252	0.930612	0.625756
C75	C	-1.348820	0.350144	0.126013
C76	C	-0.848820	0.850144	0.626013
H77	H	-1.314015	0.555499	0.000522
H78	H	-0.814015	1.055499	0.500522
H79	H	-1.265328	0.454913	-0.084456
H80	H	-0.765328	0.954913	0.415544
H81	H	-1.263765	0.482395	0.210637
H82	H	-0.763765	0.982395	0.710637
H83	H	-1.215088	0.381787	0.125707
H84	H	-0.715088	0.881787	0.625707
H85	H	-1.351316	0.298355	0.041111
H86	H	-0.851316	0.798355	0.541111
H87	H	-1.399997	0.398952	0.126086
H88	H	-0.899997	0.898952	0.626086
H89	H	-1.351148	0.298499	0.211027
H90	H	-0.851148	0.798499	0.711027
H91	H	-0.988163	0.035792	0.361170
H92	H	-0.488163	0.535792	0.861170
H93	H	-1.192905	0.312822	0.639246
H94	H	-0.692905	0.812822	1.139246
H95	H	-1.192872	0.312790	0.361053
H96	H	-0.692872	0.812790	0.861053
H97	H	-0.988178	0.035823	0.639333
H98	H	-0.488178	0.535823	1.139333
