data_functionalizedCrystal
_audit_creation_method	'MofGen! by Chris Wilmer'
_symmetry_space_group_name_H-M	'P1'
_symmetry_Int_Tables_number	1
_symmetry_cell_setting	triclinic
loop_
_symmetry_equiv_pos_as_xyz
  x,y,z
_cell_length_a	29.839131
_cell_length_b	19.805407
_cell_length_c	29.839125
_cell_angle_alpha	89.985310
_cell_angle_beta	90.017709
_cell_angle_gamma	89.959595
loop_
_atom_site_label
_atom_site_type_symbol
_atom_site_fract_x
_atom_site_fract_y
_atom_site_fract_z
Zn1	Zn	-0.178928	-1.034622	0.254038
Zn2	Zn	-0.254041	-1.034520	0.178908
Zn3	Zn	-0.178924	-0.921450	0.178917
Zn4	Zn	-0.254031	-0.921371	0.254006
O5	O	-0.216481	-0.977991	0.216467
O6	O	-0.188898	-1.129325	0.244081
O7	O	-0.244078	-1.019511	0.116042
O8	O	-0.116057	-0.936538	0.188899
O9	O	-0.244083	-1.129250	0.188883
O10	O	-0.116061	-1.019686	0.244090
O11	O	-0.188891	-0.936439	0.116048
O12	O	-0.188881	-0.826723	0.188868
O13	O	-0.244066	-0.936404	0.316877
O14	O	-0.244062	-0.826665	0.244035
O15	O	-0.188889	-1.019609	0.316901
O16	O	-0.316906	-1.019435	0.188852
O17	O	-0.316899	-0.936305	0.244026
C18	C	-0.216470	-0.802135	0.216449
C19	C	-0.216477	-0.726903	0.216452
C20	C	-0.245252	-0.691546	0.245131
C21	C	-0.245252	-0.620858	0.245136
C22	C	-0.216478	-0.585527	0.216460
C23	C	-0.187700	-0.620889	0.187780
C24	C	-0.187698	-0.691576	0.187778
C25	C	-0.187706	-0.335815	0.187790
C26	C	-0.187711	-0.265123	0.187794
C27	C	-0.245260	-0.265097	0.245149
C28	C	-0.245259	-0.335785	0.245146
C29	C	-0.216478	-0.371140	0.216468
C30	C	-0.216478	-0.447788	0.216464
C31	C	-0.216481	-0.508880	0.216462
C32	C	-0.333204	-0.977869	0.216445
C33	C	-0.383138	-0.977878	0.216450
C34	C	-0.692772	-1.021355	0.187780
C35	C	-0.880445	-1.021439	0.187797
O36	O	-0.904703	-1.058308	0.163403
N37	N	-0.903923	-0.978131	0.216501
C38	C	-0.880479	-0.934802	0.245204
O39	O	-0.904755	-0.897973	0.269622
C40	C	-0.692807	-0.934723	0.245189
C41	C	-0.669332	-0.978029	0.216480
C42	C	-0.669297	-1.064658	0.159074
C43	C	-0.622382	-1.064634	0.159068
C44	C	-0.598942	-1.021308	0.187768
C45	C	-0.622417	-0.978005	0.216474
C46	C	-0.669365	-0.891398	0.273894
C47	C	-0.622444	-0.891383	0.273888
C48	C	-0.598968	-0.934689	0.245180
C49	C	-0.552061	-0.934654	0.245169
N50	N	-0.528583	-0.977962	0.216465
C51	C	-0.552024	-1.021289	0.187765
C52	C	-0.979010	-0.934846	0.245210
C53	C	-1.025928	-0.934865	0.245213
C54	C	-1.025891	-1.021503	0.187806
C55	C	-0.978972	-1.021480	0.187801
C56	C	-0.955532	-0.978154	0.216506
C57	C	-0.453498	-1.021235	0.187754
C58	C	-0.406578	-1.021205	0.187750
C59	C	-0.406620	-0.934570	0.245158
C60	C	-0.453535	-0.934597	0.245161
C61	C	-0.476973	-0.977935	0.216458
O62	O	-0.527775	-0.897810	0.269553
O63	O	-0.527740	-1.058123	0.163358
C64	C	-0.739688	-1.021379	0.187786
C65	C	-0.763163	-0.978077	0.216492
C66	C	-0.739723	-0.934750	0.245192
C67	C	-0.810081	-0.978095	0.216495
C68	C	-0.833521	-1.021422	0.187795
C69	C	-0.810044	-1.064730	0.159091
C70	C	-0.763128	-1.064706	0.159085
C71	C	-0.763200	-0.891442	0.273895
C72	C	-0.810116	-0.891469	0.273899
C73	C	-0.833556	-0.934796	0.245198
C74	C	-0.099303	-0.978132	0.216499
C75	C	-0.049368	-0.978192	0.216513
C76	C	-0.216477	-0.978009	0.333645
C77	C	-0.216475	-0.978017	0.383580
C78	C	-0.216489	-0.154534	0.216480
C79	C	-0.216485	-0.229765	0.216475
C80	C	-0.216453	-0.978012	0.099744
C81	C	-0.216328	-0.978135	0.049810
C82	C	-0.187669	-1.021388	0.693239
C83	C	-0.187631	-1.021421	0.880912
O84	O	-0.163181	-1.058246	0.905189
N85	N	-0.216355	-0.978107	0.904365
C86	C	-0.245089	-0.934778	0.880897
O87	O	-0.269516	-0.897932	0.905152
C88	C	-0.245124	-0.934741	0.693225
C89	C	-0.216401	-0.978063	0.669774
C90	C	-0.158948	-1.064706	0.669788
C91	C	-0.158960	-1.064699	0.622872
C92	C	-0.187692	-1.021375	0.599408
C93	C	-0.216413	-0.978057	0.622859
C94	C	-0.273855	-0.891409	0.669758
C95	C	-0.273861	-0.891403	0.622837
C96	C	-0.245138	-0.934725	0.599386
C97	C	-0.245157	-0.934727	0.552479
N98	N	-0.216433	-0.978041	0.529025
C99	C	-0.187701	-1.021365	0.552490
C100	C	-0.245068	-0.934801	0.979428
C101	C	-0.245060	-0.934811	1.026346
C102	C	-0.187602	-1.021453	1.026357
C103	C	-0.187613	-1.021446	0.979438
C104	C	-0.216344	-0.978115	0.955975
C105	C	-0.187727	-1.021349	0.453964
C106	C	-0.187743	-1.021341	0.407044
C107	C	-0.245199	-0.934696	0.407037
C108	C	-0.245186	-0.934707	0.453953
C109	C	-0.216446	-0.978035	0.477415
O110	O	-0.269590	-0.897916	0.528172
O111	O	-0.163270	-1.058195	0.528227
C112	C	-0.187658	-1.021394	0.740154
C113	C	-0.216378	-0.978076	0.763605
C114	C	-0.245111	-0.934751	0.740140
C115	C	-0.216370	-0.978086	0.810523
C116	C	-0.187638	-1.021410	0.833987
C117	C	-0.158914	-1.064724	0.810534
C118	C	-0.158925	-1.064718	0.763618
C119	C	-0.273835	-0.891437	0.763594
C120	C	-0.273821	-0.891447	0.810509
C121	C	-0.245089	-0.934772	0.833974
H122	H	-0.164264	-0.720362	0.164427
H123	H	-0.688470	-0.856131	0.297270
H124	H	-0.164207	-1.056730	1.045470
H125	H	-0.268454	-0.899541	1.045436
C126	C	-0.251597	-0.185632	0.305577
C127	C	-0.276892	-0.226232	0.276678
H128	H	-0.271125	-0.161644	0.325042
H129	H	-0.234465	-0.154478	0.288500
H130	H	-0.232051	-0.213246	0.322794
H131	H	-0.296435	-0.198618	0.259459
H132	H	-0.294031	-0.257390	0.293757
H133	H	-0.603271	-1.099900	0.135692
H134	H	-0.688377	-1.099944	0.135702
H135	H	-0.829137	-1.100006	0.135721
H136	H	-0.829225	-0.856198	0.297276
C137	C	-0.392232	-0.819931	0.266979
C138	C	-0.380850	-0.886952	0.276709
H139	H	-0.376320	-0.790538	0.286459
H140	H	-0.423530	-0.813747	0.271092
H141	H	-0.384558	-0.810054	0.236787
H142	H	-0.388527	-0.896830	0.306900
H143	H	-0.349545	-0.893139	0.272600
C144	C	-0.098497	-1.074206	0.722548
C145	C	-0.127360	-1.112333	0.695572
H146	H	-0.078994	-1.103615	0.738461
H147	H	-0.115598	-1.048424	0.743235
H148	H	-0.081319	-1.044730	0.704241
H149	H	-0.144541	-1.141806	0.713880
H150	H	-0.110257	-1.138127	0.674883
C151	C	-0.127187	-1.030911	0.926690
C152	C	-0.156035	-1.069060	0.953663
H153	H	-0.107693	-1.060307	0.910778
H154	H	-0.110003	-1.001450	0.944995
H155	H	-0.144303	-1.005113	0.905998
H156	H	-0.138919	-1.094854	0.974358
H157	H	-0.173221	-1.098533	0.935356
H158	H	-0.297253	-0.856109	0.603735
H159	H	-0.603361	-0.856103	0.297265
C160	C	-0.411261	-1.106849	0.131007
C161	C	-0.380775	-1.068813	0.156193
H162	H	-0.395332	-1.136242	0.111528
H163	H	-0.429587	-1.077386	0.113806
H164	H	-0.429536	-1.132724	0.150605
H165	H	-0.362503	-1.042934	0.136594
H166	H	-0.362441	-1.098280	0.173394
H167	H	-0.164353	-1.056622	0.387953
C168	C	-0.506181	-1.112341	0.181577
C169	C	-0.479251	-1.068882	0.156206
H170	H	-0.522076	-1.141760	0.162100
H171	H	-0.526884	-1.086559	0.198663
H172	H	-0.487845	-1.138186	0.201169
H173	H	-0.497588	-1.043034	0.136616
H174	H	-0.458546	-1.094667	0.139113
C175	C	-0.926239	-0.925338	0.305641
C176	C	-0.953251	-0.887213	0.276763
H177	H	-0.910341	-0.895928	0.325121
H178	H	-0.905540	-0.951117	0.288549
H179	H	-0.944521	-0.954818	0.322843
H180	H	-0.934968	-0.857737	0.259559
H181	H	-0.973953	-0.861423	0.293857
H182	H	-0.959861	-1.056744	0.164424
C183	C	-0.130820	-0.328731	0.131098
C184	C	-0.156073	-0.374672	0.156267
H185	H	-0.111292	-0.352723	0.111635
H186	H	-0.113671	-0.301185	0.150705
H187	H	-0.150374	-0.301135	0.113878
H188	H	-0.136519	-0.402265	0.173490
H189	H	-0.173223	-0.402229	0.136657
H190	H	-0.744018	-1.099970	0.135708
H191	H	-1.044984	-1.056781	0.164438
H192	H	-1.045037	-0.899595	0.268586
H193	H	-0.135570	-1.099975	0.603782
C194	C	-0.330613	-0.805793	0.805774
C195	C	-0.305396	-0.843821	0.836283
H196	H	-0.350100	-0.776387	0.821685
H197	H	-0.347805	-0.835261	0.787480
H198	H	-0.311034	-0.779934	0.787470
H199	H	-0.324974	-0.869685	0.854585
H200	H	-0.288202	-0.814350	0.854585
H201	H	-0.297233	-0.856157	0.744494
H202	H	-0.164270	-0.592117	0.164434
H203	H	-0.472650	-0.899336	0.268539
C204	C	-0.767959	-0.805802	0.330632
C205	C	-0.737439	-0.843807	0.305441
H206	H	-0.752056	-0.776386	0.350104
H207	H	-0.786228	-0.835283	0.347838
H208	H	-0.786288	-0.779952	0.311035
H209	H	-0.719113	-0.869660	0.325038
H210	H	-0.719163	-0.814321	0.288233
C211	C	-0.130938	-1.106999	0.449249
C212	C	-0.156140	-1.068981	0.479749
H213	H	-0.111441	-1.136409	0.465169
H214	H	-0.113757	-1.077526	0.430950
H215	H	-0.150526	-1.132855	0.430949
H216	H	-0.136552	-1.043122	0.498047
H217	H	-0.173322	-1.098458	0.498056
H218	H	-0.164278	-0.236359	0.164442
H219	H	-0.268468	-0.899516	0.960328
H220	H	-0.297244	-0.856132	0.688844
H221	H	-0.268578	-0.899437	0.473047
H222	H	-0.268594	-0.899425	0.387924
H223	H	-0.135536	-1.099995	0.744529
C224	C	-0.082839	-1.097788	0.824993
C225	C	-0.127328	-1.112347	0.836331
H226	H	-0.063340	-1.127187	0.840919
H227	H	-0.076266	-1.052323	0.832678
H228	H	-0.078738	-1.103989	0.793695
H229	H	-0.131430	-1.106140	0.867629
H230	H	-0.133904	-1.157822	0.828649
H231	H	-0.268684	-0.592074	0.268489
C232	C	-0.267247	-0.713326	0.321162
C233	C	-0.276880	-0.730380	0.276654
H234	H	-0.286771	-0.737303	0.340624
H235	H	-0.271368	-0.666172	0.325265
H236	H	-0.237071	-0.724947	0.327785
H237	H	-0.307055	-0.718754	0.270031
H238	H	-0.272762	-0.777544	0.272549
C239	C	-0.302142	-0.328657	0.301845
C240	C	-0.276886	-0.374619	0.276669
H241	H	-0.321664	-0.352633	0.321309
H242	H	-0.319298	-0.301063	0.282242
H243	H	-0.282590	-0.301111	0.319064
H244	H	-0.296438	-0.402162	0.259448
H245	H	-0.259728	-0.402225	0.296275
