data_functionalizedCrystal
_audit_creation_method	'MofGen! by Chris Wilmer'
_symmetry_space_group_name_H-M	'P1'
_symmetry_Int_Tables_number	1
_symmetry_cell_setting	triclinic
loop_
_symmetry_equiv_pos_as_xyz
  x,y,z
_cell_length_a	9.065218
_cell_length_b	16.109301
_cell_length_c	8.140239
_cell_angle_alpha	89.995060
_cell_angle_beta	89.997198
_cell_angle_gamma	84.238683
loop_
_atom_site_label
_atom_site_type_symbol
_atom_site_fract_x
_atom_site_fract_y
_atom_site_fract_z
O1	O	1.957448	0.121905	-0.136624
O2	O	1.527922	0.131904	-0.136627
O3	O	1.754484	0.005964	-0.136608
O4	O	1.730885	0.247845	-0.136642
O5	O	1.754472	0.005963	0.136619
O6	O	1.527909	0.131903	0.136600
O7	O	1.957436	0.121904	0.136603
Zn8	Zn	1.742671	0.126903	0.179982
Zn9	Zn	1.742687	0.126905	-0.180006
O10	O	1.730873	0.247843	0.136585
C11	C	1.472952	0.130943	-0.000013
C12	C	1.309179	0.128069	-0.000014
C13	C	1.753522	-0.025019	0.000006
C14	C	1.750656	-0.117336	0.000008
C15	C	1.878430	-0.338627	-0.000017
C16	C	1.875726	-0.425368	-0.000031
C17	C	1.606917	-0.407559	-0.000026
C18	C	1.609623	-0.320819	-0.000024
C19	C	1.745384	-0.286356	-0.000011
C20	C	1.739974	-0.459836	-0.000027
C21	C	1.737040	-0.553885	-0.000041
C22	C	1.748318	-0.192301	0.000000
C23	C	2.012405	0.122865	-0.000014
C24	C	2.176179	0.125739	-0.000024
C25	C	1.731835	0.278826	-0.000033
C26	C	1.734701	0.371144	-0.000046
N27	N	1.742670	0.126901	0.425665
N28	N	1.742699	0.126900	-0.425689
H29	H	1.988976	-0.310570	-0.000010
C30	C	2.022081	-0.482865	-0.000031
C31	C	2.133325	-0.478294	0.141853
C32	C	2.279687	-0.535791	0.141850
C33	C	2.314806	-0.597860	-0.000037
C34	C	2.203559	-0.602434	-0.141932
C35	C	2.057197	-0.544936	-0.141929
H36	H	2.107330	-0.432345	0.246896
H37	H	2.362039	-0.532405	0.246891
H38	H	2.423152	-0.640422	-0.000040
H39	H	2.229553	-0.648383	-0.246975
H40	H	1.974845	-0.548323	-0.246969
C41	C	1.463261	-0.263315	-0.000014
C42	C	1.352007	-0.267887	-0.141888
C43	C	1.205653	-0.210383	-0.141884
C44	C	1.170552	-0.148306	-0.000006
C45	C	1.281809	-0.143732	0.141879
C46	C	1.428163	-0.201236	0.141875
H47	H	1.377988	-0.313842	-0.246924
H48	H	1.123294	-0.213770	-0.246917
H49	H	1.062212	-0.105738	-0.000003
H50	H	1.255827	-0.097777	0.246915
H51	H	1.510522	-0.197849	0.246908
H52	H	1.496385	-0.435630	-0.000033
