data_functionalizedCrystal
_audit_creation_method	'MofGen! by Chris Wilmer'
_symmetry_space_group_name_H-M	'P1'
_symmetry_Int_Tables_number	1
_symmetry_cell_setting	triclinic
loop_
_symmetry_equiv_pos_as_xyz
  x,y,z
_cell_length_a	13.339070
_cell_length_b	11.804365
_cell_length_c	10.654550
_cell_angle_alpha	78.050135
_cell_angle_beta	100.057112
_cell_angle_gamma	105.124870
loop_
_atom_site_label
_atom_site_type_symbol
_atom_site_fract_x
_atom_site_fract_y
_atom_site_fract_z
O1	O	1.367023	0.099041	0.612839
O2	O	1.071914	0.099038	0.530001
O3	O	1.226253	0.099041	0.390972
O4	O	1.212683	0.099039	0.751869
O5	O	1.185621	-0.099016	0.427522
O6	O	1.031282	-0.099018	0.566551
O7	O	1.326391	-0.099015	0.649389
Cu8	Cu	1.175126	-0.117101	0.611307
Cu9	Cu	1.223178	0.117124	0.568083
O10	O	1.172051	-0.099018	0.788418
C11	C	1.013810	0.000010	0.534283
C12	C	0.901216	0.000009	0.492573
C13	C	0.538702	0.000026	0.816885
C14	C	0.644490	0.000030	0.856076
C15	C	0.708677	0.000025	0.765204
C16	C	0.667064	0.000015	0.635133
C17	C	0.561267	0.000020	0.595936
C18	C	0.731242	0.000019	0.544255
C19	C	0.689630	0.000009	0.414184
C20	C	0.583843	0.000013	0.374994
C21	C	0.519656	0.000019	0.465866
C22	C	0.837039	0.000014	0.583452
C23	C	0.859605	0.000008	0.362504
C24	C	0.753816	0.000003	0.323312
N25	N	1.141336	-0.281842	0.641711
C26	C	1.338118	-0.655788	0.464638
C27	C	1.363679	-0.531125	0.441632
C28	C	1.308095	-0.468798	0.491649
C29	C	1.226947	-0.531146	0.564677
C30	C	1.201389	-0.655820	0.587694
C31	C	1.171366	-0.468831	0.614706
C32	C	1.090217	-0.531178	0.687734
C33	C	1.064663	-0.655841	0.710746
C34	C	1.120247	-0.718167	0.660728
C35	C	1.196924	-0.344157	0.591689
C36	C	1.060194	-0.344189	0.714745
C37	C	1.034634	-0.468851	0.737751
C38	C	1.384495	0.000016	0.645107
C39	C	1.497091	0.000025	0.686815
C40	C	1.204942	0.000015	0.362112
C41	C	1.201962	0.000023	0.221660
N42	N	1.256976	0.281865	0.537672
C43	C	1.219897	0.107975	0.003776
C44	C	1.222709	0.107982	0.135744
C45	C	1.178411	-0.107950	0.175605
C46	C	1.175606	-0.107956	0.043641
C47	C	1.193363	0.000010	0.817278
C48	C	1.196344	0.000010	0.957728
H49	H	0.486435	0.000041	0.890857
C50	C	0.999046	-0.275635	0.769766
N51	N	0.952994	-0.223992	0.811204
H52	H	1.241890	0.195898	0.173229
H53	H	0.911867	0.000008	0.288506
C54	C	1.399252	-0.724355	0.409630
N55	N	1.445302	-0.776002	0.368194
C56	C	1.242731	0.226740	-0.090720
N57	N	1.259940	0.316198	-0.161890
C58	C	0.403281	0.000013	0.422761
N59	N	0.315625	0.000009	0.390298
H60	H	0.719922	0.000005	0.217404
H61	H	1.161525	-0.195852	0.245570
H62	H	1.156428	-0.195879	0.006150
H63	H	0.998595	-0.706604	0.770222
H64	H	1.099433	-0.819678	0.679455
C65	C	1.286179	-0.275589	0.511351
N66	N	1.353408	-0.223945	0.450832
C67	C	0.882798	0.000013	0.726529
N68	N	0.917261	0.000007	0.834303
H69	H	0.794814	0.000031	0.797121
H70	H	0.968561	-0.519630	0.797213
H71	H	0.678365	0.000048	0.961978
H72	H	1.328910	-0.367293	0.472914
C73	C	0.538072	0.000001	0.231913
N74	N	0.503599	-0.000014	0.124144
H75	H	1.429750	-0.480367	0.382175
