data_functionalizedCrystal
_audit_creation_method	'MofGen! by Chris Wilmer'
_symmetry_space_group_name_H-M	'P1'
_symmetry_Int_Tables_number	1
_symmetry_cell_setting	triclinic
loop_
_symmetry_equiv_pos_as_xyz
  x,y,z
_cell_length_a	11.792241
_cell_length_b	10.654550
_cell_length_c	9.730223
_cell_angle_alpha	90.003749
_cell_angle_beta	89.998500
_cell_angle_gamma	95.660841
loop_
_atom_site_label
_atom_site_type_symbol
_atom_site_fract_x
_atom_site_fract_y
_atom_site_fract_z
O1	O	0.159415	-1.667383	-0.114404
O2	O	0.174603	-1.301862	-0.114382
O3	O	0.001859	-1.493493	-0.114383
O4	O	0.332159	-1.475752	-0.114402
O5	O	0.001863	-1.493490	0.114196
O6	O	0.174608	-1.301859	0.114198
O7	O	0.159419	-1.667381	0.114176
Zn8	Zn	0.167014	-1.484620	0.150479
Zn9	Zn	0.167008	-1.484623	-0.150685
O10	O	0.332163	-1.475750	0.114178
C11	C	0.173490	-1.255066	-0.000089
C12	C	0.170154	-1.115632	-0.000080
C13	C	-0.040432	-1.492377	-0.000094
C14	C	-0.166454	-1.489042	-0.000095
N15	N	0.167017	-1.484627	0.356016
C16	C	-0.397180	-1.482908	-0.000118
C17	C	-0.268787	-1.486316	-0.000105
C18	C	0.374455	-1.476865	-0.000114
C19	C	0.500476	-1.480201	-0.000122
C20	C	0.160532	-1.714177	-0.000120
C21	C	0.163869	-1.853611	-0.000137
C22	C	0.271863	-1.035858	-0.000106
C23	C	0.268721	-0.904847	-0.000129
C24	C	0.062152	-0.933394	-0.000107
C25	C	0.065295	-1.064404	-0.000074
C26	C	0.391124	-1.019376	-0.000124
C27	C	0.387982	-0.888364	-0.000148
N28	N	0.166996	-1.484625	-0.356221
C29	C	0.090552	-1.569503	0.427941
C30	C	0.090539	-1.569500	0.571824
C31	C	0.243465	-1.399740	0.571844
C32	C	0.243472	-1.399739	0.427963
C33	C	0.002265	-1.667516	0.427931
C34	C	0.002251	-1.667513	0.571814
H35	H	-0.023221	-0.891668	-0.000123
H36	H	0.432916	-0.846505	-0.095818
H37	H	0.424026	-0.842589	0.098534
H38	H	0.429097	-1.054925	-0.098814
H39	H	-0.080191	-1.637233	0.616436
O40	O	0.446599	-1.054183	0.114139
C41	C	0.388811	-1.017885	0.232309
H42	H	0.296151	-1.007340	0.205354
H43	H	0.392293	-1.092939	0.315288
H44	H	0.431257	-0.924029	0.271840
O45	O	0.317851	-1.317235	0.358308
C46	C	0.385307	-1.242294	0.452668
H47	H	0.387025	-1.293793	0.555226
H48	H	0.475793	-1.223729	0.411101
H49	H	0.347653	-1.148764	0.467978
O50	O	0.317691	-1.317409	0.641949
C51	C	0.301267	-1.335582	0.784366
H52	H	0.259685	-1.435141	0.804011
H53	H	0.387102	-1.322185	0.839057
H54	H	0.243734	-1.264119	0.825193
O55	O	0.035461	-1.776081	0.374629
C56	C	0.133552	-1.748051	0.293127
H57	H	0.179437	-1.653872	0.326753
H58	H	0.192864	-1.825480	0.306123
H59	H	0.107676	-1.742135	0.180601
H60	H	0.021698	-1.763969	0.610857
O61	O	-0.033611	-1.141716	-0.000093
C62	C	-0.126830	-1.068403	-0.000060
H63	H	-0.098799	-0.970845	-0.043370
H64	H	-0.198169	-1.116260	-0.066392
H65	H	-0.158904	-1.058823	0.109606
O66	O	-0.101764	-1.641995	0.381409
C67	C	-0.125657	-1.522695	0.429865
H68	H	-0.042438	-1.463590	0.455434
H69	H	-0.173158	-1.473045	0.347168
H70	H	-0.180695	-1.534979	0.526171
