data_functionalizedCrystal
_audit_creation_method	'MofGen! by Chris Wilmer'
_symmetry_space_group_name_H-M	'P1'
_symmetry_Int_Tables_number	1
_symmetry_cell_setting	triclinic
loop_
_symmetry_equiv_pos_as_xyz
  x,y,z
_cell_length_a	13.897448
_cell_length_b	13.897449
_cell_length_c	13.897441
_cell_angle_alpha	90.026069
_cell_angle_beta	89.969401
_cell_angle_gamma	89.982380
loop_
_atom_site_label
_atom_site_type_symbol
_atom_site_fract_x
_atom_site_fract_y
_atom_site_fract_z
Zn1	Zn	-0.383986	-1.474703	-0.545519
Zn2	Zn	-0.050653	-1.141369	-0.212185
Zn3	Zn	0.282681	-0.808036	0.121148
Zn4	Zn	-0.545308	-1.474597	-0.384220
Zn5	Zn	-0.211974	-1.141263	-0.050887
Zn6	Zn	0.121359	-0.807930	0.282447
Zn7	Zn	-0.384028	-1.313392	-0.384222
Zn8	Zn	-0.050695	-0.980058	-0.050889
Zn9	Zn	0.282639	-0.646725	0.282445
Zn10	Zn	-0.545240	-1.313374	-0.545457
Zn11	Zn	-0.211907	-0.980040	-0.212124
Zn12	Zn	0.121426	-0.646707	0.121209
O13	O	-0.464641	-1.394016	-0.464854
O14	O	-0.131307	-1.060683	-0.131521
O15	O	0.202026	-0.727349	0.201812
O16	O	-0.405396	-1.609670	-0.524147
O17	O	-0.072063	-1.276337	-0.190813
O18	O	0.261271	-0.943004	0.142520
O19	O	-0.523959	-1.453176	-0.249238
O20	O	-0.190626	-1.119842	0.084095
O21	O	0.142707	-0.786509	0.417428
O22	O	-0.249041	-1.334842	-0.405645
O23	O	0.084293	-1.001509	-0.072311
O24	O	0.417626	-0.668175	0.261022
O25	O	-0.523918	-1.609592	-0.405641
O26	O	-0.190585	-1.276259	-0.072308
O27	O	0.142748	-0.942926	0.261025
O28	O	-0.249010	-1.453356	-0.524149
O29	O	0.084323	-1.120023	-0.190815
O30	O	0.417657	-0.786690	0.142518
O31	O	-0.405468	-1.334739	-0.249240
O32	O	-0.072135	-1.001406	0.084093
O33	O	0.261199	-0.668073	0.417427
O34	O	-0.405403	-1.178408	-0.405585
O35	O	-0.072069	-0.845074	-0.072252
O36	O	0.261264	-0.511741	0.261081
O37	O	-0.523804	-1.334811	-0.680447
O38	O	-0.190471	-1.001478	-0.347114
O39	O	0.142863	-0.668144	-0.013781
O40	O	-0.523845	-1.178394	-0.524045
O41	O	-0.190511	-0.845061	-0.190711
O42	O	0.142822	-0.511728	0.142622
O43	O	-0.405331	-1.453339	-0.680492
O44	O	-0.071998	-1.120005	-0.347159
O45	O	0.261336	-0.786672	-0.013825
O46	O	-0.680280	-1.453158	-0.405582
O47	O	-0.346947	-1.119825	-0.072249
O48	O	-0.013614	-0.786491	0.261085
O49	O	-0.680231	-1.334708	-0.524043
O50	O	-0.346898	-1.001375	-0.190709
O51	O	-0.013564	-0.668041	0.142624
C52	C	-0.464622	-1.143402	-0.464809
C53	C	-0.131288	-0.810068	-0.131476
C54	C	0.202045	-0.476735	0.201858
C55	C	-0.464637	-1.036188	-0.464813
C56	C	-0.131304	-0.702855	-0.131479
C57	C	0.202030	-0.369521	0.201854
C58	C	-0.464639	-0.949118	-0.464825
C59	C	-0.131305	-0.615785	-0.131491
C60	C	0.202028	-0.282451	0.201842
C61	C	-0.464644	-0.839886	-0.464849
C62	C	-0.131311	-0.506552	-0.131516
C63	C	0.202023	-0.173219	0.201818
C64	C	-0.715255	-1.393946	-0.464827
C65	C	-0.381922	-1.060612	-0.131493
C66	C	-0.048588	-0.727279	0.201840
C67	C	-0.822469	-1.394004	-0.464847
C68	C	-0.489135	-1.060671	-0.131513
C69	C	-0.155802	-0.727337	0.201820
C70	C	-1.018764	-1.394105	-0.464907
C71	C	-0.685430	-1.060772	-0.131574
C72	C	-0.352097	-0.727439	0.201759
C73	C	-0.909531	-1.394046	-0.464877
C74	C	-0.576198	-1.060713	-0.131543
C75	C	-0.242865	-0.727379	0.201790
C76	C	-0.213048	-1.394113	-0.464904
C77	C	0.120286	-1.060780	-0.131570
C78	C	0.453619	-0.727446	0.201763
C79	C	-0.105834	-1.394154	-0.464925
C80	C	0.227500	-1.060821	-0.131591
C81	C	0.560833	-0.727488	0.201742
C82	C	-0.464555	-1.394085	-0.716448
C83	C	-0.131222	-1.060751	-0.383114
C84	C	0.202111	-0.727418	-0.049781
C85	C	-0.464519	-1.394114	-0.823662
C86	C	-0.131186	-1.060780	-0.490328
C87	C	0.202148	-0.727447	-0.156995
C88	C	-0.464656	-0.645609	-0.464889
C89	C	-0.131323	-0.312276	-0.131555
C90	C	0.202011	0.021058	0.201778
C91	C	-0.464653	-0.752823	-0.464873
C92	C	-0.131319	-0.419490	-0.131540
C93	C	0.202014	-0.086156	0.201793
C94	C	-0.464454	-1.394140	-1.019957
C95	C	-0.131120	-1.060807	-0.686624
C96	C	0.202213	-0.727473	-0.353290
C97	C	-0.464493	-1.394122	-0.910724
C98	C	-0.131159	-1.060789	-0.577391
C99	C	0.202174	-0.727456	-0.244058
C100	C	-0.464656	-1.394004	-0.214240
C101	C	-0.131322	-1.060670	0.119093
C102	C	0.202011	-0.727337	0.452427
C103	C	-0.464420	-1.394161	-0.107027
C104	C	-0.131087	-1.060828	0.226307
C105	C	0.202246	-0.727495	0.559640
