data_functionalizedCrystal
_audit_creation_method	'MofGen! by Chris Wilmer'
_symmetry_space_group_name_H-M	'P1'
_symmetry_Int_Tables_number	1
_symmetry_cell_setting	triclinic
loop_
_symmetry_equiv_pos_as_xyz
  x,y,z
_cell_length_a	15.298708
_cell_length_b	13.897441
_cell_length_c	15.297327
_cell_angle_alpha	99.645069
_cell_angle_beta	107.405650
_cell_angle_gamma	99.647011
loop_
_atom_site_label
_atom_site_type_symbol
_atom_site_fract_x
_atom_site_fract_y
_atom_site_fract_z
Zn1	Zn	1.357690	-0.317487	-0.123875
Zn2	Zn	1.330653	-0.189949	-0.279439
Zn3	Zn	1.202161	-0.189926	-0.150863
Zn4	Zn	1.175214	-0.384885	-0.306315
O5	O	1.266430	-0.270562	-0.215123
O6	O	1.484245	-0.272372	-0.121969
O7	O	1.313571	-0.054980	-0.262431
O8	O	1.245385	-0.178632	-0.017122
O9	O	1.464381	-0.178671	-0.236262
O10	O	1.359652	-0.272350	0.002706
O11	O	1.219168	-0.054963	-0.167966
O12	O	1.068446	-0.243984	-0.194026
O13	O	1.199458	-0.510910	-0.282066
O14	O	1.048648	-0.387220	-0.308236
O15	O	1.333522	-0.461394	-0.148029
O16	O	1.287441	-0.244023	-0.413166
O17	O	1.173241	-0.387242	-0.432911
C18	C	1.024802	-0.322914	-0.256976
C19	C	0.921429	-0.345338	-0.274904
C20	C	0.671230	-0.110580	-0.087226
C21	C	0.768355	-0.089512	-0.070378
C22	C	0.806629	-0.153466	-0.121508
C23	C	0.747767	-0.238494	-0.189490
C24	C	0.650633	-0.259569	-0.206335
C25	C	0.786032	-0.302454	-0.240616
C26	C	0.727170	-0.387482	-0.308598
C27	C	0.630046	-0.408552	-0.325441
C28	C	0.591773	-0.344598	-0.274311
C29	C	0.883166	-0.281379	-0.223771
C30	C	0.862569	-0.430367	-0.342879
C31	C	0.765444	-0.451436	-0.359728
C32	C	1.266500	-0.522126	-0.215035
C33	C	1.266530	-0.629327	-0.214998
C34	C	1.266554	-0.716387	-0.214968
C35	C	1.266588	-0.825605	-0.214921
C36	C	1.509001	-0.218006	-0.173107
C37	C	1.612370	-0.195610	-0.155202
C38	C	1.224508	-0.322964	-0.456783
C39	C	1.206659	-0.345396	-0.560152
C40	C	1.266425	-0.019950	-0.215134
C41	C	1.266620	0.087346	-0.214878
C42	C	1.394384	-0.110484	-0.810248
C43	C	1.411153	-0.089404	-0.713129
C44	C	1.360032	-0.153400	-0.674880
C45	C	1.292137	-0.238480	-0.733760
C46	C	1.275360	-0.259559	-0.830890
C47	C	1.241008	-0.302475	-0.695521
C48	C	1.173113	-0.387555	-0.754402
C49	C	1.156340	-0.408630	-0.851522
C50	C	1.207462	-0.344633	-0.889771
C51	C	1.257785	-0.281396	-0.598391
C52	C	1.138761	-0.430470	-0.619033
C53	C	1.121991	-0.451551	-0.716153
C54	C	1.308540	-0.217970	0.027485
C55	C	1.326485	-0.195559	0.130870
H56	H	0.640059	-0.058522	-0.045599
H57	H	0.512686	-0.361744	-0.288030
C58	C	0.565300	-0.502081	-0.400228
N59	N	0.516534	-0.572524	-0.456563
H60	H	0.816273	-0.020280	-0.015029
C61	C	0.700685	-0.544968	-0.434502
N62	N	0.651908	-0.615417	-0.490821
H63	H	0.893730	-0.482447	-0.384511
H64	H	1.066710	-0.520824	-0.764107
C65	C	1.378498	-0.130222	-0.568041
N66	N	1.392418	-0.112766	-0.487565
C67	C	0.947901	-0.187847	-0.148997
N68	N	0.996660	-0.117391	-0.092675
C69	C	1.485819	0.004195	-0.648370
N70	N	1.542057	0.074702	-0.599594
C71	C	1.450599	-0.040091	-0.852332
N72	N	1.492942	0.012936	-0.884030
H73	H	0.885713	-0.136307	-0.107785
C74	C	1.082525	-0.500873	-0.576963
N75	N	1.040171	-0.553895	-0.545270
C76	C	1.189015	-0.367815	-0.996610
N77	N	1.175121	-0.385271	-1.077081
C78	C	1.081645	-0.502214	-0.916290
N79	N	1.025385	-0.572702	-0.965072
H80	H	1.313065	-0.212123	-0.550459
