data_functionalizedCrystal
_audit_creation_method	'MofGen! by Chris Wilmer'
_symmetry_space_group_name_H-M	'P1'
_symmetry_Int_Tables_number	1
_symmetry_cell_setting	triclinic
loop_
_symmetry_equiv_pos_as_xyz
  x,y,z
_cell_length_a	16.109301
_cell_length_b	10.654541
_cell_length_c	15.186229
_cell_angle_alpha	89.996481
_cell_angle_beta	89.999362
_cell_angle_gamma	83.972705
loop_
_atom_site_label
_atom_site_type_symbol
_atom_site_fract_x
_atom_site_fract_y
_atom_site_fract_z
O1	O	1.104089	0.161419	-0.073172
O2	O	0.862147	0.181508	-0.073186
O3	O	0.988682	-0.011352	-0.073174
O4	O	0.977554	0.354278	-0.073185
O5	O	0.988673	-0.011354	0.073284
O6	O	0.862138	0.181505	0.073271
O7	O	1.104081	0.161416	0.073285
Zn8	Zn	0.983108	0.171460	0.096531
Zn9	Zn	0.983119	0.171464	-0.096433
O10	O	0.977546	0.354276	0.073272
C11	C	0.831163	0.180692	0.000040
C12	C	0.738853	0.178253	0.000035
C13	C	0.987861	-0.058140	0.000054
C14	C	0.985418	-0.197550	0.000053
C15	C	0.517227	0.287019	0.000042
C16	C	0.430493	0.284717	0.000048
C17	C	0.449008	0.055896	0.000051
C18	C	0.535740	0.058200	0.000052
C19	C	0.569847	0.173765	0.000043
C20	C	0.396381	0.169159	0.000048
C21	C	0.302340	0.166662	0.000054
C22	C	0.663894	0.176262	0.000038
C23	C	1.136725	-0.227574	0.000073
C24	C	1.211227	-0.308079	0.000084
C25	C	1.208926	-0.439066	0.000081
C26	C	1.132115	-0.489549	0.000064
C27	C	1.057613	-0.409044	0.000053
C28	C	1.059922	-0.278056	0.000058
C29	C	0.906308	-0.379021	0.000026
C30	C	0.908607	-0.248034	0.000036
C31	C	0.829496	-0.429504	0.000009
C32	C	0.754992	-0.348998	0.000004
C33	C	0.757296	-0.218004	0.000008
C34	C	0.834104	-0.167529	0.000024
C35	C	1.135065	0.162231	0.000056
C36	C	1.227375	0.164671	0.000055
C37	C	0.978367	0.401064	0.000042
C38	C	0.980810	0.540474	0.000038
N39	N	0.983107	0.171457	0.228224
N40	N	0.983128	0.171457	-0.228125
C41	C	1.039156	0.086088	0.453952
C42	C	1.039158	0.086085	0.546142
C43	C	0.927072	0.256830	0.546140
C44	C	0.927066	0.256826	0.453952
C45	C	0.983113	0.171456	0.407860
C46	C	0.983121	0.171458	0.592238
C47	C	0.983124	0.171455	0.692194
C48	C	0.983110	0.171457	0.307898
H49	H	0.544993	0.381120	0.000041
H50	H	0.387652	0.376940	0.000049
O51	O	0.872543	0.339590	0.409131
C52	C	0.820879	0.272308	0.355798
H53	H	0.818904	0.173272	0.383590
H54	H	0.846861	0.265727	0.285930
C55	C	0.734443	0.463125	0.320240
C56	C	0.732011	0.341490	0.354379
H57	H	0.679625	0.505800	0.319361
H58	H	0.769251	0.508455	0.356169
H59	H	0.756098	0.457623	0.262020
H60	H	0.710366	0.346993	0.412601
H61	H	0.697196	0.296162	0.318460
H62	H	0.421227	-0.038193	0.000064
H63	H	0.578586	-0.034032	0.000055
H64	H	1.084791	0.016573	0.416427
H65	H	0.881442	0.326339	0.583677
H66	H	1.138606	-0.120919	0.000087
O67	O	1.093680	0.003113	0.590779
C68	C	1.143128	-0.072255	0.530325
H69	H	1.144358	-0.020764	0.464608
H70	H	1.115598	-0.165560	0.520525
C71	C	1.231155	-0.161341	0.647013
C72	C	1.232672	-0.098094	0.566301
H73	H	1.286390	-0.177286	0.669205
H74	H	1.197840	-0.110569	0.687743
H75	H	1.208210	-0.239088	0.638835
H76	H	1.255607	-0.020343	0.574481
H77	H	1.265994	-0.148855	0.525573
H78	H	1.273765	-0.266961	0.000106
H79	H	1.269593	-0.504614	0.000084
O80	O	0.680366	-0.397978	-0.000171
C81	C	0.634906	-0.356798	-0.076016
H82	H	0.679811	-0.329552	-0.129021
H83	H	0.589064	-0.271415	-0.058866
C84	C	0.531359	-0.497420	-0.045327
C85	C	0.586513	-0.463966	-0.110432
H86	H	0.501505	-0.563523	-0.066556
H87	H	0.561984	-0.525161	0.005772
H88	H	0.493165	-0.426258	-0.031042
H89	H	0.624712	-0.535122	-0.124708
H90	H	0.555893	-0.436239	-0.161535
H91	H	0.696627	-0.152463	-0.000006
H92	H	1.130248	-0.596207	0.000051
H93	H	0.827628	-0.536161	0.000001
H94	H	0.835988	-0.060874	0.000032
