data_functionalizedCrystal
_audit_creation_method	'MofGen! by Chris Wilmer'
_symmetry_space_group_name_H-M	'P1'
_symmetry_Int_Tables_number	1
_symmetry_cell_setting	triclinic
loop_
_symmetry_equiv_pos_as_xyz
  x,y,z
_cell_length_a	19.377372
_cell_length_b	19.375551
_cell_length_c	16.704493
_cell_angle_alpha	70.611054
_cell_angle_beta	94.030349
_cell_angle_gamma	82.436930
loop_
_atom_site_label
_atom_site_type_symbol
_atom_site_fract_x
_atom_site_fract_y
_atom_site_fract_z
Zr1	Zr	0.763836	0.841783	-0.017460
O2	O	0.683786	0.936690	-0.101515
O3	O	0.767979	0.724830	-0.013074
O4	O	0.787688	0.848712	-0.148515
O5	O	0.671732	0.815030	0.165087
O6	O	0.892851	0.879256	-0.161267
O7	O	0.664077	0.812808	0.033926
O8	O	0.857595	0.657654	0.081013
O9	O	0.706988	1.036632	-0.077193
O10	O	0.872871	0.803895	0.005113
O11	O	0.800102	0.782759	0.112514
O12	O	0.823307	0.928613	-0.046951
O13	O	0.750539	0.907477	0.060450
Zr14	Zr	0.943768	0.894042	0.171390
Zr15	Zr	0.931558	0.890497	-0.037797
Zr16	Zr	0.776046	0.845328	0.191728
Zr17	Zr	0.800841	1.001180	0.021333
Zr18	Zr	0.906763	0.734645	0.132598
O19	O	0.939625	1.010994	0.167005
O20	O	0.922265	1.005955	-0.130432
O21	O	0.701146	0.941729	0.195922
O22	O	1.023818	0.799135	0.255446
O23	O	1.006458	0.794096	-0.041991
O24	O	0.785339	0.729870	0.284363
O25	O	1.035872	0.920794	-0.011156
O26	O	0.919916	0.887113	0.302446
O27	O	0.814753	0.856569	0.315198
O28	O	1.043528	0.923017	0.120005
O29	O	0.840305	1.075353	-0.093358
O30	O	0.867299	0.660471	0.247289
O31	O	1.000616	0.699193	0.231123
O32	O	0.990911	0.696376	0.064848
O33	O	0.716693	1.039449	0.089083
O34	O	0.850010	1.078171	0.072918
O35	O	0.884297	0.807212	0.200882
O36	O	0.957065	0.828348	0.093481
O37	O	0.907502	0.953066	0.041417
O38	O	0.834733	0.931930	0.148818
C39	C	0.807514	0.668532	0.028442
C40	C	0.791805	0.600864	0.011974
C41	C	0.987234	0.193379	0.217017
C42	C	0.972521	0.129785	0.201527
C43	C	0.873770	0.203739	0.097849
C44	C	0.888477	0.267341	0.113327
C45	C	0.945209	0.262154	0.172913
C46	C	0.846452	0.336116	0.069223
C47	C	0.861155	0.399711	0.084703
C48	C	0.917884	0.394531	0.144288
C49	C	0.959913	0.325749	0.188394
C50	C	0.789716	0.341301	0.009642
C51	C	0.747691	0.410076	-0.034463
C52	C	0.762398	0.473674	-0.018987
C53	C	0.819126	0.468493	0.040598
C54	C	0.720369	0.542456	-0.063092
C55	C	0.735072	0.606051	-0.047612
C56	C	0.833830	0.532089	0.056078
C57	C	0.644007	0.806979	0.102404
C58	C	0.572805	0.786298	0.111038
C59	C	0.209274	1.043784	0.003545
C60	C	0.142375	1.024335	0.011666
C61	C	0.194125	0.894138	0.066017
C62	C	0.261030	0.913577	0.057904
C63	C	0.268598	0.988401	0.026667
C64	C	0.320354	0.858194	0.081026
C65	C	0.387252	0.877631	0.072910
C66	C	0.394827	0.952452	0.041672
C67	C	0.335496	1.007839	0.018551
C68	C	0.312784	0.783370	0.112258
C69	C	0.372108	0.727986	0.135380
C70	C	0.439008	0.747423	0.127270
C71	C	0.446583	0.822244	0.096032
C72	C	0.498339	0.692037	0.150391
C73	C	0.565237	0.711474	0.142275
C74	C	0.513481	0.841681	0.087916
C75	C	1.063597	0.928846	0.051527
C76	C	1.134799	0.949527	0.042893
C77	C	0.838530	0.863479	-0.184696
C78	C	0.833347	0.861975	-0.273501
C79	C	0.900090	1.067293	0.125488
C80	C	0.915799	1.134961	0.141957
C81	C	0.939496	0.892792	-0.454423
C82	C	0.934629	0.891379	-0.537864
C83	C	0.818749	0.857731	-0.523823
C84	C	0.823616	0.859144	-0.440383
C85	C	0.883991	0.876676	-0.405686
C86	C	0.888855	0.878094	-0.322246
C87	C	0.772978	0.844441	-0.308204
C88	C	0.768111	0.843028	-0.391645
C89	C	0.869074	0.872346	0.338627
C90	C	0.874257	0.873850	0.427432
C91	C	1.017309	0.729466	0.003004
C92	C	1.072802	0.682478	-0.022098
C93	C	0.822786	0.672965	0.290104
C94	C	0.812260	0.606802	0.362441
C95	C	1.032581	0.733899	0.264665
C96	C	1.093257	0.688416	0.328368
C97	C	0.675023	1.001926	-0.110734
C98	C	0.614347	1.047409	-0.174438
C99	C	0.690295	1.006359	0.150927
C100	C	0.634802	1.053347	0.176029
C101	C	0.884818	1.062860	-0.136173
C102	C	0.895344	1.129023	-0.208510
C103	C	1.054913	0.647648	-0.080022
C104	C	1.107049	0.603505	-0.103625
C105	C	1.177073	0.594188	-0.069298
C106	C	1.194962	0.629025	-0.011370
C107	C	1.142827	0.673171	0.012226
C108	C	0.851266	0.588495	0.442547
C109	C	0.841375	0.526336	0.510526
C110	C	0.792481	0.482481	0.498395
C111	C	0.753471	0.500792	0.418281
C112	C	0.763359	0.562954	0.350306
C113	C	1.159743	0.678092	0.302221
C114	C	1.216762	0.635366	0.362071
C115	C	1.207294	0.602961	0.448066
C116	C	1.140802	0.613290	0.474214
C117	C	1.083785	0.656019	0.414365
C118	C	0.547863	1.057741	-0.148289
C119	C	0.490848	1.100486	-0.208133
C120	C	0.500318	1.132894	-0.294128
C121	C	0.566809	1.122562	-0.320276
C122	C	0.623823	1.079822	-0.260431
C123	C	0.652692	1.088184	0.233946
C124	C	0.600559	1.132344	0.257530
C125	C	0.530536	1.141662	0.223200
C126	C	0.512646	1.106823	0.165276
C127	C	0.564779	1.062668	0.141689
C128	C	0.944243	1.172861	-0.196354
C129	C	0.954148	1.235024	-0.264318
C130	C	0.915149	1.253352	-0.344436
C131	C	0.866247	1.209508	-0.356592
C132	C	0.856347	1.147343	-0.288630
H133	H	1.006113	0.321524	0.236911
H134	H	0.700842	0.662049	-0.083512
H135	H	0.938015	0.892372	-0.293998
H136	H	0.519644	0.902611	0.062508
O137	O	0.713107	0.827050	-0.255637
H138	H	0.726634	0.830973	-0.191783
O139	O	1.233295	0.546567	-0.094755
H140	H	1.272419	0.580687	-0.125083
O141	O	1.270491	0.618964	0.025650
H142	H	1.287978	0.673805	0.008287
H143	H	0.574511	1.148954	-0.390300
H144	H	1.270898	0.626962	0.340766
O145	O	1.162124	0.710725	0.074717
H146	H	1.219573	0.696818	0.094626
O147	O	0.904001	0.635793	0.455642
H148	H	0.929451	0.612616	0.522772
O149	O	1.017853	0.055602	0.249101
H150	H	1.041921	0.033131	0.202616
O151	O	0.619860	1.169906	0.320016
H152	H	0.677308	1.155991	0.339934
O153	O	0.659178	0.548039	-0.127351
H154	H	0.632421	0.606547	-0.155415
H155	H	0.677955	1.071410	-0.281733
H156	H	1.253727	0.568170	0.496789
O157	O	0.438819	1.179000	-0.358665
H158	H	0.397828	1.144339	-0.360262
H159	H	1.133102	0.586900	0.544238
H160	H	0.873146	0.511436	0.575751
O161	O	0.728218	1.078151	0.270965
H162	H	0.731890	1.109809	0.315187
O163	O	0.753639	0.838804	-0.561241
H164	H	0.707440	0.879678	-0.562180
H165	H	0.613542	0.666376	0.161120
O166	O	0.986318	1.153093	-0.109948
H167	H	1.021989	1.194020	-0.112930
H168	H	0.784436	0.431867	0.553752
O169	O	0.700756	0.453473	0.405193
H170	H	0.700452	0.407165	0.465918
O171	O	0.490173	0.611336	0.184074
H172	H	0.433687	0.607125	0.185833
O173	O	0.803603	1.100066	-0.301753
H174	H	0.803268	1.053752	-0.241043
O175	O	0.686512	0.415663	-0.098738
H176	H	0.649041	0.380182	-0.066369
O177	O	0.925827	1.320411	-0.417728
H178	H	0.943234	1.302718	-0.470839
O179	O	0.824207	1.229288	-0.443021
H180	H	0.835007	1.182656	-0.467378
H181	H	0.731596	0.577850	0.285080
H182	H	1.167465	0.704471	0.232203
H183	H	0.880030	0.527864	0.104595
O184	O	1.012070	0.667135	0.442567
H185	H	1.015070	0.637411	0.512417
O186	O	0.537643	1.022795	-0.055539
H187	H	0.481832	1.037175	-0.047421
H188	H	0.988654	0.907075	-0.426176
H189	H	0.365936	0.667065	0.160811
H190	H	0.979827	0.904501	-0.577544
O191	O	0.474304	1.189264	0.248670
H192	H	0.498513	1.211907	0.294726
O193	O	0.979390	0.657699	-0.117061
H194	H	0.975722	0.626067	-0.161312
H195	H	0.718955	0.828751	-0.419904
H196	H	0.436713	1.108889	-0.186827
O197	O	0.812589	0.209335	0.033571
H198	H	0.809428	0.153560	0.030208
H199	H	0.455626	1.114418	0.137330
O200	O	0.545479	1.025087	0.079228
H201	H	0.488027	1.038983	0.059332
O202	O	1.006892	1.282306	-0.251197
H203	H	0.992296	1.305087	-0.200767
O204	O	0.933744	0.463126	0.160980
H205	H	0.930524	0.455662	0.229352
O206	O	1.048428	0.187802	0.281276
H207	H	1.040882	0.149597	0.345084
O208	O	0.773859	0.272710	-0.007063
H209	H	0.762900	0.231697	0.053148
H210	H	0.449301	0.968276	0.035063
H211	H	0.341659	1.068768	-0.006857
H212	H	1.092469	0.575144	-0.150791
H213	H	0.094072	1.069440	-0.007168
O214	O	0.217494	1.124473	-0.030177
H215	H	0.195422	1.152929	0.012341
O216	O	0.185962	0.813437	0.099707
H217	H	0.129477	0.809224	0.101471
H218	H	0.258309	0.767546	0.118858
