data_functionalizedCrystal
_audit_creation_method	'MofGen! by Chris Wilmer'
_symmetry_space_group_name_H-M	'P1'
_symmetry_Int_Tables_number	1
_symmetry_cell_setting	triclinic
loop_
_symmetry_equiv_pos_as_xyz
  x,y,z
_cell_length_a	19.188928
_cell_length_b	17.666332
_cell_length_c	17.699083
_cell_angle_alpha	90.005385
_cell_angle_beta	83.213413
_cell_angle_gamma	90.022693
loop_
_atom_site_label
_atom_site_type_symbol
_atom_site_fract_x
_atom_site_fract_y
_atom_site_fract_z
O1	O	-0.926253	-0.063243	-0.094482
O2	O	-0.592920	0.270091	0.238851
O3	O	-0.259587	0.603424	0.572184
O4	O	-0.722956	-0.063180	-0.107204
O5	O	-0.389623	0.270153	0.226129
O6	O	-0.056289	0.603487	0.559462
O7	O	-0.830348	-0.063206	0.009353
O8	O	-0.497015	0.270127	0.342687
O9	O	-0.163682	0.603460	0.676020
O10	O	-0.818861	-0.063216	-0.211040
O11	O	-0.485528	0.270117	0.122293
O12	O	-0.152194	0.603450	0.455626
O13	O	-0.830336	0.062690	0.009356
O14	O	-0.497003	0.396024	0.342689
O15	O	-0.163669	0.729357	0.676023
O16	O	-0.722944	0.062717	-0.107202
O17	O	-0.389610	0.396050	0.226131
O18	O	-0.056277	0.729383	0.559465
O19	O	-0.926241	0.062654	-0.094480
O20	O	-0.592908	0.395987	0.238854
O21	O	-0.259574	0.729321	0.572187
Cu22	Cu	-0.824591	0.074181	-0.100841
Cu23	Cu	-0.491258	0.407514	0.232493
Cu24	Cu	-0.157925	0.740847	0.565826
Cu25	Cu	-0.824606	-0.074707	-0.100844
Cu26	Cu	-0.491273	0.258627	0.232490
Cu27	Cu	-0.157939	0.591960	0.565823
O28	O	-0.818849	0.062680	-0.211038
O29	O	-0.485515	0.396014	0.122296
O30	O	-0.152182	0.729347	0.455629
C31	C	-0.696938	-0.000224	-0.106791
C32	C	-0.363605	0.333110	0.226542
C33	C	-0.030272	0.666443	0.559875
C34	C	-0.619432	-0.000200	-0.105556
C35	C	-0.286099	0.333134	0.227778
C36	C	0.047234	0.666467	0.561111
N37	N	-0.824586	0.178900	-0.100838
N38	N	-0.491253	0.512233	0.232495
N39	N	-0.157919	0.845567	0.565829
C40	C	-0.872168	0.780939	-0.049244
C41	C	-0.538835	1.114272	0.284089
C42	C	-0.205502	1.447605	0.617423
C43	C	-0.872170	0.701691	-0.049246
C44	C	-0.538836	1.035024	0.284088
C45	C	-0.205503	1.368358	0.617421
C46	C	-0.824604	0.662082	-0.100838
C47	C	-0.491271	0.995415	0.232495
C48	C	-0.157938	1.328748	0.565829
C49	C	-0.777046	0.701726	-0.152445
C50	C	-0.443713	1.035060	0.180888
C51	C	-0.110380	1.368393	0.514221
C52	C	-0.777051	0.780973	-0.152447
C53	C	-0.443717	1.114306	0.180886
C54	C	-0.110384	1.447639	0.514219
N55	N	-0.762804	0.537688	-0.110647
N56	N	-0.429470	0.871021	0.222686
N57	N	-0.096137	1.204354	0.556020
N58	N	-0.762802	0.462407	-0.110640
N59	N	-0.429468	0.795741	0.222693
N60	N	-0.096135	1.129074	0.556026
C61	C	-0.824589	0.423318	-0.100836
C62	C	-0.491255	0.756651	0.232497
C63	C	-0.157922	1.089984	0.565830
N64	N	-0.886380	0.462352	-0.091024
N65	N	-0.553047	0.795686	0.242310
N66	N	-0.219713	1.129019	0.575643
N67	N	-0.886382	0.537640	-0.091026
N68	N	-0.553048	0.870973	0.242307
N69	N	-0.219715	1.204306	0.575640
C70	C	-0.824594	0.576153	-0.100842
C71	C	-0.491261	0.909486	0.232491
C72	C	-0.157928	1.242819	0.565825
C73	C	-0.872149	0.297753	-0.049237
C74	C	-0.538815	0.631086	0.284096
C75	C	-0.205482	0.964420	0.617429
C76	C	-0.872151	0.218504	-0.049244
C77	C	-0.538818	0.551837	0.284089
C78	C	-0.205484	0.885171	0.617422
C79	C	-0.777021	0.218541	-0.152440
C80	C	-0.443688	0.551874	0.180893
C81	C	-0.110355	0.885208	0.514226
C82	C	-0.777025	0.297789	-0.152437
C83	C	-0.443692	0.631122	0.180896
C84	C	-0.110358	0.964455	0.514230
C85	C	-0.824588	0.337390	-0.100832
C86	C	-0.491255	0.670723	0.232502
C87	C	-0.157921	1.004057	0.565835
C88	C	-0.574585	-0.000212	-0.173948
C89	C	-0.241252	0.333121	0.159386
C90	C	0.092082	0.666454	0.492719
C91	C	-0.501760	-0.000217	-0.172787
C92	C	-0.168427	0.333117	0.160547
C93	C	0.164907	0.666450	0.493880
C94	C	-0.473785	-0.000224	-0.103230
C95	C	-0.140452	0.333110	0.230104
C96	C	0.192881	0.666443	0.563437
C97	C	-0.518642	-0.000207	-0.034829
C98	C	-0.185309	0.333127	0.298505
C99	C	0.148024	0.666460	0.631838
C100	C	-0.591466	-0.000195	-0.035992
C101	C	-0.258133	0.333139	0.297342
C102	C	0.075201	0.666472	0.630675
N103	N	-0.365750	-0.043094	-0.050064
N104	N	-0.032416	0.290239	0.283270
N105	N	0.300917	0.623573	0.616603
N106	N	-0.296570	-0.043107	-0.048964
N107	N	0.036764	0.290226	0.284370
N108	N	0.370097	0.623560	0.617703
C109	C	-0.254372	-0.000258	-0.099722
C110	C	0.078961	0.333075	0.233612
C111	C	0.412294	0.666409	0.566945
N112	N	-0.283967	0.042595	-0.151633
N113	N	0.049366	0.375928	0.181701
N114	N	0.382699	0.709262	0.515034
N115	N	-0.353153	0.042605	-0.152735
N116	N	-0.019820	0.375938	0.180598
N117	N	0.313513	0.709271	0.513932
C118	C	-0.394821	-0.000236	-0.101961
C119	C	-0.061488	0.333097	0.231372
C120	C	0.271845	0.666431	0.564706
C121	C	-0.130559	-0.000274	-0.166859
C122	C	0.202774	0.333059	0.166474
C123	C	0.536107	0.666392	0.499807
C124	C	-0.057733	-0.000274	-0.165696
C125	C	0.275600	0.333059	0.167638
C126	C	0.608934	0.666393	0.500971
C127	C	-0.074617	-0.000271	-0.027735
C128	C	0.258716	0.333062	0.305598
C129	C	0.592049	0.666395	0.638931
C130	C	-0.147442	-0.000264	-0.028901
C131	C	0.185892	0.333069	0.304432
C132	C	0.519225	0.666402	0.637765
C133	C	-0.175408	-0.000269	-0.098465
C134	C	0.157925	0.333064	0.234868
C135	C	0.491259	0.666397	0.568201
C136	C	0.047742	-0.000291	-0.094895
C137	C	0.381075	0.333043	0.238438
C138	C	0.714408	0.666376	0.571772
C139	C	-0.029764	-0.000280	-0.096138
C140	C	0.303570	0.333054	0.237195
C141	C	0.636903	0.666387	0.570529
C142	C	-0.829931	-0.000258	0.037551
C143	C	-0.496597	0.333075	0.370884
C144	C	-0.163264	0.666409	0.704218
C145	C	-0.828696	-0.000257	0.121568
C146	C	-0.495362	0.333076	0.454901
C147	C	-0.162029	0.666409	0.788234
N148	N	-0.824614	0.820574	-0.100842
N149	N	-0.491280	1.153907	0.232491
N150	N	-0.157947	1.487240	0.565825
C151	C	-0.819266	-0.000270	-0.239235
C152	C	-0.485933	0.333064	0.094098
C153	C	-0.152600	0.666397	0.427431
C154	C	-0.820501	-0.000275	-0.323252
C155	C	-0.487168	0.333058	0.010081
C156	C	-0.153835	0.666391	0.343415
C157	C	-0.891733	-0.000276	0.170272
C158	C	-0.558399	0.333058	0.503605
C159	C	-0.225066	0.666391	0.836939
C160	C	-0.890568	-0.000282	0.249214
C161	C	-0.557235	0.333051	0.582547
C162	C	-0.223902	0.666385	0.915881
C163	C	-0.826366	-0.000264	0.279450
C164	C	-0.493033	0.333069	0.612783
C165	C	-0.159699	0.666402	0.946116
C166	C	-0.763324	-0.000248	0.230739
C167	C	-0.429991	0.333085	0.564072
C168	C	-0.096658	0.666418	0.897405
C169	C	-0.764489	-0.000247	0.151799
C170	C	-0.431156	0.333086	0.485132
C171	C	-0.097823	0.666419	0.818465
C172	C	-0.758624	-0.000253	0.549096
C173	C	-0.425291	0.333080	0.882429
C174	C	-0.091957	0.666414	1.215762
C175	C	-0.757464	-0.000252	0.628042
C176	C	-0.424130	0.333082	0.961375
C177	C	-0.090797	0.666415	1.294709
C178	C	-0.884703	-0.000287	0.646511
C179	C	-0.551369	0.333046	0.979844
C180	C	-0.218036	0.666379	1.313178
C181	C	-0.885868	-0.000287	0.567571
C182	C	-0.552535	0.333047	0.900904
C183	C	-0.219201	0.666380	1.234237
C184	C	-0.822826	-0.000274	0.518867
C185	C	-0.489493	0.333059	0.852200
C186	C	-0.156160	0.666392	1.185534
C187	C	-0.824090	-0.000269	0.433269
C188	C	-0.490757	0.333064	0.766603
C189	C	-0.157423	0.666398	1.099936
C190	C	-0.825102	-0.000264	0.365046
C191	C	-0.491769	0.333069	0.698379
C192	C	-0.158435	0.666402	1.031712
H193	H	-0.910898	0.813180	-0.007226
H194	H	-0.577565	1.146513	0.326108
H195	H	-0.244232	1.479846	0.659441
O196	O	-0.697341	-0.000333	0.501871
O197	O	-0.364007	0.333000	0.835204
O198	O	-0.030674	0.666333	1.168538
C199	C	-0.658365	-0.065532	0.515528
C200	C	-0.325032	0.267802	0.848862
C201	C	0.008302	0.601135	1.182195
H202	H	-0.675618	-0.087277	0.575467
H203	H	-0.342285	0.246056	0.908800
H204	H	-0.008951	0.579390	1.242133
H205	H	-0.600123	-0.050846	0.509789
H206	H	-0.266790	0.282487	0.843123
H207	H	0.066544	0.615821	1.176456
H208	H	-0.667836	-0.111192	0.472373
H209	H	-0.334503	0.222141	0.805706
H210	H	-0.001169	0.555474	1.139040
H211	H	-0.183958	-0.000258	0.026791
H212	H	0.149376	0.333075	0.360125
H213	H	0.482709	0.666409	0.693458
H214	H	-0.944014	-0.000285	0.145661
H215	H	-0.610680	0.333048	0.478994
H216	H	-0.277347	0.666382	0.812328
O217	O	-0.918415	0.336110	0.000919
O218	O	-0.585082	0.669443	0.334252
O219	O	-0.251749	1.002777	0.667585
C220	C	-0.960380	0.284129	0.046473
C221	C	-0.627047	0.617462	0.379806
C222	C	-0.293714	0.950795	0.713139
H223	H	-0.961122	0.227639	0.015440
H224	H	-0.627789	0.560972	0.348773
H225	H	-0.294456	0.894305	0.682106
H226	H	-1.016154	0.307005	0.058182
H227	H	-0.682821	0.640338	0.391515
H228	H	-0.349488	0.973672	0.724849
H229	H	-0.937799	0.275709	0.102631
H230	H	-0.604466	0.609043	0.435965
H231	H	-0.271133	0.942376	0.769298
H232	H	-0.910896	0.669414	-0.007227
H233	H	-0.577563	1.002747	0.326106
H234	H	-0.244229	1.336081	0.659439
H235	H	-0.713158	-0.000233	0.112143
H236	H	-0.379825	0.333101	0.445477
H237	H	-0.046491	0.666434	0.778810
O238	O	-0.701019	-0.000198	0.260233
O239	O	-0.367685	0.333135	0.593566
O240	O	-0.034352	0.666468	0.926900
C241	C	-0.713506	-0.000219	0.340352
C242	C	-0.380172	0.333114	0.673685
C243	C	-0.046839	0.666447	1.007019
H244	H	-0.768021	0.023599	0.359074
H245	H	-0.434688	0.356933	0.692408
H246	H	-0.101354	0.690266	1.025741
H247	H	-0.672428	0.036345	0.364456
H248	H	-0.339094	0.369678	0.697789
H249	H	-0.005761	0.703011	1.031123
H250	H	-0.710165	-0.060617	0.362312
H251	H	-0.376832	0.272716	0.695645
H252	H	-0.043498	0.606050	1.028979
H253	H	-0.738319	0.669473	-0.194454
H254	H	-0.404986	1.002806	0.138880
H255	H	-0.071652	1.336139	0.472213
H256	H	-0.051841	-0.000324	0.028899
H257	H	0.281492	0.333009	0.362233
H258	H	0.614825	0.666343	0.695566
O259	O	-0.918184	0.180000	0.001058
O260	O	-0.584850	0.513333	0.334392
O261	O	-0.251517	0.846667	0.667725
C262	C	-0.880741	0.134316	0.047641
C263	C	-0.547407	0.467649	0.380974
C264	C	-0.214074	0.800983	0.714308
H265	H	-0.826127	0.122386	0.017207
H266	H	-0.492794	0.455719	0.350540
H267	H	-0.159461	0.789052	0.683873
H268	H	-0.909895	0.078610	0.059932
H269	H	-0.576561	0.411944	0.393266
H270	H	-0.243228	0.745277	0.726599
H271	H	-0.875924	0.165009	0.103450
H272	H	-0.542590	0.498342	0.436784
H273	H	-0.209257	0.831675	0.770117
H274	H	-0.941899	-0.000295	0.288867
H275	H	-0.608566	0.333038	0.622200
H276	H	-0.275233	0.666372	0.955533
O277	O	-0.458213	-0.000369	-0.239245
O278	O	-0.124879	0.332964	0.094088
O279	O	0.208454	0.666297	0.427421
C280	C	-0.470919	-0.065566	-0.281494
C281	C	-0.137585	0.267767	0.051840
C282	C	0.195748	0.601100	0.385173
H283	H	-0.495906	-0.111128	-0.241450
H284	H	-0.162573	0.222206	0.091884
H285	H	0.170760	0.555539	0.425217
H286	H	-0.419209	-0.087470	-0.312009
H287	H	-0.085875	0.245864	0.021324
H288	H	0.247458	0.579197	0.354658
H289	H	-0.507914	-0.050823	-0.325185
H290	H	-0.174580	0.282510	0.008149
H291	H	0.158753	0.615844	0.341482
H292	H	-0.495861	-0.000223	0.021805
H293	H	-0.162528	0.333111	0.355139
H294	H	0.170806	0.666444	0.688472
H295	H	-0.938148	-0.000297	0.542958
H296	H	-0.604815	0.333036	0.876291
H297	H	-0.271481	0.666370	1.209624
H298	H	-0.021218	-0.000280	-0.221391
H299	H	0.312115	0.333053	0.111942
H300	H	0.645448	0.666387	0.445276
O301	O	-0.730783	0.819361	-0.202597
O302	O	-0.397450	1.152694	0.130737
O303	O	-0.064116	1.486027	0.464070
C304	C	-0.688813	0.767412	-0.248151
C305	C	-0.355480	1.100745	0.085182
C306	C	-0.022146	1.434079	0.418515
H307	H	-0.688076	0.710924	-0.217125
H308	H	-0.354742	1.044258	0.116208
H309	H	-0.021409	1.377591	0.449542
H310	H	-0.633038	0.790334	-0.259849
H311	H	-0.299705	1.123667	0.073484
H312	H	0.033629	1.457001	0.406818
H313	H	-0.711386	0.758970	-0.304316
H314	H	-0.378052	1.092304	0.029017
H315	H	-0.044719	1.425637	0.362351
O316	O	-0.635006	-0.000322	0.030468
O317	O	-0.301672	0.333011	0.363801
O318	O	0.031661	0.666345	0.697135
C319	C	-0.622363	-0.065516	0.072722
C320	C	-0.289030	0.267817	0.406056
C321	C	0.044304	0.601151	0.739389
H322	H	-0.597424	-0.111092	0.032682
H323	H	-0.264091	0.222241	0.366015
H324	H	0.069243	0.555575	0.699349
H325	H	-0.674093	-0.087397	0.103244
H326	H	-0.340760	0.245936	0.436577
H327	H	-0.007427	0.579269	0.769911
H328	H	-0.585350	-0.050777	0.116409
H329	H	-0.252016	0.282556	0.449742
H330	H	0.081317	0.615889	0.783075
H331	H	-0.738296	0.186292	-0.194451
H332	H	-0.404962	0.519625	0.138883
H333	H	-0.071629	0.852958	0.472216
O334	O	-0.730757	0.336177	-0.202583
O335	O	-0.397424	0.669511	0.130750
O336	O	-0.064091	1.002844	0.464084
C337	C	-0.688786	0.284227	-0.248135
C338	C	-0.355453	0.617561	0.085199
C339	C	-0.022119	0.950894	0.418532
H340	H	-0.688047	0.227742	-0.217105
H341	H	-0.354714	0.561075	0.116228
H342	H	-0.021380	0.894408	0.449562
H343	H	-0.633012	0.307151	-0.259834
H344	H	-0.299678	0.640484	0.073499
H345	H	0.033655	0.973817	0.406833
H346	H	-0.711359	0.275781	-0.304298
H347	H	-0.378026	0.609115	0.029035
H348	H	-0.044692	0.942448	0.362368
H349	H	-0.936034	-0.000301	0.686176
H350	H	-0.602701	0.333032	1.019509
H351	H	-0.269367	0.666365	1.352842
O352	O	-0.601777	-0.000357	-0.241505
O353	O	-0.268443	0.332976	0.091828
O354	O	0.064890	0.666309	0.425162
C355	C	-0.643436	-0.065550	-0.246292
C356	C	-0.310103	0.267783	0.087041
C357	C	0.023231	0.601117	0.420374
H358	H	-0.626308	-0.111114	-0.206784
H359	H	-0.292975	0.222220	0.126550
H360	H	0.040359	0.555553	0.459883
H361	H	-0.636794	-0.087453	-0.307307
H362	H	-0.303461	0.245880	0.026026
H363	H	0.029872	0.579214	0.359359
H364	H	-0.700891	-0.050801	-0.228659
H365	H	-0.367558	0.282533	0.104675
H366	H	-0.034224	0.615866	0.438008
O367	O	-0.695111	-0.000108	0.657450
O368	O	-0.361778	0.333225	0.990784
O369	O	-0.028445	0.666559	1.324117
C370	C	-0.690626	0.065086	0.702580
C371	C	-0.357293	0.398420	1.035913
C372	C	-0.023960	0.731753	1.369246
H373	H	-0.727068	0.110654	0.684031
H374	H	-0.393735	0.443988	1.017364
H375	H	-0.060401	0.777321	1.350698
H376	H	-0.634339	0.086981	0.695312
H377	H	-0.301005	0.420314	1.028645
H378	H	0.032328	0.753648	1.361979
H379	H	-0.706844	0.050343	0.764887
H380	H	-0.373511	0.383676	1.098220
H381	H	-0.040177	0.717009	1.431554
H382	H	-0.153330	-0.000267	-0.223503
H383	H	0.180003	0.333066	0.109831
H384	H	0.513336	0.666399	0.443164
