data_functionalizedCrystal
_audit_creation_method	'MofGen! by Chris Wilmer'
_symmetry_space_group_name_H-M	'P1'
_symmetry_Int_Tables_number	1
_symmetry_cell_setting	triclinic
loop_
_symmetry_equiv_pos_as_xyz
  x,y,z
_cell_length_a	13.262522
_cell_length_b	17.699083
_cell_length_c	16.776229
_cell_angle_alpha	90.007545
_cell_angle_beta	74.077118
_cell_angle_gamma	96.120548
loop_
_atom_site_label
_atom_site_type_symbol
_atom_site_fract_x
_atom_site_fract_y
_atom_site_fract_z
O1	O	1.392440	-0.101945	-0.368155
O2	O	1.086823	-0.113029	-0.301903
O3	O	1.248266	0.002664	-0.336894
O4	O	1.230997	-0.217638	-0.333164
O5	O	1.248244	0.002671	-0.204313
O6	O	1.086801	-0.113022	-0.169321
O7	O	1.392418	-0.101937	-0.235574
Zn8	Zn	1.239606	-0.107479	-0.181398
Zn9	Zn	1.239634	-0.107488	-0.356079
O10	O	1.230975	-0.217630	-0.200583
C11	C	1.047709	-0.112405	-0.227135
C12	C	0.931194	-0.110545	-0.201876
C13	C	0.876451	-0.109668	-0.117735
C14	C	0.766980	-0.107913	-0.093998
C15	C	0.712242	-0.107041	-0.154398
C16	C	0.766984	-0.107923	-0.238540
C17	C	0.876466	-0.109672	-0.262281
C18	C	0.712257	-0.107044	-0.298943
C19	C	0.766999	-0.107926	-0.383086
C20	C	0.876470	-0.109676	-0.406822
C21	C	0.931209	-0.110548	-0.346422
C22	C	0.602775	-0.105295	-0.275203
C23	C	0.602790	-0.105299	-0.419748
C24	C	0.712261	-0.107054	-0.443486
C25	C	1.247636	0.030867	-0.270469
C26	C	1.245780	0.114893	-0.270066
C27	C	1.431532	-0.102562	-0.310343
C28	C	1.548047	-0.104422	-0.335607
C29	C	1.231605	-0.245834	-0.267010
C30	C	1.233461	-0.329860	-0.267418
N31	N	1.239595	-0.107472	-0.062184
C32	C	1.340543	0.163090	-0.290608
C33	C	1.338793	0.242041	-0.290236
C34	C	1.242278	0.272794	-0.269315
C35	C	1.147507	0.224591	-0.248774
C36	C	1.149258	0.145641	-0.249152
C37	C	1.140441	0.542986	-0.247249
C38	C	1.138696	0.621942	-0.246870
C39	C	1.329975	0.639386	-0.288332
C40	C	1.331727	0.560436	-0.288710
C41	C	1.236956	0.512240	-0.268174
C42	C	1.238856	0.426632	-0.268579
C43	C	1.240377	0.358400	-0.268904
N44	N	1.239654	-0.107489	-0.475295
C45	C	1.311103	-0.056264	-0.035966
C46	C	1.311109	-0.056263	0.047485
C47	C	1.239611	-0.107475	0.104716
C48	C	1.168094	-0.158685	0.078493
C49	C	1.168084	-0.158681	-0.004956
C50	C	1.168132	-0.158700	0.415032
C51	C	1.168150	-0.158701	0.498485
C52	C	1.311157	-0.056282	0.467473
C53	C	1.311147	-0.056278	0.384024
C54	C	1.239628	-0.107485	0.357810
C55	C	1.239621	-0.107485	0.267323
C56	C	1.239622	-0.107480	0.195200
H57	H	0.921041	-0.110384	-0.475337
O58	O	1.422136	0.686097	-0.308279
C59	C	1.507695	0.642022	-0.326841
H60	H	1.480896	0.583191	-0.295928
H61	H	1.574074	0.670939	-0.302741
H62	H	1.537300	0.636296	-0.396861
O63	O	0.549470	-0.104541	-0.193495
C64	C	0.474107	-0.169008	-0.172822
H65	H	0.453688	-0.190576	-0.231143
H66	H	0.399835	-0.153052	-0.126126
H67	H	0.507856	-0.215525	-0.144481
H68	H	1.072092	0.106400	-0.232425
O69	O	1.380542	-0.006422	0.072868
C70	C	1.363677	0.068567	0.056162
H71	H	1.323205	0.068623	0.004356
H72	H	1.442674	0.105548	0.036167
H73	H	1.311516	0.092168	0.114454
H74	H	1.369330	-0.014565	-0.082560
O75	O	1.098816	-0.208483	0.389457
C76	C	1.154900	-0.255389	0.329028
H77	H	1.237099	-0.225531	0.298688
H78	H	1.111048	-0.267217	0.279861
H79	H	1.161903	-0.311347	0.359667
O80	O	1.380640	-0.006458	0.328547
C81	C	1.443775	0.038728	0.369580
H82	H	1.400756	0.039734	0.438401
H83	H	1.459939	0.099116	0.341972
H84	H	1.521681	0.013876	0.361546
O85	O	1.380525	-0.006560	0.493086
C86	C	1.365223	-0.017551	0.579007
H87	H	1.281705	-0.045538	0.608522
H88	H	1.377059	0.039726	0.608162
H89	H	1.424529	-0.055726	0.589816
O90	O	1.430775	0.288939	-0.310069
C91	C	1.435483	0.335130	-0.242422
H92	H	1.352177	0.339384	-0.201473
H93	H	1.474728	0.394338	-0.266378
H94	H	1.483349	0.309020	-0.204715
H95	H	1.060097	0.646977	-0.229831
H96	H	0.756847	-0.107772	-0.511996
H97	H	1.063273	0.503753	-0.230526
O98	O	1.098678	-0.208534	0.133986
C99	C	1.115551	-0.283519	0.109932
H100	H	1.156003	-0.283567	0.040566
H101	H	1.036558	-0.320507	0.124204
H102	H	1.167733	-0.307117	0.145574
H103	H	0.722419	-0.107185	-0.025489
H104	H	1.068922	0.249636	-0.231745
O105	O	0.605922	-0.105233	-0.131402
C106	C	0.581362	-0.039206	-0.165742
H107	H	0.652844	0.005573	-0.179952
H108	H	0.512131	-0.016088	-0.119607
H109	H	0.559251	-0.053713	-0.225433
O110	O	0.929759	-0.110414	-0.059152
C111	C	1.005118	-0.045943	-0.071160
H112	H	1.025531	-0.024381	-0.138333
H113	H	1.079394	-0.061894	-0.056687
H114	H	0.971368	0.000576	-0.028170
O115	O	1.098584	-0.208474	0.553980
C116	C	1.035470	-0.253681	0.512947
H117	H	1.034359	-0.222646	0.453706
H118	H	0.951627	-0.264920	0.555252
H119	H	1.069388	-0.310033	0.496702
O120	O	1.037573	-0.112136	-0.369579
C121	C	1.086200	-0.047234	-0.419732
H122	H	1.027137	-0.024408	-0.449130
H123	H	1.156749	-0.063116	-0.470549
H124	H	1.114036	-0.001698	-0.380073
H125	H	0.558222	-0.104590	-0.468931
O126	O	1.434392	0.133346	-0.310988
C127	C	1.517656	0.192820	-0.329021
H128	H	1.488369	0.246536	-0.347771
H129	H	1.585057	0.176108	-0.382126
H130	H	1.546872	0.203907	-0.271752
O131	O	1.098767	-0.208458	-0.030546
C132	C	1.154844	-0.255363	-0.090980
H133	H	1.237050	-0.225513	-0.121311
H134	H	1.110997	-0.267176	-0.140152
H135	H	1.161830	-0.311329	-0.060346
H136	H	1.410319	0.535402	-0.305742
