data_functionalizedCrystal
_audit_creation_method	'MofGen! by Chris Wilmer'
_symmetry_space_group_name_H-M	'P1'
_symmetry_Int_Tables_number	1
_symmetry_cell_setting	triclinic
loop_
_symmetry_equiv_pos_as_xyz
  x,y,z
_cell_length_a	16.625546
_cell_length_b	13.897449
_cell_length_c	13.897441
_cell_angle_alpha	90.026069
_cell_angle_beta	89.966553
_cell_angle_gamma	89.977604
loop_
_atom_site_label
_atom_site_type_symbol
_atom_site_fract_x
_atom_site_fract_y
_atom_site_fract_z
Zn1	Zn	-0.320977	-1.474671	-0.545499
Zn2	Zn	-0.455828	-1.474551	-0.384193
Zn3	Zn	-0.321013	-1.313360	-0.384203
Zn4	Zn	-0.455772	-1.313328	-0.545430
O5	O	-0.388397	-1.393977	-0.464831
O6	O	-0.338874	-1.609636	-0.524126
O7	O	-0.437982	-1.453132	-0.249212
O8	O	-0.208176	-1.334821	-0.405632
O9	O	-0.437948	-1.609549	-0.405615
O10	O	-0.208150	-1.453336	-0.524136
O11	O	-0.338934	-1.334705	-0.249220
O12	O	-0.338880	-1.178374	-0.405565
O13	O	-0.437853	-1.334767	-0.680421
O14	O	-0.437887	-1.178351	-0.524018
O15	O	-0.338820	-1.453305	-0.680472
O16	O	-0.568653	-1.453101	-0.405548
O17	O	-0.568611	-1.334651	-0.524009
C18	C	-0.388382	-1.143363	-0.464786
C19	C	-0.388394	-1.036149	-0.464789
C20	C	-0.388396	-0.949079	-0.464801
C21	C	-0.388400	-0.839847	-0.464826
C22	C	-0.597888	-1.393886	-0.464791
C23	C	-0.687509	-1.393935	-0.464806
C24	C	-1.015685	-1.394104	-0.464906
C25	C	-0.924376	-1.394054	-0.464881
C26	C	-0.851600	-1.394019	-0.464856
C27	C	-0.760286	-1.393970	-0.464831
C28	C	-0.178088	-1.394095	-0.464893
C29	C	-0.088467	-1.394146	-0.464919
C30	C	-0.388326	-1.394046	-0.716424
C31	C	-0.388296	-1.394075	-0.823638
C32	C	-0.388410	-0.645570	-0.464866
C33	C	-0.388408	-0.752784	-0.464850
C34	C	-0.388241	-1.394101	-1.019934
C35	C	-0.388274	-1.394084	-0.910701
C36	C	-0.388410	-1.393965	-0.214217
C37	C	-0.388213	-1.394122	-0.107004
