data_functionalizedCrystal
_audit_creation_method	'MofGen! by Chris Wilmer'
_symmetry_space_group_name_H-M	'P1'
_symmetry_Int_Tables_number	1
_symmetry_cell_setting	triclinic
loop_
_symmetry_equiv_pos_as_xyz
  x,y,z
_cell_length_a	12.759401
_cell_length_b	25.639239
_cell_length_c	25.639233
_cell_angle_alpha	89.981253
_cell_angle_beta	89.989669
_cell_angle_gamma	90.039113
loop_
_atom_site_label
_atom_site_type_symbol
_atom_site_fract_x
_atom_site_fract_y
_atom_site_fract_z
Zn1	Zn	1.605994	-0.208208	-0.295577
Zn2	Zn	1.605840	-0.295627	-0.208142
Zn3	Zn	1.430322	-0.208208	-0.208159
Zn4	Zn	1.430211	-0.295615	-0.295549
O5	O	1.518092	-0.251915	-0.251857
O6	O	1.752995	-0.219810	-0.283983
O7	O	1.582539	-0.284036	-0.134979
O8	O	1.453736	-0.135043	-0.219774
O9	O	1.752882	-0.284036	-0.219744
O10	O	1.582801	-0.135043	-0.284000
O11	O	1.453586	-0.219810	-0.134992
O12	O	1.283286	-0.219798	-0.219748
O13	O	1.453548	-0.284016	-0.368718
O14	O	1.283205	-0.284016	-0.283953
O15	O	1.582694	-0.219798	-0.368739
O16	O	1.582432	-0.368791	-0.219717
O17	O	1.453398	-0.368782	-0.283936
C18	C	1.245125	-0.251906	-0.251849
C19	C	1.128348	-0.251915	-0.251859
C20	C	1.073545	-0.218532	-0.285359
C21	C	0.963821	-0.218538	-0.285363
C22	C	0.963712	-0.285312	-0.218364
C23	C	1.073434	-0.285304	-0.218358
C24	C	1.517915	-0.387757	-0.251833
C25	C	1.517936	-0.445871	-0.251840
C26	C	1.585455	-0.806226	-0.218475
C27	C	1.585496	-0.860831	-0.218482
O28	O	1.642720	-0.889061	-0.190088
N29	N	1.518277	-0.888154	-0.251892
C30	C	1.451020	-0.860870	-0.285300
O31	O	1.393849	-0.889124	-0.313718
C32	C	1.450985	-0.806267	-0.285295
C33	C	1.518201	-0.778946	-0.251880
C34	C	1.652667	-0.778906	-0.185063
C35	C	1.652624	-0.724306	-0.185056
C36	C	1.585370	-0.697025	-0.218460
C37	C	1.518159	-0.724346	-0.251872
C38	C	1.383734	-0.778984	-0.318705
C39	C	1.383706	-0.724376	-0.318698
C40	C	1.450922	-0.697056	-0.285283
C41	C	1.450863	-0.642465	-0.285269
N42	N	1.518082	-0.615142	-0.251860
C43	C	1.585336	-0.642422	-0.218456
C44	C	1.451099	-0.975540	-0.285308
C45	C	1.451127	-1.030143	-0.285310
C46	C	1.585605	-1.030100	-0.218493
C47	C	1.585571	-0.975497	-0.218489
C48	C	1.518318	-0.948217	-0.251899
C49	C	1.585241	-0.527757	-0.218442
C50	C	1.585190	-0.473152	-0.218436
C51	C	1.450716	-0.473199	-0.285254
C52	C	1.450763	-0.527800	-0.285259
C53	C	1.518034	-0.555077	-0.251851
O54	O	1.393671	-0.614200	-0.313650
O55	O	1.642507	-0.614161	-0.190047
C56	C	1.792125	-0.251924	-0.251865
C57	C	1.908902	-0.251928	-0.251868
C58	C	1.518126	-0.251906	-0.388230
C59	C	1.518140	-0.251902	-0.446344
C60	C	1.518298	-0.115542	-0.251892
C61	C	1.518386	-0.057428	-0.251907
C62	C	1.585472	-0.218364	-0.806723
C63	C	1.585485	-0.218350	-0.861328
O64	O	1.642649	-0.189897	-0.889578
N65	N	1.518256	-0.251779	-0.888627
C66	C	1.451002	-0.285221	-0.861318
O67	O	1.393819	-0.313654	-0.889552
C68	C	1.450984	-0.285233	-0.806715
C69	C	1.518226	-0.251805	-0.779419
C70	C	1.652707	-0.184939	-0.779427
C71	C	1.652695	-0.184954	-0.724827
C72	C	1.585449	-0.218395	-0.697522
C73	C	1.518214	-0.251820	-0.724818
C74	C	1.383726	-0.318672	-0.779408
C75	C	1.383714	-0.318680	-0.724801
C76	C	1.450955	-0.285252	-0.697505
C77	C	1.450955	-0.285276	-0.642913
N78	N	1.518184	-0.251847	-0.615614
C79	C	1.585431	-0.218406	-0.642919
C80	C	1.451043	-0.285194	-0.975989
C81	C	1.451065	-0.285186	-1.030591
C82	C	1.585547	-0.218314	-1.030597
C83	C	1.585529	-0.218325	-0.975994
C84	C	1.518272	-0.251765	-0.948690
C85	C	1.585402	-0.218441	-0.528254
C86	C	1.585387	-0.218461	-0.473648
C87	C	1.450901	-0.285331	-0.473648
C88	C	1.450920	-0.285314	-0.528248
C89	C	1.518173	-0.251864	-0.555550
O90	O	1.393818	-0.313713	-0.614628
O91	O	1.642595	-0.189974	-0.614678
C92	C	1.518119	-0.251886	-0.116014
C93	C	1.518308	-0.251743	-0.057901
H94	H	1.118253	-0.191343	-0.312636
F95	F	0.905501	-0.183007	-0.321018
H96	H	1.328932	-0.345906	-0.702573
F97	F	1.379146	-0.444156	-0.320805
F98	F	1.131763	-0.320831	-0.182696
H99	H	1.640281	-0.191104	-0.953773
H100	H	1.640147	-0.191240	-0.451426
H101	H	1.396176	-0.312538	-0.550474
F102	F	0.905260	-0.320846	-0.182713
H103	H	1.639925	-0.450909	-0.191223
H104	H	1.396383	-1.052382	-0.312515
H105	H	1.396154	-0.312559	-0.451406
F106	F	1.379507	-0.946512	-0.320866
F107	F	1.312201	-0.808048	-0.354275
F108	F	1.656976	-0.182839	-0.557303
F109	F	1.312161	-0.354253	-0.808447
H110	H	1.640022	-0.549960	-0.191239
H111	H	1.707439	-0.801112	-0.157861
F112	F	1.312126	-0.695347	-0.354259
F113	F	1.724178	-0.695236	-0.149497
H114	H	1.640304	-0.953256	-0.191280
H115	H	1.640371	-1.052321	-0.191296
F116	F	1.379512	-0.320771	-1.059636
H117	H	1.396034	-0.550045	-0.312469
F118	F	1.724258	-0.149373	-0.695783
H119	H	1.707468	-0.157705	-0.801653
F120	F	1.657116	-0.182722	-1.059666
F121	F	1.379460	-0.320791	-0.946935
