data_functionalizedCrystal
_audit_creation_method	'MofGen! by Chris Wilmer'
_symmetry_space_group_name_H-M	'P1'
_symmetry_Int_Tables_number	1
_symmetry_cell_setting	triclinic
loop_
_symmetry_equiv_pos_as_xyz
  x,y,z
_cell_length_a	23.532355
_cell_length_b	23.532357
_cell_length_c	13.596369
_cell_angle_alpha	89.988481
_cell_angle_beta	90.000488
_cell_angle_gamma	82.827896
loop_
_atom_site_label
_atom_site_type_symbol
_atom_site_fract_x
_atom_site_fract_y
_atom_site_fract_z
O1	O	0.755267	0.068997	-0.081669
O2	O	0.589397	0.079031	-0.081702
O3	O	0.677349	-0.008921	-0.081665
O4	O	0.667316	0.156949	-0.081707
O5	O	0.677340	-0.008925	0.081918
O6	O	0.589389	0.079027	0.081881
O7	O	0.755258	0.068992	0.081914
Zn8	Zn	0.672322	0.074009	0.107869
Zn9	Zn	0.672334	0.074015	-0.107658
O10	O	0.667307	0.156944	0.081876
C11	C	0.568177	0.078778	0.000085
C12	C	0.504958	0.078024	0.000074
C13	C	0.112940	0.073283	0.089285
C14	C	0.053541	0.072566	0.089289
O15	O	0.022819	0.072173	0.165123
N16	N	0.023837	0.072212	0.000120
C17	C	0.053537	0.072571	-0.089058
O18	O	0.022817	0.072204	-0.164903
C19	C	0.112936	0.073284	-0.089061
C20	C	0.142636	0.073643	0.000113
C21	C	0.142640	0.073642	0.178452
C22	C	0.202035	0.074360	0.178448
C23	C	0.231731	0.074720	0.089276
C24	C	0.202031	0.074362	0.000109
C25	C	0.142635	0.073639	-0.178238
C26	C	0.202037	0.074352	-0.178234
C27	C	0.231737	0.074711	-0.089059
C28	C	0.291121	0.075440	-0.089067
N29	N	0.320824	0.075794	0.000102
C30	C	0.291129	0.075434	0.089273
C31	C	-0.071204	0.071072	-0.089045
C32	C	-0.130603	0.070363	-0.089043
C33	C	-0.130594	0.070356	0.089304
C34	C	-0.071195	0.071070	0.089301
C35	C	-0.041501	0.071425	0.000124
C36	C	0.415863	0.076943	0.089257
C37	C	0.475263	0.077664	0.089245
C38	C	0.475250	0.077667	-0.089102
C39	C	0.415855	0.076949	-0.089090
C40	C	0.386163	0.076585	0.000097
O41	O	0.321881	0.075831	-0.164862
O42	O	0.321857	0.075793	0.165105
C43	C	0.677094	-0.030140	0.000130
C44	C	0.676339	-0.093358	0.000139
C45	C	0.671607	-0.485366	-0.089084
C46	C	0.670890	-0.544765	-0.089090
O47	O	0.670503	-0.575479	-0.164925
N48	N	0.670529	-0.574479	0.000078
C49	C	0.670880	-0.544789	0.089257
O50	O	0.670507	-0.575517	0.165101
C51	C	0.671593	-0.485390	0.089262
C52	C	0.671960	-0.455681	0.000088
C53	C	0.671972	-0.455656	-0.178250
C54	C	0.672691	-0.396261	-0.178244
C55	C	0.673043	-0.366576	-0.089072
C56	C	0.672678	-0.396286	0.000094
C57	C	0.671940	-0.455701	0.178440
C58	C	0.672653	-0.396299	0.178437
C59	C	0.673019	-0.366589	0.089264
C60	C	0.673749	-0.307205	0.089273
N61	N	0.674109	-0.277492	0.000105
C62	C	0.673757	-0.307177	-0.089067
C63	C	0.669382	-0.669531	0.089240
C64	C	0.668673	-0.728929	0.089237
C65	C	0.668681	-0.728901	-0.089111
C66	C	0.669394	-0.669502	-0.089106
C67	C	0.669742	-0.639817	0.000073
C68	C	0.675266	-0.182443	-0.089048
C69	C	0.675986	-0.123043	-0.089034
C70	C	0.675975	-0.123076	0.089313
C71	C	0.675257	-0.182471	0.089300
C72	C	0.674901	-0.212153	0.000111
O73	O	0.674133	-0.276453	0.165069
O74	O	0.674122	-0.276441	-0.164898
C75	C	0.776479	0.069245	0.000124
C76	C	0.839698	0.069999	0.000129
C77	C	0.667562	0.178163	0.000079
C78	C	0.668317	0.241381	0.000064
N79	N	0.672319	0.074004	0.254961
N80	N	0.672342	0.074015	-0.254750
C81	C	0.672333	0.074015	0.656252
C82	C	0.672327	0.074014	0.544601
C83	C	0.672326	0.074010	0.455610
C84	C	0.672320	0.074008	0.343952
H85	H	0.391694	0.076652	0.161882
H86	H	0.118469	0.073347	0.251070
O87	O	0.386950	0.076529	-0.175651
C88	C	0.359353	0.026772	-0.180990
H89	H	0.352703	0.010214	-0.103564
H90	H	0.316068	0.037360	-0.218738
H91	H	0.386972	-0.007492	-0.224983
H92	H	0.499438	0.077963	-0.161703
O93	O	0.113848	0.073361	-0.264928
C94	C	0.121611	0.122871	-0.319191
H95	H	0.162485	0.139844	-0.293829
H96	H	0.125172	0.111793	-0.400759
H97	H	0.083455	0.157011	-0.306863
O98	O	0.671665	-0.484596	0.265032
C99	C	0.720564	-0.525721	0.270409
H100	H	0.755284	-0.512538	0.219849
H101	H	0.737085	-0.528672	0.349296
H102	H	0.708865	-0.569206	0.246432
O103	O	0.676314	-0.094268	-0.175749
C104	C	0.675861	-0.133213	-0.254453
H105	H	0.657314	-0.173091	-0.228313
H106	H	0.648417	-0.112263	-0.316825
H107	H	0.721483	-0.145775	-0.281862
H108	H	0.226212	0.074641	-0.250855
O109	O	0.674995	-0.211339	-0.175626
C110	C	0.723919	-0.252431	-0.180984
H111	H	0.740254	-0.263604	-0.103564
H112	H	0.712321	-0.292670	-0.218755
H113	H	0.758743	-0.234248	-0.224966
H114	H	-0.047031	0.071366	-0.161669
H115	H	0.672987	-0.372076	-0.250859
H116	H	0.671683	-0.479819	-0.250869
O117	O	0.676407	-0.094276	0.175962
C118	C	0.725546	-0.115543	0.230259
H119	H	0.759846	-0.136574	0.178111
H120	H	0.742558	-0.078745	0.270726
H121	H	0.713968	-0.148505	0.285848
H122	H	0.668383	-0.753115	0.161851
H123	H	0.669691	-0.645316	-0.161719
O124	O	0.668232	-0.757753	-0.175711
C125	C	0.618492	-0.785378	-0.181039
H126	H	0.584227	-0.762768	-0.130442
H127	H	0.601927	-0.783783	-0.259908
H128	H	0.629102	-0.831922	-0.157075
H129	H	0.499442	0.077958	0.161865
O130	O	0.669750	-0.640789	0.175963
C131	C	0.669264	-0.679756	0.254654
H132	H	0.686790	-0.724556	0.228501
H133	H	0.697121	-0.666387	0.317032
H134	H	0.623489	-0.679834	0.282061
H135	H	0.672928	-0.372131	0.251059
H136	H	-0.047018	0.071363	0.161915
O137	O	0.674808	-0.211301	0.175942
C138	C	0.625658	-0.190039	0.230197
H139	H	0.591377	-0.168984	0.178021
H140	H	0.608623	-0.226844	0.270634
H141	H	0.637228	-0.157097	0.285809
H142	H	0.226212	0.074649	0.251063
H143	H	-0.154780	0.070079	-0.161658
O144	O	-0.159455	0.069897	0.175905
C145	C	-0.187077	0.020154	0.181229
H146	H	-0.164461	-0.014103	0.130629
H147	H	-0.185487	0.003578	0.260097
H148	H	-0.233619	0.030765	0.157268
