data_functionalizedCrystal
_audit_creation_method	'MofGen! by Chris Wilmer'
_symmetry_space_group_name_H-M	'P1'
_symmetry_Int_Tables_number	1
_symmetry_cell_setting	triclinic
loop_
_symmetry_equiv_pos_as_xyz
  x,y,z
_cell_length_a	12.645331
_cell_length_b	19.120786
_cell_length_c	12.645323
_cell_angle_alpha	92.471912
_cell_angle_beta	90.015738
_cell_angle_gamma	92.464644
loop_
_atom_site_label
_atom_site_type_symbol
_atom_site_fract_x
_atom_site_fract_y
_atom_site_fract_z
Zn1	Zn	1.602668	-0.279639	0.581191
Zn2	Zn	1.594962	-0.397105	0.396346
Zn3	Zn	1.425381	-0.279664	0.403956
Zn4	Zn	1.417779	-0.397060	0.573586
O5	O	1.510197	-0.338367	0.488770
O6	O	1.749992	-0.295230	0.556670
O7	O	1.572423	-0.381555	0.249006
O8	O	1.455304	-0.181370	0.433834
O9	O	1.744330	-0.381532	0.420864
O10	O	1.585556	-0.181352	0.564049
O11	O	1.447832	-0.295272	0.254597
O12	O	1.276026	-0.295228	0.426459
O13	O	1.442349	-0.381454	0.722944
O14	O	1.270441	-0.381478	0.551086
O15	O	1.578186	-0.295186	0.728532
O16	O	1.565052	-0.495389	0.413489
O17	O	1.434876	-0.495356	0.543706
C18	C	1.234769	-0.338351	0.488773
C19	C	1.116938	-0.338361	0.488799
C20	C	0.945877	-0.392919	0.566755
C21	C	1.068448	-0.392743	0.567107
C22	C	1.077239	-0.264382	0.524098
C23	C	0.954619	-0.264715	0.524650
C24	C	0.948476	-0.357187	0.375324
C25	C	1.070978	-0.358805	0.375825
C26	C	1.498332	-0.520858	0.476970
C27	C	1.493353	-0.598929	0.471957
C28	C	1.558778	-0.635537	0.537453
C29	C	1.554095	-0.708893	0.532745
C30	C	1.483992	-0.745639	0.462535
C31	C	1.418559	-0.709026	0.397037
C32	C	1.423237	-0.635671	0.401751
C33	C	1.466472	-0.967125	0.444912
C34	C	1.461801	-1.040484	0.440201
C35	C	1.597336	-1.040346	0.575911
C36	C	1.602013	-0.966990	0.580614
C37	C	1.536576	-0.930384	0.515120
C38	C	1.479206	-0.820620	0.457719
C39	C	1.541357	-0.855404	0.519942
C40	C	1.786701	-0.338383	0.488766
C41	C	1.904531	-0.338390	0.488765
C42	C	1.510279	-0.338313	0.765279
C43	C	1.510314	-0.338289	0.883110
C44	C	1.522138	-0.155163	0.500639
C45	C	1.527226	-0.077092	0.505697
C46	C	1.510180	-0.338370	0.213340
C47	C	1.510364	-0.338196	0.095521
C48	C	1.424622	-0.392305	1.047175
C49	C	1.424820	-0.392572	0.924598
C50	C	1.620716	-0.358378	0.926319
C51	C	1.620243	-0.358717	1.048896
C52	C	1.486679	-0.263883	1.055117
C53	C	1.484158	-0.264329	0.932482
H54	H	1.103974	-0.321970	0.314213
H55	H	1.407828	-0.245571	1.087213
H56	H	1.641802	-0.412133	0.892156
H57	H	1.659097	-0.937073	0.637785
H58	H	0.922025	-0.317469	0.317156
H59	H	0.912830	-0.447960	0.544283
H60	H	1.615868	-0.605623	0.594621
H61	H	0.927656	-0.222631	0.470721
F62	F	1.615959	-0.816294	0.594668
H63	H	1.342803	-0.380001	0.895318
H64	H	1.640879	-0.413041	1.073995
F65	F	1.118765	-0.243162	0.631543
H66	H	1.422130	-0.850547	0.400551
H67	H	1.098601	-0.380303	0.651067
F68	F	1.377988	-0.244528	0.895751
F69	F	1.118842	-0.209833	0.452450
F70	F	1.623719	-0.747850	0.602467
H71	H	0.914129	-0.410212	0.344158
H72	H	1.404709	-1.070401	0.383027
H73	H	1.542427	-0.221883	0.904595
F74	F	1.317084	-0.376029	1.086753
H75	H	1.686103	-0.320214	0.899641
H76	H	1.096544	-0.413243	0.349290
F77	F	1.444289	-0.463856	1.082896
F78	F	1.568380	-0.211190	1.096431
H79	H	1.650610	-1.070159	0.629234
F80	F	1.353601	-0.596711	0.332042
H81	H	1.413193	-0.937325	0.391582
F82	F	1.343940	-0.748136	0.322323
H83	H	1.440066	-0.447664	0.891724
H84	H	0.915879	-0.380640	0.650221
F85	F	1.706196	-0.309410	1.090865
H86	H	1.094977	-0.447602	0.544436
H87	H	0.927074	-0.248772	0.607723
