data_functionalizedCrystal
_audit_creation_method	'MofGen! by Chris Wilmer'
_symmetry_space_group_name_H-M	'P1'
_symmetry_Int_Tables_number	1
_symmetry_cell_setting	triclinic
loop_
_symmetry_equiv_pos_as_xyz
  x,y,z
_cell_length_a	15.538191
_cell_length_b	15.711866
_cell_length_c	14.750779
_cell_angle_alpha	106.511281
_cell_angle_beta	82.427828
_cell_angle_gamma	83.431328
loop_
_atom_site_label
_atom_site_type_symbol
_atom_site_fract_x
_atom_site_fract_y
_atom_site_fract_z
O1	O	-1.149985	0.230644	-0.079802
O2	O	-0.906764	0.140571	-0.079815
O3	O	-0.996011	0.301290	-0.079786
O4	O	-1.060738	0.069924	-0.079832
O5	O	-1.021242	0.346720	0.079873
O6	O	-0.931994	0.186000	0.079843
O7	O	-1.175216	0.276074	0.079856
Zn8	Zn	-1.057611	0.238250	0.105199
Zn9	Zn	-1.024369	0.178394	-0.105158
O10	O	-1.085968	0.115354	0.079827
C11	C	-0.998052	0.352892	0.000048
C12	C	-0.966535	0.438964	0.000059
C13	C	-0.887531	0.153862	0.000013
C14	C	-0.792630	0.125791	0.000009
C15	C	-1.194448	0.262782	0.000026
C16	C	-1.289348	0.290851	0.000024
C17	C	-0.847881	0.526687	0.000071
C18	C	-0.877505	0.445813	0.000060
C19	C	-1.025977	0.512996	0.000074
C20	C	-0.996366	0.593879	0.000090
C21	C	-0.907317	0.600716	0.000087
C22	C	-1.055802	0.667908	0.000107
C23	C	-1.026192	0.748783	0.000117
C24	C	-0.937146	0.755627	0.000112
C25	C	-0.877707	0.681590	0.000098
C26	C	-1.144849	0.661067	0.000102
C27	C	-1.204285	0.735097	0.000119
C28	C	-1.174676	0.815975	0.000136
C29	C	-1.085631	0.822819	0.000131
C30	C	-1.234115	0.890012	0.000150
C31	C	-1.204506	0.970886	0.000161
C32	C	-1.056021	0.903693	0.000142
C33	C	-0.408743	0.404669	0.000050
C34	C	-0.319573	0.378272	0.000044
C35	C	-0.348291	0.229794	0.000014
C36	C	-0.437466	0.256181	0.000025
C37	C	-0.467685	0.343619	0.000042
C38	C	-0.496407	0.195130	0.000017
C39	C	-0.585574	0.221513	0.000023
C40	C	-0.615799	0.308947	0.000036
C41	C	-0.556851	0.370002	0.000048
C42	C	-0.466186	0.107690	-0.000007
C43	C	-0.525127	0.046640	-0.000015
C44	C	-0.614297	0.073024	-0.000002
C45	C	-0.644522	0.160458	0.000011
C46	C	-0.673245	0.011969	-0.000013
C47	C	-0.762412	0.038352	-0.000008
C48	C	-0.733689	0.186841	0.000017
C49	C	-1.083930	1.063763	0.000038
C50	C	-1.115457	0.977723	0.000158
N51	N	-1.080304	0.279102	0.248762
N52	N	-1.001681	0.137550	-0.248721
C53	C	-0.938291	0.023490	0.600533
C54	C	-0.954200	0.052113	0.701038
C55	C	-1.033266	0.194399	0.701027
C56	C	-1.017359	0.165789	0.600520
C57	C	-0.969872	0.080333	0.550281
C58	C	-1.048940	0.222632	0.550268
C59	C	-1.033039	0.194023	0.449771
C60	C	-0.985556	0.108570	0.399525
C61	C	-0.953970	0.051724	0.449784
C62	C	-1.096433	0.308085	0.600509
C63	C	-1.128014	0.364929	0.550257
C64	C	-1.112107	0.336322	0.449758
C65	C	-1.064624	0.250869	0.399512
C66	C	-1.143693	0.393168	0.399499
C67	C	-1.127791	0.364558	0.299001
C68	C	-1.048722	0.222259	0.299014
H69	H	-0.983512	0.909265	0.000161
Br70	Br	-1.170659	0.441702	0.230799
Br71	Br	-0.911338	-0.025047	0.769230
Br72	Br	-0.896963	0.865394	0.000158
Br73	Br	-0.984259	0.106287	0.230828
H74	H	-1.276789	0.729518	0.000125
H75	H	-0.433349	0.475872	0.000069
H76	H	-0.805199	0.687162	0.000118
H77	H	-1.252904	1.031163	0.000169
H78	H	-0.972613	0.085275	0.317693
H79	H	-0.323673	0.158601	-0.000003
Br80	Br	-0.345172	0.071883	-0.000017
H81	H	-0.648625	-0.059226	-0.000037
Br82	Br	-1.354960	0.880714	0.000133
Br83	Br	-0.796832	0.345341	0.000036
Br84	Br	-0.842408	-0.044503	-0.000025
H85	H	-1.071934	0.263977	0.741943
Br86	Br	-0.484106	-0.072025	-0.000047
H87	H	-0.915293	-0.017859	0.408877
H88	H	-0.899614	-0.046093	0.559627
H89	H	-0.758295	0.258044	0.000036
H90	H	-1.109382	0.331374	0.682341
Br91	Br	-1.192465	0.480899	0.618444
H92	H	-1.098481	0.507418	0.000080
H93	H	-0.775372	0.532259	0.000091
Br94	Br	-1.185033	0.551306	0.000081
Br95	Br	-0.597874	0.488674	0.000086
H96	H	-0.688403	0.330422	0.000028
Br97	Br	-0.239583	0.461140	0.000069
H98	H	-1.182365	0.462743	0.440416
