data_functionalizedCrystal
_audit_creation_method	'MofGen! by Chris Wilmer'
_symmetry_space_group_name_H-M	'P1'
_symmetry_Int_Tables_number	1
_symmetry_cell_setting	triclinic
loop_
_symmetry_equiv_pos_as_xyz
  x,y,z
_cell_length_a	19.077236
_cell_length_b	15.297327
_cell_length_c	19.076919
_cell_angle_alpha	78.489658
_cell_angle_beta	90.112677
_cell_angle_gamma	102.353600
loop_
_atom_site_label
_atom_site_type_symbol
_atom_site_fract_x
_atom_site_fract_y
_atom_site_fract_z
Zn1	Zn	1.011717	-0.332096	0.483479
Zn2	Zn	1.511717	0.167904	0.983479
Zn3	Zn	0.995795	-0.478709	0.384927
Zn4	Zn	1.495795	0.021291	0.884927
Zn5	Zn	0.899000	-0.331616	0.361197
Zn6	Zn	1.399000	0.168384	0.861197
Zn7	Zn	0.871903	-0.490914	0.499244
Zn8	Zn	1.371903	0.009086	0.999244
O9	O	0.944604	-0.408334	0.432212
O10	O	1.444604	0.091666	0.932212
O11	O	1.108627	-0.346637	0.473739
O12	O	1.608627	0.153363	0.973739
O13	O	0.987632	-0.453888	0.282762
O14	O	1.487632	0.046112	0.782762
O15	O	0.931955	-0.203656	0.360888
O16	O	1.431955	0.296344	0.860888
O17	O	1.096929	-0.454353	0.401334
O18	O	1.596929	0.045647	0.901334
O19	O	1.014768	-0.204008	0.450728
O20	O	1.514768	0.295992	0.950728
O21	O	0.916517	-0.345820	0.265327
O22	O	1.416517	0.154180	0.765327
O23	O	0.796383	-0.357655	0.376175
O24	O	1.296383	0.142345	0.876175
O25	O	0.885772	-0.475155	0.596170
O26	O	1.385772	0.024845	1.096170
O27	O	0.776475	-0.474690	0.477598
O28	O	1.276475	0.025310	0.977598
O29	O	0.988493	-0.358472	0.584587
O30	O	1.488493	0.141528	1.084587
O31	O	0.961357	-0.608352	0.416621
O32	O	1.461357	-0.108352	0.916621
O33	O	0.870334	-0.617319	0.500609
O34	O	1.370334	-0.117319	1.000609
C35	C	0.760754	-0.417445	0.426023
C36	C	1.260754	0.082555	0.926023
C37	C	0.682098	-0.421366	0.423394
C38	C	1.182098	0.078634	0.923394
C39	C	0.651220	-0.367223	0.459938
C40	C	1.151220	0.132777	0.959938
C41	C	0.577316	-0.370903	0.457462
C42	C	1.077316	0.129097	0.957462
C43	C	0.534290	-0.428730	0.418446
C44	C	1.034290	0.071270	0.918446
C45	C	0.565173	-0.482876	0.381898
C46	C	1.065173	0.017124	0.881898
C47	C	0.639077	-0.479191	0.384370
C48	C	1.139077	0.020809	0.884370
C49	C	0.312610	-0.445750	0.406997
C50	C	0.812610	0.054250	0.906997
C51	C	0.238701	-0.449433	0.404529
C52	C	0.738701	0.050567	0.904529
C53	C	0.250849	-0.337458	0.480093
C54	C	0.750849	0.162542	0.980093
C55	C	0.324753	-0.333782	0.482565
C56	C	0.824753	0.166218	0.982565
C57	C	0.355630	-0.387924	0.446014
C58	C	0.855630	0.112076	0.946014
N59	N	0.458747	-0.432495	0.415916
N60	N	0.958747	0.067505	0.915916
N61	N	0.431173	-0.384154	0.448540
N62	N	0.931173	0.115846	0.948540
C63	C	0.911196	-0.646031	0.462917
C64	C	1.411196	-0.146031	0.962917
C65	C	0.896968	-0.747717	0.476078
C66	C	1.396968	-0.247717	0.976078
C67	C	1.046575	-1.015551	0.338395
C68	C	1.546575	-0.515551	0.838395
C69	C	1.059943	-0.920012	0.326025
C70	C	1.559943	-0.420012	0.826025
C71	C	1.019201	-0.876933	0.363537
C72	C	1.519201	-0.376933	0.863537
C73	C	0.965088	-0.929403	0.413421
C74	C	1.465088	-0.429403	0.913421
C75	C	0.951715	-1.024952	0.425788
C76	C	1.451715	-0.524952	0.925788
C77	C	0.924340	-0.886334	0.450931
C78	C	1.424340	-0.386334	0.950931
C79	C	0.870227	-0.938804	0.500815
C80	C	1.370227	-0.438804	1.000815
C81	C	0.856857	-1.034343	0.513179
C82	C	1.356857	-0.534343	1.013179
C83	C	0.897599	-1.077421	0.475667
C84	C	1.397599	-0.577421	0.975667
C85	C	0.937713	-0.790786	0.438564
C86	C	1.437713	-0.290786	0.938564
C87	C	0.842852	-0.800186	0.525957
C88	C	1.342852	-0.300186	1.025957
C89	C	0.829484	-0.895725	0.538327
C90	C	1.329484	-0.395725	1.038327
C91	C	1.129171	-0.399187	0.438425
C92	C	1.629171	0.100813	0.938425
C93	C	1.207823	-0.395289	0.441073
C94	C	1.707823	0.104711	0.941073
C95	C	0.935886	-0.418229	0.616770
C96	C	1.435886	0.081771	1.116770
C97	C	0.932171	-0.422445	0.695418
C98	C	1.432171	0.077555	1.195418
C99	C	0.978160	-0.169708	0.401403
C100	C	1.478160	0.330292	0.901403
C101	C	0.992460	-0.068021	0.388274
C102	C	1.492460	0.431979	0.888274
C103	C	0.953337	-0.398409	0.248364
C104	C	1.453337	0.101591	0.748364
C105	C	0.957225	-0.393928	0.169688
C106	C	1.457225	0.106072	0.669688
C107	C	0.983905	-0.363678	0.726338
C108	C	1.483905	0.136322	1.226338
C109	C	0.980406	-0.367637	0.800235
C110	C	1.480406	0.132363	1.300235
C111	C	0.925177	-0.430368	0.843212
C112	C	1.425177	0.069632	1.343212
C113	C	0.873438	-0.489137	0.812287
C114	C	1.373438	0.010863	1.312287
C115	C	0.876935	-0.485173	0.738390
C116	C	1.376935	0.014827	1.238390
C117	C	0.908983	-0.448733	1.064866
C118	C	1.408983	0.051267	1.564866
C119	C	0.905492	-0.452695	1.138768
C120	C	1.405492	0.047305	1.638768
C121	C	1.012459	-0.331193	1.126711
C122	C	1.512459	0.168807	1.626711
C123	C	1.015953	-0.327239	1.052814
C124	C	1.515953	0.172761	1.552814
C125	C	0.964213	-0.386004	1.021894
C126	C	1.464213	0.113996	1.521894
N127	N	0.921601	-0.434418	0.918747
N128	N	1.421601	0.065582	1.418747
N129	N	0.967786	-0.381949	0.946360
N130	N	1.467786	0.118051	1.446360
H131	H	0.203670	-0.496527	0.372758
H132	H	0.703670	0.003473	0.872758
H133	H	0.981772	-0.748073	0.397948
H134	H	1.481772	-0.248073	0.897948
N135	N	0.672386	-0.537590	0.344959
N136	N	1.172386	-0.037590	0.844959
H137	H	0.709819	-0.497057	0.308430
H138	H	1.209819	0.002943	0.808430
H139	H	0.633872	-0.574777	0.319912
H140	H	1.133872	-0.074777	0.819912
N141	N	1.036212	-0.304262	0.833584
N142	N	1.536212	0.195738	1.333584
H143	H	1.025617	-0.316287	0.886918
H144	H	1.525617	0.183713	1.386918
H145	H	1.035004	-0.238774	0.811860
H146	H	1.535004	0.261226	1.311860
N147	N	0.813855	-0.556778	0.858634
N148	N	1.313855	-0.056778	1.358634
H149	H	0.819487	-0.550370	0.910139
H150	H	1.319487	-0.050370	1.410139
H151	H	0.816277	-0.620885	0.854529
H152	H	1.316277	-0.120885	1.354529
N153	N	1.068256	-0.267799	1.160053
N154	N	1.568256	0.232201	1.660053
H155	H	1.117426	-0.278809	1.150732
H156	H	1.617426	0.221191	1.650732
H157	H	1.057601	-0.279852	1.213376
H158	H	1.557601	0.220148	1.713376
H159	H	0.886719	-1.155217	0.485738
H160	H	1.386719	-0.655217	0.985738
N161	N	0.518772	-0.545239	0.339807
N162	N	1.018772	-0.045239	0.839807
H163	H	0.467268	-0.539359	0.343785
H164	H	0.967268	-0.039359	0.843785
H165	H	0.521995	-0.610542	0.359608
H166	H	1.021995	-0.110542	0.859608
H167	H	0.812786	-1.077062	0.553790
H168	H	1.312786	-0.577062	1.053790
N169	N	1.075524	-0.259582	1.006462
N170	N	1.575524	0.240418	1.506462
H171	H	1.107767	-0.222953	1.037263
H172	H	1.607767	0.277047	1.537263
H173	H	1.054126	-0.217027	0.969362
H174	H	1.554126	0.282973	1.469362
N175	N	1.033616	-0.773888	0.350198
N176	N	1.533616	-0.273888	0.850198
H177	H	1.074078	-0.747185	0.312906
H178	H	1.574078	-0.247185	0.812906
H179	H	1.047488	-0.752871	0.396233
H180	H	1.547488	-0.252871	0.896233
N181	N	0.853161	-0.512085	1.031518
N182	N	1.353161	-0.012085	1.531518
H183	H	0.817640	-0.552417	1.069957
H184	H	1.317640	-0.052417	1.569957
H185	H	0.877433	-0.551364	1.007280
H186	H	1.377433	-0.051364	1.507280
H187	H	0.860515	-0.503780	1.173758
H188	H	1.360515	-0.003780	1.673758
H189	H	0.834802	-0.533019	0.713216
H190	H	1.334802	-0.033019	1.213216
N191	N	0.798900	-0.753736	0.566418
N192	N	1.298900	-0.253736	1.066418
H193	H	0.815583	-0.685249	0.551016
H194	H	1.315583	-0.185249	1.051016
H195	H	0.805151	-0.772564	0.619488
H196	H	1.305151	-0.272564	1.119488
N197	N	1.043478	-0.296024	0.679988
N198	N	1.543478	0.203976	1.179988
H199	H	1.075719	-0.259396	0.710791
H200	H	1.575719	0.240604	1.210791
H201	H	1.022080	-0.253468	0.642889
H202	H	1.522080	0.246532	1.142889
N203	N	0.771116	-0.952317	0.592125
N204	N	1.271116	-0.452317	1.092125
H205	H	0.792757	-0.992245	0.631029
H206	H	1.292757	-0.492245	1.131029
H207	H	0.734171	-0.992034	0.567320
H208	H	1.234171	-0.492034	1.067320
N209	N	0.697623	-0.304859	0.502027
N210	N	1.197623	0.195141	1.002027
H211	H	0.694464	-0.239525	0.482246
H212	H	1.194464	0.260475	0.982246
H213	H	0.749103	-0.310823	0.498037
H214	H	1.249103	0.189177	0.998037
N215	N	0.544014	-0.312487	0.496861
N216	N	1.044014	0.187513	0.996861
H217	H	0.582485	-0.275293	0.521951
H218	H	1.082485	0.224707	1.021951
H219	H	0.506565	-0.353059	0.533353
H220	H	1.006565	0.146941	1.033353
N221	N	0.371158	-0.271414	0.524650
N222	N	0.871158	0.228586	1.024650
H223	H	0.340382	-0.237672	0.547425
H224	H	0.840382	0.262328	1.047425
H225	H	0.409130	-0.225949	0.491451
H226	H	0.909130	0.274051	0.991451
H227	H	0.337740	-0.489837	0.377235
H228	H	0.837740	0.010163	0.877235
H229	H	0.225701	-0.293378	0.509850
H230	H	0.725701	0.206622	1.009850
H231	H	1.104001	-0.877294	0.285410
H232	H	1.604001	-0.377294	0.785410
H233	H	1.079738	-1.050634	0.307853
H234	H	1.579738	-0.550634	0.807853
