data_functionalizedCrystal
_audit_creation_method	'MofGen! by Chris Wilmer'
_symmetry_space_group_name_H-M	'P1'
_symmetry_Int_Tables_number	1
_symmetry_cell_setting	triclinic
loop_
_symmetry_equiv_pos_as_xyz
  x,y,z
_cell_length_a	11.169417
_cell_length_b	14.908520
_cell_length_c	11.169409
_cell_angle_alpha	93.260332
_cell_angle_beta	89.980176
_cell_angle_gamma	93.321403
loop_
_atom_site_label
_atom_site_type_symbol
_atom_site_fract_x
_atom_site_fract_y
_atom_site_fract_z
Zn1	Zn	1.807298	-0.359063	-0.706060
Zn2	Zn	1.795562	-0.509955	-0.516941
Zn3	Zn	1.606580	-0.359118	-0.505398
Zn4	Zn	1.594972	-0.509881	-0.717580
O5	O	1.701103	-0.434504	-0.611495
O6	O	1.973691	-0.379086	-0.680982
O7	O	1.770440	-0.489999	-0.347464
O8	O	1.642975	-0.232866	-0.522365
O9	O	1.965068	-0.489946	-0.542037
O10	O	1.790442	-0.232826	-0.669790
O11	O	1.631595	-0.379180	-0.338984
O12	O	1.437091	-0.379109	-0.533535
O13	O	1.623191	-0.489821	-0.883997
O14	O	1.428563	-0.489874	-0.689424
O15	O	1.779186	-0.379015	-0.875534
O16	O	1.759184	-0.636189	-0.553207
O17	O	1.611811	-0.636135	-0.700616
C18	C	1.389279	-0.434490	-0.611478
C19	C	1.255878	-0.434506	-0.611501
C20	C	1.682997	-0.668895	-0.629440
C21	C	1.675361	-0.769169	-0.637158
C22	C	1.814629	-0.957589	-0.498287
C23	C	1.807458	-1.051805	-0.505534
C24	C	1.653855	-1.051819	-0.658905
C25	C	1.661026	-0.957603	-0.651658
C26	C	1.741414	-0.910491	-0.571344
C27	C	1.748578	-0.816274	-0.564092
C28	C	1.594982	-0.816289	-0.717468
C29	C	1.587811	-0.910505	-0.724716
C30	C	2.014144	-0.434518	-0.611512
C31	C	2.147544	-0.434524	-0.611519
C32	C	1.701203	-0.434404	-0.924530
C33	C	1.701245	-0.434361	-1.057926
C34	C	1.719313	-0.199197	-0.593505
C35	C	1.727073	-0.098923	-0.585839
C36	C	1.701078	-0.434539	-0.299673
C37	C	1.701287	-0.434327	-0.166257
H38	H	1.880076	-0.919230	-0.432884
C39	C	1.500350	-0.961543	-0.811830
C40	C	1.383358	-0.938704	-0.783845
C41	C	1.302755	-0.985689	-0.864078
H42	H	1.506399	-1.024414	-0.805766
H43	H	1.518975	-0.946020	-0.891312
H44	H	1.364739	-0.954232	-0.704383
H45	H	1.377271	-0.875840	-0.789917
H46	H	1.321380	-0.970167	-0.943560
H47	H	1.308815	-1.048559	-0.858007
H48	H	1.223369	-0.970194	-0.845108
H49	H	1.535362	-0.777931	-0.776954
C50	C	1.835972	-0.765283	-0.476865
C51	C	1.898578	-0.826701	-0.414460
C52	C	1.979109	-0.779765	-0.334108
H53	H	1.793019	-0.728589	-0.421598
H54	H	1.891103	-0.728486	-0.519967
H55	H	1.843454	-0.863483	-0.371360
H56	H	1.941554	-0.863397	-0.469696
H57	H	2.034240	-0.742967	-0.377210
H58	H	1.936147	-0.743072	-0.278849
H59	H	2.021605	-0.821429	-0.291765
C60	C	1.887004	-1.102778	-0.426066
C61	C	1.958914	-1.041350	-0.354164
C62	C	2.032199	-1.088273	-0.280931
H63	H	1.936584	-1.139474	-0.474713
H64	H	1.838349	-1.139573	-0.376495
H65	H	2.007564	-1.004570	-0.403730
H66	H	1.909366	-1.004652	-0.305493
H67	H	1.983544	-1.125068	-0.231360
H68	H	2.081771	-1.124967	-0.329587
H69	H	2.080990	-1.046602	-0.232129
H70	H	1.588415	-1.090194	-0.724300
