data_functionalizedCrystal
_audit_creation_method	'MofGen! by Chris Wilmer'
_symmetry_space_group_name_H-M	'P1'
_symmetry_Int_Tables_number	1
_symmetry_cell_setting	triclinic
loop_
_symmetry_equiv_pos_as_xyz
  x,y,z
_cell_length_a	15.995350
_cell_length_b	10.654550
_cell_length_c	9.130313
_cell_angle_alpha	90.000110
_cell_angle_beta	90.003412
_cell_angle_gamma	96.011361
loop_
_atom_site_label
_atom_site_type_symbol
_atom_site_fract_x
_atom_site_fract_y
_atom_site_fract_z
O1	O	1.111921	-0.161867	-0.121671
O2	O	0.868262	-0.181857	-0.121701
O3	O	0.995693	0.010950	-0.121680
O4	O	0.984489	-0.354674	-0.121692
O5	O	0.995692	0.010945	0.121919
O6	O	0.868260	-0.181862	0.121898
O7	O	1.111919	-0.161873	0.121927
Cu8	Cu	0.990089	-0.171868	0.144155
Cu9	Cu	0.990091	-0.171862	-0.143929
O10	O	0.984487	-0.354680	0.121906
C11	C	0.837061	-0.181033	0.000095
C12	C	0.744096	-0.178555	0.000083
C13	C	0.994870	0.057735	0.000117
C14	C	0.992409	0.197146	0.000112
N15	N	0.990094	-0.171871	0.346778
C16	C	0.406297	-0.169658	0.000114
C17	C	0.452934	-0.032344	0.000662
C18	C	0.549639	-0.034822	0.000103
C19	C	0.573883	-0.174071	0.000100
C20	C	0.533190	-0.241796	-0.139004
C21	C	0.436535	-0.238347	-0.139110
C22	C	0.436210	-0.241190	0.137907
C23	C	0.533156	-0.241157	0.139736
C24	C	0.668595	-0.176573	0.000086
C25	C	0.311585	-0.167161	0.000117
C26	C	1.143119	-0.162696	0.000129
C27	C	1.236084	-0.165174	0.000130
C28	C	0.985311	-0.401464	0.000106
C29	C	0.987772	-0.540875	0.000101
C30	C	1.067438	0.277612	0.000126
C31	C	1.065121	0.408603	0.000115
C32	C	0.912737	0.378648	0.000084
C33	C	0.915055	0.247660	0.000084
C34	C	1.155416	0.294907	0.000150
C35	C	1.153098	0.425897	0.000140
N36	N	0.990093	-0.171848	-0.346551
C37	C	1.046536	-0.086525	0.423439
C38	C	1.046533	-0.086510	0.576776
C39	C	0.933646	-0.257198	0.576777
C40	C	0.933644	-0.257206	0.423443
C41	C	1.111713	0.012017	0.423440
C42	C	1.111711	0.012032	0.576777
H43	H	0.434092	0.022541	0.100419
H44	H	0.405037	-0.342430	0.138846
O45	O	0.837579	0.427662	-0.000198
C46	C	0.791791	0.386512	-0.126349
H47	H	0.837011	0.359262	-0.214517
H48	H	0.745628	0.301142	-0.097830
C49	C	0.687506	0.527162	-0.075284
C50	C	0.743048	0.493703	-0.183578
H51	H	0.657436	0.593279	-0.110584
H52	H	0.718353	0.554883	0.009709
H53	H	0.649045	0.456011	-0.051529
H54	H	0.781514	0.564849	-0.207319
H55	H	0.712207	0.465997	-0.268578
O56	O	0.842193	0.169446	-0.000206
C57	C	0.838995	0.092765	-0.126354
H58	H	0.881543	0.140739	-0.214515
H59	H	0.861215	-0.002488	-0.097825
C60	C	0.695752	0.013947	-0.075319
C61	C	0.748005	0.072875	-0.183604
H62	H	0.639625	0.001672	-0.110631
H63	H	0.697907	0.065605	0.009672
H64	H	0.714279	-0.065424	-0.051555
H65	H	0.729484	0.152251	-0.207353
H66	H	0.745845	0.021230	-0.268601
H67	H	1.183431	0.259644	0.105335
H68	H	0.887685	-0.326675	0.639214
O69	O	0.429115	0.032653	-0.117783
C70	C	0.370439	-0.045410	-0.201115
H71	H	0.378250	-0.148592	-0.177470
H72	H	0.304016	-0.025312	-0.170659
C73	C	0.375929	0.108282	-0.394268
C74	C	0.385527	-0.018448	-0.365235
H75	H	0.385232	0.124916	-0.495504
H76	H	0.415458	0.160877	-0.338124
H77	H	0.320576	0.125015	-0.368877
H78	H	0.440882	-0.035174	-0.390609
H79	H	0.346008	-0.071045	-0.421388
H80	H	1.176054	-0.008646	0.618400
O81	O	1.087345	0.120545	0.633322
C82	C	1.005190	0.135715	0.585516
H83	H	0.991388	0.079923	0.480179
H84	H	0.958133	0.099554	0.673502
C85	C	1.014613	0.345025	0.686108
C86	C	0.997663	0.276509	0.556724
H87	H	1.009968	0.431873	0.668354
H88	H	1.069962	0.334804	0.718322
H89	H	0.975396	0.314876	0.759417
H90	H	1.036887	0.306647	0.483424
H91	H	0.942321	0.286738	0.524497
O92	O	0.550643	-0.363885	-0.145385
C93	C	0.513213	-0.421814	-0.271506
H94	H	0.458402	-0.368865	-0.307683
H95	H	0.561721	-0.419474	-0.363209
C96	C	0.548162	-0.624809	-0.192097
C97	C	0.480837	-0.559783	-0.236523
H98	H	0.528194	-0.709917	-0.170522
H99	H	0.573382	-0.585781	-0.107129
H100	H	0.588579	-0.622846	-0.268524
H101	H	0.440426	-0.561733	-0.160091
H102	H	0.455609	-0.598815	-0.321478
O103	O	1.184755	0.480974	-0.125263
C104	C	1.180515	0.612334	-0.117834
H105	H	1.129764	0.633095	-0.036315
H106	H	1.243804	0.661037	-0.080581
C107	C	1.221279	0.636492	-0.370283
C108	C	1.158941	0.661990	-0.270169
H109	H	1.207975	0.667124	-0.464251
H110	H	1.224139	0.547992	-0.375288
H111	H	1.274014	0.677079	-0.339221
H112	H	1.106209	0.621390	-0.301223
H113	H	1.156072	0.750484	-0.265173
H114	H	0.577186	0.018777	-0.099783
O115	O	0.566796	-0.185861	-0.262548
C116	C	0.605451	-0.275066	-0.345899
H117	H	0.622354	-0.354494	-0.271422
H118	H	0.560276	-0.315552	-0.434664
C119	C	0.665110	-0.112971	-0.509120
C120	C	0.685876	-0.210521	-0.417643
H121	H	0.714717	-0.073157	-0.553381
H122	H	0.639065	-0.052872	-0.452969
H123	H	0.627462	-0.146723	-0.583079
H124	H	0.723514	-0.176765	-0.343676
H125	H	0.711929	-0.270613	-0.473784
H126	H	1.186246	0.468088	0.102087
O127	O	0.552284	-0.362240	0.149961
C128	C	0.595913	-0.377804	0.281814
H129	H	0.626753	-0.282267	0.320581
H130	H	0.549957	-0.419559	0.368736
C131	C	0.626114	-0.584797	0.208441
C132	C	0.663998	-0.467457	0.256050
H133	H	0.668109	-0.640103	0.192553
H134	H	0.596718	-0.574314	0.119612
H135	H	0.587818	-0.619576	0.280885
H136	H	0.702285	-0.432673	0.183600
H137	H	0.693402	-0.477936	0.344867
H138	H	0.417940	-0.188954	-0.243091
H139	H	1.172504	-0.017777	0.375888
O140	O	0.878896	-0.340280	0.349044
C141	C	0.893200	-0.464610	0.386556
H142	H	0.960238	-0.465293	0.428707
H143	H	0.847007	-0.501438	0.475564
C144	C	0.798331	-0.548914	0.198584
C145	C	0.880671	-0.549754	0.250344
H146	H	0.790599	-0.601438	0.114565
H147	H	0.788691	-0.465151	0.173314
H148	H	0.759846	-0.579601	0.272770
H149	H	0.919154	-0.519053	0.176164
H150	H	0.890317	-0.633514	0.275597
O151	O	1.094794	0.126991	0.373694
C152	C	1.162634	0.180645	0.287910
H153	H	1.222132	0.136894	0.319590
H154	H	1.148315	0.161601	0.167142
C155	C	1.102631	0.377815	0.275636
C156	C	1.175709	0.324087	0.314555
H157	H	1.110695	0.466297	0.292065
H158	H	1.056924	0.341666	0.333426
H159	H	1.090707	0.361933	0.174998
H160	H	1.187626	0.339956	0.415195
H161	H	1.221418	0.360241	0.256782
H162	H	0.404872	-0.339160	-0.145425
H163	H	0.415414	-0.196301	0.243344
H164	H	0.560185	-0.191718	0.242644
H165	H	1.189828	0.266000	-0.101784
H166	H	0.577758	0.018413	0.099818
