data_functionalizedCrystal
_audit_creation_method	'MofGen! by Chris Wilmer'
_symmetry_space_group_name_H-M	'P1'
_symmetry_Int_Tables_number	1
_symmetry_cell_setting	triclinic
loop_
_symmetry_equiv_pos_as_xyz
  x,y,z
_cell_length_a	27.731993
_cell_length_b	19.288865
_cell_length_c	17.766277
_cell_angle_alpha	90.011603
_cell_angle_beta	90.002172
_cell_angle_gamma	97.121679
loop_
_atom_site_label
_atom_site_type_symbol
_atom_site_fract_x
_atom_site_fract_y
_atom_site_fract_z
O1	O	0.641197	-0.082469	-0.062400
O2	O	0.500438	-0.095075	-0.062447
O3	O	0.574885	0.012385	-0.062407
O4	O	0.566750	-0.189929	-0.062440
O5	O	0.574872	0.012390	0.062781
O6	O	0.500425	-0.095070	0.062741
O7	O	0.641184	-0.082464	0.062788
Cu8	Cu	0.570803	-0.088766	0.074196
Cu9	Cu	0.570819	-0.088772	-0.073854
O10	O	0.566737	-0.189924	0.062749
C11	C	0.482423	-0.094814	0.000141
C12	C	0.428764	-0.094035	0.000124
C13	C	0.045594	-0.088389	-0.068079
C14	C	0.247261	-0.091360	-0.068100
O15	O	0.273341	-0.091718	-0.126137
N16	N	0.272475	-0.091728	0.000139
C17	C	0.247270	-0.091350	0.068388
O18	O	0.273344	-0.091724	0.126428
C19	C	0.045605	-0.088375	0.068408
C20	C	0.020393	-0.088013	0.000164
C21	C	0.020382	-0.088027	-0.136317
C22	C	-0.030032	-0.087288	-0.136311
C23	C	-0.055234	-0.086912	-0.068067
C24	C	-0.030021	-0.087274	0.000170
C25	C	0.020401	-0.087991	0.136656
C26	C	-0.030018	-0.087246	0.136655
C27	C	-0.055230	-0.086884	0.068411
C28	C	-0.105637	-0.086159	0.068420
N29	N	-0.130851	-0.085791	0.000181
C30	C	-0.105650	-0.086167	-0.068062
C31	C	0.353147	-0.092913	0.068372
C32	C	0.403563	-0.093658	0.068367
C33	C	0.403550	-0.093667	-0.068120
C34	C	0.353133	-0.092927	-0.068115
C35	C	0.327933	-0.092545	0.000133
C36	C	-0.211522	-0.084616	-0.068045
C37	C	-0.261941	-0.083880	-0.068033
C38	C	-0.261924	-0.083868	0.068454
C39	C	-0.211510	-0.084608	0.068443
C40	C	-0.186310	-0.084979	0.000187
O41	O	-0.131747	-0.085793	0.126427
O42	O	-0.131731	-0.085777	-0.126094
C43	C	0.096008	-0.089128	-0.068085
C44	C	0.121220	-0.089490	0.000153
C45	C	0.096019	-0.089114	0.068396
C46	C	0.171636	-0.090236	0.000148
C47	C	0.196838	-0.090612	-0.068096
C48	C	0.171624	-0.090243	-0.136334
C49	C	0.121210	-0.089504	-0.136328
C50	C	0.121233	-0.089483	0.136635
C51	C	0.171647	-0.090222	0.136623
C52	C	0.196849	-0.090599	0.068380
C53	C	0.574616	0.038262	0.000189
C54	C	0.573831	0.115361	0.000195
C55	C	0.659199	-0.082725	0.000198
C56	C	0.712857	-0.083504	0.000211
C57	C	0.567005	-0.215801	0.000150
C58	C	0.567791	-0.292899	0.000139
N59	N	0.570796	-0.088761	0.178326
C60	C	0.617513	0.160342	0.000214
C61	C	0.616775	0.232784	0.000202
C62	C	0.572352	0.260242	0.000186
C63	C	0.528664	0.215251	0.000164
C64	C	0.529403	0.142810	0.000168
C65	C	0.537426	0.368304	0.044025
C66	C	0.536688	0.440743	0.044025
C67	C	0.570069	0.483673	0.000169
C68	C	0.604196	0.454155	-0.043679
C69	C	0.604936	0.381714	-0.043674
C70	C	0.571545	0.338791	0.000181
C71	C	0.612954	0.607204	0.000173
C72	C	0.612214	0.679648	0.000156
C73	C	0.524102	0.662113	0.000125
C74	C	0.524844	0.589672	0.000135
C75	C	0.569271	0.562222	0.000162
N76	N	0.570830	-0.088772	-0.177985
C77	C	0.603771	-0.041201	0.217730
C78	C	0.603774	-0.041198	0.296532
C79	C	0.570806	-0.088767	0.335926
C80	C	0.537824	-0.136331	0.296512
C81	C	0.537819	-0.136328	0.217712
C82	C	0.564335	-0.152097	0.460753
C83	C	0.564343	-0.152100	0.539552
C84	C	0.570819	-0.088775	0.578973
C85	C	0.577296	-0.025443	0.539585
C86	C	0.577291	-0.025441	0.460785
C87	C	0.570808	-0.088775	0.421372
C88	C	0.603799	-0.041207	0.703823
C89	C	0.603799	-0.041203	0.782627
C90	C	0.537851	-0.136342	0.782605
C91	C	0.537849	-0.136340	0.703803
C92	C	0.570826	-0.088774	0.664417
H93	H	-0.191011	-0.084920	-0.123625
Cl94	Cl	-0.179814	-0.085071	0.154235
Cl95	Cl	-0.293615	-0.083397	0.154242
H96	H	0.653689	0.137997	0.000233
H97	H	0.424085	-0.093964	0.123938
Cl98	Cl	0.671693	0.289342	0.000224
H99	H	-0.050555	-0.086991	-0.191881
H100	H	0.631378	0.489107	-0.079391
Cl101	Cl	0.435241	-0.094141	-0.153912
H102	H	0.040896	-0.088331	-0.191892
H103	H	0.493831	0.106186	0.000154
Cl104	Cl	0.089558	-0.089018	0.222436
H105	H	0.508898	0.464770	0.079724
Cl106	Cl	0.089522	-0.089048	-0.222125
H107	H	0.630622	-0.002468	0.185664
H108	H	-0.050534	-0.086941	0.192232
H109	H	0.192151	-0.090554	-0.191901
H110	H	0.511006	-0.175071	0.814679
H111	H	0.630628	-0.002467	0.328621
H112	H	0.332608	-0.092632	-0.123684
H113	H	0.649129	0.584854	0.000191
H114	H	0.647787	0.716271	0.000167
H115	H	0.630650	-0.002474	0.671754
Cl116	Cl	0.585429	0.054172	0.411272
Cl117	Cl	0.585442	0.054171	0.589134
H118	H	0.040921	-0.088284	0.192227
H119	H	0.630650	-0.002470	0.814710
Cl120	Cl	0.496361	-0.196124	0.168172
H121	H	0.332634	-0.092600	0.123951
Cl122	Cl	0.468256	0.696625	0.000102
H123	H	0.192170	-0.090523	0.192199
Cl124	Cl	0.647833	0.344608	-0.098798
H125	H	0.492495	0.237612	0.000149
H126	H	0.489273	0.553047	0.000124
Cl127	Cl	0.495458	0.314342	0.099167
H128	H	0.510999	-0.175071	0.671718
Cl129	Cl	0.556204	-0.231716	0.589059
H130	H	0.559053	-0.203667	0.428663
Cl131	Cl	0.496376	-0.196129	0.346035
H132	H	-0.282467	-0.083588	-0.123607
