data_functionalizedCrystal
_audit_creation_method	'MofGen! by Chris Wilmer'
_symmetry_space_group_name_H-M	'P1'
_symmetry_Int_Tables_number	1
_symmetry_cell_setting	triclinic
loop_
_symmetry_equiv_pos_as_xyz
  x,y,z
_cell_length_a	16.974829
_cell_length_b	16.974813
_cell_length_c	17.766277
_cell_angle_alpha	86.339073
_cell_angle_beta	86.335324
_cell_angle_gamma	83.162295
loop_
_atom_site_label
_atom_site_type_symbol
_atom_site_fract_x
_atom_site_fract_y
_atom_site_fract_z
O1	O	1.049048	0.100810	-0.132635
O2	O	1.549048	0.600810	0.367365
O3	O	0.818826	0.113639	-0.119394
O4	O	1.318826	0.613639	0.380606
O5	O	0.940354	-0.007886	-0.119390
O6	O	1.440354	0.492114	0.380610
O7	O	0.927520	0.222335	-0.132639
O8	O	1.427520	0.722335	0.367361
O9	O	0.940333	-0.007892	0.005800
O10	O	1.440333	0.492108	0.505800
O11	O	0.818805	0.113633	0.005796
O12	O	1.318805	0.613633	0.505796
O13	O	1.049026	0.100804	-0.007445
O14	O	1.549026	0.600804	0.492555
Cu15	Cu	0.933914	0.107218	0.010606
Cu16	Cu	1.433914	0.607218	0.510606
Cu17	Cu	0.933939	0.107225	-0.137446
Cu18	Cu	1.433939	0.607225	0.362554
O19	O	0.927498	0.222329	-0.007449
O20	O	1.427498	0.722329	0.492551
C21	C	0.789358	0.113147	-0.054975
C22	C	1.289358	0.613147	0.445025
C23	C	0.701582	0.111680	-0.049540
C24	C	1.201582	0.611680	0.450460
C25	C	0.939855	-0.037347	-0.054972
C26	C	1.439855	0.462653	0.445028
C27	C	0.938390	-0.125122	-0.049538
C28	C	1.438390	0.374878	0.450462
C29	C	0.207494	0.103449	-0.011619
C30	C	0.707494	0.603449	0.488381
C31	C	0.289969	0.104827	-0.016728
C32	C	0.789969	0.604827	0.483272
C33	C	0.331218	0.105514	-0.087524
C34	C	0.831218	0.605514	0.412476
C35	C	0.289988	0.104830	-0.153217
C36	C	0.789988	0.604830	0.346783
C37	C	0.207515	0.103457	-0.148107
C38	C	0.707515	0.603457	0.351893
C39	C	0.577879	0.109624	-0.110123
C40	C	1.077879	0.609624	0.389877
C41	C	0.660358	0.110994	-0.115227
C42	C	1.160358	0.610994	0.384773
C43	C	0.660333	0.110993	0.021263
C44	C	1.160333	0.610993	0.521263
C45	C	0.577858	0.109615	0.026366
C46	C	1.077858	0.609615	0.526366
C47	C	0.536635	0.108936	-0.039327
C48	C	1.036635	0.608936	0.460673
N49	N	0.415521	0.106920	-0.092748
N50	N	0.915521	0.606920	0.407252
N51	N	0.452333	0.107535	-0.034103
N52	N	0.952333	0.607535	0.465897
C53	C	0.937715	-0.166351	-0.115226
C54	C	1.437715	0.333649	0.384774
C55	C	0.936334	-0.248825	-0.110117
C56	C	1.436334	0.251175	0.389883
C57	C	0.935633	-0.290069	-0.039321
C58	C	1.435633	0.209931	0.460679
C59	C	0.936305	-0.248834	0.026372
C60	C	1.436305	0.251166	0.526372
C61	C	0.937681	-0.166361	0.021264
C62	C	1.437681	0.333639	0.521264
C63	C	0.931511	-0.536726	-0.016724
C64	C	1.431511	-0.036726	0.483276
C65	C	0.930137	-0.619205	-0.011620
C66	C	1.430137	-0.119205	0.488380
C67	C	0.930165	-0.619191	-0.148110
C68	C	1.430165	-0.119191	0.351890
C69	C	0.931545	-0.536717	-0.153213
C70	C	1.431545	-0.036717	0.346787
C71	C	0.932213	-0.495489	-0.087520
C72	C	1.432213	0.004511	0.412480
N73	N	0.934223	-0.374370	-0.034098
N74	N	1.434223	0.125630	0.465902
N75	N	0.933617	-0.411188	-0.092743
N76	N	1.433617	0.088812	0.407257
C77	C	1.078495	0.101296	-0.071866
C78	C	1.578495	0.601296	0.428134
C79	C	1.166270	0.102763	-0.077306
C80	C	1.666270	0.602763	0.422694
C81	C	0.927998	0.251790	-0.071869
C82	C	1.427998	0.751790	0.428131
C83	C	0.929463	0.339565	-0.077308
C84	C	1.429463	0.839565	0.422692
N85	N	0.933902	0.107212	0.114738
N86	N	1.433902	0.607212	0.614738
N87	N	0.933957	0.107225	-0.241577
N88	N	1.433957	0.607225	0.258423
C89	C	0.987732	0.053427	0.154124
C90	C	1.487732	0.553427	0.654124
C91	C	0.987736	0.053424	0.232926
C92	C	1.487736	0.553424	0.732926
C93	C	0.933918	0.107219	0.272337
C94	C	1.433918	0.607219	0.772337
C95	C	0.880078	0.161008	0.232942
C96	C	1.380078	0.661008	0.732942
C97	C	0.880070	0.161004	0.154142
C98	C	1.380070	0.661004	0.654142
C99	C	0.923480	0.179242	0.393421
C100	C	1.423480	0.679242	0.893421
C101	C	0.923494	0.179246	0.472219
C102	C	1.423494	0.679246	0.972219
C103	C	0.933940	0.107228	0.515381
C104	C	1.433940	0.607228	1.015381
C105	C	0.944388	0.035203	0.479736
C106	C	1.444388	0.535203	0.979736
C107	C	0.944379	0.035200	0.400936
C108	C	1.444379	0.535200	0.900936
C109	C	0.933921	0.107228	0.357782
C110	C	1.433921	0.607228	0.857782
C111	C	0.987777	0.053435	0.640213
C112	C	1.487777	0.553435	1.140213
C113	C	0.987776	0.053430	0.719017
C114	C	1.487776	0.553430	1.219017
C115	C	0.880122	0.161021	0.719031
C116	C	1.380122	0.661021	1.219031
C117	C	0.880119	0.161019	0.640230
C118	C	1.380119	0.661019	1.140230
C119	C	0.933951	0.107227	0.600825
C120	C	1.433951	0.607227	1.100825
H121	H	0.173914	0.102893	0.046031
H122	H	0.673914	0.602893	0.546031
F123	F	0.935616	-0.292701	-0.180032
F124	F	1.435616	0.207299	0.319968
H125	H	0.544325	0.109068	-0.163614
H126	H	1.044325	0.609068	0.336386
F127	F	0.333891	0.105562	-0.228564
F128	F	0.833891	0.605562	0.271436
F129	F	0.932293	-0.492829	-0.228565
F130	F	1.432293	0.007171	0.271435
F131	F	0.929453	-0.663075	-0.218020
F132	F	1.429453	-0.163075	0.281980
F133	F	0.912420	0.255900	0.347488
F134	F	1.412420	0.755900	0.847488
H135	H	0.173951	0.102901	-0.201597
H136	H	0.673951	0.602901	0.298403
F137	F	0.938467	-0.122465	-0.190578
F138	F	1.438467	0.377535	0.309422
F139	F	0.938398	-0.122482	0.091178
F140	F	1.438398	0.377518	0.591178
H141	H	0.693905	0.111548	0.074745
H142	H	1.193905	0.611548	0.574745
H143	H	0.929562	-0.652783	0.046034
H144	H	1.429562	-0.152783	0.546034
H145	H	1.031609	0.009628	0.751086
H146	H	1.531609	0.509628	1.251086
H147	H	1.031563	0.009625	0.122043
H148	H	1.531563	0.509625	0.622043
F149	F	1.045033	-0.003825	0.274850
F150	F	1.545033	0.496175	0.774850
H151	H	0.952885	-0.023445	0.371917
H152	H	1.452885	0.476555	0.871917
F153	F	0.932212	-0.492857	0.053194
F154	F	1.432212	0.007143	0.553194
H155	H	0.323530	0.105384	0.036762
H156	H	0.823530	0.605384	0.536762
H157	H	0.693941	0.111560	-0.172881
H158	H	1.193941	0.611560	0.327119
F159	F	0.935550	-0.292729	0.101720
F160	F	1.435550	0.207271	0.601720
H161	H	0.836258	0.204807	0.265035
H162	H	1.336258	0.704807	0.765035
F163	F	0.955510	-0.041450	0.525666
F164	F	1.455510	0.458550	1.025666
H165	H	1.031608	0.009631	0.608129
H166	H	1.531608	0.509631	1.108129
F167	F	0.533961	0.108899	0.101716
F168	F	1.033961	0.608899	0.601716
H169	H	0.836234	0.204803	0.122073
H170	H	1.336234	0.704803	0.622073
F171	F	0.822841	0.218269	0.760972
F172	F	1.322841	0.718269	1.260972
F173	F	0.822830	0.218268	0.598308
F174	F	1.322830	0.718268	1.098308
F175	F	0.912380	0.255901	0.510148
F176	F	1.412380	0.755901	1.010148
