data_functionalizedCrystal
_audit_creation_method	'MofGen! by Chris Wilmer'
_symmetry_space_group_name_H-M	'P1'
_symmetry_Int_Tables_number	1
_symmetry_cell_setting	triclinic
loop_
_symmetry_equiv_pos_as_xyz
  x,y,z
_cell_length_a	9.482900
_cell_length_b	10.654550
_cell_length_c	10.654550
_cell_angle_alpha	84.484931
_cell_angle_beta	99.408962
_cell_angle_gamma	80.594367
loop_
_atom_site_label
_atom_site_type_symbol
_atom_site_fract_x
_atom_site_fract_y
_atom_site_fract_z
O1	O	-0.120790	-1.648402	-0.195834
O2	O	-0.120816	-1.282919	-0.212645
O3	O	-0.120793	-1.474065	-0.021499
O4	O	-0.120813	-1.457256	-0.386980
O5	O	0.121004	-1.512962	0.017413
O6	O	0.120981	-1.321816	-0.173733
O7	O	0.121008	-1.687299	-0.156923
Cu8	Cu	0.143072	-1.508109	-0.161775
Cu9	Cu	-0.142881	-1.462109	-0.207792
O10	O	0.120985	-1.496153	-0.348069
C11	C	0.000079	-1.255569	-0.191955
C12	C	0.000069	-1.116124	-0.188265
N13	N	-0.344005	-1.429756	-0.240149
C14	C	0.000105	-1.492279	0.044755
C15	C	0.000102	-1.488587	0.184198
C16	C	-0.416196	-1.498573	-0.171328
C17	C	-0.583617	-1.471645	-0.198240
N18	N	0.344196	-1.540472	-0.129408
C19	C	0.000109	-1.714648	-0.177612
C20	C	0.000110	-1.854092	-0.181304
C21	C	0.000067	-1.036638	-0.300807
C22	C	0.000093	-0.905622	-0.297326
C23	C	0.000116	-0.933589	-0.068753
C24	C	0.000101	-1.064604	-0.072233
C25	C	0.000084	-1.477938	-0.414323
C26	C	0.000077	-1.481629	-0.553767
C27	C	0.000110	-1.601130	0.263685
C28	C	0.000092	-1.597651	0.394703
C29	C	0.000065	-1.369077	0.366735
C30	C	0.000072	-1.372556	0.235718
H31	H	-0.354058	-1.577431	-0.092487
H32	H	-0.406145	-1.350908	-0.318998
H33	H	0.000150	-0.891626	0.025718
H34	H	0.000052	-1.078583	-0.395285
C35	C	-0.630833	-1.392288	-0.422550
C36	C	-0.667484	-1.365191	-0.304689
H37	H	-0.682618	-1.326572	-0.488265
H38	H	-0.529338	-1.396410	-0.418420
H39	H	-0.655709	-1.472252	-0.440904
H40	H	-0.642597	-1.285231	-0.286330
H41	H	-0.769001	-1.361055	-0.308817
H42	H	-0.593670	-1.619334	-0.050563
H43	H	0.000094	-0.840909	-0.388969
H44	H	0.000062	-1.280903	0.170995
H45	H	0.000095	-1.689294	0.459416
C46	C	0.000108	-1.079097	0.154058
C47	C	0.000096	-1.151986	0.051482
H48	H	0.000100	-1.133045	0.230428
H49	H	0.084428	-1.040993	0.164232
H50	H	-0.084213	-1.013835	0.137087
H51	H	0.084423	-1.217242	0.068449
H52	H	-0.084232	-1.190111	0.041308
H53	H	0.000131	-1.695610	0.221741
C54	C	0.000059	-1.262254	0.555161
C55	C	0.000053	-1.241543	0.423375
H56	H	0.000065	-1.183518	0.590125
H57	H	-0.084253	-1.295067	0.568798
H58	H	0.084388	-1.322209	0.595938
H59	H	-0.084281	-1.181594	0.382596
H60	H	0.084374	-1.208711	0.409728
