data_functionalizedCrystal
_audit_creation_method	'MofGen! by Chris Wilmer'
_symmetry_space_group_name_H-M	'P1'
_symmetry_Int_Tables_number	1
_symmetry_cell_setting	triclinic
loop_
_symmetry_equiv_pos_as_xyz
  x,y,z
_cell_length_a	14.908783
_cell_length_b	14.908579
_cell_length_c	12.759393
_cell_angle_alpha	93.265091
_cell_angle_beta	93.321463
_cell_angle_gamma	83.206933
loop_
_atom_site_label
_atom_site_type_symbol
_atom_site_fract_x
_atom_site_fract_y
_atom_site_fract_z
Zn1	Zn	1.363068	0.280549	0.704640
Zn2	Zn	1.354217	0.431945	0.538534
Zn3	Zn	1.211688	0.289320	0.519372
Zn4	Zn	1.202925	0.440594	0.704565
O5	O	1.282974	0.360602	0.616778
O6	O	1.488564	0.293341	0.690657
O7	O	1.335273	0.413076	0.388972
O8	O	1.239140	0.161487	0.535961
O9	O	1.482061	0.404571	0.568619
O10	O	1.350359	0.155043	0.672077
O11	O	1.230558	0.308290	0.374894
O12	O	1.083855	0.316677	0.535888
O13	O	1.224205	0.419313	0.851595
O14	O	1.077417	0.427818	0.671948
O15	O	1.341862	0.301728	0.851651
O16	O	1.326776	0.559761	0.568546
O17	O	1.215622	0.566116	0.690528
C18	C	1.047792	0.374138	0.601831
C19	C	0.947179	0.379951	0.595463
C20	C	0.764877	0.275208	0.710791
C21	C	0.670342	0.280667	0.704811
C22	C	0.663573	0.396322	0.577518
C23	C	0.758108	0.390863	0.583498
C24	C	0.808756	0.330305	0.650138
C25	C	0.903293	0.324852	0.656123
C26	C	0.896523	0.440502	0.528825
C27	C	0.801988	0.445960	0.522845
C28	C	1.269312	0.595781	0.631632
C29	C	1.263551	0.696387	0.638028
C30	C	1.368587	0.878751	0.523140
C31	C	1.363176	0.973279	0.529146
C32	C	1.247324	0.979972	0.656050
C33	C	1.252734	0.885444	0.650044
C34	C	1.313367	0.834837	0.583586
C35	C	1.318773	0.740308	0.577575
C36	C	1.202925	0.747002	0.704484
C37	C	1.197514	0.841530	0.710490
C38	C	1.519075	0.347013	0.631783
C39	C	1.619687	0.341222	0.638178
C40	C	1.296708	1.124503	0.601903
C41	C	1.302546	1.023893	0.595597
C42	C	1.283043	0.360507	0.890810
C43	C	1.283072	0.360466	1.007586
C44	C	1.282962	0.360628	0.343811
C45	C	1.283123	0.360404	0.227031
C46	C	1.344344	0.299234	1.062478
C47	C	1.344368	0.299200	1.172202
C48	C	1.221844	0.421639	1.172130
C49	C	1.221817	0.421668	1.062408
C50	C	1.415085	0.228547	1.062521
C51	C	1.415109	0.228513	1.172244
H52	H	0.944530	0.275544	0.710385
O53	O	0.813981	0.216444	0.775669
C54	C	0.789791	0.237681	0.880144
H55	H	0.719132	0.276438	0.880111
H56	H	0.840307	0.281187	0.921745
C57	C	0.877357	0.102153	0.938156
C58	C	0.790570	0.149749	0.938115
H59	H	0.877842	0.047914	0.973918
H60	H	0.893658	0.087846	0.867770
H61	H	0.919445	0.138418	0.972822
H62	H	0.748486	0.113489	0.903439
H63	H	0.774262	0.164048	1.008497
O64	O	0.627681	0.227055	0.763574
C65	C	0.576347	0.171709	0.696713
H66	H	0.605126	0.164394	0.615417
H67	H	0.503076	0.203831	0.690280
C68	C	0.545026	0.086727	0.842033
C69	C	0.580378	0.077737	0.742186
H70	H	0.547509	0.028762	0.870084
H71	H	0.579608	0.124017	0.887080
H72	H	0.483970	0.113498	0.836659
H73	H	0.641436	0.050977	0.747564
H74	H	0.545806	0.040441	0.697141
H75	H	1.480207	0.249841	1.034302
O76	O	1.389664	0.150784	1.205808
C77	C	1.301456	0.140042	1.164933
H78	H	1.286237	0.180047	1.091194
H79	H	1.250642	0.166022	1.226196
C80	C	1.312995	-0.009960	1.227700
C81	C	1.294305	0.039168	1.137128
H82	H	1.308581	-0.072184	1.210553
H83	H	1.372421	-0.002722	1.255243
H84	H	1.270647	0.011700	1.278744
H85	H	1.336660	0.017515	1.086091
H86	H	1.234886	0.031924	1.109576
O87	O	0.614316	0.455235	0.512939
C88	C	0.556240	0.516891	0.572879
H89	H	0.584437	0.520925	0.657777
H90	H	0.486225	0.493030	0.570254
C91	C	0.514657	0.606069	0.422943
C92	C	0.549294	0.611029	0.527215
H93	H	0.510368	0.664137	0.394774
H94	H	0.553782	0.564528	0.382559
H95	H	0.456315	0.586181	0.420769
H96	H	0.607639	0.630905	0.529386
H97	H	0.510179	0.652575	0.567599
O98	O	0.752737	0.504883	0.458272
C99	C	0.694668	0.566540	0.518220
H100	H	0.722865	0.570559	0.603119
H101	H	0.624648	0.542691	0.515588
C102	C	0.653103	0.655741	0.368300
C103	C	0.687739	0.660684	0.472573
H104	H	0.648825	0.713813	0.340141
H105	H	0.692222	0.614200	0.327910
H106	H	0.594756	0.635864	0.366120
H107	H	0.746089	0.680550	0.474750
H108	H	0.648629	0.702231	0.512962
O109	O	1.149411	0.704298	0.763324
C110	C	1.204039	0.646540	0.831010
H111	H	1.273704	0.670846	0.843912
H112	H	1.211269	0.574737	0.794177
C113	C	1.074275	0.617761	0.921427
C114	C	1.159837	0.647617	0.937281
H115	H	1.047009	0.618420	0.986978
H116	H	1.037470	0.656670	0.875824
H117	H	1.080312	0.557927	0.890729
H118	H	1.153798	0.707453	0.967965
H119	H	1.196640	0.608718	0.982892
H120	H	0.932259	0.485373	0.479446
O121	O	1.427425	0.829687	0.458439
C122	C	1.406346	0.853990	0.353924
H123	H	1.367624	0.924663	0.353866
H124	H	1.362860	0.803536	0.312166
C125	C	1.541930	0.766424	0.296316
C126	C	1.494377	0.853229	0.296245
H127	H	1.596230	0.765951	0.260734
H128	H	1.556130	0.750047	0.366729
H129	H	1.505682	0.724388	0.261520
H130	H	1.530621	0.895261	0.331052
H131	H	1.480185	0.869613	0.225836
O132	O	1.416938	1.015955	0.470605
C133	C	1.472231	1.067173	0.537687
H134	H	1.479368	1.038312	0.618981
H135	H	1.440167	1.140459	0.544035
C136	C	1.557536	1.098554	0.392730
C137	C	1.566308	1.063103	0.492574
H138	H	1.615566	1.096048	0.364900
H139	H	1.520282	1.064051	0.347534
H140	H	1.530813	1.159623	0.398033
H141	H	1.593020	1.002032	0.487267
H142	H	1.603568	1.097596	0.537768
H143	H	1.171920	0.471526	1.017718
H144	H	1.171970	0.471465	1.216780
O145	O	1.497407	0.246255	1.214470
C146	C	1.515457	0.331642	1.184471
H147	H	1.449033	0.374436	1.163353
H148	H	1.559178	0.322583	1.113377
C149	C	1.647428	0.326782	1.302203
C150	C	1.565844	0.379346	1.276274
H151	H	1.678512	0.356207	1.358829
H152	H	1.635270	0.269254	1.322412
H153	H	1.683851	0.319237	1.242951
H154	H	1.529418	0.386881	1.335522
H155	H	1.577997	0.436877	1.256078
O156	O	1.138498	0.890600	0.774977
C157	C	1.049608	0.872813	0.744709
H158	H	1.051680	0.804316	0.699839
H159	H	1.016101	0.927834	0.692114
C160	C	0.992426	0.955718	0.898417
C161	C	0.994971	0.871585	0.843315
H162	H	0.958721	0.954964	0.959240
H163	H	1.052312	0.967705	0.918808
H164	H	0.964506	1.001560	0.854576
H165	H	1.022901	0.825746	0.887151
H166	H	0.935088	0.859590	0.822933
O167	O	1.188452	1.029278	0.720515
C168	C	1.195542	1.122126	0.712873
H169	H	1.224492	1.133346	0.634532
H170	H	1.242185	1.146088	0.780001
C171	C	1.065613	1.162239	0.815893
C172	C	1.101164	1.176021	0.719669
H173	H	1.007398	1.195486	0.820090
H174	H	1.060839	1.099686	0.821045
H175	H	1.104491	1.182207	0.871822
H176	H	1.062292	1.156043	0.663743
H177	H	1.105930	1.238572	0.714508
H178	H	1.368140	0.699104	0.523459
H179	H	1.400386	0.159529	1.027139
