data_functionalizedCrystal
_audit_creation_method	'MofGen! by Chris Wilmer'
_symmetry_space_group_name_H-M	'P1'
_symmetry_Int_Tables_number	1
_symmetry_cell_setting	triclinic
loop_
_symmetry_equiv_pos_as_xyz
  x,y,z
_cell_length_a	6.817900
_cell_length_b	12.200722
_cell_length_c	10.992410
_cell_angle_alpha	92.443929
_cell_angle_beta	108.764651
_cell_angle_gamma	107.140920
loop_
_atom_site_label
_atom_site_type_symbol
_atom_site_fract_x
_atom_site_fract_y
_atom_site_fract_z
V1	V	-4.105840	-0.158713	-0.400730
O2	O	-4.072780	0.007627	-0.392961
O3	O	-4.075155	-0.314701	-0.398124
O4	O	-4.083562	-0.156272	-0.575440
O5	O	-4.064315	-0.151899	-0.214417
V6	V	-4.583788	-0.138817	-0.378429
O7	O	-4.379328	-0.202357	-0.449648
O8	O	-4.760497	-0.095173	-0.329510
O9	O	-4.391266	0.017171	-0.381034
O10	O	-4.734245	-0.305156	-0.386197
O11	O	-4.742709	-0.145630	-0.564741
O12	O	-4.382860	-0.141258	-0.203718
C13	C	-3.923620	-0.352728	-0.391837
C14	C	-3.979993	-0.480250	-0.390871
C15	C	-4.025765	-0.583811	-0.390075
C16	C	-4.083210	-0.713733	-0.389082
C17	C	-3.934342	-0.150634	-0.618020
C18	C	-3.997528	-0.149670	-0.760847
C19	C	-3.865116	-0.140887	-0.955963
C20	C	-3.799487	-0.142365	-0.807481
C21	C	-4.189552	-0.262776	-0.838049
C22	C	-4.253918	-0.261775	-0.986614
C23	C	-4.143287	-0.042761	-0.948394
C24	C	-4.072606	-0.042225	-0.799381
C25	C	-4.206143	0.055192	-0.387318
C26	C	-4.129010	0.182713	-0.388292
C27	C	-4.195421	-0.146900	-0.161132
C28	C	-4.111473	-0.147858	-0.018303
H29	H	-3.655341	-0.061037	-0.754070
H30	H	-4.435399	-0.271611	-1.029254
H31	H	-3.836178	-0.216400	-1.004020
H32	H	-4.214789	-0.040897	-0.766868
H33	H	-3.752250	-0.059000	-0.974722
H34	H	-4.234140	-0.341352	-1.032953
H35	H	-3.933785	0.041446	-0.746951
H36	H	-3.738251	-0.218926	-0.782732
H37	H	-4.322053	-0.046872	-0.989238
H38	H	-4.139564	-0.342548	-0.812512
H39	H	-4.339428	-0.272205	-0.809253
H40	H	-4.044923	0.043129	-0.968679
