data_functionalizedCrystal
_audit_creation_method	'MofGen! by Chris Wilmer'
_symmetry_space_group_name_H-M	'P1'
_symmetry_Int_Tables_number	1
_symmetry_cell_setting	triclinic
loop_
_symmetry_equiv_pos_as_xyz
  x,y,z
_cell_length_a	14.853567
_cell_length_b	11.792254
_cell_length_c	13.330367
_cell_angle_alpha	89.995204
_cell_angle_beta	89.995418
_cell_angle_gamma	83.916764
loop_
_atom_site_label
_atom_site_type_symbol
_atom_site_fract_x
_atom_site_fract_y
_atom_site_fract_z
O1	O	1.196951	0.148180	-0.083355
O2	O	0.934561	0.165832	-0.083372
O3	O	1.072118	-0.008203	-0.083356
O4	O	1.059394	0.322215	-0.083371
O5	O	1.072097	-0.008206	0.083491
O6	O	0.934541	0.165828	0.083475
O7	O	1.196931	0.148176	0.083492
Cu8	Cu	1.065734	0.157002	0.098718
Cu9	Cu	1.065758	0.157007	-0.098598
O10	O	1.059374	0.322211	0.083476
C11	C	0.900959	0.165031	0.000049
C12	C	0.800866	0.162634	0.000043
C13	C	1.071306	-0.050490	0.000067
C14	C	1.068907	-0.176488	0.000066
C15	C	0.387886	0.049122	0.000071
C16	C	0.367418	0.255879	0.000060
C17	C	0.461460	0.258133	0.000057
C18	C	0.518720	0.155879	0.000059
C19	C	0.481938	0.051372	0.000064
C20	C	0.498250	0.362638	0.000041
C21	C	0.592298	0.364896	0.000037
C22	C	0.649560	0.262641	0.000046
C23	C	0.612772	0.158130	0.000053
C24	C	0.670032	0.055876	0.000055
C25	C	0.633246	-0.048636	0.000068
C26	C	0.539200	-0.050883	0.000074
C27	C	0.743606	0.264887	0.000041
C28	C	0.764083	0.058127	0.000048
C29	C	1.066958	-0.278813	0.000063
C30	C	1.064521	-0.407185	0.000053
C31	C	1.230533	0.148978	0.000069
C32	C	1.330626	0.151375	0.000069
C33	C	1.060186	0.364499	0.000051
C34	C	1.062585	0.490497	0.000045
N35	N	1.065724	0.156998	0.237500
N36	N	1.065775	0.157002	-0.237379
C37	C	1.004845	0.234039	0.710115
C38	C	1.126695	0.079966	0.710098
C39	C	1.126685	0.079962	0.605079
C40	C	1.065755	0.156999	0.552574
C41	C	1.004835	0.234040	0.605087
C42	C	1.187610	0.002930	0.552558
C43	C	1.187603	0.002925	0.447534
C44	C	1.126667	0.079957	0.395027
C45	C	1.065744	0.157000	0.447546
C46	C	1.004814	0.234038	0.395041
C47	C	0.943886	0.311076	0.447559
C48	C	0.943900	0.311073	0.552580
C49	C	1.126654	0.079961	0.290005
C50	C	1.004804	0.234039	0.290013
H51	H	0.810699	-0.025142	0.000054
H52	H	1.176307	0.017249	0.752851
H53	H	1.237222	-0.059786	0.595311
H54	H	1.237212	-0.059805	0.404780
H55	H	1.176265	0.017242	0.247250
H56	H	0.357930	-0.035970	0.000086
H57	H	0.622240	0.449996	0.000026
H58	H	0.679879	-0.131891	0.000063
H59	H	0.320791	0.339129	0.000050
H60	H	0.773553	0.349979	0.000032
H61	H	0.509239	-0.135971	0.000108
H62	H	0.451622	0.445887	0.000029
H63	H	0.894295	0.373796	0.595347
H64	H	0.955184	0.296768	0.247269
H65	H	0.955236	0.296760	0.752878
H66	H	0.894280	0.373806	0.404797
