data_functionalizedCrystal
_audit_creation_method	'MofGen! by Chris Wilmer'
_symmetry_space_group_name_H-M	'P1'
_symmetry_Int_Tables_number	1
_symmetry_cell_setting	triclinic
loop_
_symmetry_equiv_pos_as_xyz
  x,y,z
_cell_length_a	23.532361
_cell_length_b	23.532357
_cell_length_c	22.010155
_cell_angle_alpha	90.001303
_cell_angle_beta	90.004127
_cell_angle_gamma	82.828980
loop_
_atom_site_label
_atom_site_type_symbol
_atom_site_fract_x
_atom_site_fract_y
_atom_site_fract_z
O1	O	0.755269	0.069002	0.050471
O2	O	0.589400	0.079033	0.050487
O3	O	0.677351	-0.008917	0.050466
O4	O	0.667317	0.156952	0.050492
O5	O	0.677335	-0.008903	-0.050584
O6	O	0.589384	0.079047	-0.050563
O7	O	0.755253	0.069015	-0.050579
Cu8	Cu	0.672317	0.074032	-0.059798
Cu9	Cu	0.672336	0.074017	0.059706
O10	O	0.667302	0.156966	-0.050558
C11	C	0.568175	0.078789	-0.000036
C12	C	0.504957	0.078034	-0.000031
C13	C	0.231722	0.074723	0.055047
C14	C	0.291122	0.075438	0.055049
O15	O	0.321855	0.075782	0.101894
N16	N	0.320819	0.075806	-0.000034
C17	C	0.291114	0.075454	-0.055122
O18	O	0.321828	0.075832	-0.101974
C19	C	0.231716	0.074735	-0.055123
C20	C	0.202021	0.074372	-0.000036
C21	C	0.202028	0.074360	0.110129
C22	C	0.142632	0.073646	0.110127
C23	C	0.112931	0.073295	0.055044
C24	C	0.142626	0.073658	-0.000038
C25	C	0.202013	0.074378	-0.110210
C26	C	0.142611	0.073659	-0.110206
C27	C	0.112916	0.073296	-0.055120
C28	C	0.053529	0.072594	-0.055124
N29	N	0.023832	0.072225	-0.000041
C30	C	0.053533	0.072576	0.055043
C31	C	0.415854	0.076963	-0.055115
C32	C	0.475250	0.077686	-0.055115
C33	C	0.475254	0.077669	0.055056
C34	C	0.415856	0.076950	0.055055
C35	C	0.386157	0.076594	-0.000033
C36	C	-0.071202	0.071078	0.055035
C37	C	-0.130604	0.070366	0.055028
C38	C	-0.130602	0.070380	-0.055142
C39	C	-0.071206	0.071095	-0.055136
C40	C	-0.041508	0.071441	-0.000043
O41	O	0.022758	0.072247	-0.101944
O42	O	0.022813	0.072190	0.101887
C43	C	0.677092	-0.030127	-0.000061
C44	C	0.676337	-0.093345	-0.000066
C45	C	0.671609	-0.485363	0.055049
C46	C	0.670892	-0.544762	0.055053
O47	O	0.670509	-0.575484	0.101899
N48	N	0.670527	-0.574466	-0.000029
C49	C	0.670875	-0.544767	-0.055118
O50	O	0.670498	-0.575486	-0.101969
C51	C	0.671588	-0.485368	-0.055121
C52	C	0.671958	-0.455668	-0.000035
C53	C	0.671979	-0.455663	0.110130
C54	C	0.672697	-0.396267	0.110127
C55	C	0.673046	-0.366573	0.055042
C56	C	0.672676	-0.396273	-0.000039
C57	C	0.671931	-0.455669	-0.110209
C58	C	0.672643	-0.396266	-0.110207
C59	C	0.673014	-0.366566	-0.055122
C60	C	0.673743	-0.307183	-0.055127
N61	N	0.674108	-0.277479	-0.000046
C62	C	0.673759	-0.307174	0.055039
C63	C	0.669376	-0.669508	-0.055107
C64	C	0.668667	-0.728906	-0.055105
C65	C	0.668683	-0.728897	0.055066
C66	C	0.669396	-0.669499	0.055063
C67	C	0.669740	-0.639804	-0.000026
C68	C	0.675268	-0.182440	0.055027
C69	C	0.675988	-0.123040	0.055018
C70	C	0.675969	-0.123054	-0.055152
C71	C	0.675251	-0.182449	-0.055144
C72	C	0.674899	-0.212140	-0.000049
O73	O	0.674124	-0.276422	-0.101949
O74	O	0.674128	-0.276446	0.101882
C75	C	0.776477	0.069260	-0.000054
C76	C	0.839695	0.070015	-0.000056
C77	C	0.667560	0.178176	-0.000030
C78	C	0.668315	0.241394	-0.000020
N79	N	0.672308	0.074043	-0.143850
C80	C	0.711283	0.035078	-0.563639
C81	C	0.711285	0.035074	-0.627246
O82	O	0.744400	0.001952	-0.660146
N83	N	0.672335	0.074005	-0.659057
C84	C	0.633376	0.112938	-0.627257
O85	O	0.600246	0.146051	-0.660156
C86	C	0.633371	0.112939	-0.563651
C87	C	0.672328	0.074009	-0.531843
C88	C	0.750235	-0.003849	-0.531831
C89	C	0.750233	-0.003844	-0.468228
C90	C	0.711278	0.035087	-0.436432
C91	C	0.672326	0.074014	-0.468240
C92	C	0.594410	0.151869	-0.531852
C93	C	0.594408	0.151866	-0.468241
C94	C	0.633365	0.112937	-0.436434
C95	C	0.633369	0.112951	-0.372841
N96	N	0.672319	0.074020	-0.341030
C97	C	0.711273	0.035088	-0.372826
C98	C	0.633389	0.112933	-0.760835
C99	C	0.633396	0.112935	-0.824440
C100	C	0.711304	0.035070	-0.824425
C101	C	0.711299	0.035071	-0.760819
C102	C	0.672339	0.074002	-0.729024
C103	C	0.711266	0.035101	-0.239255
C104	C	0.711262	0.035111	-0.175646
C105	C	0.633352	0.112974	-0.175667
C106	C	0.633358	0.112967	-0.239270
C107	C	0.672317	0.074026	-0.271062
O108	O	0.600269	0.146054	-0.339902
O109	O	0.744393	0.001976	-0.339920
N110	N	0.672349	0.074002	0.143758
H111	H	0.391675	0.076681	-0.099977
C112	C	0.670893	-0.546708	0.159072
C113	C	0.671597	-0.488297	0.170686
H114	H	0.670658	-0.566851	0.196461
H115	H	0.703986	-0.560982	0.136440
H116	H	0.637553	-0.551905	0.136448
H117	H	0.704940	-0.483100	0.193307
H118	H	0.638501	-0.474020	0.193328
C119	C	0.620536	0.190546	-0.310807
C120	C	0.590539	0.155763	-0.274233
H121	H	0.594097	0.216966	-0.332384
H122	H	0.643726	0.167360	-0.338849
H123	H	0.644121	0.210909	-0.285989
H124	H	0.566957	0.135396	-0.299052
H125	H	0.567339	0.178952	-0.246188
H126	H	0.499448	0.077954	0.099908
H127	H	0.743021	0.003371	-0.734925
H128	H	0.601664	0.144640	-0.734951
H129	H	0.672915	-0.372091	-0.155068
H130	H	-0.047029	0.071401	-0.099992
C131	C	0.196019	0.074305	-0.219104
C132	C	0.234643	0.074771	-0.170764
H133	H	0.216165	0.074543	-0.256490
H134	H	0.168315	0.107241	-0.216808
H135	H	0.177390	0.040808	-0.216804
H136	H	0.253269	0.108271	-0.173062
H137	H	0.262357	0.041832	-0.173061
C138	C	0.517394	0.228822	-0.525451
C139	C	0.551585	0.194660	-0.566804
H140	H	0.490951	0.255238	-0.547029
H141	H	0.540979	0.249185	-0.500643
H142	H	0.497056	0.205210	-0.500643
H143	H	0.571926	0.218272	-0.591609
H144	H	0.527997	0.174296	-0.591623
H145	H	0.676256	-0.098866	-0.100001
C146	C	0.827663	-0.016839	-0.396471
C147	C	0.792881	-0.046728	-0.433169
H148	H	0.853944	-0.043343	-0.374804
H149	H	0.804457	0.006427	-0.368509
H150	H	0.848184	0.006661	-0.421216
H151	H	0.772357	-0.070225	-0.408424
H152	H	0.816090	-0.070004	-0.461134
H153	H	0.669658	-0.645335	-0.099970
C154	C	0.788277	-0.041863	-0.232833
C155	C	0.754091	-0.007702	-0.274194
H156	H	0.814718	-0.068284	-0.254405
H157	H	0.764689	-0.062221	-0.208028
H158	H	0.808617	-0.018251	-0.208022
H159	H	0.733748	-0.031314	-0.299002
H160	H	0.777683	0.012657	-0.299010
C161	C	0.599323	0.211747	-0.156072
C162	C	0.590535	0.155765	-0.140707
H163	H	0.572889	0.238161	-0.134484
H164	H	0.593743	0.217318	-0.198499
H165	H	0.637296	0.217729	-0.145643
H166	H	0.552563	0.149782	-0.151140
H167	H	0.596110	0.150192	-0.098270
C168	C	-0.124624	0.070419	0.163930
C169	C	-0.163242	0.069964	0.115583
H170	H	-0.144773	0.070166	0.201312
H171	H	-0.105997	0.103912	0.161645
H172	H	-0.096916	0.037479	0.161626
H173	H	-0.190948	0.102906	0.117884
H174	H	-0.181879	0.036467	0.117870
C175	C	-0.011101	0.120840	0.118965
C176	C	-0.038561	0.071464	0.115592
H177	H	0.009053	0.121078	0.156348
H178	H	-0.038812	0.153771	0.116676
H179	H	0.015089	0.121151	0.086161
H180	H	-0.064755	0.071154	0.148394
H181	H	-0.010846	0.038524	0.117887
C182	C	0.534611	0.146896	-0.844029
C183	C	0.590578	0.155731	-0.859400
H184	H	0.508175	0.173314	-0.865614
H185	H	0.529043	0.152470	-0.801601
H186	H	0.528658	0.108916	-0.854457
H187	H	0.596532	0.193710	-0.848968
H188	H	0.596149	0.150162	-0.901838
C189	C	0.516818	0.164640	-0.396727
C190	C	0.551581	0.194664	-0.433295
H191	H	0.490378	0.191062	-0.375157
H192	H	0.540015	0.141464	-0.368679
H193	H	0.496477	0.141037	-0.421548
H194	H	0.571925	0.218263	-0.408473
H195	H	0.528381	0.217849	-0.461346
H196	H	0.118460	0.073348	0.154984
C197	C	0.671967	-0.449684	-0.219104
C198	C	0.671517	-0.488304	-0.170762
H199	H	0.671707	-0.469831	-0.256488
H200	H	0.705463	-0.431060	-0.216818
H201	H	0.639030	-0.421973	-0.216794
H202	H	0.704457	-0.516012	-0.173069
H203	H	0.638018	-0.506937	-0.173048
C204	C	0.619509	-0.740493	0.148978
C205	C	0.668296	-0.761543	0.115619
H206	H	0.619273	-0.760646	0.186360
H207	H	0.586178	-0.745690	0.126347
H208	H	0.619994	-0.700868	0.156859
H209	H	0.667808	-0.801168	0.107734
H210	H	0.701635	-0.756351	0.138255
H211	H	0.781957	-0.035554	-0.557713
C212	C	0.625482	-0.242568	-0.119050
C213	C	0.674859	-0.215107	-0.115690
H214	H	0.625241	-0.262731	-0.156427
H215	H	0.592551	-0.214856	-0.116769
H216	H	0.625172	-0.268750	-0.086237
H217	H	0.675166	-0.188922	-0.148500
H218	H	0.707797	-0.242823	-0.117976
C219	C	0.196049	0.074281	0.219023
C220	C	0.234668	0.074750	0.170685
H221	H	0.216196	0.074529	0.256410
H222	H	0.177427	0.040785	0.216725
H223	H	0.168336	0.107218	0.216723
H224	H	0.262378	0.041811	0.172983
H225	H	0.253299	0.108250	0.172984
C226	C	0.745328	-0.063707	-0.844008
C227	C	0.754123	-0.007730	-0.859381
H228	H	0.771763	-0.090127	-0.865587
H229	H	0.707359	-0.069687	-0.854437
H230	H	0.750905	-0.069272	-0.801574
H231	H	0.748542	-0.002163	-0.901815
H232	H	0.792100	-0.001747	-0.848956
H233	H	0.391683	0.076655	0.099911
H234	H	0.499421	0.077990	-0.099972
H235	H	0.118432	0.073374	-0.155066
C236	C	-0.190714	0.020613	-0.119052
C237	C	-0.163257	0.069992	-0.115689
H238	H	-0.210872	0.020370	-0.156433
H239	H	-0.216895	0.020300	-0.086247
H240	H	-0.162995	-0.012319	-0.116767
H241	H	-0.190977	0.102925	-0.117969
H242	H	-0.137074	0.070310	-0.148503
C243	C	0.675343	-0.176447	0.163926
C244	C	0.674871	-0.215069	0.115587
H245	H	0.675100	-0.196592	0.201312
H246	H	0.642412	-0.148737	0.161626
H247	H	0.708845	-0.157824	0.161628
H248	H	0.641367	-0.233689	0.117883
H249	H	0.707806	-0.242789	0.117888
C250	C	0.672631	-0.402242	0.219022
C251	C	0.673094	-0.363625	0.170679
H252	H	0.672871	-0.382091	0.256406
H253	H	0.705568	-0.429945	0.216729
H254	H	0.639135	-0.420873	0.216722
H255	H	0.706593	-0.344997	0.172976
H256	H	0.640153	-0.335911	0.172974
H257	H	0.676291	-0.098861	0.099877
H258	H	0.669697	-0.645321	0.099918
H259	H	0.668374	-0.753084	-0.099961
H260	H	0.742987	0.003410	-0.149750
