data_functionalizedCrystal
_audit_creation_method	'MofGen! by Chris Wilmer'
_symmetry_space_group_name_H-M	'P1'
_symmetry_Int_Tables_number	1
_symmetry_cell_setting	triclinic
loop_
_symmetry_equiv_pos_as_xyz
  x,y,z
_cell_length_a	17.038272
_cell_length_b	16.098538
_cell_length_c	27.732025
_cell_angle_alpha	87.285658
_cell_angle_beta	93.127488
_cell_angle_gamma	87.069734
loop_
_atom_site_label
_atom_site_type_symbol
_atom_site_fract_x
_atom_site_fract_y
_atom_site_fract_z
O1	O	-1.039648	0.069107	0.102902
O2	O	-0.539648	0.569107	0.602902
O3	O	-0.812038	0.069132	0.101235
O4	O	-0.312038	0.569132	0.601235
O5	O	-0.932923	0.069144	0.031994
O6	O	-0.432923	0.569144	0.531994
O7	O	-0.918763	0.069095	0.172143
O8	O	-0.418763	0.569095	0.672143
O9	O	-0.925861	-0.069370	0.036022
O10	O	-0.425861	0.430630	0.536022
O11	O	-0.804977	-0.069381	0.105263
O12	O	-0.304977	0.430619	0.605263
O13	O	-1.032587	-0.069407	0.106929
O14	O	-0.532587	0.430593	0.606929
Zn15	Zn	-0.917661	-0.091386	0.106736
Zn16	Zn	-0.417661	0.408614	0.606736
Zn17	Zn	-0.926964	0.091112	0.101429
Zn18	Zn	-0.426964	0.591112	0.601429
O19	O	-0.911702	-0.069419	0.176171
O20	O	-0.411702	0.430581	0.676171
C21	C	-0.779397	-0.000121	0.101734
C22	C	-0.279397	0.499879	0.601734
C23	C	-0.692658	-0.000110	0.097213
C24	C	-0.192658	0.499890	0.597213
N25	N	-0.911317	-0.215936	0.110357
N26	N	-0.411317	0.284064	0.610357
C27	C	-0.929098	-0.000104	0.015987
C28	C	-0.429098	0.499896	0.515987
C29	C	-0.928213	-0.000080	-0.037710
C30	C	-0.428213	0.499920	0.462290
C31	C	-1.065228	-0.000152	0.106431
C32	C	-0.565228	0.499848	0.606431
C33	C	-1.151967	-0.000158	0.110951
C34	C	-0.651967	0.499842	0.610951
C35	C	-0.642054	-0.000125	0.138716
C36	C	-0.142054	0.499875	0.638716
C37	C	-0.560553	-0.000135	0.134466
C38	C	-0.060553	0.499865	0.634466
C39	C	-0.529658	-0.000124	0.088712
C40	C	-0.029658	0.499876	0.588712
C41	C	-0.580269	-0.000111	0.047206
C42	C	-0.080269	0.499889	0.547206
C43	C	-0.661768	-0.000107	0.051456
C44	C	-0.161768	0.499893	0.551456
C45	C	-0.284076	-0.000141	0.073696
C46	C	0.215924	0.499859	0.573696
C47	C	-0.202571	-0.000142	0.069448
C48	C	0.297429	0.499858	0.569448
C49	C	-0.182861	-0.000168	0.156709
C50	C	0.317139	0.499832	0.656709
C51	C	-0.264363	-0.000159	0.160956
C52	C	0.235637	0.499841	0.660956
C53	C	-0.314966	-0.000150	0.119449
C54	C	0.185034	0.499850	0.619449
C55	C	-0.446352	-0.000131	0.084367
C56	C	0.053648	0.499869	0.584367
C57	C	-0.398271	-0.000149	0.123795
C58	C	0.101729	0.499851	0.623795
C59	C	-0.962644	-0.259516	0.080980
C60	C	-0.462644	0.240484	0.580980
C61	C	-0.958213	-0.346705	0.083519
C62	C	-0.458213	0.153295	0.583519
C63	C	-0.902459	-0.390313	0.115437
C64	C	-0.402459	0.109687	0.615437
C65	C	-0.851127	-0.346727	0.144815
C66	C	-0.351127	0.153273	0.644815
C67	C	-0.855554	-0.259539	0.142274
C68	C	-0.355554	0.240461	0.642274
C69	C	-0.886409	-0.653565	0.124640
C70	C	-0.386409	-0.153565	0.624640
C71	C	-0.881987	-0.740759	0.127181
C72	C	-0.381987	-0.240759	0.627181
C73	C	-0.989073	-0.740731	0.065884
C74	C	-0.489073	-0.240731	0.565884
C75	C	-0.993499	-0.653541	0.063347
C76	C	-0.493499	-0.153541	0.563347
C77	C	-0.942164	-0.609963	0.092723
C78	C	-0.442164	-0.109963	0.592723
C79	C	-0.897931	-0.479435	0.118033
C80	C	-0.397931	0.020565	0.618033
C81	C	-0.946689	-0.520843	0.090124
C82	C	-0.446689	-0.020843	0.590124
N83	N	-0.933314	0.215661	0.097804
N84	N	-0.433314	0.715661	0.597804
C85	C	-0.925760	0.075376	-0.423358
C86	C	-0.425760	0.575376	0.076642
C87	C	-0.929079	0.075403	-0.221547
C88	C	-0.429079	0.575403	0.278453
O89	O	-0.932813	0.139618	-0.197326
O90	O	-0.432813	0.639618	0.302674
N91	N	-0.925645	-0.000099	-0.194111
N92	N	-0.425645	0.499901	0.305889
C93	C	-0.921386	-0.075612	-0.217132
C94	C	-0.421386	0.424388	0.282868
O95	O	-0.918549	-0.139830	-0.189166
O96	O	-0.418549	0.360170	0.310834
C97	C	-0.918072	-0.075638	-0.418941
C98	C	-0.418072	0.424362	0.081059
C99	C	-0.921498	-0.000131	-0.446374
C100	C	-0.421498	0.499869	0.053626
C101	C	-0.929187	0.150877	-0.450790
C102	C	-0.429187	0.650877	0.049210
C103	C	-0.928353	0.150869	-0.501240
C104	C	-0.428353	0.650869	-0.001240
C105	C	-0.924091	0.075362	-0.524256
C106	C	-0.424091	0.575362	-0.024256
C107	C	-0.920664	-0.000139	-0.496824
C108	C	-0.420664	0.499861	0.003176
C109	C	-0.913818	-0.151151	-0.441961
C110	C	-0.413818	0.348849	0.058039
C111	C	-0.912992	-0.151150	-0.492417
C112	C	-0.412992	0.348850	0.007583
C113	C	-0.916419	-0.075644	-0.519849
C114	C	-0.416419	0.424356	-0.019849
C115	C	-0.915569	-0.075654	-0.570290
C116	C	-0.415569	0.424346	-0.070290
N117	N	-0.919003	-0.000152	-0.597725
N118	N	-0.419003	0.499848	-0.097725
C119	C	-0.923264	0.075355	-0.574709
C120	C	-0.423264	0.575355	-0.074709
C121	C	-0.923124	-0.075594	-0.111179
C122	C	-0.423124	0.424406	0.388821
C123	C	-0.923951	-0.075587	-0.060726
C124	C	-0.423951	0.424413	0.439274
C125	C	-0.931646	0.075428	-0.065145
C126	C	-0.431646	0.575428	0.434855
C127	C	-0.930813	0.075421	-0.115598
C128	C	-0.430813	0.575421	0.384402
C129	C	-0.926558	-0.000092	-0.138614
C130	C	-0.426558	0.499908	0.361386
C131	C	-0.921512	0.075334	-0.680656
C132	C	-0.421512	0.575334	-0.180656
C133	C	-0.920674	0.075320	-0.731109
C134	C	-0.420674	0.575320	-0.231109
C135	C	-0.912983	-0.075695	-0.726686
C136	C	-0.412983	0.424305	-0.226686
C137	C	-0.913817	-0.075681	-0.676237
C138	C	-0.413817	0.424319	-0.176237
C139	C	-0.918084	-0.000160	-0.653223
C140	C	-0.418084	0.499840	-0.153223
O141	O	-0.911845	-0.139835	-0.594543
O142	O	-0.411845	0.360165	-0.094543
O143	O	-0.926118	0.139564	-0.602684
O144	O	-0.426118	0.639564	-0.102684
C145	C	-0.926594	0.075384	-0.372908
C146	C	-0.426594	0.575384	0.127092
C147	C	-0.923167	-0.000117	-0.345475
C148	C	-0.423167	0.499883	0.154525
C149	C	-0.918906	-0.075624	-0.368492
C150	C	-0.418906	0.424376	0.131508
C151	C	-0.923994	-0.000110	-0.295023
C152	C	-0.423994	0.499890	0.204977
C153	C	-0.928255	0.075397	-0.272006
C154	C	-0.428255	0.575397	0.227994
C155	C	-0.931689	0.150899	-0.299442
C156	C	-0.431689	0.650899	0.200558
C157	C	-0.930855	0.150891	-0.349892
C158	C	-0.430855	0.650891	0.150108
C159	C	-0.915471	-0.151126	-0.341056
C160	C	-0.415471	0.348874	0.158944
C161	C	-0.916305	-0.151112	-0.290607
C162	C	-0.416305	0.348888	0.209393
C163	C	-0.920566	-0.075605	-0.267590
C164	C	-0.420566	0.424395	0.232410
C165	C	-0.915527	-0.000168	0.192178
C166	C	-0.415527	0.499832	0.692178
C167	C	-0.916413	-0.000188	0.245874
C168	C	-0.416413	0.499812	0.745874
H169	H	-0.667202	-0.000133	0.175974
H170	H	-0.167202	0.499867	0.675974
H171	H	-0.923461	0.136809	-0.753443
H172	H	-0.423461	0.636809	-0.253443
Cl173	Cl	-0.919625	-0.170514	-0.026245
Cl174	Cl	-0.419625	0.329486	0.473755
Cl175	Cl	-0.910111	-0.246060	-0.369983
Cl176	Cl	-0.410111	0.253940	0.130017
Cl177	Cl	-0.821879	-0.598786	0.161571
Cl178	Cl	-0.321879	-0.098786	0.661571
H179	H	-0.935153	0.212380	-0.280693
H180	H	-0.435153	0.712380	0.219307
Cl181	Cl	-0.781031	-0.401546	0.184939
Cl182	Cl	-0.281031	0.098454	0.684939
H183	H	-0.519354	-0.000146	0.168263
H184	H	-0.019354	0.499854	0.668263
Cl185	Cl	-0.791023	-0.204754	0.179205
Cl186	Cl	-0.291023	0.295246	0.679205
H187	H	-0.702970	-0.000094	0.017660
H188	H	-0.202970	0.499906	0.517660
H189	H	-1.030867	-0.776220	0.041966
H190	H	-0.530867	-0.276220	0.541966
Cl191	Cl	-0.119242	-0.000182	0.208885
Cl192	Cl	0.380758	0.499818	0.708885
H193	H	-0.924987	0.136831	-0.661924
H194	H	-0.424987	0.636831	-0.161924
H195	H	-0.289511	-0.000158	0.198213
H196	H	0.210489	0.499842	0.698213
H197	H	-0.932660	0.212368	-0.432056
H198	H	-0.432660	0.712368	0.067944
Cl199	Cl	-0.827842	-0.534260	0.158159
Cl200	Cl	-0.327842	-0.034260	0.658159
Cl201	Cl	-0.935166	0.245819	-0.384371
Cl202	Cl	-0.435166	0.745819	0.115629
Cl203	Cl	-0.163733	-0.000147	0.011925
Cl204	Cl	0.336267	0.499853	0.511925
Cl205	Cl	-0.407505	-0.000114	0.026849
Cl206	Cl	0.092495	0.499886	0.526849
H207	H	-0.935111	0.136910	-0.046397
H208	H	-0.435111	0.636910	0.453603
Cl209	Cl	-0.541429	-0.000102	-0.010314
Cl210	Cl	-0.041429	0.499898	0.489686
Cl211	Cl	-0.917769	-0.170534	-0.140105
Cl212	Cl	-0.417769	0.329466	0.359895
H213	H	-0.913507	-0.212604	-0.268275
H214	H	-0.413507	0.287396	0.231725
Cl215	Cl	-0.437111	-0.000165	0.181313
Cl216	Cl	0.062889	0.499835	0.681313
H217	H	-1.008048	-0.224016	0.054992
H218	H	-0.508048	0.275984	0.554992
H219	H	-1.000007	-0.382188	0.059598
H220	H	-0.500007	0.117812	0.559598
H221	H	-0.836583	-0.776260	0.153174
H222	H	-0.336583	-0.276260	0.653174
Cl223	Cl	-0.907645	-0.246087	-0.521348
Cl224	Cl	-0.407645	0.253913	-0.021348
Cl225	Cl	-1.063591	-0.598720	0.023222
Cl226	Cl	-0.563591	-0.098720	0.523222
H227	H	-0.992081	-0.485335	0.064135
H228	H	-0.492081	0.014665	0.564135
H229	H	-0.933602	0.136905	-0.137931
H230	H	-0.433602	0.636905	0.362069
Cl231	Cl	-0.347681	-0.000130	0.021515
Cl232	Cl	0.152319	0.499870	0.521515
Cl233	Cl	-0.932670	0.245797	-0.535720
Cl234	Cl	-0.432670	0.745797	-0.035720
Cl235	Cl	-0.909502	-0.246080	-0.407486
Cl236	Cl	-0.409502	0.253920	0.092514
H237	H	-0.910995	-0.137165	-0.653898
H238	H	-0.410995	0.362835	-0.153898
Cl239	Cl	-0.907621	-0.170614	-0.755630
Cl240	Cl	-0.407621	0.329386	-0.255630
