data_functionalizedCrystal
_audit_creation_method	'MofGen! by Chris Wilmer'
_symmetry_space_group_name_H-M	'P1'
_symmetry_Int_Tables_number	1
_symmetry_cell_setting	triclinic
loop_
_symmetry_equiv_pos_as_xyz
  x,y,z
_cell_length_a	27.440280
_cell_length_b	27.440280
_cell_length_c	27.440280
_cell_angle_alpha	90.007570
_cell_angle_beta	59.998298
_cell_angle_gamma	60.004534
loop_
_atom_site_label
_atom_site_type_symbol
_atom_site_fract_x
_atom_site_fract_y
_atom_site_fract_z
Zr1	Zr	0.533339	0.469564	-0.063890
O2	O	0.635015	0.391750	-0.141716
O3	O	0.431673	0.493409	-0.040034
O4	O	0.533342	0.493412	-0.141705
O5	O	0.533341	0.391755	0.040156
O6	O	0.533332	0.573614	-0.141695
O7	O	0.533347	0.391747	-0.040045
O8	O	0.351466	0.573609	0.040176
O9	O	0.715208	0.391760	-0.141715
O10	O	0.473479	0.563444	-0.029850
O11	O	0.473482	0.503595	0.029995
O12	O	0.593184	0.503599	-0.089709
O13	O	0.593187	0.443750	-0.029864
Zr14	Zr	0.533315	0.597491	0.064037
Zr15	Zr	0.533324	0.597478	-0.063874
Zr16	Zr	0.533330	0.469577	0.064021
Zr17	Zr	0.661237	0.469580	-0.063889
Zr18	Zr	0.405418	0.597474	0.064035
O19	O	0.634981	0.573646	0.040180
O20	O	0.634994	0.573628	-0.141693
O21	O	0.635003	0.391768	0.040157
O22	O	0.431639	0.675305	0.141862
O23	O	0.431652	0.675286	-0.040011
O24	O	0.431660	0.493427	0.141840
O25	O	0.533313	0.675299	-0.040010
O26	O	0.533313	0.573643	0.141851
O27	O	0.533322	0.493440	0.141841
O28	O	0.533308	0.675307	0.040191
O29	O	0.715196	0.493435	-0.141703
O30	O	0.351459	0.573619	0.141849
O31	O	0.351447	0.675294	0.141862
O32	O	0.351454	0.675284	0.040189
O33	O	0.715201	0.391771	-0.040043
O34	O	0.715189	0.493445	-0.040030
O35	O	0.473471	0.563456	0.089856
O36	O	0.473468	0.623304	0.030010
O37	O	0.593173	0.563459	-0.029849
O38	O	0.593175	0.503611	0.029997
C39	C	0.373347	0.533507	0.000071
C40	C	0.319051	0.533500	0.000071
C41	C	-0.017693	0.564784	-0.031160
C42	C	-0.068717	0.564790	-0.031159
O43	O	-0.095124	0.591376	-0.057708
N44	N	-0.094231	0.533549	0.000079
C45	C	-0.068724	0.502305	0.031322
O46	O	-0.095112	0.475734	0.057892
C47	C	-0.017705	0.502304	0.031323
C48	C	0.007812	0.533542	0.000079
C49	C	0.007824	0.596020	-0.062402
C50	C	0.058845	0.596014	-0.062404
C51	C	0.084350	0.564771	-0.031165
C52	C	0.058833	0.533535	0.000076
C53	C	0.007798	0.471064	0.062569
C54	C	0.058820	0.471066	0.062568
C55	C	0.084337	0.502304	0.031324
C56	C	0.135359	0.502287	0.031313
N57	N	0.160874	0.533527	0.000075
C58	C	0.135369	0.564770	-0.031164
C59	C	-0.175870	0.502312	0.031317
C60	C	-0.226885	0.502310	0.031312
C61	C	-0.226874	0.564795	-0.031167
C62	C	-0.175855	0.564793	-0.031166
C63	C	-0.150355	0.533553	0.000079
C64	C	0.242518	0.564753	-0.031167
C65	C	0.293546	0.564742	-0.031168
C66	C	0.293529	0.502260	0.031314
C67	C	0.242508	0.502268	0.031313
C68	C	0.217002	0.533519	0.000072
O69	O	0.161797	0.475715	0.057850
O70	O	0.161757	0.591343	-0.057723
C71	C	0.533346	0.373526	0.000053
C72	C	0.533352	0.319223	0.000046
C73	C	0.470831	0.013764	0.031335
C74	C	0.470827	-0.037254	0.031341
O75	O	0.417687	-0.037075	0.057932
N76	N	0.533311	-0.094010	0.000094
C77	C	0.595803	-0.099746	-0.031155
O78	O	0.648950	-0.152705	-0.057731
C79	C	0.595806	-0.048728	-0.031156
C80	C	0.533318	0.008027	0.000088
C81	C	0.408348	0.070516	0.062577
C82	C	0.408352	0.121531	0.062571
C83	C	0.470839	0.115794	0.031323
C84	C	0.533322	0.059042	0.000081
C85	C	0.658297	-0.054464	-0.062401
C86	C	0.658295	-0.003440	-0.062399
C87	C	0.595807	0.053314	-0.031156
C88	C	0.595813	0.104319	-0.031173
N89	N	0.533329	0.161074	0.000073
C90	C	0.470842	0.166812	0.031321
C91	C	0.595792	-0.206884	-0.031148
C92	C	0.595790	-0.257902	-0.031151
C93	C	0.470814	-0.195407	0.031346
C94	C	0.470817	-0.144389	0.031344
C95	C	0.533308	-0.150129	0.000098
C96	C	0.470856	0.273944	0.031305
C97	C	0.470865	0.324960	0.031294
C98	C	0.595841	0.262461	-0.031199
C99	C	0.595832	0.211449	-0.031191
C100	C	0.533334	0.217194	0.000066
O101	O	0.648927	0.104186	-0.057749
O102	O	0.417704	0.219773	0.057900
C103	C	0.693308	0.533548	0.000075
C104	C	0.747604	0.533555	0.000076
C105	C	0.533338	0.533511	-0.159924
C106	C	0.533342	0.533506	-0.214226
C107	C	0.533308	0.693528	0.000093
C108	C	0.533302	0.747831	0.000100
C109	C	0.533323	0.489340	-0.448919
C110	C	0.533324	0.489337	-0.397899
O111	O	0.533306	0.451771	-0.371503
N112	N	0.533324	0.533519	-0.372381
C113	C	0.533316	0.577711	-0.397881
O114	O	0.533315	0.615291	-0.371490
C115	C	0.533309	0.577715	-0.448897
C116	C	0.533316	0.533527	-0.474416
C117	C	0.533329	0.445155	-0.474438
C118	C	0.533329	0.445158	-0.525455
C119	C	0.533322	0.489345	-0.550952
C120	C	0.533316	0.533529	-0.525433
C121	C	0.533296	0.621909	-0.474394
C122	C	0.533289	0.621910	-0.525413
C123	C	0.533296	0.577721	-0.550932
C124	C	0.533309	0.577718	-0.601947
N125	N	0.533309	0.533536	-0.627466
C126	C	0.533316	0.489349	-0.601969
C127	C	0.533328	0.577698	-0.290743
C128	C	0.533339	0.577691	-0.239730
C129	C	0.533347	0.489318	-0.239751
C130	C	0.533340	0.489323	-0.290767
C131	C	0.533328	0.533516	-0.316261
C132	C	0.533316	0.489357	-0.709108
C133	C	0.533319	0.489362	-0.760130
C134	C	0.533308	0.577736	-0.760103
C135	C	0.533309	0.577730	-0.709086
C136	C	0.533311	0.533538	-0.683589
O137	O	0.533325	0.615266	-0.628374
O138	O	0.533307	0.451780	-0.628361
C139	C	0.533316	0.533543	0.160070
C140	C	0.533312	0.533549	0.214372
C141	C	0.373328	0.693508	0.000091
C142	C	0.319026	0.747804	0.000097
C143	C	0.373335	0.533523	0.160069
C144	C	0.319036	0.533521	0.214370
C145	C	0.373317	0.693524	0.160089
C146	C	0.319011	0.747825	0.214396
C147	C	0.693338	0.373531	-0.159942
C148	C	0.747644	0.319229	-0.214250
C149	C	0.693326	0.373547	0.000055
C150	C	0.747629	0.319251	0.000049
C151	C	0.693319	0.533532	-0.159922
C152	C	0.747619	0.533533	-0.214223
C153	C	0.293531	0.742055	-0.031152
C154	C	0.242515	0.793067	-0.031158
C155	C	0.216992	0.849827	0.000089
C156	C	0.242492	0.855574	0.031339
C157	C	0.293510	0.804563	0.031341
C158	C	0.293530	0.564767	0.271122
C159	C	0.242517	0.564763	0.322148
C160	C	0.217007	0.533517	0.316421
C161	C	0.242517	0.502267	0.259663
C162	C	0.293533	0.502268	0.208638
C163	C	0.293506	0.804571	0.208661
C164	C	0.242487	0.855598	0.259684
C165	C	0.216970	0.849878	0.316442
C166	C	0.242479	0.793125	0.322176
C167	C	0.293501	0.742100	0.271154
C168	C	0.773154	0.262483	-0.208515
C169	C	0.824189	0.211456	-0.259538
C170	C	0.849709	0.217177	-0.316296
C171	C	0.824197	0.273929	-0.322030
C172	C	0.773166	0.324955	-0.271007
C173	C	0.773129	0.324999	0.031293
C174	C	0.824159	0.273988	0.031285
C175	C	0.849684	0.217228	0.000036
C176	C	0.824181	0.211480	-0.031212
C177	C	0.773156	0.262492	-0.031207
C178	C	0.773113	0.564786	-0.208477
C179	C	0.824126	0.564799	-0.259494
C180	C	0.849648	0.533556	-0.316256
C181	C	0.824149	0.502302	-0.322001
C182	C	0.773133	0.502293	-0.270985
H183	H	0.314322	0.590179	-0.056614
C184	C	-0.147793	0.599160	-0.065531
C185	C	-0.154812	0.649845	-0.032029
C186	C	-0.126755	0.684214	-0.066394
C187	C	-0.091679	0.667898	-0.134262
C188	C	-0.084659	0.617210	-0.167767
C189	C	-0.112716	0.582841	-0.133402
H190	H	-0.180778	0.661926	0.018214
H191	H	-0.131951	0.721737	-0.041590
H192	H	-0.070910	0.693340	-0.159701
H193	H	-0.058693	0.605130	-0.218010
H194	H	-0.107519	0.545318	-0.158206
H195	H	0.844972	0.165260	-0.056653
H196	H	0.175449	0.891359	0.000083
H197	H	0.646683	-0.211567	-0.056595
H198	H	0.752382	0.476841	-0.275672
H199	H	0.844914	0.278679	0.056732
C200	C	0.905840	0.161045	-0.372418
C201	C	0.933861	0.098627	-0.366103
C202	C	0.989989	0.042493	-0.422222
C203	C	1.018096	0.048777	-0.484657
C204	C	0.990074	0.111197	-0.490975
C205	C	0.933946	0.167332	-0.434856
H206	H	0.913055	0.093973	-0.319882
H207	H	1.010732	-0.003715	-0.417545
H208	H	1.059645	0.007223	-0.526201
H209	H	1.010881	0.115851	-0.537196
H210	H	0.913203	0.213539	-0.439533
C211	C	0.852174	0.599174	-0.253165
C212	C	0.824106	0.633529	-0.190726
C213	C	0.852153	0.667902	-0.184396
C214	C	0.908267	0.667921	-0.240504
C215	C	0.936337	0.633565	-0.302948
C216	C	0.908291	0.599192	-0.309278
H217	H	0.782565	0.633516	-0.149187
H218	H	0.831373	0.693335	-0.138170
H219	H	0.929029	0.693367	-0.235818
H220	H	0.977879	0.633578	-0.344487
H221	H	0.929071	0.573759	-0.355503
C222	C	0.905808	0.161118	0.000039
C223	C	0.933848	0.167449	0.034414
C224	C	0.989969	0.111342	0.034422
C225	C	1.018050	0.048904	0.000055
C226	C	0.990009	0.042570	-0.034322
C227	C	0.933888	0.098677	-0.034330
H228	H	0.913062	0.213671	0.059857
H229	H	1.010727	0.116030	0.059871
H230	H	1.059594	0.007370	0.000061
H231	H	1.010795	-0.003652	-0.059765
H232	H	0.913130	0.093989	-0.059779
C233	C	0.214403	0.918014	0.065715
C234	C	0.221402	0.961686	0.032226
C235	C	0.193306	1.024127	0.066607
C236	C	0.158211	1.042897	0.134478
C237	C	0.151210	0.999224	0.167971
C238	C	0.179306	0.936783	0.133590
H239	H	0.247383	0.947793	-0.018020
H240	H	0.198488	1.056457	0.041813
H241	H	0.137412	1.089120	0.159929
H242	H	0.125229	1.013117	0.218217
H243	H	0.174124	0.904453	0.158384
C244	C	0.533326	0.396555	-0.553519
C245	C	0.592846	0.354639	-0.618362
C246	C	0.592839	0.306035	-0.646421
C247	C	0.533314	0.299349	-0.609636
C248	C	0.473791	0.341267	-0.544788
C249	C	0.473797	0.389870	-0.516730
H250	H	0.636914	0.359587	-0.645596
H251	H	0.636903	0.275005	-0.694426
H252	H	0.533310	0.263370	-0.630407
H253	H	0.429723	0.336318	-0.517555
H254	H	0.429733	0.420900	-0.468725
H255	H	0.314306	0.476821	0.056746
C256	C	0.745100	0.256162	-0.065569
C257	C	0.773176	0.193725	-0.099933
C258	C	0.745122	0.187390	-0.134296
C259	C	0.688992	0.243493	-0.134295
C260	C	0.660913	0.305934	-0.099929
C261	C	0.688967	0.312269	-0.065566
H262	H	0.814730	0.152191	-0.099935
H263	H	0.765909	0.141167	-0.159736
H264	H	0.668225	0.238804	-0.159733
H265	H	0.619359	0.347469	-0.099927
H266	H	0.668180	0.358493	-0.040126
C267	C	0.533342	0.440718	-0.318833
C268	C	0.473822	0.434025	-0.282049
C269	C	0.473821	0.385419	-0.310111
C270	C	0.533341	0.343507	-0.374956
C271	C	0.592865	0.350199	-0.411743
C272	C	0.592866	0.398804	-0.383682
H273	H	0.429758	0.465052	-0.234044
H274	H	0.429757	0.380465	-0.282878
H275	H	0.533340	0.307526	-0.395729
H276	H	0.636929	0.319171	-0.459749
H277	H	0.636930	0.403758	-0.410915
C278	C	0.533347	0.440714	-0.211693
C279	C	0.473823	0.458328	-0.146851
C280	C	0.473824	0.409728	-0.118792
C281	C	0.533349	0.343514	-0.155575
C282	C	0.592877	0.325897	-0.220420
C283	C	0.592876	0.374497	-0.248480
H284	H	0.429756	0.507346	-0.119619
H285	H	0.429757	0.422769	-0.070789
H286	H	0.533349	0.307537	-0.134803
H287	H	0.636945	0.276879	-0.247653
H288	H	0.636943	0.361456	-0.296483
C289	C	0.533281	0.670520	-0.446326
C290	C	0.592791	0.652926	-0.441000
C291	C	0.592774	0.701541	-0.412932
C292	C	0.533248	0.767751	-0.390188
C293	C	0.473734	0.785348	-0.395513
C294	C	0.473751	0.736733	-0.423582
H295	H	0.636860	0.603911	-0.457837
H296	H	0.636831	0.688514	-0.408990
H297	H	0.533235	0.803739	-0.369410
H298	H	0.429665	0.834363	-0.378677
H299	H	0.429694	0.749760	-0.427524
C300	C	0.321543	0.810892	0.065727
C301	C	0.293457	0.873330	0.100101
C302	C	0.321486	0.879664	0.134489
C303	C	0.377600	0.823562	0.134504
C304	C	0.405688	0.761120	0.100129
C305	C	0.377660	0.754786	0.065740
H306	H	0.251916	0.914864	0.100091
H307	H	0.300692	0.925888	0.159936
H308	H	0.398348	0.828251	0.159960
H309	H	0.447230	0.719586	0.100138
H310	H	0.398453	0.708562	0.040294
C311	C	0.321579	0.467902	0.146211
C312	C	0.377691	0.467898	0.090077
C313	C	0.405733	0.433530	0.027651
C314	C	0.377663	0.399167	0.021359
C315	C	0.321547	0.399170	0.077494
C316	C	0.293505	0.433538	0.139920
H317	H	0.398473	0.493337	0.094733
H318	H	0.447273	0.433528	-0.013904
H319	H	0.398421	0.373726	-0.024852
H320	H	0.300765	0.373731	0.072838
H321	H	0.251965	0.433540	0.181476
H322	H	0.314311	0.695843	-0.056604
H323	H	0.891189	0.533568	-0.357792
H324	H	-0.155106	0.476866	0.056757
C325	C	0.745060	0.387431	0.065667
C326	C	0.688934	0.443551	0.065682
C327	C	0.660872	0.505980	0.100056
C328	C	0.688936	0.512291	0.134416
C329	C	0.745066	0.456170	0.134403
C330	C	0.773128	0.393740	0.100029
H331	H	0.668157	0.438881	0.040245
H332	H	0.619321	0.547525	0.100066
H333	H	0.668163	0.558506	0.159862
H334	H	0.765843	0.460840	0.159840
H335	H	0.814679	0.352196	0.100019
H336	H	0.221739	0.476827	0.255009
H337	H	0.221752	0.590213	0.368358
H338	H	0.752340	0.590228	-0.162263
H339	H	0.752378	0.257814	-0.162305
C340	C	0.852239	0.149035	-0.253221
C341	C	0.887288	0.130293	-0.220413
C342	C	0.915335	0.067873	-0.214094
C343	C	0.908333	0.024196	-0.240583
C344	C	0.873283	0.042937	-0.273393
C345	C	0.845236	0.105356	-0.279712
H346	H	0.892473	0.162626	-0.200802
H347	H	0.941282	0.054000	-0.189805
H348	H	0.929095	-0.022011	-0.235905
H349	H	0.868098	0.010603	-0.293004
H350	H	0.819289	0.119229	-0.304001
H351	H	0.844937	0.476865	-0.368224
C352	C	0.160884	0.533524	0.372553
C353	C	0.090729	0.558431	0.383445
C354	C	0.034605	0.558442	0.439580
C355	C	0.048637	0.533548	0.484822
C356	C	0.118795	0.508639	0.473932
C357	C	0.174919	0.508627	0.417797
H358	H	0.080340	0.576861	0.349953
H359	H	-0.017330	0.576881	0.447642
H360	H	0.007090	0.533556	0.526377
H361	H	0.129184	0.490209	0.507424
H362	H	0.226855	0.490188	0.409735
C363	C	0.533307	0.626335	-0.681016
C364	C	0.592824	0.608734	-0.675700
C365	C	0.592814	0.657344	-0.647632
C366	C	0.533288	0.723555	-0.624879
C367	C	0.473766	0.741159	-0.630195
C368	C	0.473775	0.692549	-0.658264
H369	H	0.636893	0.559717	-0.692543
H370	H	0.636876	0.644311	-0.643697
H371	H	0.533280	0.759539	-0.604101
H372	H	0.429697	0.790175	-0.613352
H373	H	0.429713	0.705581	-0.662199
H374	H	0.221756	0.590202	-0.056605
C375	C	0.533297	0.626343	-0.788153
C376	C	0.473779	0.668235	-0.793473
C377	C	0.473762	0.716845	-0.821522
C378	C	0.533264	0.723563	-0.844250
C379	C	0.592786	0.681669	-0.838931
C380	C	0.592803	0.633059	-0.810882
H381	H	0.429729	0.663263	-0.776648
H382	H	0.429699	0.747858	-0.825459
H383	H	0.533251	0.759547	-0.865013
H384	H	0.636837	0.686641	-0.855756
H385	H	0.636866	0.602047	-0.806945
H386	H	0.079616	0.621452	-0.087844
H387	H	-0.012939	0.621464	-0.087840
H388	H	0.221695	0.788476	0.368395
C389	C	0.214430	0.918020	0.253367
C390	C	0.137265	0.961686	0.279853
C391	C	0.109210	1.024105	0.273533
C392	C	0.158318	1.042858	0.240727
C393	C	0.235488	0.999191	0.214238
C394	C	0.263543	0.936772	0.220558
H395	H	0.100908	0.947805	0.304140
H396	H	0.052084	1.056431	0.293142
H397	H	0.137550	1.089065	0.236049
H398	H	0.271845	1.013072	0.189951
H399	H	0.320669	0.904446	0.200950
C400	C	0.727041	-0.116884	-0.096758
C401	C	0.778616	-0.135659	-0.164624
C402	C	0.847366	-0.198078	-0.198978
C403	C	0.864541	-0.241722	-0.165465
C404	C	0.812965	-0.222948	-0.097595
C405	C	0.744215	-0.160529	-0.063242
H406	H	0.765902	-0.103350	-0.189435
H407	H	0.885546	-0.211976	-0.249219
H408	H	0.915434	-0.287929	-0.190896
H409	H	0.825678	-0.255257	-0.072784
H410	H	0.706035	-0.146631	-0.013000
H411	H	0.533326	0.453376	-0.780908
C412	C	0.321544	0.679680	0.277468
C413	C	0.293465	0.673395	0.339903
C414	C	0.321505	0.610975	0.346223
C415	C	0.377623	0.554841	0.290108
C416	C	0.405705	0.561125	0.227669
C417	C	0.377665	0.623544	0.221349
H418	H	0.251920	0.714950	0.381446
H419	H	0.300716	0.606324	0.392445
H420	H	0.398380	0.508635	0.294786
H421	H	0.447250	0.519569	0.186126
H422	H	0.398454	0.628195	0.175127
C423	C	0.852270	0.280214	-0.384467
C424	C	0.803174	0.312983	-0.403234
C425	C	0.831245	0.319265	-0.465672
C426	C	0.908411	0.292779	-0.509344
C427	C	0.957512	0.260008	-0.490578
C428	C	0.929441	0.253726	-0.428140
H429	H	0.746046	0.332592	-0.370904
H430	H	0.794896	0.343525	-0.479564
H431	H	0.929191	0.297430	-0.555565
H432	H	1.014640	0.240400	-0.522908
H433	H	0.965789	0.229467	-0.414248
C434	C	-0.020263	0.436704	0.096943
C435	C	-0.055335	0.453030	0.164810
C436	C	-0.083395	0.418667	0.199187
C437	C	-0.076383	0.367978	0.165697
C438	C	-0.041309	0.351650	0.097826
C439	C	-0.013249	0.386012	0.063449
H440	H	-0.060528	0.490555	0.189605
H441	H	-0.109359	0.430754	0.249430
H442	H	-0.097154	0.342541	0.191145
H443	H	-0.036116	0.314125	0.073032
H444	H	0.012715	0.373925	0.013206
H445	H	0.752396	0.371159	-0.275684
H446	H	-0.247650	0.590235	-0.056603
H447	H	0.709184	-0.008121	-0.087836
H448	H	0.314295	0.590212	0.275796
C449	C	0.086873	0.436698	0.096937
C450	C	0.037763	0.453016	0.164805
C451	C	0.065816	0.418647	0.199171
C452	C	0.142979	0.367959	0.165669
C453	C	0.192094	0.351638	0.097797
C454	C	0.164040	0.386007	0.063431
H455	H	-0.019362	0.490541	0.189608
H456	H	0.029458	0.430729	0.249414
H457	H	0.163746	0.342517	0.191109
H458	H	0.249219	0.314114	0.072994
H459	H	0.200398	0.373925	0.013188
H460	H	-0.247648	0.476865	0.056747
H461	H	0.221739	0.476824	0.056747
C462	C	0.402109	0.280267	0.065683
C463	C	0.384922	0.253781	0.032189
C464	C	0.316177	0.260103	0.066561
C465	C	0.264618	0.292913	0.134428
C466	C	0.281803	0.319401	0.167926
C467	C	0.350549	0.313079	0.133553
H468	H	0.423090	0.229491	-0.018054
H469	H	0.303455	0.240494	0.041763
H470	H	0.213729	0.297593	0.159873
H471	H	0.243635	0.343691	0.218168
H472	H	0.363270	0.332688	0.158351
C473	C	0.533339	0.626295	-0.211665
C474	C	0.473815	0.692507	-0.188913
C475	C	0.473811	0.741115	-0.160848
C476	C	0.533330	0.723511	-0.155535
C477	C	0.592859	0.657296	-0.178287
C478	C	0.592864	0.608688	-0.206352
H479	H	0.429751	0.705542	-0.192846
H480	H	0.429743	0.790132	-0.144006
H481	H	0.533327	0.759493	-0.134760
H482	H	0.636923	0.644261	-0.174355
H483	H	0.636931	0.559671	-0.223195
C484	C	0.214465	0.786736	-0.065528
C485	C	0.242533	0.724299	-0.099886
C486	C	0.214484	0.717966	-0.134254
C487	C	0.158367	0.774070	-0.134265
C488	C	0.130296	0.836511	-0.099906
C489	C	0.158345	0.842844	-0.065537
H490	H	0.284077	0.682764	-0.099879
H491	H	0.235264	0.671743	-0.159689
H492	H	0.137603	0.769382	-0.159707
H493	H	0.088752	0.878046	-0.099913
H494	H	0.137565	0.889067	-0.040102
H495	H	0.357468	0.167739	0.088010
H496	H	0.419978	0.371173	0.056738
H497	H	0.357461	0.075198	0.088026
H498	H	0.314275	0.809241	0.162451
H499	H	0.419933	-0.190743	0.056787
C500	C	0.402080	-0.081961	0.065717
C501	C	0.350531	-0.063209	0.049405
C502	C	0.281791	-0.000782	0.083781
C503	C	0.264599	0.042892	0.134468
C504	C	0.316149	0.024140	0.150782
C505	C	0.384889	-0.038286	0.116406
H506	H	0.363256	-0.095540	0.011881
H507	H	0.243631	0.013099	0.071704
H508	H	0.213714	0.089104	0.159914
H509	H	0.303424	0.056471	0.188305
H510	H	0.423050	-0.052167	0.128483
C511	C	0.664563	0.149013	-0.065570
C512	C	0.716107	0.130243	-0.133441
C513	C	0.784838	0.067810	-0.167820
C514	C	0.802024	0.024147	-0.134327
C515	C	0.750479	0.042916	-0.066451
C516	C	0.681748	0.105349	-0.032073
H517	H	0.703386	0.162567	-0.158238
H518	H	0.822995	0.053916	-0.218065
H519	H	0.852903	-0.022070	-0.159775
H520	H	0.763200	0.010592	-0.041654
H521	H	0.643591	0.119243	0.018172
H522	H	0.646674	-0.304110	-0.056600
H523	H	0.533316	0.453372	-0.688353
H524	H	0.646716	0.257800	-0.056643
H525	H	0.533323	0.613684	-0.311500
H526	H	0.175424	0.891431	0.357983
H527	H	0.533332	0.409173	-0.453681
H528	H	0.533277	0.657899	-0.546167
