data_functionalizedCrystal
_audit_creation_method	'MofGen! by Chris Wilmer'
_symmetry_space_group_name_H-M	'P1'
_symmetry_Int_Tables_number	1
_symmetry_cell_setting	triclinic
loop_
_symmetry_equiv_pos_as_xyz
  x,y,z
_cell_length_a	14.044220
_cell_length_b	10.723024
_cell_length_c	12.503572
_cell_angle_alpha	93.551581
_cell_angle_beta	93.843168
_cell_angle_gamma	91.171627
loop_
_atom_site_label
_atom_site_type_symbol
_atom_site_fract_x
_atom_site_fract_y
_atom_site_fract_z
O1	O	0.127601	-1.677089	-0.089317
O2	O	0.140336	-1.315211	-0.089321
O3	O	-0.004051	-1.490717	-0.089308
O4	O	0.271988	-1.501582	-0.089329
O5	O	0.006826	-1.477520	0.089333
O6	O	0.151213	-1.302014	0.089320
O7	O	0.138478	-1.663892	0.089324
Cu8	Cu	0.145839	-1.481748	0.105634
Cu9	Cu	0.132975	-1.497355	-0.105630
O10	O	0.282865	-1.488385	0.089312
C11	C	0.144847	-1.262020	-0.000001
C12	C	0.142075	-1.123188	-0.000002
C13	C	-0.033958	-1.479363	0.000013
C14	C	-0.139276	-1.465179	0.000014
C15	C	0.133966	-1.717083	0.000002
C16	C	0.136739	-1.855915	-0.000004
C17	C	-0.332107	-1.439248	-0.000002
C18	C	-0.389086	-1.539850	-0.000004
C19	C	-0.496383	-1.525421	-0.000013
C20	C	-0.224799	-1.453674	0.000007
C21	C	0.312771	-1.499739	-0.000012
C22	C	0.418089	-1.513924	-0.000020
N23	N	0.154885	-1.470779	0.254225
C24	C	0.222866	-1.056289	-0.000009
C25	C	0.220002	-0.912799	-0.000010
N26	N	0.123921	-1.508332	-0.254222
C27	C	0.168201	-1.454646	0.473339
C28	C	0.110608	-1.524462	0.526671
C29	C	0.118018	-1.515485	0.648594
C30	C	0.160793	-1.463621	0.351406
H31	H	-0.357288	-1.636819	-0.000075
O32	O	0.233640	-1.375411	0.528263
C33	C	0.226553	-1.383968	0.639531
H34	H	0.192566	-1.478121	0.654743
H35	H	0.180504	-1.305566	0.671462
C36	C	0.368669	-1.256397	0.678710
C37	C	0.326934	-1.372043	0.697394
H38	H	0.430588	-1.249036	0.714404
H39	H	0.373443	-1.250628	0.603746
H40	H	0.330285	-1.191075	0.705319
H41	H	0.365311	-1.437362	0.670773
H42	H	0.322169	-1.377823	0.772355
O43	O	-0.370190	-1.323663	0.000049
C44	C	-0.470398	-1.334811	0.000017
H45	H	-0.490820	-1.427227	0.033828
H46	H	-0.503201	-1.332076	-0.085687
C47	C	-0.482878	-1.112335	0.028553
C48	C	-0.507960	-1.225838	0.070089
H49	H	-0.506050	-1.045114	0.071772
H50	H	-0.415366	-1.104823	0.028571
H51	H	-0.510215	-1.110074	-0.042866
H52	H	-0.480613	-1.228104	0.141501
H53	H	-0.575468	-1.233348	0.070085
H54	H	0.294154	-1.105243	-0.000008
H55	H	0.289165	-0.855287	-0.000020
O56	O	0.054273	-0.924653	-0.000141
C57	C	0.045042	-1.007237	-0.092675
H58	H	0.118514	-1.024360	-0.123527
H59	H	-0.002549	-0.964420	-0.157457
C60	C	-0.090239	-1.111125	-0.026677
C61	C	0.000002	-1.132164	-0.064564
H62	H	-0.118026	-1.188184	-0.009339
H63	H	-0.084023	-1.055484	0.035664
H64	H	-0.129887	-1.075441	-0.080668
H65	H	0.039651	-1.167832	-0.010568
H66	H	-0.006209	-1.187814	-0.126895
O67	O	0.057011	-1.064841	0.000193
C68	C	0.010723	-1.093023	0.092701
H69	H	0.065845	-1.121113	0.157365
H70	H	-0.042936	-1.173482	0.071786
C71	C	-0.109518	-0.942675	0.055232
C72	C	-0.041815	-0.977166	0.134657
H73	H	-0.141931	-0.871212	0.081111
H74	H	-0.078336	-0.923691	-0.007095
H75	H	-0.154225	-1.009734	0.037810
H76	H	0.002896	-0.910114	0.152068
H77	H	-0.072992	-0.996136	0.196989
O78	O	0.045055	-1.603547	0.471746
C79	C	0.052011	-1.594820	0.360476
H80	H	0.126314	-1.558138	0.345176
H81	H	-0.003769	-1.528078	0.328749
C82	C	-0.056673	-1.770049	0.321248
C83	C	0.034590	-1.725006	0.302456
H84	H	-0.067423	-1.850351	0.285456
H85	H	-0.061362	-1.775926	0.396213
H86	H	-0.103146	-1.714419	0.294808
H87	H	0.081062	-1.780626	0.328907
H88	H	0.039287	-1.719141	0.227494
