data_functionalizedCrystal
_audit_creation_method	'MofGen! by Chris Wilmer'
_symmetry_space_group_name_H-M	'P1'
_symmetry_Int_Tables_number	1
_symmetry_cell_setting	triclinic
loop_
_symmetry_equiv_pos_as_xyz
  x,y,z
_cell_length_a	17.019383
_cell_length_b	17.038272
_cell_length_c	14.421503
_cell_angle_alpha	90.004327
_cell_angle_beta	86.116405
_cell_angle_gamma	87.246883
loop_
_atom_site_label
_atom_site_type_symbol
_atom_site_fract_x
_atom_site_fract_y
_atom_site_fract_z
O1	O	1.053363	0.099636	-0.161143
O2	O	0.824551	0.112327	-0.142892
O3	O	0.937597	-0.007832	-0.151902
O4	O	0.940317	0.219796	-0.152133
O5	O	0.937578	-0.007815	0.002323
O6	O	0.824532	0.112345	0.011333
O7	O	1.053344	0.099654	-0.006918
Cu8	Cu	0.938936	0.106001	0.016289
Cu9	Cu	0.938959	0.105980	-0.166100
O10	O	0.940298	0.219814	0.002091
C11	C	0.795120	0.111853	-0.063433
C12	C	0.707454	0.110405	-0.056440
C13	C	0.935114	-0.036950	-0.074592
C14	C	0.927734	-0.123737	-0.074004
C15	C	0.666271	0.109717	-0.137216
C16	C	0.583898	0.108369	-0.130631
C17	C	0.542709	0.107703	-0.043270
C18	C	0.583898	0.108394	0.037511
C19	C	0.666269	0.109748	0.030926
C20	C	0.294001	0.103621	-0.019182
C21	C	0.211624	0.102265	-0.012603
C22	C	0.211630	0.102241	-0.180746
C23	C	0.294003	0.103590	-0.187324
C24	C	0.335184	0.104285	-0.106542
C25	C	0.458511	0.106322	-0.036538
C26	C	0.419380	0.105671	-0.113275
C27	C	0.995493	-0.173906	-0.079408
C28	C	0.988554	-0.255451	-0.078863
C29	C	0.913854	-0.286825	-0.072908
C30	C	0.846089	-0.236649	-0.067506
C31	C	0.853029	-0.155106	-0.068057
C32	C	0.889337	-0.532563	-0.070965
C33	C	0.882402	-0.614112	-0.070411
C34	C	1.024867	-0.632909	-0.081769
C35	C	1.031800	-0.551363	-0.082315
C36	C	0.964036	-0.501194	-0.076918
C37	C	0.906759	-0.370177	-0.072348
C38	C	0.971131	-0.417844	-0.077485
C39	C	1.082775	0.100128	-0.086380
C40	C	1.170441	0.101576	-0.093379
C41	C	0.942781	0.248931	-0.075220
C42	C	0.950161	0.335718	-0.075815
N43	N	0.938926	0.106016	0.144571
N44	N	0.938974	0.105960	-0.294382
C45	C	0.886642	0.161553	0.398392
C46	C	0.958934	0.176650	0.454427
C47	C	0.938944	0.105997	0.333731
C48	C	0.866672	0.090918	0.461788
C49	C	0.938955	0.105981	0.516452
C50	C	1.011275	0.121130	0.388403
C51	C	0.918963	0.035367	0.395762
C52	C	0.991305	0.050434	0.451766
C53	C	0.938937	0.106008	0.228471
C54	C	0.938971	0.105969	0.621710
H55	H	0.699800	0.110256	-0.208354
H56	H	0.805548	0.078171	0.493835
H57	H	1.035591	0.003443	0.475164
C58	C	0.166328	0.101484	-0.269601
C59	C	0.182050	0.033809	-0.340211
C60	C	0.136749	0.033055	-0.429070
C61	C	0.075725	0.099977	-0.447320
C62	C	0.060000	0.167658	-0.376709
C63	C	0.105301	0.168412	-0.287849
H64	H	0.227227	-0.015736	-0.326703
H65	H	0.148390	-0.017047	-0.481341
H66	H	0.042190	0.099419	-0.513099
H67	H	0.014824	0.217202	-0.390216
H68	H	0.093660	0.218514	-0.235578
H69	H	0.975845	0.236373	0.480247
C70	C	1.077665	-0.139398	-0.085959
C71	C	1.102020	-0.085923	-0.007815
C72	C	1.184194	-0.051418	-0.014370
C73	C	1.242013	-0.070388	-0.099068
C74	C	1.217660	-0.123866	-0.177218
C75	C	1.135486	-0.158371	-0.170663
H76	H	1.059218	-0.071877	0.054889
H77	H	1.202222	-0.011830	0.043482
H78	H	1.302843	-0.044845	-0.103921
H79	H	1.260462	-0.137912	-0.239922
H80	H	1.117458	-0.197959	-0.228515
H81	H	0.785267	-0.262200	-0.062663
C82	C	0.538600	0.107613	-0.219490
C83	C	0.554322	0.039934	-0.290096
C84	C	0.509027	0.039182	-0.378960
C85	C	0.448010	0.106107	-0.397218
C86	C	0.432285	0.173791	-0.326610
C87	C	0.477580	0.174544	-0.237746
H88	H	0.599494	-0.009613	-0.276582
H89	H	0.520668	-0.010923	-0.431228
H90	H	0.414479	0.105550	-0.463000
H91	H	0.387113	0.223338	-0.340124
H92	H	0.465939	0.224648	-0.185477
C93	C	0.413199	0.105583	0.059556
C94	C	0.352170	0.172508	0.087544
C95	C	0.306854	0.171771	0.183637
C96	C	0.322566	0.104108	0.251742
C97	C	0.383598	0.037177	0.223755
C98	C	0.428914	0.037915	0.127662
H99	H	0.340536	0.222601	0.037128
H100	H	0.261674	0.221317	0.204355
H101	H	0.289020	0.103561	0.322876
H102	H	0.395232	-0.012916	0.274171
H103	H	0.474094	-0.011632	0.106945
C104	C	0.896092	-0.045288	0.360845
C105	C	0.876691	-0.110981	0.430842
C106	C	0.853809	-0.191635	0.395923
C107	C	0.850327	-0.206597	0.291006
C108	C	0.869728	-0.140903	0.221002
C109	C	0.892611	-0.060248	0.255921
H110	H	0.879268	-0.099907	0.508514
H111	H	0.839446	-0.240267	0.447746
H112	H	0.833388	-0.266302	0.265157
H113	H	0.867151	-0.151977	0.143330
H114	H	0.906973	-0.011617	0.204099
C115	C	0.538592	0.107662	0.133610
C116	C	0.477562	0.174585	0.161602
C117	C	0.432257	0.173850	0.257702
C118	C	0.447982	0.106192	0.325809
C119	C	0.509014	0.039264	0.297818
C120	C	0.554319	0.039999	0.201718
H121	H	0.465919	0.224674	0.111184
H122	H	0.387076	0.223395	0.278423
H123	H	0.414444	0.105648	0.396948
H124	H	0.520657	-0.010825	0.348236
H125	H	0.599500	-0.009547	0.180998
H126	H	0.797852	-0.114258	-0.063657
C127	C	0.824593	-0.404696	-0.065791
C128	C	0.766770	-0.385738	0.018908
C129	C	0.684605	-0.420262	0.025462
C130	C	0.660262	-0.473744	-0.052683
C131	C	0.718086	-0.492704	-0.137388
C132	C	0.800252	-0.458180	-0.143941
H133	H	0.784788	-0.346145	0.076761
H134	H	0.641799	-0.406226	0.088166
H135	H	0.599439	-0.499300	-0.047832
H136	H	0.700068	-0.532297	-0.195241
H137	H	0.843057	-0.472216	-0.206646
H138	H	0.842463	0.208572	0.374815
C139	C	1.053299	-0.383335	-0.084034
C140	C	1.077638	-0.329854	-0.005887
C141	C	1.159806	-0.295336	-0.012431
C142	C	1.217635	-0.314300	-0.097122
C143	C	1.193298	-0.367784	-0.175275
C144	C	1.111129	-0.402301	-0.168731
H145	H	1.034828	-0.315814	0.056812
H146	H	1.177822	-0.255744	0.045423
H147	H	1.278461	-0.288748	-0.101967
H148	H	1.236107	-0.381824	-0.237974
H149	H	1.093113	-0.441894	-0.226585
H150	H	0.327521	0.104181	0.046597
C151	C	1.099404	-0.688095	-0.087716
C152	C	1.114218	-0.746739	-0.008819
C153	C	1.188759	-0.801925	-0.014771
C154	C	1.248486	-0.798469	-0.099620
C155	C	1.233674	-0.739824	-0.178524
C156	C	1.159133	-0.684637	-0.172572
H157	H	1.070003	-0.749299	0.053997
H158	H	1.199723	-0.845339	0.043640
H159	H	1.303666	-0.839322	-0.104026
H160	H	1.277889	-0.737263	-0.241340
H161	H	1.148169	-0.641224	-0.230982
C162	C	0.711577	0.110505	0.119778
C163	C	0.763805	0.179297	0.138711
C164	C	0.809113	0.180060	0.227565
C165	C	0.802194	0.112030	0.297485
C166	C	0.749965	0.043233	0.278554
C167	C	0.704656	0.042470	0.189701
H168	H	0.768928	0.229661	0.086950
H169	H	0.847777	0.230988	0.241578
H170	H	0.835734	0.112595	0.363260
H171	H	0.744841	-0.007131	0.330316
H172	H	0.665992	-0.008459	0.175687
H173	H	0.327533	0.104127	-0.258462
H174	H	0.178090	0.101745	0.058541
C175	C	1.113974	-0.516860	-0.088872
C176	C	1.138331	-0.463385	-0.010728
C177	C	1.220507	-0.428885	-0.017281
C178	C	1.278326	-0.447858	-0.101978
C179	C	1.253971	-0.501335	-0.180128
C180	C	1.171795	-0.535836	-0.173575
H181	H	1.095529	-0.449338	0.051976
H182	H	1.238536	-0.389297	0.040571
H183	H	1.339158	-0.422319	-0.106829
H184	H	1.296773	-0.515383	-0.242832
H185	H	1.153766	-0.575423	-0.231427
H186	H	1.043732	-0.296296	-0.083261
C187	C	0.800230	-0.648632	-0.063879
C188	C	0.775851	-0.702106	0.018141
C189	C	0.693686	-0.736630	0.024669
C190	C	0.635899	-0.717681	-0.050823
C191	C	0.660277	-0.664204	-0.132849
C192	C	0.742442	-0.629680	-0.139377
H193	H	0.818630	-0.716137	0.074030
H194	H	0.675641	-0.776218	0.085390
H195	H	0.575076	-0.743237	-0.045991
H196	H	0.617498	-0.650173	-0.188738
H197	H	0.760487	-0.590092	-0.200098
H198	H	0.452919	0.106218	-0.184404
H199	H	0.834157	-0.491725	-0.066570
H200	H	1.072417	0.133948	0.356471
