data_functionalizedCrystal
_audit_creation_method	'MofGen! by Chris Wilmer'
_symmetry_space_group_name_H-M	'P1'
_symmetry_Int_Tables_number	1
_symmetry_cell_setting	triclinic
loop_
_symmetry_equiv_pos_as_xyz
  x,y,z
_cell_length_a	14.044220
_cell_length_b	10.723024
_cell_length_c	13.101018
_cell_angle_alpha	86.607993
_cell_angle_beta	86.331207
_cell_angle_gamma	91.171627
loop_
_atom_site_label
_atom_site_type_symbol
_atom_site_fract_x
_atom_site_fract_y
_atom_site_fract_z
O1	O	1.264843	-0.294748	-0.085208
O2	O	1.514843	-0.044748	0.164792
O3	O	1.764843	0.205252	0.414792
O4	O	2.014843	0.455252	0.664792
O5	O	0.988804	-0.283884	-0.085210
O6	O	1.238804	-0.033884	0.164790
O7	O	1.488804	0.216116	0.414790
O8	O	1.738804	0.466116	0.664790
O9	O	1.133190	-0.108377	-0.085205
O10	O	1.383190	0.141623	0.164795
O11	O	1.633190	0.391623	0.414795
O12	O	1.883190	0.641623	0.664795
O13	O	1.120456	-0.470255	-0.085213
O14	O	1.370456	-0.220255	0.164787
O15	O	1.620456	0.029745	0.414787
O16	O	1.870456	0.279745	0.664787
O17	O	1.122819	-0.120980	0.085225
O18	O	1.372819	0.129020	0.335225
O19	O	1.622819	0.379020	0.585225
O20	O	1.872819	0.629020	0.835225
O21	O	0.978432	-0.296487	0.085220
O22	O	1.228432	-0.046487	0.335220
O23	O	1.478432	0.203513	0.585220
O24	O	1.728432	0.453513	0.835220
O25	O	1.254472	-0.307351	0.085222
O26	O	1.504472	-0.057351	0.335222
O27	O	1.754472	0.192649	0.585222
O28	O	2.004472	0.442649	0.835222
Zn29	Zn	1.114805	-0.303920	0.112280
Zn30	Zn	1.364805	-0.053920	0.362280
Zn31	Zn	1.614805	0.196080	0.612280
Zn32	Zn	1.864805	0.446080	0.862280
Zn33	Zn	1.128470	-0.287315	-0.112269
Zn34	Zn	1.378470	-0.037315	0.137731
Zn35	Zn	1.628470	0.212685	0.387731
Zn36	Zn	1.878470	0.462685	0.637731
O37	O	1.110085	-0.482858	0.085217
O38	O	1.360085	-0.232858	0.335217
O39	O	1.610085	0.017142	0.585217
O40	O	1.860085	0.267142	0.835217
C41	C	0.948273	-0.285430	0.000004
C42	C	1.198273	-0.035430	0.250004
C43	C	1.448273	0.214570	0.500004
C44	C	1.698273	0.464570	0.750004
C45	C	0.842955	-0.271246	0.000003
C46	C	1.092955	-0.021246	0.250003
C47	C	1.342955	0.228754	0.500003
C48	C	1.592955	0.478754	0.750003
C49	C	1.295003	-0.305805	0.000005
C50	C	1.545003	-0.055805	0.250005
C51	C	1.795003	0.194195	0.500005
C52	C	2.045003	0.444195	0.750005
C53	C	1.400321	-0.319989	-0.000000
C54	C	1.650321	-0.069989	0.250000
C55	C	1.900321	0.180011	0.500000
C56	C	2.150321	0.430011	0.750000
C57	C	1.127078	-0.068086	0.000009
C58	C	1.377078	0.181914	0.250009
C59	C	1.627078	0.431914	0.500009
C60	C	1.877078	0.681914	0.750009
C61	C	1.124306	0.070746	0.000005
C62	C	1.374306	0.320746	0.250005
C63	C	1.624306	0.570746	0.500005
C64	C	1.874306	0.820746	0.750005
C65	C	1.593151	-0.345921	0.000000
C66	C	1.843151	-0.095921	0.250000
C67	C	2.093151	0.154079	0.500000
C68	C	2.343151	0.404079	0.750000
C69	C	1.650130	-0.245319	0.000003
C70	C	1.900130	0.004681	0.250003
C71	C	2.150130	0.254681	0.500003
C72	C	2.400130	0.504681	0.750003
C73	C	1.757427	-0.259748	0.000003
C74	C	2.007427	-0.009748	0.250003
C75	C	2.257427	0.240252	0.500003
C76	C	2.507427	0.490252	0.750003
C77	C	1.485844	-0.331494	-0.000000
C78	C	1.735844	-0.081494	0.250000
C79	C	1.985844	0.168506	0.500000
C80	C	2.235844	0.418506	0.750000
C81	C	1.116197	-0.523149	0.000001
C82	C	1.366197	-0.273149	0.250001
C83	C	1.616197	-0.023149	0.500001
C84	C	1.866197	0.226851	0.750001
C85	C	1.118970	-0.661980	-0.000002
C86	C	1.368970	-0.411980	0.249998
C87	C	1.618970	-0.161980	0.499998
C88	C	1.868970	0.088020	0.749998
N89	N	1.105486	-0.315253	0.265529
N90	N	1.355486	-0.065253	0.515529
N91	N	1.605486	0.184747	0.765529
N92	N	1.855486	0.434747	1.015529
C93	C	1.205097	0.137646	0.000004
C94	C	1.455097	0.387646	0.250004
C95	C	1.705097	0.637646	0.500004
C96	C	1.955097	0.887646	0.750004
C97	C	1.202234	0.281136	0.000001
C98	C	1.452234	0.531136	0.250001
C99	C	1.702234	0.781136	0.500001
C100	C	1.952234	1.031136	0.750001
N101	N	1.137797	-0.275973	-0.265517
N102	N	1.387797	-0.025973	-0.015517
N103	N	1.637797	0.224027	0.234483
N104	N	1.887797	0.474027	0.484483
C105	C	1.150471	-0.260549	0.525440
C106	C	1.400471	-0.010549	0.775440
C107	C	1.650471	0.239451	1.025440
C108	C	1.900471	0.489451	1.275440
C109	C	1.092815	-0.330673	0.474565
C110	C	1.342815	-0.080673	0.724565
C111	C	1.592815	0.169327	0.974565
C112	C	1.842815	0.419327	1.224565
C113	C	1.099867	-0.322091	0.358247
C114	C	1.349867	-0.072091	0.608247
C115	C	1.599867	0.177909	0.858247
C116	C	1.849867	0.427909	1.108247
C117	C	1.143420	-0.269130	0.641769
C118	C	1.393420	-0.019130	0.891769
C119	C	1.643420	0.230870	1.141769
C120	C	1.893420	0.480870	1.391769
H121	H	1.624951	-0.442877	-0.000003
H122	H	1.874951	-0.192877	0.249997
H123	H	2.124951	0.057123	0.499997
H124	H	2.374951	0.307123	0.749997
N125	N	1.027347	0.261855	-0.000010
N126	N	1.277347	0.511855	0.249990
N127	N	1.527347	0.761855	0.499990
N128	N	1.777347	1.011855	0.749990
H129	H	0.971388	0.319538	-0.000014
H130	H	1.221388	0.569538	0.249986
H131	H	1.471388	0.819538	0.499986
H132	H	1.721388	1.069538	0.749986
H133	H	1.020873	0.202833	0.063172
H134	H	1.270873	0.452833	0.313172
H135	H	1.520873	0.702833	0.563172
H136	H	1.770873	0.952833	0.813172
H137	H	1.276385	0.088691	0.000011
H138	H	1.526385	0.338691	0.250011
H139	H	1.776385	0.588691	0.500011
H140	H	2.026385	0.838691	0.750011
N141	N	1.020415	-0.418736	0.532576
N142	N	1.270415	-0.168736	0.782576
N143	N	1.520415	0.081264	1.032576
N144	N	1.770415	0.331264	1.282576
H145	H	1.025575	-0.412467	0.608652
H146	H	1.275575	-0.162467	0.858652
H147	H	1.525575	0.087533	1.108652
H148	H	1.775575	0.337533	1.358652
H149	H	1.033109	-0.507181	0.513884
H150	H	1.283109	-0.257181	0.763884
H151	H	1.533109	-0.007181	1.013884
H152	H	1.783109	0.242819	1.263884
H153	H	1.618333	-0.148349	-0.000070
H154	H	1.868333	0.101651	0.249930
H155	H	2.118333	0.351651	0.499930
H156	H	2.368333	0.601651	0.749930
H157	H	1.053017	0.119701	-0.000002
H158	H	1.303017	0.369701	0.249998
H159	H	1.553017	0.619701	0.499998
H160	H	1.803017	0.869701	0.749998
N161	N	1.293855	0.357303	0.000011
N162	N	1.543855	0.607303	0.250011
N163	N	1.793855	0.857303	0.500011
N164	N	2.043855	1.107303	0.750011
H165	H	1.278822	0.449010	0.000011
H166	H	1.528822	0.699010	0.250011
H167	H	1.778822	0.949010	0.500011
H168	H	2.028822	1.199010	0.750011
H169	H	1.335872	0.341537	-0.063167
H170	H	1.585872	0.591537	0.186833
H171	H	1.835872	0.841537	0.436833
H172	H	2.085872	1.091537	0.686833
H173	H	1.205124	-0.194075	0.481642
H174	H	1.455124	0.055925	0.731642
H175	H	1.705124	0.305925	0.981642
H176	H	1.955124	0.555925	1.231642
