data_functionalizedCrystal
_audit_creation_method	'MofGen! by Chris Wilmer'
_symmetry_space_group_name_H-M	'P1'
_symmetry_Int_Tables_number	1
_symmetry_cell_setting	triclinic
loop_
_symmetry_equiv_pos_as_xyz
  x,y,z
_cell_length_a	12.759401
_cell_length_b	16.625546
_cell_length_c	16.625548
_cell_angle_alpha	90.011514
_cell_angle_beta	90.002963
_cell_angle_gamma	90.023993
loop_
_atom_site_label
_atom_site_type_symbol
_atom_site_fract_x
_atom_site_fract_y
_atom_site_fract_z
Zn1	Zn	1.606023	-0.321118	0.455859
Zn2	Zn	2.106023	0.178882	0.955859
Zn3	Zn	1.605946	-0.455916	0.321021
Zn4	Zn	2.105946	0.044084	0.821021
Zn5	Zn	1.430377	-0.321105	0.321044
Zn6	Zn	1.930377	0.178895	0.821044
Zn7	Zn	1.430290	-0.455916	0.455815
Zn8	Zn	1.930290	0.044084	0.955815
O9	O	1.518159	-0.388514	0.388435
O10	O	2.018159	0.111486	0.888435
O11	O	1.753034	-0.339005	0.437981
O12	O	2.253034	0.160995	0.937981
O13	O	1.582660	-0.438028	0.208192
O14	O	2.082660	0.061972	0.708192
O15	O	1.453746	-0.208274	0.338955
O16	O	1.953746	0.291726	0.838955
O17	O	1.752977	-0.438041	0.338917
O18	O	2.252977	0.061959	0.838917
O19	O	1.582792	-0.208284	0.438003
O20	O	2.082792	0.291716	0.938003
O21	O	1.453671	-0.338983	0.208208
O22	O	1.953671	0.161017	0.708208
O23	O	1.283345	-0.338982	0.338913
O24	O	1.783345	0.161018	0.838913
O25	O	1.453597	-0.438039	0.568653
O26	O	1.953597	0.061961	1.068653
O27	O	1.283281	-0.438027	0.437929
O28	O	1.783281	0.061973	0.937929
O29	O	1.582708	-0.339004	0.568685
O30	O	2.082708	0.160996	1.068685
O31	O	1.582576	-0.568749	0.338874
O32	O	2.082576	-0.068749	0.838874
O33	O	1.453522	-0.568748	0.437907
O34	O	1.953522	-0.068748	0.937907
C35	C	1.245192	-0.388504	0.388419
C36	C	1.745192	0.111496	0.888419
C37	C	1.128415	-0.388519	0.388431
C38	C	1.628415	0.111481	0.888431
C39	C	1.073547	-0.440170	0.439908
C40	C	1.573547	0.059830	0.939908
C41	C	0.963823	-0.440173	0.439924
C42	C	1.463823	0.059827	0.939924
C43	C	0.963844	-0.336872	0.336980
C44	C	1.463844	0.163128	0.836980
C45	C	1.073566	-0.336865	0.336968
C46	C	1.573566	0.163135	0.836968
C47	C	1.518060	-0.598005	0.388401
C48	C	2.018060	-0.098005	0.888401
C49	C	1.518113	-0.687626	0.388414
C50	C	2.018113	-0.187626	0.888414
C51	C	1.518296	-1.015801	0.388498
C52	C	2.018296	-0.515801	0.888498
C53	C	1.518242	-0.924493	0.388476
C54	C	2.018242	-0.424493	0.888476
C55	C	1.518204	-0.851716	0.388455
C56	C	2.018204	-0.351716	0.888455
C57	C	1.518151	-0.760402	0.388435
C58	C	2.018151	-0.260402	0.888435
C59	C	1.792192	-0.388524	0.388451
C60	C	2.292192	0.111476	0.888451
C61	C	1.908969	-0.388529	0.388458
C62	C	2.408969	0.111471	0.888458
C63	C	1.518152	-0.388523	0.598744
C64	C	2.018152	0.111477	1.098744
C65	C	1.518148	-0.388527	0.688365
C66	C	2.018148	0.111473	1.188365
C67	C	1.518287	-0.178205	0.388486
C68	C	2.018287	0.321795	0.888486
C69	C	1.518342	-0.088584	0.388508
C70	C	2.018342	0.411416	0.888508
C71	C	1.518145	-0.388531	0.761147
C72	C	2.018145	0.111469	1.261147
C73	C	1.518144	-0.388528	0.852456
C74	C	2.018144	0.111472	1.352456
C75	C	1.518149	-0.388521	0.925232
C76	C	2.018149	0.111479	1.425232
C77	C	1.518149	-0.388519	1.016546
C78	C	2.018149	0.111481	1.516546
C79	C	1.518156	-0.388521	1.178944
C80	C	2.018156	0.111479	1.678944
C81	C	1.518154	-0.388512	1.089323
C82	C	2.018154	0.111488	1.589323
H83	H	1.118202	-0.482228	0.481814
H84	H	1.618202	0.017772	0.981814
H85	H	0.919173	-0.294819	0.295079
H86	H	1.419173	0.205181	0.795079
H87	H	0.919155	-0.482231	0.481842
H88	H	1.419155	0.017769	0.981842
H89	H	1.118241	-0.294800	0.295050
H90	H	1.618241	0.205200	0.795050
