data_functionalizedCrystal
_audit_creation_method	'MofGen! by Chris Wilmer'
_symmetry_space_group_name_H-M	'P1'
_symmetry_Int_Tables_number	1
_symmetry_cell_setting	triclinic
loop_
_symmetry_equiv_pos_as_xyz
  x,y,z
_cell_length_a	27.732048
_cell_length_b	10.540539
_cell_length_c	9.616153
_cell_angle_alpha	90.000094
_cell_angle_beta	90.001345
_cell_angle_gamma	83.584073
loop_
_atom_site_label
_atom_site_type_symbol
_atom_site_fract_x
_atom_site_fract_y
_atom_site_fract_z
O1	O	-0.641880	-0.151021	-0.115461
O2	O	-0.501231	-0.173985	-0.115502
O3	O	-0.574764	0.022343	-0.115479
O4	O	-0.568347	-0.347349	-0.115484
O5	O	-0.574754	0.022338	0.115813
O6	O	-0.501221	-0.173989	0.115790
O7	O	-0.641870	-0.151026	0.115831
Zn8	Zn	-0.571544	-0.162508	0.152533
Zn9	Zn	-0.571557	-0.162503	-0.152204
O10	O	-0.568337	-0.347354	0.115808
C11	C	-0.574278	0.069623	0.000165
C12	C	-0.572838	0.210508	0.000157
C13	C	-0.483216	-0.173505	0.000139
C14	C	-0.429552	-0.172054	0.000123
C15	C	-0.659885	-0.151506	0.000187
C16	C	-0.713549	-0.152957	0.000194
C17	C	-0.091410	-0.278933	0.000181
C18	C	0.110284	-0.273547	0.000194
O19	O	0.140924	-0.371280	0.000253
N20	N	0.130140	-0.157133	0.000193
C21	C	0.099570	-0.042057	0.000198
O22	O	0.121088	0.057084	0.000212
C23	C	-0.102122	-0.047444	0.000196
C24	C	-0.121976	-0.163865	0.000182
C25	C	-0.111264	-0.395345	0.000170
C26	C	-0.161685	-0.396690	0.000159
C27	C	-0.192251	-0.281623	0.000160
C28	C	-0.172396	-0.165211	0.000172
C29	C	-0.132691	0.067631	0.000211
C30	C	-0.183117	0.066274	0.000214
C31	C	-0.202971	-0.050148	0.000201
C32	C	-0.253383	-0.051489	0.000162
N33	N	-0.273240	-0.167903	0.000163
C34	C	-0.242674	-0.282970	0.000162
C35	C	0.205462	-0.039237	0.000197
C36	C	0.255885	-0.037890	0.000195
C37	C	0.266595	-0.269381	0.000193
C38	C	0.216171	-0.270726	0.000185
C39	C	0.185605	-0.155651	0.000198
C40	C	-0.348561	-0.285786	0.000138
C41	C	-0.398986	-0.287121	0.000122
C42	C	-0.409691	-0.055631	0.000131
C43	C	-0.359270	-0.054295	0.000140
C44	C	-0.328706	-0.169383	0.000148
O45	O	-0.284052	0.046192	0.000119
O46	O	-0.264200	-0.382096	0.000179
C47	C	-0.040990	-0.277587	0.000192
C48	C	-0.021135	-0.161175	0.000204
C49	C	-0.051701	-0.046108	0.000205
C50	C	0.029288	-0.159828	0.000202
C51	C	0.059854	-0.274895	0.000201
C52	C	0.039997	-0.391310	0.000202
C53	C	-0.010423	-0.392655	0.000191
C54	C	-0.031845	0.070306	0.000204
C55	C	0.018576	0.071642	0.000213
C56	C	0.049142	-0.043425	0.000212
C57	C	-0.568823	-0.394633	0.000161
C58	C	-0.570263	-0.535519	0.000160
N59	N	-0.571538	-0.162512	0.360507
C60	C	-0.517663	0.391539	-0.000379
C61	C	-0.519123	0.244984	0.000142
C62	C	-0.598683	0.273286	0.132243
C63	C	-0.596849	0.419751	0.132354
C64	C	-0.597953	0.420321	-0.130668
C65	C	-0.598448	0.273361	-0.132414
N66	N	-0.571567	-0.162489	-0.360178
C67	C	-0.532083	-0.267192	0.580865
C68	C	-0.532169	-0.267574	0.419697
C69	C	-0.622071	-0.190451	0.418971
C70	C	-0.621856	-0.191189	0.580189
C71	C	-0.560964	-0.029532	0.580417
C72	C	-0.559804	-0.030447	0.419190
H73	H	-0.415148	-0.381929	0.000110
H74	H	-0.652179	-0.117882	0.619187
C75	C	-0.634376	-0.322141	0.630977
H76	H	-0.639543	-0.374390	0.553081
H77	H	-0.662988	-0.310884	0.685975
H78	H	-0.608312	-0.361952	0.685188
H79	H	0.200010	-0.365527	0.000182
H80	H	-0.631550	-0.286277	0.378582
C81	C	-0.491449	0.187356	0.128248
H82	H	-0.492242	0.097484	0.128996
H83	H	-0.506308	0.223243	0.210413
H84	H	-0.458715	0.205772	0.124352
H85	H	-0.635481	0.469397	0.138357
H86	H	-0.638130	0.252645	0.137165
C87	C	-0.509585	-0.001768	0.367580
H88	H	-0.495824	-0.069980	0.310499
H89	H	-0.488996	0.007184	0.445083
H90	H	-0.512955	0.075180	0.315287
C91	C	-0.512226	0.007069	0.635374
H92	H	-0.497887	-0.058403	0.695069
H93	H	-0.517607	0.084977	0.685587
H94	H	-0.491111	0.017181	0.559361
C95	C	-0.488999	0.428923	-0.128334
H96	H	-0.457359	0.383863	-0.126717
H97	H	-0.486667	0.518139	-0.126587
H98	H	-0.505284	0.407810	-0.210650
H99	H	-0.323680	-0.379502	0.000149
C100	C	-0.481201	-0.245304	0.633293
H101	H	-0.483579	-0.172121	0.691616
H102	H	-0.460899	-0.232437	0.556179
H103	H	-0.467736	-0.317852	0.684466
C104	C	0.277721	0.090170	0.000185
H105	H	0.312129	0.074504	0.000171
H106	H	0.267256	0.137507	0.080839
H107	H	0.267254	0.137499	-0.080484
C108	C	-0.599849	0.075714	0.631929
H109	H	-0.622438	0.038878	0.689361
H110	H	-0.616324	0.116116	0.554402
H111	H	-0.584774	0.137064	0.683837
H112	H	-0.580721	0.229905	0.230526
C113	C	-0.571029	0.456728	0.265710
H114	H	-0.561755	0.382271	0.319303
H115	H	-0.592421	0.514710	0.318526
H116	H	-0.542974	0.495992	0.241564
H117	H	-0.434587	0.038054	0.000126
C118	C	-0.032256	-0.520719	0.000191
H119	H	-0.006825	-0.589046	0.000204
H120	H	-0.051704	-0.526069	-0.080464
H121	H	-0.051701	-0.526062	0.080859
C122	C	-0.574473	0.461917	-0.265912
H123	H	-0.547559	0.506608	-0.243850
H124	H	-0.597609	0.516152	-0.317478
H125	H	-0.563752	0.388639	-0.319831
H126	H	-0.538809	-0.365324	0.621364
C127	C	-0.651355	0.242950	-0.143176
H128	H	-0.658551	0.191300	-0.066612
H129	H	-0.655607	0.198548	-0.227473
H130	H	-0.672551	0.320252	-0.142047
H131	H	-0.496526	0.420827	0.093801
C132	C	-0.650364	0.486403	-0.131867
H133	H	-0.655366	0.540650	-0.053073
H134	H	-0.672418	0.423676	-0.128964
H135	H	-0.655637	0.535682	-0.214297
C136	C	0.300224	-0.395952	0.000202
H137	H	0.333096	-0.378465	0.000214
H138	H	0.294165	-0.443744	-0.080447
H139	H	0.294163	-0.443720	0.080876
H140	H	-0.652170	-0.116180	0.380628
H141	H	-0.579538	0.231683	-0.230127
C142	C	-0.216737	0.192860	0.000212
H143	H	-0.197687	0.262381	0.000207
H144	H	-0.236633	0.197153	0.080861
H145	H	-0.236626	0.197149	-0.080462
H146	H	-0.498786	0.201499	-0.094543
H147	H	-0.494623	-0.251074	0.380171
C148	C	-0.541378	-0.400888	0.367570
H149	H	-0.545085	-0.455020	0.444925
H150	H	-0.514654	-0.435899	0.312738
H151	H	-0.570086	-0.393993	0.312905
H152	H	-0.586656	0.051039	0.378903
H153	H	-0.177845	-0.491492	0.000148
H154	H	-0.086382	-0.489052	0.000174
H155	H	0.180579	0.054477	0.000207
C156	C	-0.110863	0.195697	0.000245
H157	H	-0.136295	0.264022	0.000266
H158	H	-0.091415	0.201064	-0.080403
H159	H	-0.091419	0.201026	0.080920
H160	H	0.064893	-0.485001	0.000195
C161	C	-0.337430	0.073764	0.000140
H162	H	-0.362858	0.142100	0.000142
H163	H	-0.317979	0.079105	-0.080507
H164	H	-0.317987	0.079100	0.080816
H165	H	-0.056727	0.164010	0.000208
C166	C	0.040410	0.199715	0.000231
H167	H	0.014980	0.268045	0.000245
H168	H	0.059860	0.205071	-0.080415
H169	H	0.059852	0.205044	0.080908
