data_functionalizedCrystal
_audit_creation_method	'MofGen! by Chris Wilmer'
_symmetry_space_group_name_H-M	'P1'
_symmetry_Int_Tables_number	1
_symmetry_cell_setting	triclinic
loop_
_symmetry_equiv_pos_as_xyz
  x,y,z
_cell_length_a	19.188933
_cell_length_b	16.992695
_cell_length_c	16.053802
_cell_angle_alpha	87.258926
_cell_angle_beta	92.571113
_cell_angle_gamma	86.906896
loop_
_atom_site_label
_atom_site_type_symbol
_atom_site_fract_x
_atom_site_fract_y
_atom_site_fract_z
O1	O	-0.934631	-0.094570	-0.069402
O2	O	-0.601298	0.238763	0.263931
O3	O	-0.267965	0.572096	0.597265
O4	O	-0.732091	-0.107744	-0.069410
O5	O	-0.398758	0.225590	0.263923
O6	O	-0.065425	0.558923	0.597257
O7	O	-0.832549	0.012983	-0.069399
O8	O	-0.499216	0.346316	0.263934
O9	O	-0.165882	0.679649	0.597267
O10	O	-0.834173	-0.215297	-0.069413
O11	O	-0.500840	0.118037	0.263921
O12	O	-0.167507	0.451370	0.597254
O13	O	-0.827018	0.006365	0.069459
O14	O	-0.493685	0.339698	0.402792
O15	O	-0.160351	0.673031	0.736126
O16	O	-0.726560	-0.114362	0.069448
O17	O	-0.393227	0.218972	0.402782
O18	O	-0.059894	0.552305	0.736115
O19	O	-0.929100	-0.101188	0.069456
O20	O	-0.595767	0.232145	0.402790
O21	O	-0.262434	0.565478	0.736123
Zn22	Zn	-0.826952	-0.108826	0.091499
Zn23	Zn	-0.493619	0.224508	0.424832
Zn24	Zn	-0.160285	0.557841	0.758166
Zn25	Zn	-0.834239	-0.100106	-0.091453
Zn26	Zn	-0.500906	0.233227	0.241881
Zn27	Zn	-0.167573	0.566560	0.575214
O28	O	-0.828642	-0.221914	0.069446
O29	O	-0.495309	0.111419	0.402779
O30	O	-0.161976	0.444752	0.736112
C31	C	-0.703290	-0.110626	0.000018
C32	C	-0.369957	0.222708	0.333352
C33	C	-0.036623	0.556041	0.666685
C34	C	-0.625711	-0.109344	0.000015
C35	C	-0.292377	0.223989	0.333349
C36	C	0.040956	0.557322	0.666682
C37	C	-0.957902	-0.098306	0.000026
C38	C	-0.624568	0.235027	0.333360
C39	C	-0.291235	0.568361	0.666693
C40	C	-1.035481	-0.099587	0.000024
C41	C	-0.702148	0.233746	0.333357
C42	C	-0.368815	0.567079	0.666690
C43	C	-0.074935	-0.096592	-0.075667
C44	C	0.258399	0.236742	0.257667
C45	C	0.591732	0.570075	0.591000
C46	C	-0.147829	-0.097791	-0.075670
C47	C	0.185504	0.235542	0.257663
C48	C	0.518838	0.568876	0.590997
C49	C	-0.181266	-0.102002	0.000021
C50	C	0.152067	0.231332	0.333355
C51	C	0.485400	0.564665	0.666688
C52	C	-0.141804	-0.104993	0.075722
C53	C	0.191529	0.228340	0.409055
C54	C	0.524862	0.561674	0.742388
C55	C	-0.068912	-0.103786	0.075723
C56	C	0.264422	0.229547	0.409056
C57	C	0.597755	0.562881	0.742389
N58	N	-0.290764	-0.151192	0.056359
N59	N	0.042570	0.182142	0.389693
N60	N	0.375903	0.515475	0.723026
N61	N	-0.360009	-0.152340	0.056353
N62	N	-0.026675	0.180994	0.389686
N63	N	0.306658	0.514327	0.723020
C64	C	-0.400888	-0.105637	0.000023
C65	C	-0.067554	0.227696	0.333356
C66	C	0.265779	0.561030	0.666689
N67	N	-0.369906	-0.057752	-0.056314
N68	N	-0.036572	0.275581	0.277019
N69	N	0.296761	0.608914	0.610352
N70	N	-0.300654	-0.056607	-0.056310
N71	N	0.032679	0.276726	0.277023
N72	N	0.366012	0.610059	0.610356
C73	C	-0.260306	-0.103310	0.000029
C74	C	0.073027	0.230023	0.333362
C75	C	0.406361	0.563356	0.666695
C76	C	-0.519382	-0.103940	-0.075677
C77	C	-0.186049	0.229393	0.257657
C78	C	0.147285	0.562726	0.590990
C79	C	-0.592278	-0.105135	-0.075677
C80	C	-0.258945	0.228198	0.257657
C81	C	0.074388	0.561532	0.590990
C82	C	-0.586251	-0.112345	0.075717
C83	C	-0.252918	0.220988	0.409050
C84	C	0.080415	0.554322	0.742384
C85	C	-0.513357	-0.111143	0.075715
C86	C	-0.180024	0.222191	0.409048
C87	C	0.153309	0.555524	0.742382
C88	C	-0.479927	-0.106944	0.000016
C89	C	-0.146593	0.226389	0.333349
C90	C	0.186740	0.559723	0.666683
C91	C	-0.827695	0.038879	0.000030
C92	C	-0.494361	0.372212	0.333363
C93	C	-0.161028	0.705546	0.666696
C94	C	-0.821462	0.125902	0.000029
C95	C	-0.488128	0.459235	0.333362
C96	C	-0.154795	0.792569	0.666696
C97	C	-0.833497	-0.247811	0.000015
C98	C	-0.500164	0.085522	0.333348
C99	C	-0.166830	0.418856	0.666682
C100	C	-0.839730	-0.334833	0.000010
C101	C	-0.506397	-0.001500	0.333343
C102	C	-0.173064	0.331833	0.666677
N103	N	-0.821984	-0.114776	0.216359
N104	N	-0.488650	0.218558	0.549692
N105	N	-0.155317	0.551891	0.883026
C106	C	-0.881601	0.176348	0.000032
C107	C	-0.548268	0.509681	0.333366
C108	C	-0.214934	0.843015	0.666699
C109	C	-0.875741	0.258115	0.000024
C110	C	-0.542407	0.591448	0.333358
C111	C	-0.209074	0.924782	0.666691
C112	C	-0.809740	0.289434	0.000019
C113	C	-0.476407	0.622767	0.333352
C114	C	-0.143073	0.956101	0.666685
C115	C	-0.749596	0.238981	0.000013
C116	C	-0.416263	0.572315	0.333346
C117	C	-0.082930	0.905648	0.666680
C118	C	-0.755457	0.157216	0.000015
C119	C	-0.422124	0.490550	0.333349
C120	C	-0.088791	0.823883	0.666682
C121	C	-0.785448	0.532949	0.000006
C122	C	-0.452114	0.866282	0.333340
C123	C	-0.118781	1.199616	0.666673
C124	C	-0.779591	0.614720	0.000007
C125	C	-0.446257	0.948054	0.333340
C126	C	-0.112924	1.281387	0.666673
C127	C	-0.905736	0.633848	0.000016
C128	C	-0.572403	0.967182	0.333350
C129	C	-0.239069	1.300515	0.666683
C130	C	-0.911591	0.552081	0.000023
C131	C	-0.578258	0.885414	0.333357
C132	C	-0.244924	1.218747	0.666690
C133	C	-0.851448	0.501636	0.000013
C134	C	-0.518114	0.834969	0.333347
C135	C	-0.184781	1.168302	0.666680
N136	N	-0.803748	0.373012	0.000013
N137	N	-0.470415	0.706346	0.333346
N138	N	-0.137081	1.039679	0.666680
N139	N	-0.857440	0.418059	0.000013
N140	N	-0.524107	0.751392	0.333346
N141	N	-0.190774	1.084726	0.666680
N142	N	-0.839213	-0.094150	-0.216313
N143	N	-0.505880	0.239183	0.117021
N144	N	-0.172546	0.572517	0.450354
C145	C	-0.864746	-0.063425	0.260057
C146	C	-0.531413	0.269909	0.593391
C147	C	-0.198080	0.603242	0.926724
C148	C	-0.861278	-0.067594	0.347464
C149	C	-0.527944	0.265739	0.680797
C150	C	-0.194611	0.599072	1.014130
C151	C	-0.815050	-0.123119	0.391170
C152	C	-0.481716	0.210214	0.724503
C153	C	-0.148383	0.543547	1.057837
C154	C	-0.772283	-0.174473	0.347466
C155	C	-0.438949	0.158861	0.680799
C156	C	-0.105616	0.492194	1.014132
C157	C	-0.775748	-0.170299	0.260061
C158	C	-0.442415	0.163035	0.593394
C159	C	-0.109081	0.496368	0.926727
C160	C	-0.799911	-0.141329	0.652578
C161	C	-0.466578	0.192004	0.985911
C162	C	-0.133244	0.525337	1.319245
C163	C	-0.796450	-0.145501	0.739989
C164	C	-0.463117	0.187832	1.073322
C165	C	-0.129784	0.521166	1.406656
C166	C	-0.885445	-0.038621	0.739981
C167	C	-0.552112	0.294712	1.073314
C168	C	-0.218778	0.628045	1.406648
C169	C	-0.888909	-0.034455	0.652575
C170	C	-0.555576	0.298878	0.985908
C171	C	-0.222243	0.632211	1.319241
C172	C	-0.846140	-0.085806	0.608878
C173	C	-0.512806	0.247527	0.942211
C174	C	-0.179473	0.580861	1.275544
N175	N	-0.811505	-0.127384	0.480513
N176	N	-0.478172	0.205949	0.813847
N177	N	-0.144838	0.539282	1.147180
N178	N	-0.849681	-0.081537	0.519536
N179	N	-0.516348	0.251797	0.852869
N180	N	-0.183015	0.585130	1.186203
H181	H	-0.047720	-0.093170	-0.137307
H182	H	0.285613	0.240164	0.196026
H183	H	0.618946	0.573497	0.529360
H184	H	-0.725842	0.640216	0.000016
H185	H	-0.392509	0.973549	0.333349
H186	H	-0.059175	1.306883	0.666682
Cl187	Cl	-0.019310	-0.107556	0.170884
Cl188	Cl	0.314023	0.225777	0.504218
Cl189	Cl	0.647357	0.559111	0.837551
Cl190	Cl	-0.641878	-0.101360	-0.170840
Cl191	Cl	-0.308545	0.231973	0.162494
Cl192	Cl	0.024788	0.565306	0.495827
H193	H	-0.169034	-0.108420	0.137350
H194	H	0.164300	0.224913	0.470683
H195	H	0.497633	0.558247	0.804017
Cl196	Cl	-0.964577	0.136984	0.000048
Cl197	Cl	-0.631244	0.470317	0.333381
Cl198	Cl	-0.297910	0.803651	0.666714
Cl199	Cl	-0.915037	-0.003037	0.402400
Cl200	Cl	-0.581703	0.330296	0.735734
Cl201	Cl	-0.248370	0.663630	1.069067
Cl202	Cl	-0.709838	0.469543	-0.000008
Cl203	Cl	-0.376504	0.802876	0.333325
Cl204	Cl	-0.043171	1.136210	0.666658
H205	H	-0.758804	-0.190719	0.775571
H206	H	-0.425471	0.142614	1.108904
H207	H	-0.092137	0.475947	1.442237
Cl208	Cl	-0.666624	0.278354	-0.000004
Cl209	Cl	-0.333290	0.611688	0.333329
Cl210	Cl	0.000043	0.945021	0.666663
Cl211	Cl	-0.679850	0.093798	0.000008
Cl212	Cl	-0.346517	0.427131	0.333341
Cl213	Cl	-0.013184	0.760464	0.666675
H214	H	-0.179958	-0.095356	-0.137308
H215	H	0.153375	0.237978	0.196025
H216	H	0.486709	0.571311	0.529359
Cl217	Cl	-0.477352	-0.098656	-0.170839
Cl218	Cl	-0.144019	0.234677	0.162494
Cl219	Cl	0.189314	0.568010	0.495828
Cl220	Cl	-0.628281	-0.117626	0.170873
Cl221	Cl	-0.294947	0.215707	0.504207
Cl222	Cl	0.038386	0.549041	0.837540
Cl223	Cl	-0.463755	-0.114922	0.170874
Cl224	Cl	-0.130422	0.218412	0.504208
Cl225	Cl	0.202912	0.551745	0.837541
Cl226	Cl	-0.947026	0.035347	0.597629
Cl227	Cl	-0.613693	0.368680	0.930963
Cl228	Cl	-0.280359	0.702014	1.264296
Cl229	Cl	-0.951348	0.321530	0.000031
Cl230	Cl	-0.618015	0.654863	0.333364
Cl231	Cl	-0.284682	0.988197	0.666697
Cl232	Cl	-0.721984	-0.234855	0.205126
Cl233	Cl	-0.388651	0.098478	0.538460
Cl234	Cl	-0.055317	0.431812	0.871793
H235	H	-0.902393	-0.018214	0.224477
H236	H	-0.569060	0.315120	0.557811
H237	H	-0.235726	0.648453	0.891144
H238	H	-0.965336	0.526587	0.000028
H239	H	-0.632002	0.859921	0.333361
H240	H	-0.298669	1.193254	0.666695
Cl241	Cl	-0.939207	0.025933	0.794918
Cl242	Cl	-0.605874	0.359266	1.128251
Cl243	Cl	-0.272540	0.692599	1.461585
H244	H	-0.954701	0.674929	0.000023
H245	H	-0.621368	1.008262	0.333356
H246	H	-0.288035	1.341596	0.666690
Cl247	Cl	-0.746148	-0.205886	0.597651
Cl248	Cl	-0.412814	0.127448	0.930984
Cl249	Cl	-0.079481	0.460781	1.264317
H250	H	-0.734639	-0.219680	0.383056
H251	H	-0.401306	0.113654	0.716390
H252	H	-0.067972	0.446987	1.049723
