data_functionalizedCrystal
_audit_creation_method	'MofGen! by Chris Wilmer'
_symmetry_space_group_name_H-M	'P1'
_symmetry_Int_Tables_number	1
_symmetry_cell_setting	triclinic
loop_
_symmetry_equiv_pos_as_xyz
  x,y,z
_cell_length_a	19.188930
_cell_length_b	19.188924
_cell_length_c	9.130313
_cell_angle_alpha	89.996698
_cell_angle_beta	89.985896
_cell_angle_gamma	83.143372
loop_
_atom_site_label
_atom_site_type_symbol
_atom_site_fract_x
_atom_site_fract_y
_atom_site_fract_z
O1	O	0.926139	0.087165	-0.122277
O2	O	1.426139	0.587165	0.377723
O3	O	0.722827	0.098899	-0.122177
O4	O	1.222827	0.598899	0.377823
O5	O	0.830353	-0.008624	-0.122213
O6	O	1.330353	0.491376	0.377787
O7	O	0.818613	0.194688	-0.122241
O8	O	1.318613	0.694688	0.377759
O9	O	0.830351	-0.008621	0.121386
O10	O	1.330351	0.491379	0.621386
O11	O	0.722826	0.098902	0.121422
O12	O	1.222826	0.598902	0.621422
O13	O	0.926137	0.087168	0.121322
O14	O	1.426137	0.587168	0.621322
Cu15	Cu	0.824481	0.093035	0.143614
Cu16	Cu	1.324481	0.593035	0.643614
Cu17	Cu	0.824483	0.093032	-0.144469
Cu18	Cu	1.324483	0.593032	0.355531
O19	O	0.818612	0.194691	0.121357
O20	O	1.318612	0.694691	0.621357
C21	C	0.696815	0.098521	-0.000365
C22	C	1.196815	0.598521	0.499635
C23	C	0.619311	0.097380	-0.000326
C24	C	1.119311	0.597380	0.499674
C25	C	0.574385	0.160471	-0.000358
C26	C	1.074385	0.660471	0.499642
C27	C	0.501562	0.159399	-0.000374
C28	C	1.001562	0.659399	0.499626
C29	C	0.473667	0.095233	-0.000388
C30	C	0.973667	0.595233	0.499612
C31	C	0.518602	0.032134	-0.000347
C32	C	1.018602	0.532134	0.499653
C33	C	0.591424	0.033207	-0.000317
C34	C	1.091424	0.533207	0.499683
N35	N	0.365688	0.046185	-0.083347
N36	N	0.865688	0.546185	0.416653
N37	N	0.296510	0.045169	-0.083379
N38	N	0.796510	0.545169	0.416621
C39	C	0.254258	0.091995	-0.000477
C40	C	0.754258	0.591995	0.499523
N41	N	0.283797	0.139885	0.082441
N42	N	0.783797	0.639885	0.582441
N43	N	0.352982	0.140902	0.082467
N44	N	0.852982	0.640902	0.582467
C45	C	0.394704	0.094062	-0.000420
C46	C	0.894704	0.594062	0.499580
C47	C	0.130368	0.153928	-0.000524
C48	C	0.630368	0.653928	0.499476
C49	C	0.057543	0.152854	-0.000531
C50	C	0.557543	0.652854	0.499469
C51	C	0.074585	0.025586	-0.000519
C52	C	0.574585	0.525586	0.499481
C53	C	0.147409	0.026663	-0.000497
C54	C	0.647409	0.526663	0.499503
C55	C	0.175295	0.090835	-0.000507
C56	C	0.675295	0.590835	0.499493
C57	C	0.829973	-0.034634	-0.000412
C58	C	1.329973	0.465366	0.499588
C59	C	0.828834	-0.112138	-0.000407
C60	C	1.328834	0.387862	0.499593
C61	C	0.828303	-0.148539	-0.133193
C62	C	1.328303	0.351461	0.366807
C63	C	0.827223	-0.221362	-0.133204
C64	C	1.327223	0.278638	0.366796
C65	C	0.826688	-0.257783	-0.000421
C66	C	1.326688	0.242217	0.499579
C67	C	0.827215	-0.221373	0.132383
C68	C	1.327215	0.278627	0.632383
C69	C	0.828288	-0.148551	0.132389
C70	C	1.328288	0.351449	0.632389
N71	N	0.864735	-0.377445	0.098387
N72	N	1.364735	0.122555	0.598387
N73	N	0.863718	-0.446623	0.098372
N74	N	1.363718	0.053377	0.598372
C75	C	0.823454	-0.477192	-0.000433
C76	C	1.323454	0.022808	0.499567
N77	N	0.784255	-0.435970	-0.099245
N78	N	1.284255	0.064030	0.400755
N79	N	0.785276	-0.366786	-0.099234
N80	N	1.285276	0.133214	0.400766
C81	C	0.825524	-0.336746	-0.000413
C82	C	1.325524	0.163254	0.499587
C83	C	0.821751	-0.592555	-0.133240
C84	C	1.321751	-0.092555	0.366760
C85	C	0.820667	-0.665379	-0.133245
C86	C	1.320667	-0.165379	0.366755
C87	C	0.820666	-0.665390	0.132345
C88	C	1.320666	-0.165390	0.632345
C89	C	0.821743	-0.592567	0.132346
C90	C	1.321743	-0.092567	0.632346
C91	C	0.822289	-0.556154	-0.000450
C92	C	1.322289	-0.056154	0.499550
C93	C	0.952149	0.087546	-0.000493
C94	C	1.452149	0.587546	0.499507
C95	C	1.029654	0.088687	-0.000542
C96	C	1.529654	0.588687	0.499458
C97	C	0.818992	0.220700	-0.000447
C98	C	1.318992	0.720700	0.499553
C99	C	0.820131	0.298205	-0.000461
C100	C	1.320131	0.798205	0.499539
N101	N	0.824485	0.093037	0.346237
N102	N	1.324485	0.593037	0.846237
N103	N	0.824485	0.093024	-0.347092
N104	N	1.324485	0.593024	0.152908
C105	C	0.872110	0.045442	0.422873
C106	C	1.372110	0.545442	0.922873
C107	C	0.872108	0.045433	0.576210
C108	C	1.372108	0.545433	1.076210
C109	C	0.776855	0.140622	0.576261
C110	C	1.276855	0.640622	1.076261
C111	C	0.776854	0.140626	0.422927
C112	C	1.276854	0.640626	0.922927
C113	C	0.919741	-0.002147	0.346183
C114	C	1.419741	0.497853	0.846183
C115	C	0.967369	-0.049746	0.422820
C116	C	1.467369	0.450254	0.922820
C117	C	0.967368	-0.049754	0.576157
C118	C	1.467368	0.450246	1.076157
C119	C	0.919737	-0.002164	0.652857
C120	C	1.419737	0.497836	1.152857
H121	H	0.020965	0.204232	-0.000548
H122	H	0.520965	0.704232	0.499452
C123	C	0.487916	-0.038450	-0.000364
C124	C	0.987916	0.461550	0.499636
N125	N	0.464804	-0.091615	-0.000372
N126	N	0.964804	0.408385	0.499628
C127	C	0.724466	0.192968	0.660637
C128	C	1.224466	0.692968	1.160637
N129	N	0.685007	0.232397	0.724190
N130	N	1.185007	0.732397	1.224190
H131	H	0.628003	-0.018171	-0.000292
H132	H	1.128003	0.481829	0.499708
H133	H	0.822181	-0.562930	0.240475
H134	H	1.322181	-0.062930	0.740475
H135	H	0.738074	0.179382	0.360529
H136	H	1.238074	0.679382	0.860529
H137	H	0.051874	-0.026659	-0.000620
H138	H	0.551874	0.473341	0.499380
H139	H	0.826787	-0.251004	-0.241337
H140	H	1.326787	0.248996	0.258663
C141	C	0.161046	0.224519	-0.000516
C142	C	0.661046	0.724519	0.499484
N143	N	0.184151	0.277688	-0.000507
N144	N	0.684151	0.777688	0.499493
H145	H	0.183988	-0.024713	-0.000479
H146	H	0.683988	0.475287	0.499521
H147	H	0.597086	0.212725	-0.000369
H148	H	1.097086	0.712725	0.499631
C149	C	0.828897	-0.108489	-0.279274
C150	C	1.328897	0.391511	0.220726
N151	N	0.829343	-0.078321	-0.389303
N152	N	1.329343	0.421679	0.110697
C153	C	1.019750	-0.102122	0.660452
C154	C	1.519750	0.397878	1.160452
N155	N	1.059206	-0.141568	0.723941
N156	N	1.559206	0.358432	1.223941
C157	C	0.452135	0.228807	-0.000427
C158	C	0.952135	0.728807	0.499573
N159	N	0.414908	0.281085	-0.000473
N160	N	0.914908	0.781085	0.499527
H161	H	0.826777	-0.251032	0.240495
H162	H	1.326777	0.248968	0.740495
C163	C	0.828876	-0.108510	0.278471
C164	C	1.328876	0.391490	0.778471
N165	N	0.829321	-0.078350	0.388501
N166	N	1.329321	0.421650	0.888501
H167	H	0.822192	-0.562906	-0.241371
H168	H	1.322192	-0.062906	0.258629
C169	C	0.820118	-0.705424	-0.279328
C170	C	1.320118	-0.205424	0.220672
N171	N	0.819719	-0.735588	-0.389360
N172	N	1.319719	-0.235588	0.110640
H173	H	0.919748	-0.002144	0.221329
H174	H	1.419748	0.497856	0.721329
C175	C	0.820077	-0.705449	0.278409
C176	C	1.320077	-0.205449	0.778409
N177	N	0.819633	-0.735625	0.388427
N178	N	1.319633	-0.235625	0.888427
C179	C	1.019751	-0.102101	0.338447
C180	C	1.519751	0.397899	0.838447
N181	N	1.059204	-0.141538	0.274899
N182	N	1.559204	0.358462	0.774899
H183	H	0.919735	-0.002180	0.777714
H184	H	1.419735	0.497820	1.277714
