data_functionalizedCrystal
_audit_creation_method	'MofGen! by Chris Wilmer'
_symmetry_space_group_name_H-M	'P1'
_symmetry_Int_Tables_number	1
_symmetry_cell_setting	triclinic
loop_
_symmetry_equiv_pos_as_xyz
  x,y,z
_cell_length_a	10.654556
_cell_length_b	9.730223
_cell_length_c	10.654549
_cell_angle_alpha	90.003420
_cell_angle_beta	95.513843
_cell_angle_gamma	89.998368
loop_
_atom_site_label
_atom_site_type_symbol
_atom_site_fract_x
_atom_site_fract_y
_atom_site_fract_z
O1	O	1.667834	-0.114235	-0.176437
O2	O	2.167834	0.385765	0.323563
O3	O	1.302357	-0.114249	-0.193234
O4	O	1.802357	0.385751	0.306766
O5	O	1.493499	-0.114236	-0.002097
O6	O	1.993499	0.385764	0.497903
O7	O	1.476692	-0.114248	-0.367575
O8	O	1.976692	0.385752	0.132425
O9	O	1.493486	0.114344	-0.002091
O10	O	1.993486	0.614344	0.497909
O11	O	1.302344	0.114331	-0.193229
O12	O	1.802344	0.614331	0.306771
O13	O	1.667822	0.114345	-0.176431
O14	O	2.167822	0.614345	0.323569
Zn15	Zn	1.485081	0.150630	-0.184830
Zn16	Zn	1.985081	0.650630	0.315170
Zn17	Zn	1.485097	-0.150534	-0.184836
Zn18	Zn	1.985097	0.349466	0.315164
O19	O	1.476680	0.114332	-0.367569
O20	O	1.976680	0.614332	0.132431
C21	C	1.255553	0.000040	-0.191997
C22	C	1.755553	0.500040	0.308003
C23	C	1.116110	0.000034	-0.188302
C24	C	1.616110	0.500034	0.311698
C25	C	0.919571	-0.124554	-0.183102
C26	C	1.419571	0.375446	0.316898
C27	C	1.050593	-0.124562	-0.186566
C28	C	1.550593	0.375438	0.313434
C29	C	1.050599	0.124648	-0.186560
C30	C	1.550599	0.624648	0.313440
C31	C	0.919580	0.124655	-0.183087
C32	C	1.419580	0.624655	0.316913
C33	C	1.492259	0.000053	0.044704
C34	C	1.992259	0.500053	0.544704
C35	C	1.488567	0.000048	0.184147
C36	C	1.988567	0.500048	0.684147
C37	C	1.714626	0.000054	-0.177669
C38	C	2.214626	0.500054	0.322331
C39	C	1.854069	0.000050	-0.181364
C40	C	2.354069	0.500050	0.318636
N41	N	1.485079	0.356167	-0.184824
N42	N	1.985079	0.856167	0.315176
N43	N	1.485109	-0.356070	-0.184832
N44	N	1.985109	0.143930	0.315168
C45	C	1.569746	0.428098	-0.100224
C46	C	2.069746	0.928098	0.399776
C47	C	1.569758	0.571981	-0.100225
C48	C	2.069758	1.071981	0.399775
C49	C	1.400433	0.571988	-0.269436
C50	C	1.900433	1.071988	0.230564
C51	C	1.400416	0.428108	-0.269428
C52	C	1.900416	0.928108	0.230572
C53	C	1.477920	0.000041	-0.414370
C54	C	1.977920	0.500041	0.085630
C55	C	1.481612	0.000036	-0.553813
C56	C	1.981612	0.500036	-0.053813
C57	C	1.597630	0.000043	0.394660
C58	C	2.097630	0.500043	0.894660
C59	C	1.601108	0.000054	0.263639
C60	C	2.101108	0.500054	0.763639
C61	C	1.372539	0.000046	0.235682
C62	C	1.872539	0.500046	0.735682
C63	C	1.369062	0.000044	0.366701
C64	C	1.869062	0.500044	0.866701
H65	H	1.103953	0.226097	-0.187965
H66	H	1.603953	0.726097	0.312035
Br67	Br	1.758569	0.000063	0.193715
Br68	Br	2.258569	0.500063	0.693715
Br69	Br	1.285540	0.669627	-0.384254
Br70	Br	1.785540	1.169627	0.115746
Br71	Br	1.684662	0.669600	0.014600
Br72	Br	2.184662	1.169600	0.514600
Br73	Br	1.285493	0.330475	-0.384240
Br74	Br	1.785493	0.830475	0.115760
H75	H	1.689275	0.000036	0.459374
H76	H	2.189275	0.500036	0.959374
Br77	Br	1.684643	0.330469	0.014598
Br78	Br	2.184643	0.830469	0.514598
H79	H	0.866246	0.226129	-0.181671
H80	H	1.366246	0.726129	0.318329
Br81	Br	1.211597	0.000050	0.436637
Br82	Br	1.711597	0.500050	0.936637
Br83	Br	0.830667	-0.293659	-0.180761
Br84	Br	1.330667	0.206341	0.319239
Br85	Br	1.139487	-0.293675	-0.188914
Br86	Br	1.639487	0.206325	0.311086
H87	H	1.280906	0.000049	0.170950
H88	H	1.780906	0.500049	0.670950
