data_functionalizedCrystal
_audit_creation_method	'MofGen! by Chris Wilmer'
_symmetry_space_group_name_H-M	'P1'
_symmetry_Int_Tables_number	1
_symmetry_cell_setting	triclinic
loop_
_symmetry_equiv_pos_as_xyz
  x,y,z
_cell_length_a	18.215407
_cell_length_b	19.805405
_cell_length_c	18.215399
_cell_angle_alpha	90.027923
_cell_angle_beta	90.019833
_cell_angle_gamma	90.027174
loop_
_atom_site_label
_atom_site_type_symbol
_atom_site_fract_x
_atom_site_fract_y
_atom_site_fract_z
Zn1	Zn	1.125063	-0.269462	0.416116
Zn2	Zn	1.124967	-0.382653	0.293050
Zn3	Zn	1.001995	-0.269484	0.293063
Zn4	Zn	1.001957	-0.382615	0.416075
O5	O	1.063495	-0.326054	0.354576
O6	O	1.228034	-0.284484	0.399803
O7	O	1.108630	-0.367666	0.190067
O8	O	1.018376	-0.174765	0.309410
O9	O	1.227964	-0.367644	0.309386
O10	O	1.108793	-0.174748	0.399816
O11	O	1.018284	-0.284521	0.190077
O12	O	0.899006	-0.284485	0.309369
O13	O	1.018311	-0.367580	0.519064
O14	O	0.898978	-0.367602	0.399745
O15	O	1.108756	-0.284447	0.519095
O16	O	1.108594	-0.477365	0.309346
O17	O	1.018219	-0.477337	0.399732
C18	C	0.872289	-0.326042	0.354555
C19	C	0.790490	-0.326053	0.354563
C20	C	0.602301	-0.369400	0.401563
C21	C	0.525442	-0.369403	0.401572
C22	C	0.525442	-0.282719	0.307605
C23	C	0.602299	-0.282714	0.307600
C24	C	0.640727	-0.326059	0.354578
C25	C	0.487011	-0.326066	0.354592
C26	C	0.403677	-0.326068	0.354602
C27	C	0.724066	-0.326056	0.354570
C28	C	1.063412	-0.501910	0.354549
C29	C	1.063443	-0.577142	0.354563
C30	C	1.110495	-0.612419	0.401674
C31	C	1.110522	-0.683108	0.401688
C32	C	1.063499	-0.718517	0.354586
C33	C	1.016442	-0.683235	0.307472
C34	C	1.016412	-0.612548	0.307463
C35	C	1.016560	-0.968308	0.307510
C36	C	1.016595	-1.039000	0.307521
C37	C	1.110670	-1.038868	0.401735
C38	C	1.110640	-0.968181	0.401725
C39	C	1.063580	-0.932905	0.354615
C40	C	1.063551	-0.856256	0.354602
C41	C	1.063532	-0.795164	0.354595
C42	C	1.255448	-0.326066	0.354598
C43	C	1.337247	-0.326071	0.354607
C44	C	1.063540	-0.326007	0.546529
C45	C	1.063559	-0.325987	0.628328
C46	C	1.063600	-0.149511	0.354619
C47	C	1.063644	-0.074279	0.354637
C48	C	1.063493	-0.326051	0.163370
C49	C	1.063617	-0.325880	0.081571
C50	C	1.110671	-0.282659	0.816539
C51	C	1.110680	-0.282639	0.893398
C52	C	1.016500	-0.369210	0.893355
C53	C	1.016488	-0.369226	0.816497
C54	C	1.063578	-0.325952	0.778091
C55	C	1.063598	-0.325916	0.931808
C56	C	1.063608	-0.325895	1.015141
C57	C	1.063568	-0.325972	0.694752
H58	H	0.494159	-0.404695	0.439833
O59	O	1.156483	-0.240715	0.779196
C60	C	1.255800	-0.231617	0.692408
C61	C	1.203979	-0.279200	0.734663
H62	H	1.294204	-0.262712	0.656380
H63	H	1.289513	-0.200680	0.733058
H64	H	1.222006	-0.196221	0.656463
H65	H	1.237717	-0.314637	0.770608
H66	H	1.170264	-0.310089	0.693973
O67	O	1.156498	-0.240565	0.930631
C68	C	1.249881	-0.154674	0.922558
C69	C	1.198041	-0.202303	0.880300
H70	H	1.283472	-0.123717	0.881884
H71	H	1.288398	-0.185710	0.958521
H72	H	1.216108	-0.119301	0.958562
H73	H	1.231756	-0.237686	0.844256
H74	H	1.159522	-0.171225	0.844383
O75	O	0.970695	-0.411272	0.930550
C76	C	0.877317	-0.497173	0.922395
C77	C	0.929139	-0.449559	0.880182
H78	H	0.843715	-0.528151	0.881691
H79	H	0.838809	-0.466125	0.958361
H80	H	0.911105	-0.532529	0.958391
H81	H	0.895409	-0.414194	0.844146
H82	H	0.967649	-0.480649	0.844262
H83	H	0.494145	-0.247431	0.269356
H84	H	0.978244	-0.939592	0.269150
O85	O	0.970763	-0.411221	0.779031
C86	C	0.929040	-0.449636	0.660606
C87	C	0.980847	-0.402037	0.702945
H88	H	0.937186	-0.442238	0.599082
H89	H	0.869691	-0.437744	0.675653
H90	H	0.941927	-0.504204	0.675745
H91	H	0.968027	-0.347453	0.687828
H92	H	1.040181	-0.413987	0.687894
O93	O	0.639516	-0.411520	0.447270
C94	C	0.631401	-0.497521	0.540448
C95	C	0.589167	-0.449846	0.488731
H96	H	0.590712	-0.528530	0.573971
H97	H	0.667393	-0.466519	0.579033
H98	H	0.667375	-0.532845	0.506582
H99	H	0.553153	-0.414513	0.522537
H100	H	0.553222	-0.480890	0.450143
H101	H	1.148986	-1.067598	0.440097
O102	O	0.639517	-0.240588	0.261886
C103	C	0.631413	-0.154581	0.168715
C104	C	0.589172	-0.202264	0.220431
H105	H	0.590727	-0.123574	0.135196
H106	H	0.667347	-0.185578	0.130126
H107	H	0.667444	-0.119257	0.202582
H108	H	0.553101	-0.237598	0.186623
H109	H	0.553284	-0.171226	0.259022
O110	O	1.156196	-0.578130	0.447501
C111	C	1.249535	-0.585468	0.540929
C112	C	1.197807	-0.624381	0.489075
H113	H	1.283202	-0.622845	0.574545
H114	H	1.215743	-0.552399	0.579423
H115	H	1.287992	-0.552342	0.507165
H116	H	1.159339	-0.657543	0.522780
H117	H	1.231644	-0.657407	0.450580
H118	H	1.148842	-0.711827	0.440045
H119	H	1.148933	-0.939352	0.440078
O120	O	0.970977	-1.073503	0.261794
C121	C	0.929298	-1.182461	0.220097
C122	C	0.981005	-1.143471	0.271903
H123	H	0.937376	-1.239037	0.228264
H124	H	0.942240	-1.168639	0.160746
H125	H	0.869952	-1.168565	0.232965
H126	H	1.040368	-1.157347	0.259102
H127	H	0.968000	-1.157297	0.331239
H128	H	0.978096	-0.583825	0.269101
H129	H	0.978152	-0.712071	0.269124
