data_functionalizedCrystal
_audit_creation_method	'MofGen! by Chris Wilmer'
_symmetry_space_group_name_H-M	'P1'
_symmetry_Int_Tables_number	1
_symmetry_cell_setting	triclinic
loop_
_symmetry_equiv_pos_as_xyz
  x,y,z
_cell_length_a	13.185407
_cell_length_b	13.262975
_cell_length_c	11.804365
_cell_angle_alpha	117.320972
_cell_angle_beta	97.769724
_cell_angle_gamma	111.130109
loop_
_atom_site_label
_atom_site_type_symbol
_atom_site_fract_x
_atom_site_fract_y
_atom_site_fract_z
O1	O	-1.491258	-0.329975	-0.205868
O2	O	-1.165890	-0.213286	-0.168087
O3	O	-1.348738	-0.441900	-0.242106
O4	O	-1.308410	-0.101361	-0.131850
O5	O	-1.300605	-0.381762	-0.024579
O6	O	-1.117756	-0.153148	0.049440
O7	O	-1.443125	-0.269837	0.011659
Cu8	Cu	-1.276045	-0.206001	0.050411
Cu9	Cu	-1.332969	-0.277122	-0.206840
O10	O	-1.260276	-0.041222	0.085677
C11	C	-1.100396	-0.171387	-0.055494
C12	C	-0.976959	-0.136152	-0.044085
C13	C	-0.710384	-0.472422	-0.152948
C14	C	-0.826359	-0.505528	-0.163659
C15	C	-0.864015	-0.413187	-0.133767
C16	C	-0.785685	-0.287733	-0.093161
C17	C	-0.669697	-0.254621	-0.082438
C18	C	-0.823327	-0.195386	-0.063258
C19	C	-0.744997	-0.069933	-0.022651
C20	C	-0.629022	-0.036826	-0.011932
C21	C	-0.591365	-0.129167	-0.041824
C22	C	-0.939315	-0.228499	-0.073980
C23	C	-0.898628	-0.010698	-0.003471
C24	C	-0.782653	0.022408	0.007241
C25	C	-1.326833	-0.454498	-0.147159
C26	C	-1.333258	-0.581630	-0.188328
C27	C	-1.362531	-0.674120	-0.326255
C28	C	-1.368588	-0.793580	-0.364967
C29	C	-1.345382	-0.820566	-0.265756
C30	C	-1.316116	-0.728078	-0.127828
C31	C	-1.310050	-0.608602	-0.089111
C32	C	-1.292900	-0.755048	-0.028612
C33	C	-1.263635	-0.662560	0.109316
C34	C	-1.257570	-0.543097	0.148027
C35	C	-1.280777	-0.516112	0.048816
C36	C	-1.298967	-0.874524	-0.067329
C37	C	-1.246485	-0.809006	0.169815
C38	C	-1.240428	-0.689546	0.208527
C39	C	-0.508617	-0.311735	-0.100933
C40	C	-0.632053	-0.346968	-0.112333
C41	C	-1.282182	-0.028625	-0.009272
C42	C	-1.275758	0.098504	0.031888
N43	N	-1.236016	-0.155982	0.231347
N44	N	-1.373008	-0.327153	-0.387779
C45	C	-1.469133	-0.447290	0.510978
C46	C	-1.499414	-0.485134	0.374064
C47	C	-1.433567	-0.402849	0.338377
C48	C	-1.337434	-0.282714	0.439620
C49	C	-1.307156	-0.244861	0.576549
C50	C	-1.271589	-0.200421	0.403948
C51	C	-1.175457	-0.080285	0.505190
C52	C	-1.145183	-0.042440	0.642105
C53	C	-1.211030	-0.124725	0.677792
C54	C	-1.301868	-0.238273	0.267019
C55	C	-1.139890	-0.035845	0.332589
C56	C	-1.109609	0.001999	0.469504
H57	H	-1.322792	-0.949815	-0.179631
H58	H	-0.565244	0.065330	0.021146
H59	H	-0.929284	0.064495	0.020874
N60	N	-0.671896	-0.566713	-0.183456
N61	N	-0.568336	-0.537126	-0.173868
H62	H	-0.541151	-0.603725	-0.195414
H63	H	-1.350314	-0.917837	-0.297284
N64	N	-1.597684	-0.607808	0.270749
N65	N	-1.600088	-0.709580	0.251729
H66	H	-1.669529	-0.796211	0.178790
N67	N	-0.472904	-0.095373	-0.030903
N68	N	-0.439309	-0.177840	-0.057613
H69	H	-0.355645	-0.153978	-0.049904
H70	H	-1.003081	-0.330645	-0.107044
H71	H	-1.233735	-0.467792	0.260338
N72	N	-0.982481	-0.447021	-0.144709
N73	N	-1.052406	-0.559034	-0.180966
H74	H	-1.136079	-0.582937	-0.188700
H75	H	-0.718861	0.124555	0.040304
H76	H	-1.392419	-0.868877	-0.477268
H77	H	-1.522743	-0.514271	0.540047
H78	H	-1.381416	-0.652132	-0.407015
H79	H	-1.031336	0.099817	0.551952
N80	N	-1.464504	-0.441489	0.198529
N81	N	-1.562736	-0.465378	0.135133
H82	H	-1.584588	-0.492672	0.036359
N83	N	-1.072634	0.048230	0.296160
N84	N	-1.120030	0.087869	0.239422
H85	H	-1.072537	0.147245	0.213687
H86	H	-1.186373	-0.093915	0.789277
H87	H	-0.890126	-0.607671	-0.196716
N88	N	-1.274579	-0.394085	0.088323
N89	N	-1.204451	-0.321010	0.063774
H90	H	-1.200073	-0.234829	0.091665
H91	H	-1.216600	-0.614226	0.320830
H92	H	-1.227584	-0.830973	0.250601
H93	H	-1.380140	-0.336087	0.184598
N94	N	-1.047000	0.080291	0.745510
N95	N	-0.988220	0.153753	0.713638
H96	H	-0.918880	0.240434	0.786666
