data_functionalizedCrystal
_audit_creation_method	'MofGen! by Chris Wilmer'
_symmetry_space_group_name_H-M	'P1'
_symmetry_Int_Tables_number	1
_symmetry_cell_setting	triclinic
loop_
_symmetry_equiv_pos_as_xyz
  x,y,z
_cell_length_a	15.538191
_cell_length_b	14.853567
_cell_length_c	13.930277
_cell_angle_alpha	89.995623
_cell_angle_beta	90.000481
_cell_angle_gamma	114.546488
loop_
_atom_site_label
_atom_site_type_symbol
_atom_site_fract_x
_atom_site_fract_y
_atom_site_fract_z
O1	O	0.122931	-1.155994	0.079757
O2	O	0.137576	-0.888725	0.079773
O3	O	-0.006808	-1.074386	0.079767
O4	O	0.267315	-0.970333	0.079764
O5	O	-0.006805	-1.074365	-0.079895
O6	O	0.137578	-0.888704	-0.079889
O7	O	0.122934	-1.155973	-0.079905
Zn8	Zn	0.130257	-1.022335	-0.105247
Zn9	Zn	0.130253	-1.022363	0.105115
O10	O	0.267318	-0.970312	-0.079898
C11	C	0.136913	-0.855344	-0.000056
C12	C	0.134925	-0.755913	-0.000050
C13	C	-0.041888	-1.085262	-0.000062
C14	C	-0.146419	-1.117689	-0.000054
N15	N	0.130259	-1.022323	-0.248813
C16	C	-0.434631	-0.795529	-0.000056
C17	C	-0.532857	-0.826023	-0.000060
C18	C	-0.555076	-0.997541	-0.000069
C19	C	-0.456850	-0.967062	-0.000061
C20	C	-0.396635	-0.866055	-0.000055
C21	C	-0.418853	-1.037588	-0.000060
C22	C	-0.320636	-1.007111	-0.000056
C23	C	-0.260415	-0.906108	-0.000054
C24	C	-0.298417	-0.835578	-0.000052
C25	C	-0.479070	-1.138594	-0.000073
C26	C	-0.441073	-1.209120	-0.000072
C27	C	-0.342854	-1.178644	-0.000061
C28	C	-0.282633	-1.077641	-0.000059
C29	C	-0.304852	-1.249174	-0.000063
C30	C	-0.206634	-1.218697	-0.000060
C31	C	-0.184416	-1.047164	-0.000055
C32	C	0.302397	-0.959436	-0.000068
C33	C	0.406929	-0.927009	-0.000069
C34	C	0.123596	-1.189354	-0.000074
C35	C	0.125584	-1.288785	-0.000074
C36	C	0.040753	-0.374309	-0.000070
C37	C	0.212284	-0.296691	-0.000071
C38	C	0.214153	-0.390111	-0.000068
C39	C	0.129321	-0.475634	-0.000065
C40	C	0.042620	-0.467738	-0.000064
C41	C	0.300853	-0.398015	-0.000059
C42	C	0.302726	-0.491439	-0.000055
C43	C	0.217893	-0.576964	-0.000058
C44	C	0.131188	-0.569064	-0.000059
C45	C	0.046356	-0.654587	-0.000055
C46	C	-0.040350	-0.646689	-0.000063
C47	C	-0.042213	-0.553264	-0.000068
C48	C	0.219757	-0.670390	-0.000053
C49	C	0.048223	-0.748017	-0.000049
C50	C	0.073045	-0.986374	-0.299072
C51	C	0.187468	-1.058285	-0.299059
C52	C	0.187467	-1.058297	-0.399554
C53	C	0.130253	-1.022347	-0.449813
C54	C	0.073040	-0.986387	-0.399577
C55	C	0.244672	-1.094266	-0.449799
C56	C	0.244673	-1.094280	-0.550300
C57	C	0.187463	-1.058323	-0.600561
C58	C	0.130249	-1.022360	-0.550318
C59	C	0.073035	-0.986411	-0.600577
C60	C	0.015825	-0.950441	-0.550336
C61	C	0.015831	-0.950431	-0.449837
C62	C	0.187457	-1.058334	-0.701060
C63	C	0.073030	-0.986424	-0.701082
N64	N	0.130243	-1.022385	0.248681
H65	H	-0.135385	-0.964914	-0.000043
Br66	Br	0.327407	-0.180626	-0.000058
H67	H	-0.180440	-0.881296	-0.000056
H68	H	0.026443	-0.957144	-0.741996
H69	H	-0.563788	-0.768584	-0.000074
Br70	Br	0.420396	-0.502151	-0.000045
H71	H	-0.249386	-0.753328	-0.000040
Br72	Br	-0.061828	-0.901665	-0.618557
Br73	Br	0.322306	-1.143062	-0.381587
Br74	Br	-0.061806	-0.901620	-0.381648
H75	H	-0.175697	-1.276126	-0.000060
Br76	Br	-0.066912	-0.864080	-0.000056
Br77	Br	-0.004587	-0.937551	-0.230892
Br78	Br	-0.076915	-0.363592	-0.000089
Br79	Br	0.265082	-1.107159	-0.769241
Br80	Br	0.265102	-1.107083	-0.230850
H81	H	-0.109420	-0.716334	-0.000054
H82	H	-0.112805	-0.546823	-0.000097
Br83	Br	0.322316	-1.143091	-0.618476
H84	H	-0.385600	-0.713279	-0.000044
H85	H	0.369919	-0.328377	-0.000052
H86	H	-0.604116	-1.079781	-0.000078
H87	H	-0.559044	-1.163405	-0.000067
Br88	Br	0.337419	-0.681110	-0.000032
H89	H	-0.490113	-1.291360	-0.000080
H90	H	-0.353893	-1.331414	-0.000078
