data_functionalizedCrystal
_audit_creation_method	'MofGen! by Chris Wilmer'
_symmetry_space_group_name_H-M	'P1'
_symmetry_Int_Tables_number	1
_symmetry_cell_setting	triclinic
loop_
_symmetry_equiv_pos_as_xyz
  x,y,z
_cell_length_a	22.610064
_cell_length_b	23.532407
_cell_length_c	23.532407
_cell_angle_alpha	82.848678
_cell_angle_beta	90.000603
_cell_angle_gamma	90.002839
loop_
_atom_site_label
_atom_site_type_symbol
_atom_site_fract_x
_atom_site_fract_y
_atom_site_fract_z
O1	O	-0.049117	-0.755263	-0.069127
O2	O	0.450883	-0.255263	0.430873
O3	O	-0.049135	-0.589400	-0.079130
O4	O	0.450865	-0.089400	0.420870
O5	O	-0.049114	-0.677333	0.008803
O6	O	0.450886	-0.177333	0.508803
O7	O	-0.049137	-0.667330	-0.157060
O8	O	0.450863	-0.167330	0.342940
O9	O	0.049255	-0.677318	0.008790
O10	O	0.549255	-0.177318	0.508790
O11	O	0.049234	-0.589385	-0.079143
O12	O	0.549234	-0.089385	0.420857
O13	O	0.049252	-0.755248	-0.069140
O14	O	0.549252	-0.255248	0.430860
Zn15	Zn	0.064862	-0.672314	-0.074144
Zn16	Zn	0.564862	-0.172314	0.425856
Zn17	Zn	-0.064744	-0.672334	-0.074127
Zn18	Zn	0.435256	-0.172334	0.425873
O19	O	0.049232	-0.667315	-0.157073
O20	O	0.549232	-0.167315	0.342927
C21	C	0.000048	-0.568176	-0.078882
C22	C	0.500048	-0.068176	0.421118
C23	C	0.000041	-0.504959	-0.078116
C24	C	0.500041	-0.004959	0.421884
N25	N	0.153314	-0.672304	-0.074155
N26	N	0.653314	-0.172304	0.425845
N27	N	-0.153196	-0.672349	-0.074111
N28	N	0.346804	-0.172349	0.425889
C29	C	0.561965	-0.711273	-0.035196
C30	C	1.061965	-0.211273	0.464804
C31	C	0.623884	-0.711276	-0.035192
C32	C	1.123884	-0.211276	0.464808
O33	O	0.655911	-0.744384	-0.002076
O34	O	1.155911	-0.244384	0.497924
N35	N	0.654851	-0.672334	-0.074115
N36	N	1.154851	-0.172334	0.425885
C37	C	0.623895	-0.633383	-0.113041
C38	C	1.123895	-0.133383	0.386959
O39	O	0.655920	-0.600259	-0.146147
O40	O	1.155920	-0.100259	0.353853
C41	C	0.561976	-0.633377	-0.113042
C42	C	1.061976	-0.133377	0.386958
C43	C	0.531013	-0.672326	-0.074120
C44	C	1.031013	-0.172326	0.425880
C45	C	0.531001	-0.750218	0.003724
C46	C	1.031001	-0.250218	0.503724
C47	C	0.469085	-0.750215	0.003719
C48	C	0.969085	-0.250215	0.503719
C49	C	0.438133	-0.711268	-0.035206
C50	C	0.938133	-0.211268	0.464794
C51	C	0.469097	-0.672323	-0.074125
C52	C	0.969097	-0.172323	0.425875
C53	C	0.531021	-0.594424	-0.151965
C54	C	1.031021	-0.094424	0.348035
C55	C	0.469098	-0.594422	-0.151962
C56	C	0.969098	-0.094422	0.348038
C57	C	0.438134	-0.633370	-0.113040
C58	C	0.938134	-0.133370	0.386960
C59	C	0.376229	-0.633374	-0.113054
C60	C	0.876229	-0.133374	0.386946
N61	N	0.345262	-0.672316	-0.074131
N62	N	0.845262	-0.172316	0.425869
C63	C	0.376214	-0.711263	-0.035207
C64	C	0.876214	-0.211263	0.464793
C65	C	0.753928	-0.633396	-0.113035
C66	C	1.253928	-0.133396	0.386965
C67	C	0.815846	-0.633403	-0.113037
C68	C	1.315846	-0.133403	0.386963
C69	C	0.815831	-0.711296	-0.035187
C70	C	1.315831	-0.211296	0.464813
C71	C	0.753913	-0.711291	-0.035188
C72	C	1.253913	-0.211291	0.464812
C73	C	0.722962	-0.672338	-0.074112
C74	C	1.222962	-0.172338	0.425888
C75	C	0.246187	-0.711255	-0.035220
C76	C	0.746187	-0.211255	0.464780
C77	C	0.184266	-0.711251	-0.035230
C78	C	0.684266	-0.211251	0.464770
C79	C	0.184286	-0.633357	-0.113078
C80	C	0.684286	-0.133357	0.386922
C81	C	0.246202	-0.633363	-0.113071
C82	C	0.746202	-0.133363	0.386929
C83	C	0.277151	-0.672314	-0.074137
C84	C	0.777151	-0.172314	0.425863
O85	O	0.344163	-0.600281	-0.146152
O86	O	0.844163	-0.100281	0.353848
O87	O	0.344182	-0.744376	-0.002101
O88	O	0.844182	-0.244376	0.497899
C89	C	0.000072	-0.677071	0.030013
C90	C	0.500072	-0.177071	0.530013
C91	C	0.000076	-0.676305	0.093230
C92	C	0.500076	-0.176305	0.593230
C93	C	0.000069	-0.776472	-0.069388
C94	C	0.500069	-0.276472	0.430612
C95	C	0.000071	-0.839689	-0.070154
C96	C	0.500071	-0.339689	0.429846
C97	C	0.000061	-0.105856	-0.125350
C98	C	0.500061	0.394144	0.374650
C99	C	0.000065	-0.046456	-0.124638
C100	C	0.500065	0.453544	0.375362
O101	O	0.000081	-0.009711	-0.168424
O102	O	0.500081	0.490289	0.331576
N103	N	0.000071	-0.023830	-0.072362
N104	N	0.500071	0.476170	0.427638
C105	C	0.000080	-0.060607	-0.020794
C106	C	0.500080	0.439393	0.479206
O107	O	0.000086	-0.035908	0.023737
O108	O	0.500086	0.464092	0.523737
C109	C	0.000080	-0.120006	-0.021506
C110	C	0.500080	0.379994	0.478494
C111	C	0.000068	-0.142629	-0.073785
C112	C	0.500068	0.357371	0.426215
C113	C	0.000050	-0.128479	-0.177625
C114	C	0.500050	0.371521	0.322375
C115	C	0.000045	-0.187876	-0.178336
C116	C	0.500045	0.312124	0.321664
C117	C	0.000052	-0.224649	-0.126772
C118	C	0.500052	0.275351	0.373228
C119	C	0.000063	-0.202025	-0.074497
C120	C	0.500063	0.297975	0.425503
C121	C	0.000093	-0.156783	0.030062
C122	C	0.500093	0.343217	0.530062
C123	C	0.000094	-0.216185	0.029345
C124	C	0.500094	0.283815	0.529345
C125	C	0.000082	-0.238808	-0.022934
C126	C	0.500082	0.261192	0.477066
C127	C	0.000065	-0.298194	-0.023643
C128	C	0.500065	0.201806	0.476357
N129	N	0.000059	-0.320820	-0.075920
N130	N	0.500059	0.179180	0.424080
C131	C	0.000052	-0.284048	-0.127484
C132	C	0.500052	0.215952	0.372516
C133	C	0.000080	0.064135	-0.019302
C134	C	0.500080	0.564135	0.480698
C135	C	0.000075	0.123533	-0.018589
C136	C	0.500075	0.623533	0.481411
C137	C	0.000061	0.137680	-0.122434
C138	C	0.500061	0.637680	0.377566
C139	C	0.000062	0.078281	-0.123146
C140	C	0.500062	0.578281	0.376854
C141	C	0.000074	0.041509	-0.071578
C142	C	0.500074	0.541509	0.428422
C143	C	0.000042	-0.408784	-0.128974
C144	C	0.500042	0.091216	0.371026
C145	C	0.000034	-0.468186	-0.129680
C146	C	0.500034	0.031814	0.370320
C147	C	0.000051	-0.482329	-0.025836
C148	C	0.500051	0.017671	0.474164
C149	C	0.000055	-0.422932	-0.025129
C150	C	0.500055	0.077068	0.474871
C151	C	0.000052	-0.386160	-0.076702
C152	C	0.500052	0.113840	0.423298
O153	O	0.000052	-0.334974	0.020119
O154	O	0.500052	0.165026	0.520119
O155	O	0.000054	-0.308755	-0.172007
O156	O	0.500054	0.191245	0.327993
C157	C	0.000045	-0.667577	-0.178283
C158	C	0.500045	-0.167577	0.321717
C159	C	0.000036	-0.668343	-0.241500
C160	C	0.500036	-0.168343	0.258500
C161	C	0.000049	-0.723539	0.492333
C162	C	0.500049	-0.223539	0.992333
C163	C	0.000044	-0.722827	0.551733
C164	C	0.500044	-0.222827	1.051733
O165	O	0.000027	-0.766613	0.588478
O166	O	0.500027	-0.266613	1.088478
N167	N	0.000039	-0.670551	0.574359
N168	N	0.500039	-0.170551	1.074359
C169	C	0.000032	-0.618983	0.537582
C170	C	0.500032	-0.118983	1.037582
O171	O	0.000027	-0.574452	0.562281
O172	O	0.500027	-0.074452	1.062281
C173	C	0.000033	-0.619695	0.478182
C174	C	0.500033	-0.119695	0.978182
C175	C	0.000044	-0.671974	0.455560
C176	C	0.500044	-0.171974	0.955560
C177	C	0.000060	-0.775814	0.469710
C178	C	0.500060	-0.275814	0.969710
C179	C	0.000065	-0.776525	0.410313
C180	C	0.500065	-0.276525	0.910313
C181	C	0.000060	-0.724961	0.373540
C182	C	0.500060	-0.224961	0.873540
C183	C	0.000050	-0.672685	0.396164
C184	C	0.500050	-0.172685	0.896164
C185	C	0.000022	-0.568127	0.441406
C186	C	0.500022	-0.068127	0.941406
C187	C	0.000021	-0.568844	0.382004
C188	C	0.500021	-0.068844	0.882004
C189	C	0.000033	-0.621123	0.359381
C190	C	0.500033	-0.121123	0.859381
C191	C	0.000050	-0.621832	0.299995
C192	C	0.500050	-0.121832	0.799995
N193	N	0.000056	-0.674109	0.277368
N194	N	0.500056	-0.174109	0.777368
C195	C	0.000061	-0.725673	0.314141
C196	C	0.500061	-0.225673	0.814141
C197	C	0.000031	-0.617491	0.662324
C198	C	0.500031	-0.117491	1.162324
C199	C	0.000034	-0.616778	0.721722
C200	C	0.500034	-0.116778	1.221722
C201	C	0.000045	-0.720623	0.735869
C202	C	0.500045	-0.220623	1.235869
C203	C	0.000046	-0.721335	0.676470
C204	C	0.500046	-0.221335	1.176470
C205	C	0.000036	-0.669767	0.639698
C206	C	0.500036	-0.169767	1.139698
C207	C	0.000073	-0.727163	0.189405
C208	C	0.500073	-0.227163	0.689405
C209	C	0.000081	-0.727869	0.130003
C210	C	0.500081	-0.227869	0.630003
C211	C	0.000067	-0.624025	0.115860
C212	C	0.500067	-0.124025	0.615860
C213	C	0.000062	-0.623318	0.175257
C214	C	0.500062	-0.123318	0.675257
C215	C	0.000063	-0.674891	0.212029
C216	C	0.500063	-0.174891	0.712029
O217	O	0.000065	-0.578070	0.263215
O218	O	0.500065	-0.078070	0.763215
O219	O	0.000058	-0.770196	0.289433
O220	O	0.500058	-0.270196	0.789433
H221	H	0.159057	-0.742969	-0.003535
H222	H	0.659057	-0.242969	0.496465
N223	N	0.720548	-0.591382	-0.155022
N224	N	1.220548	-0.091382	0.344978
H225	H	0.749565	-0.566716	-0.179676
H226	H	1.249565	-0.066716	0.320324
H227	H	0.694854	-0.613035	-0.180093
H228	H	1.194854	-0.113035	0.319907
N229	N	0.150896	-0.591351	-0.155060
N230	N	0.650896	-0.091351	0.344940
H231	H	0.106973	-0.597261	-0.149151
H232	H	0.606973	-0.097261	0.350849
H233	H	0.161722	-0.550991	-0.148680
H234	H	0.661722	-0.050991	0.351320
H235	H	0.556223	-0.562709	-0.183658
H236	H	1.056223	-0.062709	0.316342
H237	H	0.841052	-0.601694	-0.144737
H238	H	1.341052	-0.101694	0.355263
N239	N	0.000096	-0.784261	0.105606
N240	N	0.500096	-0.284261	0.605606
H241	H	-0.036368	-0.806842	0.119034
H242	H	0.463632	-0.306842	0.619034
H243	H	0.000123	-0.776844	0.062401
H244	H	0.500123	-0.276844	0.562401
N245	N	0.000052	-0.566933	0.199663
N246	N	0.500052	-0.066933	0.699663
H247	H	0.036513	-0.564315	0.223997
H248	H	0.536513	-0.064315	0.723997
H249	H	0.000029	-0.534409	0.167321
H250	H	0.500029	-0.034409	0.667321
N251	N	0.000025	-0.561868	0.622664
N252	N	0.500025	-0.061868	1.122664
H253	H	0.000023	-0.528647	0.646015
H254	H	0.500023	-0.028647	1.146015
H255	H	0.036492	-0.559894	0.597711
H256	H	0.536492	-0.059894	1.097711
N257	N	0.000061	-0.568417	0.076183
N258	N	0.500061	-0.068417	0.576183
H259	H	-0.036409	-0.545599	0.083420
H260	H	0.463591	-0.045599	0.583420
H261	H	0.036546	-0.545628	0.083439
H262	H	0.536546	-0.045628	0.583439
H263	H	0.271379	-0.742973	-0.003516
H264	H	0.771379	-0.242973	0.496484
N265	N	0.435718	-0.552410	-0.193950
N266	N	0.935718	-0.052410	0.306050
H267	H	0.391793	-0.558315	-0.188050
H268	H	0.891793	-0.058315	0.311950
H269	H	0.446546	-0.512050	-0.187572
H270	H	0.946546	-0.012050	0.312428
N271	N	0.564377	-0.792235	0.045705
N272	N	1.064377	-0.292235	0.545705
H273	H	0.608302	-0.786338	0.039806
H274	H	1.108302	-0.286338	0.539806
H275	H	0.553552	-0.785890	0.086074
H276	H	1.053552	-0.285890	0.586074
H277	H	0.271413	-0.601653	-0.144770
H278	H	0.771413	-0.101653	0.355230
H279	H	0.443878	-0.781929	0.035414
H280	H	0.943878	-0.281929	0.535414
N281	N	0.000079	0.024472	0.036319
N282	N	0.500079	0.524472	0.536319
H283	H	0.036545	-0.000486	0.038339
H284	H	0.536545	0.499514	0.538339
H285	H	0.000059	0.047862	0.069509
H286	H	0.500059	0.547862	0.569509
H287	H	0.000071	-0.769159	0.219337
H288	H	0.500071	-0.269159	0.719337
H289	H	0.000056	-0.404512	0.017441
H290	H	0.500056	0.095488	0.517441
N291	N	0.000015	-0.492586	-0.186070
N292	N	0.500015	0.007414	0.313930
H293	H	0.000012	-0.460274	-0.218626
H294	H	0.500012	0.039726	0.281374
H295	H	0.036478	-0.516924	-0.188636
H296	H	0.536478	-0.016924	0.311364
H297	H	0.728706	-0.743005	-0.003494
H298	H	1.228706	-0.243005	0.496506
H299	H	0.000041	-0.378851	-0.170970
H300	H	0.500041	0.121149	0.329030
H301	H	0.000055	0.059867	-0.165717
H302	H	0.500055	0.559867	0.334283
H303	H	0.000061	-0.817806	0.499645
H304	H	0.500061	-0.317806	0.999645
N305	N	0.000002	-0.511742	0.465802
N306	N	0.500002	-0.011742	0.965802
H307	H	0.036464	-0.509118	0.490133
H308	H	0.536464	-0.009118	0.990133
H309	H	-0.000028	-0.479220	0.433458
H310	H	0.499972	0.020780	0.933458
N311	N	0.849221	-0.753305	0.006797
N312	N	1.349221	-0.253305	0.506797
H313	H	0.893144	-0.747393	0.000890
H314	H	1.393144	-0.247393	0.500890
H315	H	0.838400	-0.746956	0.047167
H316	H	1.338400	-0.246956	0.547167
N317	N	0.000029	-0.212272	-0.234724
N318	N	0.500029	0.287728	0.265276
H319	H	0.000025	-0.179956	-0.267277
H320	H	0.500025	0.320044	0.232723
H321	H	0.036494	-0.236607	-0.237292
H322	H	0.536494	0.263393	0.262708
N323	N	0.000099	0.177351	-0.178051
N324	N	0.500099	0.677351	0.321949
H325	H	0.000106	0.154010	-0.211280
H326	H	0.500106	0.654010	0.288720
H327	H	-0.036354	0.202321	-0.180036
H328	H	0.463646	0.702321	0.319964
H329	H	0.000046	-0.098544	-0.219617
H330	H	0.500046	0.401456	0.280383
N331	N	0.000061	-0.521994	0.029779
N332	N	0.500061	-0.021994	0.529779
H333	H	-0.036403	-0.546958	0.031805
H334	H	0.463597	-0.046958	0.531805
H335	H	0.036553	-0.546913	0.031752
H336	H	0.536553	-0.046913	0.531752
N337	N	0.000077	0.147930	0.037797
N338	N	0.500077	0.647930	0.537797
H339	H	0.000081	0.115616	0.070352
H340	H	0.500081	0.615616	0.570352
H341	H	0.036546	0.172266	0.040353
H342	H	0.536546	0.672266	0.540353
H343	H	0.000103	-0.138375	0.072634
H344	H	0.500103	0.361625	0.572634
H345	H	0.000104	-0.246123	0.071339
H346	H	0.500104	0.253877	0.571339
H347	H	0.000013	-0.526850	0.352066
H348	H	0.500013	-0.026850	0.852066
H349	H	0.000072	-0.819097	0.391900
H350	H	0.500072	-0.319097	0.891900
N351	N	0.000058	-0.777722	0.652072
N352	N	0.500058	-0.277722	1.152072
H353	H	0.000063	-0.810276	0.684386
H354	H	0.500063	-0.310276	1.184386
H355	H	-0.036408	-0.780289	0.627737
H356	H	0.463592	-0.280289	1.127737
H357	H	0.000047	-0.762610	0.765821
H358	H	0.500047	-0.262610	1.265821
N359	N	0.000038	-0.560392	0.746119
N360	N	0.500038	-0.060392	1.246119
H361	H	0.000038	-0.527837	0.713805
H362	H	0.500038	-0.027837	1.213805
H363	H	-0.036429	-0.557833	0.770454
H364	H	0.463571	-0.057833	1.270454
