data_functionalizedCrystal
_audit_creation_method	'MofGen! by Chris Wilmer'
_symmetry_space_group_name_H-M	'P1'
_symmetry_Int_Tables_number	1
_symmetry_cell_setting	triclinic
loop_
_symmetry_equiv_pos_as_xyz
  x,y,z
_cell_length_a	19.121241
_cell_length_b	19.121725
_cell_length_c	21.395355
_cell_angle_alpha	87.577530
_cell_angle_beta	92.468583
_cell_angle_gamma	90.127435
loop_
_atom_site_label
_atom_site_type_symbol
_atom_site_fract_x
_atom_site_fract_y
_atom_site_fract_z
Zn1	Zn	1.083743	-0.233551	0.404471
Zn2	Zn	1.088639	-0.350768	0.304344
Zn3	Zn	0.966491	-0.238542	0.295428
Zn4	Zn	0.971460	-0.355737	0.404806
O5	O	1.027583	-0.294650	0.352262
O6	O	1.182502	-0.244932	0.394780
O7	O	1.072405	-0.335890	0.215483
O8	O	0.977916	-0.139778	0.306021
O9	O	1.186099	-0.331051	0.321217
O10	O	1.064060	-0.136111	0.386135
O11	O	0.982663	-0.253438	0.208932
O12	O	0.869040	-0.258256	0.306346
O13	O	0.986386	-0.339520	0.492441
O14	O	0.872691	-0.344359	0.386706
O15	O	1.068879	-0.249751	0.492194
O16	O	1.077223	-0.449530	0.321542
O17	O	0.991133	-0.453180	0.395351
C18	C	0.845427	-0.302389	0.345595
C19	C	0.767500	-0.305717	0.342758
C20	C	1.035268	-0.476791	0.359465
C21	C	1.038619	-0.554709	0.362570
C22	C	0.995384	-0.593285	0.322293
C23	C	0.998540	-0.666497	0.325213
C24	C	1.044929	-0.701132	0.368413
C25	C	1.088169	-0.662551	0.408692
C26	C	1.085016	-0.589340	0.405768
C27	C	1.056695	-0.922083	0.379326
C28	C	1.059844	-0.995299	0.382248
C29	C	0.970215	-0.999240	0.298768
C30	C	0.967063	-0.926028	0.295850
C31	C	1.010306	-0.887453	0.336127
C32	C	1.048155	-0.775967	0.371400
C33	C	1.007083	-0.812620	0.333136
C34	C	0.729021	-0.262514	0.379790
C35	C	0.655801	-0.265637	0.377119
C36	C	0.621061	-0.311968	0.337419
C37	C	0.659546	-0.355172	0.300383
C38	C	0.732764	-0.352045	0.303052
C39	C	0.400081	-0.323647	0.327441
C40	C	0.326857	-0.326773	0.324777
C41	C	0.323117	-0.237237	0.401512
C42	C	0.396338	-0.234116	0.404179
C43	C	0.434816	-0.277318	0.367141
C44	C	0.546218	-0.315163	0.334690
C45	C	0.509657	-0.274119	0.369868
C46	C	1.210451	-0.286881	0.358956
C47	C	1.288378	-0.283570	0.361809
C48	C	1.027641	-0.294633	0.515687
C49	C	1.027665	-0.294626	0.585329
C50	C	1.019888	-0.111796	0.345046
C51	C	1.016608	-0.033875	0.341971
C52	C	1.027564	-0.294614	0.189473
C53	C	1.027667	-0.294418	0.119828
C54	C	1.070618	-0.247881	0.617915
C55	C	1.070615	-0.247851	0.683349
C56	C	1.027669	-0.294578	0.716196
C57	C	0.984708	-0.341326	0.683602
C58	C	0.984706	-0.341350	0.618169
C59	C	1.024796	-0.357936	0.822165
C60	C	1.024803	-0.357913	0.887597
C61	C	1.027670	-0.294504	0.918014
C62	C	1.030545	-0.231115	0.882991
C63	C	1.030543	-0.231139	0.817558
C64	C	1.027665	-0.294557	0.787147
C65	C	1.070622	-0.247722	1.021551
C66	C	1.070615	-0.247691	1.086986
C67	C	0.984711	-0.341173	1.087238
C68	C	0.984714	-0.341198	1.021804
C69	C	1.027674	-0.294473	0.988964
H70	H	0.957606	-0.565091	0.287117
H71	H	1.120224	-0.557932	0.438565
H72	H	0.291781	-0.202063	0.431665
H73	H	1.032883	-0.179525	0.789044
C74	C	0.289265	-0.377099	0.281609
C75	C	0.338632	-0.414252	0.249732
C76	C	0.304028	-0.460611	0.209959
H77	H	0.262013	-0.408965	0.305637
H78	H	0.259563	-0.351472	0.252216
H79	H	0.368323	-0.439878	0.279121
H80	H	0.365887	-0.382404	0.225692
H81	H	0.274326	-0.434984	0.180566
H82	H	0.276777	-0.492473	0.233992
H83	H	0.337518	-0.485821	0.188321
C84	C	1.117290	-0.197044	1.122457
C85	C	1.163881	-0.234814	1.163272
C86	C	1.206880	-0.188180	1.195965
H87	H	1.142940	-0.169201	1.093601
H88	H	1.089201	-0.167639	1.145814
H89	H	1.191967	-0.264207	1.139916
H90	H	1.138250	-0.262654	1.192140
H91	H	1.178791	-0.158774	1.219323
H92	H	1.232525	-0.160339	1.167105
H93	H	1.238493	-0.213799	1.223666
C94	C	0.938190	-0.392144	0.582711
C95	C	0.979780	-0.435393	0.548383
C96	C	0.936955	-0.482188	0.515704
H97	H	0.912596	-0.420037	0.611571
H98	H	0.906527	-0.366653	0.554957
H99	H	1.011430	-0.460882	0.576134
H100	H	1.005374	-0.407519	0.519512
H101	H	0.905292	-0.456697	0.487950
H102	H	0.911362	-0.510076	0.544568
H103	H	0.965167	-0.511533	0.492404
H104	H	1.105598	-0.209673	0.994811
C105	C	0.923191	-1.040999	0.255005
C106	C	0.881881	-0.994998	0.216557
C107	C	0.838547	-1.033440	0.176238
H108	H	0.951177	-1.068415	0.229789
H109	H	0.893821	-1.070859	0.278956
H110	H	0.911247	-0.965150	0.192609
H111	H	0.853880	-0.967581	0.241756
H112	H	0.809177	-1.063300	0.200189
H113	H	0.866539	-1.060855	0.151026
H114	H	0.810508	-1.002234	0.150150
C115	C	0.938164	-0.391882	1.123007
C116	C	0.947372	-0.381871	1.187287
C117	C	0.904512	-0.428580	1.220261
H118	H	0.890597	-0.383681	1.110219
H119	H	0.950422	-0.438566	1.114566
H120	H	0.935110	-0.335198	1.195725
H121	H	0.994930	-0.390078	1.200094
H122	H	0.916769	-0.475264	1.211819
H123	H	0.856947	-0.420375	1.207467
H124	H	0.910758	-0.421799	1.263878
C125	C	1.033500	-0.162274	0.916027
C126	C	0.973814	-0.155868	0.951030
C127	C	0.976505	-0.092458	0.981465
H128	H	1.074129	-0.161366	0.943140
H129	H	1.035171	-0.124511	0.885812
H130	H	0.972150	-0.193621	0.981243
H131	H	0.933176	-0.156763	0.923933
H132	H	0.978176	-0.054695	0.951249
H133	H	1.017136	-0.091556	1.008574
H134	H	0.936007	-0.088100	1.005214
H135	H	1.097610	-1.023497	0.417438
H136	H	0.969316	-0.784418	0.297960
H137	H	1.091904	-0.890681	0.412122
C138	C	0.938005	-0.392090	0.719146
C139	C	0.900375	-0.433023	0.676599
C140	C	0.857335	-0.479788	0.709318
H141	H	0.966036	-0.421554	0.746873
H142	H	0.906294	-0.366579	0.742469
H143	H	0.932082	-0.458533	0.653287
H144	H	0.872331	-0.403579	0.648871
H145	H	0.825623	-0.454276	0.732640
H146	H	0.885371	-0.509246	0.737043
H147	H	0.831793	-0.507562	0.680454
H148	H	1.125943	-0.690756	0.443864
C149	C	0.614149	-0.218699	0.417398
C150	C	0.660245	-0.177472	0.452750
C151	C	0.621901	-0.134228	0.489869
H152	H	0.584276	-0.189271	0.391292
H153	H	0.586750	-0.246764	0.444712
H154	H	0.687632	-0.149410	0.425439
H155	H	0.690118	-0.206882	0.478868
H156	H	0.594502	-0.162293	0.517184
H157	H	0.592029	-0.104804	0.463758
H158	H	0.653171	-0.106255	0.513864
H159	H	0.537945	-0.236394	0.402188
C160	C	1.098571	-0.813443	0.418341
C161	C	1.135767	-0.763994	0.452991
C162	C	1.182217	-0.798494	0.496237
H163	H	1.073027	-0.843146	0.445829
H164	H	1.130404	-0.840680	0.396681
H165	H	1.103938	-0.736770	0.474650
H166	H	1.161325	-0.734290	0.425521
H167	H	1.214050	-0.825730	0.474577
H168	H	1.156667	-0.828196	0.523720
H169	H	1.207464	-0.764948	0.519748
C170	C	0.766778	-0.212327	0.422977
C171	C	0.810503	-0.250292	0.466194
C172	C	0.845287	-0.204082	0.505993
H173	H	0.794091	-0.180507	0.398960
H174	H	0.733395	-0.187055	0.444687
H175	H	0.843882	-0.275552	0.444487
H176	H	0.783208	-0.282110	0.490226
H177	H	0.811904	-0.178810	0.527702
H178	H	0.872595	-0.172265	0.481970
H179	H	0.874953	-0.229835	0.535323
H180	H	0.963335	-0.697903	0.292414
H181	H	0.949742	-0.379266	0.995272
C182	C	0.433923	-0.183735	0.447292
C183	C	0.384552	-0.146552	0.479138
C184	C	0.419149	-0.100128	0.518852
H185	H	0.463640	-0.209294	0.476709
H186	H	0.461160	-0.151896	0.423207
H187	H	0.357328	-0.178386	0.503222
H188	H	0.354834	-0.120979	0.449736
H189	H	0.446386	-0.068289	0.494767
H190	H	0.448865	-0.125693	0.548266
H191	H	0.385656	-0.074889	0.540460
H192	H	0.929290	-0.897830	0.260673
H193	H	0.431401	-0.358826	0.297282
C194	C	0.621703	-0.405453	0.257342
C195	C	0.549345	-0.398961	0.262944
C196	C	0.514465	-0.445277	0.223311
H197	H	0.633158	-0.394660	0.215260
H198	H	0.635663	-0.452075	0.268749
H199	H	0.535391	-0.352350	0.251533
H200	H	0.537869	-0.409760	0.305017
H201	H	0.528425	-0.491899	0.234718
H202	H	0.525925	-0.434481	0.181232
H203	H	0.465367	-0.440883	0.227111
C204	C	1.117275	-0.197070	0.582372
C205	C	1.154877	-0.156113	0.624919
C206	C	1.197856	-0.109290	0.592198
H207	H	1.149009	-0.222516	0.559032
H208	H	1.089183	-0.167633	0.554660
H209	H	1.182967	-0.185546	0.652620
H210	H	1.123160	-0.130651	0.648261
H211	H	1.169763	-0.079854	0.564486
H212	H	1.229585	-0.134743	0.568859
H213	H	1.223369	-0.081491	0.621061
C214	C	1.021643	-0.426804	0.925507
C215	C	1.019102	-0.482339	0.884865
C216	C	1.016180	-0.545812	0.919763
H217	H	1.062067	-0.431353	0.952763
H218	H	0.980948	-0.427643	0.949486
H219	H	1.059792	-0.481501	0.860896
H220	H	0.978679	-0.477812	0.857609
H221	H	0.975486	-0.546651	0.943742
H222	H	1.056606	-0.550354	0.947017
H223	H	1.014450	-0.583499	0.892193
H224	H	0.764093	-0.387225	0.272896
C225	C	1.117302	-0.197213	0.718824
C226	C	1.163893	-0.234994	0.759629
C227	C	1.206906	-0.188371	0.792322
H228	H	1.142952	-0.169371	0.689967
H229	H	1.089223	-0.167805	0.742188
H230	H	1.191970	-0.264390	0.736266
H231	H	1.138263	-0.262834	0.788498
H232	H	1.178827	-0.158964	0.815686
H233	H	1.232551	-0.160532	0.763460
H234	H	1.238519	-0.213999	0.820016
H235	H	1.022273	-0.409566	0.797398
H236	H	0.517925	-0.352885	0.302366
