data_functionalizedCrystal
_audit_creation_method	'MofGen! by Chris Wilmer'
_symmetry_space_group_name_H-M	'P1'
_symmetry_Int_Tables_number	1
_symmetry_cell_setting	triclinic
loop_
_symmetry_equiv_pos_as_xyz
  x,y,z
_cell_length_a	8.597340
_cell_length_b	14.044220
_cell_length_c	7.681215
_cell_angle_alpha	84.080932
_cell_angle_beta	91.321741
_cell_angle_gamma	89.223217
loop_
_atom_site_label
_atom_site_type_symbol
_atom_site_fract_x
_atom_site_fract_y
_atom_site_fract_z
O1	O	2.085532	0.132218	0.169985
O2	O	1.636817	0.146867	0.101900
O3	O	1.854437	0.001551	0.134938
O4	O	1.867911	0.277535	0.136947
O5	O	1.826067	-0.014479	0.423505
O6	O	1.608446	0.130838	0.390467
O7	O	2.057161	0.116189	0.458552
Zn8	Zn	1.828299	0.120968	0.470326
Zn9	Zn	1.865679	0.142088	0.090126
O10	O	1.839540	0.261506	0.425514
C11	C	1.564858	0.138172	0.237418
C12	C	1.392713	0.136134	0.211298
C13	C	1.834355	-0.041784	0.278327
C14	C	1.816767	-0.147027	0.275661
C15	C	1.784615	-0.339719	0.270757
C16	C	1.909358	-0.397230	0.289679
C17	C	1.891468	-0.504450	0.286950
C18	C	1.802502	-0.232489	0.273485
C19	C	2.129120	0.124884	0.323031
C20	C	2.301267	0.126923	0.349139
C21	C	1.859623	0.304841	0.282121
C22	C	1.877212	0.410085	0.284776
N23	N	1.802800	0.106554	0.729804
N24	N	1.891189	0.156494	-0.169350
H25	H	1.354673	0.120589	0.487140
C26	C	1.320572	0.144686	0.024849
C27	C	1.219783	0.063514	-0.034192
C28	C	1.147643	0.072065	-0.220637
C29	C	1.176291	0.161789	-0.348041
C30	C	1.277084	0.242967	-0.289002
C31	C	1.349225	0.234415	-0.102557
H32	H	1.198572	-0.002910	0.060122
H33	H	1.073029	0.011971	-0.264340
H34	H	1.122888	0.168119	-0.486058
H35	H	1.298296	0.309391	-0.383317
H36	H	1.423839	0.294509	-0.058854
H37	H	2.029601	-0.365935	0.307806
C38	C	1.622196	-0.381980	0.246109
C39	C	1.604304	-0.490771	0.243384
C40	C	1.441887	-0.533046	0.218739
C41	C	1.297362	-0.466528	0.196819
C42	C	1.315248	-0.357730	0.199544
C43	C	1.477665	-0.315456	0.224189
H44	H	1.711295	-0.540017	0.259611
H45	H	1.428648	-0.613586	0.216722
H46	H	1.177131	-0.497823	0.178575
H47	H	1.208257	-0.308484	0.183317
H48	H	1.490905	-0.234915	0.226206
H49	H	1.712617	0.055582	0.791364
H50	H	1.981386	0.207465	0.769082
