data_functionalizedCrystal
_audit_creation_method	'MofGen! by Chris Wilmer'
_symmetry_space_group_name_H-M	'P1'
_symmetry_Int_Tables_number	1
_symmetry_cell_setting	triclinic
loop_
_symmetry_equiv_pos_as_xyz
  x,y,z
_cell_length_a	8.559649
_cell_length_b	8.634740
_cell_length_c	7.681481
_cell_angle_alpha	96.633200
_cell_angle_beta	94.913240
_cell_angle_gamma	94.825514
loop_
_atom_site_label
_atom_site_type_symbol
_atom_site_fract_x
_atom_site_fract_y
_atom_site_fract_z
O1	O	2.099591	0.035284	-0.146401
O2	O	1.646427	-0.042928	-0.146409
O3	O	1.851558	0.218114	-0.146401
O4	O	1.894460	-0.225758	-0.146409
O5	O	1.876796	0.250309	0.146458
O6	O	1.671665	-0.010733	0.146450
O7	O	2.124829	0.067479	0.146457
Zn8	Zn	1.902254	0.033484	0.192951
Zn9	Zn	1.869002	-0.008933	-0.192903
O10	O	1.919698	-0.193563	0.146450
C11	C	1.600429	-0.032757	0.000020
C12	C	1.425765	-0.050400	0.000017
C13	C	1.854458	0.290510	0.000025
C14	C	1.825479	0.458261	0.000017
C15	C	2.170827	0.057308	0.000025
C16	C	2.345490	0.074950	0.000017
N17	N	1.924960	0.062436	0.456286
C18	C	1.916798	-0.265960	0.000019
C19	C	1.945776	-0.433712	0.000016
N20	N	1.846307	-0.037871	-0.456238
H21	H	1.410387	0.195764	0.000010
C22	C	2.033436	0.200754	0.557874
H23	H	2.030966	0.197605	0.680835
H24	H	2.138138	0.193520	0.527725
H25	H	1.998098	0.296480	0.527752
H26	H	1.360859	-0.171224	0.000005
C27	C	2.114861	0.517873	0.000030
H28	H	2.112813	0.407698	0.000048
H29	H	2.159249	0.546785	-0.102091
H30	H	2.176834	0.569246	0.102175
C31	C	1.656386	0.506682	0.000012
H32	H	1.658432	0.616860	0.000020
H33	H	1.594402	0.455306	-0.102111
H34	H	1.612014	0.477775	0.102155
C35	C	1.737838	-0.176183	0.442182
H36	H	1.740295	-0.173020	0.319222
H37	H	1.773158	-0.271906	0.472307
H38	H	1.633127	-0.168935	0.472324
