data_functionalizedCrystal
_audit_creation_method	'MofGen! by Chris Wilmer'
_symmetry_space_group_name_H-M	'P1'
_symmetry_Int_Tables_number	1
_symmetry_cell_setting	triclinic
loop_
_symmetry_equiv_pos_as_xyz
  x,y,z
_cell_length_a	11.792241
_cell_length_b	10.654550
_cell_length_c	9.730223
_cell_angle_alpha	90.000193
_cell_angle_beta	90.003985
_cell_angle_gamma	95.660841
loop_
_atom_site_label
_atom_site_type_symbol
_atom_site_fract_x
_atom_site_fract_y
_atom_site_fract_z
O1	O	1.507300	-0.172130	-0.114153
O2	O	1.177000	-0.189870	-0.114184
O3	O	1.349744	0.001761	-0.114163
O4	O	1.334556	-0.363761	-0.114174
O5	O	1.349742	0.001756	0.114417
O6	O	1.176998	-0.189875	0.114396
O7	O	1.507298	-0.172135	0.114427
Zn8	Zn	1.342148	-0.181006	0.150703
Zn9	Zn	1.342150	-0.180999	-0.150460
O10	O	1.334554	-0.363766	0.114406
C11	C	1.134705	-0.188758	0.000102
C12	C	1.008684	-0.185423	0.000090
C13	C	1.348628	0.048553	0.000126
C14	C	1.345291	0.187987	0.000120
C15	C	1.335670	-0.410558	0.000114
C16	C	1.339006	-0.549992	0.000111
C17	C	0.777958	-0.179290	0.000129
C18	C	0.906351	-0.182697	0.000107
C19	C	1.549592	-0.173247	0.000138
C20	C	1.675614	-0.176582	0.000141
N21	N	1.342154	-0.181009	0.356240
C22	C	1.447000	0.267760	0.000134
C23	C	1.443858	0.398772	0.000124
C24	C	1.237290	0.370224	0.000092
C25	C	1.240433	0.239215	0.000093
C26	C	1.551859	0.216532	0.000162
C27	C	1.653577	0.296307	0.000178
C28	C	1.650435	0.427319	0.000168
C29	C	1.545575	0.478556	0.000142
N30	N	1.342153	-0.180986	-0.355997
C31	C	1.418665	-0.096184	0.428175
C32	C	1.418662	-0.096169	0.572058
C33	C	1.265633	-0.265815	0.572057
C34	C	1.265632	-0.265823	0.428177
C35	C	1.495187	-0.011370	0.356238
C36	C	1.571705	0.073461	0.428174
C37	C	1.571702	0.073477	0.572057
C38	C	1.495181	-0.011339	0.644004
H39	H	1.554429	0.109857	0.000174
O40	O	1.645949	0.155773	0.358078
C41	C	1.629508	0.137618	0.215659
H42	H	1.587923	0.038063	0.195996
H43	H	1.715338	0.151021	0.160961
H44	H	1.571972	0.209088	0.174857
O45	O	1.646132	0.155927	0.641724
C46	C	1.713646	0.230802	0.547371
H47	H	1.715328	0.179289	0.444815
H48	H	1.804137	0.249283	0.588950
H49	H	1.676070	0.324376	0.532054
H50	H	1.495178	-0.011311	0.761163
O51	O	1.191421	-0.348160	0.642156
C52	C	1.207812	-0.329943	0.784574
H53	H	1.297681	-0.283675	0.804225
H54	H	1.195932	-0.424956	0.839262
H55	H	1.143080	-0.266471	0.825398
H56	H	1.157612	0.174261	0.000083
O57	O	1.542378	0.605801	0.000309
C58	C	1.484700	0.641755	0.118701
H59	H	1.426201	0.557927	0.158170
H60	H	1.431825	0.722385	0.092064
H61	H	1.549431	0.674026	0.201602
H62	H	1.495199	-0.011377	0.239082
H63	H	1.203328	-0.334895	0.369607
H64	H	1.738949	0.254580	0.000164
H65	H	1.733258	0.492268	0.000166
O66	O	1.135409	0.419934	-0.000166
C67	C	1.073333	0.379217	-0.118539
H68	H	1.134628	0.351553	-0.201277
H69	H	1.024421	0.458903	-0.158279
H70	H	1.010754	0.294274	-0.091783
