data_functionalizedCrystal
_audit_creation_method	'MofGen! by Chris Wilmer'
_symmetry_space_group_name_H-M	'P1'
_symmetry_Int_Tables_number	1
_symmetry_cell_setting	triclinic
loop_
_symmetry_equiv_pos_as_xyz
  x,y,z
_cell_length_a	8.597366
_cell_length_b	8.559649
_cell_length_c	7.088929
_cell_angle_alpha	84.655564
_cell_angle_beta	103.954530
_cell_angle_gamma	77.624671
loop_
_atom_site_label
_atom_site_type_symbol
_atom_site_fract_x
_atom_site_fract_y
_atom_site_fract_z
O1	O	2.074461	0.219466	0.182742
O2	O	1.606581	0.245558	0.105667
O3	O	1.881742	-0.000149	0.150998
O4	O	1.799300	0.465172	0.137411
O5	O	1.918524	-0.033059	0.475033
O6	O	1.643363	0.212647	0.429701
O7	O	2.111242	0.186556	0.506777
Cu8	Cu	1.880661	0.196596	0.497826
Cu9	Cu	1.837163	0.235517	0.114617
O10	O	1.836082	0.432262	0.461445
C11	C	1.565628	0.228135	0.257908
C12	C	1.388803	0.225231	0.228778
C13	C	1.906380	-0.076142	0.314041
C14	C	1.924976	-0.253547	0.317095
C15	C	2.152195	0.203979	0.354532
C16	C	2.329019	0.206884	0.383648
N17	N	1.911267	0.169221	0.767356
C18	C	1.811443	0.508256	0.298398
C19	C	1.792846	0.685662	0.295331
N20	N	1.806571	0.262879	-0.154910
H21	H	1.304711	0.238707	0.073892
H22	H	2.052326	0.662776	0.338085
H23	H	1.665489	0.769346	0.274362
H24	H	1.413122	0.193396	0.538546
H25	H	1.698066	0.359937	0.745568
H26	H	2.019790	0.072169	0.866891
