data_functionalizedCrystal
_audit_creation_method	'MofGen! by Chris Wilmer'
_symmetry_space_group_name_H-M	'P1'
_symmetry_Int_Tables_number	1
_symmetry_cell_setting	triclinic
loop_
_symmetry_equiv_pos_as_xyz
  x,y,z
_cell_length_a	16.109302
_cell_length_b	16.109304
_cell_length_c	9.730223
_cell_angle_alpha	89.998411
_cell_angle_beta	89.994768
_cell_angle_gamma	83.462209
loop_
_atom_site_label
_atom_site_type_symbol
_atom_site_fract_x
_atom_site_fract_y
_atom_site_fract_z
O1	O	1.103131	0.106870	-0.114343
O2	O	0.861069	0.120168	-0.114331
O3	O	0.988749	-0.007512	-0.114338
O4	O	0.975452	0.234550	-0.114336
O5	O	0.988741	-0.007515	0.114242
O6	O	0.861061	0.120165	0.114249
O7	O	1.103123	0.106866	0.114237
Zn8	Zn	0.982091	0.113515	0.150535
Zn9	Zn	0.982102	0.113520	-0.150629
O10	O	0.975444	0.234546	0.114244
C11	C	0.830090	0.119628	-0.000040
C12	C	0.737795	0.118012	-0.000036
C13	C	0.525450	0.114275	0.124550
C14	C	0.438730	0.112749	0.124545
C15	C	0.438749	0.112757	-0.124665
C16	C	0.525468	0.114277	-0.124659
C17	C	0.568816	0.115041	-0.000048
C18	C	0.395377	0.111994	-0.000059
C19	C	0.301351	0.110338	-0.000065
C20	C	0.662848	0.116695	-0.000041
C21	C	0.988206	-0.038488	-0.000051
C22	C	0.986590	-0.130784	-0.000060
C23	C	0.982860	-0.343119	-0.124654
C24	C	0.981334	-0.429839	-0.124653
C25	C	0.981330	-0.429840	0.124558
C26	C	0.982850	-0.343121	0.124555
C27	C	0.983619	-0.299763	-0.000055
C28	C	0.980573	-0.473202	-0.000051
C29	C	0.978918	-0.567228	-0.000049
C30	C	0.985272	-0.205731	-0.000058
C31	C	1.134102	0.107407	-0.000057
C32	C	1.226397	0.109022	-0.000071
C33	C	0.975987	0.265523	-0.000046
C34	C	0.977603	0.357818	-0.000046
N35	N	0.982090	0.113511	0.356071
N36	N	0.982109	0.113517	-0.356165
C37	C	1.038645	0.056998	0.427994
C38	C	1.038653	0.056999	0.571877
C39	C	0.925548	0.170032	0.571902
C40	C	0.925536	0.170027	0.428021
H41	H	0.560741	0.114897	0.226017
H42	H	0.403425	0.112125	0.226005
H43	H	0.403445	0.112136	-0.226120
H44	H	0.560778	0.114899	-0.226127
O45	O	0.870678	0.225044	0.358210
C46	C	0.884153	0.307355	0.393372
H47	H	0.950716	0.307787	0.432900
H48	H	0.838070	0.331763	0.476900
C49	C	0.789451	0.363180	0.217002
C50	C	0.871208	0.363711	0.265540
H51	H	0.781462	0.397945	0.138153
H52	H	0.780370	0.307726	0.193316
H53	H	0.751058	0.383518	0.286621
H54	H	0.909598	0.343363	0.195928
H55	H	0.880295	0.419163	0.289212
O56	O	0.983561	-0.301123	-0.245818
C57	C	0.982584	-0.357994	-0.355790
H58	H	0.955194	-0.416360	-0.319252
H59	H	1.049082	-0.375958	-0.394114
C60	C	0.962325	-0.245317	-0.518382
C61	C	0.928679	-0.317002	-0.473508
H62	H	0.929078	-0.220032	-0.591000
H63	H	0.962987	-0.207002	-0.444293
H64	H	1.017740	-0.260298	-0.550309
H65	H	0.873270	-0.302019	-0.441567
H66	H	0.928006	-0.355314	-0.547595
O67	O	0.980555	-0.471827	0.245720
C68	C	0.981571	-0.414963	0.355695
H69	H	0.956347	-0.349698	0.319168
H70	H	1.048393	-0.414479	0.393997
C71	C	0.957470	-0.521826	0.518290
C72	C	0.926483	-0.441666	0.473430
H73	H	0.923493	-0.538298	0.590918
H74	H	0.956789	-0.560137	0.444200
H75	H	1.013155	-0.521412	0.550199
H76	H	0.870803	-0.442084	0.441506
H77	H	0.927153	-0.403356	0.547518
O78	O	1.093604	0.002016	0.358314
C79	C	1.143536	-0.047850	0.452656
H80	H	1.109458	-0.048796	0.555231
H81	H	1.205287	-0.020834	0.467931
C82	C	1.202550	-0.136378	0.270529
C83	C	1.160692	-0.137545	0.396510
H84	H	1.213136	-0.191705	0.235895
H85	H	1.168913	-0.102781	0.206967
H86	H	1.254005	-0.113861	0.283275
H87	H	1.109233	-0.160052	0.383759
H88	H	1.194321	-0.171148	0.460069
H89	H	0.980715	-0.465136	-0.226114
H90	H	0.983463	-0.307819	0.226025
H91	H	1.084705	0.010980	0.630433
H92	H	0.879505	0.216048	0.630498
