data_functionalizedCrystal
_audit_creation_method	'MofGen! by Chris Wilmer'
_symmetry_space_group_name_H-M	'P1'
_symmetry_Int_Tables_number	1
_symmetry_cell_setting	triclinic
loop_
_symmetry_equiv_pos_as_xyz
  x,y,z
_cell_length_a	25.639242
_cell_length_b	19.805405
_cell_length_c	19.805399
_cell_angle_alpha	90.029301
_cell_angle_beta	89.972605
_cell_angle_gamma	89.978063
loop_
_atom_site_label
_atom_site_type_symbol
_atom_site_fract_x
_atom_site_fract_y
_atom_site_fract_z
Zn1	Zn	0.799297	0.269560	-0.382853
Zn2	Zn	1.299297	0.769560	0.117147
Zn3	Zn	0.799231	0.382748	-0.269661
Zn4	Zn	1.299231	0.882748	0.230339
Zn5	Zn	0.711865	0.269569	-0.269662
Zn6	Zn	1.211865	0.769569	0.230338
Zn7	Zn	0.711837	0.382703	-0.382792
Zn8	Zn	1.211837	0.882703	0.117208
O9	O	0.755557	0.326145	-0.326242
O10	O	1.255557	0.826145	0.173758
O11	O	0.872453	0.284589	-0.367863
O12	O	1.372453	0.784589	0.132137
O13	O	0.787626	0.367757	-0.174945
O14	O	1.287626	0.867757	0.325055
O15	O	0.723502	0.174852	-0.284703
O16	O	1.223502	0.674852	0.215297
O17	O	0.872405	0.367748	-0.284701
O18	O	1.372405	0.867748	0.215299
O19	O	0.787738	0.174844	-0.367863
O20	O	1.287738	0.674844	0.132137
O21	O	0.723439	0.284606	-0.174945
O22	O	1.223439	0.784606	0.325055
O23	O	0.638696	0.284562	-0.284644
O24	O	1.138696	0.784562	0.215356
O25	O	0.723454	0.367672	-0.477517
O26	O	1.223454	0.867672	0.022483
O27	O	0.638675	0.367681	-0.367760
O28	O	1.138675	0.867681	0.132240
O29	O	0.787711	0.284545	-0.477561
O30	O	1.287711	0.784545	0.022439
O31	O	0.787599	0.477459	-0.284643
O32	O	1.287599	0.977459	0.215357
O33	O	0.723391	0.477426	-0.367760
O34	O	1.223391	0.977426	0.132240
C35	C	0.619715	0.326118	-0.326196
C36	C	1.119715	0.826118	0.173804
C37	C	0.561601	0.326123	-0.326193
C38	C	1.061601	0.826123	0.173807
C39	C	0.755499	0.502001	-0.326209
C40	C	1.255499	1.002001	0.173791
C41	C	0.755521	0.577233	-0.326218
C42	C	1.255521	1.077233	0.173782
C43	C	0.755587	0.326102	-0.502785
C44	C	1.255587	0.826102	-0.002785
C45	C	0.755599	0.326084	-0.578017
C46	C	1.255599	0.826084	-0.078017
C47	C	0.201236	0.369497	-0.369480
C48	C	0.701236	0.869497	0.130520
C49	C	0.146631	0.369502	-0.369490
C50	C	0.646631	0.869502	0.130510
O51	O	0.118393	0.406347	-0.406256
O52	O	0.618393	0.906347	0.093744
N53	N	0.119318	0.326164	-0.326286
N54	N	0.619318	0.826164	0.173714
C55	C	0.146612	0.282814	-0.283073
C56	C	0.646612	0.782814	0.216927
O57	O	0.118366	0.245952	-0.246326
O58	O	0.618366	0.745952	0.253674
C59	C	0.201216	0.282807	-0.283067
C60	C	0.701216	0.782807	0.216933
C61	C	0.228526	0.326152	-0.326269
C62	C	0.728526	0.826152	0.173731
C63	C	0.228546	0.412839	-0.412679
C64	C	0.728546	0.912839	0.087321
C65	C	0.283147	0.412835	-0.412667
C66	C	0.783147	0.912835	0.087333
C67	C	0.310437	0.369491	-0.369456
C68	C	0.810437	0.869491	0.130544
C69	C	0.283126	0.326149	-0.326257
C70	C	0.783126	0.826149	0.173743
C71	C	0.228508	0.239454	-0.239858
C72	C	0.728508	0.739454	0.260142
C73	C	0.283116	0.239451	-0.239855
C74	C	0.783116	0.739451	0.260145
C75	C	0.310426	0.282796	-0.283057
C76	C	0.810426	0.782796	0.216943
C77	C	0.365017	0.282801	-0.283034
C78	C	0.865017	0.782801	0.216966
N79	N	0.392330	0.326139	-0.326239
N80	N	0.892330	0.826139	0.173761
C81	C	0.365040	0.369483	-0.369450
C82	C	0.865040	0.869483	0.130550
C83	C	0.031942	0.282831	-0.283092
C84	C	0.531942	0.782831	0.216908
C85	C	-0.022661	0.282841	-0.283094
C86	C	0.477339	0.782841	0.216906
C87	C	-0.022638	0.369528	-0.369513
C88	C	0.477362	0.869528	0.130487
C89	C	0.031966	0.369521	-0.369506
C90	C	0.531966	0.869521	0.130494
C91	C	0.059255	0.326169	-0.326296
C92	C	0.559255	0.826169	0.173704
C93	C	0.479705	0.369473	-0.369421
C94	C	0.979705	0.869473	0.130579
C95	C	0.534311	0.369468	-0.369404
C96	C	1.034311	0.869468	0.130596
C97	C	0.534283	0.282779	-0.282988
C98	C	1.034283	0.782779	0.217012
C99	C	0.479682	0.282787	-0.283003
C100	C	0.979682	0.782787	0.216997
C101	C	0.452395	0.326136	-0.326225
C102	C	0.952395	0.826136	0.173775
O103	O	0.393290	0.245973	-0.246290
O104	O	0.893290	0.745973	0.253710
O105	O	0.393293	0.406333	-0.406197
O106	O	0.893293	0.906333	0.093803
C107	C	0.891930	0.326172	-0.326289
C108	C	1.391930	0.826172	0.173711
C109	C	0.950044	0.326184	-0.326308
C110	C	1.450044	0.826184	0.173692
C111	C	0.755631	0.149602	-0.326290
C112	C	1.255631	0.649602	0.173710
C113	C	0.755662	0.074370	-0.326310
C114	C	1.255662	0.574370	0.173690
C115	C	0.788987	0.612572	-0.282984
C116	C	1.288987	1.112572	0.217016
C117	C	0.789009	0.683260	-0.282999
C118	C	1.289009	1.183260	0.217001
C119	C	0.755563	0.718609	-0.326245
C120	C	1.255563	1.218609	0.173755
C121	C	0.722095	0.683265	-0.369483
C122	C	1.222095	1.183265	0.130517
C123	C	0.722076	0.612578	-0.369471
C124	C	1.222076	1.112578	0.130529
C125	C	0.722173	0.968338	-0.369534
C126	C	1.222173	1.468338	0.130466
C127	C	0.722193	1.039030	-0.369541
C128	C	1.222193	1.539030	0.130459
C129	C	0.789105	1.039021	-0.283061
C130	C	1.289105	1.539021	0.216939
C131	C	0.789086	0.968334	-0.283049
C132	C	1.289086	1.468334	0.216951
C133	C	0.755621	0.932996	-0.326290
C134	C	1.255621	1.432996	0.173710
C135	C	0.755598	0.856348	-0.326274
C136	C	1.255598	1.356348	0.173726
C137	C	0.755583	0.795256	-0.326258
C138	C	1.255583	1.295256	0.173742
C139	C	0.789058	0.282798	-0.613385
C140	C	1.289058	0.782798	-0.113385
C141	C	0.789064	0.282779	-0.684074
C142	C	1.289064	0.782779	-0.184074
C143	C	0.755612	0.326049	-0.719393
C144	C	1.255612	0.826049	-0.219393
C145	C	0.722149	0.369337	-0.684019
C146	C	1.222149	0.869337	-0.184019
C147	C	0.722142	0.369352	-0.613332
C148	C	1.222142	0.869352	-0.113332
C149	C	0.722179	0.369274	-0.969093
C150	C	1.222179	0.869274	-0.469093
C151	C	0.722190	0.369256	-1.039785
C152	C	1.222190	0.869256	-0.539785
C153	C	0.789101	0.282700	-1.039834
C154	C	1.289101	0.782700	-0.539834
C155	C	0.789093	0.282716	-0.969147
C156	C	1.289093	0.782716	-0.469147
C157	C	0.755629	0.326001	-0.933780
C158	C	1.255629	0.826001	-0.433780
C159	C	0.755623	0.326020	-0.857132
C160	C	1.255623	0.826020	-0.357132
C161	C	0.755621	0.326033	-0.796040
C162	C	1.255621	0.826033	-0.296040
C163	C	0.755558	0.326139	-0.150386
C164	C	1.255558	0.826139	0.349614
C165	C	0.755647	0.325966	-0.075154
C166	C	1.255647	0.825966	0.424846
H167	H	0.556544	0.404768	-0.404585
H168	H	1.056544	0.904768	0.095415
C169	C	0.449694	0.417161	-0.416961
C170	C	0.949694	0.917161	0.083039
C171	C	0.457187	0.494097	-0.411287
C172	C	0.957187	0.994097	0.088713
C173	C	0.427176	0.541788	-0.458823
C174	C	0.927176	1.041788	0.041177
C175	C	0.389672	0.512543	-0.512031
C176	C	0.889672	1.012543	-0.012031
C177	C	0.382178	0.435603	-0.517707
C178	C	0.882178	0.935603	-0.017707
C179	C	0.412189	0.387912	-0.470172
C180	C	0.912189	0.887912	0.029828
H181	H	0.484951	0.515749	-0.371897
H182	H	0.984951	1.015749	0.128103
H183	H	0.432724	0.598744	-0.454621
H184	H	0.932724	1.098744	0.045379
H185	H	0.367456	0.547846	-0.547220
H186	H	0.867456	1.047846	-0.047220
H187	H	0.354414	0.413951	-0.557097
H188	H	0.854414	0.913951	-0.057097
H189	H	0.406641	0.330956	-0.474374
H190	H	0.906641	0.830956	0.025626
H191	H	0.694923	0.939572	-0.404740
H192	H	1.194923	1.439572	0.095260
C193	C	0.685262	0.573701	-0.417027
C194	C	1.185262	1.073701	0.082973
C195	C	0.625829	0.583477	-0.411422
C196	C	1.125829	1.083477	0.088578
C197	C	0.589016	0.544601	-0.458981
C198	C	1.089016	1.044601	0.041019
C199	C	0.611635	0.495949	-0.512144
C200	C	1.111635	0.995949	-0.012144
C201	C	0.671071	0.486171	-0.517751
C202	C	1.171071	0.986171	-0.017751
C203	C	0.707884	0.525047	-0.470192
C204	C	1.207884	1.025047	0.029808
H205	H	0.609083	0.619494	-0.372065
H206	H	1.109083	1.119494	0.127935
H207	H	0.545017	0.551840	-0.454830
H208	H	1.045017	1.051840	0.045170
H209	H	0.584383	0.467171	-0.547350
H210	H	1.084383	0.967171	-0.047350
H211	H	0.687817	0.450154	-0.557108
H212	H	1.187817	0.950154	-0.057108
H213	H	0.751882	0.517809	-0.474343
H214	H	1.251882	1.017809	0.025657
H215	H	0.816260	0.712030	-0.247793
H216	H	1.316260	1.212030	0.252207
H217	H	0.816334	0.247483	-0.940394
H218	H	1.316334	0.747483	-0.440394
C219	C	0.825909	0.235079	-1.078740
C220	C	1.325909	0.735079	-0.578740
C221	C	0.862707	0.187487	-1.039889
C222	C	1.362707	0.687487	-0.539889
C223	C	0.899516	0.139870	-1.078792
C224	C	1.399516	0.639870	-0.578792
C225	C	0.899527	0.139845	-1.156546
C226	C	1.399527	0.639845	-0.656546
C227	C	0.862727	0.187438	-1.195400
C228	C	1.362727	0.687438	-0.695400
C229	C	0.825919	0.235055	-1.156497
C230	C	1.325919	0.735055	-0.656497
H231	H	0.862701	0.187505	-0.982328
H232	H	1.362701	0.687505	-0.482328
H233	H	0.926758	0.104638	-1.050029
H234	H	1.426758	0.604638	-0.550029
H235	H	0.926775	0.104595	-1.185344
H236	H	1.426775	0.604595	-0.685344
H237	H	0.862734	0.187420	-1.252962
H238	H	1.362734	0.687420	-0.752962
H239	H	0.798677	0.270287	-1.185260
H240	H	1.298677	0.770287	-0.685260
C241	C	0.825879	0.929451	-0.235480
C242	C	1.325879	1.429451	0.264520
C243	C	0.862694	0.968323	-0.187926
C244	C	1.362694	1.468323	0.312074
C245	C	0.899489	0.929441	-0.140358
C246	C	1.399489	1.429441	0.359642
C247	C	0.899469	0.851688	-0.140344
C248	C	1.399469	1.351688	0.359656
C249	C	0.862652	0.812812	-0.187900
C250	C	1.362652	1.312812	0.312100
C251	C	0.825857	0.851694	-0.235468
C252	C	1.325857	1.351694	0.264532
H253	H	0.862710	1.025884	-0.187934
H254	H	1.362710	1.525884	0.312066
H255	H	0.926744	0.958220	-0.105154
H256	H	1.426744	1.458220	0.394846
H257	H	0.926707	0.822906	-0.105131
H258	H	1.426707	1.322906	0.394869
H259	H	0.862636	0.755251	-0.187891
H260	H	1.362636	1.255251	0.312109
H261	H	0.798603	0.822915	-0.270672
H262	H	1.298603	1.322915	0.229328
H263	H	0.694865	0.712051	-0.404698
H264	H	1.194865	1.212051	0.095302
C265	C	0.198472	0.191772	-0.192338
C266	C	0.698472	0.691772	0.307662
C267	C	0.160903	0.221025	-0.139145
C268	C	0.660903	0.721025	0.360855
C269	C	0.130866	0.173340	-0.091624
C270	C	0.630866	0.673340	0.408376
C271	C	0.138398	0.096403	-0.097296
C272	C	0.638398	0.596403	0.402704
C273	C	0.175970	0.067146	-0.150491
C274	C	0.675970	0.567146	0.349509
C275	C	0.206007	0.114831	-0.198013
C276	C	0.706007	0.614831	0.301987
H277	H	0.155325	0.277982	-0.134944
H278	H	0.655325	0.777982	0.365056
H279	H	0.103053	0.194998	-0.052245
H280	H	0.603053	0.694998	0.447755
H281	H	0.116163	0.061104	-0.062118
H282	H	0.616163	0.561104	0.437882
H283	H	0.181547	0.010189	-0.154692
H284	H	0.681547	0.510189	0.345308
H285	H	0.233819	0.093173	-0.237391
H286	H	0.733819	0.593173	0.262609
H287	H	0.305332	0.204144	-0.204671
H288	H	0.805332	0.704144	0.295329
H289	H	0.816300	0.247565	-0.584634
H290	H	1.316300	0.747565	-0.084634
C291	C	0.685364	0.416891	-0.930209
C292	C	1.185364	0.916891	-0.430209
C293	C	0.625933	0.411344	-0.939932
C294	C	1.125933	0.911344	-0.439932
C295	C	0.589112	0.458964	-0.901052
C296	C	1.089112	0.958964	-0.401052
C297	C	0.611721	0.512132	-0.852450
C298	C	1.111721	1.012132	-0.352450
C299	C	0.671155	0.517681	-0.842726
C300	C	1.171155	1.017681	-0.342726
C301	C	0.707976	0.470060	-0.881605
C302	C	1.207976	0.970060	-0.381605
H303	H	0.609193	0.371984	-0.975912
H304	H	1.109193	0.871984	-0.475912
H305	H	0.545114	0.454856	-0.908251
H306	H	1.045114	0.954856	-0.408251
H307	H	0.584464	0.547383	-0.823669
H308	H	1.084464	1.047383	-0.323669
H309	H	0.687895	0.557041	-0.806746
H310	H	1.187895	1.057041	-0.306746
H311	H	0.751973	0.474169	-0.874406
H312	H	1.251973	0.974169	-0.374406
H313	H	0.816356	1.067801	-0.247855
H314	H	1.316356	1.567801	0.252145
H315	H	0.816311	0.247533	-0.712867
H316	H	1.316311	0.747533	-0.212867
H317	H	0.694948	0.404493	-1.068540
H318	H	1.194948	0.904493	-0.568540
C319	C	0.449633	0.235106	-0.235487
C320	C	0.949633	0.735106	0.264513
C321	C	0.457168	0.158169	-0.241162
C322	C	0.957168	0.658169	0.258838
C323	C	0.427121	0.110480	-0.193655
C324	C	0.927121	0.610480	0.306345
C325	C	0.389540	0.139728	-0.140473
C326	C	0.889540	0.639728	0.359527
C327	C	0.382004	0.216669	-0.134796
C328	C	0.882004	0.716669	0.365204
C329	C	0.412050	0.264358	-0.182303
C330	C	0.912050	0.764358	0.317697
H331	H	0.484989	0.136515	-0.280533
H332	H	0.984989	0.636515	0.219467
H333	H	0.432700	0.053524	-0.197859
H334	H	0.932700	0.553524	0.302141
H335	H	0.367298	0.104426	-0.105306
H336	H	0.867298	0.604426	0.394694
H337	H	0.354182	0.238324	-0.095425
H338	H	0.854182	0.738324	0.404575
H339	H	0.406471	0.321315	-0.178099
H340	H	0.906471	0.821315	0.321901
C341	C	0.685403	1.077915	-0.417119
C342	C	1.185403	1.577915	0.082881
C343	C	0.648594	1.039047	-0.464685
C344	C	1.148594	1.539047	0.035315
C345	C	0.611806	1.077933	-0.512259
C346	C	1.111806	1.577933	-0.012259
C347	C	0.611827	1.155686	-0.512267
C348	C	1.111827	1.655686	-0.012267
C349	C	0.648637	1.194558	-0.464699
C350	C	1.148637	1.694558	0.035301
C351	C	0.685425	1.155673	-0.417125
C352	C	1.185425	1.655673	0.082875
H353	H	0.648578	0.981486	-0.464680
H354	H	1.148578	1.481486	0.035320
H355	H	0.584557	1.049157	-0.547472
H356	H	1.084557	1.549157	-0.047472
H357	H	0.584594	1.184471	-0.547484
H358	H	1.084594	1.684471	-0.047484
H359	H	0.648653	1.252119	-0.464703
H360	H	1.148653	1.752119	0.035297
H361	H	0.712674	1.184449	-0.381912
H362	H	1.212674	1.684449	0.118088
C363	C	0.564311	0.235099	-0.235463
C364	C	1.064311	0.735099	0.264537
C365	C	0.601876	0.182004	-0.264900
C366	C	1.101876	0.682004	0.235100
C367	C	0.631908	0.134319	-0.217380
C368	C	1.131908	0.634319	0.282620
C369	C	0.624374	0.139730	-0.140423
C370	C	1.124374	0.639730	0.359577
C371	C	0.586808	0.192828	-0.110982
C372	C	1.086808	0.692828	0.389018
C373	C	0.556777	0.240512	-0.158502
C374	C	1.056777	0.740512	0.341498
H375	H	0.607454	0.177997	-0.321871
H376	H	1.107454	0.677997	0.178129
H377	H	0.659717	0.095013	-0.239174
H378	H	1.159717	0.595013	0.260826
H379	H	0.646606	0.104431	-0.105246
H380	H	1.146606	0.604431	0.394754
H381	H	0.581230	0.196835	-0.054011
H382	H	1.081230	0.696835	0.445989
H383	H	0.528967	0.279818	-0.136708
H384	H	1.028967	0.779818	0.363292
H385	H	0.305378	0.448130	-0.447848
H386	H	0.805378	0.948130	0.052152
H387	H	0.206332	0.448136	-0.447870
H388	H	0.706332	0.948136	0.052130
H389	H	0.816220	0.583796	-0.247766
H390	H	1.316220	1.083796	0.252234
C391	C	-0.052664	0.417204	-0.417051
C392	C	0.447336	0.917204	0.082949
C393	C	-0.045123	0.411777	-0.494006
C394	C	0.454877	0.911777	0.005994
C395	C	-0.075152	0.459450	-0.541541
C396	C	0.424848	0.959450	-0.041541
C397	C	-0.112721	0.512549	-0.512121
C398	C	0.387279	1.012549	-0.012121
C399	C	-0.120264	0.517978	-0.435163
C400	C	0.379736	1.017978	0.064837
C401	C	-0.090235	0.470306	-0.387628
C402	C	0.409765	0.970306	0.112372
H403	H	-0.017311	0.372468	-0.515787
H404	H	0.482689	0.872468	-0.015787
H405	H	-0.069568	0.455431	-0.598511
H406	H	0.430432	0.955431	-0.098511
H407	H	-0.134950	0.547839	-0.547310
H408	H	0.365050	1.047839	-0.047310
H409	H	-0.148077	0.557288	-0.413381
H410	H	0.351923	1.057288	0.086619
H411	H	-0.095819	0.474325	-0.330658
H412	H	0.404181	0.974325	0.169342
H413	H	0.054198	0.404816	-0.404686
H414	H	0.554198	0.904816	0.095314
H415	H	-0.044892	0.247552	-0.247908
H416	H	0.455108	0.747552	0.252092
H417	H	0.054157	0.247530	-0.247900
H418	H	0.554157	0.747530	0.252100
H419	H	0.694911	0.404566	-0.712781
H420	H	1.194911	0.904566	-0.212781
H421	H	0.694891	0.404593	-0.584536
H422	H	1.194891	0.904593	-0.084536
