data_functionalizedCrystal
_audit_creation_method	'MofGen! by Chris Wilmer'
_symmetry_space_group_name_H-M	'P1'
_symmetry_Int_Tables_number	1
_symmetry_cell_setting	triclinic
loop_
_symmetry_equiv_pos_as_xyz
  x,y,z
_cell_length_a	11.792241
_cell_length_b	11.026607
_cell_length_c	9.482900
_cell_angle_alpha	78.636152
_cell_angle_beta	80.596456
_cell_angle_gamma	83.610284
loop_
_atom_site_label
_atom_site_type_symbol
_atom_site_fract_x
_atom_site_fract_y
_atom_site_fract_z
O1	O	-0.461989	1.632110	-0.120853
O2	O	0.038011	2.132110	0.379147
O3	O	-0.407797	1.278448	-0.120860
O4	O	0.092203	1.778448	0.379140
O5	O	-0.271426	1.463863	-0.120865
O6	O	0.228574	1.963863	0.379135
O7	O	-0.598360	1.446696	-0.120848
O8	O	-0.098360	1.946696	0.379152
O9	O	-0.299268	1.426202	0.120928
O10	O	0.200732	1.926202	0.620928
O11	O	-0.435639	1.240788	0.120933
O12	O	0.064361	1.740788	0.620933
O13	O	-0.489832	1.594449	0.120940
O14	O	0.010168	2.094449	0.620940
Cu15	Cu	-0.465278	1.414180	0.143014
Cu16	Cu	0.034722	1.914180	0.643014
Cu17	Cu	-0.432351	1.458718	-0.142934
Cu18	Cu	0.067649	1.958718	0.357066
O19	O	-0.626203	1.409035	0.120945
O20	O	-0.126203	1.909035	0.620945
C21	C	-0.411720	1.214342	0.000035
C22	C	0.088280	1.714342	0.500035
C23	C	-0.381917	1.079432	0.000032
C24	C	0.118083	1.579432	0.500032
C25	C	-0.464208	1.006167	0.000035
C26	C	0.035792	1.506167	0.500035
C27	C	-0.433407	0.866731	0.000032
C28	C	0.066593	1.366731	0.500032
C29	C	-0.654787	1.428943	0.000051
C30	C	-0.154787	1.928943	0.500051
C31	C	-0.781442	1.432169	0.000057
C32	C	-0.281442	1.932169	0.500057
C33	C	-1.013328	1.438109	0.000021
C34	C	-0.513328	1.938109	0.500021
C35	C	-0.884291	1.434809	0.000041
C36	C	-0.384291	1.934809	0.500041
C37	C	-0.242841	1.443955	0.000026
C38	C	0.257159	1.943955	0.500026
C39	C	-0.116185	1.440730	0.000010
C40	C	0.383815	1.940730	0.500010
C41	C	-0.485908	1.658557	0.000041
C42	C	0.014092	2.158557	0.500041
C43	C	-0.515710	1.793468	0.000035
C44	C	-0.015710	2.293468	0.500035
N45	N	-0.488438	1.382862	0.344135
N46	N	0.011562	1.882862	0.844135
N47	N	-0.409184	1.490045	-0.344056
N48	N	0.090816	1.990045	0.155944
C49	C	-0.439174	1.449472	0.416333
C50	C	0.060826	1.949472	0.916333
C51	C	-0.458454	1.423425	0.583751
C52	C	0.041546	1.923425	1.083751
H53	H	-0.288659	1.038934	-0.000010
H54	H	0.211341	1.538934	0.499990
H55	H	-0.557463	1.046670	0.000049
H56	H	-0.057463	1.546670	0.500049
H57	H	-0.544882	1.306547	0.406268
H58	H	-0.044882	1.806547	0.906268
O59	O	-0.309868	0.813104	0.000026
O60	O	0.190132	1.313104	0.500026
H61	H	-0.305061	0.712002	0.000015
H62	H	0.194939	1.212002	0.500015
H63	H	-0.608972	0.833963	0.000050
H64	H	-0.108972	1.333963	0.500050
H65	H	-0.382719	1.525779	0.354203
H66	H	0.117281	2.025779	0.854203
H67	H	-0.514903	1.347105	0.645877
H68	H	-0.014903	1.847105	1.145877
H69	H	-0.352725	1.566356	0.593818
H70	H	0.147275	2.066356	1.093818
