data_functionalizedCrystal
_audit_creation_method	'MofGen! by Chris Wilmer'
_symmetry_space_group_name_H-M	'P1'
_symmetry_Int_Tables_number	1
_symmetry_cell_setting	triclinic
loop_
_symmetry_equiv_pos_as_xyz
  x,y,z
_cell_length_a	16.625548
_cell_length_b	15.297327
_cell_length_c	15.298259
_cell_angle_alpha	88.343348
_cell_angle_beta	99.658986
_cell_angle_gamma	99.707980
loop_
_atom_site_label
_atom_site_type_symbol
_atom_site_fract_x
_atom_site_fract_y
_atom_site_fract_z
Zn1	Zn	1.106075	-0.262948	-0.555587
Zn2	Zn	1.098121	-0.434797	-0.434447
Zn3	Zn	0.989956	-0.288339	-0.409131
Zn4	Zn	0.944637	-0.409394	-0.580868
O5	O	1.034697	-0.348869	-0.495008
O6	O	1.217849	-0.285749	-0.539532
O7	O	1.099410	-0.436626	-0.308520
O8	O	1.027654	-0.162389	-0.407384
O9	O	1.212005	-0.412005	-0.450531
O10	O	1.112966	-0.143735	-0.514984
O11	O	1.019942	-0.329024	-0.289920
O12	O	0.871115	-0.304392	-0.431898
O13	O	0.950415	-0.368711	-0.700084
O14	O	0.837820	-0.393331	-0.558072
O15	O	1.069022	-0.261117	-0.681510
O16	O	1.055466	-0.554008	-0.475045
O17	O	0.942702	-0.535345	-0.582620
C18	C	0.993323	-0.576457	-0.534342
C19	C	0.975693	-0.673815	-0.551198
C20	C	0.825212	-0.348861	-0.494982
C21	C	0.735587	-0.348875	-0.494995
C22	C	1.160996	-0.986967	-0.374832
C23	C	1.177561	-0.895495	-0.358990
C24	C	1.127096	-0.840071	-0.407041
C25	C	1.060062	-0.876127	-0.470936
C26	C	1.043492	-0.967609	-0.486775
C27	C	1.009592	-0.820713	-0.518983
C28	C	0.942558	-0.856769	-0.582879
C29	C	0.925992	-0.948242	-0.598715
C30	C	0.976457	-1.003666	-0.550664
C31	C	1.026162	-0.729231	-0.503145
C32	C	0.908658	-0.709873	-0.615088
C33	C	0.892093	-0.801345	-0.630929
C34	C	0.407405	-0.348874	-0.495033
C35	C	0.498716	-0.348873	-0.495019
C36	C	0.571493	-0.348875	-0.495013
C37	C	0.662810	-0.348872	-0.495001
C38	C	1.245001	-0.348878	-0.495036
C39	C	1.334619	-0.348882	-0.495047
C40	C	1.005550	-0.309248	-0.723466
C41	C	0.993130	-0.292364	-0.820821
C42	C	1.076253	-0.120389	-0.455540
C43	C	1.093961	-0.023025	-0.438721
C44	C	1.123619	-0.468869	-1.133978
C45	C	1.135283	-0.484738	-1.042509
C46	C	1.099746	-0.436646	-0.987083
C47	C	1.052542	-0.372682	-1.023134
C48	C	1.040871	-0.356816	-1.114613
C49	C	1.016998	-0.324593	-0.967718
C50	C	0.969794	-0.260629	-1.003769
C51	C	0.958125	-0.244766	-1.095239
C52	C	0.993662	-0.292858	-1.150666
C53	C	1.028669	-0.340459	-0.876239
C54	C	0.945921	-0.228406	-0.856874
C55	C	0.934257	-0.212537	-0.948343
C56	C	1.063789	-0.388273	-0.267428
C57	C	1.076410	-0.404911	-0.170031
H58	H	1.080740	-0.699882	-0.451121
C59	C	1.145384	-0.739444	-0.389657
C60	C	1.229120	-0.685234	-0.403602
C61	C	1.247446	-0.584599	-0.386235
C62	C	1.182036	-0.538174	-0.354923
C63	C	1.098294	-0.592384	-0.340975
C64	C	1.079968	-0.693019	-0.358342
H65	H	1.277546	-0.719601	-0.426783
H66	H	1.309438	-0.544470	-0.396560
H67	H	1.195602	-0.463678	-0.342067
H68	H	1.049868	-0.558018	-0.317795
H69	H	1.017977	-0.733148	-0.348018
H70	H	0.919679	-0.192690	-1.124591
C71	C	1.251292	-0.855840	-0.288708
C72	C	1.236555	-0.804951	-0.209027
C73	C	1.310291	-0.765298	-0.138738
C74	C	1.398763	-0.776534	-0.148131
C75	C	1.413505	-0.827426	-0.227815
C76	C	1.339769	-0.867079	-0.298104
H77	H	1.171059	-0.796631	-0.202071
H78	H	1.299378	-0.727625	-0.079750
H79	H	1.453347	-0.747181	-0.096099
H80	H	1.479001	-0.835746	-0.234771
H81	H	1.350682	-0.904752	-0.357091
H82	H	1.067109	-0.392533	-0.846894
H83	H	0.895822	-0.160457	-0.977709
H84	H	0.984170	-0.279939	-1.225148
H85	H	0.867563	-0.664747	-0.654213
C86	C	0.906829	-0.175496	-0.795914
C87	C	0.919669	-0.192942	-0.695296
C88	C	0.880578	-0.140039	-0.634330
C89	C	0.828647	-0.069689	-0.673983
C90	C	0.815805	-0.052240	-0.774607
C91	C	0.854896	-0.105143	-0.835572
H92	H	0.958113	-0.245022	-0.665937
H93	H	0.890085	-0.152957	-0.559842
H94	H	0.799710	-0.030527	-0.628853
H95	H	0.777360	-0.000160	-0.803965
H96	H	0.845389	-0.092225	-0.910060
H97	H	0.962976	-1.078151	-0.563561
C98	C	1.216501	-1.047933	-0.321980
C99	C	1.198272	-1.148553	-0.339402
C100	C	1.253781	-1.209521	-0.286545
C101	C	1.327518	-1.169867	-0.216266
C102	C	1.345750	-1.069241	-0.198841
C103	C	1.290241	-1.008274	-0.251698
H104	H	1.143685	-1.177912	-0.391430
H105	H	1.240284	-1.284011	-0.299444
H106	H	1.368609	-1.214999	-0.177138
H107	H	1.400338	-1.039883	-0.146814
H108	H	1.303738	-0.933784	-0.238799
H109	H	1.109246	-0.449571	-0.912605
H110	H	0.871401	-0.977598	-0.650732
C111	C	1.187234	-0.555072	-1.002866
C112	C	1.265469	-0.528000	-0.933446
C113	C	1.317436	-0.598330	-0.893808
C114	C	1.291169	-0.695732	-0.923590
C115	C	1.212930	-0.722808	-0.993014
C116	C	1.160963	-0.652479	-1.032652
H117	H	1.284917	-0.455894	-0.911397
H118	H	1.375353	-0.578285	-0.842416
H119	H	1.329638	-0.747794	-0.894247
H120	H	1.193482	-0.794915	-1.015063
H121	H	1.103046	-0.672523	-1.084044
C122	C	0.818355	-0.841015	-0.701207
C123	C	0.729881	-0.829784	-0.691812
C124	C	0.656144	-0.869456	-0.762089
C125	C	0.670880	-0.920358	-0.841762
C126	C	0.759357	-0.931591	-0.851162
C127	C	0.833095	-0.891919	-0.780884
H128	H	0.718969	-0.792102	-0.632830
H129	H	0.590647	-0.861140	-0.755131
H130	H	0.616295	-0.949725	-0.893786
H131	H	0.770269	-0.969273	-0.910144
H132	H	0.898592	-0.900235	-0.787843
H133	H	1.152541	-0.508025	-1.179115
