data_functionalizedCrystal
_audit_creation_method	'MofGen! by Chris Wilmer'
_symmetry_space_group_name_H-M	'P1'
_symmetry_Int_Tables_number	1
_symmetry_cell_setting	triclinic
loop_
_symmetry_equiv_pos_as_xyz
  x,y,z
_cell_length_a	25.639242
_cell_length_b	25.639240
_cell_length_c	19.805399
_cell_angle_alpha	89.962684
_cell_angle_beta	89.983108
_cell_angle_gamma	90.025061
loop_
_atom_site_label
_atom_site_type_symbol
_atom_site_fract_x
_atom_site_fract_y
_atom_site_fract_z
Zn1	Zn	0.799260	-0.208263	-0.382680
Zn2	Zn	1.299260	0.291737	0.117320
Zn3	Zn	0.799188	-0.295699	-0.269476
Zn4	Zn	1.299188	0.204301	0.230524
Zn5	Zn	0.711832	-0.208268	-0.269505
Zn6	Zn	1.211832	0.291732	0.230495
Zn7	Zn	0.711790	-0.295657	-0.382623
Zn8	Zn	1.211790	0.204343	0.117377
O9	O	0.755518	-0.251972	-0.326071
O10	O	1.255518	0.248028	0.173929
O11	O	0.872415	-0.219877	-0.367676
O12	O	1.372415	0.280123	0.132324
O13	O	0.787588	-0.284121	-0.174763
O14	O	1.287588	0.215879	0.325237
O15	O	0.723477	-0.135102	-0.284555
O16	O	1.223477	0.364898	0.215445
O17	O	0.872363	-0.284116	-0.284505
O18	O	1.372363	0.215884	0.215495
O19	O	0.787710	-0.135098	-0.367704
O20	O	1.287710	0.364902	0.132296
O21	O	0.723408	-0.219885	-0.174785
O22	O	1.223408	0.280115	0.325215
O23	O	0.638661	-0.219845	-0.284498
O24	O	1.138661	0.280155	0.215502
O25	O	0.723405	-0.284045	-0.477347
O26	O	1.223405	0.215955	0.022653
O27	O	0.638631	-0.284050	-0.367605
O28	O	1.138631	0.215950	0.132395
O29	O	0.787669	-0.219837	-0.477389
O30	O	1.287669	0.280163	0.022611
O31	O	0.787547	-0.368859	-0.284448
O32	O	1.287547	0.131141	0.215552
O33	O	0.723336	-0.368828	-0.367577
O34	O	1.223336	0.131172	0.132423
C35	C	0.619675	-0.251944	-0.326049
C36	C	1.119675	0.248056	0.173951
C37	C	0.561561	-0.251944	-0.326056
C38	C	1.061561	0.248056	0.173944
C39	C	0.310403	-0.218582	-0.369457
C40	C	0.810403	0.281418	0.130543
C41	C	0.365007	-0.218577	-0.369453
C42	C	0.865007	0.281423	0.130547
O43	O	0.393274	-0.190188	-0.406350
O44	O	0.893274	0.309812	0.093650
N45	N	0.392287	-0.251966	-0.326079
N46	N	0.892287	0.248034	0.173921
C47	C	0.364960	-0.285366	-0.282710
C48	C	0.864960	0.214634	0.217290
O49	O	0.393177	-0.313766	-0.245817
O50	O	0.893177	0.186234	0.254183
C51	C	0.310357	-0.285373	-0.282718
C52	C	0.810357	0.214627	0.217282
C53	C	0.283079	-0.251978	-0.326090
C54	C	0.783079	0.248022	0.173910
C55	C	0.283126	-0.185190	-0.412827
C56	C	0.783126	0.314810	0.087173
C57	C	0.228525	-0.185195	-0.412829
C58	C	0.728525	0.314805	0.087171
C59	C	0.201202	-0.218591	-0.369463
C60	C	0.701202	0.281409	0.130537
C61	C	0.228479	-0.251983	-0.326093
C62	C	0.728479	0.248017	0.173907
C63	C	0.283030	-0.318776	-0.239353
C64	C	0.783030	0.181224	0.260647
C65	C	0.228423	-0.318780	-0.239365
C66	C	0.728423	0.181220	0.260635
C67	C	0.201146	-0.285385	-0.282737
C68	C	0.701146	0.214615	0.217263
C69	C	0.146555	-0.285384	-0.282729
C70	C	0.646555	0.214616	0.217271
N71	N	0.119275	-0.251995	-0.326104
N72	N	0.619275	0.248005	0.173896
C73	C	0.146598	-0.218599	-0.369470
C74	C	0.646598	0.281401	0.130530
C75	C	0.479630	-0.285348	-0.282698
C76	C	0.979630	0.214652	0.217302
C77	C	0.534233	-0.285339	-0.282686
C78	C	1.034233	0.214661	0.217314
C79	C	0.534276	-0.218550	-0.369430
C80	C	1.034276	0.281450	0.130570
C81	C	0.479673	-0.218558	-0.369438
C82	C	0.979673	0.281442	0.130562
C83	C	0.452351	-0.251959	-0.326072
C84	C	0.952351	0.248041	0.173928
C85	C	0.031933	-0.218611	-0.369473
C86	C	0.531933	0.281389	0.130527
C87	C	-0.022672	-0.218617	-0.369470
C88	C	0.477328	0.281383	0.130530
C89	C	-0.022711	-0.285407	-0.282728
C90	C	0.477289	0.214593	0.217272
C91	C	0.031890	-0.285399	-0.282728
C92	C	0.531890	0.214601	0.217272
C93	C	0.059211	-0.251999	-0.326106
C94	C	0.559211	0.248001	0.173894
O95	O	0.118254	-0.313759	-0.245853
O96	O	0.618254	0.186241	0.254147
O97	O	0.118374	-0.190209	-0.406364
O98	O	0.618374	0.309791	0.093636
C99	C	0.755444	-0.387814	-0.326018
C100	C	1.255444	0.112186	0.173982
C101	C	0.755460	-0.445929	-0.326018
C102	C	1.255460	0.054071	0.173982
C103	C	0.788980	-0.806251	-0.369445
C104	C	1.288980	-0.306251	0.130555
C105	C	0.788996	-0.860856	-0.369459
C106	C	1.288996	-0.360856	0.130541
O107	O	0.817408	-0.889058	-0.406328
O108	O	1.317408	-0.389058	0.093672
N109	N	0.755590	-0.888211	-0.326136
N110	N	1.255590	-0.388211	0.173864
C111	C	0.722163	-0.860959	-0.282802
C112	C	1.222163	-0.360959	0.217198
O113	O	0.693750	-0.889241	-0.245955
O114	O	1.193750	-0.389241	0.254045
C115	C	0.722146	-0.806356	-0.282792
C116	C	1.222146	-0.306356	0.217208
C117	C	0.755557	-0.779003	-0.326113
C118	C	1.255557	-0.279003	0.173887
C119	C	0.822388	-0.778899	-0.412762
C120	C	1.322388	-0.278899	0.087238
C121	C	0.822373	-0.724298	-0.412748
C122	C	1.322373	-0.224298	0.087252
C123	C	0.788950	-0.697050	-0.369415
C124	C	1.288950	-0.197050	0.130585
C125	C	0.755542	-0.724403	-0.326098
C126	C	1.255542	-0.224403	0.173902
C127	C	0.688717	-0.779105	-0.239462
C128	C	1.188717	-0.279105	0.260538
C129	C	0.688702	-0.724498	-0.239456
C130	C	1.188702	-0.224498	0.260544
C131	C	0.722113	-0.697146	-0.282777
C132	C	1.222113	-0.197146	0.217223
C133	C	0.722104	-0.642554	-0.282751
C134	C	1.222104	-0.142554	0.217249
N135	N	0.755510	-0.615199	-0.326073
N136	N	1.255510	-0.115199	0.173927
C137	C	0.788933	-0.642447	-0.369406
C138	C	1.288933	-0.142447	0.130594
C139	C	0.722202	-0.975630	-0.282827
C140	C	1.222202	-0.475630	0.217173
C141	C	0.722222	-1.030232	-0.282833
C142	C	1.222222	-0.530232	0.217167
C143	C	0.789054	-1.030125	-0.369491
C144	C	1.289054	-0.530125	0.130509
C145	C	0.789036	-0.975521	-0.369481
C146	C	1.289036	-0.475521	0.130519
C147	C	0.755608	-0.948274	-0.326149
C148	C	1.255608	-0.448274	0.173851
C149	C	0.788899	-0.527782	-0.369371
C150	C	1.288899	-0.027782	0.130629
C151	C	0.788883	-0.473176	-0.369350
C152	C	1.288883	0.026824	0.130650
C153	C	0.722050	-0.473289	-0.282695
C154	C	1.222050	0.026711	0.217305
C155	C	0.722068	-0.527889	-0.282713
C156	C	1.222068	-0.027889	0.217287
C157	C	0.755494	-0.555134	-0.326056
C158	C	1.255494	-0.055134	0.173944
O159	O	0.693705	-0.614317	-0.245903
O160	O	1.193705	-0.114317	0.254097
O161	O	0.817336	-0.614158	-0.406253
O162	O	1.317336	-0.114158	0.093747
C163	C	0.891891	-0.252001	-0.326093
C164	C	1.391891	0.247999	0.173907
C165	C	0.950005	-0.252013	-0.326103
C166	C	1.450005	0.247987	0.173897
C167	C	0.755540	-0.251936	-0.502614
C168	C	1.255540	0.248064	-0.002614
C169	C	0.755550	-0.251920	-0.577846
C170	C	1.255550	0.248080	-0.077846
C171	C	0.755606	-0.115599	-0.326139
C172	C	1.255606	0.384401	0.173861
C173	C	0.755644	-0.057485	-0.326168
C174	C	1.255644	0.442515	0.173832
C175	C	0.722141	-0.218470	-0.613201
C176	C	1.222141	0.281530	-0.113201
C177	C	0.722148	-0.218459	-0.683889
C178	C	1.222148	0.281541	-0.183889
C179	C	0.755568	-0.251898	-0.719221
C180	C	1.255568	0.248102	-0.219221
C181	C	0.788978	-0.285352	-0.683862
C182	C	1.288978	0.214648	-0.183862
C183	C	0.788968	-0.285364	-0.613174
C184	C	1.288968	0.214636	-0.113174
C185	C	0.789020	-0.285303	-0.968935
C186	C	1.289020	0.214697	-0.468935
C187	C	0.789029	-0.285287	-1.039627
C188	C	1.289029	0.214713	-0.539627
C189	C	0.722200	-0.218398	-1.039650
C190	C	1.222200	0.281602	-0.539650
C191	C	0.722190	-0.218411	-0.968963
C192	C	1.222190	0.281589	-0.468963
C193	C	0.755598	-0.251866	-0.933609
C194	C	1.255598	0.248134	-0.433609
C195	C	0.755589	-0.251878	-0.856960
C196	C	1.255589	0.248122	-0.356960
C197	C	0.755580	-0.251884	-0.795869
C198	C	1.255580	0.248116	-0.295869
C199	C	0.755525	-0.251970	-0.150215
C200	C	1.255525	0.248030	0.349785
C201	C	0.755616	-0.251838	-0.074983
C202	C	1.255616	0.248162	0.425017
H203	H	0.206321	-0.158004	-0.448151
H204	H	0.706321	0.341996	0.051849
H205	H	0.694930	-0.191237	-0.584438
H206	H	1.194930	0.308763	-0.084438
H207	H	0.694982	-0.953448	-0.247536
H208	H	1.194982	-0.453448	0.252464
H209	H	0.816242	-0.953254	-0.404756
H210	H	1.316242	-0.453254	0.095244
H211	H	-0.044879	-0.191420	-0.404789
H212	H	0.455121	0.308580	0.095211
H213	H	0.816186	-0.312580	-0.712635
H214	H	1.316186	0.187420	-0.212635
H215	H	0.849605	-0.801078	-0.448053
H216	H	1.349605	-0.301078	0.051947
H217	H	0.661510	-0.801366	-0.204186
H218	H	1.161510	-0.301366	0.295814
N219	N	0.686157	-0.182322	-1.077784
N220	N	1.186157	0.317678	-0.577784
H221	H	0.694299	-0.144968	-1.065509
H222	H	1.194299	0.355032	-0.565509
H223	H	0.691249	-0.187435	-1.127912
H224	H	1.191249	0.312565	-0.627912
N225	N	0.061396	-0.182588	-0.416258
N226	N	0.561396	0.317412	0.083742
H227	H	0.035824	-0.161438	-0.443729
H228	H	0.535824	0.338562	0.056271
H229	H	0.084052	-0.158361	-0.388768
H230	H	0.584052	0.341639	0.111232
H231	H	0.816177	-0.312599	-0.584389
H232	H	1.316177	0.187401	-0.084389
H233	H	0.305230	-0.345969	-0.204034
H234	H	0.805230	0.154031	0.295966
H235	H	0.694838	-0.451095	-0.247413
H236	H	1.194838	0.048905	0.252587
H237	H	0.556533	-0.191357	-0.404742
H238	H	1.056533	0.308643	0.095258
N239	N	-0.052183	-0.321431	-0.235958
N240	N	0.447817	0.178569	0.264042
H241	H	-0.042694	-0.313266	-0.187615
H242	H	0.457306	0.186734	0.312385
H243	H	-0.090903	-0.316351	-0.242603
H244	H	0.409097	0.183649	0.257397
H245	H	0.816268	-1.052320	-0.404775
H246	H	1.316268	-0.552320	0.095225
H247	H	0.694866	-0.550161	-0.247433
H248	H	1.194866	-0.050161	0.252567
N249	N	0.312588	-0.149167	-0.459608
N250	N	0.812588	0.350833	0.040392
H251	H	0.303088	-0.111803	-0.449185
H252	H	0.803088	0.388197	0.050815
H253	H	0.351310	-0.154266	-0.453009
H254	H	0.851310	0.345734	0.046991
N255	N	0.061314	-0.321410	-0.235942
N256	N	0.561314	0.178590	0.264058
H257	H	0.035717	-0.342565	-0.208468
H258	H	0.535717	0.157435	0.291532
H259	H	0.083965	-0.345634	-0.263433
H260	H	0.583965	0.154366	0.236567
N261	N	0.450261	-0.182541	-0.416225
N262	N	0.950261	0.317459	0.083775
H263	H	0.427610	-0.203821	-0.447545
H264	H	0.927610	0.296179	0.052455
H265	H	0.427634	-0.158291	-0.388740
H266	H	0.927634	0.341709	0.111260
N267	N	0.563650	-0.321349	-0.235895
N268	N	1.063650	0.178651	0.264105
H269	H	0.538050	-0.342503	-0.208425
H270	H	1.038050	0.157497	0.291575
H271	H	0.586305	-0.345573	-0.263379
H272	H	1.086305	0.154427	0.236621
N273	N	0.450163	-0.321373	-0.235917
N274	N	0.950163	0.178627	0.264083
H275	H	0.475734	-0.342520	-0.208440
H276	H	0.975734	0.157480	0.291560
H277	H	0.427506	-0.300062	-0.204649
H278	H	0.927506	0.199938	0.295351
H279	H	0.816092	-0.450908	-0.404627
H280	H	1.316092	0.049092	0.095373
N281	N	0.824945	-0.557163	-0.416125
N282	N	1.324945	-0.057163	0.083875
H283	H	0.846103	-0.531543	-0.443562
H284	H	1.346103	-0.031543	0.056438
H285	H	0.849165	-0.579821	-0.388617
H286	H	1.349165	-0.079821	0.111383
H287	H	0.694941	-0.191223	-0.712672
H288	H	1.194941	0.308777	-0.212672
H289	H	0.661478	-0.702316	-0.204172
H290	H	1.161478	-0.202316	0.295828
N291	N	0.686147	-0.182338	-0.930862
N292	N	1.186147	0.317662	-0.430862
H293	H	0.648786	-0.190447	-0.943153
H294	H	1.148786	0.309553	-0.443153
H295	H	0.691254	-0.187434	-0.880729
H296	H	1.191254	0.312566	-0.380729
N297	N	0.198954	-0.354809	-0.192593
N298	N	0.698954	0.145191	0.307407
H299	H	0.224523	-0.375961	-0.165119
H300	H	0.724523	0.124039	0.334881
H301	H	0.176298	-0.333500	-0.161322
H302	H	0.676298	0.166500	0.338678
N303	N	0.825075	-0.321354	-1.077738
N304	N	1.325075	0.178646	-0.577738
H305	H	0.846237	-0.342552	-1.044616
H306	H	1.346237	0.157448	-0.544616
H307	H	0.803777	-0.345536	-1.107053
H308	H	1.303777	0.154464	-0.607053
N309	N	0.825051	-0.321384	-0.930807
N310	N	1.325051	0.178616	-0.430807
H311	H	0.846225	-0.342563	-0.963916
H312	H	1.346225	0.157437	-0.463916
H313	H	0.849257	-0.300113	-0.901492
H314	H	1.349257	0.199887	-0.401492
N315	N	0.858406	-0.694800	-0.459477
N316	N	1.358406	-0.194800	0.040523
H317	H	0.879577	-0.720354	-0.486928
H318	H	1.379577	-0.220354	0.013072
H319	H	0.837099	-0.672143	-0.490771
H320	H	1.337099	-0.172143	0.009229
H321	H	0.695021	-1.052498	-0.247550
H322	H	1.195021	-0.552498	0.252450
