data_functionalizedCrystal
_audit_creation_method	'MofGen! by Chris Wilmer'
_symmetry_space_group_name_H-M	'P1'
_symmetry_Int_Tables_number	1
_symmetry_cell_setting	triclinic
loop_
_symmetry_equiv_pos_as_xyz
  x,y,z
_cell_length_a	18.101398
_cell_length_b	18.101397
_cell_length_c	17.639306
_cell_angle_alpha	101.181650
_cell_angle_beta	78.771019
_cell_angle_gamma	90.015732
loop_
_atom_site_label
_atom_site_type_symbol
_atom_site_fract_x
_atom_site_fract_y
_atom_site_fract_z
Zn1	Zn	1.216798	-0.379601	-0.447003
Zn2	Zn	1.191694	-0.478411	-0.314824
Zn3	Zn	1.067936	-0.354579	-0.314833
Zn4	Zn	1.092919	-0.503384	-0.446941
O5	O	1.142336	-0.428994	-0.380900
O6	O	1.317105	-0.392729	-0.429492
O7	O	1.154315	-0.441061	-0.204220
O8	O	1.087733	-0.254271	-0.332395
O9	O	1.298661	-0.465324	-0.332380
O10	O	1.197102	-0.272655	-0.429500
O11	O	1.063391	-0.350082	-0.204226
O12	O	0.967612	-0.374297	-0.332335
O13	O	1.130313	-0.507887	-0.557554
O14	O	0.985967	-0.483624	-0.429394
O15	O	1.221327	-0.416945	-0.557600
O16	O	1.178540	-0.585351	-0.332319
O17	O	1.105971	-0.603698	-0.429385
C18	C	1.142266	-0.621397	-0.380862
C19	C	1.142308	-0.703713	-0.380872
C20	C	0.949918	-0.428956	-0.380859
C21	C	0.867604	-0.428961	-0.380860
C22	C	1.142417	-1.002818	-0.380944
C23	C	1.187885	-0.959887	-0.319709
C24	C	1.188113	-0.874298	-0.319868
C25	C	1.142363	-0.854428	-0.380907
C26	C	1.179291	-0.901218	-0.464222
C27	C	1.179669	-0.986800	-0.463889
C28	C	1.060004	-0.967274	-0.359585
C29	C	1.060039	-0.881273	-0.357726
C30	C	1.142332	-0.770566	-0.380892
C31	C	1.142450	-1.086681	-0.380965
C32	C	0.568526	-0.429020	-0.380926
C33	C	0.588334	-0.360005	-0.320157
C34	C	0.673903	-0.360110	-0.319898
C35	C	0.716902	-0.428990	-0.380893
C36	C	0.681489	-0.502690	-0.358130
C37	C	0.595764	-0.502290	-0.357708
C38	C	0.615977	-0.425040	-0.464601
C39	C	0.701541	-0.423216	-0.464145
C40	C	0.800758	-0.428978	-0.380876
C41	C	0.484669	-0.429036	-0.380942
C42	C	1.335506	-0.429032	-0.380942
C43	C	1.417824	-0.429049	-0.380960
C44	C	1.181407	-0.467993	-0.587058
C45	C	1.198056	-0.484612	-0.674910
C46	C	1.142431	-0.235842	-0.380956
C47	C	1.142471	-0.153533	-0.380980
C48	C	1.016140	-0.302464	-0.963885
C49	C	1.031801	-0.318096	-1.046436
C50	C	1.126471	-0.412822	-1.046409
C51	C	1.110820	-0.397196	-0.963857
C52	C	1.055653	-0.342017	-0.922602
C53	C	1.150334	-0.436748	-0.922573
C54	C	1.134681	-0.421125	-0.840028
C55	C	1.079515	-0.365950	-0.798767
C56	C	1.040001	-0.326394	-0.840057
C57	C	1.205497	-0.491931	-0.963830
C58	C	1.245010	-0.531483	-0.922546
C59	C	1.229362	-0.515857	-0.840000
C60	C	1.174196	-0.460682	-0.798739
C61	C	1.268876	-0.555414	-0.798710
C62	C	1.253223	-0.539791	-0.716165
C63	C	1.158543	-0.445059	-0.716194
C64	C	1.103461	-0.390093	-0.175544
C65	C	1.086955	-0.373265	-0.087693
H66	H	1.163182	-0.841634	-0.258092
C67	C	0.979317	-0.265691	-0.794671
N68	N	0.933610	-0.219973	-0.760487
H69	H	0.604300	-0.475500	-0.509880
C70	C	1.305527	-0.592343	-0.967936
N71	N	1.351050	-0.638242	-1.002123
C72	C	1.022802	-0.838204	-0.274899
N73	N	0.994755	-0.805758	-0.212516
H74	H	1.025933	-0.995985	-0.404185
H75	H	1.248264	-0.984006	-0.333679
C76	C	0.719985	-0.573096	-0.416044
N77	N	0.748984	-0.626126	-0.459664
C78	C	1.097859	-0.384356	-0.670808
N79	N	1.052153	-0.338638	-0.636624
C80	C	0.592120	-0.354818	-0.492556
N81	N	0.574150	-0.301920	-0.513601
C82	C	1.261685	-1.018346	-0.488320
N83	N	1.323462	-1.042102	-0.506718
H84	H	0.570425	-0.304653	-0.334269
H85	H	0.971225	-0.257524	-0.930293
H86	H	1.313788	-0.600346	-0.832313
C87	C	0.733390	-0.350047	-0.487329
N88	N	0.757380	-0.294934	-0.504789
C89	C	1.186988	-0.473682	-1.091799
N90	N	1.232511	-0.519581	-1.125986
C91	C	0.685685	-0.361958	-0.236136
N92	N	0.694557	-0.363352	-0.173043
C93	C	0.543450	-0.361730	-0.236884
N94	N	0.509640	-0.363030	-0.174163
H95	H	1.023063	-0.867713	-0.399059
H96	H	0.691452	-0.508336	-0.297620
C97	C	0.742662	-0.487887	-0.528592
N98	N	0.773632	-0.536604	-0.577132
C99	C	1.136849	-0.885695	-0.527520
N100	N	1.104882	-0.874001	-0.575196
H101	H	1.066767	-0.353237	-0.731554
H102	H	0.999623	-0.285881	-1.080046
C103	C	1.296685	-0.583306	-0.670751
N104	N	1.329418	-0.616086	-0.636544
H105	H	1.163079	-0.968792	-0.257748
H106	H	1.248839	-0.856436	-0.334000
H107	H	1.239416	-0.883200	-0.482619
C108	C	1.138037	-1.026874	-0.527636
N109	N	1.106687	-1.057054	-0.575655
C110	C	1.018738	-0.981250	-0.278929
N111	N	0.987663	-0.991776	-0.218175
C112	C	0.705963	-0.285605	-0.339163
N113	N	0.730105	-0.229483	-0.353669
H114	H	0.564175	-0.507520	-0.296537
H115	H	1.218241	-0.504647	-1.031043
C116	C	0.578604	-0.572966	-0.414889
N117	N	0.565681	-0.626200	-0.457955
