data_functionalizedCrystal
_audit_creation_method	'MofGen! by Chris Wilmer'
_symmetry_space_group_name_H-M	'P1'
_symmetry_Int_Tables_number	1
_symmetry_cell_setting	triclinic
loop_
_symmetry_equiv_pos_as_xyz
  x,y,z
_cell_length_a	8.559649
_cell_length_b	9.616153
_cell_length_c	8.559649
_cell_angle_alpha	90.001695
_cell_angle_beta	110.221336
_cell_angle_gamma	90.002504
loop_
_atom_site_label
_atom_site_type_symbol
_atom_site_fract_x
_atom_site_fract_y
_atom_site_fract_z
O1	O	2.126881	0.115624	0.055046
O2	O	1.651396	0.115629	-0.028735
O3	O	1.931029	0.115625	0.250898
O4	O	1.847248	0.115628	-0.224587
O5	O	1.931009	-0.115667	0.250881
O6	O	1.651376	-0.115662	-0.028752
O7	O	2.126861	-0.115668	0.055029
Zn8	Zn	1.889116	-0.152387	0.013136
Zn9	Zn	1.889142	0.152349	0.013158
O10	O	1.847228	-0.115663	-0.224604
C11	C	1.591077	-0.000016	-0.035093
C12	C	1.411378	-0.000014	-0.053992
N13	N	1.889110	-0.360362	0.013124
C14	C	1.739469	-0.419401	-0.136448
C15	C	1.739069	-0.580569	-0.136127
C16	C	1.873680	-0.581147	0.178205
C17	C	1.872597	-0.419930	0.177271
C18	C	2.054834	-0.419749	-0.000741
C19	C	2.053252	-0.580978	-0.004691
C20	C	2.187180	-0.000020	0.061387
C21	C	2.366879	-0.000013	0.080286
C22	C	1.937369	-0.000019	0.311198
C23	C	1.956268	-0.000011	0.490898
N24	N	1.889162	0.360324	0.013184
C25	C	1.840889	-0.000017	-0.284904
C26	C	1.821990	-0.000015	-0.464604
H27	H	1.745120	-0.620144	-0.259441
H28	H	1.752392	-0.382351	0.192560
Cl29	Cl	2.036186	-0.359618	0.352674
H30	H	1.466258	-0.000007	0.209705
Cl31	Cl	1.257940	0.000002	-0.253823
H32	H	1.980692	-0.619429	0.291369
Cl33	Cl	1.748131	-0.359562	-0.327589
H34	H	1.616715	-0.378915	-0.129902
H35	H	1.692570	-0.000018	0.436018
H36	H	1.615663	-0.619162	-0.129333
H37	H	1.755011	-0.621557	0.194424
H38	H	2.085696	-0.000024	0.590286
Cl39	Cl	2.085966	-0.356992	-0.180908
Cl40	Cl	2.072162	-0.640034	-0.191962
Cl41	Cl	2.230711	-0.643091	0.155011
Cl42	Cl	2.226374	-0.360785	0.168019
