data_functionalizedCrystal
_audit_creation_method	'MofGen! by Chris Wilmer'
_symmetry_space_group_name_H-M	'P1'
_symmetry_Int_Tables_number	1
_symmetry_cell_setting	triclinic
loop_
_symmetry_equiv_pos_as_xyz
  x,y,z
_cell_length_a	12.827893
_cell_length_b	16.625546
_cell_length_c	12.827885
_cell_angle_alpha	90.035124
_cell_angle_beta	90.019272
_cell_angle_gamma	90.022439
loop_
_atom_site_label
_atom_site_type_symbol
_atom_site_fract_x
_atom_site_fract_y
_atom_site_fract_z
Zn1	Zn	1.597618	-0.320963	0.590810
Zn2	Zn	2.097618	0.179037	1.090810
Zn3	Zn	1.597491	-0.455817	0.416054
Zn4	Zn	2.097491	0.044183	0.916054
Zn5	Zn	1.422860	-0.321002	0.416084
Zn6	Zn	1.922860	0.178998	0.916084
Zn7	Zn	1.422823	-0.455757	0.590754
Zn8	Zn	1.922823	0.044243	1.090754
O9	O	1.510198	-0.388385	0.503425
O10	O	2.010198	0.111615	1.003425
O11	O	1.743837	-0.338861	0.567639
O12	O	2.243837	0.161139	1.067639
O13	O	1.574287	-0.437976	0.269822
O14	O	2.074287	0.062024	0.769822
O15	O	1.446110	-0.208165	0.439297
O16	O	1.946110	0.291835	0.939297
O17	O	1.743744	-0.437937	0.439247
O18	O	2.243744	0.062063	0.939247
O19	O	1.574505	-0.208136	0.567668
O20	O	2.074505	0.291864	1.067668
O21	O	1.445987	-0.338928	0.269843
O22	O	1.945987	0.161072	0.769843
O23	O	1.276619	-0.338869	0.439243
O24	O	1.776619	0.161131	0.939243
O25	O	1.446048	-0.437835	0.736997
O26	O	1.946048	0.062165	1.236997
O27	O	1.276592	-0.437873	0.567572
O28	O	1.776592	0.062127	1.067572
O29	O	1.574469	-0.338802	0.737039
O30	O	2.074469	0.161198	1.237039
O31	O	1.574252	-0.568642	0.439192
O32	O	2.074252	-0.068642	0.939192
O33	O	1.445925	-0.568598	0.567544
O34	O	1.945925	-0.068598	1.067544
C35	C	1.238688	-0.388370	0.503405
C36	C	1.738688	0.111630	1.003405
C37	C	1.122535	-0.388382	0.503422
C38	C	1.622535	0.111618	1.003422
C39	C	1.070765	-0.437449	0.566825
C40	C	1.570765	0.062551	1.066825
C41	C	0.950714	-0.437464	0.566844
C42	C	1.450714	0.062536	1.066844
C43	C	1.510099	-0.597876	0.503382
C44	C	2.010099	-0.097876	1.003382
C45	C	1.510152	-0.687497	0.503398
C46	C	2.010152	-0.187497	1.003398
C47	C	1.510335	-1.015673	0.503507
C48	C	2.010335	-0.515673	1.003507
C49	C	1.510281	-0.924364	0.503479
C50	C	2.010281	-0.424364	1.003479
C51	C	1.510243	-0.851588	0.503452
C52	C	2.010243	-0.351588	1.003452
C53	C	1.510190	-0.760274	0.503425
C54	C	2.010190	-0.260274	1.003425
C55	C	1.782768	-0.388401	0.503446
C56	C	2.282768	0.111599	1.003446
C57	C	1.898921	-0.388408	0.503455
C58	C	2.398921	0.111592	1.003455
C59	C	1.510269	-0.388308	0.775996
C60	C	2.010269	0.111692	1.275996
C61	C	1.510299	-0.388275	0.892149
C62	C	2.010299	0.111725	1.392149
C63	C	1.510326	-0.178076	0.503492
C64	C	2.010326	0.321924	1.003492
C65	C	1.510380	-0.088455	0.503521
C66	C	2.010380	0.411545	1.003521
C67	C	1.510187	-0.388404	0.231915
C68	C	2.010187	0.111596	0.731915
C69	C	1.510359	-0.388210	0.115763
C70	C	2.010359	0.111790	0.615763
C71	C	1.573853	-0.339261	0.943954
C72	C	2.073853	0.160739	1.443954
C73	C	1.573886	-0.339225	1.064004
C74	C	2.073886	0.160775	1.564004
H75	H	0.906193	-0.479474	0.621123
H76	H	1.406193	0.020526	1.121123
C77	C	1.646247	-0.283206	0.884649
C78	C	2.146247	0.216794	1.384649
C79	C	1.623557	-0.203399	0.911124
C80	C	2.123557	0.296601	1.411124
C81	C	1.690218	-0.151738	0.856505
C82	C	2.190218	0.348262	1.356505
H83	H	1.716512	-0.294887	0.902439
H84	H	2.216512	0.205113	1.402439
H85	H	1.636575	-0.290609	0.811841
H86	H	2.136575	0.209391	1.311841
H87	H	1.633238	-0.196000	0.983916
H88	H	2.133238	0.304000	1.483916
H89	H	1.553304	-0.191693	0.893332
H90	H	2.053304	0.308307	1.393332
H91	H	1.680546	-0.159141	0.783697
H92	H	2.180546	0.340859	1.283697
H93	H	1.760479	-0.163426	0.874299
H94	H	2.260479	0.336574	1.374299
H95	H	1.674826	-0.097584	0.874453
H96	H	2.174826	0.402416	1.374453
H97	H	0.943436	-0.346401	0.449166
H98	H	1.443436	0.153599	0.949166
H99	H	1.077981	-0.346382	0.449157
H100	H	1.577981	0.153618	0.949157
C101	C	1.646614	-0.283368	1.123345
C102	C	2.146614	0.216632	1.623345
C103	C	1.750017	-0.300931	1.096894
C104	C	2.250017	0.199069	1.596894
C105	C	1.817045	-0.249498	1.151551
C106	C	2.317045	0.250502	1.651551
H107	H	1.631501	-0.229156	1.105571
H108	H	2.131501	0.270844	1.605571
H109	H	1.637063	-0.290789	1.196148
H110	H	2.137063	0.209211	1.696148
H111	H	1.759564	-0.293504	1.024108
H112	H	2.259564	0.206496	1.524108
H113	H	1.765162	-0.355134	1.114671
H114	H	2.265162	0.144866	1.614671
H115	H	1.807493	-0.256919	1.224353
H116	H	2.307493	0.243081	1.724353
H117	H	1.801923	-0.195288	1.133772
H118	H	2.301923	0.304712	1.633772
H119	H	1.887211	-0.261412	1.133618
H120	H	2.387211	0.238588	1.633618
H121	H	1.115319	-0.479444	0.621098
H122	H	1.615319	0.020556	1.121098
C123	C	1.437974	-0.444216	1.056238
C124	C	1.937974	0.055784	1.556238
C125	C	1.497156	-0.495859	0.993546
C126	C	1.997156	0.004141	1.493546
C127	C	1.430512	-0.547454	0.938677
C128	C	1.930512	-0.047454	1.438677
H129	H	1.398097	-0.475022	1.104160
H130	H	1.898097	0.024978	1.604160
H131	H	1.392506	-0.413374	1.013602
H132	H	1.892506	0.086626	1.513602
H133	H	1.542606	-0.526698	1.036178
H134	H	2.042606	-0.026698	1.536178
H135	H	1.537031	-0.465075	0.945604
H136	H	2.037031	0.034925	1.445604
H137	H	1.385044	-0.516612	0.896042
H138	H	1.885044	-0.016612	1.396042
H139	H	1.390638	-0.578255	0.986607
H140	H	1.890638	-0.078255	1.486607
H141	H	1.470656	-0.582495	0.896128
H142	H	1.970656	-0.082495	1.396128
H143	H	1.455906	-0.430206	0.936673
H144	H	1.955906	0.069794	1.436673
