data_functionalizedCrystal
_audit_creation_method	'MofGen! by Chris Wilmer'
_symmetry_space_group_name_H-M	'P1'
_symmetry_Int_Tables_number	1
_symmetry_cell_setting	triclinic
loop_
_symmetry_equiv_pos_as_xyz
  x,y,z
_cell_length_a	23.532407
_cell_length_b	23.532357
_cell_length_c	12.996460
_cell_angle_alpha	89.988323
_cell_angle_beta	89.999749
_cell_angle_gamma	82.838485
loop_
_atom_site_label
_atom_site_type_symbol
_atom_site_fract_x
_atom_site_fract_y
_atom_site_fract_z
O1	O	0.755248	0.069138	-0.085451
O2	O	0.589383	0.079141	-0.085483
O3	O	0.677332	-0.008794	-0.085445
O4	O	0.667299	0.157073	-0.085489
O5	O	0.677323	-0.008799	0.085689
O6	O	0.589374	0.079136	0.085651
O7	O	0.755239	0.069133	0.085683
Cu8	Cu	0.672305	0.074134	0.101293
Cu9	Cu	0.672316	0.074140	-0.101093
O10	O	0.667290	0.157068	0.085645
C11	C	0.568162	0.078884	0.000080
C12	C	0.504945	0.078118	0.000069
C13	C	0.105834	0.125353	0.000103
C14	C	0.046434	0.124641	0.000110
O15	O	0.009681	0.168428	0.000135
N16	N	0.023817	0.072364	0.000122
C17	C	0.060604	0.020794	0.000138
O18	O	0.035912	-0.023737	0.000150
C19	C	0.120003	0.021506	0.000139
C20	C	0.142616	0.073787	0.000116
C21	C	0.128448	0.177629	0.000082
C22	C	0.187844	0.178341	0.000073
C23	C	0.224626	0.126775	0.000086
C24	C	0.202012	0.074498	0.000108
C25	C	0.156788	-0.030063	0.000163
C26	C	0.216191	-0.029346	0.000164
C27	C	0.238804	0.022935	0.000142
C28	C	0.298190	0.023644	0.000113
N29	N	0.320807	0.075922	0.000100
C30	C	0.284025	0.127487	0.000087
C31	C	-0.064139	0.019303	0.000138
C32	C	-0.123536	0.018590	0.000130
C33	C	-0.137702	0.122437	0.000103
C34	C	-0.078303	0.123149	0.000104
C35	C	-0.041522	0.071580	0.000126
C36	C	0.408761	0.128977	0.000069
C37	C	0.468163	0.129684	0.000056
C38	C	0.482324	0.025836	0.000088
C39	C	0.422927	0.025130	0.000095
C40	C	0.386147	0.076704	0.000089
O41	O	0.334977	-0.020120	0.000091
O42	O	0.308725	0.172011	0.000089
C43	C	0.677076	-0.030013	0.000126
C44	C	0.676322	-0.093232	0.000135
C45	C	0.671590	-0.485241	-0.093206
C46	C	0.670873	-0.544640	-0.093212
O47	O	0.670487	-0.575354	-0.172548
N48	N	0.670512	-0.574354	0.000071
C49	C	0.670863	-0.544664	0.093367
O50	O	0.670490	-0.575393	0.172711
C51	C	0.671576	-0.485265	0.093372
C52	C	0.671943	-0.455556	0.000082
C53	C	0.671956	-0.455531	-0.186489
C54	C	0.672674	-0.396135	-0.186482
C55	C	0.673027	-0.366450	-0.093194
C56	C	0.672661	-0.396160	0.000089
C57	C	0.671923	-0.455576	0.186667
C58	C	0.672636	-0.396173	0.186664
C59	C	0.673002	-0.366464	0.093374
C60	C	0.673732	-0.307080	0.093384
N61	N	0.674092	-0.277366	0.000100
C62	C	0.673740	-0.307051	-0.093189
C63	C	0.669364	-0.669406	0.093350
C64	C	0.668655	-0.728804	0.093346
C65	C	0.668664	-0.728776	-0.093234
C66	C	0.669377	-0.669377	-0.093229
C67	C	0.669725	-0.639692	0.000066
C68	C	0.675249	-0.182317	-0.093168
C69	C	0.675969	-0.122917	-0.093154
C70	C	0.675957	-0.122950	0.093426
C71	C	0.675240	-0.182346	0.093412
C72	C	0.674883	-0.212027	0.000106
O73	O	0.674116	-0.276328	0.172678
O74	O	0.674105	-0.276315	-0.172520
C75	C	0.776459	0.069390	0.000118
C76	C	0.839676	0.070156	0.000122
C77	C	0.667545	0.178287	0.000073
C78	C	0.668300	0.241506	0.000056
N79	N	0.672302	0.074130	0.243640
N80	N	0.672324	0.074140	-0.243440
C81	C	0.672315	0.074140	0.663454
C82	C	0.672310	0.074139	0.546649
C83	C	0.672309	0.074135	0.453551
C84	C	0.672303	0.074134	0.336738
H85	H	0.378821	0.170974	0.000067
N86	N	0.668280	-0.759157	0.188630
N87	N	0.667637	-0.812190	0.188626
H88	H	0.667368	-0.833626	0.255923
N89	N	0.676310	-0.092610	0.188702
N90	N	0.636555	-0.053985	0.209489
H91	H	0.636800	-0.032554	0.276778
N92	N	-0.026561	-0.033373	0.000155
N93	N	0.008166	-0.044568	0.072293
H94	H	0.034704	-0.081769	0.072308
H95	H	0.674956	-0.206477	-0.169146
H96	H	0.669675	-0.645191	-0.169194
N97	N	0.669722	-0.639095	0.188664
N98	N	0.669399	-0.665638	0.271940
H99	H	0.669650	-0.644234	0.339257
H100	H	0.486571	0.172259	0.000037
N101	N	0.210928	0.231750	0.000049
N102	N	0.178071	0.277782	0.000038
H103	H	0.194370	0.315506	0.000022
N104	N	0.090883	0.230308	0.000088
N105	N	0.092781	0.265151	0.072215
H106	H	0.066255	0.302359	0.072216
N107	N	-0.055217	0.176558	0.000080
N108	N	-0.088071	0.222591	0.000063
H109	H	-0.071770	0.260314	0.000048
N110	N	-0.175289	0.175107	0.000101
N111	N	-0.228322	0.174457	0.000112
H112	H	-0.254869	0.211653	0.000113
N113	N	0.676354	-0.092571	-0.188451
N114	N	0.716429	-0.104682	-0.250903
H115	H	0.716701	-0.083252	-0.318205
H116	H	0.246136	-0.071341	0.000183
N117	N	0.668312	-0.759115	-0.188520
N118	N	0.667678	-0.812149	-0.188501
H119	H	0.667433	-0.833579	-0.255792
H120	H	0.672910	-0.372006	0.262637
N121	N	-0.146622	-0.034819	0.000130
N122	N	-0.113767	-0.080853	0.000136
H123	H	-0.130069	-0.118575	0.000140
H124	H	0.674947	-0.206538	0.169376
N125	N	0.399816	-0.028268	0.000098
N126	N	0.368246	-0.040249	-0.072028
H127	H	0.351927	-0.077962	-0.072020
N128	N	0.671540	-0.485902	0.281973
N129	N	0.631463	-0.473783	0.344416
H130	H	0.631191	-0.495198	0.411734
N131	N	0.133712	-0.083474	0.000205
N132	N	0.145103	-0.118153	0.072362
H133	H	0.128808	-0.155879	0.072396
N134	N	0.519912	-0.026828	0.000116
N135	N	0.554639	-0.038005	0.072259
H136	H	0.581188	-0.075199	0.072286
N137	N	0.673046	-0.365801	-0.281786
N138	N	0.672729	-0.392322	-0.365065
H139	H	0.672990	-0.370901	-0.432379
N140	N	0.671592	-0.485838	-0.281799
N141	N	0.671917	-0.459292	-0.365070
H142	H	0.671663	-0.480693	-0.432390
