data_functionalizedCrystal
_audit_creation_method	'MofGen! by Chris Wilmer'
_symmetry_space_group_name_H-M	'P1'
_symmetry_Int_Tables_number	1
_symmetry_cell_setting	triclinic
loop_
_symmetry_equiv_pos_as_xyz
  x,y,z
_cell_length_a	13.339070
_cell_length_b	8.597340
_cell_length_c	7.088929
_cell_angle_alpha	103.954719
_cell_angle_beta	82.086468
_cell_angle_gamma	100.340786
loop_
_atom_site_label
_atom_site_type_symbol
_atom_site_fract_x
_atom_site_fract_y
_atom_site_fract_z
O1	O	0.138878	2.162869	0.197309
O2	O	0.155386	1.705496	0.121963
O3	O	-0.000086	1.881691	0.150994
O4	O	0.294349	1.986674	0.168278
O5	O	-0.020910	1.905217	0.472846
O6	O	0.134561	1.729022	0.443814
O7	O	0.118054	2.186395	0.519161
Cu8	Cu	0.124406	1.959856	0.510875
Cu9	Cu	0.149033	1.932034	0.130248
O10	O	0.273525	2.010200	0.490129
C11	C	0.144361	1.657525	0.273048
C12	C	0.142523	1.479529	0.243726
C13	C	-0.048171	1.875720	0.308996
C14	C	-0.160426	1.822860	0.300280
C15	C	-0.525583	2.233871	0.367990
C16	C	-0.420115	2.283542	0.376191
C17	C	-0.355188	2.168375	0.357213
C18	C	-0.395738	2.003530	0.330035
C19	C	-0.501217	1.953855	0.321849
C20	C	-0.330822	1.888360	0.311072
C21	C	-0.371372	1.723514	0.283893
C22	C	-0.476841	1.673848	0.275707
C23	C	-0.541768	1.789014	0.294685
C24	C	-0.225343	1.938034	0.319258
C25	C	-0.200977	1.658019	0.273116
C26	C	-0.306444	1.608348	0.264916
C27	C	0.321611	2.016170	0.332123
C28	C	0.433866	2.069030	0.340826
C29	C	0.129079	2.234366	0.368071
C30	C	0.130917	2.412360	0.397381
N31	N	0.107084	1.979436	0.778589
N32	N	0.166347	1.912464	-0.137464
H33	H	0.122380	1.491024	0.551372
H34	H	0.151054	1.400855	0.089724
O35	O	0.239745	1.829871	0.751623
C36	C	0.336625	1.903902	0.812621
H37	H	0.333357	2.035896	0.889490
H38	H	0.395955	1.898444	0.679997
H39	H	0.358902	1.837232	0.917696
H40	H	0.045674	2.048868	0.871685
H41	H	-0.339476	1.474127	0.242788
H42	H	-0.192338	2.072252	0.341387
O43	O	-0.252755	2.216889	0.365125
C44	C	-0.230889	2.387082	0.393227
H45	H	-0.294630	2.433290	0.340655
H46	H	-0.155022	2.421995	0.306658
H47	H	-0.225332	2.443583	0.555088
H48	H	-0.148113	1.564241	0.257673
H49	H	-0.387107	2.417759	0.398322
O50	O	-0.588672	2.345640	0.386077
C51	C	-0.639649	2.313079	0.216060
H52	H	-0.593407	2.240098	0.088923
H53	H	-0.648013	2.432251	0.180428
H54	H	-0.718745	2.240561	0.241349
O55	O	-0.644223	1.740945	0.286496
C56	C	-0.675343	1.788934	0.129688
H57	H	-0.618072	1.895241	0.092304
H58	H	-0.754319	1.827281	0.173032
H59	H	-0.678801	1.683088	-0.003066
H60	H	-0.509853	1.539621	0.253591
