data_functionalizedCrystal
_audit_creation_method	'MofGen! by Chris Wilmer'
_symmetry_space_group_name_H-M	'P1'
_symmetry_Int_Tables_number	1
_symmetry_cell_setting	triclinic
loop_
_symmetry_equiv_pos_as_xyz
  x,y,z
_cell_length_a	10.654550
_cell_length_b	10.654550
_cell_length_c	9.730223
_cell_angle_alpha	90.004253
_cell_angle_beta	90.000043
_cell_angle_gamma	84.484931
loop_
_atom_site_label
_atom_site_type_symbol
_atom_site_fract_x
_atom_site_fract_y
_atom_site_fract_z
O1	O	-1.667839	-0.176399	-0.114187
O2	O	-1.167839	0.323601	0.385813
O3	O	-1.302361	-0.193205	-0.114212
O4	O	-0.802361	0.306795	0.385788
O5	O	-1.493503	-0.002062	-0.114190
O6	O	-0.993503	0.497938	0.385810
O7	O	-1.476697	-0.367541	-0.114209
O8	O	-0.976697	0.132459	0.385791
O9	O	-1.493490	-0.002057	0.114390
O10	O	-0.993490	0.497943	0.614390
O11	O	-1.302348	-0.193199	0.114368
O12	O	-0.802348	0.306801	0.614368
O13	O	-1.667827	-0.176393	0.114393
O14	O	-1.167827	0.323607	0.614393
Zn15	Zn	-1.485085	-0.184796	0.150672
Zn16	Zn	-0.985085	0.315204	0.650672
Zn17	Zn	-1.485102	-0.184802	-0.150492
Zn18	Zn	-0.985102	0.315198	0.349508
O19	O	-1.476684	-0.367536	0.114371
O20	O	-0.976684	0.132464	0.614371
C21	C	-1.255556	-0.191968	0.000075
C22	C	-0.755556	0.308032	0.500075
C23	C	-1.116113	-0.188276	0.000065
C24	C	-0.616113	0.311724	0.500065
C25	C	-1.492263	0.044738	0.000099
C26	C	-0.992263	0.544738	0.500099
C27	C	-1.488571	0.184181	0.000096
C28	C	-0.988571	0.684181	0.500096
C29	C	-1.714631	-0.177630	0.000103
C30	C	-1.214631	0.322370	0.500103
C31	C	-1.854074	-0.181322	0.000104
C32	C	-1.354074	0.318678	0.500104
C33	C	-1.477925	-0.414336	0.000079
C34	C	-0.977925	0.085664	0.500079
C35	C	-1.481617	-0.553779	0.000072
C36	C	-0.981617	-0.053779	0.500072
C37	C	-1.036628	-0.300818	0.000064
C38	C	-0.536628	0.199182	0.500064
C39	C	-0.905607	-0.297341	0.000088
C40	C	-0.405607	0.202659	0.500088
C41	C	-0.933570	-0.068772	0.000109
C42	C	-0.433570	0.431228	0.500109
C43	C	-1.064588	-0.072250	0.000095
C44	C	-0.564588	0.427750	0.500095
N45	N	-1.485083	-0.184790	0.356209
N46	N	-0.985083	0.315210	0.856209
C47	C	-1.601112	0.263667	0.000104
C48	C	-1.101112	0.763667	0.500104
C49	C	-1.597636	0.394688	0.000087
C50	C	-1.097636	0.894688	0.500087
C51	C	-1.369066	0.366725	0.000061
C52	C	-0.869066	0.866725	0.500061
C53	C	-1.372544	0.235706	0.000068
C54	C	-0.872544	0.735706	0.500068
N55	N	-1.485114	-0.184798	-0.356028
N56	N	-0.985114	0.315202	0.143972
C57	C	-1.569750	-0.100188	0.428144
C58	C	-1.069750	0.399812	0.928144
C59	C	-1.569763	-0.100189	0.572027
C60	C	-1.069763	0.399811	1.072027
C61	C	-1.400438	-0.269404	0.572026
C62	C	-0.900438	0.230596	1.072026
C63	C	-1.400420	-0.269396	0.428146
C64	C	-0.900420	0.230604	0.928146
H65	H	-1.078574	-0.395294	0.000049
H66	H	-0.578574	0.104706	0.500049
H67	H	-1.638687	-0.031295	0.369576
H68	H	-1.138687	0.468705	0.869576
Cl69	Cl	-1.746974	0.198897	0.000136
Cl70	Cl	-1.246974	0.698897	0.500136
H71	H	-1.274601	0.408693	0.000041
H72	H	-0.774601	0.908693	0.500041
H73	H	-0.840894	-0.388984	0.000089
H74	H	-0.340894	0.111016	0.500089
H75	H	-1.638705	-0.031297	0.630593
H76	H	-1.138705	0.468703	1.130593
Cl77	Cl	-1.739124	0.494608	0.000093
Cl78	Cl	-1.239124	0.994608	0.500093
H79	H	-1.280893	0.170985	0.000058
H80	H	-0.780893	0.670985	0.500058
Cl81	Cl	-1.294013	-0.375766	0.662468
Cl82	Cl	-0.794013	0.124234	1.162468
H83	H	-0.891602	0.025693	0.000142
H84	H	-0.391602	0.525693	0.500142
Cl85	Cl	-1.164521	0.069243	0.000108
Cl86	Cl	-0.664521	0.569243	0.500108
Cl87	Cl	-1.293967	-0.375755	0.337704
Cl88	Cl	-0.793967	0.124245	0.837704
