data_functionalizedCrystal
_audit_creation_method	'MofGen! by Chris Wilmer'
_symmetry_space_group_name_H-M	'P1'
_symmetry_Int_Tables_number	1
_symmetry_cell_setting	triclinic
loop_
_symmetry_equiv_pos_as_xyz
  x,y,z
_cell_length_a	10.654546
_cell_length_b	10.654551
_cell_length_c	9.730223
_cell_angle_alpha	89.998425
_cell_angle_beta	89.995791
_cell_angle_gamma	84.484422
loop_
_atom_site_label
_atom_site_type_symbol
_atom_site_fract_x
_atom_site_fract_y
_atom_site_fract_z
O1	O	1.667842	0.176377	-0.114311
O2	O	1.302363	0.193188	-0.114306
O3	O	1.493505	0.002043	-0.114309
O4	O	1.476700	0.367522	-0.114307
O5	O	1.493493	0.002038	0.114271
O6	O	1.302351	0.193183	0.114274
O7	O	1.667830	0.176372	0.114269
Zn8	Zn	1.485088	0.184777	0.150564
Zn9	Zn	1.485105	0.184784	-0.150600
O10	O	1.476688	0.367517	0.114272
C11	C	1.255559	0.191952	-0.000015
C12	C	1.116116	0.188262	-0.000014
C13	C	1.492265	-0.044757	-0.000022
C14	C	1.488572	-0.184200	-0.000031
C15	C	1.050628	0.186519	-0.124619
C16	C	0.919607	0.183041	-0.124630
C17	C	0.919574	0.183046	0.124580
C18	C	1.050592	0.186532	0.124590
C19	C	1.116152	0.188248	-0.249223
C20	C	1.050664	0.186504	-0.373838
C21	C	0.919643	0.183026	-0.373849
C22	C	0.854110	0.181294	-0.249245
C23	C	1.486847	-0.249709	-0.124628
C24	C	1.483367	-0.380730	-0.124622
C25	C	1.483343	-0.380721	0.124589
C26	C	1.486814	-0.249702	0.124581
C27	C	1.488605	-0.184208	-0.249240
C28	C	1.486881	-0.249717	-0.373847
C29	C	1.483401	-0.380737	-0.373841
C30	C	1.481645	-0.446248	-0.249228
C31	C	1.714634	0.177608	-0.000024
C32	C	1.854078	0.181298	-0.000035
C33	C	1.477928	0.414317	-0.000017
C34	C	1.481621	0.553760	-0.000017
N35	N	1.485086	0.184771	0.356100
N36	N	1.485117	0.184779	-0.356137
C37	C	1.569753	0.100168	0.428025
C38	C	1.569766	0.100169	0.571907
C39	C	1.400441	0.269386	0.571929
C40	C	1.400423	0.269378	0.428048
H41	H	1.222836	0.191077	-0.249228
H42	H	1.104028	0.187925	-0.475286
C43	C	1.662875	0.007088	0.348886
N44	N	1.733013	-0.063027	0.289283
C45	C	1.662896	0.007089	0.651018
N46	N	1.733041	-0.063028	0.710603
C47	C	0.847610	0.181108	-0.510927
N48	N	0.793358	0.179653	-0.614178
C49	C	1.307314	0.362447	0.651085
N50	N	1.237168	0.432541	0.710705
C51	C	1.488719	-0.177639	0.261644
N52	N	1.490152	-0.123360	0.364883
C53	C	1.307336	0.362511	0.348927
N54	N	1.237245	0.432674	0.289332
C55	C	0.709982	0.177471	-0.249265
N56	N	0.601428	0.174585	-0.249281
H57	H	0.866207	0.181633	0.226027
H58	H	1.103912	0.187958	0.226054
H59	H	1.491442	-0.077525	-0.249260
H60	H	1.481914	-0.434070	0.226043
H61	H	1.488299	-0.196368	-0.475302
H62	H	1.481984	-0.434070	-0.475301
H63	H	1.478793	-0.552932	-0.249233
