data_functionalizedCrystal
_audit_creation_method	'MofGen! by Chris Wilmer'
_symmetry_space_group_name_H-M	'P1'
_symmetry_Int_Tables_number	1
_symmetry_cell_setting	triclinic
loop_
_symmetry_equiv_pos_as_xyz
  x,y,z
_cell_length_a	14.971482
_cell_length_b	17.019294
_cell_length_c	14.048226
_cell_angle_alpha	86.114596
_cell_angle_beta	89.994098
_cell_angle_gamma	83.503209
loop_
_atom_site_label
_atom_site_type_symbol
_atom_site_fract_x
_atom_site_fract_y
_atom_site_fract_z
O1	O	1.186694	0.102787	-0.087572
O2	O	1.686694	0.602787	0.412428
O3	O	0.926262	0.115100	-0.088586
O4	O	1.426262	0.615100	0.411414
O5	O	1.063743	-0.005883	-0.078662
O6	O	1.563743	0.494117	0.421338
O7	O	1.049213	0.223770	-0.097496
O8	O	1.549213	0.723770	0.402504
O9	O	1.063726	-0.005890	0.079660
O10	O	1.563726	0.494110	0.579660
O11	O	0.926246	0.115093	0.069736
O12	O	1.426246	0.615093	0.569736
O13	O	1.186677	0.102780	0.070750
O14	O	1.686677	0.602780	0.570750
Zn15	Zn	1.056459	0.108935	0.095380
Zn16	Zn	1.556459	0.608935	0.595380
Zn17	Zn	1.056481	0.108945	-0.113216
Zn18	Zn	1.556481	0.608945	0.386784
O19	O	1.049197	0.223763	0.060826
O20	O	1.549197	0.723763	0.560826
C21	C	0.892931	0.114547	-0.009381
C22	C	1.392931	0.614547	0.490619
C23	C	0.793638	0.112898	-0.009247
C24	C	1.293638	0.612898	0.490753
C25	C	0.746986	0.112118	0.077119
C26	C	1.246986	0.612118	0.577119
C27	C	0.653691	0.110556	0.077248
C28	C	1.153691	0.610556	0.577248
C29	C	0.607049	0.109780	-0.008990
C30	C	1.107049	0.609780	0.491010
C31	C	0.653708	0.110558	-0.095363
C32	C	1.153708	0.610558	0.404637
C33	C	0.747002	0.112114	-0.095490
C34	C	1.247002	0.612114	0.404510
C35	C	0.459254	0.107317	-0.095091
C36	C	0.959254	0.607317	0.404909
C37	C	0.365954	0.105762	-0.094964
C38	C	0.865954	0.605762	0.405036
C39	C	0.365944	0.105759	0.077648
C40	C	0.865944	0.605759	0.577648
C41	C	0.459237	0.107315	0.077520
C42	C	0.959237	0.607315	0.577520
C43	C	0.505889	0.108094	-0.008853
C44	C	1.005889	0.608094	0.491147
C45	C	1.063183	-0.035276	0.002907
C46	C	1.563183	0.464724	0.502907
C47	C	1.061530	-0.122848	0.010083
C48	C	1.561530	0.377152	0.510083
C49	C	1.060765	-0.163981	-0.072847
C50	C	1.560765	0.336019	0.427153
C51	C	1.059206	-0.246264	-0.066101
C52	C	1.559206	0.253736	0.433899
C53	C	1.058419	-0.287413	0.023575
C54	C	1.558419	0.212587	0.523575
C55	C	1.059182	-0.246273	0.106510
C56	C	1.559182	0.253727	0.606510
C57	C	1.060734	-0.163992	0.099764
C58	C	1.560734	0.336008	0.599764
C59	C	1.053725	-0.535851	0.048262
C60	C	1.553725	-0.035851	0.548262
C61	C	1.052175	-0.618139	0.055002
C62	C	1.552175	-0.118139	0.555002
C63	C	1.052197	-0.618123	-0.117611
C64	C	1.552197	-0.118123	0.382389
C65	C	1.053755	-0.535840	-0.124349
C66	C	1.553755	-0.035840	0.375651
C67	C	1.054513	-0.494708	-0.041413
C68	C	1.554513	0.005292	0.458587
C69	C	1.056828	-0.371519	0.030472
C70	C	1.556828	0.128481	0.530472
C71	C	1.056097	-0.410602	-0.048311
C72	C	1.556097	0.089398	0.451689
C73	C	1.220009	0.103333	-0.008458
C74	C	1.720009	0.603333	0.491542
C75	C	1.319302	0.104982	-0.008598
C76	C	1.819302	0.604982	0.491402
C77	C	1.049756	0.253156	-0.020746
C78	C	1.549756	0.753156	0.479254
C79	C	1.051409	0.340728	-0.027928
C80	C	1.551409	0.840728	0.472072
N81	N	1.056451	0.108928	0.237741
N82	N	1.556451	0.608928	0.737741
N83	N	1.056496	0.108945	-0.255577
N84	N	1.556496	0.608945	0.244423
C85	C	1.117346	0.055379	0.291952
C86	C	1.617346	0.555379	0.791952
C87	C	1.117352	0.055379	0.391609
C88	C	1.617352	0.555379	0.891609
C89	C	1.056466	0.108932	0.437054
C90	C	1.556466	0.608932	0.937054
C91	C	0.995564	0.162484	0.382836
C92	C	1.495564	0.662484	0.882836
C93	C	0.995555	0.162480	0.283181
C94	C	1.495555	0.662480	0.783181
C95	C	0.995590	0.162489	0.590550
C96	C	1.495590	0.662489	1.090550
C97	C	0.995601	0.162495	0.690212
C98	C	1.495601	0.662495	1.190212
C99	C	1.117387	0.055389	0.698979
C100	C	1.617387	0.555389	1.198979
C101	C	1.117378	0.055385	0.599323
C102	C	1.617378	0.555385	1.099323
C103	C	1.056477	0.108937	0.545112
C104	C	1.556477	0.608937	1.045112
H105	H	0.615725	0.109921	-0.165579
H106	H	1.115725	0.609921	0.334421
C107	C	1.184320	-0.003549	0.451238
C108	C	1.684320	0.496451	0.951238
N109	N	1.234756	-0.047943	0.496151
N110	N	1.734756	0.452057	0.996151
H111	H	1.056190	-0.405032	0.103486
H112	H	1.556190	0.094968	0.603486
C113	C	0.928618	0.221401	0.740200
C114	C	1.428618	0.721401	1.240200
N115	N	0.878164	0.265769	0.777851
N116	N	1.378164	0.765769	1.277851
H117	H	1.058535	-0.279783	0.179526
H118	H	1.558535	0.220217	0.679526
C119	C	1.184376	-0.003523	0.758613
C120	C	1.684376	0.496477	1.258613
N121	N	1.234831	-0.047893	0.803533
N122	N	1.734831	0.452107	1.303533
C123	C	0.314626	0.104895	0.172659
C124	C	0.814626	0.604895	0.672659
N125	N	0.275969	0.104247	0.244219
N126	N	0.775969	0.604247	0.744219
C127	C	1.051353	-0.663375	-0.208833
C128	C	1.551353	-0.163375	0.291167
N129	N	1.050713	-0.697458	-0.277546
N130	N	1.550713	-0.197458	0.222454
H131	H	1.166930	0.011773	0.254957
H132	H	1.666930	0.511773	0.754957
C133	C	0.928586	0.221392	0.530921
C134	C	1.428586	0.721392	1.030921
N135	N	0.878120	0.265757	0.486008
N136	N	1.378120	0.765757	0.986008
C137	C	0.798318	0.112975	-0.190500
C138	C	1.298318	0.612975	0.309500
N139	N	0.836968	0.113620	-0.262064
N140	N	1.336968	0.613620	0.237936
C141	C	0.928572	0.221394	0.223549
C142	C	1.428572	0.721394	0.723549
N143	N	0.878119	0.265771	0.178635
N144	N	1.378119	0.765771	0.678635
H145	H	1.166960	0.011782	0.562322
H146	H	1.666960	0.511782	1.062322
C147	C	0.314650	0.104906	-0.189830
C148	C	0.814650	0.604906	0.310170
N149	N	0.276008	0.104260	-0.261285
N150	N	0.776008	0.604260	0.238715
H151	H	1.054397	-0.502343	-0.197372
H152	H	1.554397	-0.002343	0.302628
H153	H	0.784954	0.112756	0.147344
H154	H	1.284954	0.612756	0.647344
H155	H	1.054360	-0.502372	0.115794
H156	H	1.554360	-0.002372	0.615794
H157	H	0.945985	0.206085	0.419844
H158	H	1.445985	0.706085	0.919844
H159	H	0.615714	0.109907	0.147577
H160	H	1.115714	0.609907	0.647577
H161	H	0.497210	0.107951	0.147742
H162	H	0.997210	0.607951	0.647742
H163	H	1.061410	-0.130485	-0.145870
H164	H	1.561410	0.369515	0.354130
H165	H	1.051529	-0.651639	0.128030
H166	H	1.551529	-0.151639	0.628030
H167	H	1.056732	-0.377095	-0.121325
H168	H	1.556732	0.122905	0.378675
C169	C	1.058446	-0.291516	-0.157330
C170	C	1.558446	0.208484	0.342670
N171	N	1.057903	-0.325603	-0.226048
N172	N	1.557903	0.174397	0.273952
C173	C	0.510568	0.108179	-0.190107
C174	C	1.010568	0.608179	0.309893
N175	N	0.549217	0.108833	-0.261671
N176	N	1.049217	0.608833	0.238329
C177	C	1.061579	-0.118746	0.190993
C178	C	1.561579	0.381254	0.690993
N179	N	1.062213	-0.084667	0.259710
N180	N	1.562213	0.415333	0.759710
