data_functionalizedCrystal
_audit_creation_method	'MofGen! by Chris Wilmer'
_symmetry_space_group_name_H-M	'P1'
_symmetry_Int_Tables_number	1
_symmetry_cell_setting	triclinic
loop_
_symmetry_equiv_pos_as_xyz
  x,y,z
_cell_length_a	16.974800
_cell_length_b	19.188930
_cell_length_c	15.455450
_cell_angle_alpha	87.006217
_cell_angle_beta	83.360050
_cell_angle_gamma	83.267966
loop_
_atom_site_label
_atom_site_type_symbol
_atom_site_fract_x
_atom_site_fract_y
_atom_site_fract_z
O1	O	1.048905	0.088996	-0.001517
O2	O	1.382239	0.422329	0.331816
O3	O	1.715572	0.755662	0.665150
O4	O	0.817969	0.099728	0.014703
O5	O	1.151302	0.433062	0.348036
O6	O	1.484635	0.766395	0.681369
O7	O	0.940102	-0.007264	0.006108
O8	O	1.273435	0.326069	0.339441
O9	O	1.606769	0.659403	0.672775
O10	O	0.926772	0.195988	0.007078
O11	O	1.260105	0.529321	0.340411
O12	O	1.593439	0.862655	0.673745
O13	O	0.946254	-0.001800	-0.138582
O14	O	1.279587	0.331533	0.194751
O15	O	1.612920	0.664867	0.528085
O16	O	0.824120	0.105192	-0.129987
O17	O	1.157453	0.438526	0.203346
O18	O	1.490787	0.771859	0.536680
O19	O	1.055057	0.094460	-0.146207
O20	O	1.388390	0.427793	0.187127
O21	O	1.721724	0.761126	0.520460
Cu22	Cu	0.940150	0.100325	-0.151308
Cu23	Cu	1.273484	0.433658	0.182025
Cu24	Cu	1.606817	0.766992	0.515358
Cu25	Cu	0.932875	0.093863	0.019804
Cu26	Cu	1.266209	0.427196	0.353138
Cu27	Cu	1.599542	0.760530	0.686471
O28	O	0.932923	0.201452	-0.137612
O29	O	1.266257	0.534786	0.195721
O30	O	1.599590	0.868119	0.529055
C31	C	0.791499	0.101952	-0.055567
C32	C	1.124832	0.435286	0.277766
C33	C	1.458166	0.768619	0.611099
C34	C	0.703463	0.100430	-0.049385
C35	C	1.036797	0.433763	0.283948
C36	C	1.370130	0.767096	0.617282
C37	C	0.665462	0.102691	-0.125353
C38	C	0.998795	0.436025	0.207980
C39	C	1.332129	0.769358	0.541314
C40	C	0.582745	0.101250	-0.119546
C41	C	0.916078	0.434583	0.213787
C42	C	1.249412	0.767916	0.547120
C43	C	0.538030	0.097552	-0.037771
C44	C	0.871363	0.430885	0.295562
C45	C	1.204697	0.764218	0.628896
C46	C	0.576037	0.095288	0.038203
C47	C	0.909370	0.428621	0.371536
C48	C	1.242704	0.761954	0.704869
C49	C	0.658753	0.096724	0.032395
C50	C	0.992087	0.430058	0.365729
C51	C	1.325420	0.763391	0.699062
C52	C	0.290285	0.092931	-0.011945
C53	C	0.623619	0.426264	0.321388
C54	C	0.956952	0.759597	0.654721
C55	C	0.207563	0.091496	-0.006144
C56	C	0.540896	0.424830	0.327190
C57	C	0.874230	0.758163	0.660523
C58	C	0.214277	0.097457	-0.163893
C59	C	0.547610	0.430791	0.169440
C60	C	0.880944	0.764124	0.502773
C61	C	0.296994	0.098898	-0.169693
C62	C	0.630327	0.432231	0.163640
C63	C	0.963661	0.765565	0.496973
C64	C	0.334994	0.096630	-0.093720
C65	C	0.668328	0.429964	0.239614
C66	C	1.001661	0.763297	0.572947
N67	N	0.453480	0.096080	-0.031834
N68	N	0.786813	0.429413	0.301499
N69	N	1.120146	0.762747	0.634833
N70	N	0.419544	0.098097	-0.099658
N71	N	0.752878	0.431430	0.233676
N72	N	1.086211	0.764763	0.567009
C73	C	0.942746	-0.030545	-0.066209
C74	C	1.276080	0.302788	0.267124
C75	C	1.609413	0.636122	0.600457
C76	C	0.941451	-0.108055	-0.066126
C77	C	1.274784	0.225279	0.267208
C78	C	1.608118	0.558612	0.600541
C79	C	1.013115	-0.152668	-0.071163
C80	C	1.346448	0.180666	0.262170
C81	C	1.679781	0.513999	0.595504
C82	C	1.011897	-0.225497	-0.071064
C83	C	1.345230	0.107836	0.262270
C84	C	1.678563	0.441169	0.595603
C85	C	0.939012	-0.253710	-0.065944
C86	C	1.272345	0.079623	0.267389
C87	C	1.605679	0.412957	0.600723
C88	C	0.867339	-0.209087	-0.060901
C89	C	1.200672	0.124246	0.272432
C90	C	1.534005	0.457579	0.605766
C91	C	0.868558	-0.136260	-0.060992
C92	C	1.201891	0.197074	0.272341
C93	C	1.535225	0.530407	0.605675
N94	N	0.885394	-0.360097	-0.111272
N95	N	1.218727	-0.026764	0.222061
N96	N	1.552060	0.306570	0.555395
N97	N	0.884240	-0.429281	-0.111188
N98	N	1.217573	-0.095947	0.222146
N99	N	1.550907	0.237386	0.555479
C100	C	0.935333	-0.473135	-0.065668
C101	C	1.268666	-0.139802	0.267665
C102	C	1.602000	0.193531	0.600999
N103	N	0.987636	-0.445193	-0.020247
N104	N	1.320969	-0.111860	0.313086
N105	N	1.654302	0.221473	0.646419
N106	N	0.988792	-0.376003	-0.020336
N107	N	1.322125	-0.042670	0.312998
N108	N	1.655458	0.290663	0.646331
C109	C	0.937681	-0.332679	-0.065844
C110	C	1.271015	0.000655	0.267489
C111	C	1.604348	0.333988	0.600822
C112	C	1.005681	-0.596719	-0.070597
C113	C	1.339014	-0.263386	0.262737
C114	C	1.672348	0.069948	0.596070
C115	C	1.004460	-0.669550	-0.070492
C116	C	1.337793	-0.336216	0.262842
C117	C	1.671127	-0.002883	0.596175
C118	C	0.859900	-0.653138	-0.060338
C119	C	1.193233	-0.319805	0.272996
C120	C	1.526567	0.013529	0.606329
C121	C	0.861123	-0.580309	-0.060434
C122	C	1.194456	-0.246976	0.272899
C123	C	1.527789	0.086358	0.606232
C124	C	0.934016	-0.552104	-0.065568
C125	C	1.267349	-0.218771	0.267765
C126	C	1.600682	0.114563	0.601099
C127	C	1.081526	0.092236	-0.075935
C128	C	1.414860	0.425569	0.257399
C129	C	1.748193	0.758902	0.590732
C130	C	1.169562	0.093758	-0.082111
C131	C	1.502895	0.427091	0.251222
C132	C	1.836228	0.760425	0.584555
C133	C	0.930279	0.224733	-0.065293
C134	C	1.263612	0.558066	0.268040
C135	C	1.596946	0.891400	0.601374
C136	C	0.931574	0.302242	-0.065371
C137	C	1.264908	0.635576	0.267963
C138	C	1.598241	0.968909	0.601296
N139	N	0.945273	0.104870	-0.271660
N140	N	1.278606	0.438203	0.061673
N141	N	1.611939	0.771536	0.395007
C142	C	0.899276	0.064140	-0.313856
C143	C	1.232610	0.397473	0.019478
C144	C	1.565943	0.730807	0.352811
C145	C	0.903170	0.067585	-0.404934
C146	C	1.236503	0.400918	-0.071601
C147	C	1.569836	0.734252	0.261732
C148	C	0.953064	0.111756	-0.453816
C149	C	1.286397	0.445090	-0.120483
C150	C	1.619731	0.778423	0.212851
C151	C	0.999062	0.152491	-0.411614
C152	C	1.332395	0.485824	-0.078281
C153	C	1.665728	0.819157	0.255053
C154	C	0.995164	0.149049	-0.320537
C155	C	1.328497	0.482382	0.012797
C156	C	1.661831	0.815716	0.346130
C157	C	0.969859	0.126605	-0.726565
C158	C	1.303192	0.459939	-0.393232
C159	C	1.636526	0.793272	-0.059899
C160	C	0.973755	0.130042	-0.817649
C161	C	1.307089	0.463376	-0.484315
C162	C	1.640422	0.796709	-0.150982
C163	C	0.877862	0.045138	-0.810963
C164	C	1.211195	0.378471	-0.477629
C165	C	1.544528	0.711804	-0.144296
C166	C	0.873972	0.041697	-0.719884
C167	C	1.207305	0.375030	-0.386551
C168	C	1.540638	0.708363	-0.053218
C169	C	0.919966	0.082433	-0.677690
C170	C	1.253300	0.415767	-0.344357
C171	C	1.586633	0.749100	-0.011023
N172	N	0.957046	0.115277	-0.546913
N173	N	1.290380	0.448611	-0.213580
N174	N	1.623713	0.781944	0.119754
N175	N	0.915979	0.078916	-0.584594
N176	N	1.249312	0.412249	-0.251261
N177	N	1.582646	0.745583	0.082072
N178	N	0.927759	0.089313	0.140156
N179	N	1.261093	0.422646	0.473489
N180	N	1.594426	0.755980	0.806822
H181	H	0.171158	0.088487	0.060451
H182	H	0.504491	0.421820	0.393784
H183	H	0.837824	0.755154	0.727118
H184	H	1.039684	0.188459	-0.451420
H185	H	1.373017	0.521792	-0.118087
H186	H	1.706350	0.855126	0.215246
H187	H	0.701863	0.105709	-0.191943
H188	H	1.035196	0.439042	0.141390
H189	H	1.368529	0.772375	0.474724
H190	H	0.858650	0.028169	-0.274063
H191	H	1.191983	0.361502	0.059271
H192	H	1.525316	0.694836	0.392604
H193	H	0.807995	-0.232063	-0.056731
H194	H	1.141328	0.101270	0.276603
H195	H	1.474662	0.434604	0.609936
H196	H	0.810199	-0.099935	-0.056890
H197	H	1.143532	0.233398	0.276443
H198	H	1.476866	0.566732	0.609777
H199	H	1.032617	0.182217	-0.286182
H200	H	1.365950	0.515551	0.047151
H201	H	1.699283	0.848884	0.380484
H202	H	0.539624	0.092272	0.104786
H203	H	0.872958	0.425605	0.438119
H204	H	1.206291	0.758938	0.771452
H205	H	1.062819	-0.705874	-0.074589
H206	H	1.396153	-0.372541	0.258744
H207	H	1.729486	-0.039207	0.592077
H208	H	0.183328	0.099302	-0.225746
H209	H	0.516661	0.432636	0.107587
H210	H	0.849995	0.765969	0.440920
H211	H	0.551810	0.103080	-0.181408
H212	H	0.885144	0.436413	0.151926
H213	H	1.218477	0.769746	0.485259
H214	H	0.865715	0.034418	-0.439286
H215	H	1.199048	0.367752	-0.105952
H216	H	1.532381	0.701085	0.227381
H217	H	0.333396	0.101906	-0.236283
H218	H	0.666730	0.435239	0.097050
H219	H	1.000063	0.768573	0.430383
H220	H	1.065035	-0.573754	-0.074773
H221	H	1.398368	-0.240420	0.258560
H222	H	1.731701	0.092913	0.591894
H223	H	0.800556	-0.676108	-0.056165
H224	H	1.133889	-0.342775	0.277168
H225	H	1.467222	-0.009441	0.610502
H226	H	0.321215	0.091082	0.049918
H227	H	0.654549	0.424415	0.383251
H228	H	0.987882	0.757749	0.716585
H229	H	0.689693	0.094884	0.094257
H230	H	1.023026	0.428217	0.427590
H231	H	1.356359	0.761551	0.760923
H232	H	0.802767	-0.543984	-0.056337
H233	H	1.136100	-0.210650	0.276996
H234	H	1.469433	0.122683	0.610330
H235	H	0.840414	0.011973	-0.845327
H236	H	1.173747	0.345306	-0.511994
H237	H	1.507081	0.678640	-0.178661
H238	H	1.072469	-0.129708	-0.075341
H239	H	1.405803	0.203625	0.257993
H240	H	1.739136	0.536958	0.591326
H241	H	0.833345	0.005726	-0.680091
H242	H	1.166678	0.339059	-0.346758
H243	H	1.500012	0.672392	-0.013424
H244	H	1.070256	-0.261828	-0.075162
H245	H	1.403589	0.071505	0.258171
H246	H	1.736922	0.404838	0.591504
H247	H	1.014386	0.166015	-0.857446
H248	H	1.347720	0.499348	-0.524113
H249	H	1.681053	0.832681	-0.190779
H250	H	1.007315	0.159773	-0.692222
H251	H	1.340648	0.493107	-0.358889
H252	H	1.673982	0.826440	-0.025555
