data_functionalizedCrystal
_audit_creation_method	'MofGen! by Chris Wilmer'
_symmetry_space_group_name_H-M	'P1'
_symmetry_Int_Tables_number	1
_symmetry_cell_setting	triclinic
loop_
_symmetry_equiv_pos_as_xyz
  x,y,z
_cell_length_a	13.635800
_cell_length_b	23.752930
_cell_length_c	17.982865
_cell_angle_alpha	83.423401
_cell_angle_beta	102.450232
_cell_angle_gamma	79.933953
loop_
_atom_site_label
_atom_site_type_symbol
_atom_site_fract_x
_atom_site_fract_y
_atom_site_fract_z
V1	V	1.991796	-0.178641	0.106420
O2	O	1.988615	-0.174988	-0.004080
O3	O	1.965152	-0.177662	0.210018
O4	O	1.959345	-0.256441	0.105236
O5	O	1.994462	-0.095663	0.101427
V6	V	2.234996	-0.168686	0.093149
O7	O	2.119270	-0.200477	0.135530
O8	O	2.332620	-0.146851	0.064039
O9	O	2.150037	-0.169665	-0.010450
O10	O	2.296875	-0.172340	0.203649
O11	O	2.291028	-0.251664	0.098142
O12	O	2.155843	-0.090886	0.094332
V13	V	2.491796	-0.178641	0.106420
O14	O	2.488615	-0.174988	-0.004080
O15	O	2.465152	-0.177662	0.210018
O16	O	2.459345	-0.256441	0.105236
O17	O	2.494462	-0.095663	0.101427
V18	V	2.734996	-0.168686	0.093149
O19	O	2.619270	-0.200477	0.135530
O20	O	2.832620	-0.146851	0.064039
O21	O	2.650037	-0.169665	-0.010450
O22	O	2.796875	-0.172340	0.203649
O23	O	2.791028	-0.251664	0.098142
O24	O	2.655843	-0.090886	0.094332
C25	C	1.879918	-0.275397	0.101598
C26	C	1.894011	-0.339001	0.101316
C27	C	2.072151	-0.736330	0.103316
C28	C	2.085405	-0.796092	0.103041
O29	O	2.169348	-0.829483	0.106120
N30	N	2.001380	-0.823059	0.099089
C31	C	1.904093	-0.790260	0.095404
O32	O	1.833840	-0.818685	0.092016
C33	C	1.890839	-0.730498	0.095673
C34	C	1.974872	-0.703536	0.099634
C35	C	2.156177	-0.709367	0.107275
C36	C	2.142924	-0.649609	0.107552
C37	C	2.045645	-0.616815	0.103869
C38	C	1.961619	-0.643778	0.099910
C39	C	1.793551	-0.697700	0.091983
C40	C	1.780304	-0.637935	0.092252
C41	C	1.864337	-0.610972	0.096212
C42	C	1.851087	-0.551226	0.096504
N43	N	1.935112	-0.524259	0.100456
C44	C	2.032391	-0.557053	0.104139
C45	C	1.931934	-0.915763	0.094836
C46	C	1.945188	-0.975524	0.094572
C47	C	2.126500	-0.981352	0.102208
C48	C	2.113246	-0.921590	0.102478
C49	C	2.015959	-0.888796	0.098789
C50	C	2.004552	-0.431558	0.104720
C51	C	1.991290	-0.371795	0.104999
C52	C	1.809980	-0.365972	0.097359
C53	C	1.823240	-0.425730	0.097084
C54	C	1.920534	-0.458522	0.100762
O55	O	1.767175	-0.517798	0.093423
O56	O	2.102626	-0.528619	0.107516
C57	C	1.887324	-0.174907	0.235259
C58	C	1.906128	-0.174625	0.319955
C59	C	2.059535	-0.172419	-0.035686
C60	C	2.030350	-0.172705	-0.120382
C61	C	2.066942	-0.071928	0.097973
C62	C	2.042468	-0.008323	0.098251
C63	C	2.387324	-0.174907	0.235259
C64	C	2.406128	-0.174625	0.319955
C65	C	2.007246	-0.120418	0.828648
C66	C	1.989578	-0.120690	0.749068
C67	C	1.995021	-0.173250	0.720461
C68	C	2.018125	-0.225540	0.771438
C69	C	2.035786	-0.225267	0.851016
C70	C	1.946900	-0.226643	0.450511
C71	C	1.929240	-0.226912	0.370928
C72	C	1.900692	-0.122066	0.348564
C73	C	1.918353	-0.121793	0.428141
C74	C	1.941449	-0.174083	0.479111
C75	C	1.960606	-0.173787	0.565400
C76	C	1.975873	-0.173547	0.634175
C77	C	2.400689	-0.122066	0.348557
C78	C	2.418370	-0.121793	0.428137
C79	C	2.441481	-0.174080	0.479113
C80	C	2.446923	-0.226643	0.450506
C81	C	2.429250	-0.226916	0.370928
C82	C	2.379918	-0.275397	0.101598
C83	C	2.394011	-0.339001	0.101316
C84	C	2.559535	-0.172419	-0.035686
C85	C	2.530350	-0.172705	-0.120382
C86	C	2.566942	-0.071928	0.097973
C87	C	2.542468	-0.008323	0.098251
C88	C	2.491290	-0.371795	0.104999
C89	C	2.504544	-0.431557	0.104724
C90	C	2.420519	-0.458524	0.100772
C91	C	2.323232	-0.425725	0.097086
C92	C	2.309978	-0.365964	0.097356
C93	C	2.603347	-0.169971	-0.164056
C94	C	2.575934	-0.170229	-0.243639
C95	C	2.475526	-0.173226	-0.279545
C96	C	2.402524	-0.175959	-0.235865
C97	C	2.429935	-0.175696	-0.156284
C98	C	2.444261	0.018629	0.102195
C99	C	2.421248	0.078393	0.102447
C100	C	2.496445	0.111203	0.098761
C101	C	2.594659	0.084247	0.094815
C102	C	2.617669	0.024485	0.094557
H103	H	2.059725	-0.349845	0.108226
Br104	Br	2.227296	-0.885004	0.107853
Br105	Br	1.958217	-0.049727	0.679896
H106	H	2.383019	-0.008077	0.105196
H107	H	1.876761	-0.997473	0.091359
H108	H	2.685110	-0.167531	-0.134833
H109	H	1.933678	-0.269715	0.347640
Br110	Br	2.410979	-0.050452	0.466942
Br111	Br	2.465200	0.192309	0.099113
Br112	Br	2.177947	-0.321465	0.092366
H113	H	2.341272	0.100332	0.105660
Br114	Br	2.696705	0.128782	0.089821
Br115	Br	1.910974	-0.050460	0.466961
Br116	Br	2.750964	-0.012087	0.089215
H117	H	1.881879	-0.079489	0.307054
Br118	Br	2.605342	-0.335211	0.110364
Br119	Br	2.136591	-0.476051	0.109709
Br120	Br	1.978143	-0.297605	0.519670
Br121	Br	2.675023	-0.166521	-0.302903
Br122	Br	2.636584	-0.476058	0.109730
H123	H	2.254824	-0.447691	0.093869
H124	H	2.211353	-0.627661	0.110773
H125	H	2.022550	-0.268335	0.748140
H126	H	2.235394	-0.736062	0.110272
H127	H	2.205711	-1.008064	0.105206
Br128	Br	2.438341	-0.173581	-0.387549
Br129	Br	2.438526	-0.539631	0.100408
H130	H	2.002816	-0.077618	0.851933
H131	H	2.054596	-0.267844	0.892516
H132	H	2.370489	-0.177927	-0.120729
Br133	Br	1.799894	-0.871263	0.089838
Br134	Br	1.679495	-0.734277	0.086609
Br135	Br	1.648264	-0.593430	0.087237
Br136	Br	2.478288	-0.297600	0.519698
Br137	Br	1.709198	-0.462326	0.091722
Br138	Br	2.436628	-0.298253	0.332122
H139	H	2.381866	-0.079485	0.307061
H140	H	1.730776	-0.339261	0.094364
Br141	Br	2.266257	-0.180021	-0.284607
H142	H	2.455869	-0.173850	0.543909
