data_functionalizedCrystal
_audit_creation_method	'MofGen! by Chris Wilmer'
_symmetry_space_group_name_H-M	'P1'
_symmetry_Int_Tables_number	1
_symmetry_cell_setting	triclinic
loop_
_symmetry_equiv_pos_as_xyz
  x,y,z
_cell_length_a	10.489741
_cell_length_b	12.837932
_cell_length_c	8.965430
_cell_angle_alpha	90.002880
_cell_angle_beta	89.997188
_cell_angle_gamma	90.315562
loop_
_atom_site_label
_atom_site_type_symbol
_atom_site_fract_x
_atom_site_fract_y
_atom_site_fract_z
O1	O	-0.331888	1.377922	-0.124019
O2	O	-0.315491	1.075994	-0.124023
O3	O	-0.138849	1.233828	-0.124024
O4	O	-0.508529	1.220087	-0.124018
O5	O	-0.138856	1.233835	0.124054
O6	O	-0.315498	1.076001	0.124056
O7	O	-0.331895	1.377929	0.124060
Cu8	Cu	-0.323697	1.226966	0.146709
Cu9	Cu	-0.323689	1.226957	-0.146673
O10	O	-0.508536	1.220095	0.124061
C11	C	-0.309955	1.037335	0.000016
C12	C	-0.293437	0.922135	0.000014
C13	C	-0.155370	0.771261	0.000015
C14	C	-0.170883	0.879503	0.000014
C15	C	-0.400486	0.856516	0.000019
C16	C	-0.384973	0.748274	0.000020
C17	C	-0.262411	0.705651	0.000015
C18	C	-0.246900	0.597407	0.000005
C19	C	-0.476501	0.574422	0.000020
C20	C	-0.492014	0.682664	0.000020
C21	C	-0.556179	1.221129	0.000023
C22	C	-0.698151	1.224234	0.000025
C23	C	-0.777364	1.324659	0.000015
C24	C	-0.864257	1.277223	0.122329
C25	C	-0.864226	1.277192	-0.122257
C26	C	-0.783175	1.176756	0.122440
C27	C	-0.783135	1.176739	-0.122256
C28	C	-0.869993	1.129230	0.000088
C29	C	-0.091206	1.232794	0.000011
C30	C	0.050766	1.229689	-0.000001
C31	C	-0.337430	1.416588	0.000017
C32	C	-0.353949	1.531788	0.000009
N33	N	-0.323703	1.226980	0.353059
N34	N	-0.323673	1.226951	-0.353022
C35	C	-0.242021	1.299996	0.450324
C36	C	-0.205828	1.206053	0.549727
C37	C	-0.359808	1.320886	0.549783
C38	C	-0.287447	1.132989	0.450272
C39	C	-0.441485	1.247884	0.450320
C40	C	-0.405333	1.153873	0.549678
H41	H	-0.147104	0.562705	-0.000005
C42	C	-0.912404	1.334614	-0.261958
N43	N	-0.948686	1.377871	-0.367175
H44	H	-0.390359	1.400313	0.593494
C45	C	-0.912476	1.334628	0.262037
N46	N	-0.948786	1.377871	0.367264
H47	H	-0.736819	1.407229	0.000137
C48	C	-0.924471	1.017588	0.000185
N49	N	-0.965511	0.933502	0.000267
H50	H	-0.256785	1.053543	0.406746
H51	H	-0.747663	1.134301	0.225962
H52	H	-0.083718	0.932920	0.000015
H53	H	-0.500270	0.891239	0.000036
H54	H	-0.541078	1.265613	0.406623
C55	C	-0.498627	1.070348	0.608254
N56	N	-0.568889	1.007434	0.652379
C57	C	-0.626825	0.729562	0.000025
N58	N	-0.728368	0.764885	0.000023
H59	H	-0.563662	0.520989	0.000020
C60	C	-0.734851	1.119386	-0.261966
N61	N	-0.698476	1.076198	-0.367208
H62	H	-0.055576	0.736557	-0.000004
C63	C	-0.148641	1.383331	0.391375
N64	N	-0.078305	1.446093	0.346971
C65	C	-0.071254	1.182157	0.608755
N66	N	0.030106	1.164170	0.653223
