data_functionalizedCrystal
_audit_creation_method	'MofGen! by Chris Wilmer'
_symmetry_space_group_name_H-M	'P1'
_symmetry_Int_Tables_number	1
_symmetry_cell_setting	triclinic
loop_
_symmetry_equiv_pos_as_xyz
  x,y,z
_cell_length_a	18.050591
_cell_length_b	21.295418
_cell_length_c	18.050582
_cell_angle_alpha	90.022598
_cell_angle_beta	90.019760
_cell_angle_gamma	90.024834
loop_
_atom_site_label
_atom_site_type_symbol
_atom_site_fract_x
_atom_site_fract_y
_atom_site_fract_z
Zn1	Zn	1.135292	-0.250709	0.420008
Zn2	Zn	1.635292	0.249291	0.920008
Zn3	Zn	1.135202	-0.355970	0.295818
Zn4	Zn	1.635202	0.144030	0.795818
Zn5	Zn	1.011111	-0.250712	0.295822
Zn6	Zn	1.511111	0.249288	0.795822
Zn7	Zn	1.011058	-0.355938	0.419956
Zn8	Zn	1.511058	0.144062	0.919956
O9	O	1.073166	-0.303332	0.357901
O10	O	1.573166	0.196668	0.857901
O11	O	1.239204	-0.264684	0.403554
O12	O	1.739204	0.235316	0.903554
O13	O	1.118725	-0.342022	0.191894
O14	O	1.618725	0.157978	0.691894
O15	O	1.027643	-0.162622	0.312319
O16	O	1.527643	0.337378	0.812319
O17	O	1.239138	-0.342019	0.312312
O18	O	1.739138	0.157981	0.812312
O19	O	1.118878	-0.162620	0.403558
O20	O	1.618878	0.337380	0.903558
O21	O	1.027556	-0.264690	0.191897
O22	O	1.527556	0.235310	0.691897
O23	O	0.907179	-0.264658	0.312268
O24	O	1.407179	0.235342	0.812268
O25	O	1.027554	-0.341964	0.523888
O26	O	1.527554	0.158036	1.023888
O27	O	0.907141	-0.341967	0.403469
O28	O	1.407141	0.158033	0.903469
O29	O	1.118827	-0.264653	0.523926
O30	O	1.618827	0.235347	1.023926
O31	O	1.118675	-0.444055	0.312262
O32	O	1.618675	0.055945	0.812262
O33	O	1.027467	-0.444031	0.403466
O34	O	1.527467	0.055969	0.903466
C35	C	0.880214	-0.303310	0.357864
C36	C	1.380214	0.196690	0.857864
C37	C	0.797668	-0.303316	0.357866
C38	C	1.297668	0.196684	0.857866
C39	C	0.548842	-0.261232	0.308388
C40	C	1.048842	0.238768	0.808388
C41	C	0.598274	-0.245906	0.376164
C42	C	1.098274	0.254094	0.876164
C43	C	0.500547	-0.303348	0.357926
C44	C	1.000547	0.196652	0.857926
C45	C	0.598197	-0.318628	0.290124
C46	C	1.098197	0.181372	0.790124
C47	C	0.646533	-0.303330	0.357893
C48	C	1.146533	0.196670	0.857893
C49	C	0.548892	-0.287992	0.425739
C50	C	1.048892	0.212008	0.925739
C51	C	0.548811	-0.360741	0.339653
C52	C	1.048811	0.139259	0.839653
C53	C	0.598221	-0.345437	0.407476
C54	C	1.098221	0.154563	0.907476
C55	C	0.416449	-0.303356	0.357945
C56	C	0.916449	0.196644	0.857945
C57	C	0.730629	-0.303322	0.357882
C58	C	1.230629	0.196678	0.857882
C59	C	1.073076	-0.466884	0.357874
C60	C	1.573076	0.033116	0.857874
C61	C	1.073105	-0.536852	0.357887
C62	C	1.573105	-0.036852	0.857887
C63	C	1.120764	-1.036255	0.405505
C64	C	1.620764	-0.536255	0.905505
C65	C	1.120743	-0.970513	0.405493
C66	C	1.620743	-0.470513	0.905493
C67	C	1.073267	-0.937691	0.357947
C68	C	1.573267	-0.437691	0.857947
C69	C	1.025823	-0.970618	0.310397
C70	C	1.525823	-0.470618	0.810397
C71	C	1.025851	-1.036359	0.310405
C72	C	1.525851	-0.536359	0.810405
N73	N	1.008219	-0.834518	0.352172
N74	N	1.508219	-0.334518	0.852172
N75	N	1.008194	-0.772066	0.352169
N76	N	1.508194	-0.272066	0.852169
C77	C	1.073180	-0.739617	0.357920
C78	C	1.573180	-0.239617	0.857920
N79	N	1.138192	-0.771977	0.363688
N80	N	1.638192	-0.271977	0.863688
N81	N	1.138217	-0.834435	0.363695
N82	N	1.638217	-0.334435	0.863695
C83	C	1.073231	-0.866406	0.357933
C84	C	1.573231	-0.366406	0.857933
C85	C	1.120601	-0.635413	0.405451
C86	C	1.620601	-0.135413	0.905451
C87	C	1.120580	-0.569669	0.405434
C88	C	1.620580	-0.069669	0.905434
C89	C	1.025654	-0.569775	0.310342
C90	C	1.525654	-0.069775	0.810342
C91	C	1.025681	-0.635517	0.310355
C92	C	1.525681	-0.135517	0.810355
C93	C	1.073153	-0.668332	0.357913
C94	C	1.573153	-0.168332	0.857913
C95	C	1.266871	-0.303355	0.357939
C96	C	1.766871	0.196645	0.857939
C97	C	1.349417	-0.303365	0.357955
C98	C	1.849417	0.196635	0.857955
C99	C	1.073195	-0.303304	0.551607
C100	C	1.573195	0.196696	1.051607
C101	C	1.073207	-0.303292	0.634153
C102	C	1.573207	0.196708	1.134153
C103	C	1.073277	-0.139142	0.357945
C104	C	1.573277	0.360858	0.857945
C105	C	1.073324	-0.069174	0.357963
C106	C	1.573324	0.430826	0.857963
C107	C	1.073180	-0.303315	0.164949
C108	C	1.573180	0.196685	0.664949
C109	C	1.073311	-0.303149	0.082404
C110	C	1.573311	0.196851	0.582404
C111	C	1.023611	-0.345277	0.833583
C112	C	1.523611	0.154723	1.333583
C113	C	1.091366	-0.360668	0.882980
C114	C	1.591366	0.139332	1.382980
C115	C	1.073244	-0.303244	0.785283
C116	C	1.573244	0.196756	1.285283
C117	C	1.005526	-0.287836	0.882968
C118	C	1.505526	0.212164	1.382968
C119	C	1.073273	-0.303199	0.931268
C120	C	1.573273	0.196801	1.431268
C121	C	1.141035	-0.318665	0.833593
C122	C	1.641035	0.181335	1.333593
C123	C	1.055149	-0.245807	0.833577
C124	C	1.555149	0.254193	1.333577
C125	C	1.122951	-0.261176	0.882951
C126	C	1.622951	0.238824	1.382951
C127	C	1.073226	-0.303272	0.701185
C128	C	1.573226	0.196728	1.201185
C129	C	1.073299	-0.303171	1.015365
C130	C	1.573299	0.196829	1.515365
H131	H	0.527324	-0.275004	0.483080
H132	H	1.027324	0.224996	0.983080
H133	H	0.987001	-0.543052	0.271626
H134	H	1.487001	-0.043052	0.771626
H135	H	0.987047	-0.662320	0.271644
H136	H	1.487047	-0.162320	0.771644
C137	C	0.602290	-0.377347	0.534975
C138	C	1.102290	0.122653	1.034975
C139	C	0.627315	-0.393507	0.464072
C140	C	1.127315	0.106493	0.964072
H141	H	0.620258	-0.407019	0.569915
H142	H	1.120258	0.092981	1.069915
H143	H	0.549674	-0.377371	0.535573
H144	H	1.049674	0.122629	1.035573
H145	H	0.619980	-0.336692	0.547527
H146	H	1.119980	0.163308	1.047527
H147	H	0.609620	-0.434160	0.451518
H148	H	1.109620	0.065840	0.951518
H149	H	0.679942	-0.393489	0.463472
H150	H	1.179942	0.106511	0.963472
H151	H	1.159376	-0.943706	0.444208
H152	H	1.659376	-0.443706	0.944208
C153	C	1.214967	-0.184056	0.852099
C154	C	1.714967	0.315944	1.352099
C155	C	1.179696	-0.213167	0.912033
C156	C	1.679696	0.286833	1.412033
H157	H	1.250004	-0.154423	0.870054
H158	H	1.750004	0.345577	1.370054
H159	H	1.179157	-0.163155	0.822472
H160	H	1.679157	0.336845	1.322472
H161	H	1.239671	-0.214849	0.823133
H162	H	1.739671	0.285151	1.323133
H163	H	1.154987	-0.182374	0.940996
H164	H	1.654987	0.317626	1.440996
H165	H	1.215512	-0.234069	0.941673
H166	H	1.715512	0.265931	1.441673
H167	H	1.159216	-0.542866	0.444146
H168	H	1.659216	-0.042866	0.944146
C169	C	0.986151	-0.453416	0.829253
C170	C	1.486151	0.046584	1.329253
C171	C	0.967003	-0.393320	0.804312
C172	C	1.467003	0.106680	1.304312
H173	H	0.951208	-0.483076	0.811177
H174	H	1.451208	0.016924	1.311177
H175	H	0.986083	-0.453991	0.881868
H176	H	1.486083	0.046009	1.381868
H177	H	1.034145	-0.463940	0.811617
H178	H	1.534145	0.036060	1.311617
H179	H	0.919010	-0.382795	0.821953
H180	H	1.419010	0.117205	1.321953
H181	H	0.967063	-0.392743	0.751685
H182	H	1.467063	0.107257	1.251685
C183	C	1.112493	-0.425331	0.989851
C184	C	1.612493	0.074669	1.489851
C185	C	1.112048	-0.426211	0.912286
C186	C	1.612048	0.073789	1.412286
H187	H	1.125260	-0.465795	1.007941
H188	H	1.625260	0.034205	1.507941
H189	H	1.064721	-0.414112	1.007474
H190	H	1.564721	0.085888	1.507474
H191	H	1.147811	-0.395496	1.006741
H192	H	1.647811	0.104504	1.506741
H193	H	1.076726	-0.456043	0.895395
H194	H	1.576726	0.043957	1.395395
H195	H	1.159826	-0.437438	0.894656
H196	H	1.659826	0.062562	1.394656
H197	H	1.159250	-0.662132	0.444181
H198	H	1.659250	-0.162132	0.944181
H199	H	0.619986	-0.197359	0.391619
H200	H	1.119986	0.302641	0.891619
H201	H	1.198332	-0.331734	0.811995
H202	H	1.698332	0.168266	1.311995
C203	C	1.131057	-1.110129	0.505430
C204	C	1.631057	-0.610129	1.005430
C205	C	1.172955	-1.072320	0.457775
C206	C	1.672955	-0.572320	0.957775
H207	H	1.163280	-1.132390	0.537701
H208	H	1.663280	-0.632390	1.037701
H209	H	1.102815	-1.139147	0.477121
H210	H	1.602815	-0.639147	0.977121
H211	H	1.098668	-1.084488	0.533797
H212	H	1.598668	-0.584488	1.033797
H213	H	1.205340	-1.097961	0.429404
H214	H	1.705340	-0.597961	0.929404
H215	H	1.201209	-1.043298	0.486088
H216	H	1.701209	-0.543298	0.986088
H217	H	1.039807	-0.197267	0.811860
H218	H	1.539807	0.302733	1.311860
C219	C	0.876309	-0.314370	0.887321
C220	C	1.376309	0.185630	1.387321
C221	C	0.928201	-0.270262	0.912246
C222	C	1.428201	0.229738	1.412246
H223	H	0.828572	-0.303521	0.905392
H224	H	1.328572	0.196479	1.405392
H225	H	0.889516	-0.354862	0.904965
H226	H	1.389516	0.145138	1.404965
H227	H	0.875641	-0.314631	0.834698
H228	H	1.375641	0.185369	1.334698
H229	H	0.928874	-0.270005	0.964869
H230	H	1.428874	0.229995	1.464869
H231	H	0.914991	-0.229760	0.894605
H232	H	1.414991	0.270240	1.394605
C233	C	0.931998	-0.977324	0.216406
C234	C	1.431998	-0.477324	0.716406
C235	C	0.973634	-0.934544	0.258136
C236	C	1.473634	-0.434544	0.758136
H237	H	0.899782	-0.955053	0.184138
H238	H	1.399782	-0.455053	0.684138
H239	H	0.903582	-1.002972	0.248736
H240	H	1.403582	-0.502972	0.748736
H241	H	0.964394	-1.002955	0.188036
H242	H	1.464394	-0.502955	0.688036
H243	H	0.941237	-0.908916	0.286511
H244	H	1.441237	-0.408916	0.786511
H245	H	1.002052	-0.908885	0.225802
H246	H	1.502052	-0.408885	0.725802
C247	C	0.544534	-0.153046	0.271230
C248	C	1.044534	0.346954	0.771230
C249	C	0.519562	-0.213128	0.251926
C250	C	1.019562	0.286872	0.751926
H251	H	0.526452	-0.123350	0.236377
H252	H	1.026452	0.376650	0.736377
H253	H	0.597149	-0.152447	0.271139
H254	H	1.097149	0.347553	0.771139
H255	H	0.526923	-0.142592	0.319261
H256	H	1.026923	0.357408	0.819261
H257	H	0.537177	-0.223584	0.203896
H258	H	1.037177	0.276416	0.703896
H259	H	0.466936	-0.213729	0.252009
H260	H	0.966936	0.286271	0.752009
H261	H	0.527070	-0.409272	0.324187
H262	H	1.027070	0.090728	0.824187
H263	H	0.987218	-1.063161	0.271690
H264	H	1.487218	-0.563161	0.771690
H265	H	0.619857	-0.331560	0.232799
H266	H	1.119857	0.168440	0.732799
