data_functionalizedCrystal
_audit_creation_method	'MofGen! by Chris Wilmer'
_symmetry_space_group_name_H-M	'P1'
_symmetry_Int_Tables_number	1
_symmetry_cell_setting	triclinic
loop_
_symmetry_equiv_pos_as_xyz
  x,y,z
_cell_length_a	10.540539
_cell_length_b	10.654550
_cell_length_c	9.730223
_cell_angle_alpha	90.003749
_cell_angle_beta	90.000775
_cell_angle_gamma	95.494803
loop_
_atom_site_label
_atom_site_type_symbol
_atom_site_fract_x
_atom_site_fract_y
_atom_site_fract_z
O1	O	0.178295	-1.667897	-0.114396
O2	O	0.195282	-1.302424	-0.114373
O3	O	0.002079	-1.493499	-0.114383
O4	O	0.371498	-1.476822	-0.114386
O5	O	0.002084	-1.493496	0.114197
O6	O	0.195287	-1.302422	0.114207
O7	O	0.178300	-1.667895	0.114184
Zn8	Zn	0.186794	-1.485158	0.150487
Zn9	Zn	0.186788	-1.485161	-0.150677
O10	O	0.371503	-1.476820	0.114194
C11	C	0.194038	-1.255625	-0.000080
C12	C	0.190306	-1.116180	-0.000072
C13	C	-0.045221	-1.492247	-0.000096
C14	C	-0.186168	-1.488505	-0.000103
N15	N	0.186798	-1.485165	0.356024
C16	C	-0.369543	-1.345134	-0.000607
C17	C	-0.222926	-1.348927	-0.000093
C18	C	-0.247847	-1.555675	0.130423
C19	C	-0.394389	-1.550912	0.130533
C20	C	-0.394914	-1.553753	-0.129405
C21	C	-0.247933	-1.555039	-0.131131
C22	C	0.418803	-1.478072	-0.000096
C23	C	0.559750	-1.481813	-0.000098
C24	C	0.179545	-1.714694	-0.000112
C25	C	0.183276	-1.854139	-0.000129
C26	C	0.304061	-1.036734	-0.000093
C27	C	0.300547	-0.905712	-0.000116
C28	C	0.069513	-0.933595	-0.000104
C29	C	0.073028	-1.064614	-0.000071
C30	C	0.437446	-1.020636	-0.000106
C31	C	0.433932	-0.889614	-0.000129
N32	N	0.186774	-1.485164	-0.356213
C33	C	0.101277	-1.569795	0.427945
C34	C	0.101261	-1.569791	0.571828
C35	C	0.272299	-1.400525	0.571855
C36	C	0.272308	-1.400523	0.427975
C37	C	0.002533	-1.667523	0.427931
C38	C	0.002518	-1.667520	0.571814
H39	H	-0.180306	-1.296074	-0.093659
O40	O	-0.056974	-0.877973	-0.000097
H41	H	-0.111705	-0.909833	-0.093247
H42	H	0.033451	-1.758718	0.383299
O43	O	0.493715	-1.067905	-0.130814
H44	H	0.520709	-0.987007	-0.200136
O45	O	-0.191396	-1.493879	0.259103
H46	H	-0.209992	-1.393094	0.260402
H47	H	-0.398125	-1.289998	-0.094209
H48	H	0.489615	-1.049984	0.095560
O49	O	-0.119632	-1.627076	0.630900
H50	H	-0.097768	-1.541614	0.695084
H51	H	0.024268	-1.764039	0.610858
H52	H	-0.225529	-1.658178	0.135270
H53	H	0.474245	-0.843956	0.098554
O54	O	-0.409498	-1.272387	0.122701
H55	H	-0.479496	-1.333156	0.184350
H56	H	-0.422569	-1.501268	0.228111
H57	H	0.484188	-0.847900	-0.095797
H58	H	0.341935	-1.331600	0.369418
H59	H	-0.019602	-1.129295	-0.000034
O60	O	-0.167572	-1.278454	0.124075
H61	H	-0.245543	-1.241537	0.183996
O62	O	0.364536	-1.309244	0.649458
H63	H	0.350170	-1.323466	0.761591
H64	H	-0.426453	-1.508579	-0.228336
H65	H	-0.442176	-1.654570	-0.130289
H66	H	-0.095040	-1.646046	0.388879
O67	O	-0.457993	-1.683870	0.138403
H68	H	-0.384044	-1.751283	0.142124
H69	H	-0.207059	-1.505891	-0.227690
H70	H	-0.223748	-1.656802	-0.139019
