data_functionalizedCrystal
_audit_creation_method	'MofGen! by Chris Wilmer'
_symmetry_space_group_name_H-M	'P1'
_symmetry_Int_Tables_number	1
_symmetry_cell_setting	triclinic
loop_
_symmetry_equiv_pos_as_xyz
  x,y,z
_cell_length_a	14.560438
_cell_length_b	19.377372
_cell_length_c	14.560438
_cell_angle_alpha	90.000766
_cell_angle_beta	59.996693
_cell_angle_gamma	72.113948
loop_
_atom_site_label
_atom_site_type_symbol
_atom_site_fract_x
_atom_site_fract_y
_atom_site_fract_z
Zr1	Zr	1.278763	0.580564	-0.257333
O2	O	1.425050	0.484336	-0.381329
O3	O	1.101049	0.610063	-0.219313
O4	O	1.292659	0.610060	-0.410929
O5	O	1.233439	0.484340	-0.038573
O6	O	1.339370	0.709235	-0.434288
O7	O	1.233440	0.484338	-0.189713
O8	O	0.996615	0.709239	-0.091522
O9	O	1.576194	0.484336	-0.381339
O10	O	1.220646	0.696657	-0.220541
O11	O	1.185784	0.622646	-0.090314
O12	O	1.411381	0.622643	-0.315917
O13	O	1.376519	0.548632	-0.185690
Zr14	Zr	1.353261	0.738740	-0.053537
Zr15	Zr	1.353263	0.738736	-0.294588
Zr16	Zr	1.278761	0.580568	-0.016282
Zr17	Zr	1.519821	0.580565	-0.257349
Zr18	Zr	1.112203	0.738739	-0.053521
O19	O	1.530976	0.709242	-0.091557
O20	O	1.530979	0.709236	-0.434300
O21	O	1.425047	0.484341	-0.038585
O22	O	1.206974	0.834969	0.070459
O23	O	1.206977	0.834963	-0.272284
O24	O	1.101045	0.610068	0.123431
O25	O	1.398586	0.834964	-0.272297
O26	O	1.339366	0.709244	0.100059
O27	O	1.292654	0.610069	0.123418
O28	O	1.398585	0.834966	-0.121157
O29	O	1.635412	0.610062	-0.410951
O30	O	0.996613	0.709242	0.100082
O31	O	1.055830	0.834968	0.070469
O32	O	1.055832	0.834965	-0.121134
O33	O	1.576193	0.484339	-0.189735
O34	O	1.635410	0.610065	-0.219348
O35	O	1.220644	0.696661	0.005048
O36	O	1.255505	0.770672	-0.125179
O37	O	1.446240	0.696658	-0.220555
O38	O	1.411379	0.622647	-0.090329
C39	C	1.014486	0.659651	-0.155415
C40	C	0.912151	0.659650	-0.155408
C41	C	0.921631	0.605011	-0.225821
C42	C	0.825493	0.605014	-0.225851
C43	C	0.710396	0.714298	-0.085045
C44	C	0.806535	0.714298	-0.085021
C45	C	1.222825	0.461803	-0.108835
C46	C	1.191198	0.394655	-0.093019
C47	C	1.584977	-0.019354	-0.289933
C48	C	1.555233	-0.082440	-0.275057
C49	C	1.356120	-0.005166	-0.175491
C50	C	1.385848	0.057928	-0.190354
C51	C	1.500278	0.050827	-0.247577
C52	C	1.301149	0.128109	-0.147998
C53	C	1.330875	0.191197	-0.162865
C54	C	1.445300	0.184104	-0.220087
C55	C	1.530004	0.113915	-0.262443
C56	C	1.186719	0.135208	-0.090782
C57	C	1.102020	0.205389	-0.048426
C58	C	1.131745	0.268479	-0.063286
C59	C	1.246170	0.261386	-0.120508
C60	C	1.047041	0.338668	-0.020930
C61	C	1.076767	0.401756	-0.035796
C62	C	1.275896	0.324473	-0.135375
C63	C	1.617538	0.659654	-0.155454
C64	C	1.719874	0.659654	-0.155461
C65	C	1.316015	0.659647	-0.456953
C66	C	1.316016	0.659645	-0.559286
C67	C	1.409200	0.857501	-0.202035
C68	C	1.440827	0.924649	-0.217850
C69	C	1.415576	0.621012	-0.657148
C70	C	1.415574	0.621020	-0.753298
C71	C	1.216442	0.698297	-0.653712
C72	C	1.216447	0.698292	-0.557564
C73	C	1.316010	0.659657	0.146084
C74	C	1.316009	0.659659	0.248416
C75	C	1.107674	0.857500	-0.202015
C76	C	1.036965	0.924647	-0.217824
C77	C	1.014483	0.659656	0.146103
C78	C	0.912147	0.659657	0.248443
C79	C	1.107671	0.857505	0.099503
C80	C	1.036962	0.924654	0.186027
C81	C	1.524353	0.461799	-0.410373
C82	C	1.595063	0.394650	-0.496896
C83	C	1.524351	0.461804	-0.108854
C84	C	1.595059	0.394657	-0.093045
C85	C	1.617541	0.659649	-0.456973
C86	C	1.719877	0.659647	-0.559312
C87	C	0.985564	0.917546	-0.275036
C88	C	0.919136	0.980632	-0.289911
C89	C	0.904105	1.050819	-0.247567
C90	C	0.955516	1.057920	-0.190353
C91	C	1.021948	0.994834	-0.175485
C92	C	1.021956	0.994828	0.158681
C93	C	0.955534	1.057928	0.239968
C94	C	0.904111	1.050853	0.348601
C95	C	0.919123	0.980672	0.375947
C96	C	0.985551	0.917573	0.294660
C97	C	1.610080	0.324476	-0.469550
C98	C	1.676532	0.261376	-0.550838
C99	C	1.727960	0.268452	-0.659471
C100	C	1.712942	0.338633	-0.686816
C101	C	1.646497	0.401731	-0.605529
C102	C	1.646471	0.401758	-0.035843
C103	C	1.712925	0.338672	-0.020995
C104	C	1.727959	0.268485	-0.063342
C105	C	1.676544	0.261385	-0.120552
C106	C	1.610098	0.324470	-0.135406
C107	C	0.882263	0.698292	0.346300
C108	C	0.786113	0.698284	0.442456
C109	C	0.749734	0.621006	0.342885
C110	C	0.845888	0.621010	0.246732
H111	H	1.469500	0.235476	-0.232192
H112	H	1.634272	0.458868	-0.627809
H113	H	1.135369	0.729756	-0.477876
O114	O	1.001783	0.841848	-0.320729
H115	H	0.918049	0.835427	-0.285210
O116	O	1.001705	0.841890	0.324176
H117	H	1.093355	0.811281	0.290408
O118	O	0.753877	0.739955	0.548005
H119	H	0.667912	0.782647	0.584581
H120	H	1.782066	0.217122	-0.051239
O121	O	1.554619	0.316829	-0.352388
H122	H	1.505878	0.372490	-0.300444
H123	H	0.877245	0.974922	0.464406
O124	O	0.863688	0.972967	-0.351616
H125	H	0.805442	0.942341	-0.310354
O126	O	1.708401	-0.027010	-0.351805
H127	H	1.714836	0.028652	-0.355077
O128	O	1.522954	0.579353	-0.858854
H129	H	1.551448	0.519971	-0.854664
H130	H	0.850008	1.102182	-0.259680
H131	H	1.624213	-0.139586	-0.309555
H132	H	0.833222	0.560523	-0.283190
H133	H	0.936213	0.729758	0.347699
H134	H	1.754823	0.344385	-0.775275
O135	O	0.596480	0.773234	-0.009131
H136	H	0.606044	0.811234	0.039827
H137	H	0.695773	0.589543	0.341506
H138	H	1.623185	0.108131	-0.309007
O139	O	1.692699	0.185686	-0.521333
H140	H	1.645749	0.191373	-0.432137
H141	H	1.688796	0.204230	-0.155028
H142	H	0.943268	1.115075	-0.155881
O143	O	1.799638	0.200393	-0.747141
H144	H	1.801432	0.150410	-0.709865
H145	H	0.850024	1.102237	0.414779
O146	O	1.630282	0.477457	0.009817
H147	H	1.677219	0.471784	0.052069
O148	O	1.768357	0.346338	0.040726
H149	H	1.746713	0.405743	0.067694
O150	O	1.522968	0.579330	-0.659007
H151	H	1.506246	0.585809	-0.575708
O152	O	0.878015	0.579446	0.141147
H153	H	0.815738	0.552621	0.156098
O154	O	1.554635	0.316807	-0.197093
H155	H	1.576250	0.257401	-0.224029
O156	O	1.077369	1.002497	-0.113756
H157	H	1.055737	1.061903	-0.086802
O158	O	1.077429	1.002468	0.041516
H159	H	1.055839	1.061870	0.036174
H160	H	1.007623	0.560510	-0.283128
H161	H	1.369077	0.318690	-0.181939
O162	O	0.796317	0.773230	-0.009070
H163	H	0.706723	0.811224	0.039882
H164	H	0.943320	1.115067	0.217684
H165	H	1.262951	0.000605	-0.128904
H166	H	0.953872	0.344437	0.025651
O167	O	1.154658	0.067162	-0.074759
H168	H	1.060860	0.083889	-0.027871
O169	O	0.978602	0.213047	0.013291
H170	H	0.972158	0.157387	0.016518
O171	O	0.985420	0.477457	0.009890
H172	H	0.900856	0.471796	0.052189
O173	O	1.109047	0.739971	-0.651852
H174	H	1.125764	0.733477	-0.735149
