data_functionalizedCrystal
_audit_creation_method	'MofGen! by Chris Wilmer'
_symmetry_space_group_name_H-M	'P1'
_symmetry_Int_Tables_number	1
_symmetry_cell_setting	triclinic
loop_
_symmetry_equiv_pos_as_xyz
  x,y,z
_cell_length_a	16.956984
_cell_length_b	12.811415
_cell_length_c	16.053802
_cell_angle_alpha	87.154093
_cell_angle_beta	87.610701
_cell_angle_gamma	80.066662
loop_
_atom_site_label
_atom_site_type_symbol
_atom_site_fract_x
_atom_site_fract_y
_atom_site_fract_z
O1	O	1.061673	0.038567	-0.072353
O2	O	1.561673	0.538567	0.427647
O3	O	0.829772	0.075219	-0.075128
O4	O	1.329772	0.575219	0.424872
O5	O	0.951002	-0.095622	-0.062189
O6	O	1.451002	0.404378	0.437811
O7	O	0.940442	0.209409	-0.085292
O8	O	1.440442	0.709409	0.414708
O9	O	0.944329	-0.086255	0.075960
O10	O	1.444329	0.413745	0.575960
O11	O	0.823098	0.084586	0.063021
O12	O	1.323098	0.584586	0.563021
O13	O	1.055000	0.047935	0.065797
O14	O	1.555000	0.547935	0.565797
Zn15	Zn	0.937990	0.067748	0.086343
Zn16	Zn	1.437990	0.567748	0.586343
Zn17	Zn	0.946782	0.055406	-0.095675
Zn18	Zn	1.446782	0.555406	0.404325
O19	O	0.933769	0.218776	0.052858
O20	O	1.433769	0.718776	0.552858
C21	C	0.796740	0.081779	-0.006196
C22	C	1.296740	0.581779	0.493804
C23	C	0.708258	0.087359	-0.006618
C24	C	1.208258	0.587359	0.493382
C25	C	0.675522	-0.005936	0.000449
C26	C	1.175522	0.494064	0.500449
C27	C	0.592384	-0.000687	0.000046
C28	C	1.092384	0.499313	0.500046
C29	C	0.541983	0.097858	-0.007419
C30	C	1.041983	0.597858	0.492581
C31	C	0.574725	0.191160	-0.014490
C32	C	1.074725	0.691160	0.485510
C33	C	0.657862	0.185910	-0.014092
C34	C	1.157862	0.685910	0.485908
C35	C	0.292392	0.123845	-0.009393
C36	C	0.792392	0.623845	0.490607
C37	C	0.209250	0.129089	-0.009788
C38	C	0.709250	0.629089	0.490212
C39	C	0.226915	-0.062759	0.004746
C40	C	0.726915	0.437241	0.504746
C41	C	0.310052	-0.068000	0.005148
C42	C	0.810052	0.432000	0.505148
C43	C	0.342787	0.025301	-0.001927
C44	C	0.842787	0.525301	0.498073
N45	N	0.457002	0.103226	-0.007829
N46	N	0.957002	0.603226	0.492171
N47	N	0.427767	0.019932	-0.001523
N48	N	0.927767	0.519932	0.498477
C49	C	0.946870	-0.129787	0.009826
C50	C	1.446870	0.370213	0.509826
C51	C	0.944488	-0.245541	0.018588
C52	C	1.444488	0.254459	0.518588
C53	C	0.947273	-0.473255	-0.115576
C54	C	1.447273	0.026745	0.384424
C55	C	0.945035	-0.582017	-0.107348
C56	C	1.445035	-0.082017	0.392652
C57	C	0.937768	-0.571826	0.043272
C58	C	1.437768	-0.071826	0.543272
C59	C	0.940006	-0.463064	0.035044
C60	C	1.440006	0.036936	0.535044
C61	C	0.944760	-0.413783	-0.044383
C62	C	1.444760	0.086217	0.455617
C63	C	0.947004	-0.305021	-0.052611
C64	C	1.447004	0.194979	0.447389
C65	C	0.939731	-0.294831	0.098008
C66	C	1.439731	0.205169	0.598008
C67	C	0.937493	-0.403592	0.106237
C68	C	1.437493	0.096408	0.606237
C69	C	1.088032	0.041374	-0.003138
C70	C	1.588032	0.541374	0.496862
C71	C	1.176514	0.035794	-0.002720
C72	C	1.676514	0.535794	0.497280
C73	C	0.937902	0.252940	-0.019159
C74	C	1.437902	0.752940	0.480841
C75	C	0.940284	0.368694	-0.027926
C76	C	1.440284	0.868694	0.472074
N77	N	0.931995	0.076169	0.210566
N78	N	1.431995	0.576169	0.710566
N79	N	0.952783	0.046975	-0.219896
N80	N	1.452783	0.546975	0.280104
C81	C	0.983598	0.003499	0.259763
C82	C	1.483598	0.503499	0.759763
C83	C	0.979412	0.009399	0.346723
C84	C	1.479412	0.509399	0.846723
C85	C	0.923627	0.087976	0.384484
C86	C	1.423627	0.587976	0.884484
C87	C	0.872018	0.160650	0.335279
C88	C	1.372018	0.660650	0.835279
C89	C	0.876201	0.154744	0.248322
C90	C	1.376201	0.654744	0.748322
C91	C	0.905357	0.113744	0.643942
C92	C	1.405357	0.613744	1.143942
C93	C	0.901180	0.119646	0.730906
C94	C	1.401180	0.619646	1.230906
C95	C	1.008573	-0.031607	0.742344
C96	C	1.508573	0.468393	1.242344
C97	C	1.012754	-0.037502	0.655384
C98	C	1.512754	0.462498	1.155384
C99	C	0.961143	0.035169	0.606187
C100	C	1.461143	0.535169	1.106187
N101	N	0.919349	0.094011	0.473370
N102	N	1.419349	0.594011	0.973370
N103	N	0.965418	0.029129	0.517303
N104	N	1.465418	0.529129	1.017303
H105	H	0.533682	0.271397	-0.020574
H106	H	1.033682	0.771397	0.479426
H107	H	0.933892	-0.611968	0.107937
H108	H	1.433892	-0.111968	0.607937
H109	H	0.937687	-0.246398	0.155979
H110	H	1.437687	0.253602	0.655979
H111	H	0.351084	-0.148246	0.011231
H112	H	0.851084	0.351754	0.511231
H113	H	1.058179	-0.101485	0.624641
H114	H	1.558179	0.398515	1.124641
N115	N	0.191608	-0.163386	0.012380
N116	N	0.691608	0.336614	0.512380
H117	H	0.131294	-0.145112	0.010996
H118	H	0.631294	0.354888	0.510996
H119	H	0.212470	-0.209667	-0.035591
H120	H	0.712470	0.290333	0.464409
N121	N	0.154887	0.235379	-0.017869
N122	N	0.654887	0.735379	0.482131
H123	H	0.188240	0.293689	-0.022302
H124	H	0.688240	0.793689	0.477698
H125	H	0.122495	0.238226	-0.069569
H126	H	0.622495	0.738226	0.430431
H127	H	1.029028	-0.060482	0.229025
H128	H	1.529028	0.439518	0.729025
N129	N	0.952334	-0.420028	-0.201220
N130	N	1.452334	0.079972	0.298780
H131	H	1.002715	-0.387813	-0.207054
H132	H	1.502715	0.112187	0.292946
H133	H	0.953536	-0.474218	-0.245053
H134	H	1.453536	0.025782	0.254947
H135	H	1.021431	-0.049776	0.386780
H136	H	1.521431	0.450224	0.886780
H137	H	0.933619	-0.443731	0.170904
H138	H	1.433619	0.056269	0.670904
H139	H	0.855750	0.183637	0.761645
H140	H	1.355750	0.683637	1.261645
N141	N	0.849689	0.192115	0.590887
N142	N	1.349689	0.692115	1.090887
H143	H	0.813717	0.242788	0.628005
H144	H	1.313717	0.742788	1.128005
H145	H	0.882245	0.233210	0.551492
H146	H	1.382245	0.733210	1.051492
H147	H	1.050592	-0.090773	0.782407
H148	H	1.550592	0.409227	1.282407
N149	N	0.811850	0.245408	0.375997
N150	N	1.311850	0.745408	0.875997
H151	H	0.755937	0.237197	0.361424
H152	H	1.255937	0.737197	0.861424
H153	H	0.817100	0.238085	0.438539
H154	H	1.317100	0.738085	0.938539
N155	N	0.729879	-0.112224	0.008510
N156	N	1.229879	0.387776	0.508510
H157	H	0.696522	-0.170528	0.012925
H158	H	1.196522	0.329472	0.512925
H159	H	0.767234	-0.122057	-0.042221
H160	H	1.267234	0.377943	0.457779
N161	N	0.557074	-0.101311	0.007670
N162	N	1.057074	0.398689	0.507670
H163	H	0.601617	-0.164535	0.012466
H164	H	1.101617	0.335465	0.512466
H165	H	0.520489	-0.099833	0.059034
H166	H	1.020489	0.400167	0.559034
N167	N	0.947775	-0.646160	-0.184139
N168	N	1.447775	-0.146160	0.315861
H169	H	0.900452	-0.616742	-0.219471
H170	H	1.400452	-0.116742	0.280529
H171	H	0.999102	-0.642144	-0.217448
H172	H	1.499102	-0.142144	0.282552
H173	H	0.834179	0.213919	0.208265
H174	H	1.334179	0.713919	0.708265
H175	H	0.319035	0.199818	-0.015160
H176	H	0.819035	0.699818	0.484840
H177	H	0.950877	-0.264899	-0.117284
H178	H	1.450877	0.235101	0.382716
N179	N	0.693175	0.286534	-0.021722
N180	N	1.193175	0.786534	0.478278
H181	H	0.648633	0.349759	-0.026511
H182	H	1.148633	0.849759	0.473489
H183	H	0.724813	0.292011	0.029338
H184	H	1.224813	0.792011	0.529338
