data_functionalizedCrystal
_audit_creation_method	'MofGen! by Chris Wilmer'
_symmetry_space_group_name_H-M	'P1'
_symmetry_Int_Tables_number	1
_symmetry_cell_setting	triclinic
loop_
_symmetry_equiv_pos_as_xyz
  x,y,z
_cell_length_a	19.805405
_cell_length_b	21.295418
_cell_length_c	19.805399
_cell_angle_alpha	90.041941
_cell_angle_beta	89.973385
_cell_angle_gamma	89.955065
loop_
_atom_site_label
_atom_site_type_symbol
_atom_site_fract_x
_atom_site_fract_y
_atom_site_fract_z
Zn1	Zn	-0.269150	-0.962336	-0.383128
Zn2	Zn	-0.019150	-0.712336	-0.133128
Zn3	Zn	0.230850	-0.462336	0.116872
Zn4	Zn	0.480850	-0.212336	0.366872
Zn5	Zn	-0.382338	-0.962256	-0.269942
Zn6	Zn	-0.132338	-0.712256	-0.019942
Zn7	Zn	0.117662	-0.462256	0.230058
Zn8	Zn	0.367662	-0.212256	0.480058
Zn9	Zn	-0.269204	-0.857070	-0.269909
Zn10	Zn	-0.019204	-0.607070	-0.019909
Zn11	Zn	0.230796	-0.357070	0.230091
Zn12	Zn	0.480796	-0.107070	0.480091
Zn13	Zn	-0.382338	-0.857035	-0.383044
Zn14	Zn	-0.132338	-0.607035	-0.133044
Zn15	Zn	0.117662	-0.357035	0.116956
Zn16	Zn	0.367662	-0.107035	0.366956
O17	O	-0.325758	-0.909674	-0.326506
O18	O	-0.075758	-0.659674	-0.076506
O19	O	0.174242	-0.409674	0.173494
O20	O	0.424242	-0.159674	0.423494
O21	O	-0.284142	-1.050414	-0.368163
O22	O	-0.034142	-0.800414	-0.118163
O23	O	0.215858	-0.550414	0.131837
O24	O	0.465858	-0.300414	0.381837
O25	O	-0.367354	-0.948284	-0.175221
O26	O	-0.117354	-0.698284	0.074779
O27	O	0.132646	-0.448284	0.324779
O28	O	0.382646	-0.198284	0.574779
O29	O	-0.174481	-0.871081	-0.284949
O30	O	0.075519	-0.621081	-0.034949
O31	O	0.325519	-0.371081	0.215051
O32	O	0.575519	-0.121081	0.465051
O33	O	-0.367301	-1.050356	-0.285005
O34	O	-0.117301	-0.800356	-0.035005
O35	O	0.132699	-0.550356	0.214995
O36	O	0.382699	-0.300356	0.464995
O37	O	-0.174440	-0.948420	-0.368131
O38	O	0.075560	-0.698420	-0.118131
O39	O	0.325560	-0.448420	0.131869
O40	O	0.575560	-0.198420	0.381869
O41	O	-0.284235	-0.871004	-0.175196
O42	O	-0.034235	-0.621004	0.074804
O43	O	0.215765	-0.371004	0.324804
O44	O	0.465765	-0.121004	0.574804
O45	O	-0.284235	-0.768976	-0.284867
O46	O	-0.034235	-0.518976	-0.034867
O47	O	0.215765	-0.268976	0.215133
O48	O	0.465765	-0.018976	0.465133
O49	O	-0.367301	-0.871022	-0.477772
O50	O	-0.117301	-0.621022	-0.227772
O51	O	0.132699	-0.371022	0.022228
O52	O	0.382699	-0.121022	0.272228
O53	O	-0.367354	-0.768950	-0.367988
O54	O	-0.117354	-0.518950	-0.117988
O55	O	0.132646	-0.268950	0.132012
O56	O	0.382646	-0.018950	0.382012
O57	O	-0.284142	-0.948386	-0.477834
O58	O	-0.034142	-0.698386	-0.227834
O59	O	0.215858	-0.448386	0.022166
O60	O	0.465858	-0.198386	0.272166
O61	O	-0.477055	-0.948250	-0.284924
O62	O	-0.227055	-0.698250	-0.034924
O63	O	0.022945	-0.448250	0.215076
O64	O	0.272945	-0.198250	0.465076
O65	O	-0.477055	-0.870945	-0.368020
O66	O	-0.227055	-0.620945	-0.118020
O67	O	0.022945	-0.370945	0.131980
O68	O	0.272945	-0.120945	0.381980
C69	C	-0.325801	-0.746122	-0.326415
C70	C	-0.075801	-0.496122	-0.076415
C71	C	0.174199	-0.246122	0.173585
C72	C	0.424199	0.003878	0.423585
C73	C	-0.325835	-0.676154	-0.326393
C74	C	-0.075835	-0.426154	-0.076393
C75	C	0.174165	-0.176154	0.173607
C76	C	0.424165	0.073846	0.423607
C77	C	-0.369174	-0.643291	-0.369606
C78	C	-0.119174	-0.393291	-0.119606
C79	C	0.130826	-0.143291	0.130394
C80	C	0.380826	0.106709	0.380394
C81	C	-0.369160	-0.577548	-0.369631
C82	C	-0.119160	-0.327548	-0.119631
C83	C	0.130840	-0.077548	0.130369
C84	C	0.380840	0.172452	0.380369
C85	C	-0.325815	-0.544672	-0.326431
C86	C	-0.075815	-0.294672	-0.076431
C87	C	0.174185	-0.044672	0.173569
C88	C	0.424185	0.205328	0.423569
C89	C	-0.282468	-0.577543	-0.283215
C90	C	-0.032468	-0.327543	-0.033215
C91	C	0.217532	-0.077543	0.216785
C92	C	0.467532	0.172457	0.466785
C93	C	-0.282478	-0.643284	-0.283195
C94	C	-0.032478	-0.393284	-0.033195
C95	C	0.217522	-0.143284	0.216805
C96	C	0.467522	0.106716	0.466805
N97	N	-0.320531	-0.441401	-0.267223
N98	N	-0.070531	-0.191401	-0.017223
N99	N	0.179469	0.058599	0.232777
N100	N	0.429469	0.308599	0.482777
N101	N	-0.320526	-0.378950	-0.267243
N102	N	-0.070526	-0.128950	-0.017243
N103	N	0.179474	0.121050	0.232757
N104	N	0.429474	0.371050	0.482757
C105	C	-0.325781	-0.346597	-0.326488
C106	C	-0.075781	-0.096597	-0.076488
C107	C	0.174219	0.153403	0.173512
C108	C	0.424219	0.403403	0.423512
N109	N	-0.331055	-0.379055	-0.385712
N110	N	-0.081055	-0.129055	-0.135712
N111	N	0.168945	0.120945	0.114288
N112	N	0.418945	0.370945	0.364288
N113	N	-0.331064	-0.441512	-0.385691
N114	N	-0.081064	-0.191512	-0.135691
N115	N	0.168936	0.058488	0.114309
N116	N	0.418936	0.308488	0.364309
C117	C	-0.325799	-0.473386	-0.326448
C118	C	-0.075799	-0.223386	-0.076448
C119	C	0.174201	0.026614	0.173552
C120	C	0.424201	0.276614	0.423552
C121	C	-0.369107	-0.242448	-0.369732
C122	C	-0.119107	0.007552	-0.119732
C123	C	0.130893	0.257552	0.130268
C124	C	0.380893	0.507552	0.380268
C125	C	-0.369089	-0.176705	-0.369759
C126	C	-0.119089	0.073295	-0.119759
C127	C	0.130911	0.323295	0.130241
C128	C	0.380911	0.573295	0.380241
C129	C	-0.282399	-0.176701	-0.283336
C130	C	-0.032399	0.073299	-0.033336
C131	C	0.217601	0.323299	0.216664
C132	C	0.467601	0.573299	0.466664
C133	C	-0.282414	-0.242443	-0.283315
C134	C	-0.032414	0.007557	-0.033315
C135	C	0.217586	0.257557	0.216685
C136	C	0.467586	0.507557	0.466685
C137	C	-0.325772	-0.275313	-0.326513
C138	C	-0.075772	-0.025313	-0.076513
C139	C	0.174228	0.224687	0.173487
C140	C	0.424228	0.474687	0.423487
C141	C	-0.501614	-0.909602	-0.326481
C142	C	-0.251614	-0.659602	-0.076481
C143	C	-0.001614	-0.409602	0.173519
C144	C	0.248386	-0.159602	0.423519
C145	C	-0.576846	-0.909629	-0.326493
C146	C	-0.326846	-0.659629	-0.076493
C147	C	-0.076846	-0.409629	0.173507
C148	C	0.173154	-0.159629	0.423507
C149	C	-0.612111	-0.949876	-0.369840
C150	C	-0.362111	-0.699876	-0.119840
C151	C	-0.112111	-0.449876	0.130160
C152	C	0.137889	-0.199876	0.380160
C153	C	-0.682799	-0.949898	-0.369853
C154	C	-0.432799	-0.699898	-0.119853
C155	C	-0.182799	-0.449898	0.130147
C156	C	0.067201	-0.199898	0.380147
C157	C	-0.718221	-0.909677	-0.326515
C158	C	-0.468221	-0.659677	-0.076515
C159	C	-0.218221	-0.409677	0.173485
C160	C	0.031779	-0.159677	0.423485
C161	C	-0.682951	-0.869427	-0.283166
C162	C	-0.432951	-0.619427	-0.033166
C163	C	-0.182951	-0.369427	0.216834
C164	C	0.067049	-0.119427	0.466834
C165	C	-0.612264	-0.869401	-0.283157
C166	C	-0.362264	-0.619401	-0.033157
C167	C	-0.112264	-0.369401	0.216843
C168	C	0.137736	-0.119401	0.466843
C169	C	-0.968025	-0.869528	-0.283201
C170	C	-0.718025	-0.619528	-0.033201
C171	C	-0.468025	-0.369528	0.216799
C172	C	-0.218025	-0.119528	0.466799
C173	C	-1.038717	-0.869558	-0.283211
C174	C	-0.788717	-0.619558	-0.033211
C175	C	-0.538717	-0.369558	0.216789
C176	C	-0.288717	-0.119558	0.466789
C177	C	-1.038559	-0.950025	-0.369896
C178	C	-0.788559	-0.700025	-0.119896
C179	C	-0.538559	-0.450025	0.130104
C180	C	-0.288559	-0.200025	0.380104
C181	C	-0.967872	-0.949999	-0.369888
C182	C	-0.717872	-0.699999	-0.119888
C183	C	-0.467872	-0.449999	0.130112
C184	C	-0.217872	-0.199999	0.380112
C185	C	-0.932609	-0.909747	-0.326542
C186	C	-0.682609	-0.659747	-0.076542
C187	C	-0.432609	-0.409747	0.173458
C188	C	-0.182609	-0.159747	0.423458
C189	C	-0.855960	-0.909722	-0.326529
C190	C	-0.605960	-0.659722	-0.076529
C191	C	-0.355960	-0.409722	0.173471
C192	C	-0.105960	-0.159722	0.423471
C193	C	-0.794868	-0.909705	-0.326523
C194	C	-0.544868	-0.659705	-0.076523
C195	C	-0.294868	-0.409705	0.173477
C196	C	-0.044868	-0.159705	0.423477
C197	C	-0.149215	-0.909763	-0.326545
C198	C	0.100785	-0.659763	-0.076545
C199	C	0.350785	-0.409763	0.173455
C200	C	0.600785	-0.159763	0.423455
C201	C	-0.073983	-0.909801	-0.326562
C202	C	0.176017	-0.659801	-0.076562
C203	C	0.426017	-0.409801	0.173438
C204	C	0.676017	-0.159801	0.423438
C205	C	-0.325715	-0.909709	-0.503049
C206	C	-0.075715	-0.659709	-0.253049
C207	C	0.174285	-0.409709	-0.003049
C208	C	0.424285	-0.159709	0.246951
C209	C	-0.325697	-0.909724	-0.578281
C210	C	-0.075697	-0.659724	-0.328281
C211	C	0.174303	-0.409724	-0.078281
C212	C	0.424303	-0.159724	0.171719
C213	C	-0.325726	-0.073864	-0.326578
C214	C	-0.075726	0.176136	-0.076578
C215	C	0.174274	0.426136	0.173422
C216	C	0.424274	0.676136	0.423422
C217	C	-0.325742	-0.143832	-0.326559
C218	C	-0.075742	0.106168	-0.076559
C219	C	0.174258	0.356168	0.173441
C220	C	0.424258	0.606168	0.423441
C221	C	-0.282394	-0.950009	-0.613658
C222	C	-0.032394	-0.700009	-0.363658
C223	C	0.217606	-0.450009	-0.113658
C224	C	0.467606	-0.200009	0.136342
C225	C	-0.282374	-0.950015	-0.684346
C226	C	-0.032374	-0.700015	-0.434346
C227	C	0.217626	-0.450015	-0.184346
C228	C	0.467626	-0.200015	0.065654
C229	C	-0.325662	-0.909740	-0.719656
C230	C	-0.075662	-0.659740	-0.469656
C231	C	0.174338	-0.409740	-0.219656
C232	C	0.424338	-0.159740	0.030344
C233	C	-0.368966	-0.869451	-0.684274
C234	C	-0.118966	-0.619451	-0.434274
C235	C	0.131034	-0.369451	-0.184274
C236	C	0.381034	-0.119451	0.065726
C237	C	-0.368982	-0.869442	-0.613587
C238	C	-0.118982	-0.619442	-0.363587
C239	C	0.131018	-0.369442	-0.113587
C240	C	0.381018	-0.119442	0.136413
C241	C	-0.368903	-0.869487	-0.969348
C242	C	-0.118903	-0.619487	-0.719348
C243	C	0.131097	-0.369487	-0.469348
C244	C	0.381097	-0.119487	-0.219348
C245	C	-0.368886	-0.869501	-1.040040
C246	C	-0.118886	-0.619501	-0.790040
C247	C	0.131114	-0.369501	-0.540040
C248	C	0.381114	-0.119501	-0.290040
C249	C	-0.282295	-0.950060	-1.040107
C250	C	-0.032295	-0.700060	-0.790107
C251	C	0.217705	-0.450060	-0.540107
C252	C	0.467705	-0.200060	-0.290107
C253	C	-0.282311	-0.950051	-0.969420
C254	C	-0.032311	-0.700051	-0.719420
C255	C	0.217689	-0.450051	-0.469420
C256	C	0.467689	-0.200051	-0.219420
C257	C	-0.325613	-0.909760	-0.934044
C258	C	-0.075613	-0.659760	-0.684044
C259	C	0.174387	-0.409760	-0.434044
C260	C	0.424387	-0.159760	-0.184044
C261	C	-0.325633	-0.909753	-0.857395
C262	C	-0.075633	-0.659753	-0.607395
C263	C	0.174367	-0.409753	-0.357395
C264	C	0.424367	-0.159753	-0.107395
C265	C	-0.325646	-0.909750	-0.796304
C266	C	-0.075646	-0.659750	-0.546304
C267	C	0.174354	-0.409750	-0.296304
C268	C	0.424354	-0.159750	-0.046304
C269	C	-0.325751	-0.909675	-0.150650
C270	C	-0.075751	-0.659675	0.099350
C271	C	0.174249	-0.409675	0.349350
C272	C	0.424249	-0.159675	0.599350
C273	C	-0.325579	-0.909782	-0.075418
C274	C	-0.075579	-0.659782	0.174582
C275	C	0.174421	-0.409782	0.424582
C276	C	0.424421	-0.159782	0.674582
H277	H	-0.404478	-0.670050	-0.404782
H278	H	-0.154478	-0.420050	-0.154782
H279	H	0.095522	-0.170050	0.095218
H280	H	0.345522	0.079950	0.345218
Cl281	Cl	-1.082895	-1.000627	-0.424392
Cl282	Cl	-0.832895	-0.750627	-0.174392
Cl283	Cl	-0.582895	-0.500627	0.075608
Cl284	Cl	-0.332895	-0.250627	0.325608
Cl285	Cl	-0.227903	-0.135376	-0.229030
Cl286	Cl	0.022097	0.114624	0.020970
Cl287	Cl	0.272097	0.364624	0.270970
Cl288	Cl	0.522097	0.614624	0.520970
H289	H	-0.247064	-0.982849	-0.940674
H290	H	0.002936	-0.732849	-0.690674
H291	H	0.252936	-0.482849	-0.440674
H292	H	0.502936	-0.232849	-0.190674
Cl293	Cl	-0.227973	-0.536214	-0.228909
Cl294	Cl	0.022027	-0.286214	0.021091
Cl295	Cl	0.272027	-0.036214	0.271091
Cl296	Cl	0.522027	0.213786	0.521091
H297	H	-0.404209	-0.836656	-0.713029
H298	H	-0.154209	-0.586656	-0.463029
H299	H	0.095791	-0.336656	-0.213029
H300	H	0.345791	-0.086656	0.036971
Cl301	Cl	-0.227930	-0.283759	-0.228984
Cl302	Cl	0.022070	-0.033759	0.021016
Cl303	Cl	0.272070	0.216241	0.271016
Cl304	Cl	0.522070	0.466241	0.521016
H305	H	-0.939318	-0.836754	-0.247906
H306	H	-0.689318	-0.586754	0.002094
H307	H	-0.439318	-0.336754	0.252094
H308	H	-0.189318	-0.086754	0.502094
Cl309	Cl	-0.423341	-0.818836	-0.924884
Cl310	Cl	-0.173341	-0.568836	-0.674884
Cl311	Cl	0.076659	-0.318836	-0.424884
Cl312	Cl	0.326659	-0.068836	-0.174884
Cl313	Cl	-0.227855	-1.000710	-1.084584
Cl314	Cl	0.022145	-0.750710	-0.834584
Cl315	Cl	0.272145	-0.500710	-0.584584
Cl316	Cl	0.522145	-0.250710	-0.334584
H317	H	-0.404452	-0.550786	-0.404824
H318	H	-0.154452	-0.300786	-0.154824
H319	H	0.095548	-0.050786	0.095176
H320	H	0.345548	0.199214	0.345176
H321	H	-1.067555	-0.836802	-0.247919
H322	H	-0.817555	-0.586802	0.002081
H323	H	-0.567555	-0.336802	0.252081
H324	H	-0.317555	-0.086802	0.502081
H325	H	-0.711798	-0.836676	-0.247882
H326	H	-0.461798	-0.586676	0.002118
H327	H	-0.211798	-0.336676	0.252118
H328	H	0.038202	-0.086676	0.502118
H329	H	-0.404408	-0.269212	-0.404910
H330	H	-0.154408	-0.019212	-0.154910
H331	H	0.095592	0.230788	0.095090
H332	H	0.345592	0.480788	0.345090
H333	H	-0.583552	-0.836628	-0.247861
H334	H	-0.333552	-0.586628	0.002139
H335	H	-0.083552	-0.336628	0.252139
H336	H	0.166448	-0.086628	0.502139
Cl337	Cl	-0.227975	-1.000646	-0.569275
Cl338	Cl	0.022025	-0.750646	-0.319275
Cl339	Cl	0.272025	-0.500646	-0.069275
Cl340	Cl	0.522025	-0.250646	0.180725
H341	H	-0.247114	-0.982820	-0.713148
H342	H	0.002886	-0.732820	-0.463148
H343	H	0.252886	-0.482820	-0.213148
H344	H	0.502886	-0.232820	0.036852
H345	H	-0.404237	-0.836632	-0.584784
H346	H	-0.154237	-0.586632	-0.334784
H347	H	0.095763	-0.336632	-0.084784
H348	H	0.345763	-0.086632	0.165216
Cl349	Cl	-0.423573	-0.135390	-0.424094
Cl350	Cl	-0.173573	0.114610	-0.174094
Cl351	Cl	0.076427	0.364610	0.075906
Cl352	Cl	0.326427	0.614610	0.325906
Cl353	Cl	-0.227990	-0.684601	-0.228865
Cl354	Cl	0.022010	-0.434601	0.021135
Cl355	Cl	0.272010	-0.184601	0.271135
Cl356	Cl	0.522010	0.065399	0.521135
H357	H	-0.583275	-0.982631	-0.405128
H358	H	-0.333275	-0.732631	-0.155128
H359	H	-0.083275	-0.482631	0.094872
H360	H	0.166725	-0.232631	0.344872
Cl361	Cl	-0.727129	-1.000488	-0.424358
Cl362	Cl	-0.477129	-0.750488	-0.174358
Cl363	Cl	-0.227129	-0.500488	0.075642
Cl364	Cl	0.022871	-0.250488	0.325642
Cl365	Cl	-0.423308	-0.818864	-1.084428
Cl366	Cl	-0.173308	-0.568864	-0.834428
Cl367	Cl	0.076692	-0.318864	-0.584428
Cl368	Cl	0.326692	-0.068864	-0.334428
H369	H	-0.939034	-0.982753	-0.405175
H370	H	-0.689034	-0.732753	-0.155175
H371	H	-0.439034	-0.482753	0.094825
H372	H	-0.189034	-0.232753	0.344825
