data_functionalizedCrystal
_audit_creation_method	'MofGen! by Chris Wilmer'
_symmetry_space_group_name_H-M	'P1'
_symmetry_Int_Tables_number	1
_symmetry_cell_setting	triclinic
loop_
_symmetry_equiv_pos_as_xyz
  x,y,z
_cell_length_a	12.759400
_cell_length_b	12.759401
_cell_length_c	19.805399
_cell_angle_alpha	89.984563
_cell_angle_beta	89.976763
_cell_angle_gamma	90.014845
loop_
_atom_site_label
_atom_site_type_symbol
_atom_site_fract_x
_atom_site_fract_y
_atom_site_fract_z
Zn1	Zn	-0.418286	1.606224	-0.382665
Zn2	Zn	-0.593979	1.606128	-0.269486
Zn3	Zn	-0.418316	1.430535	-0.269498
Zn4	Zn	-0.593924	1.430514	-0.382641
O5	O	-0.506126	1.518350	-0.326072
O6	O	-0.441603	1.753232	-0.367657
O7	O	-0.570713	1.582803	-0.174771
O8	O	-0.271291	1.453890	-0.284526
O9	O	-0.570684	1.753161	-0.284504
O10	O	-0.271269	1.582967	-0.367669
O11	O	-0.441653	1.453796	-0.174780
O12	O	-0.441600	1.283511	-0.284502
O13	O	-0.570590	1.453854	-0.477361
O14	O	-0.570618	1.283496	-0.367627
O15	O	-0.441549	1.582947	-0.477379
O16	O	-0.740993	1.582783	-0.284480
O17	O	-0.740953	1.453761	-0.367615
C18	C	-0.506107	1.245383	-0.326063
C19	C	-0.506124	1.128606	-0.326075
C20	C	-0.779094	1.518288	-0.326058
C21	C	-0.895870	1.518357	-0.326075
C22	C	-0.573412	1.073764	-0.369287
C23	C	-0.573425	0.964040	-0.369295
C24	C	-0.438860	0.964010	-0.282873
C25	C	-0.438842	1.073732	-0.282869
C26	C	-0.640693	1.128638	-0.412493
C27	C	-0.707987	1.073795	-0.455708
C28	C	-0.708001	0.964071	-0.455716
C29	C	-0.640720	0.909190	-0.412508
C30	C	-0.950719	1.585614	-0.282835
C31	C	-1.060443	1.585678	-0.282856
C32	C	-1.060460	1.451221	-0.369359
C33	C	-0.950738	1.451163	-0.369341
C34	C	-0.895851	1.652808	-0.239569
C35	C	-0.950699	1.720070	-0.196325
C36	C	-1.060423	1.720134	-0.196345
C37	C	-1.115299	1.652938	-0.239611
C38	C	-0.232093	1.518441	-0.326101
C39	C	-0.115316	1.518480	-0.326114
C40	C	-0.506060	1.518409	-0.502615
C41	C	-0.506032	1.518434	-0.577847
C42	C	-0.506147	1.792383	-0.326082
C43	C	-0.506155	1.909160	-0.326086
C44	C	-0.438837	1.585654	-0.613202
C45	C	-0.438807	1.585665	-0.683890
C46	C	-0.505977	1.518460	-0.719223
C47	C	-0.573175	1.451233	-0.683863
C48	C	-0.573199	1.451217	-0.613176
C49	C	-0.573077	1.451292	-0.968937
C50	C	-0.573049	1.451315	-1.039629
C51	C	-0.438684	1.585740	-1.039651
C52	C	-0.438709	1.585724	-0.968964
C53	C	-0.505902	1.518493	-0.933610
C54	C	-0.505933	1.518481	-0.856962
C55	C	-0.505952	1.518477	-0.795870
C56	C	-0.506116	1.518352	-0.150217
C57	C	-0.505849	1.518530	-0.074985
H58	H	-0.640692	1.217981	-0.412491
H59	H	-0.762787	0.919421	-0.490908
Br60	Br	-0.347680	1.676874	-0.565258
Br61	Br	-0.347558	0.889529	-0.224237
Br62	Br	-0.347519	1.148168	-0.224225
Br63	Br	-0.746940	1.653048	-0.239747
H64	H	-0.762758	1.118487	-0.490890
H65	H	-1.204643	1.653004	-0.239629
Br66	Br	-0.876294	1.359890	-0.428028
Br67	Br	-1.134934	1.360031	-0.428071
Br68	Br	-0.664389	1.359980	-0.565194
H69	H	-0.906014	1.774785	-0.161103
H70	H	-0.640727	0.819845	-0.412523
H71	H	-1.105078	1.774908	-0.161139
H72	H	-0.384093	1.640405	-0.712673
Br73	Br	-0.347552	1.676940	-0.921016
H74	H	-0.627750	1.396584	-1.068395
H75	H	-0.383969	1.640479	-1.068444
Br76	Br	-0.664266	1.360048	-0.920966
Br77	Br	-0.664330	1.360018	-0.731814
