data_functionalizedCrystal
_audit_creation_method	'MofGen! by Chris Wilmer'
_symmetry_space_group_name_H-M	'P1'
_symmetry_Int_Tables_number	1
_symmetry_cell_setting	triclinic
loop_
_symmetry_equiv_pos_as_xyz
  x,y,z
_cell_length_a	17.077404
_cell_length_b	25.639239
_cell_length_c	25.639233
_cell_angle_alpha	89.981253
_cell_angle_beta	89.986697
_cell_angle_gamma	90.038911
loop_
_atom_site_label
_atom_site_type_symbol
_atom_site_fract_x
_atom_site_fract_y
_atom_site_fract_z
Zn1	Zn	1.199920	-0.208211	-0.295619
Zn2	Zn	1.199805	-0.295630	-0.208183
Zn3	Zn	1.068666	-0.208211	-0.208196
Zn4	Zn	1.068584	-0.295618	-0.295586
O5	O	1.134244	-0.251918	-0.251896
O6	O	1.309752	-0.219813	-0.284028
O7	O	1.182396	-0.284039	-0.135020
O8	O	1.086160	-0.135046	-0.219812
O9	O	1.309668	-0.284039	-0.219789
O10	O	1.182592	-0.135046	-0.284041
O11	O	1.086049	-0.219812	-0.135029
O12	O	0.958809	-0.219800	-0.219781
O13	O	1.086020	-0.284018	-0.368756
O14	O	0.958748	-0.284018	-0.283986
O15	O	1.182512	-0.219801	-0.368780
O16	O	1.182316	-0.368794	-0.219758
O17	O	1.085908	-0.368785	-0.283973
C18	C	0.930296	-0.251908	-0.251882
C19	C	0.843046	-0.251917	-0.251888
C20	C	0.802045	-0.285405	-0.285266
C21	C	0.720065	-0.285406	-0.285274
C22	C	0.679087	-0.251921	-0.251902
C23	C	0.720094	-0.218429	-0.218522
C24	C	0.802073	-0.218425	-0.218517
C25	C	0.549224	-0.218439	-0.218535
C26	C	0.467239	-0.218443	-0.218539
C27	C	0.467216	-0.285420	-0.285292
C28	C	0.549195	-0.285417	-0.285287
C29	C	0.590196	-0.251925	-0.251906
C30	C	1.134112	-0.387760	-0.251872
C31	C	1.134127	-0.445874	-0.251879
C32	C	1.184575	-0.806229	-0.218516
C33	C	1.184605	-0.860834	-0.218523
O34	O	1.227360	-0.889064	-0.190131
N35	N	1.134382	-0.888157	-0.251931
C36	C	1.084131	-0.860872	-0.285337
O37	O	1.041416	-0.889127	-0.313754
C38	C	1.084105	-0.806269	-0.285332
C39	C	1.134326	-0.778949	-0.251919
C40	C	1.234792	-0.778909	-0.185106
C41	C	1.234760	-0.724309	-0.185099
C42	C	1.184511	-0.697028	-0.218501
C43	C	1.134294	-0.724348	-0.251911
C44	C	1.033859	-0.778986	-0.318741
C45	C	1.033837	-0.724379	-0.318734
C46	C	1.084058	-0.697059	-0.285320
C47	C	1.084014	-0.642468	-0.285306
N48	N	1.134237	-0.615145	-0.251899
C49	C	1.184485	-0.642425	-0.218496
C50	C	1.084190	-0.975543	-0.285345
C51	C	1.084211	-1.030145	-0.285348
C52	C	1.184687	-1.030103	-0.218534
C53	C	1.184661	-0.975499	-0.218530
C54	C	1.134413	-0.948220	-0.251938
C55	C	1.184415	-0.527760	-0.218483
C56	C	1.184376	-0.473154	-0.218477
C57	C	1.083904	-0.473202	-0.285292
C58	C	1.083939	-0.527802	-0.285296
C59	C	1.134201	-0.555080	-0.251890
O60	O	1.041283	-0.614203	-0.313686
O61	O	1.227201	-0.614164	-0.190090
C62	C	1.338988	-0.251927	-0.251911
C63	C	1.426238	-0.251932	-0.251917
C64	C	1.134269	-0.251908	-0.388269
C65	C	1.134280	-0.251904	-0.446383
C66	C	1.134398	-0.115544	-0.251932
C67	C	1.134464	-0.057430	-0.251947
C68	C	1.184587	-0.218367	-0.806764
C69	C	1.184597	-0.218353	-0.861369
O70	O	1.227307	-0.189900	-0.889621
N71	N	1.134367	-0.251782	-0.888666
C72	C	1.084118	-0.285224	-0.861356
O73	O	1.041393	-0.313656	-0.889588
C74	C	1.084105	-0.285235	-0.806753
C75	C	1.134344	-0.251808	-0.779458
C76	C	1.234822	-0.184942	-0.779470
C77	C	1.234813	-0.184957	-0.724869
C78	C	1.184570	-0.218398	-0.697563
C79	C	1.134335	-0.251823	-0.724858
C80	C	1.033852	-0.318674	-0.779443
C81	C	1.033843	-0.318683	-0.724836
C82	C	1.084082	-0.285255	-0.697542
C83	C	1.084083	-0.285279	-0.642951
N84	N	1.134313	-0.251850	-0.615654
C85	C	1.184557	-0.218409	-0.642960
C86	C	1.084148	-0.285197	-0.976027
C87	C	1.084164	-0.285188	-1.030629
C88	C	1.184643	-0.218316	-1.030638
C89	C	1.184630	-0.218328	-0.976035
C90	C	1.134378	-0.251768	-0.948729
C91	C	1.184535	-0.218444	-0.528295
C92	C	1.184524	-0.218464	-0.473689
C93	C	1.084043	-0.285334	-0.473685
C94	C	1.084056	-0.285316	-0.528286
C95	C	1.134305	-0.251867	-0.555589
O96	O	1.041393	-0.313716	-0.614664
O97	O	1.227267	-0.189977	-0.614721
C98	C	1.134264	-0.251889	-0.116054
C99	C	1.134405	-0.251746	-0.057940
H100	H	0.433829	-0.312689	-0.312473
H101	H	0.992913	-0.345908	-0.702607
H102	H	1.043048	-0.550048	-0.312505
H103	H	1.043155	-0.312540	-0.550510
H104	H	1.275736	-0.157708	-0.801697
Cl105	Cl	1.020742	-0.438896	-0.327284
H106	H	0.686685	-0.312676	-0.312453
H107	H	0.686723	-0.191162	-0.191352
H108	H	0.433877	-0.191170	-0.191370
H109	H	1.225272	-0.450912	-0.191266
Cl110	Cl	1.020974	-0.327244	-0.941705
Cl111	Cl	1.247688	-0.176438	-0.439380
H112	H	1.225344	-0.549963	-0.191282
H113	H	0.582605	-0.191162	-0.191357
H114	H	1.043309	-1.052385	-0.312551
H115	H	0.835455	-0.191153	-0.191340
Cl116	Cl	1.297910	-0.689971	-0.143099
H117	H	1.043266	-0.953335	-0.312548
H118	H	0.992942	-0.345895	-0.801657
H119	H	1.043138	-0.312562	-0.451442
Cl120	Cl	1.247799	-0.941160	-0.176524
Cl121	Cl	0.853552	-0.327506	-0.327220
H122	H	1.225552	-0.191086	-1.052881
H123	H	0.582557	-0.312686	-0.312459
H124	H	1.275715	-0.801115	-0.157906
H125	H	1.225605	-1.052324	-0.191338
Cl126	Cl	0.970729	-0.813318	-0.360755
H127	H	0.992920	-0.702171	-0.345940
Cl128	Cl	1.247702	-0.176391	-0.562611
H129	H	1.043263	-0.312414	-1.052847
Cl130	Cl	1.297969	-0.142928	-0.690565
H131	H	1.225538	-0.191107	-0.953815
