data_functionalizedCrystal
_audit_creation_method	'MofGen! by Chris Wilmer'
_symmetry_space_group_name_H-M	'P1'
_symmetry_Int_Tables_number	1
_symmetry_cell_setting	triclinic
loop_
_symmetry_equiv_pos_as_xyz
  x,y,z
_cell_length_a	31.640172
_cell_length_b	27.440279
_cell_length_c	27.440280
_cell_angle_alpha	60.011579
_cell_angle_beta	89.998936
_cell_angle_gamma	60.006660
loop_
_atom_site_label
_atom_site_type_symbol
_atom_site_fract_x
_atom_site_fract_y
_atom_site_fract_z
Zr1	Zr	0.407332	0.533223	-0.063852
O2	O	0.339872	0.634863	-0.141636
O3	O	0.427992	0.431583	-0.040022
O4	O	0.428020	0.533212	-0.141663
O5	O	0.339845	0.533244	0.040198
O6	O	0.497576	0.533204	-0.141666
O7	O	0.339844	0.533234	-0.039996
O8	O	0.497526	0.351409	0.040151
O9	O	0.339895	0.715039	-0.141619
O10	O	0.488737	0.473383	-0.029843
O11	O	0.436828	0.473397	0.030007
O12	O	0.436862	0.593051	-0.089662
O13	O	0.384954	0.593064	-0.029812
Zr14	Zr	0.518268	0.533225	0.064042
Zr15	Zr	0.518266	0.533210	-0.063857
Zr16	Zr	0.407334	0.533238	0.064047
Zr17	Zr	0.407369	0.661095	-0.063824
Zr18	Zr	0.518231	0.405354	0.064014
O19	O	0.497608	0.634865	0.040213
O20	O	0.497606	0.634844	-0.141644
O21	O	0.339874	0.634884	0.040220
O22	O	0.585728	0.431586	0.141827
O23	O	0.585726	0.431565	-0.040029
O24	O	0.427994	0.431605	0.141834
O25	O	0.585755	0.533205	-0.040007
O26	O	0.497580	0.533237	0.141853
O27	O	0.428024	0.533245	0.141856
O28	O	0.585756	0.533215	0.040186
O29	O	0.428073	0.715028	-0.141623
O30	O	0.497527	0.351421	0.141813
O31	O	0.585705	0.351410	0.141809
O32	O	0.585703	0.351398	0.040146
O33	O	0.339897	0.715051	-0.039956
O34	O	0.428074	0.715040	-0.039960
O35	O	0.488738	0.473397	0.089852
O36	O	0.540646	0.473384	0.030002
O37	O	0.488772	0.593052	-0.029817
O38	O	0.436863	0.593065	0.030033
C39	C	0.462753	0.373277	0.000060
C40	C	0.462737	0.318992	0.000048
C41	C	0.435698	0.084241	0.031340
C42	C	0.435688	0.135271	0.031332
O43	O	0.412654	0.161653	0.057913
N44	N	0.462776	0.160789	0.000083
C45	C	0.489881	0.135269	-0.031154
O46	O	0.512921	0.161660	-0.057734
C47	C	0.489893	0.084237	-0.031143
C48	C	0.462799	0.058726	0.000103
C49	C	0.408606	0.058729	0.062584
C50	C	0.408616	0.007704	0.062590
C51	C	0.435717	-0.017811	0.031354
C52	C	0.462808	0.007700	0.000110
C53	C	0.517001	0.058715	-0.062377
C54	C	0.517012	0.007678	-0.062362
C55	C	0.489917	-0.017833	-0.031116
C56	C	0.489919	-0.068840	-0.031120
N57	N	0.462831	-0.094358	0.000128
C58	C	0.435730	-0.068844	0.031365
C59	C	0.489852	0.242441	-0.031176
C60	C	0.489837	0.293476	-0.031191
C61	C	0.435644	0.293473	0.031296
C62	C	0.435657	0.242440	0.031308
C63	C	0.462764	0.216922	0.000073
C64	C	0.435751	-0.176001	0.031377
C65	C	0.435761	-0.227029	0.031379
C66	C	0.489956	-0.227024	-0.031106
C67	C	0.489943	-0.175998	-0.031111
C68	C	0.462840	-0.150489	0.000135
O69	O	0.512943	-0.095256	-0.057686
O70	O	0.412699	-0.095247	0.057947
C71	C	0.324038	0.533241	0.000102
C72	C	0.276944	0.533246	0.000104
C73	C	-0.015062	0.533207	-0.044083
C74	C	-0.192049	0.533198	-0.044087
O75	O	-0.214922	0.533163	-0.081645
N76	N	-0.214179	0.533205	0.000091
C77	C	-0.192058	0.533209	0.044276
O78	O	-0.214939	0.533207	0.081857
C79	C	-0.015070	0.533213	0.044283
C80	C	0.007055	0.533213	0.000098
C81	C	0.007063	0.533206	-0.088264
C82	C	0.051305	0.533212	-0.088264
C83	C	0.073423	0.533219	-0.044083
C84	C	0.051297	0.533219	0.000098
C85	C	0.007053	0.533212	0.088470
C86	C	0.051303	0.533211	0.088468
C87	C	0.073428	0.533212	0.044283
C88	C	0.117657	0.533231	0.044278
N89	N	0.139787	0.533225	0.000099
C90	C	0.117670	0.533218	-0.044081
C91	C	-0.284979	0.533208	0.044269
C92	C	-0.329227	0.533209	0.044267
C93	C	-0.329214	0.533197	-0.044096
C94	C	-0.284968	0.533201	-0.044096
C95	C	-0.262849	0.533202	0.000091
C96	C	0.210582	0.533231	-0.044079
C97	C	0.254827	0.533240	-0.044077
C98	C	0.254812	0.533249	0.044288
C99	C	0.210569	0.533243	0.044284
C100	C	0.188456	0.533232	0.000098
O101	O	0.140561	0.533258	0.081820
O102	O	0.140565	0.533205	-0.081648
C103	C	-0.059305	0.533201	-0.044082
C104	C	-0.081430	0.533201	0.000099
C105	C	-0.059313	0.533207	0.044279
C106	C	-0.125677	0.533202	0.000096
C107	C	-0.147794	0.533195	-0.044084
C108	C	-0.125664	0.533189	-0.088263
C109	C	-0.081422	0.533195	-0.088263
C110	C	-0.081443	0.533214	0.088458
C111	C	-0.125685	0.533209	0.088454
C112	C	-0.147803	0.533203	0.044273
C113	C	0.601562	0.533208	0.000089
C114	C	0.648656	0.533202	0.000087
C115	C	0.462798	0.533206	-0.159887
C116	C	0.462797	0.533199	-0.214184
C117	C	0.462847	0.693172	0.000130
C118	C	0.462863	0.747456	0.000142
C119	C	0.435727	0.595701	-0.582143
C120	C	0.435728	0.595705	-0.633165
O121	O	0.412715	0.648829	-0.686108
N122	N	0.462805	0.533240	-0.627458
C123	C	0.489887	0.470768	-0.570723
O124	O	0.512919	0.417637	-0.570554
C125	C	0.489888	0.470765	-0.519702
C126	C	0.462805	0.533233	-0.525414
C127	C	0.408646	0.658165	-0.587852
C128	C	0.408644	0.658161	-0.536833
C129	C	0.435722	0.595693	-0.480105
C130	C	0.462803	0.533229	-0.474395
C131	C	0.516972	0.408293	-0.462969
C132	C	0.516972	0.408295	-0.411947
C133	C	0.489888	0.470764	-0.417659
C134	C	0.489879	0.470758	-0.366648
N135	N	0.462802	0.533222	-0.372356
C136	C	0.435723	0.595690	-0.429084
C137	C	0.489883	0.470779	-0.677873
C138	C	0.489879	0.470781	-0.728893
C139	C	0.435721	0.595719	-0.791331
C140	C	0.435722	0.595716	-0.740310
C141	C	0.462806	0.533244	-0.683581
C142	C	0.435721	0.595677	-0.321938
C143	C	0.435719	0.595667	-0.270912
C144	C	0.489879	0.470730	-0.208478
C145	C	0.489879	0.470739	-0.259500
C146	C	0.462798	0.533218	-0.316231
O147	O	0.512882	0.417660	-0.313686
O148	O	0.412701	0.648812	-0.429243
C149	C	0.462802	0.533243	0.160078
C150	C	0.462803	0.533249	0.214374
C151	C	0.601515	0.373261	0.000054
C152	C	0.648594	0.318970	0.000040
C153	C	0.462755	0.373296	0.160043
C154	C	0.462740	0.319017	0.214327
C155	C	0.601517	0.373279	0.160036
C156	C	0.648596	0.318995	0.214319
C157	C	0.324083	0.693169	-0.159846
C158	C	0.277004	0.747453	-0.214128
C159	C	0.324085	0.693188	0.000137
C160	C	0.277006	0.747478	0.000151
C161	C	0.462845	0.693153	-0.159852
C162	C	0.462860	0.747431	-0.214137
C163	C	0.643606	0.293475	-0.031211
C164	C	0.687837	0.242470	-0.031236
C165	C	0.737055	0.216959	-0.000007
C166	C	0.742042	0.242460	0.031245
C167	C	0.697811	0.293467	0.031266
C168	C	0.489829	0.293528	0.271064
C169	C	0.489813	0.242535	0.322075
C170	C	0.462710	0.217029	0.316348
C171	C	0.435618	0.242523	0.259606
C172	C	0.435631	0.293519	0.208596
C173	C	0.697805	0.293496	0.208569
C174	C	0.742046	0.242498	0.259569
C175	C	0.737076	0.216996	0.316317
C176	C	0.687861	0.242500	0.322065
C177	C	0.643622	0.293501	0.271066
C178	C	0.227795	0.772959	-0.208379
C179	C	0.183554	0.823973	-0.259378
C180	C	0.188524	0.849477	-0.316126
C181	C	0.237739	0.823970	-0.321874
C182	C	0.281978	0.772960	-0.270876
C183	C	0.281994	0.772979	0.031396
C184	C	0.237763	0.823998	0.031407
C185	C	0.188545	0.849511	0.000176
C186	C	0.183558	0.824008	-0.031073
C187	C	0.227789	0.772994	-0.031087
C188	C	0.489968	0.772922	-0.208391
C189	C	0.489992	0.823915	-0.259392
C190	C	0.462905	0.849421	-0.316139
C191	C	0.435796	0.823925	-0.321884
C192	C	0.435775	0.772929	-0.270883
H193	H	0.413595	0.221673	0.056751
H194	H	0.413699	0.752181	-0.275570
H195	H	0.223738	0.752196	-0.162176
C196	C	0.519642	0.321581	0.277374
C197	C	0.549432	0.293540	0.339789
C198	C	0.579244	0.321592	0.346105
C199	C	0.579266	0.377686	0.290005
C200	C	0.549475	0.405731	0.227585
C201	C	0.519663	0.377679	0.221269
H202	H	0.549417	0.252013	0.381322
H203	H	0.601298	0.300831	0.392313
H204	H	0.601334	0.398452	0.294680
H205	H	0.549490	0.447258	0.186052
H206	H	0.497609	0.398440	0.175061
C207	C	0.129423	0.852018	-0.253046
C208	C	0.123961	0.823949	-0.190623
C209	C	0.069832	0.851991	-0.184289
C210	C	0.021165	0.908101	-0.240378
C211	C	0.026625	0.936173	-0.302806
C212	C	0.080754	0.908131	-0.309140
H213	H	0.159989	0.782410	-0.149098
H214	H	0.065790	0.831210	-0.138075
H215	H	-0.018905	0.928859	-0.235690
H216	H	-0.009403	0.977712	-0.344331
H217	H	0.084796	0.928912	-0.355353
C218	C	0.406001	0.851990	-0.384309
C219	C	0.420129	0.802912	-0.403097
C220	C	0.390331	0.830982	-0.465523
C221	C	0.346405	0.908130	-0.509162
C222	C	0.332275	0.957212	-0.490375
C223	C	0.362072	0.929142	-0.427948
H224	H	0.452648	0.745799	-0.370792
H225	H	0.400792	0.794648	-0.479431
H226	H	0.324347	0.928909	-0.555374
H227	H	0.299756	1.014325	-0.522680
H228	H	0.351612	0.965477	-0.414041
C229	C	0.703282	0.321544	0.146150
C230	C	0.757416	0.293491	0.139839
C231	C	0.762898	0.321538	0.077422
C232	C	0.714244	0.377638	0.021317
C233	C	0.660105	0.405694	0.027626
C234	C	0.654624	0.377647	0.090043
H235	H	0.793436	0.251960	0.181373
H236	H	0.802975	0.300769	0.072752
H237	H	0.718302	0.398400	-0.024888
H238	H	0.624086	0.447225	-0.013908
H239	H	0.614547	0.398416	0.094714
C240	C	0.519621	0.214494	0.384486
C241	C	0.578470	0.179424	0.403224
C242	C	0.608278	0.151385	0.465633
C243	C	0.579237	0.158416	0.509304
C244	C	0.520385	0.193488	0.490567
C245	C	0.490577	0.221527	0.428158
H246	H	0.599971	0.174218	0.370895
H247	H	0.651845	0.125422	0.479503
H248	H	0.601303	0.137660	0.555503
H249	H	0.498884	0.198695	0.522895
H250	H	0.447010	0.247490	0.414288
C251	C	0.785742	0.160890	0.372413
C252	C	0.839870	0.132842	0.366082
C253	C	0.888538	0.076734	0.422175
C254	C	0.883079	0.048675	0.484600
C255	C	0.828949	0.076723	0.490933
C256	C	0.780280	0.132831	0.434840
H257	H	0.843913	0.153613	0.319869
H258	H	0.928609	0.055971	0.417486
H259	H	0.919106	0.007140	0.526124
H260	H	0.824905	0.055952	0.537146
H261	H	0.740210	0.153594	0.439529
C262	C	0.378818	-0.020363	0.096969
C263	C	0.334877	-0.013392	0.063503
C264	C	0.305081	-0.041458	0.097885
C265	C	0.319225	-0.076495	0.165734
C266	C	0.363168	-0.083467	0.199204
C267	C	0.392964	-0.055401	0.164821
H268	H	0.324405	0.012545	0.013274
H269	H	0.272551	-0.036297	0.073108
H270	H	0.297168	-0.097271	0.191186
H271	H	0.373640	-0.109404	0.249433
H272	H	0.425494	-0.060562	0.189598
C273	C	0.682344	0.214420	-0.065608
C274	C	0.705290	0.137280	-0.032135
C275	C	0.699796	0.109230	-0.066506
C276	C	0.671356	0.158322	-0.134351
C277	C	0.648408	0.235468	-0.167828
C278	C	0.653902	0.263517	-0.133457
H279	H	0.726345	0.100935	0.018091
H280	H	0.716784	0.052122	-0.041723
H281	H	0.667289	0.137559	-0.159794
H282	H	0.627354	0.271813	-0.218054
H283	H	0.636915	0.320625	-0.158240
H284	H	0.539027	0.357422	-0.365756
C285	C	0.186228	0.533249	0.092885
C286	C	0.218114	0.473747	0.159078
C287	C	0.193781	0.473745	0.207684
C288	C	0.137562	0.533244	0.190097
C289	C	0.105673	0.592750	0.123901
C290	C	0.130006	0.592752	0.075295
H291	H	0.259734	0.429699	0.172100
H292	H	0.217388	0.429695	0.256687
H293	H	0.119549	0.533243	0.226078
H294	H	0.064053	0.636799	0.110879
H295	H	0.106399	0.636803	0.026292
C296	C	0.519771	0.744867	-0.145974
C297	C	0.549593	0.772908	-0.139666
C298	C	0.579402	0.744853	-0.077251
C299	C	0.579389	0.688757	-0.021143
C300	C	0.549565	0.660713	-0.027449
C301	C	0.519757	0.688768	-0.089864
H302	H	0.549604	0.814437	-0.181202
H303	H	0.601479	0.765614	-0.072583
H304	H	0.601455	0.667989	0.025060
H305	H	0.549555	0.619184	0.014087
H306	H	0.497680	0.668007	-0.094532
C307	C	0.519656	0.402029	-0.253227
C308	C	0.563608	0.384840	-0.279713
C309	C	0.593385	0.316131	-0.273439
C310	C	0.579210	0.264610	-0.240680
C311	C	0.535256	0.281797	-0.214192
C312	C	0.505479	0.350507	-0.220466
H313	H	0.574102	0.422980	-0.303965
H314	H	0.625922	0.303408	-0.293047
H315	H	0.601253	0.213747	-0.236036
H316	H	0.524761	0.243657	-0.189940
H317	H	0.472941	0.363229	-0.200858
H318	H	0.773067	0.175425	-0.000028
H319	H	0.512067	0.844668	-0.254703
C320	C	0.075645	0.533203	-0.136863
C321	C	0.131855	0.473680	-0.119268
C322	C	0.156194	0.473666	-0.167867
C323	C	0.124321	0.533176	-0.234061
C324	C	0.068107	0.592703	-0.251659
C325	C	0.043769	0.592717	-0.203060
H326	H	0.155452	0.429623	-0.070264
H327	H	0.197807	0.429600	-0.154839
H328	H	0.142338	0.533166	-0.270037
H329	H	0.044511	0.636760	-0.300663
H330	H	0.002156	0.636783	-0.216088
H331	H	0.152498	0.891013	-0.357648
C332	C	-0.150020	0.533208	0.137062
C333	C	-0.206238	0.592707	0.119480
C334	C	-0.230568	0.592699	0.168089
C335	C	-0.198680	0.533192	0.234280
C336	C	-0.142459	0.473689	0.251866
C337	C	-0.118129	0.473697	0.203256
H338	H	-0.229846	0.636761	0.070478
H339	H	-0.272187	0.636747	0.155071
H340	H	-0.216691	0.533186	0.270264
H341	H	-0.118851	0.429634	0.300867
H342	H	-0.076510	0.429648	0.216275
C343	C	0.796186	0.214384	0.065602
C344	C	0.834064	0.221376	0.032109
C345	C	0.888209	0.193293	0.066471
C346	C	0.904475	0.158218	0.134325
C347	C	0.866596	0.151224	0.167821
C348	C	0.812451	0.179308	0.133460
H349	H	0.822023	0.247342	-0.018124
H350	H	0.916250	0.198470	0.041675
H351	H	0.944557	0.137429	0.159762
H352	H	0.878637	0.125258	0.218055
H353	H	0.784411	0.174130	0.158256
H354	H	0.413671	0.646583	-0.837530
H355	H	0.701880	0.314219	0.056717
C356	C	0.462702	0.160929	0.372463
C357	C	0.492505	0.132893	0.434871
C358	C	0.492499	0.076792	0.490988
C359	C	0.462691	0.048728	0.484698
C360	C	0.432886	0.076764	0.422288
C361	C	0.432891	0.132865	0.366171
H362	H	0.514572	0.153668	0.439529
H363	H	0.514563	0.056038	0.537188
H364	H	0.462687	0.007199	0.526239
H365	H	0.410818	0.055989	0.417629
H366	H	0.410827	0.153619	0.319971
C367	C	0.336131	0.744924	0.065751
C368	C	0.384790	0.688810	0.065745
C369	C	0.438925	0.660761	0.100100
C370	C	0.444401	0.688826	0.134462
C371	C	0.395740	0.744943	0.134469
C372	C	0.341605	0.772992	0.100114
H373	H	0.380739	0.668032	0.040307
H374	H	0.474948	0.619220	0.100094
H375	H	0.484475	0.668062	0.159893
H376	H	0.399792	0.765721	0.159907
H377	H	0.305583	0.814534	0.100120
H378	H	0.413696	-0.247796	0.056823
C379	C	0.405809	0.214458	0.253314
C380	C	0.434849	0.137310	0.279792
C381	C	0.405043	0.109239	0.273504
C382	C	0.346197	0.158316	0.240738
C383	C	0.317154	0.235469	0.214258
C384	C	0.346960	0.263540	0.220547
H385	H	0.478413	0.100976	0.304049
H386	H	0.426542	0.052126	0.293106
H387	H	0.324132	0.137537	0.236083
H388	H	0.273589	0.271803	0.190001
H389	H	0.325460	0.320653	0.200944
C390	C	0.546817	0.086752	-0.096738
C391	C	0.532697	0.121774	-0.164584
C392	C	0.562520	0.149804	-0.198944
C393	C	0.606463	0.142813	-0.165458
C394	C	0.620585	0.107790	-0.097608
C395	C	0.590762	0.079760	-0.063249
H396	H	0.500166	0.126950	-0.189376
H397	H	0.552065	0.175730	-0.249171
H398	H	0.628539	0.163562	-0.190893
H399	H	0.653116	0.102613	-0.072817
H400	H	0.601216	0.053834	-0.013022
C401	C	0.139893	0.905622	0.000200
C402	C	0.145386	0.933664	0.034576
C403	C	0.096737	0.989772	0.034605
C404	C	0.042595	1.017839	0.000258
C405	C	0.037100	0.989798	-0.034121
C406	C	0.085749	0.933689	-0.034150
H407	H	0.185467	0.912887	0.060005
H408	H	0.100805	1.010530	0.060055
H409	H	0.006583	1.059374	0.000279
H410	H	-0.002981	1.010575	-0.059549
H411	H	0.081681	0.912931	-0.059600
C412	C	0.519638	0.321537	-0.065565
C413	C	0.549448	0.293464	-0.099922
C414	C	0.579255	0.321519	-0.134293
C415	C	0.579251	0.377648	-0.134308
C416	C	0.549439	0.405725	-0.099950
C417	C	0.519633	0.377670	-0.065579
H418	H	0.549452	0.251911	-0.099913
H419	H	0.601323	0.300734	-0.159727
H420	H	0.601315	0.398416	-0.159751
H421	H	0.549435	0.447277	-0.099959
H422	H	0.497565	0.398454	-0.040144
C423	C	0.405836	0.321548	0.146186
C424	C	0.376028	0.293484	0.139894
C425	C	0.346230	0.321511	0.077486
C426	C	0.346239	0.377602	0.021369
C427	C	0.376048	0.405670	0.027659
C428	C	0.405846	0.377643	0.090068
H429	H	0.376020	0.251958	0.181437
H430	H	0.324163	0.300733	0.072830
H431	H	0.324180	0.398350	-0.024829
H432	H	0.376056	0.447195	-0.013884
H433	H	0.427912	0.398421	0.094723
H434	H	0.511924	0.419870	-0.162282
C435	C	0.796176	0.214446	0.253235
C436	C	0.834030	0.137303	0.279696
C437	C	0.888159	0.109253	0.273361
C438	C	0.904434	0.158346	0.240565
C439	C	0.866579	0.235493	0.214102
C440	C	0.812450	0.263543	0.220437
H441	H	0.821984	0.100958	0.303975
H442	H	0.916182	0.052143	0.292950
H443	H	0.944503	0.137581	0.235875
H444	H	0.878626	0.271839	0.189822
H445	H	0.784428	0.320653	0.200847
C446	C	-0.057085	0.533189	-0.136865
C447	C	-0.052458	0.592688	-0.178761
C448	C	-0.028124	0.592681	-0.227364
C449	C	-0.008417	0.533175	-0.234071
C450	C	-0.013044	0.473672	-0.192174
C451	C	-0.037378	0.473679	-0.143570
H452	H	-0.067046	0.636742	-0.173797
H453	H	-0.024699	0.636730	-0.258380
H454	H	0.009597	0.533170	-0.270051
H455	H	0.001545	0.429618	-0.197138
H456	H	-0.040803	0.429630	-0.112555
C457	C	0.243201	0.852026	-0.384300
C458	C	0.194535	0.908131	-0.440391
C459	C	0.199995	0.936186	-0.502819
C460	C	0.254121	0.908136	-0.509154
C461	C	0.302791	0.852029	-0.453061
C462	C	0.297331	0.823974	-0.390634
H463	H	0.154464	0.928897	-0.435703
H464	H	0.163966	0.977720	-0.544342
H465	H	0.258163	0.928904	-0.555366
H466	H	0.342862	0.831262	-0.457750
H467	H	0.333359	0.782439	-0.349110
H468	H	0.683822	0.221729	0.368276
H469	H	0.603555	0.314256	0.275756
C470	C	0.243257	0.852038	0.065789
C471	C	0.220328	0.929173	0.032323
C472	C	0.225824	0.957210	0.066705
C473	C	0.254248	0.908112	0.134554
C474	C	0.277179	0.830972	0.168023
C475	C	0.271684	0.802935	0.133641
H476	H	0.199285	0.965522	-0.017906
H477	H	0.208849	1.014314	0.041928
H478	H	0.258317	0.928867	0.160006
H479	H	0.298222	0.794623	0.218252
H480	H	0.288659	0.745831	0.158418
H481	H	0.322045	0.752194	-0.275564
H482	H	0.143478	0.844788	-0.056500
H483	H	0.413680	-0.155236	0.056819
H484	H	0.386537	0.079497	0.088023
C485	C	0.546828	-0.020389	-0.096724
C486	C	0.532690	0.028684	-0.164575
C487	C	0.562505	0.000620	-0.198938
C488	C	0.606458	-0.076518	-0.165450
C489	C	0.620598	-0.125596	-0.097595
C490	C	0.590783	-0.097532	-0.063232
H491	H	0.500151	0.085791	-0.189368
H492	H	0.552037	0.036951	-0.249168
H493	H	0.628528	-0.097293	-0.190887
H494	H	0.653137	-0.182702	-0.072802
H495	H	0.601251	-0.133863	-0.013002
H496	H	0.511923	0.221670	-0.056616
H497	H	0.462926	0.890945	-0.357662
C498	C	0.279165	0.533237	-0.092681
C499	C	0.298878	0.473731	-0.099389
C500	C	0.323215	0.473727	-0.147991
C501	C	0.327840	0.533229	-0.189885
C502	C	0.308127	0.592740	-0.183178
C503	C	0.283789	0.592744	-0.134577
H504	H	0.295455	0.429680	-0.068376
H505	H	0.337808	0.429673	-0.152955
H506	H	0.345856	0.533226	-0.225863
H507	H	0.311550	0.636791	-0.214192
H508	H	0.269196	0.636799	-0.129612
C509	C	-0.260630	0.533195	-0.092696
C510	C	-0.240920	0.473687	-0.099401
C511	C	-0.216584	0.473679	-0.148003
C512	C	-0.211959	0.533180	-0.189901
C513	C	-0.231669	0.592692	-0.183197
C514	C	-0.256005	0.592700	-0.134595
H515	H	-0.244344	0.429637	-0.068385
H516	H	-0.201993	0.429624	-0.152966
H517	H	-0.193944	0.533174	-0.225879
H518	H	-0.228245	0.636742	-0.214213
H519	H	-0.270596	0.636756	-0.129633
H520	H	0.413578	0.314256	0.056732
H521	H	0.512000	-0.155220	-0.056561
H522	H	0.223720	0.752232	-0.056529
H523	H	0.512019	-0.247804	-0.056541
H524	H	0.192583	0.533221	-0.080059
C525	C	-0.353546	0.533184	-0.092693
C526	C	-0.358306	0.473777	-0.075074
C527	C	-0.382638	0.473759	-0.123664
C528	C	-0.402210	0.533148	-0.189874
C529	C	-0.397451	0.592559	-0.207497
C530	C	-0.373119	0.592578	-0.158906
H531	H	-0.343817	0.429810	-0.026058
H532	H	-0.386161	0.429778	-0.110619
H533	H	-0.420222	0.533134	-0.225844
H534	H	-0.411941	0.636526	-0.256512
H535	H	-0.369597	0.636558	-0.171952
H536	H	-0.347242	0.533219	0.080241
C537	C	-0.017276	0.533205	0.137077
C538	C	-0.021890	0.473694	0.178974
C539	C	-0.046217	0.473684	0.227586
C540	C	-0.065930	0.533186	0.234300
C541	C	-0.061316	0.592702	0.192402
C542	C	-0.036989	0.592711	0.143791
H543	H	-0.007297	0.429643	0.174005
H544	H	-0.049633	0.429626	0.258602
H545	H	-0.083938	0.533179	0.270286
H546	H	-0.075908	0.636753	0.197371
H547	H	-0.033573	0.636769	0.112775
C548	C	0.279146	0.533252	0.092887
C549	C	0.335364	0.473745	0.134778
C550	C	0.359702	0.473743	0.183382
C551	C	0.327823	0.533247	0.190094
C552	C	0.271602	0.592758	0.148201
C553	C	0.247264	0.592761	0.099598
H554	H	0.358966	0.429693	0.129811
H555	H	0.401320	0.429688	0.214393
H556	H	0.345839	0.533245	0.226073
H557	H	0.248000	0.636811	0.153169
H558	H	0.205646	0.636815	0.068587
H559	H	-0.010940	0.533199	-0.124241
H560	H	-0.143681	0.533187	-0.124238
H561	H	-0.063438	0.533218	0.124436
H562	H	0.069311	0.533209	0.124452
C563	C	0.378855	0.726879	-0.543124
C564	C	0.393024	0.778405	-0.575898
C565	C	0.363235	0.847128	-0.582196
C566	C	0.319277	0.864326	-0.555720
C567	C	0.305106	0.812800	-0.522944
C568	C	0.334896	0.744076	-0.516646
H569	H	0.425566	0.765675	-0.595499
H570	H	0.373725	0.885272	-0.606460
H571	H	0.297225	0.915200	-0.560383
H572	H	0.272564	0.825530	-0.503343
H573	H	0.324405	0.705933	-0.492383
C574	C	0.405934	0.664432	-0.746596
C575	C	0.361981	0.681622	-0.720113
C576	C	0.332193	0.750341	-0.726404
C577	C	0.346358	0.801871	-0.759178
C578	C	0.390313	0.784682	-0.785664
C579	C	0.420101	0.715962	-0.779373
H580	H	0.351494	0.643476	-0.695849
H581	H	0.299655	0.763065	-0.706797
H582	H	0.324307	0.852741	-0.763835
H583	H	0.400801	0.822828	-0.809928
H584	H	0.452640	0.703238	-0.798980
C585	C	0.519670	0.402054	-0.615470
C586	C	0.563627	0.384853	-0.571801
C587	C	0.593414	0.316129	-0.509401
C588	C	0.579245	0.264605	-0.490671
C589	C	0.535286	0.281804	-0.534341
C590	C	0.505499	0.350528	-0.596741
H591	H	0.574118	0.422996	-0.585665
H592	H	0.625956	0.303397	-0.477074
H593	H	0.601295	0.213731	-0.444479
H594	H	0.524795	0.243662	-0.520477
H595	H	0.472957	0.363260	-0.629068
H596	H	0.413662	0.646539	-0.275570
H597	H	0.413669	0.646553	-0.368126
H598	H	-0.266973	0.533209	0.080252
H599	H	0.511926	0.419913	-0.724234
H600	H	0.386596	0.709036	-0.634040
H601	H	0.603534	0.314245	-0.056649
H602	H	0.539027	0.357424	-0.458306
