data_functionalizedCrystal
_audit_creation_method	'MofGen! by Chris Wilmer'
_symmetry_space_group_name_H-M	'P1'
_symmetry_Int_Tables_number	1
_symmetry_cell_setting	triclinic
loop_
_symmetry_equiv_pos_as_xyz
  x,y,z
_cell_length_a	10.908878
_cell_length_b	11.804783
_cell_length_c	10.967829
_cell_angle_alpha	88.670776
_cell_angle_beta	72.684712
_cell_angle_gamma	74.538487
loop_
_atom_site_label
_atom_site_type_symbol
_atom_site_fract_x
_atom_site_fract_y
_atom_site_fract_z
O1	O	1.688653	0.057422	-0.202626
O2	O	2.188653	0.557422	0.297374
O3	O	1.311118	0.076681	-0.108796
O4	O	1.811118	0.576681	0.391204
O5	O	1.517027	0.030736	-0.332666
O6	O	2.017027	0.530736	0.167334
O7	O	1.482744	0.103366	0.021244
O8	O	1.982744	0.603366	0.521244
O9	O	1.561938	-0.160309	-0.298578
O10	O	2.061938	0.339691	0.201422
O11	O	1.356029	-0.114365	-0.074708
O12	O	1.856029	0.385635	0.425292
O13	O	1.733564	-0.133624	-0.168538
O14	O	2.233564	0.366376	0.331462
Cu15	Cu	1.548897	-0.141438	-0.118510
Cu16	Cu	2.048897	0.358562	0.381490
Cu17	Cu	1.495784	0.084495	-0.158823
Cu18	Cu	1.995784	0.584495	0.341177
O19	O	1.527655	-0.087679	0.055333
O20	O	2.027655	0.412321	0.555333
C21	C	1.285389	-0.017042	-0.082983
C22	C	1.785389	0.482958	0.417017
C23	C	1.141814	-0.011681	-0.056869
C24	C	1.641814	0.488319	0.443131
N25	N	1.586264	-0.300348	-0.090158
N26	N	2.086264	0.199652	0.409842
C27	C	1.096533	-0.031235	-0.152155
C28	C	1.596533	0.468765	0.347845
C29	C	0.948141	-0.025695	-0.125167
C30	C	1.448141	0.474305	0.374833
C31	C	1.368653	-0.708252	-0.255270
C32	C	1.868653	-0.208252	0.244730
C33	C	1.340361	-0.588002	-0.276720
C34	C	1.840361	-0.088002	0.223280
C35	C	1.401834	-0.516083	-0.230081
C36	C	1.901834	-0.016083	0.269919
C37	C	1.491604	-0.564425	-0.161989
C38	C	1.991604	-0.064425	0.338011
C39	C	1.519907	-0.684689	-0.140545
C40	C	2.019907	-0.184689	0.359455
C41	C	1.553088	-0.492520	-0.115356
C42	C	2.053088	0.007480	0.384644
C43	C	1.642859	-0.540863	-0.047264
C44	C	2.142859	-0.040863	0.452736
C45	C	1.671156	-0.661115	-0.025823
C46	C	2.171156	-0.161115	0.474177
C47	C	1.609683	-0.733034	-0.072462
C48	C	2.109683	-0.233034	0.427538
C49	C	1.524785	-0.372256	-0.136800
C50	C	2.024785	0.127744	0.363200
C51	C	1.676039	-0.348693	-0.022076
C52	C	2.176039	0.151307	0.477924
C53	C	1.704332	-0.468943	-0.000625
C54	C	2.204332	0.031057	0.499375
C55	C	1.759292	-0.039899	-0.194351
C56	C	2.259292	0.460101	0.305649
C57	C	1.902865	-0.045252	-0.220466
C58	C	2.402865	0.454748	0.279534
C59	C	1.540381	-0.073936	-0.360219
C60	C	2.040381	0.426064	0.139781
C61	C	1.543044	-0.101199	-0.493102
C62	C	2.043044	0.398801	0.006898
N63	N	1.458429	0.243403	-0.187187
N64	N	1.958429	0.743403	0.312813
C65	C	1.520965	-0.014385	-0.569998
C66	C	2.020965	0.485615	-0.069998
C67	C	1.523717	-0.042560	-0.707339
C68	C	2.023717	0.457440	-0.207339
C69	C	1.504300	0.016996	0.082885
C70	C	2.004300	0.516996	0.582885
C71	C	1.501636	0.044266	0.215766
C72	C	2.001636	0.544266	0.715766
H73	H	1.167622	-0.052072	-0.253713
H74	H	1.667622	0.447928	0.246287
Br75	Br	1.023333	0.023073	0.112405
Br76	Br	1.523333	0.523073	0.612405
H77	H	1.563975	-0.196382	-0.528943
H78	H	2.063975	0.303618	-0.028943
Br79	Br	0.829664	0.009061	0.044114
Br80	Br	1.329664	0.509061	0.544114
Br81	Br	1.466671	0.202930	-0.724496
Br82	Br	1.966671	0.702930	-0.224496
Br83	Br	1.285246	-0.805861	-0.318568
Br84	Br	1.785246	-0.305861	0.181432
Br85	Br	1.021331	-0.079974	-0.389755
Br86	Br	1.521331	0.420026	0.110245
Br87	Br	1.402962	-0.306663	-0.229211
Br88	Br	1.902962	0.193337	0.270789
H89	H	1.632709	-0.830952	-0.054994
H90	H	2.132709	-0.330952	0.445006
Br91	Br	1.218499	-0.522393	-0.369086
Br92	Br	1.718499	-0.022393	0.130914
H93	H	1.777425	-0.508321	0.054817
H94	H	2.277425	-0.008321	0.554817
Br95	Br	1.759484	-0.251100	0.041214
Br96	Br	2.259484	0.248900	0.541214
Br97	Br	1.793006	-0.726725	0.066567
Br98	Br	2.293006	-0.226725	0.566567
Br99	Br	1.486093	0.144265	-0.510279
Br100	Br	1.986093	0.644265	-0.010279
H101	H	1.378792	-0.418170	-0.247549
H102	H	1.878792	0.081830	0.252451
Br103	Br	1.558605	-0.201217	-0.767056
Br104	Br	2.058605	0.298783	-0.267056
