data_functionalizedCrystal
_audit_creation_method	'MofGen! by Chris Wilmer'
_symmetry_space_group_name_H-M	'P1'
_symmetry_Int_Tables_number	1
_symmetry_cell_setting	triclinic
loop_
_symmetry_equiv_pos_as_xyz
  x,y,z
_cell_length_a	29.839131
_cell_length_b	16.120542
_cell_length_c	16.120297
_cell_angle_alpha	89.872913
_cell_angle_beta	92.867727
_cell_angle_gamma	92.867415
loop_
_atom_site_label
_atom_site_type_symbol
_atom_site_fract_x
_atom_site_fract_y
_atom_site_fract_z
Zn1	Zn	-0.227649	-1.247314	-0.534556
Zn2	Zn	0.272351	-0.747314	-0.034556
Zn3	Zn	-0.299166	-1.254224	-0.395487
Zn4	Zn	0.200834	-0.754224	0.104513
Zn5	Zn	-0.220053	-1.115308	-0.388473
Zn6	Zn	0.279947	-0.615308	0.111527
Zn7	Zn	-0.298746	-1.108180	-0.527454
Zn8	Zn	0.201254	-0.608180	-0.027454
O9	O	-0.261404	-1.181256	-0.461492
O10	O	0.238596	-0.681256	0.038508
O11	O	-0.240491	-1.364595	-0.522017
O12	O	0.259509	-0.864595	-0.022017
O13	O	-0.285668	-1.241671	-0.278192
O14	O	0.214332	-0.741671	0.221808
O15	O	-0.158197	-1.132910	-0.407888
O16	O	0.341803	-0.632910	0.092112
O17	O	-0.293034	-1.369672	-0.419844
O18	O	0.206966	-0.869672	0.080156
O19	O	-0.163778	-1.229894	-0.515215
O20	O	0.336222	-0.729894	-0.015215
O21	O	-0.227544	-1.139610	-0.273038
O22	O	0.272456	-0.639610	0.226962
O23	O	-0.227137	-0.997998	-0.401000
O24	O	0.272863	-0.497998	0.099000
O25	O	-0.292319	-1.120761	-0.644761
O26	O	0.207681	-0.620761	-0.144761
O27	O	-0.284953	-0.992761	-0.503109
O28	O	0.215047	-0.492761	-0.003109
O29	O	-0.240084	-1.222982	-0.649979
O30	O	0.259916	-0.722982	-0.149979
O31	O	-0.361974	-1.234759	-0.412956
O32	O	0.138026	-0.734759	0.087044
O33	O	-0.361666	-1.127461	-0.509911
O34	O	0.138334	-0.627461	-0.009911
C35	C	-0.255175	-0.965207	-0.450523
C36	C	0.244825	-0.465207	0.049477
C37	C	-0.252522	-0.872779	-0.445850
C38	C	0.247478	-0.372779	0.054150
C39	C	-0.378121	-1.181108	-0.461444
C40	C	0.121879	-0.681108	0.038556
C41	C	-0.428056	-1.181119	-0.461454
C42	C	0.071944	-0.681119	0.038546
C43	C	-0.275152	-0.659805	-0.485687
C44	C	0.224848	-0.159805	0.014313
C45	C	-0.247682	-0.703558	-0.437318
C46	C	0.252318	-0.203558	0.062682
C47	C	-0.250376	-0.797721	-0.442067
C48	C	0.249624	-0.297721	0.057933
C49	C	-0.272459	-0.565633	-0.480939
C50	C	0.227541	-0.065633	0.019061
C51	C	-0.737857	-1.237219	-0.411091
C52	C	-0.237857	-0.737219	0.088909
C53	C	-0.925533	-1.237320	-0.411128
C54	C	-0.425533	-0.737320	0.088872
O55	O	-0.949928	-1.284900	-0.368269
O56	O	-0.449928	-0.784900	0.131731
N57	N	-0.948852	-1.181425	-0.461564
N58	N	-0.448852	-0.681425	0.038436
C59	C	-0.925249	-1.125505	-0.511998
C60	C	-0.425249	-0.625505	-0.011998
O61	O	-0.949390	-1.077972	-0.554904
O62	O	-0.449390	-0.577972	-0.054904
C63	C	-0.737573	-1.125409	-0.511964
C64	C	-0.237573	-0.625409	-0.011964
C65	C	-0.714257	-1.181302	-0.461519
C66	C	-0.214257	-0.681302	0.038481
C67	C	-0.714540	-1.293107	-0.360650
C68	C	-0.214540	-0.793107	0.139350
C69	C	-0.667623	-1.293079	-0.360638
C70	C	-0.167623	-0.793079	0.139362
C71	C	-0.644023	-1.237161	-0.411066
C72	C	-0.144023	-0.737161	0.088934
C73	C	-0.667340	-1.181273	-0.461507
C74	C	-0.167340	-0.681273	0.038493
C75	C	-0.713971	-1.069494	-0.562402
C76	C	-0.213971	-0.569494	-0.062402
C77	C	-0.667049	-1.069476	-0.562391
C78	C	-0.167049	-0.569476	-0.062391
C79	C	-0.643733	-1.125368	-0.511946
C80	C	-0.143733	-0.625368	-0.011946
C81	C	-0.596824	-1.125326	-0.511923
C82	C	-0.096824	-0.625326	-0.011923
N83	N	-0.573505	-1.181221	-0.461487
N84	N	-0.073505	-0.681221	0.038513
C85	C	-0.597105	-1.237138	-0.411059
C86	C	-0.097105	-0.737138	0.088941
C87	C	-1.023781	-1.125559	-0.512011
C88	C	-0.523781	-0.625559	-0.012011
C89	C	-1.070700	-1.125582	-0.512018
C90	C	-0.570700	-0.625582	-0.012018
C91	C	-1.070981	-1.237398	-0.411149
C92	C	-0.570981	-0.737398	0.088851
C93	C	-1.024062	-1.237370	-0.411138
C94	C	-0.524062	-0.737370	0.088862
C95	C	-1.000463	-1.181453	-0.461575
C96	C	-0.500463	-0.681453	0.038425
C97	C	-0.498577	-1.237073	-0.411036
C98	C	0.001423	-0.737073	0.088964
C99	C	-0.451656	-1.237037	-0.411026
C100	C	0.048344	-0.737037	0.088974
C101	C	-0.451379	-1.125224	-0.511898
C102	C	0.048621	-0.625224	-0.011898
C103	C	-0.498295	-1.125257	-0.511905
C104	C	0.001705	-0.625257	-0.011905
C105	C	-0.521893	-1.181188	-0.461472
C106	C	-0.021893	-0.681188	0.038528
O107	O	-0.572401	-1.077777	-0.554766
O108	O	-0.072401	-0.577777	-0.054766
O109	O	-0.572957	-1.284677	-0.368173
O110	O	-0.072957	-0.784677	0.131827
C111	C	-0.784773	-1.237248	-0.411103
C112	C	-0.284773	-0.737248	0.088897
C113	C	-0.808090	-1.181359	-0.461543
C114	C	-0.308090	-0.681359	0.038457
C115	C	-0.784490	-1.125442	-0.511972
C116	C	-0.284490	-0.625442	-0.011972
C117	C	-0.855008	-1.181382	-0.461551
C118	C	-0.355008	-0.681382	0.038449
C119	C	-0.878608	-1.237300	-0.411123
C120	C	-0.378608	-0.737300	0.088877
C121	C	-0.855290	-1.293194	-0.360687
C122	C	-0.355290	-0.793194	0.139313
C123	C	-0.808373	-1.293165	-0.360675
C124	C	-0.308373	-0.793165	0.139325
C125	C	-0.807809	-1.069547	-0.562408
C126	C	-0.307809	-0.569547	-0.062408
C127	C	-0.854725	-1.069580	-0.562415
C128	C	-0.354725	-0.569580	-0.062415
C129	C	-0.878325	-1.125498	-0.511987
C130	C	-0.378325	-0.625498	-0.011987
C131	C	-0.144232	-1.181427	-0.461561
C132	C	0.355768	-0.681427	0.038439
C133	C	-0.094300	-1.181499	-0.461590
C134	C	0.405700	-0.681499	0.038410
C135	C	-0.267002	-1.170306	-0.678386
C136	C	0.232998	-0.670306	-0.178386
C137	C	-0.269388	-1.165639	-0.770812
C138	C	0.230612	-0.665639	-0.270812
C139	C	-0.267654	-0.398150	-0.472493
C140	C	0.232346	0.101850	0.027507
C141	C	-0.270311	-0.490578	-0.477151
C142	C	0.229689	0.009422	0.022849
C143	C	-0.273733	-1.157089	-0.940036
C144	C	0.226267	-0.657089	-0.440036
C145	C	-0.248944	-1.205587	-0.983809
C146	C	0.251056	-0.705587	-0.483809
C147	C	-0.251362	-1.200830	-1.077971
C148	C	0.248638	-0.700830	-0.577971
C149	C	-0.271316	-1.161845	-0.845866
C150	C	0.228684	-0.661845	-0.345866
C151	C	-0.255796	-1.192212	-0.245446
C152	C	0.244204	-0.692212	0.254554
C153	C	-0.253288	-1.197040	-0.153027
C154	C	0.246712	-0.697040	0.346973
H155	H	-0.222141	-0.670297	-0.392341
H156	H	0.277859	-0.170297	0.107659
H157	H	-1.090204	-1.282928	-0.370089
H158	H	-0.590204	-0.782928	0.129911
C159	C	-0.309657	-0.704732	-0.546435
C160	C	0.190343	-0.204732	-0.046435
H161	H	-0.306965	-0.763044	-0.541687
H162	H	0.193035	-0.263044	-0.041687
H163	H	-0.304180	-0.687750	-0.601632
H164	H	0.195820	-0.187750	-0.101632
H165	H	-0.339117	-0.691136	-0.533448
H166	H	0.160883	-0.191136	-0.033448
H167	H	-0.432673	-1.282551	-0.369944
H168	H	0.067327	-0.782551	0.130056
C169	C	-0.524527	-1.298590	-0.355555
C170	C	-0.024527	-0.798590	0.144445
H171	H	-0.503915	-1.331861	-0.325510
H172	H	-0.003915	-0.831861	0.174490
H173	H	-0.544669	-1.333206	-0.389226
H174	H	-0.044669	-0.833206	0.110774
H175	H	-0.541002	-1.268645	-0.317683
H176	H	-0.041002	-0.768645	0.182317
C177	C	-0.782731	-1.354653	-0.305191
C178	C	-0.282731	-0.854653	0.194809
H179	H	-0.803512	-1.387960	-0.275169
H180	H	-0.303512	-0.887960	0.224831
H181	H	-0.762601	-1.324703	-0.267311
H182	H	-0.262601	-0.824703	0.232689
H183	H	-0.766268	-1.389248	-0.338869
H184	H	-0.266268	-0.889248	0.161131
C185	C	-0.641981	-1.354570	-0.305158
C186	C	-0.141981	-0.854570	0.194842
H187	H	-0.662762	-1.387878	-0.275138
H188	H	-0.162762	-0.887878	0.224862
H189	H	-0.621850	-1.324623	-0.267278
H190	H	-0.121850	-0.824623	0.232722
H191	H	-0.625520	-1.389164	-0.338840
H192	H	-0.125520	-0.889164	0.161160
H193	H	-0.733750	-1.338647	-0.319585
H194	H	-0.233750	-0.838647	0.180415
H195	H	-1.005080	-1.282883	-0.370062
H196	H	-0.505080	-0.782883	0.129938
H197	H	-0.296769	-1.112000	-0.973277
H198	H	0.203231	-0.612000	-0.473277
C199	C	-1.096343	-1.064096	-0.567503
C200	C	-0.596343	-0.564096	-0.067503
H201	H	-1.075564	-1.030799	-0.597539
H202	H	-0.575564	-0.530799	-0.097539
H203	H	-1.112809	-1.029503	-0.533835
H204	H	-0.612809	-0.529503	-0.033835
H205	H	-1.116471	-1.094059	-0.605383
H206	H	-0.616471	-0.594059	-0.105383
H207	H	-0.732947	-1.023976	-0.603476
H208	H	-0.232947	-0.523976	-0.103476
C209	C	-0.997828	-1.064038	-0.567486
C210	C	-0.497828	-0.564038	-0.067486
H211	H	-1.018439	-1.030751	-0.597513
H212	H	-0.518439	-0.530751	-0.097513
H213	H	-0.981350	-1.093966	-0.605360
H214	H	-0.481350	-0.593966	-0.105360
H215	H	-0.977689	-1.029426	-0.533798
H216	H	-0.477689	-0.529426	-0.033798
C217	C	-0.641093	-1.007967	-0.617874
C218	C	-0.141093	-0.507967	-0.117874
H219	H	-0.661702	-0.974684	-0.647911
H220	H	-0.161702	-0.474684	-0.147911
H221	H	-0.624616	-1.037906	-0.655739
H222	H	-0.124616	-0.537906	-0.155739
H223	H	-0.620954	-0.973350	-0.584192
H224	H	-0.120954	-0.473350	-0.084192
C225	C	-0.523945	-1.063777	-0.567392
C226	C	-0.023945	-0.563777	-0.067392
H227	H	-0.503168	-1.030474	-0.597426
H228	H	-0.003168	-0.530474	-0.097426
H229	H	-0.540415	-1.029189	-0.533728
H230	H	-0.040415	-0.529189	-0.033728
H231	H	-0.544069	-1.093748	-0.605273
H232	H	-0.044069	-0.593748	-0.105273
C233	C	-0.217825	-1.266511	-0.938911
C234	C	0.282175	-0.766511	-0.438911
H235	H	-0.202589	-1.296313	-0.978759
H236	H	0.297411	-0.796313	-0.478759
H237	H	-0.235203	-1.304392	-0.906867
H238	H	0.264797	-0.804392	-0.406867
H239	H	-0.196478	-1.236408	-0.903413
H240	H	0.303522	-0.736408	-0.403413
C241	C	-0.425416	-1.063727	-0.567375
C242	C	0.074584	-0.563727	-0.067375
H243	H	-0.446019	-1.030439	-0.597419
H244	H	0.053981	-0.530439	-0.097419
H245	H	-0.408940	-1.093679	-0.605234
H246	H	0.091060	-0.593679	-0.105234
H247	H	-0.405273	-1.029113	-0.533695
H248	H	0.094727	-0.529113	-0.033695
C249	C	-0.881253	-1.354703	-0.305215
C250	C	-0.381253	-0.854703	0.194785
H251	H	-0.860650	-1.387987	-0.275166
H252	H	-0.360650	-0.887987	0.224834
H253	H	-0.901394	-1.389306	-0.338901
H254	H	-0.401394	-0.889306	0.161099
H255	H	-0.897730	-1.324756	-0.267348
H256	H	-0.397730	-0.824756	0.232652
C257	C	-0.880369	-1.008096	-0.617911
C258	C	-0.380369	-0.508096	-0.117911
H259	H	-0.859590	-0.974798	-0.647946
H260	H	-0.359590	-0.474798	-0.147946
H261	H	-0.896838	-0.973503	-0.584249
H262	H	-0.396838	-0.473503	-0.084249
H263	H	-0.900494	-1.038066	-0.655791
H264	H	-0.400494	-0.538066	-0.155791
C265	C	-0.781855	-1.008028	-0.617875
C266	C	-0.281855	-0.508028	-0.117875
H267	H	-0.802465	-0.974743	-0.647905
H268	H	-0.302465	-0.474743	-0.147905
H269	H	-0.765374	-1.037954	-0.655747
H270	H	-0.265374	-0.537954	-0.155747
H271	H	-0.761718	-0.973415	-0.584184
H272	H	-0.261718	-0.473415	-0.084184
