data_functionalizedCrystal
_audit_creation_method	'MofGen! by Chris Wilmer'
_symmetry_space_group_name_H-M	'P1'
_symmetry_Int_Tables_number	1
_symmetry_cell_setting	triclinic
loop_
_symmetry_equiv_pos_as_xyz
  x,y,z
_cell_length_a	19.188930
_cell_length_b	19.188940
_cell_length_c	10.868271
_cell_angle_alpha	90.005572
_cell_angle_beta	90.018197
_cell_angle_gamma	83.146747
loop_
_atom_site_label
_atom_site_type_symbol
_atom_site_fract_x
_atom_site_fract_y
_atom_site_fract_z
O1	O	-0.926148	-0.087168	-0.102719
O2	O	-0.426148	0.412832	0.397281
O3	O	-0.722837	-0.098902	-0.102635
O4	O	-0.222837	0.401098	0.397365
O5	O	-0.830356	0.008620	-0.102670
O6	O	-0.330356	0.508620	0.397330
O7	O	-0.818629	-0.194690	-0.102684
O8	O	-0.318629	0.305310	0.397316
O9	O	-0.830347	0.008625	0.101975
O10	O	-0.330347	0.508625	0.601975
O11	O	-0.722828	-0.098898	0.102010
O12	O	-0.222828	0.401102	0.602010
O13	O	-0.926139	-0.087164	0.101926
O14	O	-0.426139	0.412836	0.601926
Zn15	Zn	-0.824482	-0.093030	0.134460
Zn16	Zn	-0.324482	0.406970	0.634460
Zn17	Zn	-0.824494	-0.093035	-0.135169
Zn18	Zn	-0.324494	0.406965	0.364831
O19	O	-0.818620	-0.194686	0.101961
O20	O	-0.318620	0.305314	0.601961
C21	C	-0.696821	-0.098520	-0.000302
C22	C	-0.196821	0.401480	0.499698
C23	C	-0.619317	-0.097379	-0.000269
C24	C	-0.119317	0.402621	0.499731
C25	C	-0.829970	0.034633	-0.000348
C26	C	-0.329970	0.534633	0.499652
C27	C	-0.828827	0.112138	-0.000348
C28	C	-0.328827	0.612138	0.499652
C29	C	-0.952154	-0.087546	-0.000410
C30	C	-0.452154	0.412454	0.499590
C31	C	-1.029659	-0.088686	-0.000451
C32	C	-0.529659	0.411314	0.499549
C33	C	-0.574395	-0.160470	-0.000293
C34	C	-0.074395	0.339530	0.499707
C35	C	-0.501571	-0.159398	-0.000306
C36	C	-0.001571	0.340602	0.499694
C37	C	-0.473672	-0.095232	-0.000321
C38	C	0.026328	0.404768	0.499679
C39	C	-0.518604	-0.032133	-0.000290
C40	C	-0.018604	0.467867	0.499710
C41	C	-0.591426	-0.033207	-0.000264
C42	C	-0.091426	0.466793	0.499736
N43	N	-0.365693	-0.046187	-0.070016
N44	N	0.134307	0.453813	0.429984
N45	N	-0.296515	-0.045171	-0.070044
N46	N	0.203485	0.454829	0.429956
C47	C	-0.254264	-0.091994	-0.000396
C48	C	0.245736	0.408006	0.499604
N49	N	-0.283803	-0.139881	0.069265
N50	N	0.216197	0.360119	0.569265
N51	N	-0.352988	-0.140899	0.069286
N52	N	0.147012	0.359101	0.569286
C53	C	-0.394710	-0.094061	-0.000348
C54	C	0.105290	0.405939	0.499652
C55	C	-0.130377	-0.153927	-0.000432
C56	C	0.369623	0.346073	0.499568
C57	C	-0.057553	-0.152853	-0.000438
C58	C	0.442447	0.347147	0.499562
C59	C	-0.074587	-0.025586	-0.000434
C60	C	0.425413	0.474414	0.499566
C61	C	-0.147410	-0.026662	-0.000416
C62	C	0.352590	0.473338	0.499584
C63	C	-0.175301	-0.090835	-0.000421
C64	C	0.324699	0.409165	0.499579
C65	C	-0.819005	-0.220699	-0.000364
C66	C	-0.319005	0.279301	0.499636
C67	C	-0.820148	-0.298203	-0.000372
C68	C	-0.320148	0.201797	0.499628
C69	C	-0.820688	0.665399	0.111178
C70	C	-0.320688	1.165399	0.611178
C71	C	-0.821754	0.592575	0.111185
C72	C	-0.321754	1.092575	0.611185
C73	C	-0.822296	0.556153	-0.000366
C74	C	-0.322296	1.056153	0.499634
C75	C	-0.821753	0.592559	-0.111931
C76	C	-0.321753	1.092559	0.388069
C77	C	-0.820679	0.665381	-0.111934
C78	C	-0.320679	1.165381	0.388066
N79	N	-0.863716	0.447127	-0.083412
N80	N	-0.363716	0.947127	0.416588
N81	N	-0.864737	0.377949	-0.083402
N82	N	-0.364737	0.877949	0.416598
C83	C	-0.825530	0.336744	-0.000363
C84	C	-0.325530	0.836744	0.499637
N85	N	-0.785271	0.367330	0.082684
N86	N	-0.285271	0.867330	0.582684
N87	N	-0.784252	0.436515	0.082677
N88	N	-0.284252	0.936515	0.582677
C89	C	-0.823460	0.477189	-0.000375
C90	C	-0.323460	0.977189	0.499625
C91	C	-0.827224	0.221381	0.111202
C92	C	-0.327224	0.721381	0.611202
C93	C	-0.828287	0.148554	0.111204
C94	C	-0.328287	0.648554	0.611204
C95	C	-0.828292	0.148541	-0.111915
C96	C	-0.328292	0.648541	0.388085
C97	C	-0.827223	0.221365	-0.111914
C98	C	-0.327223	0.721365	0.388086
C99	C	-0.826692	0.257781	-0.000351
C100	C	-0.326692	0.757781	0.499649
N101	N	-0.824479	-0.093026	0.318474
N102	N	-0.324479	0.406974	0.818474
N103	N	-0.824502	-0.093034	-0.319183
N104	N	-0.324502	0.406966	0.180817
C105	C	-0.824490	-0.093034	0.569480
C106	C	-0.324490	0.406966	1.069480
C107	C	-0.824482	-0.093031	0.429802
C108	C	-0.324482	0.406969	0.929802
H109	H	-0.597098	-0.212724	-0.000299
H110	H	-0.097098	0.287276	0.499701
F111	F	-0.453753	-0.226550	-0.000328
F112	F	0.046247	0.273450	0.499672
F113	F	-0.009743	-0.220006	-0.000457
F114	F	0.490257	0.279994	0.499543
F115	F	-0.160063	-0.222224	-0.000428
F116	F	0.339937	0.277776	0.499572
F117	F	-0.044900	0.042704	-0.000438
F118	F	0.455100	0.542704	0.499562
F119	F	-0.822334	0.553830	0.229917
F120	F	-0.322334	1.053830	0.729917
F121	F	-0.195221	0.040488	-0.000397
F122	F	0.304779	0.540488	0.499603
F123	F	-0.826654	0.260105	-0.230643
F124	F	-0.326654	0.760105	0.269357
H125	H	-0.820255	0.695044	0.202021
H126	H	-0.320255	1.195044	0.702021
F127	F	-0.488911	0.036156	-0.000300
F128	F	0.011089	0.536156	0.499700
H129	H	-0.822191	0.562899	-0.202756
H130	H	-0.322191	1.062899	0.297244
F131	F	-0.820105	0.704120	-0.230667
F132	F	-0.320105	1.204120	0.269333
F133	F	-0.826657	0.260139	0.229934
F134	F	-0.326657	0.760139	0.729934
H135	H	-0.828724	0.118920	0.202046
H136	H	-0.328724	0.618920	0.702046
F137	F	-0.828846	0.109780	-0.230637
F138	F	-0.328846	0.609780	0.269363
H139	H	-0.628002	0.018171	-0.000246
H140	H	-0.128002	0.518171	0.499754
