data_functionalizedCrystal
_audit_creation_method	'MofGen! by Chris Wilmer'
_symmetry_space_group_name_H-M	'P1'
_symmetry_Int_Tables_number	1
_symmetry_cell_setting	triclinic
loop_
_symmetry_equiv_pos_as_xyz
  x,y,z
_cell_length_a	6.817900
_cell_length_b	23.753515
_cell_length_c	23.753023
_cell_angle_alpha	97.102631
_cell_angle_beta	100.067528
_cell_angle_gamma	100.076835
loop_
_atom_site_label
_atom_site_type_symbol
_atom_site_fract_x
_atom_site_fract_y
_atom_site_fract_z
V1	V	-3.971835	-0.079885	-0.178714
O2	O	-3.977675	0.003095	-0.174980
O3	O	-3.907107	-0.157683	-0.177812
O4	O	-3.907062	-0.078982	-0.256512
O5	O	-3.977721	-0.076150	-0.095735
V6	V	-4.459700	-0.069921	-0.168751
O7	O	-4.223568	-0.101741	-0.200571
O8	O	-4.658164	-0.048064	-0.146894
O9	O	-4.301222	0.007877	-0.169653
O10	O	-4.571257	-0.152901	-0.172485
O11	O	-4.571211	-0.073655	-0.251730
O12	O	-4.301267	-0.070823	-0.090953
C13	C	-3.748666	-0.176638	-0.175075
C14	C	-3.776921	-0.240241	-0.174856
C15	C	-3.748607	-0.076247	-0.275464
C16	C	-3.776823	-0.076024	-0.339066
C17	C	-3.871584	-0.506771	-0.121498
C18	C	-3.845057	-0.447008	-0.121699
O19	O	-3.808039	-0.408967	-0.077215
N20	N	-3.859116	-0.425504	-0.174230
C21	C	-3.899686	-0.463766	-0.226563
O22	O	-3.909207	-0.439988	-0.271263
C23	C	-3.926199	-0.523527	-0.226361
C24	C	-3.912156	-0.545028	-0.173828
C25	C	-3.857542	-0.528272	-0.068969
C26	C	-3.884071	-0.588030	-0.068768
C27	C	-3.924643	-0.626287	-0.121097
C28	C	-3.938685	-0.604786	-0.173627
C29	C	-3.966753	-0.561788	-0.278694
C30	C	-3.993264	-0.621552	-0.278487
C31	C	-3.979221	-0.643053	-0.225953
C32	C	-4.005787	-0.702802	-0.225755
N33	N	-3.991727	-0.724306	-0.173224
C34	C	-3.951155	-0.686048	-0.120895
C35	C	-3.844003	-0.338264	-0.226983
C36	C	-3.817506	-0.278504	-0.227186
C37	C	-3.762874	-0.261750	-0.122321
C38	C	-3.789387	-0.321511	-0.122120
C39	C	-3.829943	-0.359767	-0.174452
C40	C	-4.006873	-0.811546	-0.120478
C41	C	-4.033415	-0.871310	-0.120282
C42	C	-4.088034	-0.888059	-0.225146
C43	C	-4.061504	-0.828300	-0.225342
C44	C	-4.020915	-0.790044	-0.173003
O45	O	-4.042801	-0.740877	-0.270217
O46	O	-3.941615	-0.709835	-0.076202
C47	C	-3.979366	-0.127138	-0.741865
C48	C	-4.005911	-0.126937	-0.801628
O49	O	-4.042958	-0.171422	-0.839670
N50	N	-3.991837	-0.074406	-0.823131
C51	C	-3.951234	-0.022072	-0.784869
O52	O	-3.941702	0.022628	-0.808647
C53	C	-3.924705	-0.022274	-0.725108
C54	C	-3.938762	-0.074808	-0.703607
C55	C	-3.993424	-0.179668	-0.720364
C56	C	-3.966877	-0.179868	-0.660606
C57	C	-3.926272	-0.127539	-0.622348
C58	C	-3.912215	-0.075009	-0.643849
C59	C	-3.884117	0.030059	-0.686847
C60	C	-3.857589	0.029852	-0.627082
C61	C	-3.871647	-0.022682	-0.605582
C62	C	-3.845063	-0.022880	-0.545832
N63	N	-3.859138	-0.075411	-0.524329
C64	C	-3.899742	-0.127740	-0.562587
C65	C	-4.006955	-0.021653	-0.910372
C66	C	-4.033470	-0.021451	-0.970132
C67	C	-4.088149	-0.126316	-0.986887
C68	C	-4.061619	-0.126517	-0.927126
C69	C	-4.021029	-0.074184	-0.888869
C70	C	-3.843988	-0.128158	-0.437089
C71	C	-3.817428	-0.128353	-0.377324
C72	C	-3.762762	-0.023489	-0.360574
C73	C	-3.789309	-0.023293	-0.420334
C74	C	-3.829931	-0.075632	-0.458590
O75	O	-3.808020	0.021582	-0.507756
O76	O	-3.909294	-0.172434	-0.538801
C77	C	-4.123005	0.026830	-0.172388
C78	C	-4.073987	0.090432	-0.172611
C79	C	-4.123064	-0.073561	-0.071998
C80	C	-4.074087	-0.073781	-0.008395
H81	H	-3.973817	-0.780404	-0.077859
H82	H	-4.073002	-0.810795	-0.268120
O83	O	-3.883509	-0.375346	-0.277877
C84	C	-3.890181	-0.343544	-0.324278
H85	H	-3.926086	-0.299507	-0.310039
H86	H	-3.736562	-0.337182	-0.337901
C87	C	-4.012386	-0.430973	-0.393288
C88	C	-4.056501	-0.376888	-0.375800
H89	H	-4.114972	-0.451541	-0.425071
H90	H	-4.007884	-0.452399	-0.362027
H91	H	-3.884366	-0.425664	-0.404636
H92	H	-4.184506	-0.382198	-0.364446
H93	H	-4.061029	-0.355463	-0.407061
O94	O	-3.775520	-0.342460	-0.071122
C95	C	-3.617319	-0.373724	-0.065131
H96	H	-3.587698	-0.389026	-0.109713
H97	H	-3.473281	-0.344603	-0.037428
C98	C	-3.715476	-0.407752	0.018970
C99	C	-3.679106	-0.426549	-0.035787
H100	H	-3.753582	-0.440335	0.037073
H101	H	-3.822054	-0.386686	0.014936
H102	H	-3.595435	-0.383484	0.042049
H103	H	-3.799152	-0.450811	-0.058867
H104	H	-3.572549	-0.447620	-0.031756
H105	H	-3.978179	-0.544293	-0.321472
H106	H	-3.877060	-0.170777	-0.468231
O107	O	-4.127364	-0.925306	-0.275922
C108	C	-4.147803	-0.982662	-0.264474
H109	H	-4.065141	-0.982598	-0.218388
H110	H	-4.315825	-1.002601	-0.269429
C111	C	-4.156346	-1.018544	-0.364135
C112	C	-4.054805	-1.018466	-0.307532
H113	H	-4.098990	-1.040631	-0.390696
H114	H	-4.142584	-0.979903	-0.371849
H115	H	-4.296359	-1.035159	-0.368255
H116	H	-3.914801	-1.001845	-0.303410
H117	H	-4.068541	-1.057106	-0.299819
O118	O	-4.019988	-0.892128	-0.069214
C119	C	-4.168785	-0.875219	-0.040100
H120	H	-4.214588	-0.835141	-0.056069
H121	H	-4.307847	-0.911964	-0.049158
C122	C	-4.025343	-0.910472	0.045124
C123	C	-4.081587	-0.861246	0.025514
H124	H	-3.971562	-0.901856	0.085598
H125	H	-3.925100	-0.921866	0.025509
H126	H	-4.141241	-0.941089	0.037571
H127	H	-3.965686	-0.830633	0.033061
H128	H	-4.181809	-0.849846	0.045132
H129	H	-4.021993	0.021328	-0.987631
H130	H	-3.824499	-0.497128	-0.026354
H131	H	-3.828873	-0.171135	-0.359822
H132	H	-3.872650	0.072838	-0.704341
H133	H	-3.872626	-0.605530	-0.025989
O134	O	-3.817882	0.080658	-0.589858
C135	C	-3.629008	0.086416	-0.552024
H136	H	-3.591457	0.041773	-0.549418
H137	H	-3.505412	0.114276	-0.568982
C138	C	-3.686496	0.170208	-0.494511
C139	C	-3.640383	0.115377	-0.491307
H140	H	-3.693506	0.188075	-0.457058
H141	H	-3.813740	0.166330	-0.520002
H142	H	-3.583491	0.193417	-0.508645
H143	H	-3.743399	0.092166	-0.477181
H144	H	-3.513156	0.119251	-0.465812
H145	H	-3.729827	-0.230590	-0.079712
H146	H	-3.978339	-0.222647	-0.643107
H147	H	-3.828980	-0.261005	-0.269965
H148	H	-4.073067	-0.169295	-0.909625
H149	H	-4.026279	-0.652699	-0.321104
O150	O	-4.032759	-0.230556	-0.757441
C151	C	-4.039522	-0.276956	-0.725637
H152	H	-3.949781	-0.260722	-0.679567
H153	H	-4.204301	-0.295626	-0.724428
C154	C	-4.055766	-0.344292	-0.811347
C155	C	-3.945530	-0.324354	-0.754763
H156	H	-3.997797	-0.373530	-0.829314
H157	H	-4.051218	-0.313032	-0.832774
H158	H	-4.193075	-0.359846	-0.810331
H159	H	-3.808231	-0.308794	-0.755780
H160	H	-3.950053	-0.355613	-0.733336
H161	H	-4.121216	-0.168925	-1.018048
H162	H	-3.973887	0.020966	-0.879225
O163	O	-3.723392	0.027288	-0.323326
C164	C	-3.702936	0.015840	-0.265970
H165	H	-3.785621	-0.030246	-0.266030
H166	H	-3.534912	0.020793	-0.246044
C167	C	-3.694317	0.115503	-0.230082
C168	C	-3.795887	0.058901	-0.230155
H169	H	-3.751644	0.142066	-0.207988
H170	H	-3.708091	0.123217	-0.268724
H171	H	-3.554303	0.119622	-0.213479
H172	H	-3.935892	0.054781	-0.246765
H173	H	-3.782139	0.051187	-0.191515
H174	H	-3.777872	0.019485	-0.437840
