data_functionalizedCrystal
_audit_creation_method	'MofGen! by Chris Wilmer'
_symmetry_space_group_name_H-M	'P1'
_symmetry_Int_Tables_number	1
_symmetry_cell_setting	triclinic
loop_
_symmetry_equiv_pos_as_xyz
  x,y,z
_cell_length_a	12.645330
_cell_length_b	12.645331
_cell_length_c	18.215399
_cell_angle_alpha	90.023586
_cell_angle_beta	89.976970
_cell_angle_gamma	89.988054
loop_
_atom_site_label
_atom_site_type_symbol
_atom_site_fract_x
_atom_site_fract_y
_atom_site_fract_z
Zn1	Zn	-0.422213	-1.620702	-0.416215
Zn2	Zn	-0.599495	-1.620592	-0.293159
Zn3	Zn	-0.422228	-1.443425	-0.293154
Zn4	Zn	-0.599417	-1.443398	-0.416176
O5	O	-0.510838	-1.532029	-0.354676
O6	O	-0.445756	-1.769035	-0.399909
O7	O	-0.576019	-1.597056	-0.190174
O8	O	-0.273879	-1.466999	-0.309492
O9	O	-0.576004	-1.768954	-0.309501
O10	O	-0.273867	-1.597243	-0.399905
O11	O	-0.445782	-1.466892	-0.190170
O12	O	-0.445706	-1.295074	-0.309455
O13	O	-0.575871	-1.466953	-0.519165
O14	O	-0.575886	-1.295055	-0.399838
O15	O	-0.445680	-1.597217	-0.519194
O16	O	-0.747832	-1.597030	-0.309463
O17	O	-0.747774	-1.466846	-0.399843
C18	C	-0.510790	-1.256600	-0.354642
C19	C	-0.510795	-1.138770	-0.354645
C20	C	-0.428509	-0.971183	-0.298091
C21	C	-0.428732	-1.093742	-0.297847
C22	C	-0.622465	-1.094251	-0.333460
C23	C	-0.622005	-0.971652	-0.333068
C24	C	-0.482444	-0.971615	-0.432587
C25	C	-0.479959	-1.094221	-0.432159
C26	C	-0.786268	-1.531952	-0.354666
C27	C	-0.904098	-1.532016	-0.354686
C28	C	-1.071670	-1.450455	-0.411719
C29	C	-0.949110	-1.450038	-0.411536
C30	C	-0.948685	-1.501776	-0.277126
C31	C	-1.071284	-1.501278	-0.277472
C32	C	-1.071199	-1.644316	-0.374583
C33	C	-0.948593	-1.643627	-0.376279
C34	C	-0.234333	-1.532136	-0.354702
C35	C	-0.116503	-1.532181	-0.354714
C36	C	-0.510765	-1.532094	-0.546629
C37	C	-0.510734	-1.532122	-0.628428
C38	C	-0.510866	-0.808535	-0.354699
C39	C	-0.510825	-0.926365	-0.354680
C40	C	-0.442880	-1.599975	-0.816638
C41	C	-0.442849	-1.599987	-0.893497
C42	C	-0.578424	-1.464344	-0.893456
C43	C	-0.578449	-1.464326	-0.816598
C44	C	-0.510678	-1.532148	-0.778191
C45	C	-0.510623	-1.532178	-0.931908
C46	C	-0.510590	-1.532191	-1.015241
C47	C	-0.510710	-1.532134	-0.694852
C48	C	-0.510834	-1.532026	-0.163470
C49	C	-0.510567	-1.532204	-0.081671
H50	H	-0.447059	-0.940339	-0.240699
H51	H	-0.447495	-1.123024	-0.240118
H52	H	-0.542400	-0.942633	-0.474750
Br53	Br	-0.662121	-0.923908	-0.238142
Br54	Br	-0.727692	-0.922231	-0.398764
Br55	Br	-0.663285	-1.145346	-0.239556
H56	H	-0.387639	-1.655217	-0.924796
Br57	Br	-0.290060	-0.922076	-0.319979
Br58	Br	-0.349082	-0.920121	-0.464695
H59	H	-0.633657	-1.409086	-0.785294
Br60	Br	-0.350905	-1.692015	-0.764516
H61	H	-0.685441	-1.123418	-0.373385
H62	H	-0.345924	-1.123842	-0.311127
H63	H	-0.397783	-1.123324	-0.448134
H64	H	-1.100945	-1.558221	-0.233550
H65	H	-0.535547	-1.124875	-0.476580
H66	H	-0.919531	-1.559415	-0.233491
H67	H	-0.918961	-1.468957	-0.469046
Br68	Br	-0.670397	-1.372308	-0.945584
Br69	Br	-1.122616	-1.690296	-0.467247
Br70	Br	-1.119542	-1.745806	-0.305394
Br71	Br	-1.120700	-1.481691	-0.507892
Br72	Br	-1.123185	-1.312766	-0.390078
Br73	Br	-0.897658	-1.366575	-0.248562
Br74	Br	-0.900359	-1.311478	-0.389600
H75	H	-0.919447	-1.666432	-0.433359
Br76	Br	-1.119096	-1.364656	-0.249417
Br77	Br	-0.897506	-1.750468	-0.312124
