data_functionalizedCrystal
_audit_creation_method	'MofGen! by Chris Wilmer'
_symmetry_space_group_name_H-M	'P1'
_symmetry_Int_Tables_number	1
_symmetry_cell_setting	triclinic
loop_
_symmetry_equiv_pos_as_xyz
  x,y,z
_cell_length_a	29.839134
_cell_length_b	29.839131
_cell_length_c	16.625539
_cell_angle_alpha	90.032094
_cell_angle_beta	90.032649
_cell_angle_gamma	90.034165
loop_
_atom_site_label
_atom_site_type_symbol
_atom_site_fract_x
_atom_site_fract_y
_atom_site_fract_z
Zn1	Zn	0.686757	-0.178939	0.456148
Zn2	Zn	1.186757	0.321061	0.956148
Zn3	Zn	0.686678	-0.254070	0.321306
Zn4	Zn	1.186678	0.245930	0.821306
Zn5	Zn	0.611628	-0.178946	0.321300
Zn6	Zn	1.111628	0.321054	0.821300
Zn7	Zn	0.611587	-0.254034	0.456068
Zn8	Zn	1.111587	0.245966	0.956068
O9	O	0.649163	-0.216497	0.388705
O10	O	1.149163	0.283503	0.888705
O11	O	0.749613	-0.188918	0.438297
O12	O	1.249613	0.311082	0.938297
O13	O	0.676707	-0.244123	0.208473
O14	O	1.176707	0.255877	0.708473
O15	O	0.621645	-0.116078	0.339219
O16	O	1.121645	0.383922	0.839219
O17	O	0.749555	-0.244117	0.339229
O18	O	1.249555	0.255883	0.839229
O19	O	0.676841	-0.116073	0.438291
O20	O	1.176841	0.383927	0.938291
O21	O	0.621568	-0.188929	0.208468
O22	O	1.121568	0.311071	0.708468
O23	O	0.548756	-0.188893	0.339141
O24	O	1.048756	0.311107	0.839141
O25	O	0.621574	-0.244054	0.568911
O26	O	1.121574	0.255946	1.068911
O27	O	0.548726	-0.244060	0.438154
O28	O	1.048726	0.255940	0.938154
O29	O	0.676801	-0.188883	0.568970
O30	O	1.176801	0.311117	1.068970
O31	O	0.676667	-0.316933	0.339152
O32	O	1.176667	0.183067	0.839152
O33	O	0.621498	-0.316906	0.438160
O34	O	1.121498	0.183094	0.938160
C35	C	0.532440	-0.216474	0.388639
C36	C	1.032440	0.283526	0.888639
C37	C	0.482506	-0.216475	0.388629
C38	C	0.982506	0.283525	0.888629
C39	C	0.125922	-0.187729	0.337255
C40	C	0.625922	0.312271	0.837255
C41	C	0.313595	-0.187717	0.337206
C42	C	0.813595	0.312283	0.837206
O43	O	0.337862	-0.163238	0.293450
O44	O	0.837862	0.336762	0.793450
N45	N	0.337060	-0.216482	0.388670
N46	N	0.837060	0.283518	0.888670
C47	C	0.313605	-0.245250	0.440154
C48	C	0.813605	0.254750	0.940154
O49	O	0.337870	-0.269713	0.483932
O50	O	0.837870	0.230287	0.983932
C51	C	0.125933	-0.245260	0.440206
C52	C	0.625933	0.254740	0.940206
C53	C	0.102469	-0.216497	0.388733
C54	C	0.602469	0.283503	0.888733
C55	C	0.102458	-0.158967	0.285786
C56	C	0.602458	0.341033	0.785786
C57	C	0.055543	-0.158973	0.285796
C58	C	0.555543	0.341027	0.785796
C59	C	0.032091	-0.187740	0.337274
C60	C	0.532091	0.312260	0.837274
C61	C	0.055554	-0.216502	0.388742
C62	C	0.555554	0.283498	0.888742
C63	C	0.102478	-0.274026	0.491694
C64	C	0.602478	0.225974	0.991694
C65	C	0.055557	-0.274025	0.491704
C66	C	0.555557	0.225975	0.991704
C67	C	0.032094	-0.245261	0.440230
C68	C	0.532094	0.254739	0.940230
C69	C	-0.014814	-0.245274	0.440230
C70	C	0.485186	0.254726	0.940230
N71	N	-0.038279	-0.216509	0.388766
N72	N	0.461721	0.283491	0.888766
C73	C	-0.014827	-0.187742	0.337288
C74	C	0.485173	0.312258	0.837288
C75	C	0.412135	-0.245244	0.440122
C76	C	0.912135	0.254756	0.940122
C77	C	0.459053	-0.245242	0.440108
C78	C	0.959053	0.254758	0.940108
C79	C	0.459040	-0.187707	0.337160
C80	C	0.959040	0.312293	0.837160
C81	C	0.412121	-0.187712	0.337171
C82	C	0.912121	0.312288	0.837171
C83	C	0.388670	-0.216478	0.388657
C84	C	0.888670	0.283522	0.888657
C85	C	-0.113353	-0.187755	0.337311
C86	C	0.386647	0.312245	0.837311
C87	C	-0.160273	-0.187764	0.337323
C88	C	0.339727	0.312236	0.837323
C89	C	-0.160255	-0.245297	0.440273
C90	C	0.339745	0.254703	0.940273
C91	C	-0.113340	-0.245289	0.440259
C92	C	0.386660	0.254711	0.940259
C93	C	-0.089890	-0.216515	0.388775
C94	C	0.410110	0.283485	0.888775
O95	O	-0.039110	-0.269736	0.483970
O96	O	0.460890	0.230264	0.983970
O97	O	-0.039100	-0.163275	0.293529
O98	O	0.460900	0.336725	0.793529
C99	C	0.172837	-0.187724	0.337245
C100	C	0.672837	0.312276	0.837245
C101	C	0.196300	-0.216486	0.388713
C102	C	0.696300	0.283514	0.888713
C103	C	0.172848	-0.245253	0.440192
C104	C	0.672848	0.254747	0.940192
C105	C	0.243218	-0.216484	0.388700
C106	C	0.743218	0.283516	0.888700
C107	C	0.266670	-0.187717	0.337221
C108	C	0.766670	0.312283	0.837221
C109	C	0.243205	-0.158952	0.285757
C110	C	0.743205	0.341048	0.785757
C111	C	0.196289	-0.158957	0.285767
C112	C	0.696289	0.341043	0.785767
C113	C	0.196314	-0.274019	0.491656
C114	C	0.696314	0.225981	0.991656
C115	C	0.243229	-0.274011	0.491642
C116	C	0.743229	0.225989	0.991642
C117	C	0.266682	-0.245244	0.440163
C118	C	0.766682	0.254756	0.940163
C119	C	0.649081	-0.333220	0.388665
C120	C	1.149081	0.166780	0.888665
C121	C	0.649088	-0.383154	0.388675
C122	C	1.149088	0.116846	0.888675
C123	C	0.677941	-0.692799	0.337227
C124	C	1.177941	-0.192799	0.837227
C125	C	0.677997	-0.880472	0.337258
C126	C	1.177997	-0.380472	0.837258
O127	O	0.702464	-0.904738	0.293484
O128	O	1.202464	-0.404738	0.793484
N129	N	0.649256	-0.903939	0.388766
N130	N	1.149256	-0.403939	0.888766
C131	C	0.620501	-0.880485	0.440274
C132	C	1.120501	-0.380485	0.940274
O133	O	0.596060	-0.904752	0.484091
O134	O	1.096060	-0.404752	0.984091
C135	C	0.620448	-0.692813	0.440246
C136	C	1.120448	-0.192813	0.940246
C137	C	0.649188	-0.669348	0.388729
C138	C	1.149188	-0.169348	0.888729
C139	C	0.706679	-0.669334	0.285715
C140	C	1.206679	-0.169334	0.785715
C141	C	0.706663	-0.622419	0.285704
C142	C	1.206663	-0.122419	0.785704
C143	C	0.677909	-0.598968	0.337206
C144	C	1.177909	-0.098968	0.837206
C145	C	0.649172	-0.622433	0.388718
C146	C	1.149172	-0.122433	0.888718
C147	C	0.591696	-0.669360	0.491757
C148	C	1.091696	-0.169360	0.991757
C149	C	0.591686	-0.622439	0.491747
C150	C	1.091686	-0.122439	0.991747
C151	C	0.620426	-0.598974	0.440230
C152	C	1.120426	-0.098974	0.940230
C153	C	0.620402	-0.552067	0.440210
C154	C	1.120402	-0.052067	0.940210
N155	N	0.649143	-0.528600	0.388702
N156	N	1.149143	-0.028600	0.888702
C157	C	0.677897	-0.552050	0.337200
C158	C	1.177897	-0.052050	0.837200
C159	C	0.620530	-0.979016	0.440284
C160	C	1.120530	-0.479016	0.940284
C161	C	0.620543	-1.025934	0.440290
C162	C	1.120543	-0.525934	0.940290
C163	C	0.678039	-1.025917	0.337275
C164	C	1.178039	-0.525917	0.837275
C165	C	0.678024	-0.978999	0.337266
C166	C	1.178024	-0.478999	0.837266
C167	C	0.649271	-0.955549	0.388776
C168	C	1.149271	-0.455549	0.888776
C169	C	0.677861	-0.453524	0.337182
C170	C	1.177861	0.046476	0.837182
C171	C	0.677841	-0.406605	0.337173
C172	C	1.177841	0.093395	0.837173
C173	C	0.620347	-0.406626	0.440191
C174	C	1.120347	0.093374	0.940191
C175	C	0.620365	-0.453541	0.440196
C176	C	1.120365	0.046459	0.940196
C177	C	0.649125	-0.476989	0.388689
C178	C	1.149125	0.023011	0.888689
O179	O	0.595951	-0.527772	0.483967
O180	O	1.095951	-0.027772	0.983967
O181	O	0.702342	-0.527776	0.293402
O182	O	1.202342	-0.027776	0.793402
C183	C	0.677957	-0.739714	0.337237
C184	C	1.177957	-0.239714	0.837237
C185	C	0.649219	-0.763179	0.388750
C186	C	1.149219	-0.263179	0.888750
C187	C	0.620466	-0.739729	0.440252
C188	C	1.120466	-0.239729	0.940252
C189	C	0.649232	-0.810097	0.388756
C190	C	1.149232	-0.310097	0.888756
C191	C	0.677985	-0.833548	0.337254
C192	C	1.177985	-0.333548	0.837254
C193	C	0.706726	-0.810081	0.285746
C194	C	1.206726	-0.310081	0.785746
C195	C	0.706711	-0.763165	0.285736
C196	C	1.206711	-0.263165	0.785736
C197	C	0.591725	-0.763196	0.491759
C198	C	1.091725	-0.263196	0.991759
C199	C	0.591743	-0.810111	0.491765
C200	C	1.091743	-0.310111	0.991765
C201	C	0.620496	-0.833562	0.440263
C202	C	1.120496	-0.333562	0.940263
C203	C	0.766341	-0.216521	0.388773
C204	C	1.266341	0.283479	0.888773
C205	C	0.816275	-0.216531	0.388802
C206	C	1.316275	0.283469	0.888802
C207	C	0.649192	-0.216464	0.599014
C208	C	1.149192	0.283536	1.099014
C209	C	0.649204	-0.216450	0.688636
C210	C	1.149204	0.283550	1.188636
C211	C	0.649256	-0.099319	0.388763
C212	C	1.149256	0.400681	0.888763
C213	C	0.649296	-0.049384	0.388788
C214	C	1.149296	0.450616	0.888788
C215	C	0.649159	-0.216498	0.179215
C216	C	1.149159	0.283502	0.679215
C217	C	0.649234	-0.216386	0.089594
C218	C	1.149234	0.283614	0.589594
C219	C	0.649225	-0.216399	1.016811
C220	C	1.149225	0.283601	1.516811
C221	C	0.649218	-0.216415	0.925503
C222	C	1.149218	0.283585	1.425503
C223	C	0.649215	-0.216425	0.852726
C224	C	1.149215	0.283575	1.352726
C225	C	0.649207	-0.216439	0.761412
C226	C	1.149207	0.283561	1.261412
H227	H	0.393046	-0.268671	0.482050
H228	H	0.893046	0.231329	0.982050
F229	F	-0.088367	-0.275908	0.495034
F230	F	0.411633	0.224092	0.995034
H231	H	0.262329	-0.297439	0.533556
H232	H	0.762329	0.202561	1.033556
H233	H	0.177190	-0.135534	0.243852
H234	H	0.677190	0.364466	0.743852
H235	H	0.568336	-0.829212	0.533716
H236	H	1.068336	-0.329212	1.033716
H237	H	0.596935	-0.387525	0.482121
H238	H	1.096935	0.112475	0.982121
F239	F	0.737301	-0.738198	0.230906
F240	F	1.237301	-0.238198	0.730906
H241	H	0.568272	-0.603349	0.533695
H242	H	1.068272	-0.103349	1.033695
F243	F	0.030577	-0.128354	0.231017
F244	F	0.530577	0.371646	0.731017
F245	F	0.561111	-0.694323	0.546597
F246	F	1.061111	-0.194323	1.046597
F247	F	0.268173	-0.128337	0.230967
F248	F	0.768173	0.371663	0.730967
H249	H	0.121548	-0.135539	0.243866
H250	H	0.621548	0.364461	0.743866
F251	F	0.387154	-0.157097	0.282387
F252	F	0.887154	0.342903	0.782387
F253	F	0.589949	-1.050902	0.495112
F254	F	1.089949	-0.550902	0.995112
H255	H	0.596964	-0.472647	0.482148
H256	H	1.096964	0.027353	0.982148
H257	H	-0.179358	-0.268720	0.482183
H258	H	0.320642	0.231280	0.982183
F259	F	0.737257	-0.597452	0.230881
F260	F	1.237257	-0.097452	0.730881
H261	H	0.177224	-0.297444	0.533577
H262	H	0.677224	0.202556	1.033577
H263	H	0.701244	-0.387501	0.295219
H264	H	1.201244	0.112499	0.795219
H265	H	0.701282	-0.472611	0.295241
H266	H	1.201282	0.027389	0.795241
H267	H	0.036465	-0.297450	0.533634
H268	H	0.536465	0.202550	1.033634
H269	H	0.730137	-0.829182	0.243809
H270	H	1.230137	-0.329182	0.743809
H271	H	0.730096	-0.688423	0.243775
H272	H	1.230096	-0.188423	0.743775
H273	H	0.568311	-0.744106	0.533700
H274	H	1.068311	-0.244106	1.033700
H275	H	0.478153	-0.268669	0.482014
H276	H	0.978153	0.231331	0.982014
F277	F	-0.185241	-0.157149	0.282535
F278	F	0.314759	0.342851	0.782535
F279	F	0.127439	-0.304641	0.546480
F280	F	0.627439	0.195359	1.046480
H281	H	-0.094266	-0.164322	0.295392
H282	H	0.405734	0.335678	0.795392
F283	F	0.708612	-0.954030	0.282435
F284	F	1.208612	-0.454030	0.782435
H285	H	0.701451	-1.045019	0.295340
H286	H	1.201451	-0.545019	0.795340
H287	H	0.478143	-0.164285	0.295244
H288	H	0.978143	0.335715	0.795244
F289	F	0.589925	-0.954065	0.495111
F290	F	1.089925	-0.454065	0.995111
