data_functionalizedCrystal
_audit_creation_method	'MofGen! by Chris Wilmer'
_symmetry_space_group_name_H-M	'P1'
_symmetry_Int_Tables_number	1
_symmetry_cell_setting	triclinic
loop_
_symmetry_equiv_pos_as_xyz
  x,y,z
_cell_length_a	13.101039
_cell_length_b	14.853567
_cell_length_c	14.853567
_cell_angle_alpha	96.365070
_cell_angle_beta	86.629197
_cell_angle_gamma	86.640591
loop_
_atom_site_label
_atom_site_type_symbol
_atom_site_fract_x
_atom_site_fract_y
_atom_site_fract_z
O1	O	0.085135	-1.201313	0.112739
O2	O	0.585135	-0.701313	0.612739
O3	O	0.085152	-0.938855	0.126760
O4	O	0.585152	-0.438855	0.626760
O5	O	0.085146	-1.077095	-0.011481
O6	O	0.585146	-0.577095	0.488519
O7	O	0.085141	-1.063073	0.250979
O8	O	0.585141	-0.563073	0.750979
O9	O	-0.085283	-1.067176	-0.001546
O10	O	0.414717	-0.567176	0.498454
O11	O	-0.085278	-0.928936	0.136695
O12	O	0.414722	-0.428936	0.636695
O13	O	-0.085294	-1.191395	0.122674
O14	O	0.414706	-0.691395	0.622674
Zn15	Zn	-0.112345	-1.058591	0.131262
Zn16	Zn	0.387655	-0.558591	0.631262
Zn17	Zn	0.112203	-1.071659	0.118172
Zn18	Zn	0.612203	-0.571659	0.618172
O19	O	-0.085289	-1.053155	0.260914
O20	O	0.414711	-0.553155	0.760914
C21	C	-0.000061	-0.900307	0.131092
C22	C	0.499939	-0.400307	0.631092
C23	C	-0.000054	-0.800224	0.129187
C24	C	0.499946	-0.300224	0.629187
C25	C	-0.000066	-1.071501	-0.040102
C26	C	0.499934	-0.571501	0.459898
C27	C	-0.000057	-1.069597	-0.140186
C28	C	0.499943	-0.569597	0.359814
N29	N	-0.265594	-1.049679	0.140195
N30	N	0.234406	-0.549679	0.640195
C31	C	-0.474636	-1.037554	0.152356
C32	C	0.025364	-0.537554	0.652356
C33	C	-0.525514	-1.092700	0.097073
C34	C	-0.025514	-0.592700	0.597073
C35	C	-0.641832	-1.085954	0.103840
C36	C	-0.141832	-0.585954	0.603840
C37	C	-0.358307	-1.044299	0.145591
C38	C	0.141693	-0.544299	0.645591
N39	N	0.265451	-1.080578	0.109232
N40	N	0.765451	-0.580578	0.609232
C41	C	-0.000080	-1.229943	0.118342
C42	C	0.499920	-0.729943	0.618342
C43	C	-0.000080	-1.330027	0.120246
C44	C	0.499920	-0.830027	0.620246
C45	C	-0.000075	-0.387689	0.039023
C46	C	0.499925	0.112311	0.539023
C47	C	-0.000078	-0.366408	0.203256
C48	C	0.499922	0.133592	0.703256
C49	C	-0.000074	-0.460441	0.205046
C50	C	0.499926	0.039559	0.705046
C51	C	-0.000070	-0.518104	0.123823
C52	C	0.499930	-0.018104	0.623823
C53	C	-0.000069	-0.481732	0.040810
C54	C	0.499931	0.018268	0.540810
C55	C	-0.000065	-0.496821	0.288057
C56	C	0.499935	0.003179	0.788057
C57	C	-0.000061	-0.590860	0.289850
C58	C	0.499939	-0.090860	0.789850
C59	C	-0.000064	-0.648524	0.208626
C60	C	0.499936	-0.148524	0.708626
C61	C	-0.000064	-0.612147	0.125610
C62	C	0.499936	-0.112147	0.625610
C63	C	-0.000059	-0.669809	0.044387
C64	C	0.499941	-0.169809	0.544387
C65	C	-0.000067	-0.633433	-0.038629
C66	C	0.499933	-0.133433	0.461371
C67	C	-0.000072	-0.539395	-0.040413
C68	C	0.499928	-0.039395	0.459587
C69	C	-0.000058	-0.742562	0.210410
C70	C	0.499942	-0.242562	0.710410
C71	C	-0.000053	-0.763852	0.046175
C72	C	0.499947	-0.263852	0.546175
C73	C	-0.000070	-0.979431	-0.552719
C74	C	0.499930	-0.479431	-0.052719
C75	C	-0.000081	-1.143663	-0.573999
C76	C	0.499919	-0.643663	-0.073999
C77	C	-0.000075	-1.145453	-0.479966
C78	C	0.499925	-0.645453	0.020034
C79	C	-0.000068	-1.064231	-0.422305
C80	C	0.499932	-0.564231	0.077695
C81	C	-0.000068	-0.981219	-0.458677
C82	C	0.499932	-0.481219	0.041323
C83	C	-0.000086	-1.228464	-0.443586
C84	C	0.499914	-0.728464	0.056414
C85	C	-0.000081	-1.230258	-0.349548
C86	C	0.499919	-0.730258	0.150452
C87	C	-0.000067	-1.149035	-0.291885
C88	C	0.499933	-0.649035	0.208115
C89	C	-0.000065	-1.066019	-0.328262
C90	C	0.499935	-0.566019	0.171738
C91	C	-0.000059	-0.984797	-0.270601
C92	C	0.499941	-0.484797	0.229399
C93	C	-0.000050	-0.901780	-0.306977
C94	C	0.499950	-0.401780	0.193023
C95	C	-0.000054	-0.899996	-0.401014
C96	C	0.499946	-0.399996	0.098986
C97	C	-0.000063	-1.150819	-0.197848
C98	C	0.499937	-0.650819	0.302152
C99	C	-0.000056	-0.986585	-0.176558
C100	C	0.499944	-0.486585	0.323442
C101	C	-0.000075	-1.058749	0.289536
C102	C	0.499925	-0.558749	0.789536
C103	C	-0.000077	-1.060653	0.389619
C104	C	0.499923	-0.560653	0.889619
H105	H	-0.481713	-1.144980	0.044662
H106	H	0.018287	-0.644980	0.544662
H107	H	-0.000101	-1.294590	-0.490540
H108	H	0.499899	-0.794590	0.009460
H109	H	-0.518431	-0.985278	0.204765
H110	H	-0.018431	-0.485278	0.704765
H111	H	-0.000056	-0.680394	-0.104761
H112	H	0.499944	-0.180394	0.395239
H113	H	-0.000054	-0.620469	0.357447
H114	H	0.499946	-0.120469	0.857447
Cl115	Cl	-0.000089	-0.341961	-0.065335
Cl116	Cl	0.499911	0.158039	0.434665
Cl117	Cl	-0.000056	-0.836334	-0.055940
Cl118	Cl	0.499944	-0.336334	0.444060
H119	H	-0.000077	-1.218410	-0.168234
H120	H	0.499923	-0.718410	0.331766
H121	H	-0.000102	-0.509768	-0.107999
H122	H	0.499898	-0.009768	0.392001
Cl123	Cl	-0.000069	-0.293919	0.305358
Cl124	Cl	0.499931	0.206081	0.805358
H125	H	-0.000058	-0.449867	0.354183
H126	H	0.499942	0.050133	0.854183
Cl127	Cl	-0.000049	-0.875073	-0.598447
Cl128	Cl	0.499951	-0.375073	-0.098447
Cl129	Cl	-0.000075	-1.334620	-0.303827
Cl130	Cl	0.499925	-0.834620	0.196173
H131	H	-0.000054	-0.772175	0.278001
H132	H	0.499946	-0.272175	0.778001
Cl133	Cl	-0.000050	-0.799676	-0.234477
Cl134	Cl	0.499950	-0.299676	0.265523
Cl135	Cl	-0.000039	-0.795643	-0.446750
Cl136	Cl	0.499961	-0.295643	0.053250
H137	H	-0.000046	-0.920443	-0.129615
H138	H	0.499954	-0.420443	0.370385
H139	H	-0.000094	-1.209790	-0.620952
H140	H	0.499906	-0.709790	-0.120952
