data_functionalizedCrystal
_audit_creation_method	'MofGen! by Chris Wilmer'
_symmetry_space_group_name_H-M	'P1'
_symmetry_Int_Tables_number	1
_symmetry_cell_setting	triclinic
loop_
_symmetry_equiv_pos_as_xyz
  x,y,z
_cell_length_a	18.101398
_cell_length_b	18.101395
_cell_length_c	16.625539
_cell_angle_alpha	90.027648
_cell_angle_beta	90.015931
_cell_angle_gamma	90.029256
loop_
_atom_site_label
_atom_site_type_symbol
_atom_site_fract_x
_atom_site_fract_y
_atom_site_fract_z
Zn1	Zn	1.132133	-0.294865	0.455813
Zn2	Zn	1.382133	-0.044865	0.705813
Zn3	Zn	1.632133	0.205135	0.955813
Zn4	Zn	1.882133	0.455135	1.205813
Zn5	Zn	1.132025	-0.418714	0.320982
Zn6	Zn	1.382025	-0.168714	0.570982
Zn7	Zn	1.632025	0.081286	0.820982
Zn8	Zn	1.882025	0.331286	1.070982
Zn9	Zn	1.008288	-0.294887	0.321005
Zn10	Zn	1.258288	-0.044887	0.571005
Zn11	Zn	1.508288	0.205113	0.821005
Zn12	Zn	1.758288	0.455113	1.071005
Zn13	Zn	1.008242	-0.418665	0.455783
Zn14	Zn	1.258242	-0.168665	0.705783
Zn15	Zn	1.508242	0.081335	0.955783
Zn16	Zn	1.758242	0.331335	1.205783
O17	O	1.070172	-0.356783	0.388396
O18	O	1.320172	-0.106783	0.638396
O19	O	1.570172	0.143217	0.888396
O20	O	1.820172	0.393217	1.138396
O21	O	1.235751	-0.311305	0.437931
O22	O	1.485751	-0.061305	0.687931
O23	O	1.735751	0.188695	0.937931
O24	O	1.985751	0.438695	1.187931
O25	O	1.115585	-0.402318	0.208153
O26	O	1.365585	-0.152318	0.458153
O27	O	1.615585	0.097682	0.708153
O28	O	1.865585	0.347682	0.958153
O29	O	1.024780	-0.191251	0.338910
O30	O	1.274780	0.058749	0.588910
O31	O	1.524780	0.308749	0.838910
O32	O	1.774780	0.558749	1.088910
O33	O	1.235672	-0.402296	0.338871
O34	O	1.485672	-0.152296	0.588871
O35	O	1.735672	0.097704	0.838871
O36	O	1.985672	0.347704	1.088871
O37	O	1.115769	-0.191235	0.437953
O38	O	1.365769	0.058765	0.687953
O39	O	1.615769	0.308765	0.937953
O40	O	1.865769	0.558765	1.187953
O41	O	1.024676	-0.311342	0.208169
O42	O	1.274676	-0.061342	0.458169
O43	O	1.524676	0.188658	0.708169
O44	O	1.774676	0.438658	0.958169
O45	O	0.904649	-0.311295	0.338880
O46	O	1.154649	-0.061295	0.588880
O47	O	1.404649	0.188705	0.838880
O48	O	1.654649	0.438705	1.088880
O49	O	1.024702	-0.402213	0.568619
O50	O	1.274702	-0.152213	0.818619
O51	O	1.524702	0.097787	1.068619
O52	O	1.774702	0.347787	1.318619
O53	O	0.904615	-0.402234	0.437901
O54	O	1.154615	-0.152234	0.687901
O55	O	1.404615	0.097766	0.937901
O56	O	1.654615	0.347766	1.187901
O57	O	1.115724	-0.311258	0.568642
O58	O	1.365724	-0.061258	0.818642
O59	O	1.615724	0.188742	1.068642
O60	O	1.865724	0.438742	1.318642
O61	O	1.115541	-0.522340	0.338841
O62	O	1.365541	-0.272340	0.588841
O63	O	1.615541	-0.022340	0.838841
O64	O	1.865541	0.227660	1.088841
O65	O	1.024598	-0.522304	0.437879
O66	O	1.274598	-0.272304	0.687879
O67	O	1.524598	-0.022304	0.937879
O68	O	1.774598	0.227696	1.187879
C69	C	0.877761	-0.356762	0.388390
C70	C	1.127761	-0.106762	0.638390
C71	C	1.377761	0.143238	0.888390
C72	C	1.627761	0.393238	1.138390
C73	C	0.795447	-0.356771	0.388407
C74	C	1.045447	-0.106771	0.638407
C75	C	1.295447	0.143229	0.888407
C76	C	1.545447	0.393229	1.138407
C77	C	0.644739	-0.356785	0.388406
C78	C	0.894739	-0.106785	0.638406
C79	C	1.144739	0.143215	0.888406
C80	C	1.394739	0.393215	1.138406
C81	C	0.613389	-0.414090	0.450610
C82	C	0.863389	-0.164090	0.700610
C83	C	1.113389	0.085910	0.950610
C84	C	1.363389	0.335910	1.200610
C85	C	0.527770	-0.414322	0.450426
C86	C	0.777770	-0.164322	0.700426
C87	C	1.027770	0.085678	0.950426
C88	C	1.277770	0.335678	1.200426
C89	C	0.496356	-0.356799	0.388406
C90	C	0.746356	-0.106799	0.638406
C91	C	0.996356	0.143201	0.888406
C92	C	1.246356	0.393201	1.138406
C93	C	0.527407	-0.377627	0.303328
C94	C	0.777407	-0.127627	0.553328
C95	C	1.027407	0.122373	0.803328
C96	C	1.277407	0.372373	1.053328
C97	C	0.613052	-0.378035	0.303687
C98	C	0.863052	-0.128035	0.553687
C99	C	1.113052	0.121965	0.803687
C100	C	1.363052	0.371965	1.053687
C101	C	0.613218	-0.278510	0.410536
C102	C	0.863218	-0.028510	0.660536
C103	C	1.113218	0.221490	0.910536
C104	C	1.363218	0.471490	1.160536
C105	C	0.527568	-0.278939	0.412410
C106	C	0.777568	-0.028939	0.662410
C107	C	1.027568	0.221061	0.912410
C108	C	1.277568	0.471061	1.162410
C109	C	0.412497	-0.356805	0.388400
C110	C	0.662497	-0.106805	0.638400
C111	C	0.912497	0.143195	0.888400
C112	C	1.162497	0.393195	1.138400
C113	C	0.728598	-0.356781	0.388405
C114	C	0.978598	-0.106781	0.638405
C115	C	1.228598	0.143219	0.888405
C116	C	1.478598	0.393219	1.138405
C117	C	1.070073	-0.549193	0.388372
C118	C	1.320073	-0.299193	0.638372
C119	C	1.570073	-0.049193	0.888372
C120	C	1.820073	0.200807	1.138372
C121	C	1.070098	-0.631507	0.388389
C122	C	1.320098	-0.381507	0.638389
C123	C	1.570098	-0.131507	0.888389
C124	C	1.820098	0.118493	1.138389
C125	C	1.070261	-0.930598	0.388432
C126	C	1.320261	-0.680598	0.638432
C127	C	1.570261	-0.430598	0.888432
C128	C	1.820261	-0.180598	1.138432
C129	C	1.013175	-0.899281	0.450899
C130	C	1.263175	-0.649281	0.700899
C131	C	1.513175	-0.399281	0.950899
C132	C	1.763175	-0.149281	1.200899
C133	C	1.012903	-0.813663	0.450703
C134	C	1.262903	-0.563663	0.700703
C135	C	1.512903	-0.313663	0.950703
C136	C	1.762903	-0.063663	1.200703
C137	C	1.070180	-0.782216	0.388411
C138	C	1.320180	-0.532216	0.638411
C139	C	1.570180	-0.282216	0.888411
C140	C	1.820180	-0.032216	1.138411
C141	C	1.049049	-0.813367	0.303435
C142	C	1.299049	-0.563367	0.553435
C143	C	1.549049	-0.313367	0.803435
C144	C	1.799049	-0.063367	1.053435
C145	C	1.048681	-0.899012	0.303809
C146	C	1.298681	-0.649012	0.553809
C147	C	1.548681	-0.399012	0.803809
C148	C	1.798681	-0.149012	1.053809
C149	C	1.148603	-0.898944	0.410194
C150	C	1.398603	-0.648944	0.660194
C151	C	1.648603	-0.398944	0.910194
C152	C	1.898603	-0.148944	1.160194
C153	C	1.148142	-0.813293	0.412058
C154	C	1.398142	-0.563293	0.662058
C155	C	1.648142	-0.313293	0.912058
C156	C	1.898142	-0.063293	1.162058
C157	C	1.070136	-0.698356	0.388394
C158	C	1.320136	-0.448356	0.638394
C159	C	1.570136	-0.198356	0.888394
C160	C	1.820136	0.051644	1.138394
C161	C	1.070303	-1.014458	0.388444
C162	C	1.320303	-0.764458	0.638444
C163	C	1.570303	-0.514458	0.888444
C164	C	1.820303	-0.264458	1.138444
C165	C	1.263334	-0.356804	0.388402
C166	C	1.513334	-0.106804	0.638402
C167	C	1.763334	0.143196	0.888402
C168	C	2.013334	0.393196	1.138402
C169	C	1.345648	-0.356813	0.388404
C170	C	1.595648	-0.106813	0.638404
C171	C	1.845648	0.143187	0.888404
C172	C	2.095648	0.393187	1.138404
C173	C	1.070220	-0.356727	0.598705
C174	C	1.320220	-0.106727	0.848705
C175	C	1.570220	0.143273	1.098705
C176	C	1.820220	0.393273	1.348705
C177	C	1.070241	-0.356704	0.688326
C178	C	1.320241	-0.106704	0.938326
C179	C	1.570241	0.143296	1.188326
C180	C	1.820241	0.393296	1.438326
C181	C	1.070292	-0.163621	0.388437
C182	C	1.320292	0.086379	0.638437
C183	C	1.570292	0.336379	0.888437
C184	C	1.820292	0.586379	1.138437
C185	C	1.070343	-0.081307	0.388455
C186	C	1.320343	0.168693	0.638455
C187	C	1.570343	0.418693	0.888455
C188	C	1.820343	0.668693	1.138455
C189	C	1.070167	-0.356784	0.178905
C190	C	1.320167	-0.106784	0.428905
C191	C	1.570167	0.143216	0.678905
C192	C	1.820167	0.393216	0.928905
C193	C	1.070290	-0.356599	0.089284
C194	C	1.320290	-0.106599	0.339284
C195	C	1.570290	0.143401	0.589284
C196	C	1.820290	0.393401	0.839284
C197	C	1.070275	-0.356621	1.016502
C198	C	1.320275	-0.106621	1.266502
C199	C	1.570275	0.143379	1.516502
C200	C	1.820275	0.393379	1.766502
C201	C	1.070263	-0.356646	0.925193
C202	C	1.320263	-0.106646	1.175193
C203	C	1.570263	0.143354	1.425193
C204	C	1.820263	0.393354	1.675193
C205	C	1.070258	-0.356663	0.852417
C206	C	1.320258	-0.106663	1.102417
C207	C	1.570258	0.143337	1.352417
C208	C	1.820258	0.393337	1.602417
C209	C	1.070246	-0.356687	0.761102
C210	C	1.320246	-0.106687	1.011102
C211	C	1.570246	0.143313	1.261102
C212	C	1.820246	0.393313	1.511102
H213	H	0.634011	-0.401248	0.513880
H214	H	0.884011	-0.151248	0.763880
H215	H	1.134011	0.098752	1.013880
H216	H	1.384011	0.348752	1.263880
H217	H	0.507277	-0.263227	0.475022
H218	H	0.757277	-0.013227	0.725022
H219	H	1.007277	0.236773	0.975022
H220	H	1.257277	0.486773	1.225022
H221	H	0.506777	-0.401329	0.513500
H222	H	0.756777	-0.151329	0.763500
H223	H	1.006777	0.098671	1.013500
H224	H	1.256777	0.348671	1.263500
O225	O	1.101366	-0.926470	0.240064
O226	O	1.351366	-0.676470	0.490064
O227	O	1.601366	-0.426470	0.740064
O228	O	1.851366	-0.176470	0.990064
H229	H	1.070643	-0.960501	0.195691
H230	H	1.320643	-0.710501	0.445691
H231	H	1.570643	-0.460501	0.695691
H232	H	1.820643	-0.210501	0.945691
O233	O	0.641836	-0.490489	0.431399
O234	O	0.891836	-0.240489	0.681399
O235	O	1.141836	0.009511	0.931399
O236	O	1.391836	0.259511	1.181399
H237	H	0.678206	-0.487825	0.377738
H238	H	0.928206	-0.237825	0.627738
H239	H	1.178206	0.012175	0.877738
H240	H	1.428206	0.262175	1.127738
H241	H	0.632994	-0.435242	0.284983
H242	H	0.882994	-0.185242	0.534983
H243	H	1.132994	0.064758	0.784983
H244	H	1.382994	0.314758	1.034983
O245	O	0.499261	-0.219400	0.356806
O246	O	0.749261	0.030600	0.606806
O247	O	0.999261	0.280600	0.856806
O248	O	1.249261	0.530600	1.106806
H249	H	0.438044	-0.217462	0.359962
H250	H	0.688044	0.032538	0.609962
H251	H	0.938044	0.282538	0.859962
H252	H	1.188044	0.532538	1.109962
O253	O	0.972827	-0.925568	0.279387
O254	O	1.222827	-0.675568	0.529387
O255	O	1.472827	-0.425568	0.779387
O256	O	1.722827	-0.175568	1.029387
H257	H	0.948782	-0.959203	0.328673
H258	H	1.198782	-0.709203	0.578673
H259	H	1.448782	-0.459203	0.828673
H260	H	1.698782	-0.209203	1.078673
O261	O	0.640532	-0.325135	0.240172
O262	O	0.890532	-0.075135	0.490172
O263	O	1.140532	0.174865	0.740172
O264	O	1.390532	0.424865	0.990172
H265	H	0.592647	-0.299379	0.209330
H266	H	0.842647	-0.049379	0.459330
H267	H	1.092647	0.200621	0.709330
H268	H	1.342647	0.450621	0.959330
O269	O	0.500463	-0.324034	0.240245
O270	O	0.750463	-0.074034	0.490245
O271	O	1.000463	0.175966	0.740245
O272	O	1.250463	0.425966	0.990245
H273	H	0.439195	-0.325398	0.237940
H274	H	0.689195	-0.075398	0.487940
H275	H	0.939195	0.174602	0.737940
H276	H	1.189195	0.424602	0.987940
O277	O	0.500575	-0.491150	0.430960
O278	O	0.750575	-0.241150	0.680960
O279	O	1.000575	0.008850	0.930960
O280	O	1.250575	0.258850	1.180960
H281	H	0.548597	-0.528282	0.421635
H282	H	0.798597	-0.278282	0.671635
H283	H	1.048597	-0.028282	0.921635
H284	H	1.298597	0.221718	1.171635
H285	H	0.505927	-0.434211	0.284305
H286	H	0.755927	-0.184211	0.534305
H287	H	1.005927	0.065789	0.784305
H288	H	1.255927	0.315789	1.034305
O289	O	0.641865	-0.253295	0.491325
O290	O	0.891865	-0.003295	0.741325
O291	O	1.141865	0.246705	0.991325
O292	O	1.391865	0.496705	1.241325
H293	H	0.678892	-0.296279	0.516609
H294	H	0.928892	-0.046279	0.766609
H295	H	1.178892	0.203721	1.016609
H296	H	1.428892	0.453721	1.266609
O297	O	0.640080	-0.221953	0.350540
O298	O	0.890080	0.028047	0.600540
O299	O	1.140080	0.278047	0.850540
O300	O	1.390080	0.528047	1.100540
H301	H	0.675707	-0.249411	0.305177
H302	H	0.925707	0.000589	0.555177
H303	H	1.175707	0.250589	0.805177
H304	H	1.425707	0.500589	1.055177
O305	O	1.030358	-0.785752	0.534177
O306	O	1.280358	-0.535752	0.784177
O307	O	1.530358	-0.285752	1.034177
O308	O	1.780358	-0.035752	1.284177
H309	H	1.039073	-0.833426	0.575048
H310	H	1.289073	-0.583426	0.825048
H311	H	1.539073	-0.333426	1.075048
H312	H	1.789073	-0.083426	1.325048
H313	H	1.026265	-0.919829	0.514112
H314	H	1.276265	-0.669829	0.764112
H315	H	1.526265	-0.419829	1.014112
H316	H	1.776265	-0.169829	1.264112
O317	O	1.169255	-0.786318	0.494894
O318	O	1.419255	-0.536318	0.744894
O319	O	1.669255	-0.286318	0.994894
O320	O	1.919255	-0.036318	1.244894
H321	H	1.224413	-0.808525	0.511163
H322	H	1.474413	-0.558525	0.761163
H323	H	1.724413	-0.308525	1.011163
H324	H	1.974413	-0.058525	1.261163
O325	O	0.973992	-0.785049	0.278571
O326	O	1.223992	-0.535049	0.528571
O327	O	1.473992	-0.285049	0.778571
O328	O	1.723992	-0.035049	1.028571
H329	H	0.951619	-0.748798	0.326593
H330	H	1.201619	-0.498798	0.576593
H331	H	1.451619	-0.248798	0.826593
H332	H	1.701619	0.001202	1.076593
O333	O	0.936720	-0.927860	0.432040
O334	O	1.186720	-0.677860	0.682040
O335	O	1.436720	-0.427860	0.932040
O336	O	1.686720	-0.177860	1.182040
H337	H	0.936682	-0.989110	0.435149
H338	H	1.186682	-0.739110	0.685149
H339	H	1.436682	-0.489110	0.935149
H340	H	1.686682	-0.239110	1.185149
O341	O	1.207452	-0.784936	0.356168
O342	O	1.457452	-0.534936	0.606168
O343	O	1.707452	-0.284936	0.856168
O344	O	1.957452	-0.034936	1.106168
H345	H	1.249151	-0.753621	0.391340
H346	H	1.499151	-0.503621	0.641340
H347	H	1.749151	-0.253621	0.891340
H348	H	1.999151	-0.003621	1.141340
O349	O	1.204984	-0.925934	0.350065
O350	O	1.454984	-0.675934	0.600065
O351	O	1.704984	-0.425934	0.850065
O352	O	1.954984	-0.175934	1.100065
H353	H	1.177386	-0.961698	0.304881
H354	H	1.427386	-0.711698	0.554881
H355	H	1.677386	-0.461698	0.804881
H356	H	1.927386	-0.211698	1.054881
O357	O	0.935991	-0.786597	0.431589
O358	O	1.185991	-0.536597	0.681589
O359	O	1.435991	-0.286597	0.931589
O360	O	1.685991	-0.036597	1.181589
H361	H	0.898847	-0.834681	0.422443
H362	H	1.148847	-0.584681	0.672443
H363	H	1.398847	-0.334681	0.922443
H364	H	1.648847	-0.084681	1.172443
H365	H	1.089319	-0.792998	0.255624
H366	H	1.339319	-0.542998	0.505624
H367	H	1.589319	-0.292998	0.755624
H368	H	1.839319	-0.042998	1.005624
O369	O	1.174125	-0.927475	0.490878
O370	O	1.424125	-0.677475	0.740878
O371	O	1.674125	-0.427475	0.990878
O372	O	1.924125	-0.177475	1.240878
H373	H	1.131251	-0.964539	0.516370
H374	H	1.381251	-0.714539	0.766370
H375	H	1.631251	-0.464539	1.016370
H376	H	1.881251	-0.214539	1.266370
