data_functionalizedCrystal
_audit_creation_method	'MofGen! by Chris Wilmer'
_symmetry_space_group_name_H-M	'P1'
_symmetry_Int_Tables_number	1
_symmetry_cell_setting	triclinic
loop_
_symmetry_equiv_pos_as_xyz
  x,y,z
_cell_length_a	12.759401
_cell_length_b	12.594516
_cell_length_c	12.759393
_cell_angle_alpha	90.029472
_cell_angle_beta	89.980387
_cell_angle_gamma	89.973038
loop_
_atom_site_label
_atom_site_type_symbol
_atom_site_fract_x
_atom_site_fract_y
_atom_site_fract_z
Zn1	Zn	1.606168	0.423673	-0.594028
Zn2	Zn	1.606025	0.601692	-0.418354
Zn3	Zn	1.430470	0.423729	-0.418364
Zn4	Zn	1.430421	0.601610	-0.593992
O5	O	1.518271	0.512676	-0.506185
O6	O	1.753170	0.447298	-0.570735
O7	O	1.582698	0.578143	-0.271335
O8	O	1.453856	0.274776	-0.441685
O9	O	1.753065	0.578088	-0.441669
O10	O	1.582941	0.274734	-0.570744
O11	O	1.453718	0.447394	-0.271342
O12	O	1.283442	0.447314	-0.441651
O13	O	1.453774	0.577949	-0.741018
O14	O	1.283407	0.578003	-0.570684
O15	O	1.582894	0.447219	-0.741044
O16	O	1.582651	0.750627	-0.441634
O17	O	1.453636	0.750567	-0.570675
C18	C	1.245304	0.512657	-0.506165
C19	C	1.128527	0.512674	-0.506182
C20	C	1.518151	0.789217	-0.506173
C21	C	1.518196	0.907522	-0.506203
C22	C	1.073614	0.580667	-0.438885
C23	C	0.963890	0.580686	-0.438903
C24	C	0.964001	0.444708	-0.573518
C25	C	1.073723	0.444696	-0.573504
C26	C	1.128417	0.648645	-0.371563
C27	C	1.073504	0.716643	-0.304260
C28	C	0.963780	0.716662	-0.304278
C29	C	0.908969	0.648682	-0.371599
C30	C	1.448005	0.976782	-0.576338
C31	C	1.422393	1.047652	-0.480471
C32	C	1.543865	1.047451	-0.602085
C33	C	1.492533	0.976835	-0.410284
C34	C	1.614051	0.976627	-0.531964
C35	C	1.588475	1.047466	-0.436030
C36	C	1.792304	0.512696	-0.506205
C37	C	1.909081	0.512705	-0.506214
C38	C	1.518344	0.512569	-0.780218
C39	C	1.518376	0.512523	-0.896995
C40	C	1.518373	1.235055	-0.506218
C41	C	1.518299	1.116750	-0.506229
C42	C	1.585618	0.444445	-0.951872
C43	C	1.585643	0.444407	-1.061596
C44	C	1.451181	0.580533	-1.061556
C45	C	1.451151	0.580565	-0.951834
C46	C	1.652842	0.376403	-0.897033
C47	C	1.720091	0.308321	-0.951910
C48	C	1.720116	0.308282	-1.061635
C49	C	1.652892	0.376326	-1.116481
C50	C	1.518258	0.512706	-0.233217
C51	C	1.518430	0.512452	-0.116441
H52	H	1.217760	0.648636	-0.371538
C53	C	1.312948	1.089805	-0.451039
C54	C	1.217538	1.061946	-0.519608
C55	C	1.108092	1.104095	-0.490185
C56	C	1.094056	1.174103	-0.392192
C57	C	1.189469	1.201965	-0.323616
C58	C	1.298915	1.159816	-0.353039
H59	H	1.227926	1.010119	-0.592154
H60	H	1.037461	1.083469	-0.540950
H61	H	1.013037	1.205304	-0.370410
H62	H	1.179081	1.253793	-0.251070
H63	H	1.369546	1.180443	-0.302274
C64	C	1.134136	0.369902	-0.647528
C65	C	1.073860	0.295119	-0.721570
C66	C	1.134273	0.220327	-0.795599
C67	C	1.254963	0.220319	-0.795586
C68	C	1.315246	0.295104	-0.721541
C69	C	1.254833	0.369896	-0.647512
H70	H	0.984512	0.295123	-0.721582
H71	H	1.089646	0.164966	-0.850412
H72	H	1.299684	0.164953	-0.850387
H73	H	1.404594	0.295101	-0.721529
H74	H	1.299459	0.425257	-0.592698
H75	H	1.118139	0.771997	-0.249456
H76	H	1.652906	0.376277	-1.205826
H77	H	1.396450	0.635930	-1.106221
C78	C	0.903374	0.791460	-0.230253
C79	C	0.963660	0.866231	-0.156206
C80	C	0.903256	0.941029	-0.082175
C81	C	0.782566	0.941055	-0.082190
C82	C	0.722273	0.866281	-0.156239
C83	C	0.782677	0.791483	-0.230271
H84	H	1.053008	0.866214	-0.156193
H85	H	0.947890	0.996381	-0.027359
H86	H	0.737852	0.996424	-0.027388
H87	H	0.632925	0.866298	-0.156253
H88	H	0.738044	0.736131	-0.285087
H89	H	1.396381	0.635983	-0.907152
H90	H	0.819624	0.648710	-0.371616
C91	C	1.367702	0.934840	-0.656347
C92	C	1.378245	0.964265	-0.773002
C93	C	1.297941	0.922322	-0.853003
C94	C	1.207092	0.850953	-0.816350
C95	C	1.196544	0.821524	-0.699690
C96	C	1.276849	0.863468	-0.619688
H97	H	1.445501	1.017100	-0.800140
H98	H	1.305749	0.944107	-0.939364
H99	H	1.147645	0.819904	-0.875572
H100	H	1.129289	0.768689	-0.672552
H101	H	1.269041	0.841682	-0.533328
H102	H	1.565536	1.078471	-0.683162
C103	C	1.463135	0.935119	-0.300720
C104	C	1.540451	0.864389	-0.239797
C105	C	1.511053	0.822673	-0.130234
C106	C	1.404339	0.851688	-0.081593
C107	C	1.327016	0.922421	-0.142516
C108	C	1.356414	0.964137	-0.252079
H109	H	1.619453	0.842907	-0.275803
H110	H	1.568293	0.770312	-0.085135
H111	H	1.382577	0.820807	-0.000488
H112	H	1.248014	0.943903	-0.106510
H113	H	1.299174	1.016499	-0.297178
C114	C	1.668714	1.089157	-0.355832
C115	C	1.656920	1.061046	-0.238980
C116	C	1.737148	1.102747	-0.158778
C117	C	1.829171	1.172558	-0.195428
C118	C	1.840969	1.200672	-0.312286
C119	C	1.760740	1.158971	-0.392488
H120	H	1.588796	1.009365	-0.211844
H121	H	1.728414	1.081934	-0.072272
H122	H	1.888561	1.203427	-0.136058
H123	H	1.909093	1.252354	-0.339421
H124	H	1.769474	1.179784	-0.478994
C125	C	1.723467	0.934443	-0.561430
C126	C	1.812687	1.012730	-0.586478
C127	C	1.922103	0.970543	-0.615959
C128	C	1.942300	0.850069	-0.620392
C129	C	1.853077	0.771774	-0.595344
C130	C	1.743661	0.813961	-0.565863
H131	H	1.797739	1.101919	-0.583197
H132	H	1.988152	1.028503	-0.634501
H133	H	2.023296	0.818839	-0.642216
H134	H	1.868025	0.682585	-0.598625
H135	H	1.677612	0.756001	-0.547320
C136	C	0.903711	0.369927	-0.647557
C137	C	0.918840	0.378750	-0.766979
C138	C	0.858549	0.303964	-0.841016
C139	C	0.783130	0.220355	-0.795632
C140	C	0.767998	0.211529	-0.676205
C141	C	0.828288	0.286315	-0.602168
H142	H	0.974672	0.440646	-0.800580
H143	H	0.869752	0.310499	-0.929424
H144	H	0.738500	0.164994	-0.850439
H145	H	0.712165	0.149633	-0.642604
H146	H	0.817085	0.279780	-0.513759
H147	H	1.652832	0.376429	-0.807690
H148	H	1.774815	0.252916	-0.907247
H149	H	1.774865	0.252839	-1.106313
