data_functionalizedCrystal
_audit_creation_method	'MofGen! by Chris Wilmer'
_symmetry_space_group_name_H-M	'P1'
_symmetry_Int_Tables_number	1
_symmetry_cell_setting	triclinic
loop_
_symmetry_equiv_pos_as_xyz
  x,y,z
_cell_length_a	11.026607
_cell_length_b	19.288865
_cell_length_c	17.766277
_cell_angle_alpha	90.011603
_cell_angle_beta	90.008266
_cell_angle_gamma	95.861132
loop_
_atom_site_label
_atom_site_type_symbol
_atom_site_fract_x
_atom_site_fract_y
_atom_site_fract_z
O1	O	-1.608583	-0.290662	-0.062628
O2	O	-1.108583	0.209338	0.437372
O3	O	-1.255458	-0.257564	-0.062625
O4	O	-0.755458	0.242436	0.437375
O5	O	-1.442224	-0.174277	-0.062612
O6	O	-0.942224	0.325723	0.437388
O7	O	-1.421817	-0.373949	-0.062641
O8	O	-0.921817	0.126051	0.437359
O9	O	-1.442191	-0.174267	0.062577
O10	O	-0.942191	0.325733	0.562577
O11	O	-1.255425	-0.257555	0.062563
O12	O	-0.755425	0.242445	0.562563
O13	O	-1.608550	-0.290652	0.062561
O14	O	-1.108550	0.209348	0.562561
Cu15	Cu	-1.431984	-0.274102	0.073993
Cu16	Cu	-0.931984	0.225898	0.573993
Cu17	Cu	-1.432023	-0.274114	-0.074057
Cu18	Cu	-0.932023	0.225886	0.425943
O19	O	-1.421784	-0.373940	0.062547
O20	O	-0.921784	0.126060	0.562547
C21	C	-1.210264	-0.251454	-0.000030
C22	C	-0.710264	0.248546	0.499970
C23	C	-1.075649	-0.233252	-0.000028
C24	C	-0.575649	0.266748	0.499972
C25	C	-1.441551	-0.148312	-0.000015
C26	C	-0.941551	0.351688	0.499985
C27	C	-1.439580	-0.070959	-0.000008
C28	C	-0.939580	0.429041	0.499992
C29	C	-1.653744	-0.296763	-0.000036
C30	C	-1.153744	0.203237	0.499964
C31	C	-1.788358	-0.314964	-0.000043
C32	C	-1.288358	0.185036	0.499957
C33	C	-1.001569	-0.283510	-0.000036
C34	C	-0.501569	0.216490	0.499964
C35	C	-0.862437	-0.264699	-0.000035
C36	C	-0.362437	0.235301	0.499965
C37	C	-1.422457	-0.399904	-0.000051
C38	C	-0.922457	0.100096	0.499949
C39	C	-1.424428	-0.477258	-0.000063
C40	C	-0.924428	0.022742	0.499937
N41	N	-1.431966	-0.274095	0.178123
N42	N	-0.931966	0.225905	0.678123
C43	C	-1.549166	-0.040161	-0.000006
C44	C	-1.049166	0.459839	0.499994
C45	C	-1.547314	0.032521	-0.000018
C46	C	-1.047314	0.532521	0.499982
C47	C	-1.435870	0.074403	-0.000017
C48	C	-0.935870	0.574403	0.499983
C49	C	-1.326269	0.043597	-0.000024
C50	C	-0.826269	0.543597	0.499976
C51	C	-1.328124	-0.029084	-0.000020
C52	C	-0.828124	0.470916	0.499980
C53	C	-1.348250	0.193805	0.043834
C54	C	-0.848250	0.693805	0.543834
C55	C	-1.346400	0.266484	0.043835
C56	C	-0.846400	0.766484	0.543835
C57	C	-1.430144	0.298575	-0.000034
C58	C	-0.930144	0.798575	0.499966
C59	C	-1.515759	0.257976	-0.043893
C60	C	-1.015759	0.757976	0.456107
C61	C	-1.517614	0.185296	-0.043889
C62	C	-1.017614	0.685296	0.456111
C63	C	-1.433846	0.153213	-0.000022
C64	C	-0.933846	0.653213	0.499978
C65	C	-1.537729	0.408182	-0.000045
C66	C	-1.037729	0.908182	0.499955
C67	C	-1.535873	0.480866	-0.000062
C68	C	-1.035873	0.980866	0.499938
C69	C	-1.314825	0.491940	-0.000061
C70	C	-0.814825	0.991940	0.499939
C71	C	-1.316685	0.419258	-0.000052
C72	C	-0.816685	0.919258	0.499948
C73	C	-1.428140	0.377383	-0.000040
C74	C	-0.928140	0.877383	0.499960
N75	N	-1.432051	-0.274117	-0.178187
N76	N	-0.932051	0.225883	0.321813
C77	C	-1.514693	-0.237242	0.217516
C78	C	-1.014693	0.262758	0.717516
C79	C	-1.514700	-0.237240	0.296318
C80	C	-1.014700	0.262760	0.796318
C81	C	-1.431992	-0.274104	0.335724
C82	C	-0.931992	0.225896	0.835724
C83	C	-1.349249	-0.310959	0.296321
C84	C	-0.849249	0.189041	0.796321
C85	C	-1.349237	-0.310954	0.217521
C86	C	-0.849237	0.189046	0.717521
C87	C	-1.415757	-0.335333	0.460552
C88	C	-0.915757	0.164667	0.960552
C89	C	-1.415778	-0.335339	0.539351
C90	C	-0.915778	0.164661	1.039351
C91	C	-1.432024	-0.274116	0.578770
C92	C	-0.932024	0.225884	1.078770
C93	C	-1.448274	-0.212888	0.539380
C94	C	-0.948274	0.287112	1.039380
C95	C	-1.448262	-0.212884	0.460580
C96	C	-0.948262	0.287116	0.960580
C97	C	-1.431996	-0.274112	0.421169
C98	C	-0.931996	0.225888	0.921169
C99	C	-1.514763	-0.237257	0.703609
C100	C	-1.014763	0.262743	1.203609
C101	C	-1.514762	-0.237253	0.782412
C102	C	-1.014762	0.262747	1.282412
C103	C	-1.349317	-0.310979	0.782414
C104	C	-0.849317	0.189021	1.282414
C105	C	-1.349313	-0.310977	0.703612
C106	C	-0.849313	0.189023	1.203612
C107	C	-1.432042	-0.274117	0.664214
C108	C	-0.932042	0.225883	1.164214
H109	H	-1.041149	-0.340464	-0.000041
H110	H	-0.541149	0.159536	0.499959
H111	H	-0.822863	-0.207741	-0.000045
H112	H	-0.322863	0.292259	0.499955
H113	H	-1.582123	-0.207242	0.671530
H114	H	-1.082123	0.292758	1.171530
Br115	Br	-1.470339	-0.129796	0.592866
Br116	Br	-0.970339	0.370204	1.092866
Br117	Br	-1.163577	0.548772	-0.000068
Br118	Br	-0.663577	1.048772	0.499932
Br119	Br	-0.854304	-0.409900	-0.000042
Br120	Br	-0.354304	0.090100	0.499958
Br121	Br	-1.009694	-0.138320	-0.000006
Br122	Br	-0.509694	0.361680	0.499994
Br123	Br	-1.179389	-0.070884	-0.000026
Br124	Br	-0.679389	0.429116	0.499974
H125	H	-1.402554	-0.385196	0.571416
H126	H	-0.902554	0.114804	1.071416
H127	H	-1.639921	-0.074251	0.000001
H128	H	-1.139921	0.425749	0.500001
H129	H	-1.628483	0.374086	-0.000039
H130	H	-1.128483	0.874086	0.499961
Br131	Br	-1.633793	0.130200	-0.103412
Br132	Br	-1.133793	0.630200	0.396588
Br133	Br	-1.230218	0.321574	0.103362
Br134	Br	-0.730218	0.821574	0.603362
H135	H	-1.582124	-0.207239	0.814486
H136	H	-1.082124	0.292761	1.314486
H137	H	-1.636555	0.057602	-0.000018
H138	H	-1.136555	0.557602	0.499982
H139	H	-1.583951	0.284103	-0.079616
H140	H	-1.083951	0.784103	0.420384
Br141	Br	-1.234588	0.150261	0.103376
Br142	Br	-0.734588	0.650261	0.603376
H143	H	-1.281953	-0.340989	0.671537
H144	H	-0.781953	0.159011	1.171537
H145	H	-1.582068	-0.207228	0.328397
H146	H	-1.082068	0.292772	0.828397
Br147	Br	-1.684611	0.522664	-0.000066
Br148	Br	-1.184611	1.022664	0.499934
H149	H	-1.281970	-0.340991	0.814498
H150	H	-0.781970	0.159009	1.314498
H151	H	-1.582053	-0.207227	0.185440
H152	H	-1.082053	0.292773	0.685440
Br153	Br	-1.167953	0.377458	-0.000055
Br154	Br	-0.667953	0.877458	0.499945
Br155	Br	-1.175023	0.100434	-0.000033
Br156	Br	-0.675023	0.600434	0.499967
H157	H	-1.461490	-0.163029	0.428512
H158	H	-0.961490	0.336971	0.928512
Br159	Br	-1.393829	-0.418445	0.407064
Br160	Br	-0.893829	0.081555	0.907064
Br161	Br	-1.236992	-0.360984	0.349798
Br162	Br	-0.736992	0.139016	0.849798
Br163	Br	-1.236955	-0.360972	0.164055
Br164	Br	-0.736955	0.139028	0.664055
