data_functionalizedCrystal
_audit_creation_method	'MofGen! by Chris Wilmer'
_symmetry_space_group_name_H-M	'P1'
_symmetry_Int_Tables_number	1
_symmetry_cell_setting	triclinic
loop_
_symmetry_equiv_pos_as_xyz
  x,y,z
_cell_length_a	17.019282
_cell_length_b	17.038272
_cell_length_c	16.098538
_cell_angle_alpha	92.920305
_cell_angle_beta	91.140572
_cell_angle_gamma	87.241387
loop_
_atom_site_label
_atom_site_type_symbol
_atom_site_fract_x
_atom_site_fract_y
_atom_site_fract_z
O1	O	1.053062	0.099864	0.006294
O2	O	1.553062	0.599864	0.506294
O3	O	0.825028	0.111750	-0.010068
O4	O	1.325028	0.611750	0.489932
O5	O	0.937689	-0.008012	-0.001978
O6	O	1.437689	0.491988	0.498022
O7	O	0.940401	0.219626	-0.001797
O8	O	1.440401	0.719626	0.498203
O9	O	0.931106	-0.001043	0.136062
O10	O	1.431106	0.498957	0.636062
O11	O	0.818445	0.118718	0.127972
O12	O	1.318445	0.618718	0.627972
O13	O	1.046479	0.106832	0.144334
O14	O	1.546479	0.606832	0.644334
Zn15	Zn	0.931417	0.113882	0.158070
Zn16	Zn	1.431417	0.613882	0.658070
Zn17	Zn	0.940090	0.104700	-0.023804
Zn18	Zn	1.440090	0.604700	0.476196
O19	O	0.933818	0.226594	0.136243
O20	O	1.433818	0.726594	0.636243
C21	C	0.792416	0.114648	0.056848
C22	C	1.292416	0.614648	0.556848
C23	C	0.705047	0.112892	0.050579
C24	C	1.205047	0.612892	0.550579
C25	C	0.660417	0.115863	0.122882
C26	C	1.160417	0.615863	0.622882
C27	C	0.578326	0.114200	0.116994
C28	C	1.078326	0.614200	0.616994
C29	C	0.540866	0.109572	0.038803
C30	C	1.040866	0.609572	0.538803
C31	C	0.585502	0.106598	-0.033505
C32	C	1.085502	0.606598	0.466495
C33	C	0.667592	0.108255	-0.027616
C34	C	1.167592	0.608255	0.472384
C35	C	0.293186	0.104373	0.017259
C36	C	0.793186	0.604373	0.517259
C37	C	0.211090	0.102719	0.011376
C38	C	0.711090	0.602719	0.511376
C39	C	0.203920	0.110320	0.161876
C40	C	0.703920	0.610320	0.661876
C41	C	0.286012	0.111981	0.167758
C42	C	0.786012	0.611981	0.667758
C43	C	0.330641	0.109003	0.095450
C44	C	0.830641	0.609003	0.595450
C45	C	0.456955	0.107875	0.032783
C46	C	0.956955	0.607875	0.532783
C47	C	0.414550	0.110695	0.101470
C48	C	0.914550	0.610695	0.601470
C49	C	0.931933	-0.033663	0.066865
C50	C	1.431933	0.466337	0.566865
C51	C	0.924577	-0.120475	0.066337
C52	C	1.424577	0.379525	0.566337
C53	C	0.992107	-0.170407	0.071183
C54	C	1.492107	0.329593	0.571183
C55	C	0.985191	-0.251976	0.070679
C56	C	1.485191	0.248024	0.570679
C57	C	0.910746	-0.283613	0.065335
C58	C	1.410746	0.216387	0.565335
C59	C	0.843212	-0.233676	0.060486
C60	C	1.343212	0.266324	0.560486
C61	C	0.850128	-0.152108	0.060984
C62	C	1.350128	0.347892	0.560984
C63	C	0.886312	-0.529438	0.063570
C64	C	1.386312	-0.029438	0.563570
C65	C	0.879401	-0.611012	0.063075
C66	C	1.379401	-0.111012	0.563075
C67	C	1.021381	-0.629307	0.073267
C68	C	1.521381	-0.129307	0.573267
C69	C	1.028291	-0.547736	0.073770
C70	C	1.528291	-0.047736	0.573770
C71	C	0.960757	-0.497806	0.068916
C72	C	1.460757	0.002194	0.568916
C73	C	0.903675	-0.366990	0.064822
C74	C	1.403675	0.133010	0.564822
C75	C	0.967828	-0.414431	0.069423
C76	C	1.467828	0.085569	0.569423
C77	C	1.079091	0.103934	0.077416
C78	C	1.579091	0.603934	0.577416
C79	C	1.166460	0.105690	0.083679
C80	C	1.666460	0.605690	0.583679
C81	C	0.939574	0.252245	0.067399
C82	C	1.439574	0.752245	0.567399
C83	C	0.946930	0.339057	0.067921
C84	C	1.446930	0.839057	0.567921
N85	N	0.925503	0.120147	0.282194
N86	N	1.425503	0.620147	0.782194
N87	N	0.946010	0.098429	-0.147928
N88	N	1.446010	0.598429	0.352072
C89	C	0.973341	0.069333	0.329215
C90	C	1.473341	0.569333	0.829215
C91	C	0.969212	0.073724	0.416107
C92	C	1.469212	0.573724	0.916107
C93	C	0.917249	0.128932	0.455978
C94	C	1.417249	0.628932	0.955978
C95	C	0.869406	0.179748	0.408951
C96	C	1.369406	0.679748	0.908951
C97	C	0.873531	0.175353	0.322060
C98	C	1.373531	0.675353	0.822060
C99	C	0.902292	0.144850	0.718154
C100	C	1.402292	0.644850	1.218154
C101	C	0.898172	0.149242	0.805051
C102	C	1.398172	0.649242	1.305051
C103	C	0.997978	0.043217	0.812201
C104	C	1.497978	0.543217	1.312201
C105	C	1.002102	0.038830	0.725308
C106	C	1.502102	0.538830	1.225308
C107	C	0.954256	0.089643	0.678289
C108	C	1.454256	0.589643	1.178289
C109	C	0.913029	0.133423	0.544796
C110	C	1.413029	0.633423	1.044796
C111	C	0.958472	0.085148	0.589472
C112	C	1.458472	0.585148	1.089472
H113	H	0.329514	0.101946	-0.041619
H114	H	0.829514	0.601946	0.458381
H115	H	1.040181	-0.292627	0.074627
H116	H	1.540181	0.207373	0.574627
H117	H	0.554995	0.102824	-0.097170
H118	H	1.054995	0.602824	0.402830
C119	C	1.110186	-0.512943	0.079650
C120	C	1.610186	-0.012943	0.579650
N121	N	1.171871	-0.486736	0.084082
N122	N	1.671871	0.013264	0.584082
C123	C	1.021818	0.017806	0.467824
C124	C	1.521818	0.517806	0.967824
N125	N	1.061435	-0.024322	0.506777
N126	N	1.561435	0.475678	1.006777
H127	H	1.044415	-0.006125	0.692848
H128	H	1.544415	0.493875	1.192848
C129	C	0.701616	0.120954	0.208899
C130	C	1.201616	0.620954	0.708899
N131	N	0.732645	0.124786	0.273690
N132	N	1.232645	0.624786	0.773690
H133	H	0.445054	0.114460	0.165133
H134	H	0.945054	0.614460	0.665133
H135	H	0.855855	0.194203	0.837510
H136	H	1.355855	0.694203	1.337510
C137	C	0.716684	0.104988	-0.107155
C138	C	1.216684	0.604988	0.392845
N139	N	0.753660	0.102525	-0.167067
N140	N	1.253660	0.602525	0.332933
H141	H	0.167575	0.112743	0.220745
H142	H	0.667575	0.612743	0.720745
C143	C	0.415740	0.102788	-0.053225
C144	C	0.915740	0.602788	0.446775
N145	N	0.384694	0.098955	-0.118007
N146	N	0.884694	0.598955	0.381993
H147	H	0.818775	-0.636766	0.058736
H148	H	1.318775	-0.136766	0.558736
C149	C	0.855865	0.194146	0.588662
C150	C	1.355865	0.694146	1.088662
N151	N	0.812805	0.239879	0.621705
N152	N	1.312805	0.739879	1.121705
H153	H	0.863335	0.186226	0.679877
H154	H	1.363335	0.686226	1.179877
H155	H	0.316506	0.115747	0.231429
H156	H	0.816506	0.615747	0.731429
C157	C	1.074003	-0.135615	0.077063
C158	C	1.574003	0.364385	0.577063
N159	N	1.135690	-0.109412	0.081487
N160	N	1.635690	0.390588	0.581487
C161	C	0.775840	-0.097183	0.055655
C162	C	1.275840	0.402817	0.555655
N163	N	0.719884	-0.055815	0.051638
N164	N	1.219884	0.444185	0.551638
C165	C	0.820912	0.231259	0.270338
C166	C	1.320912	0.731259	0.770338
N167	N	0.781278	0.273369	0.231382
N168	N	1.281278	0.773369	0.731382
H169	H	1.076363	-0.669968	0.077217
H170	H	1.576363	-0.169968	0.577217
H171	H	1.015658	0.024380	0.296758
H172	H	1.515658	0.524380	0.796758
C173	C	0.529236	0.117488	0.196533
C174	C	1.029236	0.617488	0.696533
N175	N	0.492261	0.119969	0.256446
N176	N	0.992261	0.619969	0.756446
H177	H	1.000778	0.040195	0.557007
H178	H	1.500778	0.540195	1.057007
H179	H	0.180592	0.098952	-0.052300
H180	H	0.680592	0.598952	0.447700
C181	C	0.812237	0.240471	0.452811
C182	C	1.312237	0.740471	0.952811
N183	N	0.769177	0.286208	0.485846
N184	N	1.269177	0.786208	0.985846
H185	H	0.831321	-0.488794	0.059618
H186	H	1.331321	0.011206	0.559618
C187	C	0.761320	-0.268478	0.054614
C188	C	1.261320	0.231522	0.554614
N189	N	0.699637	-0.294691	0.050197
N190	N	1.199637	0.205309	0.550197
C191	C	1.049716	-0.379628	0.075306
C192	C	1.549716	0.120372	0.575306
N193	N	1.111394	-0.353407	0.079743
N194	N	1.611394	0.146593	0.579743
H195	H	0.843061	-0.392758	0.060472
H196	H	1.343061	0.107242	0.560472
H197	H	1.036931	0.001846	0.850492
H198	H	1.536931	0.501846	1.350492
