data_functionalizedCrystal
_audit_creation_method	'MofGen! by Chris Wilmer'
_symmetry_space_group_name_H-M	'P1'
_symmetry_Int_Tables_number	1
_symmetry_cell_setting	triclinic
loop_
_symmetry_equiv_pos_as_xyz
  x,y,z
_cell_length_a	29.839134
_cell_length_b	10.686285
_cell_length_c	10.685314
_cell_angle_alpha	89.696502
_cell_angle_beta	94.339722
_cell_angle_gamma	94.374287
loop_
_atom_site_label
_atom_site_type_symbol
_atom_site_fract_x
_atom_site_fract_y
_atom_site_fract_z
Zn1	Zn	0.683672	0.553892	-0.671410
Zn2	Zn	1.183672	1.053892	-0.171410
Zn3	Zn	0.695092	0.747636	-0.445589
Zn4	Zn	1.195092	1.247636	0.054411
Zn5	Zn	0.613830	0.537866	-0.461621
Zn6	Zn	1.113830	1.037866	0.038379
Zn7	Zn	0.614715	0.763584	-0.655266
Zn8	Zn	1.114715	1.263584	-0.155266
O9	O	0.651827	0.650744	-0.558471
O10	O	1.151827	1.150744	-0.058471
O11	O	0.748053	0.579625	-0.641501
O12	O	1.248053	1.079625	-0.141501
O13	O	0.688721	0.706428	-0.272168
O14	O	1.188721	1.206428	0.227832
O15	O	0.617945	0.364445	-0.502915
O16	O	1.117945	0.864445	-0.002915
O17	O	0.756443	0.721968	-0.475592
O18	O	1.256443	1.221968	0.024408
O19	O	0.669258	0.376219	-0.657046
O20	O	1.169258	0.876219	-0.157046
O21	O	0.629019	0.552311	-0.283946
O22	O	1.129019	1.052311	0.216054
O23	O	0.551081	0.567775	-0.487261
O24	O	1.051081	1.067775	0.012739
O25	O	0.619453	0.749149	-0.832955
O26	O	1.119453	1.249149	-0.332955
O27	O	0.551731	0.733609	-0.629532
O28	O	1.051731	1.233609	-0.129532
O29	O	0.670116	0.595089	-0.844816
O30	O	1.170116	1.095089	-0.344816
O31	O	0.689579	0.925298	-0.459938
O32	O	1.189579	1.425298	0.040062
O33	O	0.630527	0.937014	-0.613986
O34	O	1.130527	1.437014	-0.113986
C35	C	0.661399	0.976675	-0.533498
C36	C	1.161399	1.476675	-0.033498
C37	C	0.665535	1.116113	-0.522856
C38	C	1.165535	1.616113	-0.022856
C39	C	0.535105	0.650684	-0.558385
C40	C	1.035105	1.150684	-0.058385
C41	C	0.485171	0.650691	-0.558375
C42	C	0.985171	1.150691	-0.058375
C43	C	0.643609	0.675685	-0.885676
C44	C	1.143609	1.175685	-0.385676
C45	C	0.640107	0.686314	-1.025111
C46	C	1.140107	1.186314	-0.525111
C47	C	0.175881	0.737205	-0.632444
C48	C	0.675881	1.237205	-0.132444
C49	C	-0.011793	0.737245	-0.632497
C50	C	0.488207	1.237245	-0.132497
O51	O	-0.035758	0.810739	-0.695424
O52	O	0.464242	1.310739	-0.195424
N53	N	-0.035616	0.650797	-0.558562
N54	N	0.464384	1.150797	-0.058562
C55	C	-0.012518	0.564329	-0.484615
C56	C	0.487482	1.064329	0.015385
O57	O	-0.037088	0.490793	-0.421740
O58	O	0.462912	0.990793	0.078260
C59	C	0.175154	0.564284	-0.484570
C60	C	0.675154	1.064284	0.015430
C61	C	0.198975	0.650746	-0.558500
C62	C	0.698975	1.150746	-0.058500
C63	C	0.199702	0.823658	-0.706369
C64	C	0.699702	1.323658	-0.206369
C65	C	0.246618	0.823652	-0.706350
C66	C	0.746618	1.323652	-0.206350
C67	C	0.269712	0.737192	-0.632406
C68	C	0.769712	1.237192	-0.132406
C69	C	0.245891	0.650739	-0.558481
C70	C	0.745891	1.150739	-0.058481
C71	C	0.198250	0.477811	-0.410630
C72	C	0.698250	0.977811	0.089370
C73	C	0.245171	0.477805	-0.410628
C74	C	0.745171	0.977805	0.089372
C75	C	0.268993	0.564267	-0.484558
C76	C	0.768993	1.064267	0.015442
C77	C	0.315901	0.564273	-0.484517
C78	C	0.815901	1.064273	0.015483
N79	N	0.339725	0.650721	-0.558452
N80	N	0.839725	1.150721	-0.058452
C81	C	0.316630	0.737180	-0.632396
C82	C	0.816630	1.237180	-0.132396
C83	C	-0.111049	0.564360	-0.484642
C84	C	0.388951	1.064360	0.015358
C85	C	-0.157967	0.564372	-0.484652
C86	C	0.342033	1.064372	0.015348
C87	C	-0.157238	0.737287	-0.632536
C88	C	0.342762	1.237287	-0.132536
C89	C	-0.110319	0.737279	-0.632519
C90	C	0.389681	1.237279	-0.132519
C91	C	-0.087226	0.650807	-0.558577
C92	C	0.412774	1.150807	-0.058577
C93	C	0.415157	0.737161	-0.632350
C94	C	0.915157	1.237161	-0.132350
C95	C	0.462077	0.737150	-0.632320
C96	C	0.962077	1.237150	-0.132320
C97	C	0.461344	0.564232	-0.484441
C98	C	0.961344	1.064232	0.015559
C99	C	0.414428	0.564246	-0.484465
C100	C	0.914428	1.064246	0.015535
C101	C	0.391335	0.650716	-0.558429
C102	C	0.891335	1.150716	-0.058429
O103	O	0.339895	0.490808	-0.421634
O104	O	0.839895	0.990808	0.078366
O105	O	0.341207	0.810687	-0.695283
O106	O	0.841207	1.310687	-0.195283
C107	C	0.128965	0.737211	-0.632463
C108	C	0.628965	1.237211	-0.132463
C109	C	0.105144	0.650758	-0.558538
C110	C	0.605144	1.150758	-0.058538
C111	C	0.128238	0.564299	-0.484594
C112	C	0.628238	1.064299	0.015406
C113	C	0.058226	0.650770	-0.558548
C114	C	0.558226	1.150770	-0.058548
C115	C	0.035131	0.737230	-0.632492
C116	C	0.535131	1.237230	-0.132492
C117	C	0.058955	0.823677	-0.706427
C118	C	0.558955	1.323677	-0.206427
C119	C	0.105870	0.823671	-0.706408
C120	C	0.605870	1.323671	-0.206408
C121	C	0.104415	0.477851	-0.410659
C122	C	0.604415	0.977851	0.089341
C123	C	0.057499	0.477866	-0.410683
C124	C	0.557499	0.977866	0.089317
C125	C	0.034405	0.564325	-0.484628
C126	C	0.534405	1.064325	0.015372
C127	C	0.769005	0.650806	-0.558559
C128	C	1.269005	1.150806	-0.058559
C129	C	0.818939	0.650832	-0.558596
C130	C	1.318939	1.150832	-0.058596
C131	C	0.642229	0.323542	-0.583570
C132	C	1.142229	0.823542	-0.083570
C133	C	0.638139	0.184109	-0.594265
C134	C	1.138139	0.684109	-0.094265
C135	C	0.660036	0.625810	-0.232547
C136	C	1.160036	1.125810	0.267453
C137	C	0.663615	0.614828	-0.093140
C138	C	1.163615	1.114828	0.406860
H139	H	0.481470	0.807562	-0.692523
H140	H	0.981470	1.307562	-0.192523
H141	H	-0.092250	0.493942	-0.424424
H142	H	0.407750	0.993942	0.075576
H143	H	0.692151	1.164579	-0.453564
H144	H	1.192151	1.664579	0.046436
Cl145	Cl	0.698819	0.507762	-1.018373
Cl146	Cl	1.198819	1.007762	-0.518373
H147	H	0.617300	0.755649	-1.073547
H148	H	1.117300	1.255649	-0.573547
H149	H	0.396360	0.807570	-0.692581
H150	H	0.896360	1.307570	-0.192581
H151	H	0.266009	0.894055	-0.766554
H152	H	0.766009	1.394055	-0.266554
H153	H	-0.090927	0.807682	-0.692721
H154	H	0.409073	1.307682	-0.192721
Cl155	Cl	0.170677	0.932366	-0.799340
Cl156	Cl	0.670677	1.432366	-0.299340
H157	H	0.611521	1.135649	-0.663545
H158	H	1.111521	1.635649	-0.163545
Cl159	Cl	0.168315	0.369101	-0.317693
Cl160	Cl	0.668315	0.869101	0.182307
H161	H	0.263971	0.407380	-0.350422
H162	H	0.763971	0.907380	0.149578
H163	H	-0.177357	0.493978	-0.424437
H164	H	0.322643	0.993978	0.075563
Cl165	Cl	-0.186280	0.845970	-0.725504
Cl166	Cl	0.313720	1.345970	-0.225504
H167	H	0.395032	0.493845	-0.424263
H168	H	0.895032	0.993845	0.075737
H169	H	0.480156	0.493842	-0.424233
H170	H	0.980156	0.993842	0.075767
H171	H	0.125261	0.894076	-0.766610
H172	H	0.625261	1.394076	-0.266610
H173	H	0.038108	0.407459	-0.350469
H174	H	0.538108	0.907459	0.149531
Cl175	Cl	0.029913	0.932373	-0.799379
Cl176	Cl	0.529913	1.432373	-0.299379
H177	H	0.123214	0.407444	-0.350444
H178	H	0.623214	0.907444	0.149556
