data_functionalizedCrystal
_audit_creation_method	'MofGen! by Chris Wilmer'
_symmetry_space_group_name_H-M	'P1'
_symmetry_Int_Tables_number	1
_symmetry_cell_setting	triclinic
loop_
_symmetry_equiv_pos_as_xyz
  x,y,z
_cell_length_a	18.215407
_cell_length_b	13.031981
_cell_length_c	18.215407
_cell_angle_alpha	97.196642
_cell_angle_beta	90.008215
_cell_angle_gamma	97.186371
loop_
_atom_site_label
_atom_site_type_symbol
_atom_site_fract_x
_atom_site_fract_y
_atom_site_fract_z
Zn1	Zn	1.087827	-0.416417	0.378811
Zn2	Zn	1.337827	-0.166417	0.628811
Zn3	Zn	1.587827	0.083583	0.878811
Zn4	Zn	1.837827	0.333583	1.128811
Zn5	Zn	1.072157	-0.591153	0.240108
Zn6	Zn	1.322157	-0.341153	0.490108
Zn7	Zn	1.572157	-0.091153	0.740108
Zn8	Zn	1.822157	0.158847	0.990108
Zn9	Zn	0.964783	-0.416386	0.255766
Zn10	Zn	1.214783	-0.166386	0.505766
Zn11	Zn	1.464783	0.083614	0.755766
Zn12	Zn	1.714783	0.333614	1.005766
Zn13	Zn	0.949129	-0.591125	0.363140
Zn14	Zn	1.199129	-0.341125	0.613140
Zn15	Zn	1.449129	-0.091125	0.863140
Zn16	Zn	1.699129	0.158875	1.113140
O17	O	1.018474	-0.503770	0.309456
O18	O	1.268474	-0.253770	0.559456
O19	O	1.518474	-0.003770	0.809456
O20	O	1.768474	0.246230	1.059456
O21	O	1.188730	-0.439622	0.360418
O22	O	1.438730	-0.189622	0.610418
O23	O	1.688730	0.060378	0.860418
O24	O	1.938730	0.310378	1.110418
O25	O	1.057907	-0.567968	0.139201
O26	O	1.307907	-0.317968	0.389201
O27	O	1.557907	-0.067968	0.639201
O28	O	1.807907	0.182032	0.889201
O29	O	0.994215	-0.270133	0.285199
O30	O	1.244215	-0.020133	0.535199
O31	O	1.494215	0.229867	0.785199
O32	O	1.744215	0.479867	1.035199
O33	O	1.177217	-0.567999	0.258513
O34	O	1.427217	-0.317999	0.508513
O35	O	1.677217	-0.067999	0.758513
O36	O	1.927217	0.182001	1.008513
O37	O	1.084614	-0.270157	0.375600
O38	O	1.334614	-0.020157	0.625600
O39	O	1.584614	0.229843	0.875600
O40	O	1.834614	0.479843	1.125600
O41	O	0.979020	-0.439567	0.150705
O42	O	1.229020	-0.189567	0.400705
O43	O	1.479020	0.060433	0.650705
O44	O	1.729020	0.310433	0.900705
O45	O	0.859725	-0.439540	0.270003
O46	O	1.109725	-0.189540	0.520003
O47	O	1.359725	0.060460	0.770003
O48	O	1.609725	0.310460	1.020003
O49	O	0.967534	-0.567951	0.468203
O50	O	1.217534	-0.317951	0.718203
O51	O	1.467534	-0.067951	0.968203
O52	O	1.717534	0.182049	1.218203
O53	O	0.848223	-0.567920	0.348891
O54	O	1.098223	-0.317920	0.598891
O55	O	1.348223	-0.067920	0.848891
O56	O	1.598223	0.182080	1.098891
O57	O	1.069435	-0.439594	0.479716
O58	O	1.319435	-0.189594	0.729716
O59	O	1.569435	0.060406	0.979716
O60	O	1.819435	0.310406	1.229716
O61	O	1.042727	-0.737406	0.243317
O62	O	1.292727	-0.487406	0.493317
O63	O	1.542727	-0.237406	0.743317
O64	O	1.792727	0.012594	0.993317
O65	O	0.952339	-0.737385	0.333708
O66	O	1.202339	-0.487385	0.583708
O67	O	1.452339	-0.237385	0.833708
O68	O	1.702339	0.012615	1.083708
C69	C	0.827272	-0.503724	0.309446
C70	C	1.077272	-0.253724	0.559446
C71	C	1.327272	-0.003724	0.809446
C72	C	1.577272	0.246276	1.059446
C73	C	0.745472	-0.503730	0.309457
C74	C	0.995472	-0.253730	0.559457
C75	C	1.245472	-0.003730	0.809457
C76	C	1.495472	0.246270	1.059457
C77	C	0.994154	-0.775318	0.285129
C78	C	1.244154	-0.525318	0.535129
C79	C	1.494154	-0.275318	0.785129
C80	C	1.744154	-0.025318	1.035129
C81	C	0.983817	-0.891488	0.274746
C82	C	1.233817	-0.641488	0.524746
C83	C	1.483817	-0.391488	0.774746
C84	C	1.733817	-0.141488	1.024746
C85	C	0.486389	-0.437053	0.362581
C86	C	0.736389	-0.187053	0.612581
C87	C	0.986389	0.062947	0.862581
C88	C	1.236389	0.312947	1.112581
C89	C	0.563249	-0.437036	0.362580
C90	C	0.813249	-0.187036	0.612580
C91	C	1.063249	0.062964	0.862580
C92	C	1.313249	0.312964	1.112580
C93	C	0.551297	-0.570521	0.256344
C94	C	0.801297	-0.320521	0.506344
C95	C	1.051297	-0.070521	0.756344
C96	C	1.301297	0.179479	1.006344
C97	C	0.474438	-0.570543	0.256349
C98	C	0.724438	-0.320543	0.506349
C99	C	0.974438	-0.070543	0.756349
C100	C	1.224438	0.179457	1.006349
C101	C	0.441986	-0.503803	0.309467
C102	C	0.691986	-0.253803	0.559467
C103	C	0.941986	-0.003803	0.809467
C104	C	1.191986	0.246197	1.059467
C105	C	0.595706	-0.503764	0.309461
C106	C	0.845706	-0.253764	0.559461
C107	C	1.095706	-0.003764	0.809461
C108	C	1.345706	0.246236	1.059461
C109	C	0.679041	-0.503746	0.309460
C110	C	0.929041	-0.253746	0.559460
C111	C	1.179041	-0.003746	0.809460
C112	C	1.429041	0.246254	1.059460
C113	C	0.358646	-0.503822	0.309469
C114	C	0.608646	-0.253822	0.559469
C115	C	0.858646	-0.003822	0.809469
C116	C	1.108646	0.246178	1.059469
C117	C	1.023908	-0.943208	0.314890
C118	C	1.273908	-0.693208	0.564890
C119	C	1.523908	-0.443208	0.814890
C120	C	1.773908	-0.193208	1.064890
C121	C	1.013225	-1.063275	0.304160
C122	C	1.263225	-0.813275	0.554160
C123	C	1.513225	-0.563275	0.804160
C124	C	1.763225	-0.313275	1.054160
C125	C	1.210423	-0.503817	0.309467
C126	C	1.460423	-0.253817	0.559467
C127	C	1.710423	-0.003817	0.809467
C128	C	1.960423	0.246183	1.059467
C129	C	1.292220	-0.503837	0.309471
C130	C	1.542220	-0.253837	0.559471
C131	C	1.792220	-0.003837	0.809471
C132	C	2.042220	0.246163	1.059471
C133	C	1.018486	-0.503773	0.501409
C134	C	1.268486	-0.253773	0.751409
C135	C	1.518486	-0.003773	1.001409
C136	C	1.768486	0.246227	1.251409
C137	C	1.018492	-0.503774	0.583207
C138	C	1.268492	-0.253774	0.833207
C139	C	1.518492	-0.003774	1.083207
C140	C	1.768492	0.246226	1.333207
C141	C	1.042909	-0.231162	0.333894
C142	C	1.292909	0.018838	0.583894
C143	C	1.542909	0.268838	0.833894
C144	C	1.792909	0.518838	1.083894
C145	C	1.053321	-0.114992	0.344309
C146	C	1.303321	0.135008	0.594309
C147	C	1.553321	0.385008	0.844309
C148	C	1.803321	0.635008	1.094309
C149	C	1.071536	-0.436950	0.777397
C150	C	1.321536	-0.186950	1.027397
C151	C	1.571536	0.063050	1.277397
C152	C	1.821536	0.313050	1.527397
C153	C	1.071532	-0.436949	0.854256
C154	C	1.321532	-0.186949	1.104256
C155	C	1.571532	0.063051	1.354256
C156	C	1.821532	0.313051	1.604256
C157	C	0.965422	-0.570614	0.842254
C158	C	1.215422	-0.320614	1.092254
C159	C	1.465422	-0.070614	1.342254
C160	C	1.715422	0.179386	1.592254
C161	C	0.965423	-0.570608	0.765398
C162	C	1.215423	-0.320608	1.015398
C163	C	1.465423	-0.070608	1.265398
C164	C	1.715423	0.179392	1.515398
C165	C	1.018484	-0.503778	0.732971
C166	C	1.268484	-0.253778	0.982971
C167	C	1.518484	-0.003778	1.232971
C168	C	1.768484	0.246222	1.482971
C169	C	1.018479	-0.503783	0.886686
C170	C	1.268479	-0.253783	1.136686
C171	C	1.518479	-0.003783	1.386686
C172	C	1.768479	0.246217	1.636686
C173	C	1.018474	-0.503783	0.970020
C174	C	1.268474	-0.253783	1.220020
C175	C	1.518474	-0.003783	1.470020
C176	C	1.768474	0.246217	1.720020
C177	C	1.018489	-0.503776	0.649632
C178	C	1.268489	-0.253776	0.899632
C179	C	1.518489	-0.003776	1.149632
C180	C	1.768489	0.246224	1.399632
C181	C	1.018460	-0.503790	1.118248
C182	C	1.268460	-0.253790	1.368248
C183	C	1.518460	-0.003790	1.618248
C184	C	1.768460	0.246210	1.868248
C185	C	1.018472	-0.503786	1.036449
C186	C	1.268472	-0.253786	1.286449
C187	C	1.518472	-0.003786	1.536449
C188	C	1.768472	0.246214	1.786449
H189	H	0.459969	-0.382708	0.405833
H190	H	0.709969	-0.132708	0.655833
H191	H	0.959969	0.117292	0.905833
H192	H	1.209969	0.367292	1.155833
H193	H	0.577729	-0.624857	0.213096
H194	H	0.827729	-0.374857	0.463096
H195	H	1.077729	-0.124857	0.713096
H196	H	1.327729	0.125143	0.963096
H197	H	0.599399	-0.382683	0.405832
H198	H	0.849399	-0.132683	0.655832
H199	H	1.099399	0.117317	0.905832
H200	H	1.349399	0.367317	1.155832
O201	O	1.079851	-0.884127	0.370939
O202	O	1.329851	-0.634127	0.620939
O203	O	1.579851	-0.384127	0.870939
O204	O	1.829851	-0.134127	1.120939
H205	H	1.135777	-0.904970	0.356520
H206	H	1.385777	-0.654970	0.606520
H207	H	1.635777	-0.404970	0.856520
H208	H	1.885777	-0.154970	1.106520
O209	O	0.908194	-0.642696	0.877228
O210	O	1.158194	-0.392696	1.127228
O211	O	1.408194	-0.142696	1.377228
O212	O	1.658194	0.107304	1.627228
H213	H	0.917108	-0.631480	0.938135
H214	H	1.167108	-0.381480	1.188135
H215	H	1.417108	-0.131480	1.438135
H216	H	1.667108	0.118520	1.688135
H217	H	0.438283	-0.624904	0.213095
H218	H	0.688283	-0.374904	0.463095
H219	H	0.938283	-0.124904	0.713095
H220	H	1.188283	0.125096	0.963095
H221	H	0.970987	-1.107881	0.261848
H222	H	1.220987	-0.857881	0.511848
H223	H	1.470987	-0.607881	0.761848
H224	H	1.720987	-0.357881	1.011848
O225	O	0.908183	-0.642660	0.717474
O226	O	1.158183	-0.392660	0.967474
O227	O	1.408183	-0.142660	1.217474
O228	O	1.658183	0.107340	1.467474
H229	H	0.871286	-0.689132	0.752934
H230	H	1.121286	-0.439132	1.002934
H231	H	1.371286	-0.189132	1.252934
H232	H	1.621286	0.060868	1.502934
H233	H	1.114740	-0.382529	0.750998
H234	H	1.364740	-0.132529	1.000998
H235	H	1.614740	0.117471	1.250998
H236	H	1.864740	0.367471	1.500998
H237	H	1.095553	-1.070388	0.386627
H238	H	1.345553	-0.820388	0.636627
H239	H	1.595553	-0.570388	0.886627
H240	H	1.845553	-0.320388	1.136627
H241	H	1.114731	-0.382529	0.890425
H242	H	1.364731	-0.132529	1.140425
H243	H	1.614731	0.117471	1.390425
H244	H	1.864731	0.367471	1.640425
H245	H	0.941582	-0.936097	0.232437
H246	H	1.191582	-0.686097	0.482437
H247	H	1.441582	-0.436097	0.732437
H248	H	1.691582	-0.186097	0.982437
