data_functionalizedCrystal
_audit_creation_method	'MofGen! by Chris Wilmer'
_symmetry_space_group_name_H-M	'P1'
_symmetry_Int_Tables_number	1
_symmetry_cell_setting	triclinic
loop_
_symmetry_equiv_pos_as_xyz
  x,y,z
_cell_length_a	29.839134
_cell_length_b	29.839131
_cell_length_c	11.169409
_cell_angle_alpha	89.952226
_cell_angle_beta	89.967100
_cell_angle_gamma	90.030088
loop_
_atom_site_label
_atom_site_type_symbol
_atom_site_fract_x
_atom_site_fract_y
_atom_site_fract_z
Zn1	Zn	0.686787	-0.178878	-0.678833
Zn2	Zn	0.686713	-0.254020	-0.478095
Zn3	Zn	0.611656	-0.178898	-0.478121
Zn4	Zn	0.611626	-0.253975	-0.678694
O5	O	0.649196	-0.216443	-0.578436
O6	O	0.749645	-0.188857	-0.652251
O7	O	0.676738	-0.244082	-0.310149
O8	O	0.621666	-0.116028	-0.504815
O9	O	0.749590	-0.244063	-0.504771
O10	O	0.676865	-0.116014	-0.652276
O11	O	0.621594	-0.188890	-0.310168
O12	O	0.548785	-0.188847	-0.504681
O13	O	0.621615	-0.243987	-0.846663
O14	O	0.548763	-0.244006	-0.652041
O15	O	0.676836	-0.188813	-0.846764
O16	O	0.676709	-0.316881	-0.504637
O17	O	0.621543	-0.316848	-0.652016
C18	C	0.532473	-0.216424	-0.578349
C19	C	0.482539	-0.216427	-0.578341
C20	C	0.172893	-0.245207	-0.655072
C21	C	-0.014780	-0.245219	-0.655126
O22	O	-0.039046	-0.269668	-0.720314
N23	N	-0.038246	-0.216459	-0.578526
C24	C	-0.014792	-0.187692	-0.501914
O25	O	-0.039058	-0.163227	-0.436771
C26	C	0.172880	-0.187678	-0.501867
C27	C	0.196345	-0.216443	-0.578463
C28	C	0.196358	-0.273969	-0.731663
C29	C	0.243273	-0.273967	-0.731644
C30	C	0.266724	-0.245203	-0.655035
C31	C	0.243260	-0.216441	-0.578444
C32	C	0.196334	-0.158908	-0.425261
C33	C	0.243255	-0.158906	-0.425259
C34	C	0.266719	-0.187671	-0.501855
C35	C	0.313627	-0.187675	-0.501816
N36	N	0.337093	-0.216435	-0.578416
C37	C	0.313642	-0.245199	-0.655025
C38	C	-0.113323	-0.187702	-0.501942
C39	C	-0.160240	-0.187707	-0.501951
C40	C	-0.160225	-0.245233	-0.655166
C41	C	-0.113306	-0.245231	-0.655149
C42	C	-0.089856	-0.216462	-0.578541
C43	C	0.412168	-0.245194	-0.654979
C44	C	0.459088	-0.245191	-0.654950
C45	C	0.459068	-0.187662	-0.501741
C46	C	0.412152	-0.187667	-0.501765
C47	C	0.388704	-0.216434	-0.578394
O48	O	0.337922	-0.163235	-0.436671
O49	O	0.337916	-0.269654	-0.720177
C50	C	0.125978	-0.245209	-0.655091
C51	C	0.102514	-0.216446	-0.578500
C52	C	0.125965	-0.187682	-0.501891
C53	C	0.055596	-0.216450	-0.578510
C54	C	0.032145	-0.245214	-0.655120
C55	C	0.055611	-0.273974	-0.731719
C56	C	0.102527	-0.273973	-0.731700
C57	C	0.102498	-0.158922	-0.425292
C58	C	0.055583	-0.158926	-0.425316
C59	C	0.032131	-0.187691	-0.501925
C60	C	0.649127	-0.333166	-0.578335
C61	C	0.649139	-0.383100	-0.578332
C62	C	0.677931	-0.692701	-0.655329
C63	C	0.677980	-0.880374	-0.655401
O64	O	0.702393	-0.904603	-0.720791
N65	N	0.649272	-0.903885	-0.578569
C66	C	0.620547	-0.880475	-0.501719
O67	O	0.596127	-0.904779	-0.436380
C68	C	0.620497	-0.692803	-0.501654
C69	C	0.649210	-0.669294	-0.578482
C70	C	0.706642	-0.669192	-0.732151
C71	C	0.706631	-0.622277	-0.732128
C72	C	0.677910	-0.598870	-0.655282
C73	C	0.649199	-0.622379	-0.578459
C74	C	0.591770	-0.669393	-0.424812
C75	C	0.591759	-0.622472	-0.424804
C76	C	0.620473	-0.598964	-0.501632
C77	C	0.620467	-0.552056	-0.501589
N78	N	0.649175	-0.528545	-0.578421
C79	C	0.677897	-0.551952	-0.655267
C80	C	0.620577	-0.979005	-0.501757
C81	C	0.620590	-1.025923	-0.501772
C82	C	0.678022	-1.025819	-0.655455
C83	C	0.678011	-0.978900	-0.655434
C84	C	0.649285	-0.955494	-0.578589
C85	C	0.677872	-0.453426	-0.655211
C86	C	0.677860	-0.406507	-0.655178
C87	C	0.620427	-0.406615	-0.501500
C88	C	0.620440	-0.453530	-0.501528
C89	C	0.649164	-0.476935	-0.578394
O90	O	0.596063	-0.527799	-0.436243
O91	O	0.702306	-0.527640	-0.720616
C92	C	0.677942	-0.739616	-0.655352
C93	C	0.649232	-0.763125	-0.578529
C94	C	0.620510	-0.739718	-0.501683
C95	C	0.649245	-0.810043	-0.578544
C96	C	0.677966	-0.833450	-0.655390
C97	C	0.706674	-0.809939	-0.732222
C98	C	0.706664	-0.763023	-0.732198
C99	C	0.591802	-0.763229	-0.424851
C100	C	0.591815	-0.810145	-0.424880
C101	C	0.620537	-0.833551	-0.501726
C102	C	0.766374	-0.216462	-0.578523
C103	C	0.816308	-0.216471	-0.578561
C104	C	0.649230	-0.216393	-0.891478
C105	C	0.649245	-0.216372	-1.024879
C106	C	0.649277	-0.099265	-0.578564
C107	C	0.649311	-0.049330	-0.578618
C108	C	0.649187	-0.216460	-0.266611
C109	C	0.649260	-0.216355	-0.133212
H110	H	0.036509	-0.297397	-0.794094
H111	H	0.597063	-0.472672	-0.438959
H112	H	0.393081	-0.268618	-0.717380
H113	H	0.597043	-0.387550	-0.438928
F114	F	0.127493	-0.304589	-0.813226
H115	H	0.121587	-0.135498	-0.362906
H116	H	0.597184	-0.959951	-0.439178
F117	F	0.268210	-0.128285	-0.343722
F118	F	0.737224	-0.738010	-0.813971
H119	H	0.036482	-0.135503	-0.362931
F120	F	0.737243	-0.834858	-0.814003
H121	H	-0.094205	-0.268654	-0.717522
H122	H	-0.094234	-0.164275	-0.439553
H123	H	0.393047	-0.164245	-0.439392
H124	H	0.568413	-0.744175	-0.362275
H125	H	0.568389	-0.688526	-0.362249
F126	F	0.268240	-0.304582	-0.813174
H127	H	0.478170	-0.164245	-0.439364
F128	F	0.708423	-0.381490	-0.736950
F129	F	0.561184	-0.597565	-0.343014
F130	F	0.561255	-0.835159	-0.343097
F131	F	0.708590	-1.050738	-0.737241
F132	F	0.708445	-0.478329	-0.737019
H133	H	0.478190	-0.268616	-0.717325
H134	H	0.730011	-0.603139	-0.794691
F135	F	0.737212	-0.694097	-0.813954
H136	H	0.701391	-0.959763	-0.717994
H137	H	0.177269	-0.297393	-0.794054
F138	F	0.171371	-0.128290	-0.343742
H139	H	0.597213	-1.045060	-0.439198
H140	H	-0.179341	-0.164288	-0.439567
F141	F	-0.185191	-0.275845	-0.736704
