data_functionalizedCrystal
_audit_creation_method	'MofGen! by Chris Wilmer'
_symmetry_space_group_name_H-M	'P1'
_symmetry_Int_Tables_number	1
_symmetry_cell_setting	triclinic
loop_
_symmetry_equiv_pos_as_xyz
  x,y,z
_cell_length_a	14.853567
_cell_length_b	17.699083
_cell_length_c	16.776229
_cell_angle_alpha	90.001114
_cell_angle_beta	89.997147
_cell_angle_gamma	96.541028
loop_
_atom_site_label
_atom_site_type_symbol
_atom_site_fract_x
_atom_site_fract_y
_atom_site_fract_z
O1	O	0.114008	-1.004374	-0.066170
O2	O	0.128841	-0.784034	-0.066195
O3	O	-0.009827	-0.900090	-0.066184
O4	O	0.252676	-0.888319	-0.066181
O5	O	-0.009835	-0.900075	0.066392
O6	O	0.128832	-0.784019	0.066381
O7	O	0.114000	-1.004359	0.066407
Zn8	Zn	0.121415	-0.894187	0.087443
Zn9	Zn	0.121426	-0.894207	-0.087232
O10	O	0.252667	-0.888303	0.066396
C11	C	0.128305	-0.755828	0.000090
C12	C	0.126711	-0.671806	0.000080
C13	C	-0.043418	-0.899549	0.000102
C14	C	-0.143496	-0.897951	0.000095
N15	N	0.121406	-0.894178	0.206655
C16	C	-0.555751	-0.822255	0.000101
C17	C	-0.577539	-0.960131	0.000117
C18	C	-0.483511	-0.961634	0.000112
C19	C	-0.425598	-0.893446	0.000103
C20	C	-0.461714	-0.823756	0.000099
C21	C	-0.447389	-1.031324	0.000125
C22	C	-0.353355	-1.032829	0.000121
C23	C	-0.295441	-0.964641	0.000107
C24	C	-0.331561	-0.894947	0.000101
C25	C	-0.273648	-0.826759	0.000092
C26	C	-0.309767	-0.757065	0.000081
C27	C	-0.403799	-0.755567	0.000084
C28	C	-0.201409	-0.966139	0.000104
C29	C	-0.179611	-0.828260	0.000090
C30	C	0.286258	-0.888844	0.000108
C31	C	0.386336	-0.890443	0.000110
C32	C	0.114535	-1.032565	0.000120
C33	C	0.116130	-1.116587	0.000125
C34	C	0.208106	-0.623396	0.000081
C35	C	0.206602	-0.544449	0.000092
C36	C	0.123703	-0.513913	0.000095
C37	C	0.042301	-0.562329	0.000096
C38	C	0.043806	-0.641275	0.000091
C39	C	0.036232	-0.243950	0.000116
C40	C	0.034734	-0.164999	0.000118
C41	C	0.199028	-0.147125	0.000116
C42	C	0.200533	-0.226070	0.000111
C43	C	0.119132	-0.274479	0.000116
C44	C	0.120763	-0.360083	0.000107
C45	C	0.122070	-0.428311	0.000099
N46	N	0.121427	-0.894221	-0.206443
C47	C	0.060029	-0.945583	0.248377
C48	C	0.060029	-0.945587	0.331829
C49	C	0.121410	-0.894190	0.373558
C50	C	0.182790	-0.842779	0.331830
C51	C	0.182786	-0.842772	0.248379
C52	C	0.182808	-0.842806	0.668377
C53	C	0.182809	-0.842819	0.751834
C54	C	0.060051	-0.945622	0.751827
C55	C	0.060046	-0.945615	0.668376
C56	C	0.121423	-0.894202	0.626656
C57	C	0.121422	-0.894197	0.536167
C58	C	0.121416	-0.894198	0.464044
H59	H	-0.132463	-0.772732	0.000079
F60	F	0.285663	-0.095598	0.000113
F61	F	-0.594191	-0.748085	0.000083
F62	F	-0.050402	-0.295461	0.000121
F63	F	0.248130	-0.788092	0.623981
H64	H	0.010050	-0.987440	0.214407
F65	F	-0.639176	-1.032697	0.000138
H66	H	-0.172005	-1.022883	0.000118
H67	H	-0.032777	-0.140140	0.000121
H68	H	-0.433216	-0.698825	0.000076
H69	H	-0.022475	-0.680690	0.000090
H70	H	-0.494548	-1.086839	0.000140
F71	F	-0.005296	-1.000297	0.376233
H72	H	-0.262602	-0.701546	0.000080
H73	H	0.232764	-0.800912	0.214410
H74	H	-0.323956	-1.089579	0.000129
F75	F	0.296340	-0.655887	0.000072
H76	H	0.010067	-0.987470	0.634403
H77	H	0.272882	-0.505037	0.000092
F78	F	0.288766	-0.258564	0.000103
H79	H	-0.025197	-0.537461	0.000110
H80	H	0.010072	-0.987483	0.785804
F81	F	0.248142	-0.788111	0.796243
H82	H	0.232765	-0.800926	0.365810
