data_functionalizedCrystal
_audit_creation_method	'MofGen! by Chris Wilmer'
_symmetry_space_group_name_H-M	'P1'
_symmetry_Int_Tables_number	1
_symmetry_cell_setting	triclinic
loop_
_symmetry_equiv_pos_as_xyz
  x,y,z
_cell_length_a	12.837943
_cell_length_b	10.540539
_cell_length_c	11.892095
_cell_angle_alpha	93.930600
_cell_angle_beta	85.689438
_cell_angle_gamma	89.677216
loop_
_atom_site_label
_atom_site_type_symbol
_atom_site_fract_x
_atom_site_fract_y
_atom_site_fract_z
O1	O	1.384471	0.322967	-0.093973
O2	O	1.082545	0.306651	-0.093980
O3	O	1.240396	0.130859	-0.093975
O4	O	1.226620	0.498759	-0.093978
O5	O	1.227234	0.145491	0.094032
O6	O	1.069383	0.321283	0.094027
O7	O	1.371309	0.337599	0.094034
Zn8	Zn	1.218257	0.331764	0.123881
Zn9	Zn	1.235597	0.312486	-0.123827
O10	O	1.213458	0.513391	0.094029
C11	C	1.037303	0.308455	0.000023
C12	C	0.922104	0.292017	0.000020
C13	C	0.682608	0.489636	0.000034
C14	C	0.574368	0.474197	0.000032
C15	C	0.597382	0.245700	0.000022
C16	C	0.705621	0.261139	0.000024
C17	C	0.748231	0.383111	0.000028
C18	C	0.856473	0.398549	0.000022
C19	C	0.879484	0.170054	0.000020
C20	C	0.771244	0.154614	0.000018
C21	C	1.232782	0.090759	0.000027
C22	C	1.229692	-0.050529	0.000020
C23	C	1.111279	-0.247002	-0.000404
C24	C	1.114382	-0.100007	0.000019
C25	C	1.277668	-0.097735	0.107383
C26	C	1.273726	-0.244704	0.107473
C27	C	1.291038	-0.261604	-0.106326
C28	C	1.292200	-0.114616	-0.107745
C29	C	1.416551	0.335795	0.000029
C30	C	1.531751	0.352232	0.000025
C31	C	1.221072	0.553491	0.000025
C32	C	1.224163	0.694779	0.000024
N33	N	1.206429	0.344921	0.292934
N34	N	1.247433	0.299320	-0.292880
C35	C	1.329731	0.207693	0.529586
C36	C	1.321471	0.216900	0.647928
C37	C	1.181647	0.372535	0.647961
C38	C	1.189906	0.363328	0.529620
C39	C	1.263952	0.280906	0.470436
C40	C	1.272215	0.271706	0.352093
C41	C	1.132387	0.427334	0.352128
C42	C	1.124127	0.436540	0.470470
H43	H	0.932927	0.083313	0.000008
H44	H	1.362068	-0.065766	0.111377
H45	H	1.390028	0.140591	0.481398
H46	H	1.374376	-0.299736	-0.107046
C47	C	1.352633	0.182099	0.288037
C48	C	1.408450	0.119927	0.365174
C49	C	1.482528	0.037354	0.306212
H50	H	1.399484	0.229321	0.241859
H51	H	1.318162	0.121018	0.241904
H52	H	1.442919	0.180999	0.411287
H53	H	1.361627	0.072680	0.411355
H54	H	1.448058	-0.023727	0.260079
H55	H	1.529372	0.084586	0.260035
H56	H	1.520402	-0.004849	0.358540
C57	C	1.392934	0.137633	0.712292
C58	C	1.452189	0.218315	0.780240
C59	C	1.518022	0.145334	0.839559
H60	H	1.438303	0.087216	0.660220
H61	H	1.352020	0.083824	0.758530
H62	H	1.493099	0.272101	0.734006
H63	H	1.406847	0.268733	0.832333
H64	H	1.477109	0.091525	0.885797
H65	H	1.563385	0.094919	0.787479
H66	H	1.558228	0.200065	0.885676
H67	H	1.376723	-0.081663	-0.114226
H68	H	1.121354	0.439632	0.696164
C69	C	1.043715	-0.286225	0.101637
C70	C	1.037569	-0.419017	0.097660
C71	C	0.975355	-0.455198	0.191651
H72	H	0.975603	-0.250785	0.100840
H73	H	1.073808	-0.256145	0.168895
H74	H	1.007472	-0.449084	0.030419
H75	H	1.105663	-0.454489	0.098473
H76	H	1.005448	-0.425118	0.258910
H77	H	0.907247	-0.419750	0.190846
H78	H	0.971184	-0.545300	0.188971
H79	H	1.257157	-0.084400	-0.187169
H80	H	1.065016	-0.057082	0.077107
H81	H	1.356314	-0.283183	0.112346
C82	C	0.728673	0.622165	0.000088
C83	C	0.648033	0.712155	0.000112
C84	C	0.690426	0.834255	0.000175
H85	H	0.774994	0.628011	-0.065456
H86	H	0.765799	0.638108	0.065677
H87	H	0.610925	0.696218	-0.065470
H88	H	0.601707	0.706349	0.065651
H89	H	0.727552	0.850198	0.065764
H90	H	0.736746	0.840089	-0.065370
H91	H	0.635719	0.895329	0.000203
C92	C	0.551155	0.113268	0.000253
C93	C	0.577638	0.055631	0.096989
C94	C	0.535064	-0.066360	0.097247
H95	H	0.578172	0.063606	-0.065235
H96	H	0.477283	0.119280	0.000318
H97	H	0.651495	0.049613	0.096914
H98	H	0.550622	0.105256	0.162493
H99	H	0.461192	-0.060349	0.097312
H100	H	0.562084	-0.116011	0.031755
H101	H	0.553018	-0.105478	0.162886
H102	H	1.063838	0.503644	0.518671
H103	H	1.078828	0.486952	0.303955
C104	C	1.063249	-0.057820	-0.102628
C105	C	1.029284	-0.164759	-0.165596
C106	C	0.982155	-0.125953	-0.260153
H107	H	1.112385	-0.012935	-0.148177
H108	H	1.005166	-0.003853	-0.078502
H109	H	1.087359	-0.218706	-0.189723
H110	H	0.980136	-0.209657	-0.120081
H111	H	0.924072	-0.071985	-0.236027
H112	H	1.031297	-0.081067	-0.305692
H113	H	0.959095	-0.198503	-0.302882
H114	H	0.520940	0.560941	0.000040
H115	H	1.233527	-0.053152	0.187277
C116	C	1.211467	-0.279739	0.214513
C117	C	1.177754	-0.168637	0.278498
C118	C	1.120384	-0.200854	0.377103
H119	H	1.254297	-0.328360	0.257570
H120	H	1.152571	-0.328323	0.194936
H121	H	1.236641	-0.120074	0.298077
H122	H	1.134910	-0.120002	0.235476
H123	H	1.061488	-0.249437	0.357526
H124	H	1.163220	-0.249476	0.420150
H125	H	1.097494	-0.125477	0.420524
H126	H	0.736536	0.055309	0.000028
C127	C	1.249063	-0.317509	-0.214959
C128	C	1.310332	-0.276828	-0.307825
C129	C	1.271693	-0.328315	-0.407908
H130	H	1.178903	-0.289838	-0.218418
H131	H	1.251470	-0.407713	-0.216403
H132	H	1.307915	-0.186644	-0.306382
H133	H	1.380493	-0.304498	-0.304404
H134	H	1.274099	-0.418519	-0.409352
H135	H	1.201533	-0.300640	-0.411355
H136	H	1.313263	-0.300730	-0.470929
H137	H	0.891163	0.497865	0.000027
H138	H	1.071118	-0.286599	-0.077396
