data_functionalizedCrystal
_audit_creation_method	'MofGen! by Chris Wilmer'
_symmetry_space_group_name_H-M	'P1'
_symmetry_Int_Tables_number	1
_symmetry_cell_setting	triclinic
loop_
_symmetry_equiv_pos_as_xyz
  x,y,z
_cell_length_a	10.686220
_cell_length_b	19.121063
_cell_length_c	10.685910
_cell_angle_alpha	91.760564
_cell_angle_beta	89.676032
_cell_angle_gamma	96.652836
loop_
_atom_site_label
_atom_site_type_symbol
_atom_site_fract_x
_atom_site_fract_y
_atom_site_fract_z
Zn1	Zn	1.959985	-0.171311	0.576420
Zn2	Zn	2.459985	0.328689	1.076420
Zn3	Zn	1.934832	-0.298318	0.377051
Zn4	Zn	2.434832	0.201682	0.877051
Zn5	Zn	1.732897	-0.189215	0.384198
Zn6	Zn	2.232897	0.310785	0.884198
Zn7	Zn	1.741287	-0.296959	0.602723
Zn8	Zn	2.241287	0.203041	1.102723
O9	O	1.842250	-0.238951	0.485098
O10	O	2.342250	0.261049	0.985098
O11	O	2.132685	-0.181235	0.535974
O12	O	2.632685	0.318765	1.035974
O13	O	1.894008	-0.291907	0.203109
O14	O	2.394008	0.208093	0.703109
O15	O	1.770036	-0.088596	0.401680
O16	O	2.270036	0.411404	0.901680
O17	O	2.114205	-0.274546	0.389499
O18	O	2.614205	0.225454	0.889499
O19	O	1.936876	-0.075442	0.542904
O20	O	2.436876	0.424558	1.042904
O21	O	1.745647	-0.211750	0.208360
O22	O	2.245647	0.288250	0.708360
O23	O	1.557974	-0.210432	0.427185
O24	O	2.057974	0.289568	0.927185
O25	O	1.784336	-0.272230	0.774123
O26	O	2.284336	0.227770	1.274123
O27	O	1.564138	-0.289590	0.587734
O28	O	2.064138	0.210410	1.087734
O29	O	1.945012	-0.179917	0.754799
O30	O	2.445012	0.320083	1.254799
O31	O	1.902143	-0.396381	0.415004
O32	O	2.402143	0.103619	0.915004
O33	O	1.759947	-0.395383	0.580803
O34	O	2.259947	0.104617	1.080803
C35	C	1.515412	-0.251807	0.511090
C36	C	2.015412	0.248193	1.011090
C37	C	1.375590	-0.257322	0.522240
C38	C	1.875590	0.242678	1.022240
C39	C	1.829262	-0.421353	0.500007
C40	C	2.329262	0.078647	1.000007
C41	C	1.823824	-0.499379	0.506417
C42	C	2.323824	0.000621	1.006417
C43	C	1.895372	-0.536527	0.423167
C44	C	2.395372	-0.036527	0.923167
C45	C	1.890265	-0.609840	0.429203
C46	C	2.390265	-0.109840	0.929203
C47	C	1.813604	-0.646004	0.518485
C48	C	2.313604	-0.146004	1.018485
C49	C	1.742054	-0.608851	0.601743
C50	C	2.242054	-0.108851	1.101743
C51	C	1.747168	-0.535539	0.595712
C52	C	2.247168	-0.035539	1.095712
C53	C	1.794462	-0.867335	0.541016
C54	C	2.294462	-0.367335	1.041016
C55	C	1.789351	-0.940652	0.547038
C56	C	2.289351	-0.440652	1.047038
C57	C	1.937564	-0.941636	0.374499
C58	C	2.437564	-0.441636	0.874499
C59	C	1.942665	-0.868323	0.368471
C60	C	2.442665	-0.368323	0.868471
C61	C	1.871121	-0.831175	0.451734
C62	C	2.371121	-0.331175	0.951734
C63	C	1.808380	-0.720942	0.524654
C64	C	2.308380	-0.220942	1.024654
C65	C	1.876353	-0.756238	0.445569
C66	C	2.376353	-0.256238	0.945569
C67	C	2.170365	-0.226045	0.459005
C68	C	2.670365	0.273955	0.959005
C69	C	2.310188	-0.220545	0.447886
C70	C	2.810188	0.279455	0.947886
C71	C	1.868416	-0.223924	0.811076
C72	C	2.368416	0.276076	1.311076
C73	C	1.879565	-0.217521	0.949988
C74	C	2.379565	0.282479	1.449988
C75	C	1.855326	-0.055834	0.470155
C76	C	2.355326	0.444166	0.970155
C77	C	1.860898	0.022200	0.463788
C78	C	2.360898	0.522200	0.963788
C79	C	1.816179	-0.253936	1.160390
C80	C	2.316179	0.246064	1.660390
C81	C	1.805035	-0.260343	1.021477
C82	C	2.305035	0.239657	1.521477
H83	H	1.324609	-0.293035	0.594427
H84	H	1.824609	0.206965	1.094427
H85	H	1.361163	-0.184839	0.375697
H86	H	1.861163	0.315161	0.875697
H87	H	1.957791	-0.507087	0.350460
H88	H	2.457791	-0.007087	0.850460
C89	C	1.977302	-0.161374	1.010861
C90	C	2.477302	0.338626	1.510861
H91	H	2.022569	-0.135372	0.947385
H92	H	2.522569	0.364628	1.447385
H93	H	1.935411	-0.130357	1.063124
H94	H	2.435411	0.369643	1.563124
H95	H	2.034241	-0.183760	1.059615
H96	H	2.534241	0.316240	1.559615
C97	C	1.968961	-0.650700	0.337622
C98	C	2.468961	-0.150700	0.837622
H99	H	2.015336	-0.618663	0.283575
H100	H	2.515336	-0.118663	0.783575
H101	H	2.025587	-0.674900	0.383460
H102	H	2.525587	-0.174900	0.883460
H103	H	1.914501	-0.683739	0.289308
H104	H	2.414501	-0.183739	0.789308
H105	H	2.005089	-0.838879	0.295771
H106	H	2.505089	-0.338879	0.795771
H107	H	1.995813	-0.971889	0.306712
H108	H	2.495813	-0.471889	0.806712
H109	H	1.688909	-0.505293	0.663505
H110	H	2.188909	-0.005293	1.163505
H111	H	1.732700	-0.301904	0.976409
H112	H	2.232700	0.198096	1.476409
H113	H	1.726941	-0.970094	0.619762
H114	H	2.226941	-0.470094	1.119762
C115	C	1.715742	-0.826484	0.632581
C116	C	2.215742	-0.326484	1.132581
H117	H	1.669340	-0.858525	0.686602
H118	H	2.169340	-0.358525	1.186602
H119	H	1.770174	-0.793441	0.680905
H120	H	2.270174	-0.293441	1.180905
H121	H	1.659118	-0.802289	0.586718
H122	H	2.159118	-0.302289	1.086718
H123	H	1.679641	-0.638301	0.674443
H124	H	2.179641	-0.138301	1.174443
H125	H	1.938776	-0.726791	0.372880
H126	H	2.438776	-0.226791	0.872880
H127	H	1.745959	-0.750395	0.597345
H128	H	2.245959	-0.250395	1.097345
