data_functionalizedCrystal
_audit_creation_method	'MofGen! by Chris Wilmer'
_symmetry_space_group_name_H-M	'P1'
_symmetry_Int_Tables_number	1
_symmetry_cell_setting	triclinic
loop_
_symmetry_equiv_pos_as_xyz
  x,y,z
_cell_length_a	15.995350
_cell_length_b	10.654550
_cell_length_c	9.730223
_cell_angle_alpha	89.999957
_cell_angle_beta	90.002168
_cell_angle_gamma	96.011347
loop_
_atom_site_label
_atom_site_type_symbol
_atom_site_fract_x
_atom_site_fract_y
_atom_site_fract_z
O1	O	0.117602	-1.666303	0.114180
O2	O	0.128807	-1.300678	0.114204
O3	O	0.001375	-1.493485	0.114190
O4	O	0.245034	-1.473496	0.114194
O5	O	0.001371	-1.493473	-0.114390
O6	O	0.128803	-1.300666	-0.114375
O7	O	0.117599	-1.666290	-0.114400
Zn8	Zn	0.123201	-1.483476	-0.150680
Zn9	Zn	0.123205	-1.483492	0.150484
O10	O	0.245031	-1.473483	-0.114386
C11	C	0.127982	-1.253884	-0.000082
C12	C	0.125521	-1.114473	-0.000073
C13	C	-0.029826	-1.492652	-0.000097
C14	C	-0.122791	-1.490175	-0.000089
C15	C	0.118423	-1.713084	-0.000110
C16	C	0.120885	-1.852495	-0.000111
C17	C	-0.460590	-1.481277	-0.000093
C18	C	-0.413954	-1.343964	0.000429
C19	C	-0.317249	-1.346442	-0.000087
C20	C	-0.293004	-1.485691	-0.000090
C21	C	-0.333690	-1.553412	-0.130623
C22	C	-0.430346	-1.549962	-0.130732
C23	C	-0.430684	-1.552813	0.129206
C24	C	-0.333739	-1.552780	0.130931
C25	C	-0.198292	-1.488192	-0.000093
C26	C	-0.555303	-1.478780	-0.000099
C27	C	0.276232	-1.474316	-0.000095
C28	C	0.369197	-1.476793	-0.000094
N29	N	0.123197	-1.483474	-0.356216
C30	C	0.200551	-1.034008	-0.000075
C31	C	0.198233	-0.903017	-0.000099
C32	C	0.045849	-0.932971	-0.000112
C33	C	0.048168	-1.063959	-0.000098
C34	C	0.066794	-1.568878	-0.428148
C35	C	0.066794	-1.568890	-0.572031
C36	C	0.179608	-1.398091	-0.572037
C37	C	0.179603	-1.398074	-0.428157
N38	N	0.123202	-1.483504	0.356021
H39	H	-0.289135	-1.293208	0.093484
H40	H	-0.012934	-1.129478	-0.000100
H41	H	0.225533	-1.328522	-0.369586
H42	H	-0.432803	-1.289086	0.094036
Br43	Br	-0.059125	-0.864407	-0.000141
Br44	Br	-0.309162	-1.723925	-0.138727
Br45	Br	-0.286848	-1.475004	-0.292527
H46	H	0.020865	-1.638432	-0.630595
Br47	Br	-0.447543	-1.252621	-0.154234
Br48	Br	-0.271318	-1.257094	-0.156294
H49	H	0.020864	-1.638414	-0.369578
Br50	Br	-0.288256	-1.470948	0.291907
Br51	Br	0.305529	-1.102560	-0.000046
H52	H	0.259330	-0.837506	-0.000104
H53	H	-0.448936	-1.500570	-0.228304
H54	H	-0.462009	-1.650775	-0.136657
Br55	Br	-0.465337	-1.477983	0.294107
Br56	Br	-0.307146	-1.722032	0.144077
H57	H	0.225533	-1.328562	-0.630626
Br58	Br	-0.482640	-1.721553	0.130667
