data_functionalizedCrystal
_audit_creation_method	'MofGen! by Chris Wilmer'
_symmetry_space_group_name_H-M	'P1'
_symmetry_Int_Tables_number	1
_symmetry_cell_setting	triclinic
loop_
_symmetry_equiv_pos_as_xyz
  x,y,z
_cell_length_a	15.944564
_cell_length_b	22.010155
_cell_length_c	15.944551
_cell_angle_alpha	90.003301
_cell_angle_beta	83.501336
_cell_angle_gamma	89.996026
loop_
_atom_site_label
_atom_site_type_symbol
_atom_site_fract_x
_atom_site_fract_y
_atom_site_fract_z
O1	O	-1.114524	0.050463	-0.108371
O2	O	-0.614524	0.550463	0.391629
O3	O	-0.869975	0.050478	-0.121716
O4	O	-0.369975	0.550478	0.378284
O5	O	-0.998928	0.050465	0.007231
O6	O	-0.498928	0.550465	0.507231
O7	O	-0.985571	0.050477	-0.237318
O8	O	-0.485571	0.550477	0.262682
O9	O	-0.998904	-0.050585	0.007211
O10	O	-0.498904	0.449415	0.507211
O11	O	-0.869952	-0.050572	-0.121736
O12	O	-0.369952	0.449428	0.378264
O13	O	-1.114500	-0.050587	-0.108391
O14	O	-0.614500	0.449413	0.391609
Cu15	Cu	-0.992224	-0.059806	-0.115065
Cu16	Cu	-0.492224	0.440194	0.384935
Cu17	Cu	-0.992252	0.059697	-0.115042
Cu18	Cu	-0.492252	0.559697	0.384958
O19	O	-0.985548	-0.050574	-0.237338
O20	O	-0.485548	0.449426	0.262662
C21	C	-0.838670	-0.000045	-0.121170
C22	C	-0.338670	0.499955	0.378830
C23	C	-0.745425	-0.000039	-0.119504
C24	C	-0.245425	0.499961	0.380496
N25	N	-0.992211	-0.143859	-0.115080
N26	N	-0.492211	0.356141	0.384920
C27	C	-0.530569	-0.000055	-0.035589
C28	C	-0.030569	0.499945	0.464411
C29	C	-0.469561	0.049770	-0.074539
C30	C	0.030439	0.549770	0.425461
C31	C	-0.574700	-0.000047	-0.116488
C32	C	-0.074700	0.499953	0.383512
C33	C	-0.469560	-0.049858	-0.074578
C34	C	0.030440	0.450142	0.425422
C35	C	-0.409788	-0.000056	-0.113570
C36	C	0.090212	0.499944	0.386430
C37	C	-0.514920	0.049820	-0.155461
C38	C	-0.014920	0.549820	0.344539
C39	C	-0.514925	-0.049853	-0.155488
C40	C	-0.014925	0.450147	0.344512
C41	C	-0.453935	-0.000016	-0.194497
C42	C	0.046065	0.499984	0.305503
C43	C	-0.669701	-0.000040	-0.118167
C44	C	-0.169701	0.499960	0.381833
C45	C	-0.314787	-0.000058	-0.111898
C46	C	0.185213	0.499942	0.388102
C47	C	-1.049355	-0.563644	-0.057952
C48	C	-0.549355	-0.063644	0.442048
C49	C	-1.049359	-0.627252	-0.057947
C50	C	-0.549359	-0.127252	0.442053
O51	O	-1.097911	-0.660148	-0.009385
O52	O	-0.597911	-0.160148	0.490615
N53	N	-0.992251	-0.659066	-0.115024
N54	N	-0.492251	-0.159066	0.384976
C55	C	-0.935130	-0.627269	-0.172106
C56	C	-0.435130	-0.127269	0.327894
O57	O	-0.886555	-0.660170	-0.220654
O58	O	-0.386555	-0.160170	0.279346
C59	C	-0.935123	-0.563663	-0.172107
C60	C	-0.435123	-0.063663	0.327893
C61	C	-0.992240	-0.531852	-0.115031
C62	C	-0.492240	-0.031852	0.384969
C63	C	-1.106467	-0.531833	-0.000881
C64	C	-0.606467	-0.031833	0.499119
C65	C	-1.106464	-0.468230	-0.000888
C66	C	-0.606464	0.031770	0.499112
C67	C	-1.049349	-0.436438	-0.057966
C68	C	-0.549349	0.063562	0.442034
C69	C	-0.992237	-0.468249	-0.115038
C70	C	-0.492237	0.031751	0.384962
C71	C	-0.877998	-0.531867	-0.229184
C72	C	-0.377998	-0.031867	0.270816
C73	C	-0.877996	-0.468256	-0.229180
C74	C	-0.377996	0.031744	0.270820
C75	C	-0.935113	-0.436445	-0.172104
C76	C	-0.435113	0.063555	0.327896
C77	C	-0.935119	-0.372853	-0.172124
C78	C	-0.435119	0.127147	0.327876
N79	N	-0.992227	-0.341039	-0.115046
N80	N	-0.492227	0.158961	0.384954
C81	C	-1.049342	-0.372831	-0.057968
C82	C	-0.549342	0.127169	0.442032
C83	C	-0.935149	-0.760847	-0.172098
C84	C	-0.435149	-0.260847	0.327902
C85	C	-0.935159	-0.824452	-0.172102
C86	C	-0.435159	-0.324452	0.327898
C87	C	-1.049387	-0.824430	-0.057941
C88	C	-0.549387	-0.324430	0.442059
C89	C	-1.049380	-0.760824	-0.057942
C90	C	-0.549380	-0.260824	0.442058
C91	C	-0.992256	-0.729033	-0.115021
C92	C	-0.492256	-0.229033	0.384979
C93	C	-1.049331	-0.239260	-0.057987
C94	C	-0.549331	0.260740	0.442013
C95	C	-1.049326	-0.175651	-0.058002
C96	C	-0.549326	0.324349	0.441998
C97	C	-0.935095	-0.175678	-0.172159
C98	C	-0.435095	0.324322	0.327841
C99	C	-0.935103	-0.239282	-0.172148
C100	C	-0.435103	0.260718	0.327852
C101	C	-0.992225	-0.271071	-0.115055
C102	C	-0.492225	0.228929	0.384945
O103	O	-0.886589	-0.339916	-0.220659
O104	O	-0.386589	0.160084	0.279341
O105	O	-1.097901	-0.339922	-0.009420
O106	O	-0.597901	0.160078	0.490580
C107	C	-0.145807	-0.000063	-0.108925
C108	C	0.354193	0.499937	0.391075
C109	C	-0.239057	-0.000064	-0.110558
C110	C	0.260943	0.499936	0.389442
C111	C	-0.998361	-0.000060	0.038515
C112	C	-0.498361	0.499940	0.538515
C113	C	-0.996699	-0.000061	0.131761
C114	C	-0.496699	0.499939	0.631761
N115	N	-0.992272	0.143750	-0.115020
N116	N	-0.492272	0.643750	0.384980
C117	C	-0.986114	-0.000047	-0.268622
C118	C	-0.486114	0.499953	0.231378
C119	C	-0.987777	-0.000043	-0.361868
C120	C	-0.487777	0.499957	0.138132
C121	C	-0.912795	-0.000047	0.346622
C122	C	-0.412795	0.499953	0.846622
C123	C	-0.951746	-0.049873	0.407628
C124	C	-0.451746	0.450127	0.907628
C125	C	-0.993692	-0.000056	0.302487
C126	C	-0.493692	0.499944	0.802487
C127	C	-0.951788	0.049754	0.407630
C128	C	-0.451788	0.549754	0.907630
C129	C	-0.990781	-0.000048	0.467400
C130	C	-0.490781	0.499952	0.967400
C131	C	-1.032665	-0.049923	0.362265
C132	C	-0.532665	0.450077	0.862265
C133	C	-1.032696	0.049749	0.362261
C134	C	-0.532696	0.549749	0.862261
C135	C	-1.071705	-0.000089	0.423249
C136	C	-0.571705	0.499911	0.923249
C137	C	-0.995366	-0.000061	0.207485
C138	C	-0.495366	0.499939	0.707485
C139	C	-0.989113	-0.000048	0.562401
C140	C	-0.489113	0.499952	1.062401
H141	H	-0.563902	0.000003	0.031547
H142	H	-0.063902	0.500003	0.531547
C143	C	-0.409132	0.000025	-0.285280
C144	C	0.090868	0.500025	0.214720
H145	H	-0.424650	0.035451	-0.313871
H146	H	0.075350	0.535451	0.186129
H147	H	-0.425350	-0.035030	-0.314236
H148	H	0.074650	0.464970	0.185764
H149	H	-0.349747	-0.000307	-0.283735
H150	H	0.150253	0.499693	0.216265
H151	H	-1.138912	-0.000122	0.456405
H152	H	-0.638912	0.499878	0.956405
H153	H	-0.845647	-0.000093	0.313317
H154	H	-0.345647	0.499907	0.813317
C155	C	-1.169284	-0.433246	0.061906
C156	C	-0.669284	0.066754	0.561906
H157	H	-1.203288	-0.461298	0.095903
H158	H	-0.703288	0.038702	0.595903
H159	H	-1.204252	-0.408429	0.031676
H160	H	-0.704252	0.091571	0.531676
H161	H	-1.139060	-0.408438	0.096897
H162	H	-0.639060	0.091562	0.596897
C163	C	-0.905568	0.106659	0.434782
C164	C	-0.405568	0.606659	0.934782
H165	H	-0.943002	0.130121	0.472459
H166	H	-0.443002	0.630121	0.972459
H167	H	-0.886829	0.130276	0.386405
H168	H	-0.386829	0.630276	0.886405
H169	H	-0.858359	0.094682	0.462248
H170	H	-0.358359	0.594682	0.962248
C171	C	-0.815166	-0.566848	-0.291962
C172	C	-0.315166	-0.066848	0.208038
H173	H	-0.823342	-0.609285	-0.283799
H174	H	-0.323342	-0.109285	0.216201
H175	H	-0.759114	-0.556422	-0.282793
H176	H	-0.259114	-0.056422	0.217207
H177	H	-0.824287	-0.556424	-0.348033
H178	H	-0.324287	-0.056424	0.151967
C179	C	-0.542119	-0.106754	-0.201681
C180	C	-0.042119	0.393246	0.298319
H181	H	-0.526769	-0.142124	-0.172863
H182	H	-0.026769	0.357876	0.327137
H183	H	-0.514823	-0.107110	-0.257815
H184	H	-0.014823	0.392890	0.242185
H185	H	-0.601551	-0.106141	-0.202845
H186	H	-0.101551	0.393859	0.297155
C187	C	-1.078889	0.106651	0.335065
C188	C	-0.578889	0.606651	0.835065
H189	H	-1.050073	0.142021	0.350416
H190	H	-0.550073	0.642021	0.850416
H191	H	-1.135024	0.107006	0.362358
H192	H	-0.635024	0.607006	0.862358
H193	H	-1.080050	0.106037	0.275632
H194	H	-0.580050	0.606037	0.775632
C195	C	-1.112153	-0.140663	0.004788
C196	C	-0.612153	0.359337	0.504788
H197	H	-1.146161	-0.168710	0.038788
H198	H	-0.646161	0.331290	0.538788
H199	H	-1.147118	-0.115849	-0.025450
H200	H	-0.647118	0.384151	0.474550
H201	H	-1.081932	-0.115851	0.039776
H202	H	-0.581932	0.384149	0.539776
C203	C	-0.442404	0.106673	-0.028314
C204	C	0.057596	0.606673	0.471686
H205	H	-0.404738	0.130133	-0.065751
H206	H	0.095262	0.630133	0.434249
H207	H	-0.414944	0.094700	0.018896
H208	H	0.085056	0.594700	0.518896
H209	H	-0.490788	0.130297	-0.009578
H210	H	0.009212	0.630297	0.490422
H211	H	-0.534917	0.091989	-0.189644
H212	H	-0.034917	0.591989	0.310356
H213	H	-0.888595	-0.149783	-0.218634
H214	H	-0.388595	0.350217	0.281366
C215	C	-0.815162	-0.433290	-0.291972
C216	C	-0.315162	0.066710	0.208028
H217	H	-0.781155	-0.461349	-0.325964
H218	H	-0.281155	0.038651	0.174036
H219	H	-0.780197	-0.408475	-0.261737
H220	H	-0.280197	0.091525	0.238263
H221	H	-0.845378	-0.408480	-0.326967
H222	H	-0.345378	0.091520	0.173033
H223	H	-0.449464	-0.091979	-0.040354
H224	H	0.050536	0.408021	0.459646
C225	C	-0.872340	-0.859440	-0.234891
C226	C	-0.372340	-0.359440	0.265109
H227	H	-0.880520	-0.901876	-0.226723
H228	H	-0.380520	-0.401876	0.273277
H229	H	-0.816284	-0.849017	-0.225733
H230	H	-0.316284	-0.349017	0.274267
H231	H	-0.881470	-0.849017	-0.290960
H232	H	-0.381470	-0.349017	0.209040
H233	H	-1.095844	-0.265136	-0.011496
H234	H	-0.595844	0.234864	0.488504
C235	C	-1.169303	-0.566795	0.061907
C236	C	-0.669303	-0.066795	0.561907
H237	H	-1.203315	-0.538731	0.095887
H238	H	-0.703315	-0.038731	0.595887
H239	H	-1.139106	-0.591612	0.096903
H240	H	-0.639106	-0.091612	0.596903
H241	H	-1.204276	-0.591601	0.031661
H242	H	-0.704276	-0.091601	0.531661
H243	H	-1.095889	-0.734927	-0.011466
H244	H	-0.595889	-0.234927	0.488534
C245	C	-1.112205	-0.859410	0.004853
C246	C	-0.612205	-0.359410	0.504853
H247	H	-1.104018	-0.901847	-0.003318
H248	H	-0.604018	-0.401847	0.496682
H249	H	-1.168264	-0.848987	-0.004299
H250	H	-0.668264	-0.348987	0.495701
H251	H	-1.103072	-0.848984	0.060921
H252	H	-0.603072	-0.348984	0.560921
H253	H	-1.066842	-0.092094	0.342265
H254	H	-0.566842	0.407906	0.842265
H255	H	-0.888602	-0.265183	-0.218632
H256	H	-0.388602	0.234817	0.281368
C257	C	-0.872320	-0.725882	-0.234900
C258	C	-0.372320	-0.225882	0.265100
H259	H	-0.838319	-0.753943	-0.268895
H260	H	-0.338319	-0.253943	0.231105
H261	H	-0.837348	-0.701069	-0.204670
H262	H	-0.337348	-0.201069	0.295330
H263	H	-0.902538	-0.701071	-0.269892
H264	H	-0.402538	-0.201071	0.230108
H265	H	-0.917520	-0.091993	0.427729
H266	H	-0.417520	0.408007	0.927729
