data_functionalizedCrystal
_audit_creation_method	'MofGen! by Chris Wilmer'
_symmetry_space_group_name_H-M	'P1'
_symmetry_Int_Tables_number	1
_symmetry_cell_setting	triclinic
loop_
_symmetry_equiv_pos_as_xyz
  x,y,z
_cell_length_a	21.295419
_cell_length_b	21.295417
_cell_length_c	12.645331
_cell_angle_alpha	90.006514
_cell_angle_beta	90.005855
_cell_angle_gamma	90.044503
loop_
_atom_site_label
_atom_site_type_symbol
_atom_site_fract_x
_atom_site_fract_y
_atom_site_fract_z
Zn1	Zn	0.962243	-0.250520	0.599381
Zn2	Zn	0.962181	-0.355746	0.422096
Zn3	Zn	0.857000	-0.250522	0.422126
Zn4	Zn	0.856937	-0.355782	0.599312
O5	O	0.909590	-0.303142	0.510729
O6	O	1.050324	-0.264462	0.575880
O7	O	0.948229	-0.341773	0.273753
O8	O	0.871013	-0.162432	0.445681
O9	O	1.050279	-0.341771	0.445630
O10	O	0.948335	-0.162431	0.575909
O11	O	0.870954	-0.264465	0.273775
O12	O	0.768903	-0.264501	0.445614
O13	O	0.870905	-0.341834	0.747668
O14	O	0.768856	-0.341835	0.575792
O15	O	0.948273	-0.264498	0.747719
O16	O	0.948168	-0.443840	0.445563
O17	O	0.870845	-0.443867	0.575763
C18	C	0.746039	-0.303173	0.510699
C19	C	0.676071	-0.303201	0.510711
C20	C	0.643250	-0.263012	0.578638
C21	C	0.577508	-0.262995	0.578642
C22	C	0.544588	-0.303178	0.510731
C23	C	0.577417	-0.343370	0.442791
C24	C	0.643158	-0.343381	0.442782
N25	N	0.441315	-0.358254	0.502447
N26	N	0.378864	-0.358242	0.502463
C27	C	0.346513	-0.303146	0.510754
N28	N	0.378974	-0.248061	0.519050
N29	N	0.441431	-0.248074	0.519040
C30	C	0.473303	-0.303170	0.510733
C31	C	0.242407	-0.262935	0.578688
C32	C	0.176664	-0.262917	0.578685
C33	C	0.176574	-0.343298	0.442840
C34	C	0.242316	-0.343310	0.442838
C35	C	0.275229	-0.303129	0.510768
C36	C	0.909510	-0.466694	0.510675
C37	C	0.909533	-0.536662	0.510688
C38	C	0.949772	-0.569471	0.578546
C39	C	0.949794	-0.635213	0.578572
C40	C	0.909584	-0.668145	0.510721
C41	C	0.869339	-0.635328	0.442858
C42	C	0.869313	-0.569587	0.442841
N43	N	0.904843	-0.771385	0.417945
N44	N	0.904871	-0.833836	0.417964
C45	C	0.909658	-0.866219	0.510769
N46	N	0.914428	-0.833792	0.603557
N47	N	0.914404	-0.771335	0.603536
C48	C	0.909607	-0.739430	0.510732
C49	C	0.949922	-0.970314	0.578661
C50	C	0.949940	-1.036057	0.578689
C51	C	0.869488	-1.036171	0.442966
C52	C	0.869467	-0.970428	0.442947
C53	C	0.909688	-0.937504	0.510793
C54	C	1.073781	-0.303113	0.510759
C55	C	1.143749	-0.303100	0.510772
C56	C	0.909589	-0.303170	0.787234
C57	C	0.909588	-0.303181	0.905064
C58	C	0.909688	-0.138952	0.510806
C59	C	0.909730	-0.068984	0.510839
C60	C	0.860737	-0.351650	1.072596
C61	C	0.860886	-0.351856	0.950036
C62	C	0.975905	-0.321179	0.949579
C63	C	0.975616	-0.321517	1.072177
C64	C	0.892685	-0.236547	1.072278
C65	C	0.891226	-0.236913	0.949671
C66	C	0.909585	-0.303139	1.235299
C67	C	0.909578	-0.303155	1.117469
H68	H	0.269206	-0.230213	0.633994
O69	O	0.542101	-0.219643	0.651908
H70	H	0.490857	-0.226383	0.640495
H71	H	0.836745	-1.062982	0.387726
O72	O	0.994579	-0.386014	1.110063
H73	H	1.037709	-0.382234	1.158948
O74	O	0.678745	-0.219663	0.651885
H75	H	0.666123	-0.230535	0.735056
H76	H	0.845159	-0.220157	1.103186
H77	H	0.811710	-0.340594	0.919937
O78	O	0.277721	-0.386658	0.369575
H79	H	0.265064	-0.436081	0.387606
O80	O	0.826079	-0.935035	0.369737
H81	H	0.798128	-0.968976	0.322549
O82	O	0.795385	-0.336900	1.111622
H83	H	0.797013	-0.294851	1.163426
O84	O	0.875335	-0.416647	1.113443
H85	H	0.917229	-0.414564	1.165556
H86	H	0.842423	-0.223341	0.920575
H87	H	0.836599	-0.662145	0.387615
H88	H	0.928259	-0.200416	1.101300
H89	H	0.550609	-0.376087	0.387497
H90	H	0.872047	-0.401219	0.920710
H91	H	0.982555	-0.661932	0.633843
H92	H	0.149942	-0.230186	0.633997
O93	O	0.678564	-0.386730	0.369518
H94	H	0.644631	-0.414672	0.322295
H95	H	0.836546	-0.542873	0.387582
O96	O	0.141079	-0.386640	0.369590
H97	H	0.089850	-0.379884	0.381010
O98	O	0.993338	-1.071447	0.651892
H99	H	1.025393	-1.101377	0.604504
O100	O	0.993161	-0.533958	0.651701
H101	H	1.021147	-0.567821	0.698889
H102	H	0.982670	-0.943505	0.633910
O103	O	1.025461	-0.276773	1.111514
H104	H	1.049668	-0.254994	1.042969
O105	O	1.025422	-0.275862	0.910987
H106	H	1.003238	-0.239945	0.859543
H107	H	0.990483	-0.369343	0.918879
H108	H	0.924212	-0.198855	0.919059
