data_functionalizedCrystal
_audit_creation_method	'MofGen! by Chris Wilmer'
_symmetry_space_group_name_H-M	'P1'
_symmetry_Int_Tables_number	1
_symmetry_cell_setting	triclinic
loop_
_symmetry_equiv_pos_as_xyz
  x,y,z
_cell_length_a	16.625548
_cell_length_b	19.121063
_cell_length_c	19.120904
_cell_angle_alpha	94.741613
_cell_angle_beta	92.422750
_cell_angle_gamma	92.470058
loop_
_atom_site_label
_atom_site_type_symbol
_atom_site_fract_x
_atom_site_fract_y
_atom_site_fract_z
Zn1	Zn	1.198001	-0.297091	-0.409769
Zn2	Zn	1.698001	0.202909	0.090231
Zn3	Zn	1.197901	-0.409738	-0.297120
Zn4	Zn	1.697901	0.090262	0.202880
Zn5	Zn	1.069179	-0.292094	-0.292122
Zn6	Zn	1.569179	0.207906	0.207878
Zn7	Zn	1.057117	-0.414721	-0.414741
Zn8	Zn	1.557117	0.085279	0.085259
O9	O	1.130549	-0.353411	-0.353438
O10	O	1.630549	0.146589	0.146562
O11	O	1.310819	-0.312040	-0.394837
O12	O	1.810819	0.187960	0.105163
O13	O	1.185832	-0.389956	-0.197997
O14	O	1.685832	0.110044	0.302003
O15	O	1.091357	-0.194294	-0.303556
O16	O	1.591357	0.305706	0.196444
O17	O	1.310746	-0.394801	-0.312074
O18	O	1.810746	0.105199	0.187926
O19	O	1.186002	-0.197966	-0.389991
O20	O	1.686002	0.302034	0.110009
O21	O	1.091260	-0.303523	-0.194325
O22	O	1.591260	0.196477	0.305675
O23	O	0.954747	-0.308355	-0.308377
O24	O	1.454747	0.191645	0.191623
O25	O	1.070799	-0.403293	-0.512542
O26	O	1.570799	0.096707	-0.012542
O27	O	0.945885	-0.398448	-0.398464
O28	O	1.445885	0.101552	0.101536
O29	O	1.174306	-0.316871	-0.508889
O30	O	1.674306	0.183129	-0.008889
O31	O	1.174136	-0.508862	-0.316895
O32	O	1.674136	-0.008862	0.183105
O33	O	1.070702	-0.512522	-0.403310
O34	O	1.570702	-0.012522	0.096690
C35	C	0.921060	-0.353400	-0.353418
C36	C	1.421060	0.146600	0.146582
C37	C	0.831438	-0.353413	-0.353427
C38	C	1.331438	0.146587	0.146573
C39	C	1.121121	-0.536223	-0.361200
C40	C	1.621121	-0.036223	0.138800
C41	C	1.117159	-0.614432	-0.364544
C42	C	1.617159	-0.114432	0.135456
C43	C	0.503261	-0.353419	-0.353457
C44	C	1.003261	0.146581	0.146543
C45	C	0.594570	-0.353415	-0.353446
C46	C	1.094570	0.146585	0.146554
C47	C	0.667346	-0.353416	-0.353441
C48	C	1.167346	0.146584	0.146559
C49	C	0.758661	-0.353412	-0.353432
C50	C	1.258661	0.146588	0.146568
C51	C	1.169189	-0.649247	-0.321160
C52	C	1.669189	-0.149247	0.178840
C53	C	1.165468	-0.722733	-0.324309
C54	C	1.665468	-0.222733	0.175691
C55	C	1.109713	-0.761402	-0.370839
C56	C	1.609713	-0.261402	0.129161
C57	C	1.057681	-0.726582	-0.414227
C58	C	1.557681	-0.226582	0.085773
C59	C	1.061407	-0.653098	-0.411081
C60	C	1.561407	-0.153098	0.088919
C61	C	1.095772	-0.983374	-0.382590
C62	C	1.595772	-0.483374	0.117410
C63	C	1.092049	-1.056863	-0.385731
C64	C	1.592049	-0.556863	0.114269
C65	C	1.199838	-1.053009	-0.295814
C66	C	1.699838	-0.553009	0.204186
C67	C	1.203555	-0.979523	-0.292669
C68	C	1.703555	-0.479523	0.207331
C69	C	1.151526	-0.944710	-0.336060
C70	C	1.651526	-0.444710	0.163940
C71	C	1.105907	-0.836516	-0.374057
C72	C	1.605907	-0.336516	0.125943
C73	C	1.155337	-0.869597	-0.332845
C74	C	1.655337	-0.369597	0.167155
C75	C	1.340857	-0.353422	-0.353459
C76	C	1.840857	0.146578	0.146541
C77	C	1.430477	-0.353427	-0.353467
C78	C	1.930477	0.146573	0.146533
C79	C	1.121218	-0.361196	-0.536959
C80	C	1.621218	0.138804	-0.036959
C81	C	1.117242	-0.364513	-0.615164
C82	C	1.617242	0.135487	-0.115164
C83	C	1.140036	-0.169886	-0.345662
C84	C	1.640036	0.330114	0.154338
C85	C	1.144079	-0.091678	-0.342348
C86	C	1.644079	0.408322	0.157652
C87	C	1.169262	-0.321078	-0.650005
C88	C	1.669262	0.178922	-0.150005
C89	C	1.165516	-0.324193	-0.723488
C90	C	1.665516	0.175807	-0.223488
C91	C	1.109753	-0.370746	-0.762128
C92	C	1.609753	0.129254	-0.262128
C93	C	1.057728	-0.414182	-0.727282
C94	C	1.557728	0.085818	-0.227282
C95	C	1.061471	-0.411064	-0.653801
C96	C	1.561471	0.088936	-0.153801
C97	C	1.095753	-0.382409	-0.984089
C98	C	1.595753	0.117591	-0.484089
C99	C	1.092016	-0.385525	-1.057575
C100	C	1.592016	0.114475	-0.557575
C101	C	1.199804	-0.295534	-1.053775
C102	C	1.699804	0.204466	-0.553775
C103	C	1.203544	-0.292423	-0.980293
C104	C	1.703544	0.207577	-0.480293
C105	C	1.151516	-0.335857	-0.945453
C106	C	1.651516	0.164143	-0.445453
C107	C	1.105925	-0.373932	-0.837239
C108	C	1.605925	0.126068	-0.337239
C109	C	1.155342	-0.332667	-0.870344
C110	C	1.655342	0.167333	-0.370344
C111	C	1.139893	-0.345606	-0.170629
C112	C	1.639893	0.154394	0.329371
C113	C	1.144036	-0.342090	-0.092416
C114	C	1.644036	0.157910	0.407584
H115	H	1.214587	-0.617767	-0.283268
H116	H	1.714587	-0.117767	0.216732
Cl117	Cl	1.225433	-0.274138	-0.821766
Cl118	Cl	1.725433	0.225862	-0.321766
H119	H	1.053407	-0.955034	-0.417919
H120	H	1.553407	-0.455034	0.082081
H121	H	1.053400	-0.417786	-0.955732
H122	H	1.553400	0.082214	-0.455732
Cl123	Cl	1.265203	-0.240933	-1.097577
Cl124	Cl	1.765203	0.259067	-0.597577
H125	H	1.060526	-0.411838	-0.868708
H126	H	1.560526	0.088162	-0.368708
Cl127	Cl	0.987623	-0.472704	-0.775859
Cl128	Cl	1.487623	0.027296	-0.275859
H129	H	1.242198	-1.081362	-0.260489
H130	H	1.742198	-0.581362	0.239511
Cl131	Cl	1.273649	-0.233897	-0.931721
Cl132	Cl	1.773649	0.266103	-0.431721
H133	H	1.046656	-1.088346	-0.423634
H134	H	1.546656	-0.588346	0.076366
H135	H	1.019103	-0.446426	-0.625434
H136	H	1.519103	0.053574	-0.125434
H137	H	1.207836	-0.751076	-0.288981
H138	H	1.707836	-0.251076	0.211019
H139	H	1.046605	-0.423436	-1.089034
H140	H	1.546605	0.076564	-0.589034
Cl141	Cl	0.987593	-0.775195	-0.472726
Cl142	Cl	1.487593	-0.275195	0.027274
Cl143	Cl	1.273661	-0.930916	-0.234182
Cl144	Cl	1.773661	-0.430916	0.265818
Cl145	Cl	0.995997	-0.609330	-0.465625
Cl146	Cl	1.495997	-0.109330	0.034375
H147	H	1.200736	-0.838110	-0.294963
H148	H	1.700736	-0.338110	0.205037
Cl149	Cl	1.035816	-0.885135	-0.432549
Cl150	Cl	1.535816	-0.385135	0.067451
Cl151	Cl	1.239371	-0.262555	-0.601436
Cl152	Cl	1.739371	0.237445	-0.101436
H153	H	1.207878	-0.288825	-0.751851
H154	H	1.707878	0.211175	-0.251851
