data_functionalizedCrystal
_audit_creation_method	'MofGen! by Chris Wilmer'
_symmetry_space_group_name_H-M	'P1'
_symmetry_Int_Tables_number	1
_symmetry_cell_setting	triclinic
loop_
_symmetry_equiv_pos_as_xyz
  x,y,z
_cell_length_a	19.288864
_cell_length_b	11.026607
_cell_length_c	17.766277
_cell_angle_alpha	89.996915
_cell_angle_beta	89.976791
_cell_angle_gamma	95.861131
loop_
_atom_site_label
_atom_site_type_symbol
_atom_site_fract_x
_atom_site_fract_y
_atom_site_fract_z
O1	O	0.940539	0.151279	-0.062839
O2	O	0.740867	0.171687	-0.062788
O3	O	0.824155	-0.015080	-0.062806
O4	O	0.857252	0.338046	-0.062820
O5	O	0.824135	-0.015089	0.062382
O6	O	0.740847	0.171677	0.062401
O7	O	0.940520	0.151270	0.062350
Cu8	Cu	0.840682	0.161473	0.073806
Cu9	Cu	0.840705	0.161484	-0.074244
O10	O	0.857232	0.338036	0.062368
C11	C	0.714897	0.171025	-0.000187
C12	C	0.637544	0.169054	-0.000167
C13	C	0.606746	0.278640	-0.000183
C14	C	0.534064	0.276788	-0.000191
C15	C	0.492182	0.165344	-0.000198
C16	C	0.522988	0.055744	-0.000178
C17	C	0.595669	0.057599	-0.000162
C18	C	0.372816	0.077740	-0.044079
C19	C	0.300137	0.075890	-0.044100
C20	C	0.268011	0.159618	-0.000244
C21	C	0.308573	0.245218	0.043623
C22	C	0.381254	0.247073	0.043639
C23	C	0.413372	0.163320	-0.000215
C24	C	0.158403	0.267204	-0.000268
C25	C	0.085720	0.265347	-0.000271
C26	C	0.074645	0.044300	-0.000266
C27	C	0.147327	0.046159	-0.000255
C28	C	0.189202	0.157615	-0.000259
C29	C	0.818039	-0.060262	-0.000211
C30	C	0.799837	-0.194876	-0.000209
C31	C	0.850095	-0.268957	-0.000223
C32	C	0.831284	-0.408088	-0.000221
C33	C	0.966489	0.151931	-0.000253
C34	C	1.043843	0.153902	-0.000277
C35	C	0.863348	0.383218	-0.000228
C36	C	0.881550	0.517833	-0.000235
N37	N	0.840670	0.161464	0.177936
N38	N	0.840721	0.161483	-0.178374
C39	C	0.877570	0.078804	0.217315
C40	C	0.877573	0.078799	0.296117
C41	C	0.840686	0.161474	0.335537
C42	C	0.803778	0.244140	0.296149
C43	C	0.803770	0.244135	0.217349
C44	C	0.845401	0.271967	0.460372
C45	C	0.845414	0.271973	0.539171
C46	C	0.840706	0.161488	0.578583
C47	C	0.836000	0.050992	0.539187
C48	C	0.835992	0.050987	0.460387
C49	C	0.840690	0.161488	0.420983
C50	C	0.877612	0.078816	0.703408
C51	C	0.877610	0.078808	0.782211
C52	C	0.803819	0.244160	0.782242
C53	C	0.803816	0.244157	0.703440
C54	C	0.840716	0.161486	0.664028
H55	H	0.640837	0.369396	-0.000188
C56	C	0.722894	-0.248327	-0.000195
H57	H	0.693802	-0.183808	-0.000192
H58	H	0.713694	-0.297079	0.043460
H59	H	0.713715	-0.297054	-0.043857
C60	C	0.927038	-0.215506	-0.000240
H61	H	0.956130	-0.280025	-0.000253
H62	H	0.936220	-0.166771	0.043414
H63	H	0.936235	-0.166762	-0.043904
H64	H	0.774326	-0.447663	-0.000211
H65	H	0.282418	0.313397	0.079335
C66	C	0.958497	-0.428725	-0.000255
H67	H	0.987588	-0.493246	-0.000269
H68	H	0.967682	-0.379989	0.043397
H69	H	0.967693	-0.379983	-0.043920
H70	H	0.060646	0.354589	-0.000280
H71	H	0.907614	0.011486	0.185228
H72	H	0.172402	-0.043078	-0.000246
H73	H	0.907623	0.011485	0.328185
C74	C	0.830805	-0.070546	0.417052
H75	H	0.828098	-0.136349	0.451803
H76	H	0.870866	-0.073109	0.386204
H77	H	0.790237	-0.077165	0.386420
C78	C	0.830816	-0.070549	0.582530
H79	H	0.831485	-0.054726	0.635103
H80	H	0.869188	-0.113994	0.569601
H81	H	0.788565	-0.117899	0.569636
C82	C	0.425869	0.341213	0.091895
H83	H	0.396331	0.390812	0.118018
H84	H	0.456696	0.390903	0.060282
H85	H	0.452098	0.299993	0.127170
C86	C	0.918191	-0.012129	0.660052
H87	H	0.940159	-0.061373	0.694793
H88	H	0.952538	0.031362	0.629291
H89	H	0.886901	-0.062502	0.629331
C90	C	0.028584	-0.078287	-0.000278
H91	H	-0.019114	-0.063698	-0.000295
H92	H	0.038194	-0.123404	0.043379
H93	H	0.038246	-0.123381	-0.043938
C94	C	0.918204	-0.012120	0.825528
H95	H	0.940183	-0.061344	0.790767
H96	H	0.886930	-0.062497	0.856287
H97	H	0.952556	0.031393	0.856247
H98	H	0.620743	-0.031642	-0.000150
C99	C	0.500175	0.397334	-0.000213
H100	H	0.450891	0.380263	-0.000217
H101	H	0.514385	0.443047	-0.043869
H102	H	0.514334	0.443051	0.043448
H103	H	0.849223	0.361943	0.428289
C104	C	0.763243	0.335101	0.825594
H105	H	0.768535	0.323270	0.878165
H106	H	0.715267	0.322138	0.812706
H107	H	0.780903	0.416006	0.812667
H108	H	0.773772	0.311471	0.671376
C109	C	0.763184	0.335073	0.174030
H110	H	0.741217	0.384317	0.208790
H111	H	0.728834	0.291579	0.143307
H112	H	0.794470	0.385447	0.143276
H113	H	0.267117	0.006194	-0.079822
C114	C	0.850595	0.393512	0.582499
H115	H	0.853386	0.459312	0.547743
H116	H	0.891104	0.400071	0.613214
H117	H	0.810481	0.396143	0.613263
C118	C	0.763205	0.335083	0.339507
H119	H	0.768500	0.323257	0.392079
H120	H	0.715229	0.322120	0.326623
H121	H	0.780865	0.415988	0.326577
C122	C	0.204468	0.389797	-0.000265
H123	H	0.175714	0.454800	-0.000265
H124	H	0.233073	0.395120	-0.043917
H125	H	0.233028	0.395109	0.043401
H126	H	0.398967	0.009556	-0.079797
H127	H	0.488883	-0.034995	-0.000194
