data_functionalizedCrystal
_audit_creation_method	'MofGen! by Chris Wilmer'
_symmetry_space_group_name_H-M	'P1'
_symmetry_Int_Tables_number	1
_symmetry_cell_setting	triclinic
loop_
_symmetry_equiv_pos_as_xyz
  x,y,z
_cell_length_a	23.532407
_cell_length_b	19.188930
_cell_length_c	17.666332
_cell_angle_alpha	89.989658
_cell_angle_beta	90.003914
_cell_angle_gamma	97.003270
loop_
_atom_site_label
_atom_site_type_symbol
_atom_site_fract_x
_atom_site_fract_y
_atom_site_fract_z
O1	O	0.755443	-0.084756	0.062862
O2	O	1.255443	0.415244	0.562862
O3	O	0.589606	-0.097020	0.062886
O4	O	1.089606	0.402980	0.562886
O5	O	0.677310	0.010783	0.062858
O6	O	1.177310	0.510783	0.562858
O7	O	0.667739	-0.192559	0.062889
O8	O	1.167739	0.307441	0.562889
O9	O	0.677295	0.010786	-0.063038
O10	O	1.177295	0.510786	0.436962
O11	O	0.589591	-0.097017	-0.063011
O12	O	1.089591	0.402983	0.436989
O13	O	0.755428	-0.084753	-0.063035
O14	O	1.255428	0.415247	0.436965
Cu15	Cu	0.672508	-0.090885	-0.074518
Cu16	Cu	1.172508	0.409115	0.425482
Cu17	Cu	0.672526	-0.090888	0.074369
Cu18	Cu	1.172526	0.409112	0.574369
O19	O	0.667724	-0.192556	-0.063007
O20	O	1.167724	0.307444	0.436993
C21	C	0.568382	-0.096706	-0.000060
C22	C	1.068382	0.403294	0.499940
C23	C	0.505163	-0.095767	-0.000052
C24	C	1.005163	0.404233	0.499948
N25	N	0.672499	-0.090882	-0.179238
N26	N	1.172499	0.409118	0.320762
C27	C	0.676993	0.036794	-0.000092
C28	C	1.176993	0.536794	0.499908
C29	C	0.676062	0.114296	-0.000098
C30	C	1.176062	0.614296	0.499902
C31	C	0.106183	-0.153674	-0.000077
C32	C	0.606183	0.346326	0.499923
C33	C	0.046780	-0.152801	-0.000082
C34	C	0.546780	0.347199	0.499918
O35	O	0.010150	-0.206481	-0.000101
O36	O	0.510150	0.293519	0.499899
N37	N	0.024018	-0.088713	-0.000090
N38	N	0.524018	0.411287	0.499910
C39	C	0.060662	-0.025492	-0.000102
C40	C	0.560662	0.474508	0.499898
O41	O	0.035846	0.029100	-0.000110
O42	O	0.535846	0.529100	0.499890
C43	C	0.120062	-0.026365	-0.000102
C44	C	0.620062	0.473635	0.499898
C45	C	0.142821	-0.090458	-0.000086
C46	C	0.642821	0.409542	0.499914
C47	C	0.128942	-0.217761	-0.000062
C48	C	0.628942	0.282239	0.499938
C49	C	0.188340	-0.218633	-0.000056
C50	C	0.688340	0.281367	0.499944
C51	C	0.224979	-0.155417	-0.000065
C52	C	0.724979	0.344583	0.499935
C53	C	0.202219	-0.091330	-0.000080
C54	C	0.702219	0.408670	0.499920
C55	C	0.156705	0.036855	-0.000119
C56	C	0.656705	0.536855	0.499881
C57	C	0.216109	0.035976	-0.000121
C58	C	0.716109	0.535976	0.499879
C59	C	0.238868	-0.028116	-0.000104
C60	C	0.738868	0.471884	0.499896
C61	C	0.298256	-0.028986	-0.000083
C62	C	0.798256	0.471014	0.499917
N63	N	0.321018	-0.093075	-0.000075
N64	N	0.821018	0.406925	0.499925
C65	C	0.284379	-0.156290	-0.000065
C66	C	0.784379	0.343710	0.499935
C67	C	-0.064085	-0.023664	-0.000102
C68	C	0.435915	0.476336	0.499898
C69	C	-0.123485	-0.022790	-0.000096
C70	C	0.376515	0.477210	0.499904
C71	C	-0.137362	-0.150099	-0.000077
C72	C	0.362638	0.349901	0.499923
C73	C	-0.077961	-0.150972	-0.000078
C74	C	0.422039	0.349028	0.499922
C75	C	-0.041323	-0.087752	-0.000093
C76	C	0.458677	0.412248	0.499907
C77	C	0.409120	-0.158117	-0.000052
C78	C	0.909120	0.341883	0.499948
C79	C	0.468524	-0.158983	-0.000043
C80	C	0.968524	0.341017	0.499957
C81	C	0.482396	-0.031674	-0.000065
C82	C	0.982396	0.468326	0.499935
C83	C	0.422997	-0.030807	-0.000070
C84	C	0.922997	0.469193	0.499930
C85	C	0.386360	-0.094034	-0.000066
C86	C	0.886360	0.405966	0.499934
O87	O	0.334921	0.024666	-0.000067
O88	O	0.834921	0.524666	0.499933
O89	O	0.309203	-0.210874	-0.000067
O90	O	0.809203	0.289126	0.499933
C91	C	0.776652	-0.085067	-0.000087
C92	C	1.276652	0.414933	0.499913
C93	C	0.839871	-0.086006	-0.000091
C94	C	1.339871	0.413994	0.499909
C95	C	0.668041	-0.218568	-0.000055
C96	C	1.168041	0.281432	0.499945
C97	C	0.668972	-0.296069	-0.000044
C98	C	1.168972	0.203931	0.499956
C99	C	0.727524	0.159384	-0.000109
C100	C	1.227524	0.659384	0.499891
C101	C	0.726650	0.232205	-0.000097
C102	C	1.226650	0.732205	0.499903
C103	C	0.674311	0.259935	-0.000089
C104	C	1.174311	0.759935	0.499911
C105	C	0.622842	0.214837	-0.000074
C106	C	1.122842	0.714837	0.499926
C107	C	0.623718	0.142017	-0.000079
C108	C	1.123718	0.642017	0.499921
N109	N	0.634299	0.367813	-0.042929
N110	N	1.134299	0.867813	0.457071
N111	N	0.633471	0.436989	-0.042926
N112	N	1.133471	0.936989	0.457074
C113	C	0.671670	0.479335	-0.000073
C114	C	1.171670	0.979335	0.499927
N115	N	0.710737	0.449893	0.042766
N116	N	1.210737	0.949893	0.542766
N117	N	0.711567	0.380711	0.042760
N118	N	1.211567	0.880711	0.542760
C119	C	0.673356	0.338894	-0.000084
C120	C	1.173356	0.838894	0.499916
C121	C	0.722188	0.603384	-0.000070
C122	C	1.222188	1.103384	0.499930
C123	C	0.721311	0.676206	-0.000053
C124	C	1.221311	1.176206	0.499947
C125	C	0.617502	0.658836	-0.000038
C126	C	1.117502	1.158836	0.499962
C127	C	0.618380	0.586016	-0.000047
C128	C	1.118380	1.086016	0.499953
C129	C	0.670724	0.558295	-0.000067
C130	C	1.170724	1.058295	0.499933
C131	C	0.706928	-0.133017	-0.218839
C132	C	1.206928	0.366983	0.281161
C133	C	0.706937	-0.133015	-0.298087
C134	C	1.206937	0.366985	0.201913
C135	C	0.672507	-0.090886	-0.337730
C136	C	1.172507	0.409114	0.162270
C137	C	0.638076	-0.048742	-0.298118
C138	C	1.138076	0.451258	0.201882
C139	C	0.638072	-0.048740	-0.218872
C140	C	1.138072	0.451260	0.281128
N141	N	0.622629	-0.089325	-0.462163
N142	N	1.122629	0.410675	0.037837
N143	N	0.622634	-0.089331	-0.537443
N144	N	1.122634	0.410669	-0.037443
C145	C	0.672517	-0.090888	-0.576494
C146	C	1.172517	0.409112	-0.076494
N147	N	0.722395	-0.092453	-0.537420
N148	N	1.222395	0.407547	-0.037420
N149	N	0.722389	-0.092451	-0.462132
N150	N	1.222389	0.407549	0.037868
C151	C	0.672507	-0.090883	-0.423659
C152	C	1.172507	0.409117	0.076341
C153	C	0.706959	-0.133024	-0.702025
C154	C	1.206959	0.366976	-0.202025
C155	C	0.706970	-0.133017	-0.781274
C156	C	1.206970	0.366983	-0.281274
C157	C	0.638102	-0.048747	-0.781304
C158	C	1.138102	0.451253	-0.281304
C159	C	0.638097	-0.048750	-0.702056
C160	C	1.138097	0.451250	-0.202056
C161	C	0.672525	-0.090892	-0.662422
C162	C	1.172525	0.409108	-0.162422
N163	N	0.672539	-0.090886	0.179089
N164	N	1.172539	0.409114	0.679089
H165	H	0.379297	-0.209602	-0.000051
H166	H	0.879297	0.290398	0.499949
H167	H	0.610059	-0.014442	-0.669812
H168	H	1.110059	0.485558	-0.169812
O169	O	0.600964	-0.003306	-0.824048
O170	O	1.100964	0.496694	-0.324048
H171	H	0.606747	-0.010389	-0.885807
H172	H	1.106747	0.489611	-0.385807
O173	O	0.493068	-0.228117	-0.000038
O174	O	0.993068	0.271883	0.499962
H175	H	0.478333	-0.258479	0.051273
H176	H	0.978333	0.241521	0.551273
H177	H	0.581810	0.105305	-0.000070
H178	H	1.081810	0.605305	0.499930
O179	O	0.562874	0.537378	-0.000043
O180	O	1.062874	1.037378	0.499957
H181	H	0.560788	0.503794	-0.051356
H182	H	1.060788	1.003794	0.448644
O183	O	0.212884	-0.287761	-0.000061
O184	O	0.712884	0.212239	0.499939
H185	H	0.177420	-0.331566	-0.000068
H186	H	0.677420	0.168434	0.499932
H187	H	0.763220	0.712917	-0.000058
H188	H	1.263220	1.212917	0.499942
H189	H	0.770147	0.136819	-0.000123
H190	H	1.270147	0.636819	0.499877
O191	O	0.600936	-0.003304	-0.340869
O192	O	1.100936	0.496696	0.159131
H193	H	0.606717	-0.010390	-0.402628
H194	H	1.106717	0.489610	0.097372
H195	H	0.138185	0.089046	-0.000133
H196	H	0.638185	0.589046	0.499867
O197	O	0.089428	-0.285949	-0.000053
O198	O	0.589428	0.214051	0.499947
H199	H	0.097507	-0.316633	0.051270
H200	H	0.597507	0.183367	0.551270
O201	O	-0.053414	-0.220099	-0.000075
O202	O	0.446586	0.279901	0.499925
H203	H	-0.088876	-0.263907	-0.000075
H204	H	0.411124	0.236093	0.499925
H205	H	-0.142009	0.029401	-0.000097
H206	H	0.357991	0.529401	0.499903
H207	H	0.734964	-0.167330	-0.186574
H208	H	1.234964	0.332670	0.313426
H209	H	-0.167204	-0.201573	-0.000073
H210	H	0.332796	0.298427	0.499927
H211	H	0.768558	0.268923	-0.000103
H212	H	1.268558	0.768923	0.499897
O213	O	-0.024568	0.044528	-0.000107
O214	O	0.475432	0.544528	0.499893
H215	H	-0.050380	0.089234	-0.000107
H216	H	0.449620	0.589234	0.499893
O217	O	0.255627	0.104165	-0.000134
O218	O	0.755627	0.604165	0.499866
H219	H	0.229818	0.148874	-0.000140
H220	H	0.729818	0.648874	0.499860
O221	O	0.398444	0.038319	-0.000085
O222	O	0.898444	0.538319	0.499915
H223	H	0.433903	0.082129	-0.000094
H224	H	0.933903	0.582129	0.499906
O225	O	0.744068	-0.178469	-0.340816
O226	O	1.244068	0.321531	0.159184
H227	H	0.768003	-0.207776	-0.299941
H228	H	1.268003	0.292224	0.200059
O229	O	0.566391	0.244742	-0.000075
O230	O	1.066391	0.744742	0.499925
H231	H	0.563516	0.277502	0.051234
H232	H	1.063516	0.777502	0.551234
O233	O	0.600931	-0.003299	-0.176151
O234	O	1.100931	0.496701	0.323849
H235	H	0.576987	0.025996	-0.217027
H236	H	1.076987	0.525996	0.282973
H237	H	0.735010	-0.167326	-0.813516
H238	H	1.235010	0.332674	-0.313516
O239	O	0.521918	0.036508	-0.000086
O240	O	1.021918	0.536508	0.499914
H241	H	0.567045	0.025128	-0.000091
H242	H	1.067045	0.525128	0.499909
O243	O	0.778641	0.573476	-0.000076
O244	O	1.278641	1.073476	0.499924
H245	H	0.814280	0.617066	-0.000067
H246	H	1.314280	1.117066	0.499933
H247	H	0.734992	-0.167338	-0.669753
H248	H	1.234992	0.332662	-0.169753
H249	H	0.574886	0.681413	-0.000027
H250	H	1.074886	1.181413	0.499973
