data_functionalizedCrystal
_audit_creation_method	'MofGen! by Chris Wilmer'
_symmetry_space_group_name_H-M	'P1'
_symmetry_Int_Tables_number	1
_symmetry_cell_setting	triclinic
loop_
_symmetry_equiv_pos_as_xyz
  x,y,z
_cell_length_a	16.109301
_cell_length_b	12.811415
_cell_length_c	14.586319
_cell_angle_alpha	84.565349
_cell_angle_beta	89.999213
_cell_angle_gamma	83.754001
loop_
_atom_site_label
_atom_site_type_symbol
_atom_site_fract_x
_atom_site_fract_y
_atom_site_fract_z
O1	O	1.103627	0.134912	-0.087397
O2	O	0.861626	0.151702	-0.088808
O3	O	0.988715	-0.009488	-0.075395
O4	O	0.976539	0.296102	-0.100810
O5	O	0.988706	-0.009490	0.077086
O6	O	0.861618	0.151699	0.063673
O7	O	1.103618	0.134910	0.065084
Cu8	Cu	0.982617	0.143304	0.078301
Cu9	Cu	0.982627	0.143307	-0.102025
O10	O	0.976530	0.296099	0.051671
C11	C	0.830645	0.151021	-0.012512
C12	C	0.738342	0.148982	-0.012348
C13	C	0.988028	-0.048593	0.004096
C14	C	0.985984	-0.165110	0.013781
C15	C	0.516404	0.239887	-0.019898
C16	C	0.429676	0.237963	-0.019732
C17	C	0.448847	0.046717	-0.003830
C18	C	0.535573	0.048642	-0.003990
C19	C	0.569349	0.145230	-0.012029
C20	C	0.395895	0.141381	-0.011703
C21	C	0.301862	0.139294	-0.011523
C22	C	0.663388	0.147318	-0.012207
C23	C	0.982139	-0.384045	-0.134275
C24	C	0.980219	-0.493523	-0.125180
C25	C	0.980218	-0.493547	0.041065
C26	C	0.982138	-0.384068	0.031970
C27	C	0.983100	-0.329321	-0.055703
C28	C	0.985026	-0.219842	-0.064797
C29	C	0.985019	-0.219866	0.101447
C30	C	0.983099	-0.329345	0.110542
C31	C	1.134600	0.135591	-0.011214
C32	C	1.226902	0.137630	-0.011384
C33	C	0.977217	0.335204	-0.027822
C34	C	0.979260	0.451722	-0.037513
N35	N	0.982616	0.143302	0.205133
N36	N	0.982635	0.143302	-0.228856
C37	C	1.038909	0.071951	0.446077
C38	C	1.038911	0.071948	0.542058
C39	C	0.926336	0.214656	0.530193
C40	C	0.926330	0.214652	0.434214
C41	C	0.982621	0.143301	0.392158
C42	C	0.982629	0.143302	0.584119
C43	C	0.982632	0.143300	0.688186
C44	C	0.982618	0.143302	0.288084
H45	H	0.543900	0.318535	-0.026437
H46	H	0.578684	-0.028443	0.002422
O47	O	1.093556	0.002497	0.594346
C48	C	1.079672	-0.101411	0.579553
H49	H	1.047623	-0.101293	0.509858
H50	H	1.038182	-0.133888	0.636276
C51	C	1.203209	-0.171350	0.666517
C52	C	1.163852	-0.171206	0.580913
H53	H	1.255135	-0.214405	0.667360
H54	H	1.212562	-0.101346	0.676487
H55	H	1.168625	-0.198412	0.713777
H56	H	1.198432	-0.144133	0.533657
H57	H	1.154507	-0.241208	0.570936
H58	H	0.386571	0.315042	-0.026139
O59	O	0.415898	-0.047012	0.003923
C60	C	0.327998	-0.028416	0.002396
H61	H	0.307916	0.053501	-0.033282
H62	H	0.303839	-0.033500	0.075971
C63	C	0.316409	-0.212505	-0.006642
C64	C	0.291744	-0.111896	-0.050470
H65	H	0.294044	-0.264001	-0.039248
H66	H	0.375629	-0.225035	-0.005610
H67	H	0.296275	-0.216727	0.054668
H68	H	0.311887	-0.107672	-0.111775
H69	H	0.232526	-0.099368	-0.051513
H70	H	0.985811	-0.175269	-0.136185
H71	H	0.985805	-0.175299	0.165426
H72	H	0.880506	0.272750	0.564444
O73	O	0.979395	-0.546810	-0.201438
C74	C	1.050213	-0.622030	-0.200183
H75	H	1.073905	-0.642422	-0.126324
H76	H	1.101312	-0.588169	-0.244013
C77	C	0.997441	-0.697347	-0.330090
C78	C	1.026536	-0.722399	-0.239374
H79	H	0.982837	-0.759257	-0.354269
H80	H	0.949731	-0.646667	-0.330939
H81	H	1.040028	-0.669127	-0.366604
H82	H	0.983945	-0.750605	-0.202860
H83	H	1.074238	-0.773086	-0.238520
H84	H	0.982929	-0.339470	-0.205661
H85	H	0.880490	0.272755	0.390309
O86	O	0.979184	-0.546848	0.126168
C87	C	0.906150	-0.598253	0.135427
H88	H	0.881870	-0.610649	0.064292
H89	H	0.856536	-0.547746	0.172275
C90	C	0.956012	-0.690664	0.279228
C91	C	0.926195	-0.705896	0.191858
H92	H	0.968374	-0.757061	0.314040
H93	H	1.005215	-0.656029	0.272992
H94	H	0.914662	-0.648571	0.309922
H95	H	0.967548	-0.747977	0.161161
H96	H	0.876999	-0.740541	0.198090
O97	O	0.982057	-0.382630	0.195651
C98	C	0.909018	-0.434026	0.204913
H99	H	0.884746	-0.446442	0.133779
H100	H	0.859402	-0.383501	0.241741
C101	C	0.958858	-0.526396	0.348738
C102	C	0.929050	-0.541654	0.261370
H103	H	0.971212	-0.592785	0.383567
H104	H	1.008064	-0.491767	0.342501
H105	H	0.917506	-0.484289	0.379416
H106	H	0.970406	-0.583749	0.230689
H107	H	0.879851	-0.576293	0.267604
O108	O	1.093451	0.002552	0.405150
C109	C	1.048670	-0.062231	0.355074
H110	H	0.983776	-0.020409	0.337199
H111	H	1.042713	-0.139772	0.398554
C112	C	1.175163	-0.136111	0.287739
C113	C	1.095461	-0.084741	0.265778
H114	H	1.204027	-0.150002	0.232659
H115	H	1.205334	-0.092469	0.321479
H116	H	1.170188	-0.200723	0.323974
H117	H	1.100438	-0.020126	0.229554
H118	H	1.065292	-0.128374	0.232030
