data_functionalizedCrystal
_audit_creation_method	'MofGen! by Chris Wilmer'
_symmetry_space_group_name_H-M	'P1'
_symmetry_Int_Tables_number	1
_symmetry_cell_setting	triclinic
loop_
_symmetry_equiv_pos_as_xyz
  x,y,z
_cell_length_a	10.723024
_cell_length_b	9.616153
_cell_length_c	10.723024
_cell_angle_alpha	90.001062
_cell_angle_beta	84.467869
_cell_angle_gamma	90.006580
loop_
_atom_site_label
_atom_site_type_symbol
_atom_site_fract_x
_atom_site_fract_y
_atom_site_fract_z
O1	O	1.657193	0.115633	0.175022
O2	O	2.157193	0.615633	0.675022
O3	O	1.294041	0.115637	0.191776
O4	O	1.794041	0.615637	0.691776
O5	O	1.483994	0.115630	0.001823
O6	O	1.983994	0.615630	0.501823
O7	O	1.467240	0.115640	0.364975
O8	O	1.967240	0.615640	0.864975
O9	O	1.483968	-0.115662	0.001827
O10	O	1.983968	0.384338	0.501827
O11	O	1.294015	-0.115654	0.191779
O12	O	1.794015	0.384346	0.691779
O13	O	1.657167	-0.115659	0.175026
O14	O	2.157167	0.384341	0.675026
Zn15	Zn	1.475587	-0.152379	0.183403
Zn16	Zn	1.975587	0.347621	0.683403
Zn17	Zn	1.475621	0.152357	0.183398
Zn18	Zn	1.975621	0.652357	0.683398
O19	O	1.467214	-0.115651	0.364979
O20	O	1.967214	0.384349	0.864979
C21	C	1.247528	-0.000008	0.190558
C22	C	1.747528	0.499992	0.690558
C23	C	1.108974	-0.000006	0.186911
C24	C	1.608974	0.499994	0.686911
N25	N	1.475572	-0.360353	0.183406
N26	N	1.975572	0.139647	0.683406
C27	C	1.033991	-0.000002	0.293198
C28	C	1.533991	0.499998	0.793198
C29	C	0.890788	-0.000001	0.289431
C30	C	1.390788	0.499999	0.789431
C31	C	1.373650	-0.580719	0.284678
C32	C	1.873650	-0.080719	0.784678
C33	C	1.373874	-0.419552	0.285057
C34	C	1.873874	0.080448	0.785057
C35	C	1.606028	-0.418803	0.212963
C36	C	2.106028	0.081197	0.712963
C37	C	1.605473	-0.580021	0.213679
C38	C	2.105473	-0.080021	0.713679
C39	C	1.448338	-0.580268	0.052246
C40	C	1.948338	-0.080268	0.552246
C41	C	1.445343	-0.419042	0.053098
C42	C	1.945343	0.080958	0.553098
C43	C	1.703680	-0.000010	0.176243
C44	C	2.203680	0.499990	0.676243
C45	C	1.842234	-0.000003	0.179891
C46	C	2.342234	0.499997	0.679891
C47	C	1.482762	-0.000014	-0.044675
C48	C	1.982762	0.499986	0.455325
C49	C	1.479114	-0.000009	-0.183229
C50	C	1.979114	0.499991	0.316771
N51	N	1.475646	0.360332	0.183386
N52	N	1.975646	0.860332	0.683386
C53	C	1.585401	-0.000009	-0.258212
C54	C	2.085401	0.499991	0.241788
C55	C	1.581634	-0.000004	-0.401415
C56	C	2.081634	0.499996	0.098585
C57	C	1.468447	-0.000004	0.411477
C58	C	1.968447	0.499996	0.911477
C59	C	1.472094	0.000000	0.550031
C60	C	1.972094	0.500000	1.050031
H61	H	1.075814	-0.000008	0.386984
H62	H	1.575814	0.499992	0.886984
H63	H	1.683800	-0.619013	0.142872
H64	H	2.183800	-0.119013	0.642872
H65	H	1.276413	-0.619530	0.267177
H66	H	1.776413	-0.119530	0.767177
H67	H	1.067152	0.000027	0.093125
H68	H	1.567152	0.500027	0.593125
Cl69	Cl	0.941699	0.000003	0.039396
Cl70	Cl	1.441699	0.500003	0.539396
Cl71	Cl	1.331599	-0.000012	-0.350504
Cl72	Cl	1.831599	0.499988	0.149496
H73	H	1.630456	-0.378411	0.307555
H74	H	2.130456	0.121589	0.807555
Cl75	Cl	0.791315	0.000016	0.429921
Cl76	Cl	1.291315	0.500016	0.929921
H77	H	1.276940	-0.380036	0.267282
H78	H	1.776940	0.119964	0.767282
H79	H	1.679187	-0.000018	-0.216390
H80	H	2.179187	0.499982	0.283610
H81	H	1.522705	-0.618387	-0.023145
H82	H	2.022705	-0.118387	0.476855
Cl83	Cl	1.400401	-0.643209	0.434051
Cl84	Cl	1.900401	-0.143209	0.934051
Cl85	Cl	1.400915	-0.359973	0.435288
Cl86	Cl	1.900915	0.140027	0.935288
H87	H	1.629366	-0.617607	0.309353
H88	H	2.129366	-0.117607	0.809353
H89	H	1.683778	-0.380454	0.141198
H90	H	2.183778	0.119546	0.641198
Cl91	Cl	1.334308	0.000006	-0.247788
Cl92	Cl	1.834308	0.500006	0.252212
Cl93	Cl	1.304549	-0.643113	0.008815
Cl94	Cl	1.804549	-0.143113	0.508815
Cl95	Cl	1.297172	-0.360065	0.018501
Cl96	Cl	1.797172	0.139935	0.518501
Cl97	Cl	1.552457	-0.356856	-0.068864
Cl98	Cl	2.052457	0.143144	0.431136
H99	H	1.672624	-0.000009	-0.465848
H100	H	2.172624	0.499991	0.034152
