data_functionalizedCrystal
_audit_creation_method	'MofGen! by Chris Wilmer'
_symmetry_space_group_name_H-M	'P1'
_symmetry_Int_Tables_number	1
_symmetry_cell_setting	triclinic
loop_
_symmetry_equiv_pos_as_xyz
  x,y,z
_cell_length_a	13.262402
_cell_length_b	13.339070
_cell_length_c	17.766277
_cell_angle_alpha	89.997794
_cell_angle_beta	105.908980
_cell_angle_gamma	99.431904
loop_
_atom_site_label
_atom_site_type_symbol
_atom_site_fract_x
_atom_site_fract_y
_atom_site_fract_z
O1	O	1.432352	0.136451	0.230666
O2	O	1.932352	0.636451	0.730666
O3	O	1.131101	0.151280	0.168987
O4	O	1.631101	0.651280	0.668987
O5	O	1.247153	-0.003544	0.192750
O6	O	1.747153	0.496456	0.692750
O7	O	1.316300	0.291275	0.206903
O8	O	1.816300	0.791275	0.706903
O9	O	1.247122	-0.003552	0.317932
O10	O	1.747122	0.496448	0.817932
O11	O	1.131070	0.151272	0.294169
O12	O	1.631070	0.651272	0.794169
O13	O	1.432322	0.136443	0.355848
O14	O	1.932322	0.636443	0.855848
Cu15	Cu	1.281693	0.143856	0.336439
Cu16	Cu	1.781693	0.643856	0.836439
Cu17	Cu	1.281729	0.143866	0.188396
Cu18	Cu	1.781729	0.643866	0.688396
O19	O	1.316270	0.291267	0.332085
O20	O	1.816270	0.791267	0.832085
C21	C	1.091741	0.150444	0.223522
C22	C	1.591741	0.650444	0.723522
C23	C	0.974503	0.147953	0.199519
C24	C	1.474503	0.647953	0.699519
C25	C	0.919440	0.146785	0.120003
C26	C	1.419440	0.646785	0.620003
C27	C	0.809291	0.144454	0.097452
C28	C	1.309291	0.644454	0.597452
C29	C	0.754192	0.143283	0.154414
C30	C	1.254192	0.643283	0.654414
C31	C	0.809254	0.144443	0.233932
C32	C	1.309254	0.644443	0.733932
C33	C	0.919416	0.146782	0.256485
C34	C	1.419416	0.646782	0.756485
C35	C	0.754168	0.143280	0.290897
C36	C	1.254168	0.643280	0.790897
C37	C	0.809230	0.144440	0.370414
C38	C	1.309230	0.644440	0.870414
C39	C	0.919380	0.146778	0.392964
C40	C	1.419380	0.646778	0.892964
C41	C	0.974479	0.147949	0.336001
C42	C	1.474479	0.647949	0.836001
C43	C	0.644007	0.140940	0.268343
C44	C	1.144007	0.640940	0.768343
C45	C	0.643982	0.140937	0.404825
C46	C	1.143982	0.640937	0.904825
C47	C	0.754132	0.143268	0.427376
C48	C	1.254132	0.643268	0.927376
C49	C	1.235457	-0.041287	0.252948
C50	C	1.735457	0.458713	0.752948
C51	C	1.200640	-0.153736	0.245817
C52	C	1.700640	0.346264	0.745817
C53	C	1.471356	-0.517385	0.301244
C54	C	1.971356	-0.017385	0.801244
C55	C	1.504071	-0.411734	0.307949
C56	C	2.004071	0.088266	0.807949
C57	C	1.428216	-0.347229	0.292417
C58	C	1.928216	0.152771	0.792417
C59	C	1.319640	-0.388386	0.270178
C60	C	1.819640	0.111614	0.770178
C61	C	1.286922	-0.494047	0.263478
C62	C	1.786922	0.005953	0.763478
C63	C	1.243782	-0.323892	0.254650
C64	C	1.743782	0.176108	0.754650
C65	C	1.135206	-0.365048	0.232412
C66	C	1.635206	0.134952	0.732412
C67	C	1.102493	-0.470700	0.225712
C68	C	1.602493	0.029300	0.725712
C69	C	1.178348	-0.535204	0.241245
C70	C	1.678348	-0.035204	0.741245
C71	C	1.276501	-0.218230	0.261350
C72	C	1.776501	0.281770	0.761350
C73	C	1.092067	-0.194893	0.223584
C74	C	1.592067	0.305107	0.723584
C75	C	1.059352	-0.300544	0.216879
C76	C	1.559352	0.199456	0.716879
C77	C	1.471682	0.137279	0.301311
C78	C	1.971682	0.637279	0.801311
C79	C	1.588919	0.139770	0.325309
C80	C	2.088919	0.639770	0.825309
C81	C	1.327966	0.329009	0.271885
C82	C	1.827966	0.829009	0.771885
C83	C	1.362782	0.441458	0.279011
C84	C	1.862782	0.941458	0.779011
N85	N	1.281675	0.143849	0.440565
N86	N	1.781675	0.643849	0.940565
N87	N	1.281753	0.143865	0.084271
N88	N	1.781753	0.643865	0.584271
C89	C	1.333096	0.075327	0.490481
C90	C	1.833096	0.575327	0.990481
C91	C	1.333100	0.075322	0.569284
C92	C	1.833100	0.575322	1.069284
C93	C	1.281700	0.143857	0.598171
C94	C	1.781700	0.643857	1.098171
C95	C	1.230267	0.212385	0.548243
C96	C	1.730267	0.712385	1.048243
C97	C	1.230255	0.212381	0.469440
C98	C	1.730255	0.712381	0.969440
C99	C	1.294794	0.236045	0.725688
C100	C	1.794794	0.736045	1.225688
C101	C	1.294814	0.236050	0.804491
C102	C	1.794814	0.736050	1.304491
C103	C	1.281731	0.143870	0.841224
C104	C	1.781731	0.643870	1.341224
C105	C	1.268650	0.051680	0.799148
C106	C	1.768650	0.551680	1.299148
C107	C	1.268638	0.051676	0.720345
C108	C	1.768638	0.551676	1.220345
C109	C	1.281707	0.143869	0.683618
C110	C	1.781707	0.643869	1.183618
C111	C	1.333159	0.075337	0.976587
C112	C	1.833159	0.575337	1.476587
C113	C	1.333156	0.075331	1.055390
C114	C	1.833156	0.575331	1.555390
C115	C	1.230330	0.212402	1.034349
C116	C	1.730330	0.712402	1.534349
C117	C	1.230326	0.212399	0.955546
C118	C	1.730326	0.712399	1.455546
C119	C	1.281746	0.143868	0.926671
C120	C	1.781746	0.643868	1.426671
H121	H	0.599186	0.139997	0.203600
H122	H	1.099186	0.639997	0.703600
F123	F	1.552073	-0.586039	0.317784
F124	F	2.052073	-0.086039	0.817784
H125	H	0.798979	0.144214	0.492121
H126	H	1.298979	0.644214	0.992121
H127	H	1.151717	-0.621235	0.235784
H128	H	1.651717	-0.121235	0.735784
F129	F	1.175558	0.285322	0.578986
F130	F	1.675558	0.785322	1.078986
H131	H	1.257996	-0.023383	0.829053
H132	H	1.757996	0.476617	1.329053
H133	H	1.257984	-0.023389	0.686089
H134	H	1.757984	0.476611	1.186089
F135	F	1.308743	0.334166	0.849266
F136	F	1.808743	0.834166	1.349266
H137	H	0.970947	-0.334069	0.198772
H138	H	1.470947	0.165931	0.698772
H139	H	1.188459	0.268201	0.914903
H140	H	1.688459	0.768201	1.414903
F141	F	1.175524	0.285315	0.416313
F142	F	1.675524	0.785315	0.916313
H143	H	1.305430	0.311114	0.695784
H144	H	1.805430	0.811114	1.195784
H145	H	0.764467	0.143511	0.032709
H146	H	1.264467	0.643511	0.532709
F147	F	1.387880	0.002396	0.945854
F148	F	1.887880	0.502396	1.445854
F149	F	1.619620	-0.367939	0.331604
F150	F	2.119620	0.132061	0.831604
F151	F	1.011330	-0.126247	0.207056
F152	F	1.511330	0.373753	0.707056
H153	H	0.664504	0.141385	0.136048
H154	H	1.164504	0.641385	0.636048
F155	F	1.387880	0.002391	1.108515
F156	F	1.887880	0.502391	1.608515
H157	H	0.964312	0.147747	0.073633
H158	H	1.464312	0.647747	0.573633
H159	H	1.374962	0.019522	0.466973
H160	H	1.874962	0.519522	0.966973
F161	F	1.091714	0.150429	0.359998
F162	F	1.591714	0.650429	0.859998
F163	F	0.977981	0.148030	0.477594
F164	F	1.477981	0.648030	0.977594
H165	H	1.014084	-0.504205	0.207610
H166	H	1.514084	-0.004205	0.707610
H167	H	1.374975	0.019521	0.609933
H168	H	1.874975	0.519521	1.109933
F169	F	1.463037	-0.234786	0.299551
F170	F	1.963037	0.265214	0.799551
H171	H	0.599122	0.139986	0.451209
H172	H	1.099122	0.639986	0.951209
F173	F	1.175617	0.285336	1.065087
F174	F	1.675617	0.785336	1.565087
F175	F	1.392051	-0.174440	0.285018
F176	F	1.892051	0.325560	0.785018
