data_functionalizedCrystal
_audit_creation_method	'MofGen! by Chris Wilmer'
_symmetry_space_group_name_H-M	'P1'
_symmetry_Int_Tables_number	1
_symmetry_cell_setting	triclinic
loop_
_symmetry_equiv_pos_as_xyz
  x,y,z
_cell_length_a	11.169417
_cell_length_b	11.169409
_cell_length_c	11.169416
_cell_angle_alpha	89.969184
_cell_angle_beta	89.988781
_cell_angle_gamma	90.020564
loop_
_atom_site_label
_atom_site_type_symbol
_atom_site_fract_x
_atom_site_fract_y
_atom_site_fract_z
Zn1	Zn	-1.834971	-0.678555	-0.477682
Zn2	Zn	-1.584971	-0.428555	-0.227682
Zn3	Zn	-1.334971	-0.178555	0.022318
Zn4	Zn	-1.084971	0.071445	0.272318
Zn5	Zn	-1.834858	-0.477877	-0.678423
Zn6	Zn	-1.584858	-0.227877	-0.428423
Zn7	Zn	-1.334858	0.022123	-0.178423
Zn8	Zn	-1.084858	0.272123	0.071577
Zn9	Zn	-1.634254	-0.477889	-0.477755
Zn10	Zn	-1.384254	-0.227889	-0.227755
Zn11	Zn	-1.134254	0.022111	0.022245
Zn12	Zn	-0.884254	0.272111	0.272245
Zn13	Zn	-1.634264	-0.678522	-0.678325
Zn14	Zn	-1.384264	-0.428522	-0.428325
Zn15	Zn	-1.134264	-0.178522	-0.178325
Zn16	Zn	-0.884264	0.071478	0.071675
O17	O	-1.734587	-0.578211	-0.578047
O18	O	-1.484587	-0.328211	-0.328047
O19	O	-1.234587	-0.078211	-0.078047
O20	O	-0.984587	0.171789	0.171953
O21	O	-2.002906	-0.651943	-0.504321
O22	O	-1.752906	-0.401943	-0.254321
O23	O	-1.502906	-0.151943	-0.004321
O24	O	-1.252906	0.098057	0.245679
O25	O	-1.808196	-0.309929	-0.651875
O26	O	-1.558196	-0.059929	-0.401875
O27	O	-1.308196	0.190071	-0.151875
O28	O	-1.058196	0.440071	0.098125
O29	O	-1.660923	-0.504527	-0.309796
O30	O	-1.410923	-0.254527	-0.059796
O31	O	-1.160923	-0.004527	0.190204
O32	O	-0.910923	0.245473	0.440204
O33	O	-2.002823	-0.504506	-0.651804
O34	O	-1.752823	-0.254506	-0.401804
O35	O	-1.502823	-0.004506	-0.151804
O36	O	-1.252823	0.245494	0.098196
O37	O	-1.808389	-0.651955	-0.309742
O38	O	-1.558389	-0.401955	-0.059742
O39	O	-1.308389	-0.151955	0.190258
O40	O	-1.058389	0.098045	0.440258
O41	O	-1.660813	-0.309938	-0.504446
O42	O	-1.410813	-0.059938	-0.254446
O43	O	-1.160813	0.190062	-0.004446
O44	O	-0.910813	0.440062	0.245554
O45	O	-1.466306	-0.504495	-0.504351
O46	O	-1.216306	-0.254495	-0.254351
O47	O	-0.966306	-0.004495	-0.004351
O48	O	-0.716306	0.245505	0.245649
O49	O	-1.660940	-0.846476	-0.651638
O50	O	-1.410940	-0.596476	-0.401638
O51	O	-1.160940	-0.346476	-0.151638
O52	O	-0.910940	-0.096476	0.098362
O53	O	-1.466313	-0.651899	-0.651709
O54	O	-1.216313	-0.401899	-0.401709
O55	O	-0.966313	-0.151899	-0.151709
O56	O	-0.716313	0.098101	0.098291
O57	O	-1.808399	-0.846500	-0.504227
O58	O	-1.558399	-0.596500	-0.254227
O59	O	-1.308399	-0.346500	-0.004227
O60	O	-1.058399	-0.096500	0.245773
O61	O	-1.808206	-0.504474	-0.846360
O62	O	-1.558206	-0.254474	-0.596360
O63	O	-1.308206	-0.004474	-0.346360
O64	O	-1.058206	0.245526	-0.096360
O65	O	-1.660830	-0.651887	-0.846288
O66	O	-1.410830	-0.401887	-0.596288
O67	O	-1.160830	-0.151887	-0.346288
O68	O	-0.910830	0.098113	-0.096288
C69	C	-1.422762	-0.578195	-0.578028
C70	C	-1.172762	-0.328195	-0.328028
C71	C	-0.922762	-0.078195	-0.078028
C72	C	-0.672762	0.171805	0.171972
C73	C	-1.289362	-0.578217	-0.578049
C74	C	-1.039362	-0.328217	-0.328049
C75	C	-0.789362	-0.078217	-0.078049
C76	C	-0.539362	0.171783	0.171951
C77	C	-1.734539	-0.578202	-0.889871
C78	C	-1.484539	-0.328202	-0.639871
C79	C	-1.234539	-0.078202	-0.389871
C80	C	-0.984539	0.171798	-0.139871
C81	C	-1.734629	-0.578238	-1.023271
C82	C	-1.484629	-0.328238	-0.773271
C83	C	-1.234629	-0.078238	-0.523271
C84	C	-0.984629	0.171762	-0.273271
C85	C	-1.734683	-0.891253	-0.577914
C86	C	-1.484683	-0.641253	-0.327914
C87	C	-1.234683	-0.391253	-0.077914
C88	C	-0.984683	-0.141253	0.172086
C89	C	-1.734724	-1.024653	-0.577857
C90	C	-1.484724	-0.774653	-0.327857
C91	C	-1.234724	-0.524653	-0.077857
C92	C	-0.984724	-0.274653	0.172143
C93	C	-2.047629	-0.578227	-0.578066
C94	C	-1.797629	-0.328227	-0.328066
C95	C	-1.547629	-0.078227	-0.078066
C96	C	-1.297629	0.171773	0.171934
C97	C	-2.181029	-0.578234	-0.578074
C98	C	-1.931029	-0.328234	-0.328074
C99	C	-1.681029	-0.078234	-0.078074
C100	C	-1.431029	0.171766	0.171926
C101	C	-1.734560	-0.266386	-0.578092
C102	C	-1.484560	-0.016386	-0.328092
C103	C	-1.234560	0.233614	-0.078092
C104	C	-0.984560	0.483614	0.171908
C105	C	-1.734752	-0.132987	-0.577811
C106	C	-1.484752	0.117013	-0.327811
C107	C	-1.234752	0.367013	-0.077811
C108	C	-0.984752	0.617013	0.172189
C109	C	-1.734667	-0.578246	-0.265004
C110	C	-1.484667	-0.328246	-0.015004
C111	C	-1.234667	-0.078246	0.234996
C112	C	-0.984667	0.171754	0.484996
C113	C	-1.734702	-0.578261	-0.131604
C114	C	-1.484702	-0.328261	0.118396
C115	C	-1.234702	-0.078261	0.368396
C116	C	-0.984702	0.171739	0.618396
