data_functionalizedCrystal
_audit_creation_method	'MofGen! by Chris Wilmer'
_symmetry_space_group_name_H-M	'P1'
_symmetry_Int_Tables_number	1
_symmetry_cell_setting	triclinic
loop_
_symmetry_equiv_pos_as_xyz
  x,y,z
_cell_length_a	17.000383
_cell_length_b	17.038272
_cell_length_c	9.130313
_cell_angle_alpha	89.998262
_cell_angle_beta	89.996750
_cell_angle_gamma	83.355929
loop_
_atom_site_label
_atom_site_type_symbol
_atom_site_fract_x
_atom_site_fract_y
_atom_site_fract_z
O1	O	1.057995	0.028049	-0.121900
O2	O	1.557995	0.528049	0.378100
O3	O	0.828175	0.056292	-0.121882
O4	O	1.328175	0.556292	0.378118
O5	O	0.941719	-0.071551	-0.121879
O6	O	1.441719	0.428449	0.378121
O7	O	0.944451	0.155892	-0.121903
O8	O	1.444451	0.655892	0.378097
O9	O	0.941718	-0.071548	0.121719
O10	O	1.441718	0.428452	0.621719
O11	O	0.828174	0.056295	0.121717
O12	O	1.328174	0.556295	0.621717
O13	O	1.057994	0.028052	0.121698
O14	O	1.557994	0.528052	0.621698
Cu15	Cu	0.943084	0.042174	0.143950
Cu16	Cu	1.443084	0.542174	0.643950
Cu17	Cu	0.943085	0.042170	-0.144134
Cu18	Cu	1.443085	0.542170	0.355866
O19	O	0.944450	0.155896	0.121696
O20	O	1.444450	0.655896	0.621696
C21	C	0.798624	0.057810	-0.000080
C22	C	1.298624	0.557810	0.499920
C23	C	0.710571	0.062321	-0.000073
C24	C	1.210571	0.562321	0.499927
C25	C	0.212326	0.091445	-0.000130
C26	C	0.712326	0.591445	0.499870
C27	C	0.295061	0.087201	-0.000129
C28	C	0.795061	0.587201	0.499871
C29	C	0.341068	0.013535	-0.000110
C30	C	0.841068	0.513535	0.499890
C31	C	0.304335	-0.055892	-0.000108
C32	C	0.804335	0.444108	0.499892
C33	C	0.221601	-0.051647	-0.000120
C34	C	0.721601	0.448353	0.499880
C35	C	0.591103	-0.002861	-0.000083
C36	C	1.091103	0.497139	0.499917
C37	C	0.673843	-0.007101	-0.000066
C38	C	1.173843	0.492899	0.499934
C39	C	0.664564	0.135993	-0.000090
C40	C	1.164564	0.635993	0.499910
C41	C	0.581828	0.140231	-0.000093
C42	C	1.081828	0.640231	0.499907
C43	C	0.545103	0.070804	-0.000098
C44	C	1.045103	0.570804	0.499902
C45	C	0.425637	0.009195	-0.000104
C46	C	0.925637	0.509195	0.499896
C47	C	0.460535	0.075145	-0.000115
C48	C	0.960535	0.575145	0.499885
C49	C	0.939234	-0.100508	-0.000080
C50	C	1.439234	0.399492	0.499920
C51	C	0.931821	-0.186793	-0.000080
C52	C	1.431821	0.313207	0.499920
C53	C	0.999879	-0.241568	-0.000084
C54	C	1.499879	0.258432	0.499916
C55	C	0.992910	-0.322641	-0.000097
C56	C	1.492910	0.177359	0.499903
C57	C	0.917881	-0.348938	-0.000096
C58	C	1.417881	0.151062	0.499904
C59	C	0.849817	-0.294156	-0.000096
C60	C	1.349817	0.205844	0.499904
C61	C	0.856788	-0.213085	-0.000094
C62	C	1.356788	0.286915	0.499906
C63	C	0.893255	-0.593009	-0.000114
C64	C	1.393255	-0.093009	0.499886
C65	C	0.886289	-0.674088	-0.000113
C66	C	1.386289	-0.174088	0.499887
C67	C	1.029382	-0.702567	-0.000116
C68	C	1.529382	-0.202567	0.499884
C69	C	1.036346	-0.621493	-0.000104
C70	C	1.536346	-0.121493	0.499896
C71	C	0.968283	-0.566718	-0.000112
C72	C	1.468283	-0.066718	0.499888
C73	C	0.910755	-0.431807	-0.000105
C74	C	1.410755	0.068193	0.499895
C75	C	0.975410	-0.483850	-0.000114
C76	C	1.475410	0.016150	0.499886
C77	C	1.087545	0.026534	-0.000107
C78	C	1.587545	0.526534	0.499893
C79	C	1.175598	0.022024	-0.000124
C80	C	1.675598	0.522024	0.499876
C81	C	0.946935	0.184852	-0.000107
C82	C	1.446935	0.684852	0.499893
C83	C	0.954348	0.271137	-0.000117
C84	C	1.454348	0.771137	0.499883
N85	N	0.943088	0.042176	0.346573
N86	N	1.443088	0.542176	0.846573
N87	N	0.943086	0.042162	-0.346756
N88	N	1.443086	0.542162	0.153244
C89	C	0.993380	-0.014416	0.423226
C90	C	1.493380	0.485584	0.923226
C91	C	0.993378	-0.014425	0.576563
C92	C	1.493378	0.485575	1.076563
C93	C	0.892789	0.098757	0.576580
C94	C	1.392789	0.598757	1.076580
C95	C	0.892788	0.098762	0.423246
C96	C	1.392788	0.598762	0.923246
C97	C	1.051457	-0.079759	0.423217
C98	C	1.551457	0.420241	0.923217
C99	C	1.051455	-0.079768	0.576554
C100	C	1.551455	0.420232	1.076554
H101	H	0.561212	-0.059393	-0.000083
H102	H	1.061212	0.440607	0.499917
N103	N	1.117277	-0.593146	-0.000138
N104	N	1.617277	-0.093146	0.499862
H105	H	1.123355	-0.560146	-0.090445
H106	H	1.623355	-0.060146	0.409555
H107	H	1.123321	-0.560182	0.090219
H108	H	1.623321	-0.060182	0.590219
N109	N	0.838544	0.159801	0.340572
N110	N	1.338544	0.659801	0.840572
H111	H	0.846173	0.151219	0.231801
H112	H	1.346173	0.651219	0.731801
H113	H	0.781735	0.154634	0.367380
H114	H	1.281735	0.654634	0.867380
H115	H	0.711300	-0.067092	-0.000058
H116	H	1.211300	0.432908	0.499942
N117	N	1.080806	-0.213212	-0.000076
N118	N	1.580806	0.286788	0.499924
H119	H	1.086892	-0.180205	-0.090372
H120	H	1.586892	0.319795	0.409628
H121	H	1.086833	-0.180251	0.090292
H122	H	1.586833	0.319749	0.590292
H123	H	0.423073	0.135124	-0.000137
H124	H	0.923073	0.635124	0.499863
N125	N	1.129084	-0.060526	0.360193
N126	N	1.629084	0.439474	0.860193
H127	H	1.166592	-0.051238	0.442522
H128	H	1.666592	0.448762	0.942522
H129	H	1.153066	-0.106123	0.297895
H130	H	1.653066	0.393877	0.797895
N131	N	0.334676	0.162076	-0.000160
N132	N	0.834676	0.662076	0.499840
H133	H	0.292976	0.209387	-0.000172
H134	H	0.792976	0.709387	0.499828
H135	H	0.368800	0.163442	0.090140
H136	H	0.868800	0.663442	0.590140
N137	N	0.475262	-0.070257	-0.000058
N138	N	0.975262	0.429743	0.499942
H139	H	0.439444	-0.113596	-0.000047
H140	H	0.939444	0.386404	0.499953
H141	H	0.509797	-0.075139	-0.090358
H142	H	1.009797	0.424861	0.409642
H143	H	1.028890	-0.134845	0.624109
H144	H	1.528890	0.365155	1.124109
H145	H	0.174872	0.151432	-0.000134
H146	H	0.674872	0.651432	0.499866
H147	H	1.084795	-0.747173	-0.000112
H148	H	1.584795	-0.247173	0.499888
H149	H	1.048330	-0.367237	-0.000097
H150	H	1.548330	0.132763	0.499903
H151	H	0.851835	0.144827	0.639024
H152	H	1.351835	0.644827	1.139024
H153	H	0.544375	0.200218	-0.000112
H154	H	1.044375	0.700218	0.499888
N155	N	0.805362	-0.702453	-0.000113
N156	N	1.305362	-0.202453	0.499887
H157	H	0.763301	-0.655452	-0.000123
H158	H	1.263301	-0.155452	0.499877
H159	H	0.799362	-0.735471	-0.090418
H160	H	1.299362	-0.235471	0.409582
H161	H	0.837832	-0.548421	-0.000120
H162	H	1.337832	-0.048421	0.499880
N163	N	0.783381	-0.154005	-0.000050
N164	N	1.283381	0.345995	0.499950
H165	H	0.799181	-0.098656	-0.000044
H166	H	1.299181	0.401344	0.499956
H167	H	0.750913	-0.161948	-0.090345
H168	H	1.250913	0.338052	0.409655
N169	N	0.768892	-0.322514	-0.000105
N170	N	1.268892	0.177486	0.499895
H171	H	0.774801	-0.382185	-0.000102
H172	H	1.274801	0.117815	0.499898
H173	H	0.738867	-0.302124	0.090202
H174	H	1.238867	0.197876	0.590202
H175	H	1.034417	-0.138571	0.381605
H176	H	1.534417	0.361429	0.881605
N177	N	0.704174	0.210870	-0.000089
N178	N	1.204174	0.710870	0.499911
H179	H	0.763567	0.197007	-0.000081
H180	H	1.263567	0.697007	0.499919
H181	H	0.687693	0.242848	-0.090405
H182	H	1.187693	0.742848	0.409595
N183	N	1.133093	-0.068328	0.631681
N184	N	1.633093	0.431672	1.131681
H185	H	1.148226	-0.016227	0.594851
H186	H	1.648226	0.483773	1.094851
H187	H	1.133067	-0.068370	0.742297
H188	H	1.633067	0.431630	1.242297
N189	N	1.056333	-0.455493	-0.000102
N190	N	1.556333	0.044507	0.499898
H191	H	1.062419	-0.422487	-0.090399
H192	H	1.562419	0.077513	0.409601
H193	H	1.062349	-0.422529	0.090265
H194	H	1.562349	0.077471	0.590265
H195	H	0.849666	-0.453227	-0.000101
H196	H	1.349666	0.046773	0.499899
N197	N	0.353955	-0.135346	-0.000074
N198	N	0.853955	0.364654	0.499926
H199	H	0.318131	-0.178680	-0.000073
H200	H	0.818131	0.321320	0.499927
H201	H	0.388493	-0.140230	-0.090370
H202	H	0.888493	0.359770	0.409630
N203	N	0.181983	-0.126522	-0.000121
N204	N	0.681983	0.373478	0.499879
H205	H	0.223681	-0.173834	-0.000105
H206	H	0.723681	0.326166	0.499895
H207	H	0.147850	-0.127875	0.090177
H208	H	0.647850	0.372125	0.590177
