data_functionalizedCrystal
_audit_creation_method	'MofGen! by Chris Wilmer'
_symmetry_space_group_name_H-M	'P1'
_symmetry_Int_Tables_number	1
_symmetry_cell_setting	triclinic
loop_
_symmetry_equiv_pos_as_xyz
  x,y,z
_cell_length_a	17.699083
_cell_length_b	10.723023
_cell_length_c	16.776229
_cell_angle_alpha	89.994384
_cell_angle_beta	89.998886
_cell_angle_gamma	83.875281
loop_
_atom_site_label
_atom_site_type_symbol
_atom_site_fract_x
_atom_site_fract_y
_atom_site_fract_z
O1	O	1.005074	0.157797	-0.066175
O2	O	1.505074	0.657797	0.433825
O3	O	0.784825	0.178327	-0.066201
O4	O	1.284825	0.678327	0.433799
O5	O	0.900030	-0.013601	-0.066184
O6	O	1.400030	0.486399	0.433816
O7	O	0.889868	0.349725	-0.066191
O8	O	1.389868	0.849725	0.433809
O9	O	0.900014	-0.013613	0.066393
O10	O	1.400014	0.486387	0.566393
O11	O	0.784809	0.178315	0.066376
O12	O	1.284809	0.678315	0.566376
O13	O	1.005058	0.157785	0.066402
O14	O	1.505058	0.657785	0.566402
Zn15	Zn	0.894931	0.168048	0.087438
Zn16	Zn	1.394931	0.668048	0.587438
Zn17	Zn	0.894952	0.168064	-0.087237
Zn18	Zn	1.394952	0.668064	0.412763
O19	O	0.889853	0.349714	0.066385
O20	O	1.389853	0.849714	0.566385
C21	C	0.756615	0.177585	0.000084
C22	C	1.256615	0.677585	0.500084
C23	C	0.672583	0.175379	0.000075
C24	C	1.172583	0.675379	0.500075
C25	C	0.899283	-0.060094	0.000104
C26	C	1.399283	0.439906	0.500104
C27	C	0.897071	-0.198611	0.000101
C28	C	1.397071	0.301389	0.500101
C29	C	0.624673	0.288036	0.000072
C30	C	1.124673	0.788036	0.500072
C31	C	0.545716	0.285955	0.000083
C32	C	1.045716	0.785955	0.500083
C33	C	0.514672	0.171215	0.000090
C34	C	1.014672	0.671215	0.500090
C35	C	0.562589	0.058549	0.000094
C36	C	1.062589	0.558549	0.500094
C37	C	0.641544	0.060631	0.000089
C38	C	1.141544	0.560631	0.500089
C39	C	0.244173	0.050148	0.000114
C40	C	0.744173	0.550148	0.500114
C41	C	0.165212	0.048075	0.000116
C42	C	0.665212	0.548075	0.500116
C43	C	0.148345	0.275473	0.000107
C44	C	0.648345	0.775473	0.500107
C45	C	0.227300	0.277555	0.000103
C46	C	0.727300	0.777555	0.500103
C47	C	0.275210	0.164889	0.000111
C48	C	0.775210	0.664889	0.500111
C49	C	0.360823	0.167147	0.000102
C50	C	0.860823	0.667147	0.500102
C51	C	0.429060	0.168956	0.000094
C52	C	0.929060	0.668956	0.500094
C53	C	0.896093	-0.260353	-0.068579
C54	C	1.396093	0.239647	0.431421
C55	C	0.893806	-0.403517	-0.068584
C56	C	1.393806	0.096483	0.431416
C57	C	1.033267	0.158527	0.000115
C58	C	1.533267	0.658527	0.500115
C59	C	1.117299	0.160734	0.000120
C60	C	1.617299	0.660734	0.500120
C61	C	0.890600	0.396206	0.000096
C62	C	1.390600	0.896206	0.500096
C63	C	0.892812	0.534723	0.000094
C64	C	1.392812	1.034723	0.500094
N65	N	0.894923	0.168037	0.206650
N66	N	1.394923	0.668037	0.706650
N67	N	0.894966	0.168065	-0.206448
N68	N	1.394966	0.668065	0.293552
C69	C	0.945951	0.083086	0.248374
C70	C	1.445951	0.583086	0.748374
C71	C	0.945956	0.083085	0.331826
C72	C	1.445956	0.583085	0.831826
C73	C	0.894934	0.168042	0.373552
C74	C	1.394934	0.668042	0.873552
C75	C	0.843900	0.252997	0.331822
C76	C	1.343900	0.752997	0.831822
C77	C	0.843893	0.252991	0.248371
C78	C	1.343893	0.752991	0.748371
C79	C	0.843928	0.253021	0.668369
C80	C	1.343928	0.753021	1.168369
C81	C	0.843940	0.253023	0.751826
C82	C	1.343940	0.753023	1.251826
C83	C	0.945990	0.083115	0.751824
C84	C	1.445990	0.583115	1.251824
C85	C	0.945983	0.083109	0.668373
C86	C	1.445983	0.583109	1.168373
C87	C	0.894947	0.168060	0.626650
C88	C	1.394947	0.668060	1.126650
C89	C	0.894942	0.168058	0.536162
C90	C	1.394942	0.668058	1.036162
C91	C	0.894942	0.168050	0.464039
C92	C	1.394942	0.668050	0.964039
H93	H	0.649942	0.381471	0.000066
H94	H	1.149942	0.881471	0.500066
N95	N	0.893933	-0.394958	0.077985
N96	N	1.393933	0.105042	0.577985
H97	H	0.847961	-0.330695	0.081160
H98	H	1.347961	0.169305	0.581160
H99	H	0.892983	-0.455932	0.123771
H100	H	1.392983	0.044068	0.623771
N101	N	1.001037	-0.008513	0.796828
N102	N	1.501037	0.491487	1.296828
H103	H	0.971840	-0.063711	0.831460
H104	H	1.471840	0.436289	1.331460
H105	H	1.033347	-0.062241	0.757680
H106	H	1.533347	0.437759	1.257680
N107	N	1.000977	-0.008542	0.203362
N108	N	1.500977	0.491458	0.703362
H109	H	1.054768	0.005711	0.217874
H110	H	1.554768	0.505711	0.717874
H111	H	0.991738	-0.097045	0.217909
H112	H	1.491738	0.402955	0.717909
H113	H	0.139939	-0.045366	0.000123
H114	H	0.639939	0.454634	0.500123
N115	N	0.260789	0.401305	0.000101
N116	N	0.760789	0.901305	0.500101
H117	H	0.293170	0.407240	-0.049047
H118	H	0.793170	0.907240	0.450953
H119	H	0.218418	0.472292	0.000133
H120	H	0.718418	0.972292	0.500133
H121	H	0.802354	0.322166	0.365800
H122	H	1.302354	0.822166	0.865800
H123	H	0.896944	-0.207224	-0.127375
H124	H	1.396944	0.292776	0.372625
H125	H	0.680552	-0.031107	0.000091
H126	H	1.180552	0.468893	0.500091
H127	H	0.506710	0.377693	0.000080
H128	H	1.006710	0.877693	0.500080
N129	N	0.892715	-0.473833	-0.146478
N130	N	1.392715	0.026167	0.353522
H131	H	0.846252	-0.440991	-0.178112
H132	H	1.346252	0.059009	0.321888
H133	H	0.939954	-0.461451	-0.178002
H134	H	1.439954	0.038549	0.321998
H135	H	0.283172	-0.041591	0.000122
H136	H	0.783172	0.458409	0.500122
H137	H	0.802390	0.322208	0.785798
H138	H	1.302390	0.822208	1.285798
N139	N	0.895942	-0.268977	0.077985
N140	N	1.395942	0.231023	0.577985
H141	H	0.943135	-0.256651	0.109603
H142	H	1.443135	0.243349	0.609603
H143	H	0.849435	-0.236107	0.109533
H144	H	1.349435	0.263893	0.609533
N145	N	1.001020	-0.008498	0.376830
N146	N	1.501020	0.491502	0.876830
H147	H	1.033352	-0.062297	0.337734
H148	H	1.533352	0.437703	0.837734
H149	H	1.034712	0.039260	0.411430
H150	H	1.534712	0.539260	0.911430
H151	H	0.802339	0.322165	0.214400
H152	H	1.302339	0.822165	0.714400
H153	H	0.987532	0.013934	0.634403
H154	H	1.487532	0.513934	1.134403
N155	N	0.096671	0.396996	0.000100
N156	N	0.596671	0.896996	0.500100
H157	H	0.041942	0.378274	0.000107
H158	H	0.541942	0.878274	0.500107
H159	H	0.106793	0.447012	0.049243
H160	H	0.606793	0.947012	0.549243
N161	N	0.529110	-0.065210	0.000114
N162	N	1.029110	0.434790	0.500114
H163	H	0.471822	-0.049437	0.000117
H164	H	0.971822	0.450563	0.500117
H165	H	0.546592	-0.114502	-0.049030
H166	H	1.046592	0.385498	0.450970
H167	H	0.802373	0.322193	0.634405
H168	H	1.302373	0.822193	1.134405
