data_functionalizedCrystal
_audit_creation_method	'MofGen! by Chris Wilmer'
_symmetry_space_group_name_H-M	'P1'
_symmetry_Int_Tables_number	1
_symmetry_cell_setting	triclinic
loop_
_symmetry_equiv_pos_as_xyz
  x,y,z
_cell_length_a	12.759401
_cell_length_b	18.050590
_cell_length_c	12.759393
_cell_angle_alpha	89.965321
_cell_angle_beta	89.979062
_cell_angle_gamma	90.020077
loop_
_atom_site_label
_atom_site_type_symbol
_atom_site_fract_x
_atom_site_fract_y
_atom_site_fract_z
Zn1	Zn	1.606238	-0.295593	-0.593990
Zn2	Zn	1.939572	0.037740	-0.260656
Zn3	Zn	2.272905	0.371073	0.072677
Zn4	Zn	1.606118	-0.419801	-0.418297
Zn5	Zn	1.939451	-0.086468	-0.084964
Zn6	Zn	2.272784	0.246866	0.248370
Zn7	Zn	1.430537	-0.295633	-0.418325
Zn8	Zn	1.763870	0.037701	-0.084991
Zn9	Zn	2.097204	0.371034	0.248342
Zn10	Zn	1.430517	-0.419749	-0.593934
Zn11	Zn	1.763850	-0.086416	-0.260601
Zn12	Zn	2.097184	0.246917	0.072733
O13	O	1.518352	-0.357694	-0.506136
O14	O	1.851686	-0.024361	-0.172803
O15	O	2.185019	0.308973	0.160530
O16	O	1.753243	-0.312075	-0.570695
O17	O	2.086577	0.021258	-0.237362
O18	O	2.419910	0.354592	0.095972
O19	O	1.582784	-0.403368	-0.271279
O20	O	1.916118	-0.070035	0.062054
O21	O	2.249451	0.263298	0.395387
O22	O	1.453903	-0.191703	-0.441662
O23	O	1.787236	0.141630	-0.108329
O24	O	2.120570	0.474964	0.225005
O25	O	1.753155	-0.403330	-0.441614
O26	O	2.086488	-0.069997	-0.108281
O27	O	2.419821	0.263337	0.225052
O28	O	1.582990	-0.191674	-0.570722
O29	O	1.916323	0.141659	-0.237389
O30	O	2.249657	0.474993	0.095945
O31	O	1.453786	-0.312142	-0.271300
O32	O	1.787119	0.021191	0.062033
O33	O	2.120453	0.354524	0.395367
O34	O	1.283513	-0.312092	-0.441608
O35	O	1.616847	0.021241	-0.108275
O36	O	1.950180	0.354575	0.225059
O37	O	1.453869	-0.403241	-0.740963
O38	O	1.787202	-0.069908	-0.407629
O39	O	2.120536	0.263425	-0.074296
O40	O	1.283499	-0.403280	-0.570628
O41	O	1.616832	-0.069946	-0.237294
O42	O	1.950165	0.263387	0.096039
O43	O	1.582971	-0.312025	-0.741003
O44	O	1.916304	0.021309	-0.407670
O45	O	2.249637	0.354642	-0.074337
O46	O	1.582765	-0.523719	-0.441561
O47	O	1.916098	-0.190386	-0.108227
O48	O	2.249432	0.142948	0.225106
O49	O	1.453752	-0.523681	-0.570601
O50	O	1.787085	-0.190347	-0.237267
O51	O	2.120419	0.142986	0.096066
C52	C	1.245385	-0.357685	-0.506115
C53	C	1.578718	-0.024352	-0.172782
C54	C	1.912052	0.308982	0.160551
C55	C	1.128608	-0.357699	-0.506131
C56	C	1.461942	-0.024366	-0.172798
C57	C	1.795275	0.308968	0.160535
C58	C	1.518272	-0.550646	-0.506094
C59	C	1.851605	-0.217313	-0.172761
C60	C	2.184938	0.116020	0.160572
C61	C	1.518333	-0.633192	-0.506112
C62	C	1.851667	-0.299859	-0.172778
C63	C	2.185000	0.033475	0.160555
C64	C	1.073766	-0.405253	-0.573206
C65	C	1.407100	-0.071919	-0.239873
C66	C	1.740433	0.261414	0.093461
C67	C	0.964042	-0.405256	-0.573227
C68	C	1.297376	-0.071922	-0.239894
C69	C	1.630709	0.261411	0.093440
C70	C	0.964012	-0.310149	-0.439089
C71	C	1.297345	0.023184	-0.105756
C72	C	1.630679	0.356518	0.227577
C73	C	1.073734	-0.310143	-0.439075
C74	C	1.407067	0.023190	-0.105741
C75	C	1.740401	0.356524	0.227592
C76	C	1.588636	-0.832636	-0.436038
C77	C	1.921970	-0.499303	-0.102704
C78	C	2.255303	-0.165970	0.230629
C79	C	1.614306	-0.881961	-0.531925
C80	C	1.947639	-0.548628	-0.198591
C81	C	2.280972	-0.215294	0.134742
C82	C	1.518393	-0.784322	-0.506154
C83	C	1.851726	-0.450989	-0.172820
C84	C	2.185060	-0.117656	0.160513
C85	C	1.492831	-0.882079	-0.410310
C86	C	1.826164	-0.548746	-0.076976
C87	C	2.159497	-0.215413	0.256357
C88	C	1.518452	-0.930307	-0.506186
C89	C	1.851786	-0.596974	-0.172852
C90	C	2.185119	-0.263641	0.160481
C91	C	1.544111	-0.832560	-0.602091
C92	C	1.877445	-0.499226	-0.268758
C93	C	2.210778	-0.165893	0.064576
C94	C	1.422592	-0.832674	-0.480411
C95	C	1.755925	-0.499340	-0.147078
C96	C	2.089258	-0.166007	0.186255
C97	C	1.448224	-0.881976	-0.576364
C98	C	1.781558	-0.548643	-0.243031
C99	C	2.114891	-0.215309	0.090302
C100	C	1.518361	-0.700224	-0.506134
C101	C	1.851695	-0.366891	-0.172800
C102	C	2.185028	-0.033557	0.160533
C103	C	1.518484	-1.014404	-0.506216
C104	C	1.851817	-0.681071	-0.172883
C105	C	2.185151	-0.347737	0.160450
C106	C	1.792386	-0.357704	-0.506158
C107	C	2.125719	-0.024370	-0.172825
C108	C	2.459052	0.308963	0.160509
C109	C	1.909162	-0.357708	-0.506167
C110	C	2.242496	-0.024375	-0.172834
C111	C	2.575829	0.308959	0.160500
C112	C	1.518431	-0.357623	-0.780170
C113	C	1.851764	-0.024289	-0.446836
C114	C	2.185098	0.309044	-0.113503
C115	C	1.518465	-0.357592	-0.896947
C116	C	1.851798	-0.024259	-0.563613
C117	C	2.185131	0.309074	-0.230280
C118	C	1.518462	-0.163989	-0.506201
C119	C	1.851795	0.169345	-0.172868
C120	C	2.185129	0.502678	0.160465
C121	C	1.518509	-0.081443	-0.506229
C122	C	1.851842	0.251891	-0.172896
C123	C	2.185176	0.585224	0.160438
C124	C	1.585693	-0.310088	-0.951831
C125	C	1.919026	0.023245	-0.618498
C126	C	2.252359	0.356578	-0.285165
C127	C	1.585711	-0.310056	-1.061556
C128	C	1.919044	0.023277	-0.728222
C129	C	2.252377	0.356610	-0.394889
C130	C	1.451269	-0.405039	-1.061500
C131	C	1.784602	-0.071706	-0.728167
C132	C	2.117936	0.261628	-0.394834
C133	C	1.451247	-0.405067	-0.951778
C134	C	1.784580	-0.071733	-0.618445
C135	C	2.117913	0.261600	-0.285111
C136	C	1.518335	-0.357712	-0.233169
C137	C	1.851668	-0.024378	0.100164
C138	C	2.185001	0.308955	0.433498
C139	C	1.518505	-0.357533	-0.116393
C140	C	1.851838	-0.024199	0.216940
C141	C	2.185171	0.309134	0.550274
H142	H	0.919395	-0.443978	-0.627847
H143	H	1.252728	-0.110644	-0.294514
H144	H	1.586061	0.222689	0.038819
H145	H	1.471186	-0.903830	-0.329242
H146	H	1.804519	-0.570497	0.004091
H147	H	2.137852	-0.237163	0.337424
N148	N	1.721651	-0.910648	-0.560788
N149	N	2.054985	-0.577315	-0.227455
N150	N	2.388318	-0.243982	0.105878
H151	H	1.720700	-0.966597	-0.561254
H152	H	2.054034	-0.633264	-0.227920
H153	H	2.387367	-0.299930	0.105413
H154	H	1.741471	-0.891809	-0.632663
H155	H	2.074805	-0.558475	-0.299330
H156	H	2.408138	-0.225142	0.034004
H157	H	1.565676	-0.810901	-0.683228
H158	H	1.899009	-0.477568	-0.349895
H159	H	2.232343	-0.144234	-0.016561
N160	N	1.132949	-0.456543	-0.645532
N161	N	1.466282	-0.123210	-0.312198
N162	N	1.799616	0.210123	0.021135
H163	H	1.113898	-0.445073	-0.720630
H164	H	1.447231	-0.111740	-0.387297
H165	H	1.780564	0.221594	-0.053964
H166	H	1.210761	-0.449304	-0.635256
H167	H	1.544094	-0.115971	-0.301922
H168	H	1.877428	0.217362	0.031411
H169	H	1.388847	-0.903504	-0.635741
H170	H	1.722181	-0.570170	-0.302408
H171	H	2.055514	-0.236837	0.030925
H172	H	1.341572	-0.811006	-0.458589
H173	H	1.674906	-0.477672	-0.125256
H174	H	2.008239	-0.144339	0.208078
H175	H	1.118388	-0.271414	-0.384454
H176	H	1.451721	0.061919	-0.051121
H177	H	1.785054	0.395252	0.282212
H178	H	1.640453	-0.271372	-1.106238
H179	H	1.973786	0.061961	-0.772905
H180	H	2.307119	0.395294	-0.439571
H181	H	1.396494	-0.443750	-0.907090
H182	H	1.729827	-0.110416	-0.573756
H183	H	2.063161	0.222917	-0.240423
N184	N	1.378757	-0.456230	-1.120640
N185	N	1.712090	-0.122897	-0.787307
N186	N	2.045424	0.210436	-0.453973
H187	H	1.388967	-0.449003	-1.198478
H188	H	1.722301	-0.115669	-0.865144
H189	H	2.055634	0.217664	-0.531811
H190	H	1.395055	-0.509280	-1.101453
H191	H	1.728388	-0.175946	-0.768120
H192	H	2.061722	0.157387	-0.434787
H193	H	0.919320	-0.271431	-0.384493
H194	H	1.252653	0.061902	-0.051159
H195	H	1.585987	0.395235	0.282174
H196	H	1.640423	-0.271430	-0.907191
H197	H	1.973756	0.061904	-0.573857
H198	H	2.307090	0.395237	-0.240524
H199	H	1.648059	-0.810971	-0.376804
H200	H	1.981392	-0.477638	-0.043471
H201	H	2.314726	-0.144305	0.289862
