data_functionalizedCrystal
_audit_creation_method	'MofGen! by Chris Wilmer'
_symmetry_space_group_name_H-M	'P1'
_symmetry_Int_Tables_number	1
_symmetry_cell_setting	triclinic
loop_
_symmetry_equiv_pos_as_xyz
  x,y,z
_cell_length_a	21.606444
_cell_length_b	23.196402
_cell_length_c	23.196401
_cell_angle_alpha	59.999265
_cell_angle_beta	90.004828
_cell_angle_gamma	60.001587
loop_
_atom_site_label
_atom_site_type_symbol
_atom_site_fract_x
_atom_site_fract_y
_atom_site_fract_z
Zr1	Zr	0.596225	0.631035	-0.075653
O2	O	0.497387	0.751312	-0.167704
O3	O	0.626521	0.510766	-0.047439
O4	O	0.626501	0.631052	-0.167713
O5	O	0.497427	0.631010	0.047450
O6	O	0.728351	0.631056	-0.167717
O7	O	0.497408	0.631026	-0.047429
O8	O	0.728387	0.415886	0.047433
O9	O	0.497390	0.846179	-0.167700
O10	O	0.715455	0.560234	-0.035404
O11	O	0.639459	0.560219	0.035406
O12	O	0.639435	0.701840	-0.106202
O13	O	0.563440	0.701825	-0.035392
Zr14	Zr	0.758693	0.631015	0.075662
Zr15	Zr	0.758663	0.631041	-0.075659
Zr16	Zr	0.596255	0.631009	0.075667
Zr17	Zr	0.596229	0.782337	-0.075647
Zr18	Zr	0.758689	0.479713	0.075655
O19	O	0.728397	0.751284	0.047447
O20	O	0.728354	0.751321	-0.167712
O21	O	0.497430	0.751275	0.047455
O22	O	0.857531	0.510738	0.167712
O23	O	0.857488	0.510775	-0.047446
O24	O	0.626564	0.510729	0.167720
O25	O	0.857491	0.631040	-0.047441
O26	O	0.728417	0.630998	0.167722
O27	O	0.626567	0.630994	0.167725
O28	O	0.857510	0.631024	0.047438
O29	O	0.626507	0.846184	-0.167704
O30	O	0.728411	0.415866	0.167712
O31	O	0.857528	0.415871	0.167708
O32	O	0.857504	0.415891	0.047428
O33	O	0.497414	0.846158	-0.047420
O34	O	0.626531	0.846164	-0.047424
O35	O	0.715483	0.560210	0.106210
O36	O	0.791478	0.560225	0.035401
O37	O	0.715459	0.701831	-0.035398
O38	O	0.639463	0.701816	0.035412
C39	C	0.677453	0.441769	-0.000004
C40	C	0.677452	0.377537	-0.000007
C41	C	0.717115	0.347374	-0.036971
C42	C	0.717122	0.287013	-0.036965
C43	C	0.677451	0.256829	-0.000005
C44	C	0.637786	0.286995	0.036968
C45	C	0.637786	0.347349	0.036967
C46	C	0.610992	0.194798	-0.005277
C47	C	0.610990	0.134448	-0.005282
C48	C	0.677452	0.070674	0.000002
C49	C	0.743917	0.067264	0.005276
C50	C	0.743917	0.127618	0.005275
C51	C	0.677447	0.191384	0.000001
C52	C	0.717127	-0.024940	-0.036958
C53	C	0.717137	-0.085305	-0.036947
C54	C	0.637793	-0.085317	0.036982
C55	C	0.637791	-0.024958	0.036976
C56	C	0.677456	0.005230	0.000002
C57	C	0.474273	0.631017	0.000011
C58	C	0.405314	0.631014	0.000013
C59	C	0.412596	0.557098	0.036967
C60	C	0.347798	0.557100	0.036968
C61	C	0.275720	0.631019	0.000010
C62	C	0.268439	0.704941	-0.036944
C63	C	0.333236	0.704938	-0.036941
C64	C	0.007121	0.704956	-0.036960
C65	C	-0.057677	0.704953	-0.036963
C66	C	0.021684	0.557117	0.036948
C67	C	0.086480	0.557114	0.036952
C68	C	0.079194	0.631036	0.000000
C69	C	0.149455	0.631032	0.000001
C70	C	0.205459	0.631024	0.000005
C71	C	0.880645	0.631033	-0.000003
C72	C	0.949604	0.631036	-0.000005
C73	C	0.677421	0.631057	-0.189275
C74	C	0.677409	0.631068	-0.253515
C75	C	0.677465	0.820281	0.000012
C76	C	0.677466	0.884513	0.000015
C77	C	0.733520	0.631072	-0.283680
C78	C	0.733537	0.631056	-0.344026
C79	C	0.677431	0.631052	-0.374214
C80	C	0.621314	0.631044	-0.344039
C81	C	0.621303	0.631052	-0.283689
C82	C	0.608957	0.678544	-0.493591
C83	C	0.608968	0.678541	-0.553942
C84	C	0.677464	0.631023	-0.560350
C85	C	0.745955	0.583519	-0.506405
C86	C	0.745944	0.583527	-0.446055
C87	C	0.677436	0.631043	-0.439652
C88	C	0.733599	0.631008	-0.655949
C89	C	0.733616	0.630986	-0.716294
C90	C	0.621387	0.630983	-0.716310
C91	C	0.621375	0.630996	-0.655962
C92	C	0.677481	0.631012	-0.625787
C93	C	0.677497	0.630992	0.189283
C94	C	0.677509	0.630981	0.253523
C95	C	0.880639	0.441777	-0.000011
C96	C	0.949597	0.377548	-0.000016
C97	C	0.677491	0.441736	0.189275
C98	C	0.677502	0.377493	0.253512
C99	C	0.880677	0.441744	0.189268
C100	C	0.949647	0.377504	0.253503
C101	C	0.474241	0.820306	-0.189260
C102	C	0.405271	0.884546	-0.253495
C103	C	0.474279	0.820273	0.000019
C104	C	0.405321	0.884502	0.000024
C105	C	0.677427	0.820314	-0.189267
C106	C	0.677416	0.884557	-0.253504
C107	C	0.942297	0.347390	-0.036984
C108	C	1.007083	0.287048	-0.037003
C109	C	1.079170	0.256861	-0.000049
C110	C	1.086468	0.287025	0.036920
C111	C	1.021682	0.347370	0.036934
C112	C	0.717190	0.347319	0.320644
C113	C	0.717198	0.286965	0.381007
C114	C	0.677521	0.256781	0.374237
C115	C	0.637827	0.286961	0.307098
C116	C	0.637816	0.347319	0.246736
C117	C	1.021712	0.347344	0.246706
C118	C	1.086523	0.286992	0.307056
C119	C	1.079268	0.256797	0.374201
C120	C	1.007195	0.286963	0.380996
C121	C	0.942386	0.347318	0.320648
C122	C	0.333206	0.914713	-0.246698
C123	C	0.268395	0.975084	-0.307047
C124	C	0.275650	1.005282	-0.374193
C125	C	0.347723	0.975112	-0.380988
C126	C	0.412532	0.914747	-0.320639
C127	C	0.412621	0.914666	0.036986
C128	C	0.347835	0.975025	0.036988
C129	C	0.275748	1.005214	0.000032
C130	C	0.268450	0.975047	-0.036934
C131	C	0.333236	0.914694	-0.036940
C132	C	0.717101	0.914721	-0.246711
C133	C	0.717106	0.975076	-0.307062
C134	C	0.677420	1.005270	-0.374206
C135	C	0.637734	0.975099	-0.380998
C136	C	0.637735	0.914741	-0.320647
H137	H	0.749415	0.371949	-0.067075
H138	H	1.001299	0.262369	0.435674
F139	F	0.818860	0.532947	-0.513219
H140	H	0.883710	0.371866	0.326191
H141	H	0.677536	0.207634	0.423393
H142	H	0.779285	0.631018	-0.631378
H143	H	0.798039	0.015332	0.009587
F144	F	0.999300	0.254954	-0.076349
H145	H	0.001179	0.765147	-0.067061
F146	F	0.595603	0.254828	0.299904
H147	H	1.131916	0.207724	-0.000066
F148	F	0.595575	0.379422	0.175291
F149	F	0.325454	0.882593	-0.076277
F150	F	0.759343	0.882598	-0.175257
H151	H	1.027634	0.371920	0.192039
H152	H	0.353734	0.496910	0.067060
F153	F	0.489335	0.882550	0.076320
F154	F	0.595573	0.007146	0.076317
H155	H	0.556862	0.246733	-0.009595
F156	F	0.759426	0.379430	0.327865
F157	F	0.759343	1.007178	-0.299820
F158	F	1.163220	0.254896	0.299809
F159	F	0.206803	1.069447	0.000046
F160	F	1.148251	0.192560	0.438424
F161	F	0.325467	0.882583	-0.175242
H162	H	0.222872	1.054435	-0.423327
H163	H	0.353792	0.999576	0.067093
H164	H	0.209717	0.999638	-0.301501
F165	F	0.561678	0.630971	-0.748431
H166	H	0.209747	0.765128	-0.067032
H167	H	0.145167	0.496921	0.067044
H168	H	0.677426	1.054417	-0.423342
H169	H	0.209748	0.999636	-0.067022
F170	F	0.355432	1.007258	-0.452455
H171	H	1.145170	0.262438	0.067006
H172	H	0.605492	-0.109893	0.067076
F173	F	0.595487	0.882650	-0.327887
H174	H	0.605424	0.999692	-0.435674
H175	H	0.471209	0.890185	-0.326182
H176	H	0.749422	0.262450	-0.067067
F177	F	0.561603	0.631036	-0.376165
F178	F	1.029464	0.379456	0.076287
H179	H	0.798034	0.124837	0.009571
H180	H	0.749440	-0.109868	-0.067045
F181	F	0.759347	0.007186	-0.076303
H182	H	0.605486	0.262414	0.067062
F183	F	0.540253	0.138085	-0.010898
H184	H	0.779206	0.631083	-0.259112
F185	F	0.595569	0.379451	0.076312
F186	F	0.489305	0.478421	0.076299
H187	H	0.553199	0.717225	-0.597863
H188	H	0.027610	0.496927	0.067037
H189	H	-0.116368	0.765151	-0.067059
H190	H	0.327302	0.765129	-0.067023
F191	F	0.793262	0.631060	-0.376135
H192	H	0.801711	0.544846	-0.402134
H193	H	0.779312	0.630984	-0.740853
H194	H	0.575681	0.630998	-0.631402
H195	H	0.749523	0.262399	0.435669
H196	H	0.553174	0.717231	-0.488378
H197	H	0.575609	0.631049	-0.259128
H198	H	0.883606	0.371967	-0.067084
