data_functionalizedCrystal
_audit_creation_method	'MofGen! by Chris Wilmer'
_symmetry_space_group_name_H-M	'P1'
_symmetry_Int_Tables_number	1
_symmetry_cell_setting	triclinic
loop_
_symmetry_equiv_pos_as_xyz
  x,y,z
_cell_length_a	16.625527
_cell_length_b	13.032831
_cell_length_c	13.032721
_cell_angle_alpha	89.097115
_cell_angle_beta	82.898416
_cell_angle_gamma	82.761909
loop_
_atom_site_label
_atom_site_type_symbol
_atom_site_fract_x
_atom_site_fract_y
_atom_site_fract_z
Zn1	Zn	0.664305	-1.520957	-0.608629
Zn2	Zn	0.997638	-1.187624	-0.275296
Zn3	Zn	1.330971	-0.854290	0.058038
Zn4	Zn	0.544172	-1.498870	-0.780742
Zn5	Zn	0.877506	-1.165537	-0.447409
Zn6	Zn	1.210839	-0.832203	-0.114076
Zn7	Zn	0.510525	-1.348810	-0.586970
Zn8	Zn	0.843858	-1.015476	-0.253636
Zn9	Zn	1.177192	-0.682143	0.079697
Zn10	Zn	0.660000	-1.327101	-0.758681
Zn11	Zn	0.993333	-0.993767	-0.425347
Zn12	Zn	1.326667	-0.660434	-0.092014
O13	O	0.594751	-1.423934	-0.683755
O14	O	0.928084	-1.090601	-0.350422
O15	O	1.261417	-0.757268	-0.017089
O16	O	0.664252	-1.661957	-0.649757
O17	O	0.997586	-1.328624	-0.316424
O18	O	1.330919	-0.995291	0.016909
O19	O	0.426877	-1.478806	-0.755206
O20	O	0.760211	-1.145473	-0.421873
O21	O	1.093544	-0.812139	-0.088540
O22	O	0.518644	-1.389974	-0.445951
O23	O	0.851977	-1.056641	-0.112618
O24	O	1.185311	-0.723308	0.220715
O25	O	0.575991	-1.645730	-0.776208
O26	O	0.909325	-1.312397	-0.442875
O27	O	1.242658	-0.979063	-0.109542
O28	O	0.631626	-1.516450	-0.461864
O29	O	0.964959	-1.183117	-0.128531
O30	O	1.298292	-0.849784	0.204803
O31	O	0.402157	-1.368557	-0.612842
O32	O	0.735490	-1.035224	-0.279509
O33	O	1.068823	-0.701891	0.053824
O34	O	0.514470	-1.202000	-0.591450
O35	O	0.847803	-0.868666	-0.258117
O36	O	1.181137	-0.535333	0.075216
O37	O	0.773403	-1.352974	-0.738608
O38	O	1.106736	-1.019641	-0.405274
O39	O	1.440069	-0.686308	-0.071941
O40	O	0.624289	-1.186050	-0.717606
O41	O	0.957622	-0.852717	-0.384272
O42	O	1.290955	-0.519383	-0.050939
O43	O	0.776565	-1.495400	-0.628365
O44	O	1.109899	-1.162066	-0.295032
O45	O	1.443232	-0.828733	0.038301
O46	O	0.571817	-1.457755	-0.921707
O47	O	0.905151	-1.124422	-0.588374
O48	O	1.238484	-0.791089	-0.255041
O49	O	0.656915	-1.331557	-0.905499
O50	O	0.990249	-0.998224	-0.572166
O51	O	1.323582	-0.664891	-0.238832
C52	C	0.565261	-1.156705	-0.649784
C53	C	0.898595	-0.823372	-0.316451
C54	C	1.231928	-0.490039	0.016882
C55	C	0.552667	-1.042380	-0.635276
C56	C	0.886000	-0.709047	-0.301943
C57	C	1.219334	-0.375714	0.031390
C58	C	0.385261	-1.423709	-0.684001
C59	C	0.718595	-1.090376	-0.350668
C60	C	1.051928	-0.757043	-0.017335
C61	C	0.295638	-1.423820	-0.683871
C62	C	0.628972	-1.090486	-0.350537
C63	C	0.962305	-0.757153	-0.017204
C64	C	0.617571	-1.389932	-0.950916
C65	C	0.950904	-1.056598	-0.617583
C66	C	1.284238	-0.723265	-0.284250
C67	C	0.627371	-1.375479	-1.065221
C68	C	0.960704	-1.042146	-0.731887
C69	C	1.294038	-0.708813	-0.398554
C70	C	-0.032537	-1.424265	-0.683415
C71	C	0.300796	-1.090932	-0.350082
C72	C	0.634129	-0.757599	-0.016748
C73	C	0.058772	-1.424144	-0.683546
C74	C	0.392105	-1.090811	-0.350212
C75	C	0.725438	-0.757477	-0.016879
C76	C	0.131548	-1.424042	-0.683644
C77	C	0.464881	-1.090709	-0.350310
C78	C	0.798214	-0.757375	-0.016977
C79	C	0.222863	-1.423922	-0.683773
C80	C	0.556196	-1.090588	-0.350439
C81	C	0.889529	-0.757255	-0.017106
C82	C	0.805058	-1.424229	-0.683442
C83	C	1.138391	-1.090896	-0.350108
C84	C	1.471725	-0.757563	-0.016775
C85	C	0.894679	-1.424355	-0.683308
C86	C	1.228012	-1.091022	-0.349975
C87	C	1.561345	-0.757688	-0.016641
C88	C	0.624355	-1.692207	-0.717860
C89	C	0.957689	-1.358873	-0.384527
C90	C	1.291022	-1.025540	-0.051193
C91	C	0.636971	-1.806528	-0.732393
C92	C	0.970304	-1.473195	-0.399060
C93	C	1.303638	-1.139862	-0.065726
C94	C	0.601324	-0.983534	-0.691328
C95	C	0.934657	-0.650201	-0.357994
C96	C	1.267990	-0.316867	-0.024661
C97	C	0.588308	-0.865373	-0.676334
C98	C	0.921641	-0.532040	-0.343001
C99	C	1.254975	-0.198706	-0.009667
C100	C	0.589678	-1.431532	-1.124173
C101	C	0.923011	-1.098198	-0.790840
C102	C	1.256345	-0.764865	-0.457507
C103	C	0.599806	-1.416596	-1.242313
C104	C	0.933139	-1.083263	-0.908980
C105	C	1.266473	-0.749929	-0.575646
C106	C	0.571862	-1.458098	-0.415555
C107	C	0.905195	-1.124764	-0.082222
C108	C	1.238528	-0.791431	0.251112
C109	C	0.562108	-1.472656	-0.301264
C110	C	0.895441	-1.139323	0.032069
C111	C	1.228774	-0.805989	0.365403
H112	H	0.652618	-1.020632	-0.750412
H113	H	0.985952	-0.687299	-0.417078
H114	H	1.319285	-0.353965	-0.083745
H115	H	0.537015	-0.828281	-0.617238
H116	H	0.870348	-0.494947	-0.283905
H117	H	1.203682	-0.161614	0.049429
C118	C	0.535951	-1.511301	-1.074206
C119	C	0.869284	-1.177968	-0.740872
C120	C	1.202617	-0.844635	-0.407539
N121	N	0.495480	-1.571384	-1.036571
N122	N	0.828814	-1.238051	-0.703238
N123	N	1.162147	-0.904718	-0.369904
H124	H	0.688272	-0.843621	-0.791479
H125	H	1.021605	-0.510287	-0.458146
H126	H	1.354938	-0.176954	-0.124813
H127	H	0.639581	-1.357550	-1.279300
H128	H	0.972914	-1.024217	-0.945967
H129	H	1.306247	-0.690883	-0.612633
C130	C	0.508378	-1.552431	-1.251303
C131	C	0.841711	-1.219098	-0.917970
C132	C	1.175045	-0.885765	-0.584636
N133	N	0.467908	-1.612516	-1.213672
N134	N	0.801241	-1.279183	-0.880338
N135	N	1.134575	-0.945849	-0.547005
C136	C	0.681096	-1.295707	-1.115188
C137	C	1.014430	-0.962374	-0.781855
C138	C	1.347763	-0.629041	-0.448521
N139	N	0.721562	-1.235619	-1.152822
N140	N	1.054895	-0.902286	-0.819489
N141	N	1.388229	-0.568953	-0.486155
H142	H	0.501378	-1.005284	-0.576184
H143	H	0.834711	-0.671950	-0.242851
H144	H	1.168044	-0.338617	0.090482
