data_functionalizedCrystal
_audit_creation_method	'MofGen! by Chris Wilmer'
_symmetry_space_group_name_H-M	'P1'
_symmetry_Int_Tables_number	1
_symmetry_cell_setting	triclinic
loop_
_symmetry_equiv_pos_as_xyz
  x,y,z
_cell_length_a	17.640112
_cell_length_b	16.625545
_cell_length_c	17.640968
_cell_angle_alpha	101.230628
_cell_angle_beta	87.860920
_cell_angle_gamma	101.250346
loop_
_atom_site_label
_atom_site_type_symbol
_atom_site_fract_x
_atom_site_fract_y
_atom_site_fract_z
Zn1	Zn	1.247777	-0.023167	0.195080
Zn2	Zn	1.222000	-0.189521	0.068100
Zn3	Zn	1.095107	-0.075617	0.093727
Zn4	Zn	1.120741	-0.178908	0.220682
O5	O	1.171406	-0.116803	0.144397
O6	O	1.350628	-0.027726	0.156797
O7	O	1.183651	-0.200804	-0.034773
O8	O	1.115419	0.044187	0.107182
O9	O	1.331689	-0.149945	0.063505
O10	O	1.227585	0.082722	0.181646
O11	O	1.090423	-0.117119	-0.015945
O12	O	0.992237	-0.106828	0.132007
O13	O	1.159109	-0.131856	0.323559
O14	O	1.011070	-0.182714	0.225280
O15	O	1.252442	-0.017434	0.304749
O16	O	1.208508	-0.300960	0.088330
O17	O	1.134113	-0.293162	0.200431
C18	C	0.974099	-0.149311	0.184203
C19	C	0.889694	-0.163233	0.201250
C20	C	0.563039	-0.011024	0.014898
C21	C	0.483729	-0.024119	0.030927
C22	C	0.503361	-0.103324	0.127885
C23	C	0.582674	-0.090231	0.111867
C24	C	0.612506	-0.044082	0.055372
C25	C	0.632142	-0.123289	0.152341
C26	C	0.711447	-0.110201	0.136321
C27	C	0.741285	-0.064056	0.079827
C28	C	0.691812	-0.030994	0.039352
C29	C	0.602307	-0.169444	0.208831
C30	C	0.651775	-0.202502	0.249305
C31	C	0.731083	-0.189409	0.233290
C32	C	0.760921	-0.143263	0.176796
C33	C	0.780556	-0.222471	0.273765
C34	C	0.859862	-0.209383	0.257745
C35	C	0.840227	-0.130176	0.160776
C36	C	1.171319	-0.326314	0.144390
C37	C	1.171356	-0.415925	0.144398
C38	C	1.171389	-0.488699	0.144407
C39	C	1.171436	-0.579996	0.144415
C40	C	1.171478	-0.652764	0.144417
C41	C	1.171524	-0.744067	0.144424
C42	C	1.369484	-0.084169	0.104436
C43	C	1.453892	-0.070262	0.087407
C44	C	1.211510	-0.067610	0.342480
C45	C	1.228600	-0.046647	0.426890
C46	C	1.171518	0.093533	0.144417
C47	C	1.171566	0.183165	0.144425
C48	C	1.131502	-0.165739	-0.052923
C49	C	1.114559	-0.186451	-0.137363
C50	C	1.041868	-0.275571	0.753467
C51	C	1.057942	-0.255860	0.832780
C52	C	1.155122	-0.136723	0.813185
C53	C	1.139053	-0.156421	0.733869
C54	C	1.082426	-0.225847	0.704016
C55	C	1.179610	-0.106697	0.684418
C56	C	1.163545	-0.126397	0.605108
C57	C	1.106922	-0.195821	0.575249
C58	C	1.066361	-0.245547	0.624706
C59	C	1.236241	-0.037276	0.714272
C60	C	1.276799	0.012448	0.664821
C61	C	1.260730	-0.007248	0.585510
C62	C	1.204107	-0.076672	0.555651
C63	C	1.301292	0.042478	0.536053
C64	C	1.285227	0.022778	0.456743
C65	C	1.188042	-0.096371	0.476341
H66	H	0.627474	-0.240080	0.295301
H67	H	0.587331	0.026571	-0.031094
H68	H	0.716105	0.006601	-0.006640
H69	H	1.322907	0.068973	0.689138
H70	H	0.443455	0.002811	-0.002031
C71	C	0.748018	-0.272521	0.335095
C72	C	0.667979	-0.276895	0.340470
C73	C	0.637981	-0.322986	0.396966
H74	H	0.758654	-0.327352	0.321336
H75	H	0.771319	-0.245975	0.383539
H76	H	0.644685	-0.303442	0.292036
H77	H	0.657321	-0.222077	0.354239
H78	H	0.661283	-0.296440	0.445411
H79	H	0.648623	-0.377814	0.383201
H80	H	0.583674	-0.325953	0.400626
C81	C	0.980384	-0.350886	0.720905
C82	C	0.974987	-0.357480	0.640867
C83	C	0.918352	-0.426840	0.610846
H84	H	0.994030	-0.400075	0.731572
H85	H	0.931973	-0.344264	0.744159
H86	H	1.023387	-0.364108	0.617620
H87	H	0.961330	-0.308308	0.630178
H88	H	0.869942	-0.420218	0.634100
H89	H	0.932004	-0.476023	0.621518
H90	H	0.914678	-0.431318	0.556538
C91	C	1.362719	0.117837	0.568624
C92	C	1.368098	0.124454	0.648666
C93	C	1.424671	0.193871	0.678696
H94	H	1.411152	0.111291	0.545408
H95	H	1.349004	0.166990	0.557924
H96	H	1.381819	0.075313	0.659359
H97	H	1.319681	0.131014	0.671902
H98	H	1.410955	0.243024	0.667996
H99	H	1.473099	0.187318	0.655475
H100	H	1.428323	0.198374	0.733008
C101	C	1.329314	0.076891	0.403180
C102	C	1.382327	0.141921	0.446301
C103	C	1.422950	0.191791	0.396985
H104	H	1.356185	0.043909	0.365544
H105	H	1.294033	0.099603	0.378120
H106	H	1.417604	0.119209	0.471348
H107	H	1.355476	0.174922	0.483935
H108	H	1.387669	0.214503	0.371926
H109	H	1.449816	0.158803	0.359352
H110	H	1.458919	0.235924	0.426237
C111	C	0.470825	-0.153367	0.189220
C112	C	0.390787	-0.157739	0.194601
C113	C	0.360793	-0.203820	0.251104
H114	H	0.481460	-0.208200	0.175466
H115	H	0.494131	-0.126816	0.237662
H116	H	0.367489	-0.184291	0.146170
H117	H	0.380131	-0.102919	0.208366
H118	H	0.384099	-0.177270	0.299546
H119	H	0.371434	-0.258650	0.237344
H120	H	0.306486	-0.206786	0.254768
H121	H	1.141913	-0.152888	0.452037
H122	H	1.020231	-0.302064	0.600402
C123	C	0.913456	-0.245301	0.301801
C124	C	0.870360	-0.288496	0.354721
C125	C	0.919707	-0.321588	0.395325
H126	H	0.938507	-0.282561	0.266531
H127	H	0.951108	-0.201180	0.328730
H128	H	0.832722	-0.332612	0.327794
H129	H	0.845311	-0.251254	0.390007
H130	H	0.957358	-0.277467	0.422254
H131	H	0.944755	-0.358844	0.360050
H132	H	0.890475	-0.350893	0.431241
H133	H	1.093846	-0.211862	0.510668
H134	H	1.024911	-0.296357	0.873042
H135	H	1.201230	-0.080198	0.837502
H136	H	1.249321	-0.021240	0.778851
H137	H	0.864519	-0.092581	0.114784
H138	H	0.805861	-0.053403	0.066784
H139	H	0.537731	-0.180099	0.221873
