data_functionalizedCrystal
_audit_creation_method	'MofGen! by Chris Wilmer'
_symmetry_space_group_name_H-M	'P1'
_symmetry_Int_Tables_number	1
_symmetry_cell_setting	triclinic
loop_
_symmetry_equiv_pos_as_xyz
  x,y,z
_cell_length_a	14.908618
_cell_length_b	14.908520
_cell_length_c	14.908308
_cell_angle_alpha	96.360765
_cell_angle_beta	90.173623
_cell_angle_gamma	90.204437
loop_
_atom_site_label
_atom_site_type_symbol
_atom_site_fract_x
_atom_site_fract_y
_atom_site_fract_z
Zn1	Zn	-1.316646	0.470652	0.613103
Zn2	Zn	-0.816646	0.970652	1.113103
Zn3	Zn	-1.316544	0.613291	0.470467
Zn4	Zn	-0.816544	1.113291	0.970467
Zn5	Zn	-1.176016	0.453326	0.453158
Zn6	Zn	-0.676016	0.953326	0.953158
Zn7	Zn	-1.157638	0.612215	0.612056
Zn8	Zn	-0.657638	1.112215	1.112056
O9	O	-1.241711	0.537371	0.537196
O10	O	-0.741711	1.037371	1.037196
O11	O	-1.441990	0.497274	0.601863
O12	O	-0.941990	0.997274	1.101863
O13	O	-1.305552	0.585271	0.341978
O14	O	-0.805552	1.085271	0.841978
O15	O	-1.202405	0.329434	0.467570
O16	O	-0.702405	0.829434	0.967570
O17	O	-1.441915	0.602070	0.497069
O18	O	-0.941915	1.102070	0.997069
O19	O	-1.305725	0.342163	0.585080
O20	O	-0.805725	0.842163	1.085080
O21	O	-1.202306	0.467746	0.329262
O22	O	-0.702306	0.967746	0.829262
O23	O	-1.048221	0.466702	0.466555
O24	O	-0.548221	0.966702	0.966555
O25	O	-1.171082	0.600236	0.738387
O26	O	-0.671082	1.100236	1.238387
O27	O	-1.034719	0.583437	0.583296
O28	O	-0.534719	1.083437	1.083296
O29	O	-1.287905	0.496231	0.739156
O30	O	-0.787905	0.996231	1.239156
O31	O	-1.287731	0.739338	0.496054
O32	O	-0.787731	1.239338	0.996054
O33	O	-1.170983	0.738548	0.600079
O34	O	-0.670983	1.238548	1.100079
C35	C	-1.008966	0.523073	0.522934
C36	C	-0.508966	1.023073	1.022934
C37	C	-0.909394	0.516980	0.516856
C38	C	-0.409394	1.016980	1.016856
C39	C	-1.227455	0.550046	0.772407
C40	C	-0.727455	1.050046	1.272407
C41	C	-1.221379	0.555448	0.872640
C42	C	-0.721379	1.055448	1.372640
C43	C	-1.227375	0.771665	0.549852
C44	C	-0.727375	1.271665	1.049852
C45	C	-1.221322	0.871904	0.555302
C46	C	-0.721322	1.371904	1.055302
C47	C	-0.708275	0.627255	0.626851
C48	C	-0.208275	1.127255	1.126851
C49	C	-0.614718	0.621533	0.621143
C50	C	-0.114718	1.121533	1.121143
C51	C	-0.628721	0.499808	0.499737
C52	C	-0.128721	0.999808	0.999737
C53	C	-0.722278	0.505531	0.505445
C54	C	-0.222278	1.005531	1.005445
C55	C	-0.762052	0.569257	0.569003
C56	C	-0.262052	1.069257	1.069003
C57	C	-0.855610	0.574984	0.574706
C58	C	-0.355610	1.074984	1.074706
C59	C	-0.869612	0.453255	0.453305
C60	C	-0.369612	0.953255	0.953305
C61	C	-0.776055	0.447533	0.447597
C62	C	-0.276055	0.947533	0.947597
C63	C	-0.475366	0.551718	0.551507
C64	C	0.024634	1.051718	1.051507
C65	C	-0.574937	0.557812	0.557587
C66	C	-0.074937	1.057812	1.057587
C67	C	-1.256126	0.302164	0.524511
C68	C	-0.756126	0.802164	1.024511
C69	C	-1.262269	0.201933	0.519106
C70	C	-0.762269	0.701933	1.019106
C71	C	-1.331630	1.061038	0.457322
C72	C	-0.831630	1.561038	0.957322
C73	C	-1.325946	1.155221	0.462440
C74	C	-0.825946	1.655221	0.962440
C75	C	-1.204275	1.154456	0.570660
C76	C	-0.704275	1.654456	1.070660
C77	C	-1.209959	1.060273	0.565542
C78	C	-0.709959	1.560273	1.065542
C79	C	-1.273638	1.013567	0.508870
C80	C	-0.773638	1.513567	1.008870
C81	C	-1.279317	0.919381	0.503748
C82	C	-0.779317	1.419381	1.003748
C83	C	-1.157651	0.918619	0.611973
C84	C	-0.657651	1.418619	1.111973
C85	C	-1.151967	1.012802	0.617090
C86	C	-0.651967	1.512802	1.117090
C87	C	-1.255968	0.524683	0.302899
C88	C	-0.755968	1.024683	0.802899
C89	C	-1.262232	0.519038	0.202664
C90	C	-0.762232	1.019038	0.702664
C91	C	-1.331609	0.457275	1.061790
C92	C	-0.831609	0.957275	1.561790
C93	C	-1.325904	0.462347	1.155968
C94	C	-0.825904	0.962347	1.655968
C95	C	-1.204260	0.570659	1.155175
C96	C	-0.704260	1.070659	1.655175
C97	C	-1.209965	0.565587	1.060997
C98	C	-0.709965	1.065587	1.560997
C99	C	-1.273643	0.508894	1.014308
C100	C	-0.773643	1.008894	1.514308
C101	C	-1.279352	0.503827	0.920129
C102	C	-0.779352	1.003827	1.420129
C103	C	-1.157704	0.612133	0.919337
C104	C	-0.657704	1.112133	1.419337
C105	C	-1.151999	0.617205	1.013515
C106	C	-0.651999	1.117205	1.513515
H107	H	-0.740659	0.679148	0.678598
H108	H	-0.240659	1.179148	1.178598
H109	H	-1.152416	0.616815	1.193206
H110	H	-0.652416	1.116815	1.693206
H111	H	-1.331203	0.457666	0.882116
H112	H	-0.831203	0.957666	1.382116
C113	C	-0.555562	0.685329	0.684772
C114	C	-0.055562	1.185329	1.184772
H115	H	-0.494146	0.672791	0.672276
H116	H	0.005854	1.172791	1.172276
H117	H	-0.568000	0.746121	0.675690
H118	H	-0.068000	1.246121	1.175690
H119	H	-0.568037	0.676419	0.745613
H120	H	-0.068037	1.176419	1.245613
H121	H	-1.331165	0.881354	0.457601
H122	H	-0.831165	1.381354	0.957601
C123	C	-0.899365	0.645081	0.644611
C124	C	-0.399365	1.145081	1.144611
H125	H	-0.962787	0.640191	0.639721
H126	H	-0.462787	1.140191	1.139721
H127	H	-0.881176	0.634307	0.703580
H128	H	-0.381176	1.134307	1.203580
H129	H	-0.881134	0.703997	0.633646
H130	H	-0.381134	1.203997	1.133646
H131	H	-1.383474	1.023008	0.411171
H132	H	-0.883474	1.523008	0.911171
C133	C	-1.389671	0.405576	1.208200
C134	C	-0.889671	0.905576	1.708200
H135	H	-1.377152	0.416711	1.270976
H136	H	-0.877152	0.916711	1.770976
H137	H	-1.449985	0.421638	1.197161
H138	H	-0.949985	0.921638	1.697161
H139	H	-1.381203	0.343346	1.188695
H140	H	-0.881203	0.843346	1.688695
C141	C	-1.093937	0.668915	0.867106
C142	C	-0.593937	1.168915	1.367106
H143	H	-1.106450	0.657773	0.804329
H144	H	-0.606450	1.157773	1.304329
H145	H	-1.102401	0.731139	0.886615
H146	H	-0.602401	1.231139	1.386615
H147	H	-1.033618	0.652848	0.878139
H148	H	-0.533618	1.152848	1.378139
C149	C	-0.584960	0.429726	0.429822
C150	C	-0.084960	0.929726	0.929822
H151	H	-0.521539	0.434633	0.434705
H152	H	-0.021539	0.934633	0.934705
H153	H	-0.603183	0.370805	0.440763
H154	H	-0.103183	0.870805	0.940763
H155	H	-0.603149	0.440521	0.370853
H156	H	-0.103149	0.940521	0.870853
C157	C	-1.081962	0.679565	1.064878
C158	C	-0.581962	1.179565	1.564878
H159	H	-1.086869	0.675198	1.127769
H160	H	-0.586869	1.175198	1.627769
H161	H	-1.023515	0.661849	1.045045
H162	H	-0.523515	1.161849	1.545045
H163	H	-1.092309	0.740130	1.053518
H164	H	-0.592309	1.240130	1.553518
H165	H	-0.743659	0.395647	0.395852
H166	H	-0.243659	0.895647	0.895852
C167	C	-1.389733	1.207436	0.405732
C168	C	-0.889733	1.707436	0.905732
H169	H	-1.428464	1.166126	0.371245
H170	H	-0.928464	1.666126	0.871245
H171	H	-1.424427	1.248386	0.444643
H172	H	-0.924427	1.748386	0.944643
H173	H	-1.355655	1.239997	0.366307
H174	H	-0.855655	1.739997	0.866307
C175	C	-1.401653	0.394925	1.010426
C176	C	-0.901653	0.894925	1.510426
H177	H	-1.396753	0.399303	0.947537
H178	H	-0.896753	0.899303	1.447537
H179	H	-1.391327	0.334361	1.021786
H180	H	-0.891327	0.834361	1.521786
H181	H	-1.460100	0.412661	1.030259
H182	H	-0.960100	0.912661	1.530259
C183	C	-0.928768	0.389453	0.389672
C184	C	-0.428768	0.889453	0.889672
H185	H	-0.990185	0.401982	0.402176
H186	H	-0.490185	0.901982	0.902176
H187	H	-0.916293	0.398352	0.328833
H188	H	-0.416293	0.898352	0.828833
H189	H	-0.916332	0.328658	0.398765
H190	H	-0.416332	0.828658	0.898765
H191	H	-1.100124	1.050843	0.663233
H192	H	-0.600124	1.550843	1.163233
C193	C	-1.134235	1.205842	0.632989
C194	C	-0.634235	1.705842	1.132989
H195	H	-1.139155	1.268732	0.628648
H196	H	-0.639155	1.768732	1.128648
H197	H	-1.144545	1.194442	0.693552
H198	H	-0.644545	1.694442	1.193552
H199	H	-1.075785	1.186063	0.615206
H200	H	-0.575785	1.686063	1.115206
H201	H	-1.110427	0.879957	0.653944
H202	H	-0.610427	1.379957	1.153944
