data_functionalizedCrystal
_audit_creation_method	'MofGen! by Chris Wilmer'
_symmetry_space_group_name_H-M	'P1'
_symmetry_Int_Tables_number	1
_symmetry_cell_setting	triclinic
loop_
_symmetry_equiv_pos_as_xyz
  x,y,z
_cell_length_a	12.594517
_cell_length_b	12.594516
_cell_length_c	12.594509
_cell_angle_alpha	89.972125
_cell_angle_beta	89.988522
_cell_angle_gamma	90.007702
loop_
_atom_site_label
_atom_site_type_symbol
_atom_site_fract_x
_atom_site_fract_y
_atom_site_fract_z
Zn1	Zn	1.627298	-0.423827	-0.601583
Zn2	Zn	2.127298	0.076173	-0.101583
Zn3	Zn	1.627202	-0.601837	-0.423606
Zn4	Zn	2.127202	-0.101837	0.076394
Zn5	Zn	1.449302	-0.423860	-0.423642
Zn6	Zn	1.949302	0.076140	0.076358
Zn7	Zn	1.449297	-0.601751	-0.601566
Zn8	Zn	1.949297	-0.101751	-0.101566
O9	O	1.538275	-0.512819	-0.512599
O10	O	2.038275	-0.012819	-0.012599
O11	O	1.776231	-0.447463	-0.577965
O12	O	2.276231	0.052537	-0.077965
O13	O	1.603565	-0.578278	-0.274665
O14	O	2.103565	-0.078278	0.225335
O15	O	1.472956	-0.274910	-0.447269
O16	O	1.972956	0.225090	0.052731
O17	O	1.776161	-0.578246	-0.447206
O18	O	2.276161	-0.078246	0.052794
O19	O	1.603729	-0.274886	-0.578001
O20	O	2.103729	0.225114	-0.078001
O21	O	1.472863	-0.447519	-0.274692
O22	O	1.972863	0.052481	0.225308
O23	O	1.300356	-0.447436	-0.447253
O24	O	1.800356	0.052564	0.052747
O25	O	1.472948	-0.578099	-0.750514
O26	O	1.972948	-0.078099	-0.250514
O27	O	1.300352	-0.578131	-0.577973
O28	O	1.800352	-0.078131	-0.077973
O29	O	1.603724	-0.447379	-0.750527
O30	O	2.103724	0.052621	-0.250527
O31	O	1.603561	-0.750772	-0.447190
O32	O	2.103561	-0.250772	0.052810
O33	O	1.472855	-0.750708	-0.577937
O34	O	1.972855	-0.250708	-0.077937
C35	C	1.261734	-0.512779	-0.512615
C36	C	1.761734	-0.012779	-0.012615
C37	C	1.143429	-0.512787	-0.512648
C38	C	1.643429	-0.012787	-0.012648
C39	C	1.074204	-0.584011	-0.583609
C40	C	1.574204	-0.084011	-0.083609
C41	C	1.003389	-0.486966	-0.609786
C42	C	1.503389	0.013034	-0.109786
C43	C	1.003445	-0.609913	-0.486446
C44	C	1.503445	-0.109913	0.013554
C45	C	1.074171	-0.415689	-0.538876
C46	C	1.574171	0.084311	-0.038876
C47	C	1.074234	-0.538702	-0.415491
C48	C	1.574234	-0.038702	0.084509
C49	C	1.003450	-0.441589	-0.441632
C50	C	1.503450	0.058411	0.058368
C51	C	1.538226	-0.789360	-0.512581
C52	C	2.038226	-0.289360	-0.012581
C53	C	1.538302	-0.907665	-0.512608
C54	C	2.038302	-0.407665	-0.012608
C55	C	1.609475	-0.976914	-0.441571
C56	C	2.109475	-0.476914	0.058429
C57	C	1.635486	-1.047613	-0.538716
C58	C	2.135486	-0.547613	-0.038716
C59	C	1.512424	-1.047766	-0.415525
C60	C	2.012424	-0.547766	0.084475
C61	C	1.564362	-0.976805	-0.609804
C62	C	2.064362	-0.476805	-0.109804
C63	C	1.441256	-0.976952	-0.486548
C64	C	1.941256	-0.476952	0.013452
C65	C	1.467229	-1.047619	-0.583760
C66	C	1.967229	-0.547619	-0.083760
C67	C	1.815896	-0.512860	-0.512584
C68	C	2.315896	-0.012860	-0.012584
C69	C	1.934201	-0.512878	-0.512577
C70	C	2.434201	-0.012878	-0.012577
C71	C	1.538346	-0.512726	-0.790220
C72	C	2.038346	-0.012726	-0.290220
C73	C	1.538377	-0.512686	-0.908526
C74	C	2.038377	-0.012686	-0.408526
C75	C	1.538354	-0.235198	-0.512641
C76	C	2.038354	0.264802	-0.012641
C77	C	1.538387	-0.116893	-0.512659
C78	C	2.038387	0.383107	-0.012659
C79	C	1.467270	-0.583744	-0.977772
C80	C	1.967270	-0.083744	-0.477772
C81	C	1.564392	-0.609757	-1.048546
C82	C	2.064392	-0.109757	-0.548546
C83	C	1.441330	-0.486608	-1.048551
C84	C	1.941330	0.013392	-0.548551
C85	C	1.635550	-0.538750	-0.977741
C86	C	2.135550	-0.038750	-0.477741
C87	C	1.512422	-0.415556	-0.977740
C88	C	2.012422	0.084444	-0.477740
C89	C	1.609612	-0.441532	-1.048482
C90	C	2.109612	0.058468	-0.548482
C91	C	1.538265	-0.512835	-0.236058
C92	C	2.038265	-0.012835	0.263942
C93	C	1.538441	-0.512575	-0.117753
C94	C	2.038441	-0.012575	0.382247
H95	H	0.972372	-0.692013	-0.464318
H96	H	1.472372	-0.192013	0.035682
H97	H	1.407184	-0.643929	-0.946725
H98	H	1.907184	-0.143929	-0.446725
H99	H	1.586380	-0.691850	-1.079648
H100	H	2.086380	-0.191850	-0.579648
Cl101	Cl	0.955342	-0.453171	-0.736591
Cl102	Cl	1.455342	0.046829	-0.236591
H103	H	1.717593	-1.078653	-0.560787
H104	H	2.217593	-0.578653	-0.060787
Cl105	Cl	1.702412	-0.928976	-0.348904
Cl106	Cl	2.202412	-0.428976	0.151096
Cl107	Cl	1.598373	-0.928894	-0.736630
Cl108	Cl	2.098373	-0.428894	-0.236630
Cl109	Cl	1.374358	-1.095256	-0.676646
Cl110	Cl	1.874358	-0.595256	-0.176646
Cl111	Cl	1.314520	-0.928996	-0.452432
Cl112	Cl	1.814520	-0.428996	0.047568
H113	H	1.490502	-1.078934	-0.333402
H114	H	1.990502	-0.578934	0.166598
Cl115	Cl	1.762338	-0.572889	-0.929928
Cl116	Cl	2.262338	-0.072889	-0.429928
Cl117	Cl	1.702598	-0.348683	-1.096124
Cl118	Cl	2.202598	0.151317	-0.596124
H119	H	1.490406	-0.333487	-0.946615
H120	H	1.990406	0.166513	-0.446615
Cl121	Cl	1.314579	-0.452624	-1.096574
Cl122	Cl	1.814579	0.047376	-0.596574
Cl123	Cl	0.955782	-0.348553	-0.348935
Cl124	Cl	1.455782	0.151447	0.151065
H125	H	1.105109	-0.333565	-0.561100
H126	H	1.605109	0.166435	-0.061100
Cl127	Cl	1.122174	-0.676830	-0.676371
Cl128	Cl	1.622174	-0.176830	-0.176371
H129	H	1.105376	-0.560619	-0.333382
H130	H	1.605376	-0.060619	0.166618
