data_functionalizedCrystal
_audit_creation_method	'MofGen! by Chris Wilmer'
_symmetry_space_group_name_H-M	'P1'
_symmetry_Int_Tables_number	1
_symmetry_cell_setting	triclinic
loop_
_symmetry_equiv_pos_as_xyz
  x,y,z
_cell_length_a	27.732048
_cell_length_b	23.532355
_cell_length_c	22.010155
_cell_angle_alpha	89.997414
_cell_angle_beta	89.988014
_cell_angle_gamma	97.264924
loop_
_atom_site_label
_atom_site_type_symbol
_atom_site_fract_x
_atom_site_fract_y
_atom_site_fract_z
O1	O	-0.058552	0.755158	-0.050433
O2	O	0.441448	1.255158	0.449567
O3	O	-0.067069	0.589272	-0.050451
O4	O	0.432931	1.089272	0.449549
O5	O	0.007579	0.677367	-0.050449
O6	O	0.507579	1.177367	0.449551
O7	O	-0.133200	0.667063	-0.050434
O8	O	0.366800	1.167063	0.449566
O9	O	0.007568	0.677351	0.050601
O10	O	0.507568	1.177351	0.550601
O11	O	-0.067080	0.589256	0.050600
O12	O	0.432920	1.089256	0.550600
O13	O	-0.058564	0.755142	0.050618
O14	O	0.441436	1.255142	0.550618
Cu15	Cu	-0.062823	0.672198	0.059835
Cu16	Cu	0.437177	1.172198	0.559835
Cu17	Cu	-0.062810	0.672216	-0.059668
Cu18	Cu	0.437190	1.172216	0.440332
O19	O	-0.133212	0.667047	0.050616
O20	O	0.366788	1.167047	0.550616
C21	C	-0.066862	0.568048	0.000072
C22	C	0.433138	1.068048	0.500072
C23	C	-0.066222	0.504831	0.000065
C24	C	0.433778	1.004831	0.500065
C25	C	-0.062206	0.112817	0.055172
C26	C	0.437794	0.612817	0.555172
C27	C	-0.061597	0.053419	0.055175
C28	C	0.438403	0.553419	0.555175
O29	O	-0.061271	0.022693	0.102020
O30	O	0.438729	0.522693	0.602020
N31	N	-0.061289	0.023720	0.000092
N32	N	0.438711	0.523720	0.500092
C33	C	-0.061585	0.053422	-0.054996
C34	C	0.438415	0.553422	0.445004
O35	O	-0.061267	0.022707	-0.101848
O36	O	0.438733	0.522707	0.398152
C37	C	-0.062191	0.112820	-0.054998
C38	C	0.437809	0.612820	0.445002
C39	C	-0.062504	0.142515	0.000088
C40	C	0.437496	0.642515	0.500088
C41	C	-0.062519	0.142512	0.110254
C42	C	0.437481	0.642512	0.610254
C43	C	-0.063129	0.201906	0.110251
C44	C	0.436871	0.701906	0.610251
C45	C	-0.063426	0.231604	0.055167
C46	C	0.436574	0.731604	0.555167
C47	C	-0.063114	0.201909	0.000086
C48	C	0.436886	0.701909	0.500086
C49	C	-0.062483	0.142522	-0.110085
C50	C	0.437517	0.642522	0.389915
C51	C	-0.063088	0.201924	-0.110082
C52	C	0.436912	0.701924	0.389918
C53	C	-0.063401	0.231619	-0.054996
C54	C	0.436599	0.731619	0.445004
C55	C	-0.064021	0.291001	-0.055001
C56	C	0.435979	0.791001	0.444999
N57	N	-0.064329	0.320701	0.000082
N58	N	0.435671	0.820701	0.500082
C59	C	-0.064031	0.291002	0.055166
C60	C	0.435969	0.791002	0.555166
C61	C	-0.060313	-0.071316	-0.054988
C62	C	0.439687	0.428684	0.445012
C63	C	-0.059711	-0.130713	-0.054987
C64	C	0.440289	0.369287	0.445013
C65	C	-0.059722	-0.130713	0.055184
C66	C	0.440278	0.369287	0.555184
C67	C	-0.060328	-0.071315	0.055182
C68	C	0.439672	0.428685	0.555182
C69	C	-0.060621	-0.041617	0.000094
C70	C	0.439379	0.458383	0.500094
C71	C	-0.065312	0.415733	0.055156
C72	C	0.434688	0.915733	0.555156
C73	C	-0.065924	0.475132	0.055149
C74	C	0.434076	0.975132	0.555149
C75	C	-0.065911	0.475127	-0.055022
C76	C	0.434089	0.975127	0.444978
C77	C	-0.065301	0.415733	-0.055015
C78	C	0.434699	0.915733	0.444985
C79	C	-0.065001	0.386038	0.000079
C80	C	0.434999	0.886038	0.500079
O81	O	-0.064345	0.321765	-0.101822
O82	O	0.435655	0.821765	0.398178
O83	O	-0.064343	0.321726	0.102009
O84	O	0.435657	0.821726	0.602009
C85	C	-0.151213	0.667271	0.000093
C86	C	0.348787	1.167271	0.500093
C87	C	-0.204869	0.667923	0.000099
C88	C	0.295131	1.167923	0.500099
C89	C	-0.543618	0.619965	0.000065
C90	C	-0.043618	1.119965	0.500065
C91	C	-0.745281	0.622381	0.000058
C92	C	-0.245281	1.122381	0.500058
O93	O	-0.776476	0.578527	0.000026
O94	O	-0.276476	1.078527	0.500026
N95	N	-0.764477	0.674618	0.000064
N96	N	-0.264477	1.174618	0.500064
C97	C	-0.733253	0.726254	0.000069
C98	C	-0.233253	1.226254	0.500069
O99	O	-0.754208	0.770740	0.000068
O100	O	-0.254208	1.270740	0.500068
C101	C	-0.531591	0.723837	0.000071
C102	C	-0.031591	1.223837	0.500071
C103	C	-0.512398	0.671597	0.000071
C104	C	-0.012398	1.171597	0.500071
C105	C	-0.524424	0.567729	0.000064
C106	C	-0.024424	1.067729	0.500064
C107	C	-0.474012	0.567125	0.000069
C108	C	0.025988	1.067125	0.500069
C109	C	-0.442792	0.618757	0.000075
C110	C	0.057208	1.118757	0.500075
C111	C	-0.461986	0.670993	0.000076
C112	C	0.038014	1.170993	0.500076
C113	C	-0.500369	0.775472	0.000071
C114	C	-0.000369	1.275472	0.500071
C115	C	-0.449951	0.774863	0.000070
C116	C	0.050049	1.274863	0.500070
C117	C	-0.430758	0.722623	0.000070
C118	C	0.069242	1.222623	0.500070
C119	C	-0.380353	0.722022	0.000087
C120	C	0.119647	1.222022	0.500087
N121	N	-0.361158	0.669785	0.000080
N122	N	0.138842	1.169785	0.500080
C123	C	-0.392377	0.618153	0.000074
C124	C	0.107623	1.118153	0.500074
C125	C	-0.839129	0.727519	0.000068
C126	C	-0.339129	1.227519	0.500068
C127	C	-0.889544	0.728124	0.000069
C128	C	-0.389544	1.228124	0.500069
C129	C	-0.901568	0.624251	0.000057
C130	C	-0.401568	1.124251	0.500057
C131	C	-0.851152	0.623647	0.000061
C132	C	-0.351152	1.123647	0.500061
C133	C	-0.819933	0.675283	0.000062
C134	C	-0.319933	1.175283	0.500062
C135	C	-0.286506	0.616889	0.000086
C136	C	0.213494	1.116889	0.500086
C137	C	-0.236088	0.616290	0.000093
C138	C	0.263912	1.116290	0.500093
C139	C	-0.224069	0.720163	0.000102
C140	C	0.275931	1.220163	0.500102
C141	C	-0.274482	0.720762	0.000097
C142	C	0.225518	1.220762	0.500097
C143	C	-0.305700	0.669121	0.000087
C144	C	0.194300	1.169121	0.500087
O145	O	-0.349130	0.765852	0.000111
O146	O	0.150870	1.265852	0.500111
O147	O	-0.371413	0.573673	0.000062
O148	O	0.128587	1.073673	0.500062
C149	C	-0.594031	0.620568	0.000060
C150	C	-0.094031	1.120568	0.500060
C151	C	-0.613224	0.672804	0.000061
C152	C	-0.113224	1.172804	0.500061
C153	C	-0.582005	0.724436	0.000067
C154	C	-0.082005	1.224436	0.500067
C155	C	-0.663639	0.673408	0.000061
C156	C	-0.163639	1.173408	0.500061
C157	C	-0.694859	0.621776	0.000055
C158	C	-0.194859	1.121776	0.500055
C159	C	-0.675663	0.569539	0.000048
C160	C	-0.175663	1.069539	0.500048
C161	C	-0.625250	0.568936	0.000054
C162	C	-0.125250	1.068936	0.500054
C163	C	-0.601200	0.776673	0.000073
C164	C	-0.101200	1.276673	0.500073
C165	C	-0.651614	0.777272	0.000069
C166	C	-0.151614	1.277272	0.500069
C167	C	-0.682833	0.725640	0.000063
C168	C	-0.182833	1.225640	0.500063
C169	C	0.025580	0.677143	0.000073
C170	C	0.525580	1.177143	0.500073
C171	C	0.079236	0.676491	0.000063
C172	C	0.579236	1.176491	0.500063
C173	C	-0.058771	0.776366	0.000094
C174	C	0.441229	1.276366	0.500094
C175	C	-0.059411	0.839583	0.000097
C176	C	0.440589	1.339583	0.500097
N177	N	-0.062832	0.672188	0.143888
N178	N	0.437168	1.172188	0.643888
N179	N	-0.062797	0.672230	-0.143721
N180	N	0.437203	1.172230	0.356279
C181	C	-0.029760	0.711227	0.563668
C182	C	0.470240	1.211227	1.063668
C183	C	-0.029757	0.711230	0.627276
C184	C	0.470243	1.211230	1.127276
O185	O	-0.001645	0.744399	0.660168
O186	O	0.498355	1.244399	1.160168
N187	N	-0.062800	0.672216	0.659095
N188	N	0.437200	1.172216	1.159095
C189	C	-0.095844	0.633194	0.627304
C190	C	0.404156	1.133194	1.127304
O191	O	-0.123949	0.600009	0.660209
O192	O	0.376051	1.100009	1.160209
C193	C	-0.095845	0.633189	0.563697
C194	C	0.404155	1.133189	1.063697
C195	C	-0.062804	0.672209	0.531881
C196	C	0.437196	1.172209	1.031881
C197	C	0.003279	0.750243	0.531852
C198	C	0.503279	1.250243	1.031852
C199	C	0.003275	0.750241	0.468249
C200	C	0.503275	1.250241	0.968249
C201	C	-0.029768	0.711223	0.436462
C202	C	0.470232	1.211223	0.936462
C203	C	-0.062808	0.672206	0.468278
C204	C	0.437192	1.172206	0.968278
C205	C	-0.128887	0.594164	0.531907
C206	C	0.371113	1.094164	1.031907
C207	C	-0.128885	0.594162	0.468296
C208	C	0.371115	1.094162	0.968296
C209	C	-0.095843	0.633182	0.436480
C210	C	0.404157	1.133182	0.936480
C211	C	-0.095855	0.633186	0.372888
C212	C	0.404145	1.133186	0.872888
N213	N	-0.062812	0.672199	0.341068
N214	N	0.437188	1.172199	0.841068
C215	C	-0.029769	0.711218	0.372855
C216	C	0.470231	1.211218	0.872855
C217	C	-0.095840	0.633206	0.760881
C218	C	0.404160	1.133206	1.260881
C219	C	-0.095842	0.633213	0.824487
C220	C	0.404158	1.133213	1.324487
C221	C	-0.029754	0.711249	0.824454
C222	C	0.470246	1.211249	1.324454
C223	C	-0.029754	0.711244	0.760848
C224	C	0.470246	1.211244	1.260848
C225	C	-0.062797	0.672220	0.729062
C226	C	0.437203	1.172220	1.229062
C227	C	-0.029780	0.711211	0.239284
C228	C	0.470220	1.211211	0.739284
C229	C	-0.029789	0.711207	0.175675
C230	C	0.470211	1.211207	0.675675
C231	C	-0.095875	0.633170	0.175713
C232	C	0.404125	1.133170	0.675713
C233	C	-0.095869	0.633175	0.239316
C234	C	0.404131	1.133175	0.739316
C235	C	-0.062817	0.672198	0.271100
C236	C	0.437183	1.172198	0.771100
O237	O	-0.123952	0.600032	0.339955
O238	O	0.376048	1.100032	0.839955
O239	O	-0.001665	0.744392	0.339942
O240	O	0.498335	1.244392	0.839942
H241	H	-0.059464	-0.154888	-0.099844
H242	H	0.440536	0.345112	0.400156
H243	H	-0.002848	0.743019	0.850347
H244	H	0.497152	1.243019	1.350347
H245	H	-0.002882	0.742984	0.149772
H246	H	0.497118	1.242984	0.649772
C247	C	-0.165238	0.551246	0.566891
C248	C	0.334762	1.051246	1.066891
H249	H	-0.184912	0.528009	0.538841
H250	H	0.315088	1.028009	1.038841
H251	H	-0.185270	0.571554	0.591705
H252	H	0.314730	1.071554	1.091705
H253	H	-0.147957	0.527688	0.591702
H254	H	0.352043	1.027688	1.091702
H255	H	-0.155792	0.562382	0.442419
H256	H	0.344208	1.062382	0.942419
C257	C	-0.910654	0.785586	0.000080
C258	C	-0.410654	1.285586	0.500080
H259	H	-0.945151	0.778557	0.000084
H260	H	-0.445151	1.278557	0.500084
H261	H	-0.899912	0.806833	-0.035156
H262	H	-0.399912	1.306833	0.464844
H263	H	-0.899925	0.806817	0.035326
H264	H	-0.399925	1.306817	0.535326
H265	H	-0.575786	0.818719	0.000078
H266	H	-0.075786	1.318719	0.500078
C267	C	-0.063413	0.234591	-0.170679
C268	C	0.436587	0.734591	0.329321
H269	H	-0.063817	0.274220	-0.162795
H270	H	0.436183	0.774220	0.337205
H271	H	-0.091501	0.220260	-0.193311
H272	H	0.408499	0.720260	0.306689
H273	H	-0.035113	0.229452	-0.193310
H274	H	0.464887	0.729452	0.306690
H275	H	-0.311918	0.574838	0.000077
H276	H	0.188082	1.074838	0.500077
C277	C	-0.060646	-0.038655	-0.115589
C278	C	0.439354	0.461345	0.384411
H279	H	-0.060380	-0.064855	-0.148390
H280	H	0.439620	0.435145	0.351610
H281	H	-0.032691	-0.010888	-0.117890
H282	H	0.467309	0.489112	0.382110
H283	H	-0.089079	-0.020082	-0.117876
H284	H	0.410921	0.479918	0.382124
C285	C	0.006573	0.754137	0.274237
C286	C	0.506573	1.254137	0.774237
H287	H	0.026244	0.777374	0.246172
H288	H	0.526244	1.277374	0.746172
H289	H	0.026609	0.733836	0.299046
H290	H	0.526609	1.233836	0.799046
H291	H	-0.010711	0.777695	0.299052
H292	H	0.489289	1.277695	0.799052
H293	H	-0.059479	-0.154904	0.100036
H294	H	0.440521	0.345096	0.600036
H295	H	-0.122753	0.601446	0.850387
H296	H	0.377247	1.101446	1.350387
C297	C	-0.064973	0.383064	-0.115607
C298	C	0.435027	0.883064	0.384393
H299	H	-0.065239	0.409261	-0.148413
H300	H	0.434761	0.909261	0.351587
H301	H	-0.092928	0.355299	-0.117886
H302	H	0.407072	0.855299	0.382114
H303	H	-0.036540	0.364489	-0.117908
H304	H	0.463460	0.864489	0.382092
H305	H	-0.458390	0.524586	0.000063
H306	H	0.041610	1.024586	0.500063
H307	H	-0.122751	0.601429	0.735004
H308	H	0.377249	1.101429	1.235004
H309	H	-0.424534	0.816913	0.000068
H310	H	0.075466	1.316913	0.500068
H311	H	-0.002849	0.743017	0.734947
H312	H	0.497151	1.243017	1.234947
C313	C	-0.604144	0.511471	0.000046
C314	C	-0.104144	1.011471	0.500046
H315	H	-0.629963	0.480812	0.000036
H316	H	-0.129963	0.980812	0.500036
H317	H	-0.584734	0.509064	0.035284
H318	H	-0.084734	1.009064	0.535284
H319	H	-0.584722	0.509081	-0.035198
H320	H	-0.084722	1.009081	0.464802
C321	C	-0.521470	0.832937	0.000063
C322	C	-0.021470	1.332937	0.500063
H323	H	-0.495650	0.863596	0.000057
H324	H	0.004350	1.363596	0.500057
H325	H	-0.540896	0.835339	0.035298
H326	H	-0.040896	1.335339	0.535298
H327	H	-0.540876	0.835335	-0.035184
H328	H	-0.040876	1.335335	0.464816
C329	C	-0.935916	0.567456	0.000042
C330	C	-0.435916	1.067456	0.500042
H331	H	-0.968689	0.575303	0.000036
H332	H	-0.468689	1.075303	0.500036
H333	H	-0.930137	0.546003	0.035273
H334	H	-0.430137	1.046003	0.535273
H335	H	-0.930117	0.546031	-0.035208
H336	H	-0.430117	1.046031	0.464792
C337	C	-0.295595	0.778224	0.000105
C338	C	0.204405	1.278224	0.500105
H339	H	-0.269780	0.808888	0.000108
H340	H	0.230220	1.308888	0.500108
H341	H	-0.315023	0.780614	0.035340
H342	H	0.184977	1.280614	0.535340
H343	H	-0.315001	0.780625	-0.035142
H344	H	0.184999	1.280625	0.464858
C345	C	-0.132195	0.590233	0.274315
C346	C	0.367805	1.090233	0.774315
H347	H	-0.151867	0.566987	0.246272
H348	H	0.348133	1.066987	0.746272
H349	H	-0.152233	0.610514	0.299152
H350	H	0.347767	1.110514	0.799152
H351	H	-0.114884	0.566688	0.299105
H352	H	0.385116	1.066688	0.799105
C353	C	-0.062128	0.109872	-0.170681
C354	C	0.437872	0.609872	0.329319
H355	H	-0.062384	0.136076	-0.203482
H356	H	0.437616	0.636076	0.296518
H357	H	-0.090079	0.082102	-0.172984
H358	H	0.409921	0.582102	0.327016
H359	H	-0.033692	0.091304	-0.172967
H360	H	0.466308	0.591304	0.327033
C361	C	-0.710010	0.512746	0.000038
C362	C	-0.210010	1.012746	0.500038
H363	H	-0.742783	0.520593	0.000030
H364	H	-0.242783	1.020593	0.500030
H365	H	-0.704232	0.491296	0.035272
H366	H	-0.204232	0.991296	0.535272
H367	H	-0.704212	0.491316	-0.035209
H368	H	-0.204212	0.991316	0.464791
C369	C	-0.066233	0.507804	-0.115609
C370	C	0.433767	1.007804	0.384391
H371	H	-0.066635	0.547431	-0.107716
H372	H	0.433365	1.047431	0.392284
H373	H	-0.094320	0.493480	-0.138248
H374	H	0.405680	0.993480	0.361752
H375	H	-0.037933	0.502667	-0.138239
H376	H	0.462067	1.002667	0.361761
H377	H	0.030181	0.782013	0.442347
H378	H	0.530181	1.282013	0.942347
H379	H	-0.220465	0.573748	0.000096
H380	H	0.279535	1.073748	0.500096
C381	C	-0.672720	0.834740	0.000068
C382	C	-0.172720	1.334740	0.500068
H383	H	-0.646902	0.865401	0.000066
H384	H	-0.146902	1.365401	0.500066
H385	H	-0.692147	0.837137	0.035302
H386	H	-0.192147	1.337137	0.535302
H387	H	-0.692125	0.837138	-0.035179
H388	H	-0.192125	1.337138	0.464821
C389	C	-0.132216	0.590249	0.140739
C390	C	0.367784	1.090249	0.640739
H391	H	-0.127479	0.595834	0.098302
H392	H	0.372521	1.095834	0.598302
H393	H	-0.164453	0.596139	0.151167
H394	H	0.335547	1.096139	0.651167
H395	H	-0.127127	0.552287	0.151165
H396	H	0.372873	1.052287	0.651165
H397	H	0.030189	0.782017	0.557727
H398	H	0.530189	1.282017	1.057727
C399	C	-0.804794	0.784322	0.000078
C400	C	-0.304794	1.284322	0.500078
H401	H	-0.823451	0.815515	0.000088
H402	H	-0.323451	1.315515	0.500088
H403	H	-0.784868	0.786260	-0.035159
H404	H	-0.284868	1.286260	0.464841
H405	H	-0.784886	0.786240	0.035322
H406	H	-0.284886	1.286240	0.535322
C407	C	-0.189724	0.776955	0.000105
C408	C	0.310276	1.276955	0.500105
H409	H	-0.208372	0.808156	0.000109
H410	H	0.291628	1.308156	0.500109
H411	H	-0.169800	0.778877	-0.035133
H412	H	0.330200	1.278877	0.464867
H413	H	-0.169814	0.778874	0.035349
H414	H	0.330186	1.278874	0.535349
C415	C	-0.066267	0.507797	0.115744
C416	C	0.433733	1.007797	0.615744
H417	H	-0.066677	0.547425	0.107857
H418	H	0.433323	1.047425	0.607857
H419	H	-0.037978	0.502657	0.138375
H420	H	0.462022	1.002657	0.638375
H421	H	-0.094366	0.493463	0.138378
H422	H	0.405634	0.993463	0.638378
C423	C	-0.063470	0.234564	0.170846
C424	C	0.436530	0.734564	0.670846
H425	H	-0.063202	0.208363	0.203648
H426	H	0.436798	0.708363	0.703648
H427	H	-0.091900	0.253140	0.173143
H428	H	0.408100	0.753140	0.673143
H429	H	-0.035512	0.262329	0.173137
H430	H	0.464488	0.762329	0.673137
C431	C	-0.064987	0.383076	0.115758
C432	C	0.435013	0.883076	0.615758
H433	H	-0.065265	0.409275	0.148558
H434	H	0.434735	0.909275	0.648558
H435	H	-0.036559	0.364499	0.118055
H436	H	0.463441	0.864499	0.618055
H437	H	-0.092947	0.355312	0.118051
H438	H	0.407053	0.855312	0.618051
C439	C	-0.062326	0.109828	0.170850
C440	C	0.437674	0.609828	0.670850
H441	H	-0.061959	0.070192	0.162972
H442	H	0.438041	0.570192	0.662972
H443	H	-0.090662	0.115026	0.193374
H444	H	0.409338	0.615026	0.693374
H445	H	-0.034273	0.124095	0.193586
H446	H	0.465727	0.624095	0.693586
C447	C	-0.830044	0.566184	0.000051
C448	C	-0.330044	1.066184	0.500051
H449	H	-0.855862	0.535523	0.000044
H450	H	-0.355862	1.035523	0.500044
H451	H	-0.810632	0.563778	0.035287
H452	H	-0.310632	1.063778	0.535287
H453	H	-0.810625	0.563794	-0.035195
H454	H	-0.310625	1.063794	0.464805
C455	C	-0.060659	-0.038654	0.115776
C456	C	0.439341	0.461346	0.615776
H457	H	-0.060391	-0.064853	0.148579
H458	H	0.439609	0.435147	0.648579
H459	H	-0.089084	-0.020070	0.118078
H460	H	0.410916	0.479930	0.618078
H461	H	-0.032696	-0.010895	0.118058
H462	H	0.467304	0.489105	0.618058
H463	H	-0.549839	0.525681	0.000057
H464	H	-0.049839	1.025681	0.500057
