data_functionalizedCrystal
_audit_creation_method	'MofGen! by Chris Wilmer'
_symmetry_space_group_name_H-M	'P1'
_symmetry_Int_Tables_number	1
_symmetry_cell_setting	triclinic
loop_
_symmetry_equiv_pos_as_xyz
  x,y,z
_cell_length_a	15.944499
_cell_length_b	15.944493
_cell_length_c	11.892095
_cell_angle_alpha	93.894412
_cell_angle_beta	86.098900
_cell_angle_gamma	83.476327
loop_
_atom_site_label
_atom_site_type_symbol
_atom_site_fract_x
_atom_site_fract_y
_atom_site_fract_z
O1	O	1.119903	0.102754	-0.094057
O2	O	1.619903	0.602754	0.405943
O3	O	0.875344	0.116157	-0.094043
O4	O	1.375344	0.616157	0.405957
O5	O	1.004328	-0.012824	-0.094060
O6	O	1.504328	0.487176	0.405940
O7	O	0.990919	0.231736	-0.094040
O8	O	1.490919	0.731736	0.405960
O9	O	0.993574	-0.002087	0.093949
O10	O	1.493574	0.497913	0.593949
O11	O	0.864590	0.126895	0.093966
O12	O	1.364590	0.626895	0.593966
O13	O	1.109149	0.113492	0.093952
O14	O	1.609149	0.613492	0.593952
Zn15	Zn	0.985162	0.121898	0.123809
Zn16	Zn	1.485162	0.621898	0.623809
Zn17	Zn	0.999331	0.107751	-0.123900
Zn18	Zn	1.499331	0.607751	0.376100
O19	O	0.980165	0.242473	0.093969
O20	O	1.480165	0.742473	0.593969
C21	C	0.838672	0.120977	-0.000037
C22	C	1.338672	0.620977	0.499963
C23	C	0.745424	0.119333	-0.000032
C24	C	1.245424	0.619333	0.499968
C25	C	0.998403	-0.038750	-0.000060
C26	C	1.498403	0.461250	0.499940
C27	C	0.996761	-0.131999	-0.000074
C28	C	1.496761	0.368001	0.499926
C29	C	0.453873	0.194266	-0.000043
C30	C	0.953873	0.694266	0.499957
C31	C	0.520213	0.150019	-0.092746
C32	C	1.020213	0.650019	0.407254
C33	C	0.409790	0.113355	-0.000059
C34	C	0.909790	0.613355	0.499941
C35	C	0.509596	0.160584	0.092616
C36	C	1.009596	0.660584	0.592616
C37	C	0.574698	0.116296	-0.000044
C38	C	1.074698	0.616296	0.499956
C39	C	0.474907	0.069081	-0.092839
C40	C	0.974907	0.569081	0.407161
C41	C	0.464278	0.079662	0.092607
C42	C	0.964278	0.579662	0.592607
C43	C	0.530602	0.035354	-0.000119
C44	C	1.030602	0.535354	0.499881
C45	C	0.314791	0.111662	-0.000068
C46	C	0.814791	0.611662	0.499932
C47	C	0.669696	0.117982	-0.000042
C48	C	1.169696	0.617982	0.499958
C49	C	1.072682	-0.367772	-0.000057
C50	C	1.572682	0.132228	0.499943
C51	C	1.037043	-0.423627	-0.092753
C52	C	1.537043	0.076373	0.407247
C53	C	0.993716	-0.302719	-0.000060
C54	C	1.493716	0.197281	0.499940
C55	C	1.026421	-0.413017	0.092609
C56	C	1.526421	0.086983	0.592609
C57	C	0.990780	-0.467627	-0.000042
C58	C	1.490780	0.032373	0.499958
C59	C	0.958102	-0.357350	-0.092832
C60	C	1.458102	0.142650	0.407168
C61	C	0.947487	-0.346731	0.092613
C62	C	1.447487	0.153269	0.592613
C63	C	0.911791	-0.402554	-0.000105
C64	C	1.411791	0.097446	0.499895
C65	C	0.995410	-0.207720	-0.000072
C66	C	1.495410	0.292280	0.499928
C67	C	0.989081	-0.562624	-0.000038
C68	C	1.489081	-0.062624	0.499962
C69	C	1.145821	0.108672	-0.000057
C70	C	1.645821	0.608672	0.499943
C71	C	1.239070	0.110316	-0.000069
C72	C	1.739070	0.610316	0.499931
C73	C	0.986090	0.268399	-0.000033
C74	C	1.486090	0.768399	0.499967
C75	C	0.987733	0.361648	-0.000027
C76	C	1.487733	0.861648	0.499973
N77	N	0.975498	0.131553	0.292865
N78	N	1.475498	0.631553	0.792865
N79	N	1.009002	0.098090	-0.292956
N80	N	1.509002	0.598090	0.207044
C81	C	1.076249	0.030860	0.529499
C82	C	1.576249	0.530860	1.029499
C83	C	1.069500	0.037614	0.647842
C84	C	1.569500	0.537614	1.147842
C85	C	0.955247	0.151812	0.647895
C86	C	1.455247	0.651812	1.147895
C87	C	0.961996	0.145058	0.529552
C88	C	1.461996	0.645058	1.029552
C89	C	1.022500	0.084580	0.470359
C90	C	1.522500	0.584580	0.970359
C91	C	1.029253	0.077830	0.352014
C92	C	1.529253	0.577830	0.852014
C93	C	0.914996	0.192023	0.352069
C94	C	1.414996	0.692023	0.852069
C95	C	0.908247	0.198778	0.470412
C96	C	1.408247	0.698778	0.970412
H97	H	0.420534	0.261409	-0.000127
H98	H	0.920534	0.761409	0.499873
Br99	Br	1.100095	-0.479344	-0.223378
Br100	Br	1.600095	0.020656	0.276622
H101	H	0.843721	-0.418010	-0.000151
H102	H	1.343721	0.081990	0.499849
H103	H	0.929260	-0.333004	-0.171283
H104	H	1.429260	0.166996	0.328717
H105	H	0.909684	-0.313288	0.170988
H106	H	1.409684	0.186712	0.670988
H107	H	0.871232	0.235769	0.303903
H108	H	1.371232	0.735769	0.803903
H109	H	1.055304	-0.437478	0.170971
H110	H	1.555304	0.062522	0.670971
Br111	Br	1.158371	-0.051203	0.449162
Br112	Br	1.658371	0.448797	0.949162
H113	H	1.078520	0.028589	0.303819
H114	H	1.578520	0.528589	0.803819
H115	H	1.113267	-0.006131	0.695991
H116	H	1.613267	0.493869	1.195991
H117	H	0.905981	0.201046	0.696106
H118	H	1.405981	0.701046	1.196106
H119	H	0.858983	0.248016	0.518621
H120	H	1.358983	0.748016	1.018621
Br121	Br	0.535579	0.225104	0.223234
Br122	Br	1.035579	0.725104	0.723234
H123	H	0.544787	0.179768	-0.171109
H124	H	1.044787	0.679768	0.328891
H125	H	0.459423	0.030409	-0.171300
H126	H	0.959423	0.530409	0.328700
Br127	Br	1.186059	-0.341751	-0.000211
Br128	Br	1.686059	0.158249	0.499789
H129	H	0.563797	-0.031857	-0.000174
H130	H	1.063797	0.468143	0.499826
H131	H	0.439686	0.049944	0.170977
H132	H	0.939686	0.549944	0.670977
