data_functionalizedCrystal
_audit_creation_method	'MofGen! by Chris Wilmer'
_symmetry_space_group_name_H-M	'P1'
_symmetry_Int_Tables_number	1
_symmetry_cell_setting	triclinic
loop_
_symmetry_equiv_pos_as_xyz
  x,y,z
_cell_length_a	11.792241
_cell_length_b	16.109311
_cell_length_c	15.186229
_cell_angle_alpha	89.994947
_cell_angle_beta	89.999155
_cell_angle_gamma	96.170438
loop_
_atom_site_label
_atom_site_type_symbol
_atom_site_fract_x
_atom_site_fract_y
_atom_site_fract_z
O1	O	-1.505913	0.113953	-0.073146
O2	O	-1.172580	0.447286	0.260187
O3	O	-0.839247	0.780619	0.593521
O4	O	-1.175470	0.125697	-0.073167
O5	O	-0.842137	0.459030	0.260167
O6	O	-0.508803	0.792363	0.593500
O7	O	-1.349763	-0.001163	-0.073147
O8	O	-1.016430	0.332170	0.260186
O9	O	-0.683096	0.665504	0.593520
O10	O	-1.331620	0.240812	-0.073166
O11	O	-0.998287	0.574146	0.260168
O12	O	-0.664953	0.907479	0.593501
O13	O	-1.349751	-0.001165	0.073310
O14	O	-1.016418	0.332168	0.406644
O15	O	-0.683085	0.665502	0.739977
O16	O	-1.175458	0.125695	0.073291
O17	O	-0.842125	0.459028	0.406624
O18	O	-0.508792	0.792362	0.739957
O19	O	-1.505902	0.113951	0.073311
O20	O	-1.172568	0.447284	0.406645
O21	O	-0.839235	0.780617	0.739978
Zn22	Zn	-1.340678	0.119823	0.096554
Zn23	Zn	-1.007345	0.453156	0.429888
Zn24	Zn	-0.674011	0.786489	0.763221
Zn25	Zn	-1.340693	0.119825	-0.096410
Zn26	Zn	-1.007360	0.453158	0.236924
Zn27	Zn	-0.674027	0.786492	0.570257
O28	O	-1.331609	0.240811	0.073292
O29	O	-0.998275	0.574144	0.406625
O30	O	-0.664942	0.907477	0.739958
C31	C	-1.133180	0.124958	0.000059
C32	C	-0.799846	0.458291	0.333393
C33	C	-0.466513	0.791625	0.666726
C34	C	-1.007185	0.122750	0.000052
C35	C	-0.673852	0.456083	0.333385
C36	C	-0.340518	0.789417	0.666718
C37	C	-1.548192	0.114689	0.000083
C38	C	-1.214859	0.448023	0.333417
C39	C	-0.881525	0.781356	0.666750
C40	C	-1.674187	0.116897	0.000085
C41	C	-1.340853	0.450231	0.333419
C42	C	-1.007520	0.783564	0.666752
C43	C	-1.349020	-0.032142	0.000082
C44	C	-1.015687	0.301191	0.333415
C45	C	-0.682354	0.634525	0.666749
C46	C	-1.346811	-0.124447	0.000083
C47	C	-1.013477	0.208886	0.333416
C48	C	-0.680144	0.542219	0.666750
C49	C	-0.776508	0.118690	0.000077
C50	C	-0.443175	0.452023	0.333411
C51	C	-0.109842	0.785357	0.666744
C52	C	-0.904874	0.120946	0.000063
C53	C	-0.571541	0.454279	0.333397
C54	C	-0.238207	0.787612	0.666730
N55	N	-1.340676	0.119820	0.228247
N56	N	-1.007343	0.453154	0.561580
N57	N	-0.674009	0.786487	0.894914
C58	C	-1.332351	0.271790	0.000061
C59	C	-0.999018	0.605123	0.333394
C60	C	-0.665685	0.938456	0.666727
C61	C	-1.334561	0.364095	0.000054
C62	C	-1.001227	0.697428	0.333387
C63	C	-0.667894	1.030762	0.666721
C64	C	-1.341739	0.663201	-0.079764
C65	C	-1.008405	0.996534	0.253570
C66	C	-0.675072	1.329868	0.586903
C67	C	-1.339659	0.576471	-0.079769
C68	C	-1.006325	0.909804	0.253564
C69	C	-0.672992	1.243138	0.586898
C70	C	-1.339630	0.576453	0.079907
C71	C	-1.006296	0.909786	0.413240
C72	C	-0.672963	1.243119	0.746573
C73	C	-1.341702	0.663182	0.079911
C74	C	-1.008368	0.996515	0.413245
C75	C	-0.675035	1.329849	0.746578
C76	C	-1.342762	0.706554	0.000074
C77	C	-1.009429	1.039887	0.333407
C78	C	-0.676095	1.373220	0.666740
C79	C	-1.338610	0.533094	0.000063
C80	C	-1.005276	0.866427	0.333397
C81	C	-0.671943	1.199761	0.666730
C82	C	-1.336354	0.439057	0.000058
C83	C	-1.003021	0.772391	0.333391
C84	C	-0.669687	1.105724	0.666724
C85	C	-1.345015	0.800597	0.000079
C86	C	-1.011682	1.133930	0.333412
C87	C	-0.678349	1.467263	0.666745
N88	N	-1.340705	0.119821	-0.228102
N89	N	-1.007371	0.453154	0.105231
N90	N	-0.674038	0.786487	0.438564
C91	C	-1.417879	0.063666	0.453978
C92	C	-1.084546	0.396999	0.787312
C93	C	-0.751213	0.730333	1.120645
C94	C	-1.417883	0.063664	0.546168
C95	C	-1.084550	0.396997	0.879501
C96	C	-0.751216	0.730331	1.212835
C97	C	-1.263493	0.175978	0.546160
C98	C	-0.930160	0.509311	0.879493
C99	C	-0.596826	0.842644	1.212826
C100	C	-1.263485	0.175975	0.453972
C101	C	-0.930152	0.509308	0.787305
C102	C	-0.596818	0.842642	1.120638
C103	C	-1.340684	0.119820	0.407884
C104	C	-1.007351	0.453153	0.741217
C105	C	-0.674018	0.786487	1.074550
C106	C	-1.340696	0.119821	0.592261
C107	C	-1.007363	0.453154	0.925594
C108	C	-0.674029	0.786488	1.258928
C109	C	-1.340699	0.119819	0.692217
C110	C	-1.007366	0.453153	1.025551
C111	C	-0.674033	0.786486	1.358884
C112	C	-1.340680	0.119821	0.307921
C113	C	-1.007347	0.453154	0.641254
C114	C	-0.674013	0.786487	0.974588
H115	H	-1.342599	0.698512	-0.144773
H116	H	-1.009266	1.031845	0.188561
H117	H	-0.675932	1.365179	0.521894
H118	H	-1.200618	0.221703	0.416439
H119	H	-0.867285	0.555036	0.749772
H120	H	-0.533952	0.888369	1.083105
H121	H	-1.200641	0.221699	0.583694
H122	H	-0.867307	0.555032	0.917027
H123	H	-0.533974	0.888365	1.250361
H124	H	-1.338823	0.541177	-0.144781
H125	H	-1.005490	0.874511	0.188553
H126	H	-0.672156	1.207844	0.521886
H127	H	-1.480740	0.017937	0.583696
H128	H	-1.147407	0.351271	0.917029
H129	H	-0.814074	0.684604	1.250363
H130	H	-1.338769	0.541129	0.144908
H131	H	-1.005435	0.874462	0.478241
H132	H	-0.672102	1.207796	0.811574
H133	H	-1.480738	0.017940	0.416456
H134	H	-1.147405	0.351274	0.749789
H135	H	-0.814072	0.684607	1.083122
H136	H	-1.342528	0.698481	0.144928
H137	H	-1.009195	1.031815	0.478262
H138	H	-0.675862	1.365148	0.811595
