data_functionalizedCrystal
_audit_creation_method	'MofGen! by Chris Wilmer'
_symmetry_space_group_name_H-M	'P1'
_symmetry_Int_Tables_number	1
_symmetry_cell_setting	triclinic
loop_
_symmetry_equiv_pos_as_xyz
  x,y,z
_cell_length_a	21.295417
_cell_length_b	19.077115
_cell_length_c	19.076919
_cell_angle_alpha	89.923103
_cell_angle_beta	87.733380
_cell_angle_gamma	87.726662
loop_
_atom_site_label
_atom_site_type_symbol
_atom_site_fract_x
_atom_site_fract_y
_atom_site_fract_z
Zn1	Zn	-0.304534	1.058235	0.440375
Zn2	Zn	-0.405747	1.062863	0.322858
Zn3	Zn	-0.296102	0.945454	0.318170
Zn4	Zn	-0.405368	0.940685	0.435612
O5	O	-0.352938	1.001809	0.379254
O6	O	-0.321648	1.157180	0.428741
O7	O	-0.387832	1.051221	0.223905
O8	O	-0.209134	0.960473	0.334413
O9	O	-0.396009	1.160581	0.342402
O10	O	-0.215329	1.043333	0.424196
O11	O	-0.307276	0.964961	0.220461
O12	O	-0.306908	0.846490	0.329794
O13	O	-0.395362	0.952346	0.534575
O14	O	-0.387185	0.842987	0.416078
O15	O	-0.321280	1.038709	0.538074
O16	O	-0.493783	1.046598	0.337783
O17	O	-0.493504	0.956834	0.420623
C18	C	-0.346091	0.819242	0.371911
C19	C	-0.343177	0.741138	0.368786
C20	C	-0.322255	0.301690	0.346383
C21	C	-0.324996	0.375077	0.349323
C22	C	-0.368226	0.409965	0.395643
C23	C	-0.408714	0.371462	0.439031
C24	C	-0.405969	0.298077	0.436095
C25	C	-0.380920	0.629250	0.409238
C26	C	-0.383663	0.702641	0.412170
C27	C	-0.299944	0.706250	0.322462
C28	C	-0.297206	0.632863	0.319527
C29	C	-0.337691	0.594367	0.362917
N30	N	-0.371031	0.484978	0.398647
N31	N	-0.334884	0.519355	0.359916
C32	C	-0.516484	1.001719	0.379211
C33	C	-0.586454	1.001743	0.379219
C34	C	-0.619448	1.048522	0.336132
C35	C	-0.685192	1.048554	0.336149
C36	C	-0.717939	1.001796	0.379245
C37	C	-0.684937	0.955014	0.422341
C38	C	-0.619195	0.954988	0.422328
N39	N	-0.819088	0.940110	0.382130
N40	N	-0.881541	0.940137	0.382138
C41	C	-0.916018	1.001873	0.379289
N42	N	-0.885683	1.063582	0.376417
N43	N	-0.823224	1.063555	0.376404
C44	C	-0.789226	1.001819	0.379265
C45	C	-1.020300	1.048690	0.336218
C46	C	-1.086045	1.048723	0.336240
C47	C	-1.085789	0.955177	0.422428
C48	C	-1.020045	0.955150	0.422410
C49	C	-0.987304	1.001906	0.379301
C50	C	-0.188753	1.001919	0.379313
C51	C	-0.118788	1.001965	0.379338
C52	C	-0.359219	0.994479	0.562533
C53	C	-0.361896	0.991356	0.640636
C54	C	-0.359812	1.185090	0.386625
C55	C	-0.362741	1.263193	0.389767
C56	C	-0.346636	1.009151	0.196689
C57	C	-0.343787	1.012411	0.118592
C58	C	-0.324585	1.034851	0.679152
C59	C	-0.327098	1.031907	0.752538
C60	C	-0.366925	0.985471	0.787406
C61	C	-0.404238	0.941972	0.748885
C62	C	-0.401721	0.944912	0.675501
C63	C	-0.378583	0.971852	1.006686
C64	C	-0.381098	0.968916	1.080076
C65	C	-0.303957	1.058851	1.083723
C66	C	-0.301447	1.061790	1.010338
C67	C	-0.338757	1.018288	0.971823
N68	N	-0.369496	0.982463	0.862418
N69	N	-0.336183	1.021293	0.896812
H70	H	-0.292031	0.406418	0.313992
O71	O	-0.987895	0.909771	0.464239
C72	C	-0.922846	0.919761	0.454973
H73	H	-0.915077	0.974923	0.434184
H74	H	-0.901397	0.879602	0.415840
C75	C	-0.900804	0.842655	0.551329
C76	C	-0.891261	0.910408	0.525802
H77	H	-0.881319	0.836883	0.595018
H78	H	-0.944628	0.835922	0.557571
H79	H	-0.882929	0.809197	0.518712
H80	H	-0.909143	0.943864	0.558415
H81	H	-0.847439	0.917147	0.519567
O82	O	-0.420320	0.591969	0.451402
C83	C	-0.459058	0.638502	0.492919
H84	H	-0.462154	0.691958	0.466225
H85	H	-0.438216	0.644190	0.546653
C86	C	-0.521540	0.543780	0.534526
C87	C	-0.525348	0.609434	0.501737
H88	H	-0.562430	0.525849	0.539969
H89	H	-0.495441	0.512429	0.506557
H90	H	-0.504169	0.548529	0.579301
H91	H	-0.542711	0.604683	0.456959
H92	H	-0.551452	0.640784	0.529699
H93	H	-0.712061	1.086649	0.301062
H94	H	-0.418867	0.731045	0.449893
O95	O	-1.118201	1.094198	0.294510
C96	C	-1.183250	1.084219	0.303787
H97	H	-1.193197	1.058923	0.357040
H98	H	-1.199175	1.048588	0.260539
C99	C	-1.207140	1.186689	0.235001
C100	C	-1.219358	1.155626	0.300410
H101	H	-1.229414	1.230735	0.232915
H102	H	-1.163315	1.193411	0.228749
H103	H	-1.220411	1.156989	0.198968
H104	H	-1.206079	1.185321	0.336441
H105	H	-1.263181	1.148910	0.306669
O106	O	-0.450642	0.405316	0.484127
C107	C	-0.438727	0.384593	0.553472
H108	H	-0.387815	0.364302	0.556321
H109	H	-0.471536	0.341249	0.570065
C110	C	-0.512695	0.472836	0.599461
C111	C	-0.450163	0.447921	0.602961
H112	H	-0.519752	0.511899	0.629989
H113	H	-0.520725	0.486797	0.552742
H114	H	-0.540029	0.436711	0.613287
H115	H	-0.422831	0.484043	0.589127
H116	H	-0.442128	0.433968	0.649679
H117	H	-0.711604	0.916945	0.457432
O118	O	-0.445208	0.260642	0.478310
C119	C	-0.409402	0.216394	0.522059
H120	H	-0.360811	0.238363	0.527388
H121	H	-0.404375	0.161642	0.498111
C122	C	-0.502396	0.185358	0.588451
C123	C	-0.442718	0.212345	0.595002
H124	H	-0.522948	0.182857	0.633446
H125	H	-0.526521	0.215167	0.558976
H126	H	-0.498199	0.139734	0.568492
H127	H	-0.446916	0.257971	0.614953
H128	H	-0.418595	0.182544	0.624483
O129	O	-1.117568	0.909827	0.464397
C130	C	-1.104420	0.922308	0.535053
H131	H	-1.088525	0.978290	0.540899
H132	H	-1.065499	0.883872	0.551865
C133	C	-1.183628	0.843483	0.574448
C134	C	-1.164111	0.912244	0.581629
H135	H	-1.220447	0.837272	0.603179
H136	H	-1.192485	0.835072	0.526846
H137	H	-1.151188	0.811461	0.588456
H138	H	-1.196547	0.944264	0.567612
H139	H	-1.155261	0.920660	0.629230
H140	H	-0.592330	0.916895	0.457415
O141	O	-0.285842	1.079977	0.645393
C142	C	-0.253460	1.117746	0.695129
H143	H	-0.251996	1.086869	0.746281
H144	H	-0.278780	1.170786	0.705076
C145	C	-0.187662	1.166989	0.604099
C146	C	-0.185859	1.129063	0.666922
H147	H	-0.145963	1.173973	0.586699
H148	H	-0.209479	1.141546	0.570590
H149	H	-0.208764	1.211185	0.612397
H150	H	-0.164763	1.084865	0.658622
H151	H	-0.164036	1.154499	0.700429
H152	H	-0.296717	1.067327	0.783894
H153	H	-0.269017	1.099605	0.981953
O154	O	-0.419802	0.923743	1.113837
C155	C	-0.452205	0.885989	1.064108
H156	H	-0.424537	0.885665	1.011709
H157	H	-0.500710	0.911999	1.057320
C158	C	-0.493433	0.810450	1.154098
C159	C	-0.459448	0.810047	1.089741
H160	H	-0.497904	0.763606	1.169910
H161	H	-0.471604	0.835887	1.187602
H162	H	-0.533851	0.832128	1.148432
H163	H	-0.419029	0.788377	1.095410
H164	H	-0.481271	0.784604	1.056239
O165	O	-0.414861	0.929695	0.969213
C166	C	-0.455580	0.971363	0.928371
H167	H	-0.435003	1.025069	0.919515
H168	H	-0.503484	0.977923	0.956952
C169	C	-0.488417	0.869507	0.867987
C170	C	-0.463141	0.935468	0.857106
H171	H	-0.493084	0.847365	0.824029
H172	H	-0.460986	0.841434	0.895505
H173	H	-0.528335	0.874983	0.891807
H174	H	-0.423221	0.929990	0.833295
H175	H	-0.490566	0.963539	0.829583
H176	H	-0.432097	0.909487	0.644141
H177	H	-0.993641	1.086763	0.301118
H178	H	-0.262008	0.604463	0.281803
H179	H	-0.287053	0.273290	0.308663
O180	O	-0.587744	1.094012	0.294245
C181	C	-0.630968	1.135297	0.256207
H182	H	-0.678895	1.136569	0.285095
H183	H	-0.635208	1.111748	0.201786
C184	C	-0.548849	1.208923	0.213666
C185	C	-0.607713	1.210491	0.249150
H186	H	-0.534504	1.255306	0.209310
H187	H	-0.519728	1.181108	0.239291
H188	H	-0.552391	1.189296	0.168319
H189	H	-0.604169	1.230109	0.294500
H190	H	-0.636834	1.238311	0.223533
H191	H	-0.266983	0.737602	0.287136
H192	H	-0.273581	1.094267	1.115090
H193	H	-0.436663	0.904160	0.777281
