data_functionalizedCrystal
_audit_creation_method	'MofGen! by Chris Wilmer'
_symmetry_space_group_name_H-M	'P1'
_symmetry_Int_Tables_number	1
_symmetry_cell_setting	triclinic
loop_
_symmetry_equiv_pos_as_xyz
  x,y,z
_cell_length_a	14.853567
_cell_length_b	26.809956
_cell_length_c	27.732048
_cell_angle_alpha	90.000636
_cell_angle_beta	83.138793
_cell_angle_gamma	90.005869
loop_
_atom_site_label
_atom_site_type_symbol
_atom_site_fract_x
_atom_site_fract_y
_atom_site_fract_z
O1	O	1.195345	0.041451	0.063100
O2	O	0.932764	0.041460	0.070618
O3	O	1.072210	0.041446	-0.003500
O4	O	1.055899	0.041465	0.137217
O5	O	1.072183	-0.041514	-0.003488
O6	O	0.932737	-0.041499	0.070629
O7	O	1.195319	-0.041508	0.063111
Zn8	Zn	1.064024	-0.054675	0.066872
Zn9	Zn	1.064059	0.054627	0.066857
O10	O	1.055873	-0.041494	0.137229
C11	C	0.899167	-0.000019	0.070283
C12	C	0.799100	-0.000015	0.069262
N13	N	1.064007	-0.129271	0.066882
C14	C	0.387353	-0.000033	0.020920
C15	C	0.364639	-0.000021	0.108973
C16	C	0.458657	-0.000019	0.109933
C17	C	0.517028	-0.000024	0.066385
C18	C	0.481380	-0.000030	0.021878
C19	C	0.494313	-0.000007	0.154439
C20	C	0.588336	-0.000005	0.155401
C21	C	0.646708	-0.000013	0.111853
C22	C	0.611055	-0.000020	0.067344
C23	C	0.669425	-0.000025	0.023796
C24	C	0.633774	-0.000036	-0.020713
C25	C	0.539752	-0.000038	-0.021670
C26	C	0.740730	-0.000011	0.112809
C27	C	0.763452	-0.000022	0.024755
C28	C	1.125797	-0.473904	0.034046
C29	C	1.125819	-0.682781	0.034039
O30	O	1.178319	-0.709791	0.006123
N31	N	1.064064	-0.708898	0.066846
C32	C	1.002295	-0.682793	0.099656
O33	O	0.949763	-0.709800	0.127558
C34	C	1.002270	-0.473916	0.099661
C35	C	1.064035	-0.447802	0.066854
C36	C	1.187557	-0.447789	0.001242
C37	C	1.187554	-0.395573	0.001246
C38	C	1.125792	-0.369471	0.034054
C39	C	1.064032	-0.395585	0.066858
C40	C	0.940497	-0.447811	0.132468
C41	C	0.940495	-0.395589	0.132465
C42	C	1.002260	-0.369475	0.099659
C43	C	1.002267	-0.317267	0.099670
N44	N	1.064023	-0.291150	0.066863
C45	C	1.125785	-0.317252	0.034054
C46	C	1.002313	-0.792456	0.099652
C47	C	1.002321	-0.844675	0.099652
C48	C	1.125844	-0.844660	0.034033
C49	C	1.125840	-0.792440	0.034037
C50	C	1.064069	-0.766339	0.066844
C51	C	1.125775	-0.207594	0.034065
C52	C	1.125769	-0.155373	0.034074
C53	C	1.002243	-0.155393	0.099690
C54	C	1.002252	-0.207609	0.099684
C55	C	1.064021	-0.233709	0.066867
O56	O	0.949788	-0.290226	0.127567
O57	O	1.178296	-0.290236	0.006150
C58	C	1.125800	-0.526120	0.034042
C59	C	1.064041	-0.552234	0.066846
C60	C	1.002278	-0.526132	0.099655
C61	C	1.064048	-0.604453	0.066846
C62	C	1.125810	-0.630555	0.034038
C63	C	1.187565	-0.604438	0.001230
C64	C	1.187562	-0.552222	0.001234
C65	C	0.940523	-0.552249	0.132462
C66	C	0.940531	-0.604466	0.132456
C67	C	1.002294	-0.630568	0.099648
C68	C	1.228915	-0.000029	0.063446
C69	C	1.328982	-0.000029	0.064467
C70	C	1.071854	-0.000035	-0.021503
C71	C	1.070823	-0.000039	-0.075162
N72	N	1.064083	0.129223	0.066843
C73	C	1.146736	-0.000016	-0.413622
C74	C	1.142911	-0.000009	-0.615300
O75	O	1.212328	0.000010	-0.646231
N76	N	1.060225	-0.000007	-0.634810
C77	C	0.978490	-0.000003	-0.603898
O78	O	0.908073	0.000004	-0.625120
C79	C	0.982316	-0.000007	-0.402221
C80	C	1.065007	-0.000014	-0.382714
C81	C	1.229421	-0.000023	-0.394114
C82	C	1.230376	-0.000028	-0.343698
C83	C	1.148647	-0.000025	-0.312790
C84	C	1.065963	-0.000019	-0.332298
C85	C	0.900582	0.000001	-0.371310
C86	C	0.901546	0.000001	-0.320888
C87	C	0.984237	-0.000006	-0.301381
C88	C	0.985189	-0.000021	-0.250973
N89	N	1.067875	-0.000023	-0.231462
C90	C	1.149604	-0.000025	-0.262371
C91	C	0.976487	-0.000002	-0.709781
C92	C	0.975530	-0.000002	-0.760200
C93	C	1.139952	-0.000008	-0.771599
C94	C	1.140908	-0.000011	-0.721179
C95	C	1.059173	-0.000005	-0.690271
C96	C	1.151604	-0.000035	-0.156492
C97	C	1.152552	-0.000042	-0.106071
C98	C	0.988131	-0.000034	-0.094677
C99	C	0.987183	-0.000030	-0.145094
C100	C	1.068926	-0.000029	-0.176001
O101	O	0.915809	-0.000034	-0.220013
O102	O	1.220011	-0.000022	-0.241139
C103	C	1.145781	-0.000012	-0.464039
C104	C	1.063097	-0.000005	-0.483547
C105	C	0.981367	-0.000003	-0.452638
C106	C	1.062140	-0.000005	-0.533966
C107	C	1.143869	-0.000007	-0.564874
C108	C	1.226555	-0.000010	-0.545364
C109	C	1.227510	-0.000014	-0.494947
C110	C	0.898682	-0.000000	-0.472149
C111	C	0.897733	0.000004	-0.522566
C112	C	0.979462	0.000001	-0.553474
C113	C	1.056228	-0.000012	0.155232
C114	C	1.057259	-0.000005	0.208891
H115	H	0.810972	-0.000028	-0.010707
H116	H	0.890202	-0.469066	0.159182
H117	H	1.293101	-0.000014	-0.570538
C118	C	0.890695	-0.042668	-0.195183
C119	C	0.896286	-0.000027	-0.166537
H120	H	0.834575	-0.042664	-0.208415
H121	H	0.939223	-0.042663	-0.220807
H122	H	0.894480	-0.071598	-0.175750
H123	H	0.892508	0.028903	-0.185970
H124	H	0.847745	-0.000028	-0.140909
C125	C	1.309638	-0.400820	-0.063618
C126	C	1.255439	-0.366873	-0.034822
H127	H	1.351543	-0.383103	-0.085889
H128	H	1.341785	-0.421181	-0.043466
H129	H	1.272342	-0.421192	-0.081036
H130	H	1.292735	-0.346503	-0.017402
H131	H	1.223290	-0.346503	-0.054978
H132	H	0.681311	-0.000036	-0.056169
C133	C	0.722374	0.000019	0.195971
C134	C	0.627521	0.000014	0.204323
H135	H	0.746564	0.000035	0.226174
H136	H	0.742442	-0.028915	0.178052
H137	H	0.742442	0.028945	0.178027
H138	H	0.607453	-0.028915	0.222263
H139	H	0.607444	0.028950	0.222250
C140	C	0.245729	0.042630	0.158967
C141	C	0.300478	-0.000015	0.156837
H142	H	0.206112	0.042630	0.188517
H143	H	0.282885	0.071554	0.157512
H144	H	0.211048	0.042621	0.132321
H145	H	0.335164	-0.000005	0.183482
H146	H	0.263317	-0.028947	0.158297
C147	C	0.253317	-0.000045	-0.019653
C148	C	0.348170	-0.000043	-0.028004
H149	H	0.229129	-0.000048	-0.049857
H150	H	0.233246	-0.028972	-0.001720
H151	H	0.233250	0.028888	-0.001724
H152	H	0.368238	-0.028978	-0.045930
H153	H	0.368250	0.028887	-0.045944
H154	H	0.446781	0.000002	0.189893
C155	C	0.879427	-0.266345	0.110045
C156	C	0.934367	-0.236321	0.135745
H157	H	0.837518	-0.284071	0.132307
H158	H	0.847285	-0.245972	0.089901
H159	H	0.916220	-0.289361	0.090505
H160	H	0.897574	-0.213302	0.155283
H161	H	0.966511	-0.256696	0.155898
C162	C	0.920039	-0.493540	0.198236
C163	C	0.872636	-0.523563	0.168533
H164	H	0.878127	-0.475830	0.220506
H165	H	0.957321	-0.513912	0.215650
H166	H	0.956807	-0.470509	0.178695
H167	H	0.835872	-0.546596	0.188073
H168	H	0.835338	-0.503189	0.151117
H169	H	0.951960	-0.134132	0.126403
H170	H	1.208242	-0.000017	-0.705300
H171	H	0.890236	-0.625724	0.159175
C172	C	1.314225	-0.000048	-0.162681
C173	C	1.241457	-0.000039	-0.190460
H174	H	1.369694	-0.000056	-0.183652
H175	H	1.311185	0.028879	-0.142779
H176	H	1.311150	-0.028980	-0.142778
H177	H	1.244528	0.028896	-0.210361
H178	H	1.244498	-0.028969	-0.210370
C179	C	1.247866	-0.160612	-0.030791
C180	C	1.193662	-0.126669	-0.001992
H181	H	1.289774	-0.142891	-0.053058
H182	H	1.280010	-0.180976	-0.010640
H183	H	1.210574	-0.180982	-0.048213
H184	H	1.230954	-0.106302	0.015433
H185	H	1.161516	-0.106296	-0.022146
C186	C	1.392798	-0.000028	-0.360045
C187	C	1.321274	-0.000029	-0.322260
H188	H	1.448916	-0.000025	-0.346811
H189	H	1.388994	-0.028956	-0.379471
H190	H	1.388997	0.028904	-0.379473
H191	H	1.325071	-0.028963	-0.302834
H192	H	1.325080	0.028901	-0.302826
C193	C	1.146285	-0.266304	-0.031714
C194	C	1.193673	-0.236278	-0.002005
H195	H	1.188206	-0.284010	-0.053982
H196	H	1.109517	-0.289332	-0.012179
H197	H	1.109004	-0.245930	-0.049134
H198	H	1.230949	-0.256653	0.015418
H199	H	1.230457	-0.213247	-0.021542
C200	C	0.893858	0.042620	-0.031360
C201	C	0.898297	-0.000028	-0.060696
H202	H	0.838395	0.042627	-0.010383
H203	H	0.943240	0.042610	-0.012532
H204	H	0.896913	0.071546	-0.051272
H205	H	0.895249	-0.028954	-0.040784
H206	H	0.848902	-0.000023	-0.079525
C207	C	1.323775	0.042619	-0.457422
C208	C	1.319270	-0.000026	-0.428083
H209	H	1.379251	0.042615	-0.478387
H210	H	1.274410	0.042618	-0.476262
H211	H	1.320733	0.071546	-0.437512
H212	H	1.322305	-0.028954	-0.447993
H213	H	1.368648	-0.000030	-0.409241
C214	C	0.981816	-0.733743	0.165425
C215	C	0.934417	-0.763770	0.135723
H216	H	0.939900	-0.716034	0.187694
H217	H	1.019100	-0.754112	0.182841
H218	H	1.018581	-0.710712	0.145883
H219	H	0.897656	-0.786804	0.155265
H220	H	0.897117	-0.743399	0.118306
H221	H	0.769753	-0.000003	0.149048
H222	H	1.237851	-0.469037	-0.025477
C223	C	1.279808	0.042641	-0.796843
C224	C	1.229793	-0.000006	-0.805578
H225	H	1.335271	0.042642	-0.817819
H226	H	1.245872	0.071564	-0.802762
H227	H	1.292211	0.042634	-0.764023
H228	H	1.217384	0.000002	-0.838397
H229	H	1.263736	-0.028937	-0.799662
C230	C	1.247934	-0.797683	-0.030823
C231	C	1.193727	-0.763738	-0.002029
H232	H	1.289841	-0.779964	-0.053092
H233	H	1.280079	-0.818043	-0.010669
H234	H	1.210644	-0.818056	-0.048243
H235	H	1.231017	-0.743367	0.015394
H236	H	1.161580	-0.743369	-0.022186
C237	C	0.835109	0.042652	-0.765999
C238	C	0.884635	0.000002	-0.781640
H239	H	0.778995	0.042657	-0.779237
H240	H	0.823991	0.042647	-0.731552
H241	H	0.868751	0.071576	-0.776609
H242	H	0.850996	-0.028922	-0.771027
H243	H	0.895750	0.000002	-0.816095
C244	C	0.735302	0.000018	-0.506221
C245	C	0.806830	0.000014	-0.544004
H246	H	0.679186	0.000031	-0.519457
H247	H	0.739082	-0.028914	-0.486799
H248	H	0.739123	0.028946	-0.486790
H249	H	0.803013	-0.028916	-0.563434
H250	H	0.803048	0.028948	-0.563435
H251	H	0.510716	-0.000059	-0.057907
H252	H	1.176135	-0.865921	0.007320
C253	C	0.804361	0.042645	-0.408839
C254	C	0.808835	0.000001	-0.438180
H255	H	0.748886	0.042645	-0.387872
H256	H	0.853728	0.042638	-0.390000
H257	H	0.807420	0.071573	-0.428747
H258	H	0.805783	-0.028927	-0.418271
H259	H	0.759455	0.000003	-0.457020
C260	C	0.880219	-0.839432	0.164508
C261	C	0.934431	-0.873376	0.135716
H262	H	0.838300	-0.857150	0.186770
H263	H	0.917499	-0.819063	0.181932
H264	H	0.848082	-0.819066	0.144348
H265	H	0.966574	-0.893740	0.155876
H266	H	0.897146	-0.893753	0.118291
C267	C	0.738924	0.000012	-0.314689
C268	C	0.811697	0.000007	-0.286915
H269	H	0.683458	0.000012	-0.293715
H270	H	0.741985	0.028942	-0.334589
H271	H	0.741968	-0.028918	-0.334595
H272	H	0.808657	0.028939	-0.267012
H273	H	0.808634	-0.028926	-0.267007
C274	C	0.818394	-0.400853	0.197325
C275	C	0.872597	-0.366900	0.168533
H276	H	0.776483	-0.383141	0.219594
H277	H	0.786254	-0.421219	0.177170
H278	H	0.855686	-0.421220	0.214746
H279	H	0.835304	-0.346535	0.151109
H280	H	0.904739	-0.346525	0.188691
H281	H	1.237857	-0.530964	-0.025480
C282	C	1.242400	-0.684484	-0.027907
C283	C	1.255453	-0.633137	-0.034836
H284	H	1.284303	-0.702202	-0.050174
H285	H	1.251744	-0.693038	0.004359
H286	H	1.182304	-0.693037	-0.033213
H287	H	1.315547	-0.624583	-0.029526
H288	H	1.246116	-0.624580	-0.067108
C289	C	0.882160	0.042649	-0.646475
C290	C	0.886634	0.000002	-0.675812
H291	H	0.826685	0.042651	-0.625509
H292	H	0.931526	0.042645	-0.627636
H293	H	0.885220	0.071575	-0.666387
H294	H	0.883580	-0.028924	-0.655901
H295	H	0.837254	0.000003	-0.694653
H296	H	1.219892	-0.000049	-0.090191
H297	H	0.833246	0.000010	-0.387184
H298	H	1.294846	-0.000020	-0.479069
