data_functionalizedCrystal
_audit_creation_method	'MofGen! by Chris Wilmer'
_symmetry_space_group_name_H-M	'P1'
_symmetry_Int_Tables_number	1
_symmetry_cell_setting	triclinic
loop_
_symmetry_equiv_pos_as_xyz
  x,y,z
_cell_length_a	19.077409
_cell_length_b	19.120786
_cell_length_c	19.076919
_cell_angle_alpha	89.730680
_cell_angle_beta	94.476475
_cell_angle_gamma	94.860823
loop_
_atom_site_label
_atom_site_type_symbol
_atom_site_fract_x
_atom_site_fract_y
_atom_site_fract_z
Zn1	Zn	1.051342	-0.251293	-0.345107
Zn2	Zn	1.051370	-0.363840	-0.222595
Zn3	Zn	0.938197	-0.251317	-0.231955
Zn4	Zn	0.928397	-0.373634	-0.344754
O5	O	0.992327	-0.310021	-0.286103
O6	O	1.150163	-0.262114	-0.325086
O7	O	1.040471	-0.344824	-0.125358
O8	O	0.957295	-0.153022	-0.251029
O9	O	1.150184	-0.344801	-0.235077
O10	O	1.040423	-0.153005	-0.334162
O11	O	0.957322	-0.262154	-0.132234
O12	O	0.838080	-0.271651	-0.250687
O13	O	0.940593	-0.361495	-0.443280
O14	O	0.830880	-0.361518	-0.333561
O15	O	1.030920	-0.271612	-0.443539
O16	O	1.030968	-0.463430	-0.234736
O17	O	0.940620	-0.470627	-0.324485
C18	C	0.808858	-0.317650	-0.293102
C19	C	0.730367	-0.320932	-0.296112
C20	C	0.288149	-0.344413	-0.317736
C21	C	0.361899	-0.341335	-0.314894
C22	C	0.402500	-0.292938	-0.270403
C23	C	0.369347	-0.247621	-0.228746
C24	C	0.295598	-0.250704	-0.231584
C25	C	0.623465	-0.278698	-0.257293
C26	C	0.697219	-0.275617	-0.254459
C27	C	0.689767	-0.369332	-0.340607
C28	C	0.616017	-0.372407	-0.343444
C29	C	0.582870	-0.327093	-0.301784
N30	N	0.477884	-0.289788	-0.267499
N31	N	0.507486	-0.330247	-0.304685
C32	C	0.984752	-0.492514	-0.278571
C33	C	0.981575	-0.570584	-0.275370
C34	C	1.023328	-0.607195	-0.317187
C35	C	1.020340	-0.680549	-0.314180
C36	C	0.975603	-0.717292	-0.269353
C37	C	0.933846	-0.680676	-0.227535
C38	C	0.936830	-0.607323	-0.230545
C39	C	0.964425	-0.938775	-0.258099
C40	C	0.961445	-1.012133	-0.255090
C41	C	1.047939	-1.012001	-0.341737
C42	C	1.050922	-0.938647	-0.344741
C43	C	1.009162	-0.902037	-0.302925
C44	C	0.972550	-0.792272	-0.266277
C45	C	1.012213	-0.827059	-0.306005
C46	C	1.176512	-0.302362	-0.279077
C47	C	1.255001	-0.299099	-0.276083
C48	C	0.984660	-0.317643	-0.469658
C49	C	0.981393	-0.320891	-0.547878
C50	C	0.999949	-0.126815	-0.293679
C51	C	1.003197	-0.048744	-0.296907
C52	C	1.026885	-0.275622	-0.584762
C53	C	1.023807	-0.278672	-0.658259
C54	C	0.975240	-0.326995	-0.694870
C55	C	0.929743	-0.372266	-0.657980
C56	C	0.932819	-0.369212	-0.584485
C57	C	0.960997	-0.341142	-0.914662
C58	C	0.957926	-0.344194	-0.988162
C59	C	1.051989	-0.250598	-0.988435
C60	C	1.055063	-0.247552	-0.914938
C61	C	1.009564	-0.292820	-0.878056
N62	N	0.972094	-0.330115	-0.769995
N63	N	1.012707	-0.289697	-0.802932
C64	C	1.000006	-0.302376	-0.103263
C65	C	1.003418	-0.298924	-0.025046
H66	H	0.716763	-0.406225	-0.374523
C67	C	1.073853	-0.228873	-0.698828
N68	N	1.111549	-0.191362	-0.729384
H69	H	0.930424	-0.908973	-0.224050
C70	C	0.259135	-0.200852	-0.185765
N71	N	0.231673	-0.163303	-0.151251
H72	H	1.081936	-1.041817	-0.375782
C73	C	0.912226	-1.052548	-0.205778
N74	N	0.875156	-1.082989	-0.168637
H75	H	0.890197	-0.411609	-0.687795
H76	H	0.897417	-0.710598	-0.191039
H77	H	0.402409	-0.208218	-0.192517
C78	C	0.741879	-0.222378	-0.205510
N79	N	0.775516	-0.182280	-0.168643
C80	C	1.072544	-0.566785	-0.366499
N81	N	1.109613	-0.536350	-0.403645
H82	H	0.582964	-0.411819	-0.379672
C83	C	0.904494	-0.397353	-1.028432
N84	N	0.864252	-0.437391	-1.058764
C85	C	0.890900	-0.567051	-0.184543
N86	N	0.856302	-0.536720	-0.149894
C87	C	0.910944	-0.390938	-0.874101
N88	N	0.873240	-0.428445	-0.843548
C89	C	1.102026	-0.200798	-1.029012
N90	N	1.139712	-0.163282	-1.059575
C91	C	0.587014	-0.228841	-0.211475
N92	N	0.559556	-0.191284	-0.176966
C93	C	1.066281	-0.720817	-0.360173
N94	N	1.100889	-0.751146	-0.394813
C95	C	0.923406	-0.832691	-0.216903
N96	N	0.886413	-0.863135	-0.179693
H97	H	1.048635	-0.797141	-0.342506
H98	H	1.087351	-0.908732	-0.381243
H99	H	1.066435	-0.236274	-0.554958
H100	H	1.094613	-0.208204	-0.885134
H101	H	0.255097	-0.383820	-0.353969
C102	C	0.398359	-0.391187	-0.360713
N103	N	0.425819	-0.428739	-0.395225
C104	C	0.882775	-0.419014	-0.543913
N105	N	0.845080	-0.456524	-0.513355
