data_functionalizedCrystal
_audit_creation_method	'MofGen! by Chris Wilmer'
_symmetry_space_group_name_H-M	'P1'
_symmetry_Int_Tables_number	1
_symmetry_cell_setting	triclinic
loop_
_symmetry_equiv_pos_as_xyz
  x,y,z
_cell_length_a	15.944551
_cell_length_b	15.538191
_cell_length_c	14.750779
_cell_angle_alpha	82.427828
_cell_angle_beta	77.355667
_cell_angle_gamma	114.614584
loop_
_atom_site_label
_atom_site_type_symbol
_atom_site_fract_x
_atom_site_fract_y
_atom_site_fract_z
O1	O	-0.248345	-1.229446	-0.079831
O2	O	-0.151359	-0.955193	-0.079833
O3	O	-0.324413	-1.099811	-0.079824
O4	O	-0.075291	-1.084828	-0.079841
O5	O	-0.373329	-1.140693	0.079829
O6	O	-0.200275	-0.996075	0.079820
O7	O	-0.297261	-1.270328	0.079821
Zn8	Zn	-0.256535	-1.139692	0.105169
Zn9	Zn	-0.192085	-1.085829	-0.105181
O10	O	-0.124207	-1.125710	0.079812
C11	C	-0.165670	-0.940539	-0.000007
C12	C	-0.135444	-0.835967	-0.000007
C13	C	-0.379976	-1.119630	0.000003
C14	C	-0.472653	-1.117766	0.000004
C15	C	-0.282950	-1.284982	-0.000007
C16	C	-0.313173	-1.389552	-0.000013
C17	C	-0.658813	-1.023667	-0.000010
C18	C	-0.757273	-1.087519	0.078709
C19	C	-0.642349	-1.114392	-0.000004
C20	C	-0.709035	-1.047235	-0.078697
C21	C	-0.806262	-1.111125	-0.000015
C22	C	-0.739608	-1.178285	0.078780
C23	C	-0.691338	-1.137970	-0.078696
C24	C	-0.789807	-1.201893	0.000042
C25	C	-0.547921	-1.116272	0.000004
C26	C	-0.900693	-1.109254	-0.000016
C27	C	-0.068644	-1.105890	-0.000017
C28	C	0.024036	-1.107753	-0.000024
N29	N	-0.300522	-1.176460	0.248727
C30	C	-0.435726	-0.548159	-0.000001
C31	C	-0.407303	-0.449895	-0.000004
C32	C	-0.247430	-0.427459	-0.000015
C33	C	-0.275842	-0.525725	-0.000007
C34	C	-0.369990	-0.586068	-0.000002
C35	C	-0.210106	-0.563633	-0.000008
C36	C	-0.238514	-0.661889	-0.000005
C37	C	-0.332657	-0.722237	-0.000003
C38	C	-0.398398	-0.684324	0.000001
C39	C	-0.115955	-0.503287	-0.000020
C40	C	-0.050219	-0.541195	-0.000021
C41	C	-0.078629	-0.639455	-0.000012
C42	C	-0.172773	-0.699803	-0.000009
C43	C	-0.012888	-0.677369	-0.000015
C44	C	-0.041296	-0.775625	-0.000013
C45	C	-0.201180	-0.798059	-0.000006
N46	N	-0.148107	-1.049069	-0.248739
C47	C	-0.025293	-0.946383	0.600530
C48	C	-0.056113	-0.972154	0.701031
C49	C	-0.209318	-1.100240	0.701002
C50	C	-0.178513	-1.074477	0.600499
C51	C	-0.086499	-0.997548	0.550271
C52	C	-0.239719	-1.125641	0.550240
C53	C	-0.208913	-1.099883	0.449746
C54	C	-0.116902	-1.022960	0.399511
C55	C	-0.055693	-0.971790	0.449777
C56	C	-0.331730	-1.202574	0.600470
C57	C	-0.392936	-1.253739	0.550211
C58	C	-0.362133	-1.227976	0.449715
C59	C	-0.270122	-1.151053	0.399480
C60	C	-0.423342	-1.279146	0.399449
C61	C	-0.392536	-1.253388	0.298955
C62	C	-0.239316	-1.125295	0.298986
H63	H	-0.602566	-0.948383	0.000068
C64	C	-0.083016	-0.994624	0.288964
N65	N	-0.057494	-0.973280	0.205699
C66	C	0.011225	-0.915860	0.756313
N67	N	0.061944	-0.873460	0.797950
C68	C	-0.143871	-0.361073	-0.000016
N69	N	-0.065869	-0.311073	-0.000012
H70	H	0.019230	-0.909140	0.408880
H71	H	-0.751722	-1.233685	0.145404
C72	C	-0.501969	-0.750708	0.000012
N73	N	-0.579974	-0.800707	0.000017
C74	C	-0.796181	-1.058701	0.168612
N75	N	-0.825481	-1.036988	0.236324
H76	H	-0.467853	-1.316377	0.591118
H77	H	-0.092828	-0.423281	-0.000025
H78	H	-0.355781	-0.802240	-0.000014
C79	C	0.053340	-0.474809	-0.000022
N80	N	0.131342	-0.424809	-0.000018
C81	C	-0.524553	-1.363769	0.454714
N82	N	-0.600787	-1.427507	0.496339
H83	H	-0.697016	-0.991808	-0.145252
H84	H	-0.845962	-1.277274	0.000087
H85	H	-0.164393	-1.062645	0.258089
C86	C	-0.539297	-0.614544	0.000010
N87	N	-0.617302	-0.664543	0.000015
C88	C	-0.459868	-1.309670	0.243667
N89	N	-0.510583	-1.352064	0.202024
H90	H	-0.662508	-1.159267	-0.145250
H91	H	-0.277847	-0.847196	0.000004
H92	H	-0.460840	-0.419035	-0.000005
C93	C	0.090674	-0.610978	-0.000026
N94	N	0.168678	-0.560973	-0.000033
H95	H	-0.356806	-1.223546	0.682299
C96	C	0.075906	-0.861720	0.545274
N97	N	0.152119	-0.797943	0.503655
C98	C	0.031017	-0.817327	-0.000011
N99	N	0.085485	-0.848736	-0.000012
C100	C	-0.310534	-1.184857	0.756264
N101	N	-0.386772	-1.248588	0.797887
