data_functionalizedCrystal
_audit_creation_method	'MofGen! by Chris Wilmer'
_symmetry_space_group_name_H-M	'P1'
_symmetry_Int_Tables_number	1
_symmetry_cell_setting	triclinic
loop_
_symmetry_equiv_pos_as_xyz
  x,y,z
_cell_length_a	20.875444
_cell_length_b	20.875684
_cell_length_c	14.560438
_cell_angle_alpha	87.030616
_cell_angle_beta	61.755160
_cell_angle_gamma	60.175864
loop_
_atom_site_label
_atom_site_type_symbol
_atom_site_fract_x
_atom_site_fract_y
_atom_site_fract_z
Zr1	Zr	0.667387	0.652593	-0.119147
O2	O	0.794593	0.556775	-0.249183
O3	O	0.540183	0.677386	-0.085530
O4	O	0.667388	0.683991	-0.268126
O5	O	0.667387	0.550170	0.084554
O6	O	0.667386	0.789551	-0.275964
O7	O	0.667388	0.550170	-0.066586
O8	O	0.439840	0.777736	0.050668
O9	O	0.894933	0.561985	-0.242078
O10	O	0.592502	0.772272	-0.069495
O11	O	0.592502	0.693494	0.049149
O12	O	0.742269	0.701270	-0.165835
O13	O	0.742269	0.622492	-0.047192
Zr14	Zr	0.667382	0.820949	0.109405
Zr15	Zr	0.667384	0.820949	-0.131647
Zr16	Zr	0.667384	0.652593	0.121905
Zr17	Zr	0.827417	0.660902	-0.107814
Zr18	Zr	0.507351	0.812639	0.098073
O19	O	0.794585	0.796155	0.075788
O20	O	0.794589	0.796155	-0.266956
O21	O	0.794589	0.556775	0.093562
O22	O	0.540176	0.916766	0.239441
O23	O	0.540179	0.916766	-0.103303
O24	O	0.540180	0.677386	0.257215
O25	O	0.667382	0.923371	-0.094296
O26	O	0.667380	0.789551	0.258385
O27	O	0.667382	0.683991	0.266223
O28	O	0.667380	0.923371	0.056845
O29	O	0.894930	0.695805	-0.252013
O30	O	0.439838	0.777736	0.242272
O31	O	0.439836	0.911556	0.232336
O32	O	0.439838	0.911556	0.040732
O33	O	0.894930	0.561985	-0.050473
O34	O	0.894928	0.695805	-0.060409
O35	O	0.592499	0.772272	0.156094
O36	O	0.592499	0.851050	0.037450
O37	O	0.742267	0.780048	-0.058890
O38	O	0.742267	0.701270	0.059754
C39	C	0.467211	0.726377	-0.019046
C40	C	0.399274	0.722850	-0.023856
C41	C	0.022684	0.697062	-0.058683
C42	C	0.086535	0.700375	-0.054208
C43	C	0.063195	0.757321	0.023059
C44	C	-0.024003	0.810953	0.095864
C45	C	-0.087853	0.807636	0.091394
C46	C	0.248227	0.773165	0.044479
C47	C	0.312085	0.776479	0.048941
C48	C	0.422619	0.665900	-0.101131
C49	C	0.358763	0.662591	-0.105598
C50	C	0.271571	0.716221	-0.032790
N51	N	0.128459	0.760710	0.027632
N52	N	0.206308	0.712828	-0.037359
C53	C	0.667388	0.526183	0.010765
C54	C	0.667389	0.454712	0.016072
C55	C	0.667377	0.052413	0.054954
C56	C	0.667374	0.119568	0.049957
C57	C	0.667380	0.153137	-0.035813
C58	C	0.667380	0.119550	-0.116584
C59	C	0.667377	0.052399	-0.111582
C60	C	0.667386	0.353974	-0.059698
C61	C	0.667392	0.421129	-0.064696
C62	C	0.667384	0.421143	0.101847
C63	C	0.667386	0.353988	0.106838
C64	C	0.667381	0.320409	0.026070
N65	N	0.667380	0.221780	-0.040924
N66	N	0.667375	0.251771	0.031186
C67	C	0.867558	0.747164	0.009304
C68	C	0.935494	0.750692	0.014115
C69	C	0.667388	0.736771	-0.306390
C70	C	0.667389	0.736771	-0.408723
C71	C	0.667381	0.947358	-0.020506
C72	C	0.667380	1.018830	-0.025813
C73	C	0.745564	0.699705	-0.507088
C74	C	0.745560	0.699707	-0.603237
C75	C	0.589198	0.773841	-0.502643
C76	C	0.589203	0.773843	-0.406497
C77	C	0.835839	0.656902	-0.565165
C78	C	0.835835	0.656904	-0.661314
C79	C	0.667381	0.736771	0.296649
C80	C	0.667380	0.736771	0.398981
C81	C	0.467208	0.936965	-0.034681
C82	C	0.399269	1.004909	-0.044799
C83	C	0.467208	0.726377	0.282474
C84	C	0.399270	0.722850	0.379996
C85	C	0.467204	0.936965	0.266838
C86	C	0.399265	1.004909	0.359053
C87	C	0.867564	0.536577	-0.276579
C88	C	0.935504	0.468633	-0.368795
C89	C	0.867561	0.536577	0.024940
C90	C	0.935499	0.468633	0.035057
C91	C	0.867561	0.747164	-0.292215
C92	C	0.935499	0.750692	-0.389737
C93	C	0.367366	0.995694	-0.105385
C94	C	0.303540	1.059529	-0.114912
C95	C	0.271614	1.132577	-0.063847
C96	C	0.303523	1.141790	-0.003259
C97	C	0.367353	1.077956	0.006262
C98	C	0.367364	0.762315	0.481628
C99	C	0.303538	0.758998	0.573270
C100	C	0.271614	0.716220	0.563278
C101	C	0.303526	0.676750	0.461635
C102	C	0.367355	0.680063	0.369996
C103	C	0.367360	1.077944	0.340427
C104	C	0.303532	1.141792	0.427064
C105	C	0.271607	1.132602	0.532326
C106	C	0.303518	1.059558	0.550951
C107	C	0.367349	0.995713	0.464315
C108	C	0.967417	0.395598	-0.350168
C109	C	1.031264	0.331751	-0.436804
C110	C	1.063192	0.340941	-0.542066
C111	C	1.031277	0.413984	-0.560691
C112	C	0.967435	0.477829	-0.474056
C113	C	0.967409	0.477847	0.095634
C114	C	1.031253	0.414014	0.105136
C115	C	1.063181	0.340966	0.054068
C116	C	1.031269	0.331753	-0.006516
C117	C	0.967431	0.395586	-0.016024
C118	C	0.967402	0.793476	-0.379711
C119	C	1.031229	0.796806	-0.471335
C120	C	1.063155	0.757345	-0.572985
C121	C	1.031246	0.714559	-0.583010
C122	C	0.967416	0.711235	-0.491387
H123	H	-0.158847	0.851306	0.150676
H124	H	0.941418	0.537321	0.137228
H125	H	0.277515	1.052087	0.636667
H126	H	0.863853	0.597558	-0.549940
H127	H	0.393360	0.936221	-0.146983
N128	N	0.667375	0.016176	-0.198691
H129	H	0.667380	0.047630	-0.253786
H130	H	0.720538	-0.036894	-0.234442
N131	N	0.401797	0.808448	0.492418
H132	H	0.390685	0.849259	0.451299
H133	H	0.371881	0.832888	0.570736
N134	N	0.667376	0.317787	0.199351
H135	H	0.614210	0.315130	0.239332
H136	H	0.720576	0.264741	0.170858
H137	H	1.115130	0.760059	-0.647582
N138	N	1.065701	0.252962	-0.061575
H139	H	1.035802	0.256802	-0.101395
H140	H	1.129781	0.226634	-0.114025
H141	H	1.057238	0.272282	-0.421618
H142	H	0.941424	0.388100	-0.264466
H143	H	0.525545	0.804035	-0.326408
N144	N	0.202769	1.201419	-0.074126
H145	H	0.149806	1.198689	-0.044375
H146	H	0.187450	1.249061	-0.032596
N147	N	0.504873	0.813827	-0.500245
H148	H	0.516730	0.808205	-0.576079
H149	H	0.470731	0.790466	-0.458536
H150	H	0.277562	0.791142	0.656022
H151	H	1.057225	0.421530	0.154473
H152	H	0.941447	0.676391	-0.499565
N153	N	0.933020	0.385634	-0.081361
H154	H	0.906547	0.354587	-0.050140
H155	H	0.887766	0.437177	-0.079627
N156	N	1.132036	0.272121	0.064328
H157	H	1.147399	0.289049	0.110457
H158	H	1.109774	0.238671	0.098636
H159	H	0.870504	0.685113	-0.564694
H160	H	0.667397	0.448457	-0.134545
N161	N	0.932976	0.836040	-0.270081
H162	H	0.962877	0.863648	-0.277649
H163	H	0.868896	0.874051	-0.235231
N164	N	0.401760	1.087900	0.071609
H165	H	0.390651	1.061300	0.132012
H166	H	0.465828	1.065210	0.024003
N167	N	0.667386	0.457360	0.188959
H168	H	0.667389	0.504994	0.172780
H169	H	0.614216	0.470833	0.260392
N170	N	0.269085	1.220579	0.051814
H171	H	0.223807	1.259612	0.036586
H172	H	0.242638	1.225433	0.131821
N173	N	1.065636	0.842957	-0.460510
H174	H	1.035727	0.867442	-0.382210
H175	H	1.129716	0.808533	-0.490500
N176	N	-0.049184	0.872379	0.179200
H177	H	-0.084444	0.868013	0.253348
H178	H	0.004533	0.866312	0.170888
H179	H	1.057250	0.682432	-0.665785
H180	H	0.219640	0.713529	0.637905
H181	H	0.041699	0.650694	-0.121608
H182	H	0.157527	0.656712	-0.113499
H183	H	0.863845	0.689689	-0.712580
H184	H	0.277567	1.052013	-0.164248
N185	N	0.202748	1.201463	0.625769
H186	H	0.224951	1.202658	0.673629
H187	H	0.187403	1.249087	0.597908
N188	N	0.269086	0.630618	0.450865
H189	H	0.223805	0.634518	0.524345
H190	H	0.242640	0.650845	0.404883
H191	H	0.293070	0.822852	0.111868
H192	H	0.393344	1.085441	0.254725
H193	H	0.377777	0.616219	-0.168517
H194	H	0.870492	0.595825	-0.706386
N195	N	0.516658	0.608059	-0.179656
H196	H	0.553567	0.618798	-0.165103
H197	H	0.529643	0.555373	-0.171080
H198	H	0.393318	0.936246	0.479496
H199	H	0.177239	0.816836	0.103762
N200	N	0.667384	0.317760	-0.146811
H201	H	0.667393	0.349215	-0.201905
H202	H	0.720549	0.264690	-0.182561
N203	N	0.269102	1.220569	0.406971
H204	H	0.280212	1.250850	0.442802
H205	H	0.299019	1.216637	0.327127
H206	H	0.667377	0.025083	0.124794
H207	H	1.115176	0.288948	-0.612600
N208	N	0.401810	0.637450	0.260386
H209	H	0.371910	0.609837	0.267974
H210	H	0.390727	0.674592	0.214281
N211	N	0.667345	0.155803	0.137087
H212	H	0.667338	0.124349	0.192181
H213	H	0.720504	0.158472	0.104463
H214	H	1.057282	0.421458	-0.646405
H215	H	0.667380	0.146888	-0.186417
N216	N	0.933003	0.556600	-0.494159
H217	H	0.887710	0.595658	-0.423312
H218	H	0.981750	0.565357	-0.533691
