data_functionalizedCrystal
_audit_creation_method	'MofGen! by Chris Wilmer'
_symmetry_space_group_name_H-M	'P1'
_symmetry_Int_Tables_number	1
_symmetry_cell_setting	triclinic
loop_
_symmetry_equiv_pos_as_xyz
  x,y,z
_cell_length_a	12.759401
_cell_length_b	16.120484
_cell_length_c	12.759393
_cell_angle_alpha	92.862533
_cell_angle_beta	89.981665
_cell_angle_gamma	92.925560
loop_
_atom_site_label
_atom_site_type_symbol
_atom_site_fract_x
_atom_site_fract_y
_atom_site_fract_z
Zn1	Zn	1.584970	-0.331850	-0.615146
Zn2	Zn	1.575922	-0.471289	-0.448359
Zn3	Zn	1.409270	-0.331895	-0.439488
Zn4	Zn	1.400322	-0.471224	-0.623996
O5	O	1.492621	-0.401564	-0.531747
O6	O	1.730790	-0.350355	-0.593029
O7	O	1.553773	-0.452843	-0.300164
O8	O	1.440108	-0.215223	-0.455373
O9	O	1.724143	-0.452800	-0.470492
O10	O	1.569195	-0.215191	-0.584428
O11	O	1.431335	-0.350431	-0.293646
O12	O	1.261062	-0.350368	-0.463955
O13	O	1.424858	-0.452690	-0.769840
O14	O	1.254489	-0.452733	-0.599512
O15	O	1.560518	-0.350292	-0.763338
O16	O	1.545097	-0.587945	-0.479074
O17	O	1.416084	-0.587897	-0.608113
C18	C	1.219655	-0.401549	-0.531732
C19	C	1.102877	-0.401562	-0.531751
C20	C	1.044614	-0.454949	-0.602230
C21	C	0.934889	-0.454959	-0.602242
C22	C	0.941701	-0.348195	-0.461287
C23	C	1.051424	-0.348181	-0.461281
C24	C	1.040681	-0.516591	-0.683607
C25	C	0.930956	-0.516602	-0.683619
C26	C	1.478666	-0.618171	-0.545539
C27	C	1.472793	-0.710837	-0.551475
C28	C	1.462075	-0.880497	-0.562333
C29	C	1.523356	-0.921791	-0.501178
C30	C	1.517392	-1.016196	-0.507219
C31	C	1.468037	-0.786084	-0.556293
C32	C	1.766653	-0.401580	-0.531763
C33	C	1.883429	-0.401587	-0.531770
C34	C	1.492699	-0.401479	-0.805775
C35	C	1.492733	-0.401442	-0.922549
C36	C	1.506659	-0.184111	-0.517924
C37	C	1.512641	-0.091446	-0.512033
C38	C	1.429029	-0.348085	-1.083748
C39	C	1.429001	-0.348109	-0.974026
C40	C	1.556504	-0.454750	-0.980801
C41	C	1.556536	-0.454722	-1.090522
C42	C	1.355413	-0.286520	-1.079836
C43	C	1.355385	-0.286543	-0.970113
C44	C	1.492607	-0.401589	-0.258781
C45	C	1.492793	-0.401391	-0.141992
H46	H	0.899794	-0.304732	-0.403914
H47	H	1.098858	-0.304703	-0.403897
H48	H	1.071593	-0.499372	-0.763915
H49	H	1.405136	-0.916043	-0.619223
F50	F	1.080005	-0.596739	-0.650520
H51	H	1.608469	-0.498121	-1.137940
H52	H	1.608402	-0.498170	-0.938880
F53	F	1.389371	-0.202120	-1.113403
H54	H	1.272888	-0.303834	-0.941428
H55	H	0.898436	-0.493554	-0.759501
H56	H	1.276638	-0.309637	-1.115333
H57	H	0.897020	-0.581155	-0.665803
F58	F	1.597782	-0.875329	-0.426809
F59	F	1.398640	-0.206385	-0.920541
