data_functionalizedCrystal
_audit_creation_method	'MofGen! by Chris Wilmer'
_symmetry_space_group_name_H-M	'P1'
_symmetry_Int_Tables_number	1
_symmetry_cell_setting	triclinic
loop_
_symmetry_equiv_pos_as_xyz
  x,y,z
_cell_length_a	10.489711
_cell_length_b	10.489741
_cell_length_c	7.681481
_cell_angle_alpha	84.199479
_cell_angle_beta	95.780052
_cell_angle_gamma	84.533091
loop_
_atom_site_label
_atom_site_type_symbol
_atom_site_fract_x
_atom_site_fract_y
_atom_site_fract_z
O1	O	1.682120	0.191760	-0.146492
O2	O	1.310921	0.208691	-0.146481
O3	O	1.504968	0.014626	-0.146476
O4	O	1.488073	0.385825	-0.146497
O5	O	1.528851	-0.009315	0.146382
O6	O	1.334804	0.184750	0.146377
O7	O	1.706004	0.167819	0.146367
Zn8	Zn	1.524196	0.172484	0.192869
Zn9	Zn	1.492729	0.204027	-0.192984
O10	O	1.511957	0.361884	0.146362
C11	C	1.275330	0.195450	-0.000051
C12	C	1.133699	0.191648	-0.000046
C13	C	0.951311	0.308354	-0.000073
C14	C	1.031681	0.261862	-0.144462
C15	C	1.055201	0.238227	0.144274
C16	C	0.961719	0.138330	-0.144592
C17	C	0.985240	0.114702	0.144274
C18	C	1.065580	0.068123	-0.000150
C19	C	1.515634	-0.044876	-0.000048
C20	C	1.511816	-0.186505	-0.000051
C21	C	1.388349	-0.254631	-0.000061
C22	C	1.458449	-0.358564	0.144332
C23	C	1.434931	-0.334934	-0.144403
C24	C	1.581977	-0.288582	0.144461
C25	C	1.558431	-0.264933	-0.144404
C26	C	1.628623	-0.368841	0.000024
C27	C	1.741594	0.181061	-0.000068
C28	C	1.883224	0.184864	-0.000084
C29	C	1.501291	0.421386	-0.000070
C30	C	1.505107	0.563016	-0.000079
N31	N	1.545681	0.150956	0.456204
N32	N	1.471253	0.225545	-0.456319
H33	H	1.286848	-0.204981	0.000088
H34	H	1.416163	-0.399549	0.266409
O35	O	1.656243	-0.263584	0.290079
C36	C	1.759711	-0.197605	0.238554
H37	H	1.733360	-0.147237	0.099206
H38	H	1.848991	-0.269271	0.242026
C39	C	1.820091	-0.158622	0.536967
C40	C	1.787722	-0.096751	0.365823
H41	H	1.837375	-0.096415	0.615475
H42	H	1.750386	-0.203078	0.571682
H43	H	1.894488	-0.218342	0.539835
H44	H	1.713318	-0.037045	0.362952
H45	H	1.857416	-0.052283	0.331110
H46	H	1.395278	0.301677	0.468482
H47	H	0.901608	0.409868	-0.000222
H48	H	1.052720	0.324097	-0.266533
H49	H	0.920944	0.096118	-0.266804
O50	O	1.124472	-0.053142	0.000005
C51	C	1.099526	-0.130870	0.150926
H52	H	1.007869	-0.088011	0.200753
H53	H	1.183893	-0.135152	0.257968
C54	C	1.194698	-0.320528	0.042678
C55	C	1.082117	-0.267893	0.103869
H56	H	1.183965	-0.405053	0.013656
H57	H	1.211510	-0.268162	-0.058997
H58	H	1.264993	-0.324085	0.131890
H59	H	1.011828	-0.264322	0.014650
H60	H	1.065294	-0.320263	0.205529
H61	H	1.730234	-0.418282	0.000101
H62	H	1.372718	-0.355913	-0.266487
H63	H	0.964174	0.052513	0.266356
H64	H	1.096112	0.280522	0.266345
H65	H	1.600672	-0.223913	-0.266487
H66	H	1.621671	0.074827	0.531412
