data_functionalizedCrystal
_audit_creation_method	'MofGen! by Chris Wilmer'
_symmetry_space_group_name_H-M	'P1'
_symmetry_Int_Tables_number	1
_symmetry_cell_setting	triclinic
loop_
_symmetry_equiv_pos_as_xyz
  x,y,z
_cell_length_a	12.811457
_cell_length_b	23.532409
_cell_length_c	11.892095
_cell_angle_alpha	93.867696
_cell_angle_beta	91.498327
_cell_angle_gamma	83.449000
loop_
_atom_site_label
_atom_site_type_symbol
_atom_site_fract_x
_atom_site_fract_y
_atom_site_fract_z
O1	O	1.388389	0.078563	0.048338
O2	O	1.084955	0.085706	0.017229
O3	O	1.245821	-0.000711	0.033720
O4	O	1.227523	0.164980	0.031847
O5	O	1.232409	0.006483	0.220352
O6	O	1.071543	0.092900	0.203862
O7	O	1.374977	0.085757	0.234970
Zn8	Zn	1.221130	0.090471	0.249048
Zn9	Zn	1.238802	0.080992	0.003151
O10	O	1.214111	0.172174	0.218479
C11	C	1.039436	0.088682	0.106566
C12	C	0.923785	0.086826	0.094709
C13	C	0.691842	0.091171	0.275918
C14	C	0.583178	0.089426	0.264783
C15	C	0.597791	0.081589	0.061305
C16	C	0.706455	0.083333	0.072440
C17	C	0.753477	0.088125	0.179750
C18	C	0.862142	0.089873	0.190884
C19	C	0.876754	0.082032	-0.012593
C20	C	0.768090	0.080288	-0.023728
C21	C	1.238649	-0.018335	0.126986
C22	C	1.237248	-0.081565	0.126834
C23	C	1.238597	-0.358788	0.024484
C24	C	1.239899	-0.299375	0.024617
O25	O	1.246826	-0.271979	-0.061827
N26	N	1.233232	-0.265746	0.126418
C27	C	1.225273	-0.291532	0.228094
O28	O	1.219723	-0.257472	0.314696
C29	C	1.223979	-0.350944	0.227960
C30	C	1.230636	-0.384570	0.126152
C31	C	1.245255	-0.392414	-0.077316
C32	C	1.243951	-0.451822	-0.077449
C33	C	1.235989	-0.477604	0.024218
C34	C	1.229332	-0.443978	0.126019
C35	C	1.216028	-0.376730	0.329636
C36	C	1.214735	-0.436146	0.329493
C37	C	1.221392	-0.469772	0.227684
C38	C	1.220067	-0.529169	0.227553
N39	N	1.226734	-0.562799	0.125752
C40	C	1.234695	-0.537016	0.024084
C41	C	1.227994	-0.166763	0.228367
C42	C	1.229281	-0.107352	0.228501
C43	C	1.243908	-0.115200	0.025024
C44	C	1.242614	-0.174612	0.024891
C45	C	1.234661	-0.200393	0.126566
C46	C	1.231955	-0.661778	0.023813
C47	C	1.230647	-0.721190	0.023688
C48	C	1.216025	-0.713338	0.227165
C49	C	1.217328	-0.653930	0.227290
C50	C	1.225297	-0.628152	0.125605
O51	O	1.213146	-0.556605	0.313954
O52	O	1.240258	-0.571084	-0.062502
C53	C	1.420496	0.082781	0.145631
C54	C	1.536148	0.084637	0.157480
C55	C	1.221283	0.189797	0.125211
C56	C	1.222685	0.253027	0.125356
N57	N	1.209077	0.096939	0.416866
N58	N	1.250863	0.074519	-0.164666
C59	C	1.334733	0.029476	0.666395
C60	C	1.326315	0.034001	0.783874
C61	C	1.183821	0.110513	0.769305
C62	C	1.192239	0.105987	0.651826
C63	C	1.267698	0.065468	0.600376
C64	C	1.276119	0.060945	0.482895
C65	C	1.133621	0.137454	0.468327
C66	C	1.125204	0.141979	0.585806
H67	H	0.729790	0.076384	-0.111097
H68	H	1.211866	-0.626547	0.310186
H69	H	1.337564	0.027954	0.441006
H70	H	0.532998	0.091910	0.343093
C71	C	1.254004	-0.364062	-0.189161
H72	H	1.257775	-0.392605	-0.249800
H73	H	1.315574	-0.344998	-0.187129
H74	H	1.194036	-0.337101	-0.199571
H75	H	1.063763	0.174968	0.627711
C76	C	1.252683	-0.086833	-0.086808
H77	H	1.252514	-0.046635	-0.072137
H78	H	1.194717	-0.094224	-0.134875
H79	H	1.316252	-0.102133	-0.122390
C80	C	0.743573	0.096446	0.393948
H81	H	0.817116	0.097053	0.386805
H82	H	0.731052	0.064636	0.434780
H83	H	0.714474	0.130914	0.433070
H84	H	0.926948	0.079555	-0.090900
H85	H	1.396181	-0.003513	0.624505
H86	H	1.236064	-0.748567	-0.059221
C87	C	0.546055	0.076316	-0.056722
H88	H	0.472511	0.075715	-0.049575
H89	H	0.575155	0.041855	-0.095856
H90	H	0.558568	0.108133	-0.097546
C91	C	1.240713	-0.633429	-0.088039
H92	H	1.244481	-0.661970	-0.148679
H93	H	1.302288	-0.614368	-0.086001
H94	H	1.180751	-0.606465	-0.098448
H95	H	1.079040	0.166762	0.414561
H96	H	1.380900	0.004693	0.837625
C97	C	0.913871	0.095143	0.308916
H98	H	0.987414	0.095751	0.301778
H99	H	0.901349	0.063330	0.349737
H100	H	0.884769	0.129608	0.348046
H101	H	1.209539	-0.734340	0.309940
C102	C	1.100761	0.155045	0.825902
H103	H	1.062017	0.175821	0.769757
H104	H	1.134644	0.180776	0.875577
H105	H	1.054345	0.135995	0.867275
C106	C	1.251277	-0.488804	-0.189440
H107	H	1.256212	-0.464933	-0.249961
H108	H	1.190311	-0.508192	-0.199959
H109	H	1.311847	-0.516095	-0.187499
H110	H	1.223840	-0.079977	0.311402
C111	C	1.249964	-0.211597	-0.087095
H112	H	1.254902	-0.187728	-0.147618
H113	H	1.189009	-0.230993	-0.097625
H114	H	1.310543	-0.238881	-0.085136
C115	C	1.208719	-0.339754	0.441629
H116	H	1.203809	-0.363628	0.502150
H117	H	1.148162	-0.312459	0.439706
H118	H	1.269700	-0.320373	0.452136
C119	C	1.219224	-0.195116	0.340215
H120	H	1.215429	-0.166574	0.400855
H121	H	1.279174	-0.222082	0.350637
H122	H	1.157639	-0.214175	0.338160
C123	C	1.205978	-0.464502	0.441338
H124	H	1.202191	-0.435962	0.501983
H125	H	1.265928	-0.491469	0.451750
H126	H	1.144392	-0.483559	0.439287
