data_functionalizedCrystal
_audit_creation_method	'MofGen! by Chris Wilmer'
_symmetry_space_group_name_H-M	'P1'
_symmetry_Int_Tables_number	1
_symmetry_cell_setting	triclinic
loop_
_symmetry_equiv_pos_as_xyz
  x,y,z
_cell_length_a	6.817900
_cell_length_b	11.102288
_cell_length_c	12.200875
_cell_angle_alpha	92.492872
_cell_angle_beta	107.143593
_cell_angle_gamma	108.605689
loop_
_atom_site_label
_atom_site_type_symbol
_atom_site_fract_x
_atom_site_fract_y
_atom_site_fract_z
V1	V	-4.094469	-0.176128	-0.357661
O2	O	-4.053827	0.008167	-0.350853
O3	O	-4.071363	-0.348946	-0.355215
O4	O	-4.063810	-0.173549	-0.513649
O5	O	-4.061433	-0.168445	-0.191321
V6	V	-4.572521	-0.154069	-0.337765
O7	O	-4.367730	-0.224516	-0.401304
O8	O	-4.749458	-0.105680	-0.294123
O9	O	-4.372421	0.018750	-0.340211
O10	O	-4.730561	-0.338363	-0.344574
O11	O	-4.722955	-0.161752	-0.504105
O12	O	-4.379974	-0.156648	-0.181777
C13	C	-3.921943	-0.391071	-0.349573
C14	C	-3.984456	-0.532353	-0.348613
C15	C	-4.197560	-0.605206	-0.353885
C16	C	-4.256290	-0.737957	-0.352991
C17	C	-3.888790	-0.724989	-0.341549
C18	C	-3.830067	-0.592242	-0.342451
C19	C	-3.912307	-0.167333	-0.551670
C20	C	-3.968690	-0.166368	-0.679191
C21	C	-4.071879	-0.164603	-0.912666
C22	C	-4.014449	-0.165585	-0.782744
C23	C	-4.185183	0.060868	-0.345851
C24	C	-4.101910	0.202149	-0.346818
C25	C	-4.194820	-0.162867	-0.143750
C26	C	-4.117674	-0.163826	-0.016228
H27	H	-3.656529	-0.532924	-0.338162
H28	H	-3.763099	-0.773767	-0.336530
Br29	Br	-4.407092	-0.523933	-0.362255
Br30	Br	-4.545515	-0.836825	-0.360154
