data_functionalizedCrystal
_audit_creation_method	'MofGen! by Chris Wilmer'
_symmetry_space_group_name_H-M	'P1'
_symmetry_Int_Tables_number	1
_symmetry_cell_setting	triclinic
loop_
_symmetry_equiv_pos_as_xyz
  x,y,z
_cell_length_a	17.699077
_cell_length_b	10.654541
_cell_length_c	16.776229
_cell_angle_alpha	89.993604
_cell_angle_beta	89.993415
_cell_angle_gamma	83.882252
loop_
_atom_site_label
_atom_site_type_symbol
_atom_site_fract_x
_atom_site_fract_y
_atom_site_fract_z
O1	O	1.005090	0.158773	-0.066277
O2	O	0.784842	0.179442	-0.066281
O3	O	0.900031	-0.013721	-0.066274
O4	O	0.889901	0.351936	-0.066284
O5	O	0.900015	-0.013732	0.066302
O6	O	0.784827	0.179431	0.066295
O7	O	1.005074	0.158761	0.066299
Zn8	Zn	0.894948	0.169094	0.087347
Zn9	Zn	0.894969	0.169110	-0.087329
O10	O	0.889886	0.351924	0.066292
C11	C	0.756633	0.178697	0.000007
C12	C	0.672600	0.176479	0.000005
C13	C	0.899280	-0.060511	0.000014
C14	C	0.897056	-0.199916	0.000012
C15	C	0.633118	0.175428	0.072274
C16	C	0.554162	0.173323	0.072274
C17	C	0.514689	0.172280	0.000006
C18	C	0.554178	0.173328	-0.072268
C19	C	0.633133	0.175423	-0.072268
C20	C	0.235761	0.164877	-0.072269
C21	C	0.156800	0.162785	-0.072263
C22	C	0.156790	0.162777	0.072273
C23	C	0.235745	0.164872	0.072273
C24	C	0.275227	0.165913	-0.000000
C25	C	0.360840	0.168193	-0.000000
C26	C	0.429077	0.170010	0.000006
C27	C	1.034795	-0.230303	0.000025
C28	C	1.102617	-0.310987	0.000033
C29	C	1.100522	-0.441968	0.000030
C30	C	1.030599	-0.492267	0.000017
C31	C	0.962777	-0.411583	0.000009
C32	C	0.964879	-0.280600	0.000014
C33	C	0.825039	-0.381196	-0.000009
C34	C	0.827132	-0.250215	-0.000001
C35	C	0.755116	-0.431495	-0.000022
C36	C	0.687292	-0.350811	-0.000024
C37	C	0.689390	-0.219822	-0.000020
C38	C	0.759310	-0.169531	-0.000008
C39	C	1.033284	0.159507	0.000010
C40	C	1.117316	0.161725	0.000006
C41	C	0.890637	0.398715	0.000003
C42	C	0.892861	0.538120	-0.000001
N43	N	0.894940	0.169083	0.206558
N44	N	0.894983	0.169111	-0.206540
C45	C	0.945961	0.083585	0.248278
C46	C	0.945965	0.083584	0.331730
C47	C	0.894951	0.169088	0.373461
C48	C	0.843924	0.254589	0.331735
C49	C	0.843917	0.254583	0.248284
C50	C	0.843952	0.254614	0.668282
C51	C	0.843964	0.254616	0.751739
C52	C	0.946000	0.083615	0.751728
C53	C	0.945993	0.083609	0.668277
C54	C	0.894964	0.169105	0.626559
C55	C	0.894959	0.169104	0.536070
C56	C	0.894959	0.169096	0.463948
H57	H	0.665250	0.176288	0.131123
H58	H	0.124635	0.161924	0.131122
C59	C	0.611818	-0.054908	0.068122
C60	C	0.614837	-0.131135	-0.000031
H61	H	0.565793	-0.000156	0.068111
H62	H	0.613848	-0.106647	0.114344
H63	H	0.653760	-0.006209	0.068123
H64	H	0.572898	-0.179842	-0.000029
H65	H	0.612800	-0.079390	-0.046265
C66	C	0.724832	0.026385	-0.068159
C67	C	0.761614	-0.025554	-0.000003
H68	H	0.726253	0.115271	-0.068152
H69	H	0.749808	-0.008844	-0.114379
H70	H	0.673485	0.007970	-0.068160
H71	H	0.812962	-0.007147	-0.000005
H72	H	0.736640	0.009688	0.046229
H73	H	0.267897	0.165721	-0.131118
H74	H	0.267879	0.165728	0.131121
H75	H	0.802420	0.324245	0.785714
C76	C	0.714637	-0.610841	-0.068190
C77	C	0.752814	-0.575472	-0.000029
H78	H	0.713220	-0.699728	-0.068194
H79	H	0.664244	-0.569995	-0.068191
H80	H	0.740566	-0.586804	-0.114411
H81	H	0.726882	-0.599500	0.046193
H82	H	0.803215	-0.616333	-0.000021
C83	C	1.048782	0.056027	0.154368
C84	C	1.002003	-0.010435	0.202391
H85	H	1.083371	-0.002032	0.126039
H86	H	1.018395	0.106964	0.117596
H87	H	1.076315	0.108208	0.186906
H88	H	0.974466	-0.062609	0.169853
H89	H	1.032394	-0.061394	0.239168
C90	C	1.238560	-0.354178	0.000041
C91	C	1.179475	-0.255698	0.000041
H92	H	1.286008	-0.320045	0.000038
H93	H	1.234871	-0.404637	0.046271
H94	H	1.234878	-0.404628	-0.046194
H95	H	1.183154	-0.205253	0.046279
H96	H	1.183167	-0.205218	-0.046194
C97	C	0.457451	0.278899	-0.156122
C98	C	0.510790	0.172186	-0.151707
H99	H	0.430670	0.278198	-0.205168
H100	H	0.422640	0.277963	-0.113086
H101	H	0.482872	0.352908	-0.153119
H102	H	0.485368	0.098176	-0.154704
H103	H	0.545606	0.173110	-0.194755
C104	C	0.743053	0.423606	0.323357
C105	C	0.787842	0.348570	0.377602
H106	H	0.708426	0.481620	0.351674
H107	H	0.774785	0.468715	0.290799
H108	H	0.715561	0.371367	0.290817
H109	H	0.815339	0.400807	0.410138
H110	H	0.756105	0.303457	0.410173
C111	C	1.065112	-0.688144	-0.068145
C112	C	1.028299	-0.636244	0.000006
H113	H	1.063695	-0.777030	-0.068148
H114	H	1.040154	-0.652891	-0.114368
H115	H	1.116457	-0.669723	-0.068130
H116	H	0.976952	-0.654657	-0.000011
H117	H	1.053255	-0.671509	0.046241
H118	H	0.665278	0.176282	-0.131116
H119	H	0.802403	0.324230	0.634321
C120	C	1.178051	-0.606920	0.068188
C121	C	1.175070	-0.530666	0.000037
H122	H	1.224072	-0.661682	0.068188
H123	H	1.176004	-0.555199	0.114412
H124	H	1.136104	-0.655608	0.068174
H125	H	1.217015	-0.481970	0.000054
H126	H	1.177125	-0.582393	-0.046199
H127	H	0.987510	0.013965	0.365698
C128	C	1.112791	-0.059216	0.000048
C129	C	1.037099	-0.086326	0.000034
H130	H	1.114213	0.029670	0.000049
H131	H	1.137733	-0.094466	0.046280
H132	H	1.137758	-0.094450	-0.046185
H133	H	1.012134	-0.051100	0.046270
H134	H	1.012147	-0.051061	-0.046203
C135	C	1.046849	-0.085435	0.676651
C136	C	1.002067	-0.010383	0.622408
H137	H	1.081462	-0.143470	0.648333
H138	H	1.074349	-0.033219	0.709185
H139	H	1.015105	-0.130533	0.709215
H140	H	1.033810	0.034722	0.589848
H141	H	0.974564	-0.062607	0.589861
H142	H	0.124663	0.161935	-0.131116
H143	H	0.630366	-0.391776	-0.000039
C144	C	0.828375	0.425517	0.154416
C145	C	0.787835	0.348566	0.202419
H146	H	0.793748	0.483531	0.126099
H147	H	0.860107	0.470628	0.186959
H148	H	0.858753	0.374578	0.117626
H149	H	0.757461	0.399505	0.239214
H150	H	0.756090	0.303452	0.169874
C151	C	0.562081	0.173554	0.215146
C152	C	0.510762	0.172180	0.151714
H153	H	0.535285	0.172856	0.264190
H154	H	0.598266	0.101173	0.212147
H155	H	0.587486	0.247580	0.212125
H156	H	0.485361	0.098149	0.154732
H157	H	0.474564	0.244569	0.154715
C158	C	0.961545	-0.087345	0.845582
C159	C	1.002086	-0.010381	0.797588
H160	H	0.996171	-0.145374	0.873888
H161	H	0.931171	-0.036424	0.882374
H162	H	0.929808	-0.132448	0.813027
H163	H	1.033819	0.034729	0.830144
H164	H	1.032473	-0.061308	0.760792
