data_functionalizedCrystal
_audit_creation_method	'MofGen! by Chris Wilmer'
_symmetry_space_group_name_H-M	'P1'
_symmetry_Int_Tables_number	1
_symmetry_cell_setting	triclinic
loop_
_symmetry_equiv_pos_as_xyz
  x,y,z
_cell_length_a	10.723023
_cell_length_b	9.198806
_cell_length_c	10.654550
_cell_angle_alpha	90.003030
_cell_angle_beta	84.476239
_cell_angle_gamma	90.003809
loop_
_atom_site_label
_atom_site_type_symbol
_atom_site_fract_x
_atom_site_fract_y
_atom_site_fract_z
O1	O	1.657215	0.120888	0.176142
O2	O	1.294065	0.120892	0.193004
O3	O	1.483989	0.120881	0.001832
O4	O	1.467290	0.120899	0.367313
O5	O	1.483974	-0.120904	0.001832
O6	O	1.294049	-0.120893	0.193003
O7	O	1.657199	-0.120897	0.176142
Cu8	Cu	1.475623	-0.142972	0.184572
Cu9	Cu	1.475641	0.142967	0.184573
O10	O	1.467275	-0.120886	0.367313
C11	C	1.247557	-0.000000	0.191777
C12	C	1.109002	0.000001	0.188106
C13	C	0.904026	-0.125246	0.182676
C14	C	1.047229	-0.125250	0.186469
N15	N	1.475619	-0.344086	0.184571
C16	C	1.555363	-0.416288	0.103950
C17	C	1.555383	-0.583700	0.103945
C18	C	1.703707	-0.000002	0.177369
C19	C	1.842262	0.000007	0.181039
C20	C	1.482755	-0.000011	-0.044966
C21	C	1.479087	-0.000009	-0.184408
N22	N	1.475654	0.344081	0.184564
C23	C	1.590911	-0.000009	-0.263911
C24	C	1.587457	0.000008	-0.394931
C25	C	1.360344	0.000021	-0.366933
C26	C	1.363800	0.000014	-0.235916
C27	C	1.468509	0.000009	0.414111
C28	C	1.472177	0.000016	0.553554
H29	H	1.055895	0.107240	0.186696
H30	H	0.895400	0.107237	0.182455
H31	H	1.266481	0.000037	-0.408887
H32	H	1.272733	0.000019	-0.171181
O33	O	1.385220	-0.426378	0.276012
H34	H	1.402228	-0.397228	0.374010
O35	O	0.833329	-0.267093	0.181013
H36	H	0.868332	-0.330629	0.096295
H37	H	1.623617	-0.354165	0.034925
H38	H	1.100346	-0.232483	0.187871
H39	H	1.407383	-0.593838	0.253596
O40	O	1.645823	-0.665928	0.012506
H41	H	1.631639	-0.784516	0.026845
H42	H	1.684786	-0.000025	-0.221979
O43	O	1.708066	-0.000011	-0.480686
H44	H	1.788808	-0.000042	-0.422853
