data_functionalizedCrystal
_audit_creation_method	'MofGen! by Chris Wilmer'
_symmetry_space_group_name_H-M	'P1'
_symmetry_Int_Tables_number	1
_symmetry_cell_setting	triclinic
loop_
_symmetry_equiv_pos_as_xyz
  x,y,z
_cell_length_a	17.077404
_cell_length_b	21.295417
_cell_length_c	21.295411
_cell_angle_alpha	89.978356
_cell_angle_beta	89.976695
_cell_angle_gamma	90.028477
loop_
_atom_site_label
_atom_site_type_symbol
_atom_site_fract_x
_atom_site_fract_y
_atom_site_fract_z
Zn1	Zn	1.200051	-0.250715	-0.355890
Zn2	Zn	1.700051	0.249285	0.144110
Zn3	Zn	1.199930	-0.355967	-0.250616
Zn4	Zn	1.699930	0.144033	0.249384
Zn5	Zn	1.068772	-0.250712	-0.250638
Zn6	Zn	1.568772	0.249288	0.249362
Zn7	Zn	1.068734	-0.355947	-0.355850
Zn8	Zn	1.568734	0.144053	0.144150
O9	O	1.134372	-0.303335	-0.303248
O10	O	1.634372	0.196665	0.196752
O11	O	1.309882	-0.264687	-0.341933
O12	O	1.809882	0.235313	0.158067
O13	O	1.182496	-0.342012	-0.162529
O14	O	1.682496	0.157988	0.337471
O15	O	1.086253	-0.162623	-0.264626
O16	O	1.586253	0.337377	0.235374
O17	O	1.309793	-0.342015	-0.264588
O18	O	1.809793	0.157985	0.235412
O19	O	1.182704	-0.162625	-0.341954
O20	O	1.682704	0.337375	0.158046
O21	O	1.086135	-0.264681	-0.162545
O22	O	1.586135	0.235319	0.337455
O23	O	0.958920	-0.264662	-0.264586
O24	O	1.458920	0.235338	0.235414
O25	O	1.086188	-0.341980	-0.443945
O26	O	1.586188	0.158020	0.056055
O27	O	0.958892	-0.341977	-0.341885
O28	O	1.458892	0.158023	0.158115
O29	O	1.182667	-0.264667	-0.443974
O30	O	1.682667	0.235333	0.056026
O31	O	1.182459	-0.444054	-0.264549
O32	O	1.682459	0.055946	0.235451
O33	O	1.086070	-0.444039	-0.341864
O34	O	1.586070	0.055961	0.158136
C35	C	0.930424	-0.303317	-0.303234
C36	C	1.430424	0.196683	0.196766
C37	C	0.843174	-0.303325	-0.303243
C38	C	1.343174	0.196675	0.196757
C39	C	0.802231	-0.263132	-0.343578
C40	C	1.302231	0.236868	0.156422
C41	C	0.720251	-0.263136	-0.343581
C42	C	1.220251	0.236864	0.156419
C43	C	0.679214	-0.303336	-0.303252
C44	C	1.179214	0.196664	0.196748
C45	C	0.720163	-0.343531	-0.262912
C46	C	1.220163	0.156469	0.237088
C47	C	0.802142	-0.343524	-0.262907
C48	C	1.302142	0.156476	0.237093
C49	C	0.549293	-0.343546	-0.262928
C50	C	1.049293	0.156454	0.237072
C51	C	0.467308	-0.343554	-0.262934
C52	C	0.967308	0.156446	0.237066
C53	C	0.467402	-0.263158	-0.343602
C54	C	0.967402	0.236842	0.156398
C55	C	0.549381	-0.263150	-0.343597
C56	C	1.049381	0.236850	0.156403
C57	C	0.590323	-0.303346	-0.303258
C58	C	1.090323	0.196654	0.196742
C59	C	1.134269	-0.466887	-0.303214
C60	C	1.634269	0.033113	0.196786
C61	C	1.134296	-0.536855	-0.303220
C62	C	1.634296	-0.036855	0.196780
C63	C	1.184531	-0.569708	-0.263003
C64	C	1.684531	-0.069708	0.236997
C65	C	1.184568	-0.635451	-0.263017
C66	C	1.684568	-0.135451	0.236983
C67	C	1.134356	-0.668337	-0.303241
C68	C	1.634356	-0.168337	0.196759
C69	C	1.084118	-0.635476	-0.343466
C70	C	1.584118	-0.135476	0.156534
C71	C	1.084088	-0.569735	-0.343455
C72	C	1.584088	-0.069735	0.156545
N73	N	1.065688	-0.771602	-0.308036
N74	N	1.565688	-0.271602	0.191964
N75	N	1.065718	-0.834053	-0.308042
N76	N	1.565718	-0.334053	0.191958
C77	C	1.134444	-0.866412	-0.303277
C78	C	1.634444	-0.366412	0.196723
N79	N	1.203139	-0.833960	-0.298494
N80	N	1.703139	-0.333960	0.201506
N81	N	1.203108	-0.771503	-0.298484
N82	N	1.703108	-0.271503	0.201516
C83	C	1.134383	-0.739623	-0.303258
C84	C	1.634383	-0.239623	0.196742
C85	C	1.184722	-0.970551	-0.263074
C86	C	1.684722	-0.470551	0.236926
C87	C	1.184761	-1.036295	-0.263093
C88	C	1.684761	-0.536295	0.236907
C89	C	1.084304	-1.036318	-0.343538
C90	C	1.584304	-0.536318	0.156462
C91	C	1.084273	-0.970576	-0.343523
C92	C	1.584273	-0.470576	0.156477
C93	C	1.134481	-0.937696	-0.303287
C94	C	1.634481	-0.437696	0.196713
C95	C	1.339116	-0.303353	-0.303263
C96	C	1.839116	0.196647	0.196737
C97	C	1.426366	-0.303361	-0.303269
C98	C	1.926366	0.196639	0.196731
C99	C	1.134437	-0.303322	-0.467439
C100	C	1.634437	0.196678	0.032561
C101	C	1.134464	-0.303316	-0.537407
C102	C	1.634464	0.196684	-0.037407
C103	C	1.134496	-0.139145	-0.303297
C104	C	1.634496	0.360855	0.196703
C105	C	1.134549	-0.069177	-0.303318
C106	C	1.634549	0.430823	0.196682
C107	C	1.184699	-0.263057	-0.570290
C108	C	1.684699	0.236943	-0.070290
C109	C	1.184698	-0.263030	-0.636033
C110	C	1.684698	0.236970	-0.136033
C111	C	1.134471	-0.303273	-0.668889
C112	C	1.634471	0.196727	-0.168889
C113	C	1.084227	-0.343534	-0.635998
C114	C	1.584227	0.156466	-0.135998
C115	C	1.084224	-0.343556	-0.570257
C116	C	1.584224	0.156444	-0.070257
N117	N	1.128414	-0.358340	-0.772105
N118	N	1.628414	0.141660	-0.272105
N119	N	1.128422	-0.358318	-0.834556
N120	N	1.628422	0.141682	-0.334556
C121	C	1.134476	-0.303209	-0.866964
C122	C	1.634476	0.196791	-0.366964
N123	N	1.140537	-0.248122	-0.834561
N124	N	1.640537	0.251878	-0.334561
N125	N	1.140533	-0.248145	-0.772104
N126	N	1.640533	0.251855	-0.272104
C127	C	1.134468	-0.303253	-0.740175
C128	C	1.634468	0.196747	-0.240175
C129	C	1.184711	-0.262917	-0.971133
C130	C	1.684711	0.237083	-0.471133
C131	C	1.184705	-0.262889	-1.036877
C132	C	1.684705	0.237111	-0.536877
C133	C	1.084238	-0.343399	-1.036841
C134	C	1.584238	0.156601	-0.536841
C135	C	1.084240	-0.343421	-0.971099
C136	C	1.584240	0.156579	-0.471099
C137	C	1.134481	-0.303182	-0.938249
C138	C	1.634481	0.196818	-0.438249
C139	C	1.134352	-0.303303	-0.139697
C140	C	1.634352	0.196697	0.360303
C141	C	1.134476	-0.303131	-0.069729
C142	C	1.634476	0.196869	0.430271
H143	H	0.835637	-0.230397	-0.376421
H144	H	1.335637	0.269603	0.123579
H145	H	1.043237	-0.662256	-0.376218
H146	H	1.543237	-0.162256	0.123782
H147	H	1.225608	-0.230290	-0.543547
H148	H	1.725608	0.269710	-0.043547
C149	C	1.239966	-0.218744	-0.672211
C150	C	1.739966	0.281256	-0.172211
N151	N	1.281597	-0.185390	-0.699459
N152	N	1.781597	0.314610	-0.199459
C153	C	0.422170	-0.387776	-0.218569
C154	C	0.922170	0.112224	0.281431
N155	N	0.388172	-0.421085	-0.185152
N156	N	0.888172	0.078915	0.314848
C157	C	1.028834	-0.533595	-0.387706
C158	C	1.528834	-0.033595	0.112294
N159	N	0.987218	-0.506373	-0.421040
N160	N	1.487218	-0.006373	0.078960
C161	C	1.029026	-0.934436	-0.387778
C162	C	1.529026	-0.434436	0.112222
N163	N	0.987421	-0.907215	-0.421120
N164	N	1.487421	-0.407215	0.078880
H165	H	1.043329	-0.376298	-0.662755
H166	H	1.543329	0.123702	-0.162755
C167	C	0.422363	-0.218944	-0.387977
C168	C	0.922363	0.281056	0.112023
N169	N	0.388436	-0.185646	-0.421402
N170	N	0.888436	0.314354	0.078598
H171	H	1.043339	-0.376208	-0.944325
H172	H	1.543339	0.123792	-0.444325
C173	C	1.028961	-0.387847	-0.534084
C174	C	1.528961	0.112153	-0.034084
N175	N	0.987338	-0.421209	-0.506838
N176	N	1.487338	0.078791	-0.006838
C177	C	1.028988	-0.387667	-1.072980
C178	C	1.528988	0.112333	-0.572980
N179	N	0.987371	-0.421011	-1.100203
N180	N	1.487371	0.078989	-0.600203
H181	H	0.686919	-0.230408	-0.376427
H182	H	1.186919	0.269592	0.123573
C183	C	0.594328	-0.387765	-0.218555
C184	C	1.094328	0.112235	0.281445
N185	N	0.628249	-0.421074	-0.185136
N186	N	1.128249	0.078926	0.314864
C187	C	0.847179	-0.387741	-0.218536
C188	C	1.347179	0.112259	0.281464
N189	N	0.881099	-0.421045	-0.185114
N190	N	1.381099	0.078955	0.314886
C191	C	1.239753	-0.533544	-0.218736
C192	C	1.739753	-0.033544	0.281264
N193	N	1.281344	-0.506305	-0.185391
N194	N	1.781344	-0.006305	0.314609
H195	H	0.582790	-0.230419	-0.376440
H196	H	1.082790	0.269581	0.123560
C197	C	1.239963	-0.934381	-0.218824
C198	C	1.739963	-0.434381	0.281176
N199	N	1.281574	-0.907140	-0.185497
N200	N	1.781574	-0.407140	0.314503
C201	C	1.239827	-0.671597	-0.218771
C202	C	1.739827	-0.171597	0.281229
N203	N	1.281447	-0.698820	-0.185442
N204	N	1.781447	-0.198820	0.314558
C205	C	1.240025	-1.072433	-0.218848
C206	C	1.740025	-0.572433	0.281152
N207	N	1.281649	-1.099654	-0.185521
N208	N	1.781649	-0.599654	0.314479
H209	H	0.686745	-0.376261	-0.230072
H210	H	1.186745	0.123739	0.269928
H211	H	1.043424	-1.063094	-0.376292
H212	H	1.543424	-0.563094	0.123708
H213	H	1.225616	-0.230148	-0.944385
H214	H	1.725616	0.269852	-0.444385
C215	C	1.239968	-0.218597	-1.073048
C216	C	1.739968	0.281403	-0.573048
N217	N	1.281594	-0.185237	-1.100293
N218	N	1.781594	0.314763	-0.600293
