data_functionalizedCrystal
_audit_creation_method	'MofGen! by Chris Wilmer'
_symmetry_space_group_name_H-M	'P1'
_symmetry_Int_Tables_number	1
_symmetry_cell_setting	triclinic
loop_
_symmetry_equiv_pos_as_xyz
  x,y,z
_cell_length_a	10.723024
_cell_length_b	11.026607
_cell_length_c	9.798715
_cell_angle_alpha	89.998891
_cell_angle_beta	89.996609
_cell_angle_gamma	96.526943
loop_
_atom_site_label
_atom_site_type_symbol
_atom_site_fract_x
_atom_site_fract_y
_atom_site_fract_z
O1	O	1.693992	0.170518	-0.113478
O2	O	2.193992	0.670518	0.386522
O3	O	1.334363	0.186840	-0.113482
O4	O	1.834363	0.686840	0.386518
O5	O	1.484372	0.001778	-0.113475
O6	O	1.984372	0.501778	0.386525
O7	O	1.543983	0.355580	-0.113485
O8	O	2.043983	0.855580	0.386515
O9	O	1.484357	0.001777	0.113507
O10	O	1.984357	0.501777	0.613507
O11	O	1.334348	0.186840	0.113500
O12	O	1.834348	0.686840	0.613500
O13	O	1.693978	0.170518	0.113504
O14	O	2.193978	0.670518	0.613504
Zn15	Zn	1.514161	0.178679	0.149540
Zn16	Zn	2.014161	0.678679	0.649540
Zn17	Zn	1.514180	0.178679	-0.149518
Zn18	Zn	2.014180	0.678679	0.350482
O19	O	1.543969	0.355580	0.113498
O20	O	2.043969	0.855580	0.613498
C21	C	1.287599	0.185652	0.000008
C22	C	1.787599	0.685652	0.500008
C23	C	1.148278	0.182098	0.000007
C24	C	1.648278	0.682098	0.500007
C25	C	1.473367	-0.043525	0.000014
C26	C	1.973367	0.456475	0.500014
C27	C	1.440584	-0.178512	0.000009
C28	C	1.940584	0.321488	0.500009
C29	C	1.095646	0.285649	0.000003
C30	C	1.595646	0.785649	0.500003
C31	C	0.951650	0.281979	0.000001
C32	C	1.451650	0.781979	0.500001
C33	C	1.531104	-0.251564	0.000008
C34	C	2.031104	0.248436	0.500008
C35	C	1.497223	-0.391080	0.000002
C36	C	1.997223	0.108920	0.500002
C37	C	1.740741	0.171706	0.000011
C38	C	2.240741	0.671706	0.500011
C39	C	1.880062	0.175259	0.000003
C40	C	2.380062	0.675259	0.500003
C41	C	1.554973	0.400883	0.000005
C42	C	2.054973	0.900883	0.500005
C43	C	1.587756	0.535869	0.000001
C44	C	2.087756	1.035869	0.500001
N45	N	1.514157	0.178677	0.353640
N46	N	2.014157	0.678677	0.853640
N47	N	1.514191	0.178671	-0.353618
N48	N	2.014191	0.678671	0.146382
C49	C	1.577067	0.100633	0.421420
C50	C	2.077067	0.600633	0.921420
C51	C	1.577087	0.100628	0.578583
C52	C	2.077087	0.600628	1.078583
H53	H	1.157190	0.377021	0.000009
H54	H	1.657190	0.877021	0.500009
H55	H	1.086734	0.090727	-0.000026
H56	H	1.586734	0.590727	0.499974
H57	H	1.633684	-0.210818	0.000017
H58	H	2.133684	0.289182	0.500017
C59	C	1.358635	-0.446100	-0.000009
C60	C	1.858635	0.053900	0.499991
H61	H	1.306237	-0.382175	-0.000018
H62	H	1.806237	0.117825	0.499982
H63	H	1.342072	-0.495036	0.079139
H64	H	1.842072	0.004964	0.579139
H65	H	1.342095	-0.495018	-0.079179
H66	H	1.842095	0.004982	0.420821
C67	C	1.441426	0.268947	0.567665
C68	C	1.941426	0.768947	1.067665
H69	H	1.401977	0.317915	0.630589
H70	H	1.901977	0.817915	1.130589
H71	H	1.379485	0.224861	0.511930
H72	H	1.879485	0.724861	1.011930
H73	H	1.497939	0.319779	0.511918
H74	H	1.997939	0.819779	1.011918
C75	C	0.941232	0.055490	0.000001
C76	C	1.441232	0.555490	0.500001
H77	H	0.877638	-0.011939	-0.000009
H78	H	1.377638	0.488061	0.499991
H79	H	0.991895	0.052252	0.079150
H80	H	1.491895	0.552252	0.579150
H81	H	0.991894	0.052262	-0.079167
H82	H	1.491894	0.552262	0.420833
H83	H	0.906351	0.370627	-0.000007
H84	H	1.406351	0.870627	0.499993
H85	H	1.630909	0.033813	0.363100
H86	H	2.130909	0.533813	0.863100
H87	H	1.690344	-0.423393	-0.000100
H88	H	2.190344	0.076607	0.499900
C89	C	1.302003	-0.233537	-0.000002
C90	C	1.802003	0.266463	0.499998
H91	H	1.249605	-0.169613	-0.000012
H92	H	1.749605	0.330387	0.499988
H93	H	1.285439	-0.282474	0.079145
H94	H	1.785439	0.217526	0.579145
H95	H	1.285463	-0.282455	-0.079172
H96	H	1.785463	0.217545	0.420828
H97	H	1.630953	0.033815	0.636870
H98	H	2.130953	0.533815	1.136870
H99	H	1.460305	0.245487	0.411962
H100	H	1.960305	0.745487	0.911962
