data_functionalizedCrystal
_audit_creation_method	'MofGen! by Chris Wilmer'
_symmetry_space_group_name_H-M	'P1'
_symmetry_Int_Tables_number	1
_symmetry_cell_setting	triclinic
loop_
_symmetry_equiv_pos_as_xyz
  x,y,z
_cell_length_a	10.654550
_cell_length_b	14.853567
_cell_length_c	9.130313
_cell_angle_alpha	89.999276
_cell_angle_beta	89.999724
_cell_angle_gamma	84.059930
loop_
_atom_site_label
_atom_site_type_symbol
_atom_site_fract_x
_atom_site_fract_y
_atom_site_fract_z
O1	O	1.666524	0.126626	-0.121676
O2	O	1.300920	0.138690	-0.121702
O3	O	1.493488	0.001481	-0.121693
O4	O	1.473956	0.263836	-0.121686
O5	O	1.493475	0.001477	0.121906
O6	O	1.300907	0.138686	0.121897
O7	O	1.666511	0.126622	0.121922
Cu8	Cu	1.483708	0.132654	0.144152
Cu9	Cu	1.483723	0.132658	-0.143932
O10	O	1.473943	0.263832	0.121913
C11	C	1.254125	0.137802	0.000094
C12	C	1.114709	0.135152	0.000084
C13	C	1.034384	0.215939	0.000090
C14	C	0.903389	0.213443	0.000115
C15	C	0.933057	0.049367	0.000122
C16	C	1.064049	0.051864	0.000107
C17	C	1.492596	-0.032115	0.000102
C18	C	1.489944	-0.132213	0.000089
C19	C	1.364344	-0.545419	0.000108
C20	C	1.593119	-0.565475	0.000124
C21	C	1.595613	-0.471428	0.000116
C22	C	1.482470	-0.414372	0.000106
C23	C	1.366834	-0.451363	0.000104
C24	C	1.711247	-0.434430	0.000132
C25	C	1.713745	-0.340378	0.000125
C26	C	1.600601	-0.283320	0.000105
C27	C	1.484961	-0.320316	0.000102
C28	C	1.371818	-0.263260	0.000092
C29	C	1.256176	-0.300254	0.000078
C30	C	1.253691	-0.394305	0.000084
C31	C	1.603087	-0.189269	0.000099
C32	C	1.374308	-0.169204	0.000088
C33	C	1.713306	0.127510	0.000123
C34	C	1.852722	0.130160	0.000124
C35	C	1.474835	0.297427	0.000115
C36	C	1.477487	0.397525	0.000118
N37	N	1.483706	0.132650	0.346775
N38	N	1.483735	0.132655	-0.346554
C39	C	1.569003	0.071919	0.423431
C40	C	1.569015	0.071919	0.576767
C41	C	1.398428	0.193389	0.576779
C42	C	1.398411	0.193383	0.423445
H43	H	1.129454	-0.013927	0.000106
H44	H	0.837993	0.279228	0.000124
H45	H	1.807907	-0.310265	0.000134
H46	H	1.164056	-0.253787	0.000080
H47	H	1.282172	-0.122754	0.000073
C48	C	1.716049	-0.627313	-0.000093
C49	C	1.785683	-0.610478	-0.125402
C50	C	1.898944	-0.667422	-0.125646
H51	H	1.698179	-0.688653	-0.000163
H52	H	1.763526	-0.616007	0.084810
H53	H	1.738216	-0.621791	-0.210284
H54	H	1.803586	-0.549149	-0.125359
H55	H	1.946421	-0.656115	-0.040742
H56	H	1.881062	-0.728759	-0.125712
H57	H	1.946210	-0.656001	-0.210659
C58	C	1.661769	0.005945	0.659729
C59	C	1.736478	-0.047225	0.559759
C60	C	1.821949	-0.108006	0.636128
H61	H	1.616690	-0.031973	0.719559
H62	H	1.714170	0.038707	0.719504
H63	H	1.684084	-0.079985	0.500010
H64	H	1.781584	-0.009332	0.499926
H65	H	1.874350	-0.075244	0.695903
H66	H	1.776860	-0.145918	0.695955
H67	H	1.872656	-0.144083	0.568311
H68	H	1.075626	0.283758	0.000082
H69	H	1.159541	-0.424435	0.000074
C70	C	1.238758	-0.585529	-0.000209
C71	C	1.170379	-0.556614	-0.125560
C72	C	1.054691	-0.593556	-0.125914
H73	H	1.192008	-0.566021	0.084635
H74	H	1.253422	-0.649718	-0.000290
H75	H	1.155712	-0.492439	-0.125466
H76	H	1.217091	-0.576121	-0.210425
H77	H	1.069355	-0.657745	-0.125995
H78	H	1.007952	-0.574045	-0.041064
H79	H	1.008287	-0.573949	-0.210969
H80	H	1.803361	-0.480891	0.000154
C81	C	1.728753	-0.149276	0.000033
C82	C	1.827304	-0.219374	0.000013
C83	C	1.943092	-0.182569	-0.000074
H84	H	1.734655	-0.113010	0.084952
H85	H	1.734552	-0.113035	-0.084956
H86	H	1.821508	-0.255600	0.084993
H87	H	1.821445	-0.255645	-0.084899
H88	H	1.948891	-0.146327	-0.085063
H89	H	1.948980	-0.146303	0.084846
H90	H	2.009973	-0.230123	-0.000101
H91	H	1.328946	0.242838	0.361028
C92	C	1.305631	0.259223	0.659952
C93	C	1.182203	0.243756	0.622708
C94	C	1.096685	0.304378	0.699311
H95	H	1.319190	0.319523	0.634878
H96	H	1.317775	0.250523	0.762265
H97	H	1.170064	0.252463	0.520418
H98	H	1.168604	0.183467	0.647786
H99	H	1.108829	0.295678	0.801624
H100	H	1.110255	0.364674	0.674231
H101	H	1.012930	0.293887	0.674062
H102	H	1.638454	0.022465	0.361009
H103	H	0.891793	-0.018444	0.000150
