data_functionalizedCrystal
_audit_creation_method	'MofGen! by Chris Wilmer'
_symmetry_space_group_name_H-M	'P1'
_symmetry_Int_Tables_number	1
_symmetry_cell_setting	triclinic
loop_
_symmetry_equiv_pos_as_xyz
  x,y,z
_cell_length_a	18.050591
_cell_length_b	18.050590
_cell_length_c	18.050582
_cell_angle_alpha	90.013008
_cell_angle_beta	90.020922
_cell_angle_gamma	90.004047
loop_
_atom_site_label
_atom_site_type_symbol
_atom_site_fract_x
_atom_site_fract_y
_atom_site_fract_z
Zn1	Zn	1.135397	-0.295786	0.420081
Zn2	Zn	1.468730	0.037548	0.753414
Zn3	Zn	1.802063	0.370881	1.086747
Zn4	Zn	1.135351	-0.419969	0.295912
Zn5	Zn	1.468684	-0.086636	0.629245
Zn6	Zn	1.802018	0.246698	0.962578
Zn7	Zn	1.011216	-0.295789	0.295892
Zn8	Zn	1.344549	0.037545	0.629225
Zn9	Zn	1.677883	0.370878	0.962559
Zn10	Zn	1.011208	-0.419930	0.420047
Zn11	Zn	1.344541	-0.086596	0.753380
Zn12	Zn	1.677874	0.246737	1.086714
O13	O	1.073293	-0.357868	0.357983
O14	O	1.406626	-0.024535	0.691316
O15	O	1.739960	0.308798	1.024649
O16	O	1.239315	-0.312274	0.403632
O17	O	1.572649	0.021059	0.736965
O18	O	1.905982	0.354393	1.070299
O19	O	1.118869	-0.403514	0.191984
O20	O	1.452202	-0.070180	0.525318
O21	O	1.785535	0.263153	0.858651
O22	O	1.027711	-0.191864	0.312372
O23	O	1.361045	0.141470	0.645705
O24	O	1.694378	0.474803	0.979038
O25	O	1.239282	-0.403511	0.312405
O26	O	1.572615	-0.070178	0.645739
O27	O	1.905948	0.263156	0.979072
O28	O	1.118946	-0.191861	0.403613
O29	O	1.452280	0.141472	0.736946
O30	O	1.785613	0.474805	1.070279
O31	O	1.027667	-0.312279	0.191970
O32	O	1.361000	0.021054	0.525303
O33	O	1.694334	0.354388	0.858637
O34	O	0.907290	-0.312241	0.312339
O35	O	1.240624	0.021092	0.645672
O36	O	1.573957	0.354426	0.979006
O37	O	1.027697	-0.403444	0.523976
O38	O	1.361031	-0.070111	0.857309
O39	O	1.694364	0.263223	1.190643
O40	O	0.907284	-0.403447	0.403555
O41	O	1.240617	-0.070114	0.736889
O42	O	1.573951	0.263220	1.070222
O43	O	1.118938	-0.312236	0.524001
O44	O	1.452272	0.021097	0.857334
O45	O	1.785605	0.354431	1.190668
O46	O	1.118861	-0.523888	0.312372
O47	O	1.452194	-0.190555	0.645706
O48	O	1.785527	0.142778	0.979039
O49	O	1.027653	-0.523859	0.403574
O50	O	1.360986	-0.190526	0.736908
O51	O	1.694320	0.142807	1.070241
C52	C	0.880341	-0.357841	0.357942
C53	C	1.213674	-0.024507	0.691275
C54	C	1.547007	0.308826	1.024608
C55	C	0.797795	-0.357847	0.357942
C56	C	1.131128	-0.024513	0.691275
C57	C	1.464462	0.308820	1.024608
C58	C	1.073271	-0.550820	0.357988
C59	C	1.406605	-0.217487	0.691321
C60	C	1.739938	0.115846	1.024655
C61	C	1.073330	-0.633366	0.358015
C62	C	1.406663	-0.300033	0.691348
C63	C	1.739996	0.033301	1.024682
C64	C	1.073322	-0.357835	0.551689
C65	C	1.406655	-0.024502	0.885022
C66	C	1.739989	0.308831	1.218355
C67	C	1.073334	-0.357821	0.634234
C68	C	1.406668	-0.024488	0.967568
C69	C	1.740001	0.308845	1.300901
C70	C	0.598326	-0.308191	0.308453
C71	C	0.931659	0.025142	0.641786
C72	C	1.264993	0.358475	0.975119
C73	C	0.548930	-0.375927	0.290188
C74	C	0.882264	-0.042594	0.623521
C75	C	1.215597	0.290739	0.956855
C76	C	0.646665	-0.357869	0.357975
C77	C	0.979998	-0.024536	0.691309
C78	C	1.313331	0.308797	1.024642
C79	C	0.548979	-0.290157	0.376238
C80	C	0.882312	0.043177	0.709572
C81	C	1.215645	0.376510	1.042905
C82	C	0.500679	-0.357885	0.358006
C83	C	0.834013	-0.024552	0.691340
C84	C	1.167346	0.308782	1.024673
C85	C	0.598356	-0.425641	0.339675
C86	C	0.931689	-0.092307	0.673009
C87	C	1.265023	0.241026	1.006342
C88	C	0.598409	-0.339825	0.425757
C89	C	0.931742	-0.006491	0.759090
C90	C	1.265076	0.326842	1.092424
C91	C	0.549035	-0.407607	0.407518
C92	C	0.882369	-0.074274	0.740851
C93	C	1.215702	0.259059	1.074185
C94	C	0.730763	-0.357859	0.357956
C95	C	1.064096	-0.024526	0.691289
C96	C	1.397430	0.308808	1.024622
C97	C	0.416583	-0.357903	0.358026
C98	C	0.749916	-0.024569	0.691360
C99	C	1.083250	0.308764	1.024693
C100	C	1.266998	-0.357897	0.358024
C101	C	1.600332	-0.024563	0.691358
C102	C	1.933665	0.308770	1.024691
C103	C	1.349544	-0.357909	0.358042
C104	C	1.682878	-0.024575	0.691376
C105	C	2.016211	0.308758	1.024709
C106	C	1.073335	-0.164163	0.357994
C107	C	1.406668	0.169171	0.691327
C108	C	1.740002	0.502504	1.024661
C109	C	1.073353	-0.081617	0.357999
C110	C	1.406686	0.251716	0.691332
C111	C	1.740019	0.585050	1.024665
C112	C	1.122964	0.117835	0.407631
C113	C	1.456297	0.451168	0.740964
C114	C	1.789630	0.784502	1.074298
C115	C	1.141118	0.167214	0.339883
C116	C	1.474451	0.500547	0.673216
C117	C	1.807785	0.833881	1.006549
C118	C	1.073345	0.069513	0.358003
C119	C	1.406679	0.402847	0.691336
C120	C	1.740012	0.736180	1.024669
C121	C	1.055218	0.167216	0.425753
C122	C	1.388552	0.500550	0.759087
C123	C	1.721885	0.833883	1.092420
C124	C	1.073340	0.215499	0.358012
C125	C	1.406673	0.548832	0.691346
C126	C	1.740006	0.882165	1.024679
C127	C	1.091535	0.117805	0.290218
C128	C	1.424868	0.451139	0.623552
C129	C	1.758201	0.784472	0.956885
C130	C	1.005604	0.117803	0.376135
C131	C	1.338937	0.451136	0.709468
C132	C	1.672270	0.784470	1.042801
C133	C	1.023732	0.167160	0.308339
C134	C	1.357066	0.500493	0.641673
C135	C	1.690399	0.833826	0.975006
C136	C	1.073351	-0.014585	0.357998
C137	C	1.406684	0.318749	0.691331
C138	C	1.740017	0.652082	1.024665
C139	C	1.073334	0.299595	0.358009
C140	C	1.406668	0.632928	0.691343
C141	C	1.740001	0.966262	1.024676
C142	C	1.073307	-0.357847	0.165031
C143	C	1.406640	-0.024514	0.498364
C144	C	1.739973	0.308819	0.831697
C145	C	1.073438	-0.357652	0.082485
C146	C	1.406771	-0.024319	0.415819
C147	C	1.740105	0.309014	0.749152
C148	C	1.023755	-0.407352	0.833672
C149	C	1.357089	-0.074019	1.167005
C150	C	1.690422	0.259314	1.500338
C151	C	1.091517	-0.425511	0.883073
C152	C	1.424850	-0.092177	1.216406
C153	C	1.758184	0.241156	1.549740
C154	C	1.073371	-0.357765	0.785365
C155	C	1.406704	-0.024431	1.118698
C156	C	1.740038	0.308902	1.452031
C157	C	1.005647	-0.339586	0.883045
C158	C	1.338980	-0.006252	1.216378
C159	C	1.672313	0.327081	1.549712
C160	C	1.073400	-0.357711	0.931350
C161	C	1.406734	-0.024378	1.264683
C162	C	1.740067	0.308955	1.598017
C163	C	1.141168	-0.375958	0.833679
C164	C	1.474501	-0.042625	1.167012
C165	C	1.807835	0.290708	1.500346
C166	C	1.055252	-0.290002	0.833647
C167	C	1.388585	0.043331	1.166980
C168	C	1.721919	0.376665	1.500313
C169	C	1.123060	-0.308134	0.883026
C170	C	1.456394	0.025199	1.216359
C171	C	1.789727	0.358532	1.549693
C172	C	1.073353	-0.357797	0.701266
C173	C	1.406686	-0.024464	1.034600
C174	C	1.740020	0.308869	1.367933
C175	C	1.073426	-0.357679	1.015447
C176	C	1.406759	-0.024345	1.348780
C177	C	1.740093	0.308988	1.682113
H178	H	0.619969	-0.266226	0.266528
H179	H	0.953302	0.067108	0.599861
H180	H	1.286636	0.400441	0.933194
Cl181	Cl	0.631989	-0.316212	0.514213
Cl182	Cl	0.965323	0.017121	0.847546
Cl183	Cl	1.298656	0.350454	1.180880
Cl184	Cl	0.631698	-0.514087	0.315743
Cl185	Cl	0.965031	-0.180754	0.649076
Cl186	Cl	1.298364	0.152579	0.982410
Cl187	Cl	0.958952	0.200403	0.243475
Cl188	Cl	1.292285	0.533736	0.576808
Cl189	Cl	1.625618	0.867070	0.910142
Cl190	Cl	1.031533	-0.201586	0.800099
Cl191	Cl	1.364866	0.131747	1.133432
Cl192	Cl	1.698200	0.465080	1.466765
Cl193	Cl	0.515374	-0.399510	0.201710
Cl194	Cl	0.848708	-0.066177	0.535043
Cl195	Cl	1.182041	0.267157	0.868377
H196	H	0.948334	0.096085	0.391491
H197	H	1.281668	0.429418	0.724824
H198	H	1.615001	0.762751	1.058158
Cl199	Cl	1.187797	0.084391	0.472340
Cl200	Cl	1.521131	0.417724	0.805673
Cl201	Cl	1.854464	0.751058	1.139007
Cl202	Cl	1.229560	0.200725	0.316202
Cl203	Cl	1.562893	0.534059	0.649536
Cl204	Cl	1.896227	0.867392	0.982869
H205	H	0.948361	-0.324232	0.904730
H206	H	1.281694	0.009101	1.238064
H207	H	1.615027	0.342434	1.571397
Cl208	Cl	0.515827	-0.472551	0.472199
Cl209	Cl	0.849160	-0.139217	0.805532
Cl210	Cl	1.182493	0.194116	1.138865
H211	H	0.527251	-0.232894	0.391646
H212	H	0.860584	0.100439	0.724980
H213	H	1.193917	0.433772	1.058313
Cl214	Cl	1.115207	-0.513949	0.916594
Cl215	Cl	1.448540	-0.180616	1.249927
Cl216	Cl	1.781873	0.152717	1.583261
H217	H	1.039890	0.188921	0.483045
H218	H	1.373223	0.522255	0.816378
H219	H	1.706556	0.855588	1.149712
Cl220	Cl	1.115295	0.084441	0.201735
Cl221	Cl	1.448628	0.417775	0.535068
Cl222	Cl	1.781962	0.751108	0.868402
H223	H	0.981836	-0.449342	0.812002
H224	H	1.315170	-0.116009	1.145335
H225	H	1.648503	0.217325	1.478668
H226	H	1.198471	-0.391377	0.812085
H227	H	1.531804	-0.058043	1.145418
H228	H	1.865137	0.275290	1.478752
Cl229	Cl	1.187932	-0.243356	0.916279
Cl230	Cl	1.521265	0.089978	1.249612
Cl231	Cl	1.854599	0.423311	1.582945
