data_functionalizedCrystal
_audit_creation_method	'MofGen! by Chris Wilmer'
_symmetry_space_group_name_H-M	'P1'
_symmetry_Int_Tables_number	1
_symmetry_cell_setting	triclinic
loop_
_symmetry_equiv_pos_as_xyz
  x,y,z
_cell_length_a	23.532407
_cell_length_b	23.532357
_cell_length_c	15.455313
_cell_angle_alpha	92.642146
_cell_angle_beta	87.338236
_cell_angle_gamma	82.838519
loop_
_atom_site_label
_atom_site_type_symbol
_atom_site_fract_x
_atom_site_fract_y
_atom_site_fract_z
O1	O	0.757756	0.066633	-0.072086
O2	O	0.591892	0.076636	-0.072101
O3	O	0.679840	-0.011298	-0.072075
O4	O	0.669808	0.154568	-0.072112
O5	O	0.674811	-0.006291	0.072185
O6	O	0.586863	0.081644	0.072160
O7	O	0.752727	0.071641	0.072175
Cu8	Cu	0.669336	0.077100	0.085339
Cu9	Cu	0.675283	0.071177	-0.085266
O10	O	0.664779	0.159576	0.072149
C11	C	0.568161	0.078885	0.000028
C12	C	0.504944	0.078119	0.000023
C13	C	0.677074	-0.030011	0.000058
C14	C	0.676319	-0.093229	0.000066
C15	C	0.238786	0.022924	0.000058
C16	C	0.298186	0.023635	0.000058
O17	O	0.334937	-0.020151	0.000098
N18	N	0.320803	0.075912	0.000041
C19	C	0.284017	0.127481	0.000032
O20	O	0.308709	0.172012	0.000018
C21	C	0.224618	0.126769	0.000039
C22	C	0.202004	0.074489	0.000048
C23	C	0.216171	-0.029353	0.000068
C24	C	0.156775	-0.030064	0.000067
C25	C	0.119994	0.021501	0.000056
C26	C	0.142608	0.073777	0.000046
C27	C	0.187832	0.178338	0.000037
C28	C	0.128429	0.177622	0.000044
C29	C	0.105816	0.125341	0.000053
C30	C	0.046430	0.124631	0.000034
N31	N	0.023813	0.072354	0.000052
C32	C	0.060595	0.020789	0.000062
C33	C	0.408759	0.128972	0.000020
C34	C	0.468158	0.129684	0.000007
C35	C	0.482323	0.025838	0.000034
C36	C	0.422923	0.025126	0.000041
C37	C	0.386142	0.076695	0.000037
C38	C	-0.064142	0.019299	0.000059
C39	C	-0.123544	0.018593	0.000054
C40	C	-0.137704	0.122439	0.000032
C41	C	-0.078307	0.123146	0.000032
C42	C	-0.041527	0.071572	0.000049
O43	O	0.009644	0.168394	-0.000002
O44	O	0.035894	-0.023734	0.000088
C45	C	0.674326	-0.487972	-0.078618
C46	C	0.673609	-0.547372	-0.078623
O47	O	0.675550	-0.580410	-0.145500
N48	N	0.670512	-0.574353	0.000013
C49	C	0.668126	-0.541931	0.078658
O50	O	0.665425	-0.570335	0.145543
C51	C	0.668839	-0.482532	0.078662
C52	C	0.671942	-0.455554	0.000022
C53	C	0.677428	-0.460994	-0.157252
C54	C	0.678146	-0.401599	-0.157247
C55	C	0.675762	-0.369181	-0.078607
C56	C	0.672660	-0.396159	0.000027
C57	C	0.666449	-0.450110	0.157307
C58	C	0.667162	-0.390707	0.157304
C59	C	0.670265	-0.363730	0.078664
C60	C	0.670994	-0.304346	0.078672
N61	N	0.674091	-0.277365	0.000036
C62	C	0.676475	-0.309782	-0.078603
C63	C	0.666628	-0.666673	0.078643
C64	C	0.665919	-0.726071	0.078640
C65	C	0.671401	-0.731508	-0.078641
C66	C	0.672114	-0.672109	-0.078637
C67	C	0.669725	-0.639691	0.000008
C68	C	0.677983	-0.185047	-0.078586
C69	C	0.678703	-0.125647	-0.078574
C70	C	0.673218	-0.120215	0.078707
C71	C	0.672501	-0.179611	0.078695
C72	C	0.674882	-0.212026	0.000042
O73	O	0.669052	-0.271271	0.145515
O74	O	0.679168	-0.281370	-0.145477
C75	C	0.776458	0.069392	0.000044
C76	C	0.839675	0.070158	0.000043
C77	C	0.667545	0.178288	0.000014
C78	C	0.668300	0.241506	0.000000
N79	N	0.665157	0.081265	0.205334
N80	N	0.679467	0.067008	-0.205260
C81	C	0.702533	0.043921	0.250739
C82	C	0.699378	0.047076	0.341546
C83	C	0.658848	0.087578	0.386946
C84	C	0.621468	0.124924	0.341534
C85	C	0.624621	0.121766	0.250729
C86	C	0.645239	0.101195	0.658523
C87	C	0.642090	0.104352	0.749335
C88	C	0.720000	0.026503	0.749340
C89	C	0.723151	0.023350	0.658533
C90	C	0.685769	0.060694	0.613129
N91	N	0.655624	0.090806	0.479765
N92	N	0.688992	0.057464	0.520312
H93	H	-0.141952	-0.023982	0.000059
Br94	Br	0.680663	-0.504979	-0.263992
H95	H	0.609085	0.137336	0.786296
H96	H	0.674639	-0.650148	-0.142673
Br97	Br	0.674633	-0.775514	-0.185367
H98	H	-0.167662	0.164422	0.000018
Br99	Br	0.126096	-0.101021	0.000067
Br100	Br	0.668303	-0.216226	0.185422
Br101	Br	0.594509	0.151875	0.596909
H102	H	0.206233	0.220910	0.000026
H103	H	-0.034202	-0.022697	0.000072
H104	H	0.588466	0.157900	0.378504
H105	H	0.671280	-0.093810	0.142733
H106	H	0.098484	0.219617	0.000045
Br107	Br	0.573890	0.172446	0.189108
H108	H	0.404516	-0.017445	0.000049
Br109	Br	0.661721	-0.762678	0.185371
Br110	Br	0.663389	-0.622684	0.185386
Br111	Br	0.266079	-0.099344	0.000086
Br112	Br	0.757544	-0.011045	0.189134
Br113	Br	0.498841	0.200639	-0.000027
Br114	Br	0.532252	-0.044144	0.000046
Br115	Br	0.750101	-0.003608	0.403170
H116	H	0.378815	0.170968	0.000011
Br117	Br	-0.047615	0.194098	0.000006
Br118	Br	0.682918	-0.089039	-0.185307
Br119	Br	0.681214	-0.229030	-0.185331
H120	H	0.756153	-0.009630	0.621570
H121	H	0.680671	-0.379639	-0.221284
Br122	Br	0.770729	-0.024177	0.810962
Br123	Br	0.662235	-0.486707	0.264040
Br124	Br	0.663918	-0.346715	0.264043
