data_functionalizedCrystal
_audit_creation_method	'MofGen! by Chris Wilmer'
_symmetry_space_group_name_H-M	'P1'
_symmetry_Int_Tables_number	1
_symmetry_cell_setting	triclinic
loop_
_symmetry_equiv_pos_as_xyz
  x,y,z
_cell_length_a	14.519709
_cell_length_b	10.654554
_cell_length_c	12.996460
_cell_angle_alpha	89.991135
_cell_angle_beta	90.001234
_cell_angle_gamma	95.915357
loop_
_atom_site_label
_atom_site_type_symbol
_atom_site_fract_x
_atom_site_fract_y
_atom_site_fract_z
O1	O	0.129571	-1.666593	0.085632
O2	O	0.141902	-1.300997	0.085621
O3	O	0.001549	-1.493488	0.085618
O4	O	0.269925	-1.474102	0.085636
O5	O	0.001557	-1.493463	-0.085516
O6	O	0.141910	-1.300972	-0.085513
O7	O	0.129579	-1.666568	-0.085501
Cu8	Cu	0.135746	-1.483768	-0.101133
Cu9	Cu	0.135736	-1.483797	0.101252
O10	O	0.269933	-1.474077	-0.085498
C11	C	0.140999	-1.254196	0.000052
C12	C	0.138284	-1.114779	0.000048
C13	C	0.138304	-1.114727	-0.186528
C14	C	0.137041	-1.049204	-0.279814
C15	C	0.134488	-0.918210	-0.279812
C16	C	0.133196	-0.852738	-0.186515
C17	C	0.134459	-0.918261	-0.093229
C18	C	0.137015	-1.049257	-0.093240
C19	C	0.134433	-0.918314	0.093344
C20	C	0.136992	-1.049306	0.093345
C21	C	0.133141	-0.852842	0.186642
C22	C	0.134411	-0.918364	0.279930
C23	C	0.136964	-1.049365	0.279924
C24	C	0.138255	-1.114830	0.186631
C25	C	-0.032811	-1.492572	0.000050
C26	C	-0.135207	-1.489865	0.000050
C27	C	-0.510155	-1.479898	0.000076
C28	C	-0.405832	-1.482666	0.000069
C29	C	-0.322684	-1.484881	0.000062
C30	C	-0.218355	-1.487649	0.000056
C31	C	0.304293	-1.474993	0.000071
C32	C	0.406689	-1.477700	0.000079
C33	C	0.130476	-0.713371	0.000064
C34	C	0.133170	-0.852791	0.000058
N35	N	0.135752	-1.483756	-0.243480
C36	C	0.135754	-1.483762	-0.336586
C37	C	0.135748	-1.483774	-0.453391
C38	C	0.135738	-1.483789	-0.546490
C39	C	0.135733	-1.483803	-0.663302
N40	N	0.135723	-1.483819	0.243600
H41	H	0.131056	-0.746181	0.186636
H42	H	0.140395	-1.221387	-0.186538
O43	O	0.130749	-0.725486	-0.186696
C44	C	0.129879	-0.681699	-0.289037
H45	H	0.160506	-0.752035	-0.341864
H46	H	0.172860	-0.586183	-0.294696
H47	H	0.055571	-0.671470	-0.313308
O48	O	0.133305	-0.854742	-0.370520
C49	C	0.134964	-0.940615	-0.452867
H50	H	0.165925	-1.028869	-0.425525
H51	H	0.178929	-0.894869	-0.518101
H52	H	0.061382	-0.967544	-0.481564
O53	O	0.138318	-1.113128	0.370479
C54	C	0.219538	-1.174825	0.376088
H55	H	0.246516	-1.189746	0.295098
H56	H	0.203398	-1.270109	0.415566
H57	H	0.274375	-1.114513	0.422137
H58	H	0.138090	-1.102526	-0.355774
O59	O	0.133191	-0.854565	0.370457
C60	C	0.130634	-0.724904	0.350454
H61	H	0.159438	-0.701859	0.270285
H62	H	0.174347	-0.667252	0.410038
H63	H	0.056050	-0.700753	0.354864
H64	H	0.140340	-1.221490	0.186618
