data_functionalizedCrystal
_audit_creation_method	'MofGen! by Chris Wilmer'
_symmetry_space_group_name_H-M	'P1'
_symmetry_Int_Tables_number	1
_symmetry_cell_setting	triclinic
loop_
_symmetry_equiv_pos_as_xyz
  x,y,z
_cell_length_a	12.594517
_cell_length_b	12.594517
_cell_length_c	12.594510
_cell_angle_alpha	89.978880
_cell_angle_beta	90.029176
_cell_angle_gamma	89.993566
loop_
_atom_site_label
_atom_site_type_symbol
_atom_site_fract_x
_atom_site_fract_y
_atom_site_fract_z
Zn1	Zn	0.423651	1.627334	-0.601898
Zn2	Zn	0.601681	1.627255	-0.423936
Zn3	Zn	0.423716	1.449339	-0.423927
Zn4	Zn	0.601588	1.449350	-0.601866
O5	O	0.512659	1.538320	-0.512907
O6	O	0.447279	1.776270	-0.578308
O7	O	0.578139	1.603617	-0.274989
O8	O	0.274762	1.472979	-0.447545
O9	O	0.578077	1.776211	-0.447560
O10	O	0.274714	1.603752	-0.578300
O11	O	0.447389	1.472902	-0.274982
O12	O	0.447299	1.300395	-0.447514
O13	O	0.577918	1.472998	-0.750816
O14	O	0.577981	1.300403	-0.578245
O15	O	0.447189	1.603762	-0.750840
O16	O	0.750614	1.603627	-0.447529
O17	O	0.750546	1.472921	-0.578253
C18	C	0.512638	1.261779	-0.512876
C19	C	0.512654	1.143473	-0.512887
C20	C	0.235038	1.538373	-0.512925
C21	C	0.116733	1.538396	-0.512933
C22	C	0.441479	1.074185	-0.441918
C23	C	0.538571	1.003390	-0.415747
C24	C	0.415610	1.003469	-0.539077
C25	C	0.609796	1.074236	-0.486665
C26	C	0.486770	1.074322	-0.610040
C27	C	0.583929	1.003559	-0.583906
C28	C	0.047454	1.609515	-0.584055
C29	C	-0.023292	1.635522	-0.486955
C30	C	-0.023321	1.512423	-0.610038
C31	C	0.047545	1.564453	-0.415782
C32	C	0.047523	1.441309	-0.538931
C33	C	-0.023191	1.467279	-0.441764
C34	C	0.789200	1.538295	-0.512912
C35	C	0.907505	1.538382	-0.512949
C36	C	0.512536	1.538390	-0.790528
C37	C	0.512484	1.538420	-0.908833
C38	C	0.512681	1.815940	-0.512939
C39	C	0.512690	1.934246	-0.512953
C40	C	0.441375	1.609564	-0.978100
C41	C	0.415322	1.512484	-1.048888
C42	C	0.538462	1.635557	-1.048844
C43	C	0.486380	1.441288	-0.978064
C44	C	0.609566	1.564427	-0.978013
C45	C	0.583550	1.467279	-1.048770
C46	C	0.512704	1.538311	-0.236366
C47	C	0.512457	1.538487	-0.118061
H48	H	0.381348	1.105196	-0.381828
C49	C	-0.176459	1.744900	-0.456643
C50	C	-0.065292	1.746345	-0.457259
H51	H	-0.202381	1.813318	-0.438306
H52	H	-0.201759	1.725978	-0.525127
H53	H	-0.200626	1.694434	-0.406062
H54	H	-0.041124	1.796806	-0.507846
H55	H	-0.039981	1.765280	-0.388765
H56	H	-0.054015	1.407130	-0.381556
C57	C	0.053852	1.303478	-0.670417
C58	C	0.089561	1.330514	-0.568653
H59	H	0.079813	1.235081	-0.688776
H60	H	-0.021556	1.302821	-0.671275
H61	H	0.079098	1.354189	-0.720220
H62	H	0.064308	1.279807	-0.518850
H63	H	0.164985	1.331163	-0.567788
C64	C	0.669079	0.998423	-0.276775
C65	C	0.568150	0.961225	-0.304911
H66	H	0.687327	0.972370	-0.208356
H67	H	0.719697	0.974290	-0.327170
H68	H	0.668653	1.073839	-0.275701
H69	H	0.568577	0.885809	-0.305993
H70	H	0.517518	0.985353	-0.254503
C71	C	0.719602	1.227188	-0.456855
C72	C	0.720639	1.116015	-0.456663
H73	H	0.788029	1.252979	-0.438325
H74	H	0.701094	1.252057	-0.525624
H75	H	0.668990	1.251924	-0.406732
H76	H	0.771246	1.091279	-0.506792
H77	H	0.739160	1.091136	-0.387884
C78	C	0.003574	1.612516	-0.236651
C79	C	0.089378	1.594236	-0.304898
H80	H	0.029404	1.630898	-0.168198
H81	H	-0.038471	1.668998	-0.263714
H82	H	-0.038392	1.550041	-0.231746
H83	H	0.131340	1.656714	-0.309809
H84	H	0.131440	1.537749	-0.277829
H85	H	0.078473	1.669710	-0.644119
H86	H	0.691655	1.586430	-0.946860
C87	C	0.493585	1.820738	-1.055134
C88	C	0.568150	1.746413	-1.090813
H89	H	0.511912	1.889177	-1.081038
H90	H	0.425108	1.801799	-1.080448
H91	H	0.493180	1.821656	-0.979716
H92	H	0.568549	1.745490	-1.166232
H93	H	0.636645	1.765357	-1.065505
C94	C	0.741390	1.438298	-1.151600
C95	C	0.664708	1.386011	-1.090418
H96	H	0.791490	1.388124	-1.177309
H97	H	0.707947	1.472615	-1.209867
H98	H	0.776751	1.489606	-1.109106
H99	H	0.629342	1.334709	-1.132914
H100	H	0.698155	1.351677	-1.032142
C101	C	-0.029644	1.557341	-0.795220
C102	C	-0.065319	1.482750	-0.720890
H103	H	-0.055560	1.539019	-0.863657
H104	H	-0.054949	1.625807	-0.776285
H105	H	0.045774	1.557769	-0.796139
H106	H	-0.140738	1.482328	-0.719966
H107	H	-0.040020	1.414267	-0.739831
C108	C	0.258527	1.663175	-0.971974
C109	C	0.360155	1.690640	-0.936193
H110	H	0.208386	1.713220	-0.946094
H111	H	0.257515	1.663314	-1.047383
H112	H	0.240752	1.594367	-0.946694
H113	H	0.377934	1.759444	-0.961480
H114	H	0.361170	1.690511	-0.860768
H115	H	0.464301	1.359145	-0.947103
H116	H	0.644204	0.972743	-0.643950
C117	C	0.305921	1.482267	-1.202105
C118	C	0.304478	1.482837	-1.090938
H119	H	0.237490	1.463970	-1.228063
H120	H	0.324888	1.550753	-1.227360
H121	H	0.356352	1.431675	-1.226282
H122	H	0.254052	1.533435	-1.066761
H123	H	0.285498	1.414341	-1.065673
C124	C	0.355419	1.080768	-0.748116
C125	C	0.457148	1.116427	-0.720880
H126	H	0.337123	1.106770	-0.816541
H127	H	0.354582	1.005361	-0.748792
H128	H	0.305560	1.106008	-0.697492
H129	H	0.507008	1.091180	-0.771500
H130	H	0.457993	1.191850	-0.720212
H131	H	0.333537	0.972329	-0.561164
