data_functionalizedCrystal
_audit_creation_method	'MofGen! by Chris Wilmer'
_symmetry_space_group_name_H-M	'P1'
_symmetry_Int_Tables_number	1
_symmetry_cell_setting	triclinic
loop_
_symmetry_equiv_pos_as_xyz
  x,y,z
_cell_length_a	15.297475
_cell_length_b	21.295417
_cell_length_c	21.295412
_cell_angle_alpha	89.969332
_cell_angle_beta	80.312011
_cell_angle_gamma	80.332118
loop_
_atom_site_label
_atom_site_type_symbol
_atom_site_fract_x
_atom_site_fract_y
_atom_site_fract_z
Zn1	Zn	1.379196	-0.417430	-0.522152
Zn2	Zn	1.879196	0.082570	-0.022152
Zn3	Zn	1.379059	-0.522682	-0.416860
Zn4	Zn	1.879059	-0.022682	0.083140
Zn5	Zn	1.228321	-0.399200	-0.398711
Zn6	Zn	1.728321	0.100800	0.101289
Zn7	Zn	1.228274	-0.504412	-0.503918
Zn8	Zn	1.728274	-0.004412	-0.003918
O9	O	1.303713	-0.460931	-0.460410
O10	O	1.803713	0.039069	0.039590
O11	O	1.505424	-0.446667	-0.523411
O12	O	2.005424	0.053333	-0.023411
O13	O	1.359025	-0.506318	-0.326359
O14	O	1.859025	-0.006318	0.173641
O15	O	1.248412	-0.313538	-0.415121
O16	O	1.748412	0.186462	0.084879
O17	O	1.505323	-0.523995	-0.446054
O18	O	2.005323	-0.023995	0.053946
O19	O	1.359259	-0.326932	-0.505812
O20	O	1.859259	0.173068	-0.005812
O21	O	1.248279	-0.415596	-0.313025
O22	O	1.748279	0.084404	0.186975
O23	O	1.102069	-0.397881	-0.397440
O24	O	1.602069	0.102119	0.102560
O25	O	1.248332	-0.492857	-0.594430
O26	O	1.748332	0.007143	-0.094430
O27	O	1.102035	-0.475180	-0.474735
O28	O	1.602035	0.024820	0.025265
O29	O	1.359214	-0.428952	-0.607827
O30	O	1.859214	0.071048	-0.107827
O31	O	1.358980	-0.608338	-0.428373
O32	O	1.858980	-0.108338	0.071627
O33	O	1.248199	-0.594916	-0.492334
O34	O	1.748199	-0.094916	0.007666
C35	C	1.069318	-0.432570	-0.432140
C36	C	1.569318	0.067430	0.067860
C37	C	0.969042	-0.420453	-0.420061
C38	C	1.469042	0.079547	0.079939
C39	C	1.303594	-0.624468	-0.460361
C40	C	1.803594	-0.124468	0.039639
C41	C	1.303626	-0.694440	-0.460371
C42	C	1.803626	-0.194440	0.039629
C43	C	0.686412	-0.547542	-0.546744
C44	C	1.186412	-0.047542	-0.046744
C45	C	0.780625	-0.558932	-0.558091
C46	C	1.280625	-0.058932	-0.058091
C47	C	0.827734	-0.524313	-0.523585
C48	C	1.327734	-0.024313	-0.023585
C49	C	0.780620	-0.478302	-0.477729
C50	C	1.280620	0.021698	0.022271
C51	C	0.686398	-0.466915	-0.466377
C52	C	1.186398	0.033085	0.033623
C53	C	0.827720	-0.443686	-0.443218
C54	C	1.327720	0.056314	0.056782
C55	C	0.780606	-0.397675	-0.397362
C56	C	1.280606	0.102325	0.102638
C57	C	0.686393	-0.386290	-0.386012
C58	C	1.186393	0.113710	0.113988
C59	C	0.639284	-0.420909	-0.420518
C60	C	1.139284	0.079091	0.079482
C61	C	0.921943	-0.455073	-0.454569
C62	C	1.421943	0.044927	0.045431
C63	C	0.921928	-0.374446	-0.374202
C64	C	1.421928	0.125554	0.125798
C65	C	0.827715	-0.363056	-0.362855
C66	C	1.327715	0.136944	0.137145
C67	C	1.361361	-0.734281	-0.427114
C68	C	1.861361	-0.234281	0.072886
C69	C	1.361403	-0.800029	-0.427134
C70	C	1.861403	-0.300029	0.072866
C71	C	1.303695	-0.825931	-0.460401
C72	C	1.803695	-0.325931	0.039599
C73	C	1.245956	-0.786081	-0.493665
C74	C	1.745956	-0.286081	0.006335
C75	C	1.245921	-0.720336	-0.493650
C76	C	1.745921	-0.220336	0.006350
N77	N	1.224775	-0.919652	-0.455681
N78	N	1.724775	-0.419652	0.044319
N79	N	1.224810	-0.982108	-0.455692
N80	N	1.724810	-0.482108	0.044308
C81	C	1.303796	-1.024018	-0.460449
C82	C	1.803796	-0.524018	0.039551
N83	N	1.382747	-1.001113	-0.465183
N84	N	1.882747	-0.501113	0.034817
N85	N	1.382711	-0.938652	-0.465169
N86	N	1.882711	-0.438652	0.034831
C87	C	1.303726	-0.897220	-0.460421
C88	C	1.803726	-0.397220	0.039579
C89	C	1.361581	-1.135151	-0.427212
C90	C	1.861581	-0.635151	0.072788
C91	C	1.361625	-1.200900	-0.427236
C92	C	1.861625	-0.700900	0.072764
C93	C	1.246169	-1.186950	-0.493763
C94	C	1.746169	-0.686950	0.006237
C95	C	1.246134	-1.121203	-0.493743
C96	C	1.746134	-0.621203	0.006257
C97	C	1.303838	-1.095307	-0.460464
C98	C	1.803838	-0.595307	0.039536
C99	C	1.539023	-0.489403	-0.488791
C100	C	2.039023	0.010597	0.011209
C101	C	1.639298	-0.501536	-0.500886
C102	C	2.139298	-0.001536	-0.000886
C103	C	1.303783	-0.460900	-0.624609
C104	C	1.803783	0.039100	-0.124609
C105	C	1.303813	-0.460887	-0.694581
C106	C	1.803813	0.039113	-0.194581
C107	C	1.303856	-0.296758	-0.460476
C108	C	1.803856	0.203242	0.039524
C109	C	1.303917	-0.226797	-0.460504
C110	C	1.803917	0.273203	0.039496
C111	C	1.246163	-0.413646	-0.720496
C112	C	1.746163	0.086354	-0.220496
C113	C	1.246160	-0.413634	-0.786238
C114	C	1.746160	0.086366	-0.286238
C115	C	1.303823	-0.460858	-0.826065
C116	C	1.803823	0.039142	-0.326065
C117	C	1.361477	-0.508108	-0.800142
C118	C	1.861477	-0.008108	-0.300142
C119	C	1.361473	-0.508123	-0.734400
C120	C	1.861473	-0.008123	-0.234400
N121	N	1.382796	-0.475217	-0.938822
N122	N	1.882796	0.024783	-0.438822
N123	N	1.382798	-0.475200	-1.001273
N124	N	1.882798	0.024800	-0.501273
C125	C	1.303840	-0.460819	-1.024141
C126	C	1.803840	0.039181	-0.524141
N127	N	1.224877	-0.446443	-0.982198
N128	N	1.724877	0.053557	-0.482198
N129	N	1.224876	-0.446458	-0.919741
N130	N	1.724876	0.053542	-0.419741
C131	C	1.303834	-0.460848	-0.897351
C132	C	1.803834	0.039152	-0.397351
C133	C	1.246181	-0.413561	-1.121341
C134	C	1.746181	0.086439	-0.621341
C135	C	1.246176	-0.413553	-1.187085
C136	C	1.746176	0.086447	-0.687085
C137	C	1.361502	-0.508026	-1.200988
C138	C	1.861502	-0.008026	-0.700988
C139	C	1.361499	-0.508036	-1.135245
C140	C	1.861499	-0.008036	-0.635245
C141	C	1.303839	-0.460800	-1.095426
C142	C	1.803839	0.039200	-0.595426
C143	C	1.303694	-0.460922	-0.296856
C144	C	1.803694	0.039078	0.203144
C145	C	1.303839	-0.460779	-0.226906
C146	C	1.803839	0.039221	0.273094
H147	H	0.960294	-0.492535	-0.491906
H148	H	1.460294	0.007465	0.008094
H149	H	1.408350	-0.713199	-0.400018
H150	H	1.908350	-0.213199	0.099982
H151	H	0.904447	-0.533589	-0.532827
H152	H	1.404447	-0.033589	-0.032827
H153	H	0.789341	-0.325594	-0.325518
H154	H	1.289341	0.174406	0.174482
Cl155	Cl	0.627166	-0.328453	-0.328359
Cl156	Cl	1.127166	0.171547	0.171641
H157	H	1.199209	-0.375185	-0.688079
H158	H	1.699209	0.124815	-0.188079
H159	H	1.408421	-0.832474	-0.400052
H160	H	1.908421	-0.332474	0.099948
H161	H	0.818979	-0.596395	-0.595426
H162	H	1.318979	-0.096395	-0.095426
Cl163	Cl	1.173668	-0.354173	-1.219661
Cl164	Cl	1.673668	0.145827	-0.719661
Cl165	Cl	1.434122	-1.102593	-0.385376
Cl166	Cl	1.934122	-0.602593	0.114624
H167	H	1.199230	-0.375100	-1.088919
H168	H	1.699230	0.124900	-0.588919
Cl169	Cl	1.433984	-0.567425	-1.102664
Cl170	Cl	1.933984	-0.067425	-0.602664
Cl171	Cl	1.433988	-0.567398	-1.251048
Cl172	Cl	1.933988	-0.067398	-0.751048
H173	H	1.408645	-1.233339	-0.400156
H174	H	1.908645	-0.733339	0.099844
Cl175	Cl	0.627186	-0.591071	-0.590104
Cl176	Cl	1.127186	-0.091071	-0.090104
Cl177	Cl	0.520839	-0.406588	-0.406259
Cl178	Cl	1.020839	0.093412	0.093741
Cl179	Cl	0.981144	-0.330926	-0.330817
Cl180	Cl	1.481144	0.169074	0.169183
Cl181	Cl	1.433964	-0.567479	-0.850207
Cl182	Cl	1.933964	-0.067479	-0.350207
Cl183	Cl	1.173412	-0.818644	-0.535490
Cl184	Cl	1.673412	-0.318644	-0.035490
H185	H	1.198906	-0.687896	-0.520732
H186	H	1.698906	-0.187896	-0.020732
Cl187	Cl	1.173699	-0.354228	-0.818828
Cl188	Cl	1.673699	0.145772	-0.318828
Cl189	Cl	1.173627	-1.219507	-0.535591
Cl190	Cl	1.673627	-0.719507	-0.035591
H191	H	1.199117	-1.088762	-0.520821
H192	H	1.699117	-0.588762	-0.020821
Cl193	Cl	1.433955	-0.567516	-0.701819
Cl194	Cl	1.933955	-0.067516	-0.201819
