data_functionalizedCrystal
_audit_creation_method	'MofGen! by Chris Wilmer'
_symmetry_space_group_name_H-M	'P1'
_symmetry_Int_Tables_number	1
_symmetry_cell_setting	triclinic
loop_
_symmetry_equiv_pos_as_xyz
  x,y,z
_cell_length_a	14.519709
_cell_length_b	14.519731
_cell_length_c	9.730223
_cell_angle_alpha	89.994614
_cell_angle_beta	90.002325
_cell_angle_gamma	83.684499
loop_
_atom_site_label
_atom_site_type_symbol
_atom_site_fract_x
_atom_site_fract_y
_atom_site_fract_z
O1	O	1.223875	0.120890	-0.114114
O2	O	1.723875	0.620890	0.385886
O3	O	0.955399	0.135126	-0.114156
O4	O	1.455399	0.635126	0.385844
O5	O	1.096745	-0.006229	-0.114122
O6	O	1.596745	0.493771	0.385878
O7	O	1.082529	0.262245	-0.114149
O8	O	1.582529	0.762245	0.385851
O9	O	1.096736	-0.006233	0.114458
O10	O	1.596736	0.493767	0.614458
O11	O	0.955390	0.135122	0.114423
O12	O	1.455390	0.635122	0.614423
O13	O	1.223866	0.120886	0.114466
O14	O	1.723866	0.620886	0.614466
Zn15	Zn	1.089627	0.128003	0.150737
Zn16	Zn	1.589627	0.628003	0.650737
Zn17	Zn	1.089639	0.128009	-0.150427
Zn18	Zn	1.589639	0.628009	0.349573
O19	O	1.082520	0.262241	0.114431
O20	O	1.582520	0.762241	0.614431
C21	C	0.921035	0.134461	0.000128
C22	C	1.421035	0.634461	0.500128
C23	C	0.818654	0.132473	0.000112
C24	C	1.318654	0.632473	0.500112
C25	C	1.096075	-0.040591	0.000169
C26	C	1.596075	0.459409	0.500169
C27	C	1.094079	-0.142971	0.000169
C28	C	1.594079	0.357029	0.500169
C29	C	0.443757	0.125153	0.000176
C30	C	0.943757	0.625153	0.500176
C31	C	0.548065	0.127186	0.000158
C32	C	1.048065	0.627186	0.500158
C33	C	0.631202	0.128813	0.000143
C34	C	1.131202	0.628813	0.500143
C35	C	0.735517	0.130846	0.000127
C36	C	1.235517	0.630846	0.500127
C37	C	1.092457	-0.226115	0.000166
C38	C	1.592457	0.273885	0.500166
C39	C	1.090430	-0.330424	0.000155
C40	C	1.590430	0.169576	0.500155
C41	C	1.088822	-0.413563	0.000146
C42	C	1.588822	0.086437	0.500146
C43	C	1.086795	-0.517878	0.000137
C44	C	1.586795	-0.017878	0.500137
C45	C	1.258230	0.121551	0.000178
C46	C	1.758230	0.621551	0.500178
C47	C	1.360612	0.123539	0.000185
C48	C	1.860612	0.623539	0.500185
C49	C	1.083191	0.296603	0.000138
C50	C	1.583191	0.796603	0.500138
C51	C	1.085187	0.398983	0.000128
C52	C	1.585187	0.898983	0.500128
N53	N	1.089625	0.128000	0.356273
N54	N	1.589625	0.628000	0.856273
N55	N	1.089647	0.128005	-0.355964
N56	N	1.589647	0.628005	0.144036
C57	C	1.152234	0.065434	0.428214
C58	C	1.652234	0.565434	0.928214
C59	C	1.152244	0.065434	0.572097
C60	C	1.652244	0.565434	1.072097
C61	C	1.027032	0.190574	0.572085
C62	C	1.527032	0.690574	1.072085
C63	C	1.027019	0.190569	0.428205
C64	C	1.527019	0.690569	0.928205
H65	H	1.203211	0.014485	0.369651
H66	H	1.703211	0.514485	0.869651
H67	H	1.203225	0.014486	0.630668
H68	H	1.703225	0.514486	1.130668
C69	C	0.958182	0.259442	0.349064
C70	C	1.458182	0.759442	0.849064
N71	N	0.906351	0.311329	0.289456
N72	N	1.406351	0.811329	0.789456
C73	C	0.958166	0.259395	0.651223
C74	C	1.458166	0.759395	1.151223
N75	N	0.906295	0.311231	0.710829
N76	N	1.406295	0.811231	1.210829
