data_functionalizedCrystal
_audit_creation_method	'MofGen! by Chris Wilmer'
_symmetry_space_group_name_H-M	'P1'
_symmetry_Int_Tables_number	1
_symmetry_cell_setting	triclinic
loop_
_symmetry_equiv_pos_as_xyz
  x,y,z
_cell_length_a	15.297475
_cell_length_b	18.050589
_cell_length_c	15.296720
_cell_angle_alpha	80.357141
_cell_angle_beta	88.382886
_cell_angle_gamma	80.322809
loop_
_atom_site_label
_atom_site_type_symbol
_atom_site_fract_x
_atom_site_fract_y
_atom_site_fract_z
Zn1	Zn	1.253427	-0.577986	0.726569
Zn2	Zn	1.753427	-0.077986	1.226569
Zn3	Zn	1.278695	-0.684923	0.580080
Zn4	Zn	1.778695	-0.184923	1.080080
Zn5	Zn	1.132303	-0.536265	0.554812
Zn6	Zn	1.632303	-0.036265	1.054812
Zn7	Zn	1.106921	-0.677623	0.701208
Zn8	Zn	1.606921	-0.177623	1.201208
O9	O	1.192836	-0.619199	0.640667
O10	O	1.692836	-0.119199	1.140667
O11	O	1.379358	-0.612686	0.728325
O12	O	1.879358	-0.112686	1.228325
O13	O	1.280473	-0.650798	0.454154
O14	O	1.780473	-0.150798	0.954154
O15	O	1.148419	-0.437887	0.577635
O16	O	1.648419	0.062113	1.077635
O17	O	1.397922	-0.691253	0.620700
O18	O	1.897922	-0.191253	1.120700
O19	O	1.237408	-0.468539	0.703825
O20	O	1.737408	0.031461	1.203825
O21	O	1.172919	-0.541580	0.435590
O22	O	1.672919	-0.041580	0.935590
O23	O	1.006357	-0.534501	0.553044
O24	O	1.506357	-0.034501	1.053044
O25	O	1.105158	-0.678811	0.827147
O26	O	1.605158	-0.178811	1.327147
O27	O	0.987709	-0.638356	0.660601
O28	O	1.487709	-0.138356	1.160601
O29	O	1.212796	-0.605608	0.845779
O30	O	1.712796	-0.105608	1.345779
O31	O	1.255860	-0.787867	0.596108
O32	O	1.755860	-0.287867	1.096108
O33	O	1.129659	-0.782503	0.685101
O34	O	1.629659	-0.282503	1.185101
C35	C	0.965249	-0.581110	0.601329
C36	C	1.465249	-0.081110	1.101329
C37	C	0.867883	-0.564836	0.584520
C38	C	1.367883	-0.064836	1.084520
C39	C	0.554745	-0.735520	0.760802
C40	C	1.054745	-0.235520	1.260802
C41	C	0.646226	-0.750816	0.776592
C42	C	1.146226	-0.250816	1.276592
C43	C	0.701644	-0.704322	0.728576
C44	C	1.201644	-0.204322	1.228576
C45	C	0.665574	-0.642530	0.664766
C46	C	1.165574	-0.142530	1.164766
C47	C	0.574085	-0.627236	0.648970
C48	C	1.074085	-0.127236	1.148970
C49	C	0.720984	-0.596038	0.616744
C50	C	1.220984	-0.096038	1.116744
C51	C	0.684913	-0.534246	0.552934
C52	C	1.184913	-0.034246	1.052934
C53	C	0.593433	-0.518955	0.537141
C54	C	1.093433	-0.018955	1.037141
C55	C	0.538014	-0.565449	0.585157
C56	C	1.038014	-0.065449	1.085157
C57	C	0.812473	-0.611332	0.632540
C58	C	1.312473	-0.111332	1.132540
C59	C	0.831813	-0.503048	0.520708
C60	C	1.331813	-0.003048	1.020708
C61	C	0.740332	-0.487752	0.504918
C62	C	1.240332	0.012248	1.004918
C63	C	1.192767	-0.812134	0.640618
C64	C	1.692767	-0.312134	1.140618
C65	C	1.192813	-0.894690	0.640640
C66	C	1.692813	-0.394690	1.140640
C67	C	1.261577	-1.146442	0.592369
C68	C	1.761577	-0.646442	1.092369
C69	C	1.185379	-1.081209	0.557050
C70	C	1.685379	-0.581209	1.057050
C71	C	1.192911	-1.191837	0.640726
C72	C	1.692911	-0.691837	1.140726
C73	C	1.269063	-1.109969	0.675960
C74	C	1.769063	-0.609969	1.175960
C75	C	1.192868	-1.045839	0.640683
C76	C	1.692868	-0.545839	1.140683
C77	C	1.116679	-1.127679	0.605359
C78	C	1.616679	-0.627679	1.105359
C79	C	1.200410	-1.156457	0.724316
C80	C	1.700410	-0.656457	1.224316
C81	C	1.124152	-1.091241	0.689018
C82	C	1.624152	-0.591241	1.189018
C83	C	1.192938	-1.275942	0.640750
C84	C	1.692938	-0.775942	1.140750
C85	C	1.192832	-0.961734	0.640658
C86	C	1.692832	-0.461734	1.140658
C87	C	1.421312	-0.657438	0.680160
C88	C	1.921312	-0.157438	1.180160
C89	C	1.518674	-0.673733	0.696989
C90	C	2.018674	-0.173733	1.196989
C91	C	1.153327	-0.646049	0.869133
C92	C	1.653327	-0.146049	1.369133
C93	C	1.136490	-0.657491	0.966492
C94	C	1.636490	-0.157491	1.466492
C95	C	1.192926	-0.425517	0.640740
C96	C	1.692926	0.074483	1.140740
C97	C	1.192964	-0.342981	0.640771
C98	C	1.692964	0.157019	1.140771
C99	C	1.232243	-0.592409	0.413099
C100	C	1.732243	-0.092409	0.913099
C101	C	1.249249	-0.580786	0.315770
C102	C	1.749249	-0.080786	0.815770
C103	C	1.313203	-0.537299	1.279735
C104	C	1.813203	-0.037299	1.779735
C105	C	1.329027	-0.526551	1.188263
C106	C	1.829027	-0.026551	1.688263
C107	C	1.280894	-0.559284	1.132816
C108	C	1.780894	-0.059284	1.632816
C109	C	1.216934	-0.602769	1.168850
C110	C	1.716934	-0.102769	1.668850
C111	C	1.201113	-0.613522	1.260332
C112	C	1.701113	-0.113522	1.760332
C113	C	1.168805	-0.635508	1.113412
C114	C	1.668805	-0.135508	1.613412
C115	C	1.104845	-0.678992	1.149446
C116	C	1.604845	-0.178992	1.649446
C117	C	1.089026	-0.689744	1.240920
C118	C	1.589026	-0.189744	1.740920
C119	C	1.137159	-0.657010	1.296367
C120	C	1.637159	-0.157010	1.796367
C121	C	1.184626	-0.624754	1.021930
C122	C	1.684626	-0.124754	1.521930
C123	C	1.072536	-0.700978	1.002527
C124	C	1.572536	-0.200978	1.502527
C125	C	1.056712	-0.711726	1.093999
C126	C	1.556712	-0.211726	1.593999
H127	H	0.463522	-0.552997	0.572307
H128	H	0.963522	-0.052997	1.072307
H129	H	0.564069	-0.468646	0.485174
H130	H	1.064069	0.031354	0.985174
H131	H	1.236702	-0.589349	0.992601
H132	H	1.736702	-0.089349	1.492601
H133	H	1.293782	-0.550531	1.058335
H134	H	1.793782	-0.050531	1.558335
Br135	Br	0.479536	-0.798628	0.825936
Br136	Br	0.979536	-0.298628	1.325936
Br137	Br	1.002242	-0.748777	1.289825
Br138	Br	1.502242	-0.248777	1.789825
Br139	Br	1.378529	-0.492891	1.354988
Br140	Br	1.878529	0.007109	1.854988
H141	H	1.179011	-1.048580	0.486340
H142	H	1.679011	-0.548580	0.986340
H143	H	1.124279	-0.665759	1.370852
H144	H	1.624279	-0.165759	1.870852
H145	H	1.004635	-0.747131	1.123351
H146	H	1.504635	-0.247131	1.623351
H147	H	1.033344	-0.727635	0.957382
H148	H	1.533344	-0.227635	1.457382
H149	H	0.675588	-0.801129	0.828544
H150	H	1.175588	-0.301129	1.328544
Br151	Br	1.358302	-1.186654	0.524166
Br152	Br	1.858302	-0.686654	1.024166
Br153	Br	0.691367	-0.403892	0.418325
Br154	Br	1.191367	0.096108	0.918325
H155	H	1.052254	-1.135882	0.575462
H156	H	1.552254	-0.635882	1.075462
H157	H	0.841833	-0.661643	0.684495
H158	H	1.341833	-0.161643	1.184495
H159	H	1.066008	-1.067230	0.729884
H160	H	1.566008	-0.567230	1.229884
H161	H	1.333481	-1.101661	0.705777
H162	H	1.833481	-0.601661	1.205777
H163	H	0.876935	-0.465190	0.481608
H164	H	1.376935	0.034810	0.981608
H165	H	1.206805	-1.189103	0.795011
H166	H	1.706805	-0.689103	1.295011
H167	H	0.776132	-0.716780	0.741436
H168	H	1.276132	-0.216780	1.241436
Br169	Br	1.415828	-0.467541	1.139365
Br170	Br	1.915828	0.032459	1.639365
