data_functionalizedCrystal
_audit_creation_method	'MofGen! by Chris Wilmer'
_symmetry_space_group_name_H-M	'P1'
_symmetry_Int_Tables_number	1
_symmetry_cell_setting	triclinic
loop_
_symmetry_equiv_pos_as_xyz
  x,y,z
_cell_length_a	19.077105
_cell_length_b	15.297327
_cell_length_c	19.076919
_cell_angle_alpha	101.510342
_cell_angle_beta	90.076224
_cell_angle_gamma	97.818066
loop_
_atom_site_label
_atom_site_type_symbol
_atom_site_fract_x
_atom_site_fract_y
_atom_site_fract_z
Zn1	Zn	0.997096	-0.436205	-0.496821
Zn2	Zn	1.497096	0.063795	0.003179
Zn3	Zn	0.981405	-0.581179	-0.398060
Zn4	Zn	1.481405	-0.081179	0.101940
Zn5	Zn	0.886008	-0.424127	-0.373052
Zn6	Zn	1.386008	0.075873	0.126948
Zn7	Zn	0.859303	-0.580636	-0.510742
Zn8	Zn	1.359303	-0.080636	-0.010742
O9	O	0.930953	-0.505537	-0.444669
O10	O	1.430953	-0.005537	0.055331
O11	O	1.092606	-0.460719	-0.488360
O12	O	1.592606	0.039281	0.011640
O13	O	0.973359	-0.555519	-0.295787
O14	O	1.473359	-0.055519	0.204213
O15	O	0.918487	-0.299557	-0.373179
O16	O	1.418487	0.200443	0.126821
O17	O	1.081077	-0.567231	-0.415800
O18	O	1.581077	-0.067231	0.084200
O19	O	1.000103	-0.308431	-0.464111
O20	O	1.500103	0.191569	0.035889
O21	O	0.903272	-0.440133	-0.277414
O22	O	1.403272	0.059867	0.222586
O23	O	0.784875	-0.439605	-0.386678
O24	O	1.284875	0.060395	0.113322
O25	O	0.872972	-0.566304	-0.607851
O26	O	1.372972	-0.066304	-0.107851
O27	O	0.765254	-0.554592	-0.487838
O28	O	1.265254	-0.054592	0.012162
O29	O	0.974208	-0.460192	-0.597623
O30	O	1.474208	0.039808	-0.097623
O31	O	0.947464	-0.707279	-0.429299
O32	O	1.447464	-0.207279	0.070701
O33	O	0.857757	-0.706880	-0.512086
O34	O	1.357757	-0.206880	-0.012086
C35	C	0.749760	-0.495730	-0.436055
C36	C	1.249760	0.004270	0.063945
C37	C	0.672241	-0.491557	-0.432390
C38	C	1.172241	0.008443	0.067610
C39	C	0.625617	-0.549547	-0.483277
C40	C	1.125617	-0.049547	0.016723
C41	C	0.552781	-0.545614	-0.479834
C42	C	1.052781	-0.045614	0.020166
C43	C	0.526571	-0.483695	-0.425502
C44	C	1.026571	0.016305	0.074498
C45	C	0.573201	-0.425698	-0.374613
C46	C	1.073201	0.074302	0.125387
C47	C	0.646036	-0.429627	-0.378058
C48	C	1.146036	0.070373	0.121942
C49	C	0.309833	-0.465511	-0.409558
C50	C	0.809833	0.034489	0.090442
C51	C	0.236992	-0.461589	-0.406115
C52	C	0.736992	0.038411	0.093885
C53	C	0.216578	-0.581504	-0.511338
C54	C	0.716578	-0.081504	-0.011338
C55	C	0.289415	-0.585431	-0.514776
C56	C	0.789415	-0.085431	-0.014776
C57	C	0.336039	-0.527431	-0.463889
C58	C	0.836039	-0.027431	0.036111
N59	N	0.452121	-0.479676	-0.421981
N60	N	0.952121	0.020324	0.078019
N61	N	0.410488	-0.531447	-0.467414
N62	N	0.910488	-0.031447	0.032586
C63	C	0.898028	-0.739796	-0.474933
C64	C	1.398028	-0.239796	0.025067
C65	C	0.884005	-0.840018	-0.487907
C66	C	1.384005	-0.340018	0.012093
C67	C	1.031451	-1.123247	-0.352197
C68	C	1.531451	-0.623247	0.147803
C69	C	1.044626	-1.029084	-0.340004
C70	C	1.544626	-0.529084	0.159996
C71	C	1.004472	-0.981812	-0.376979
C72	C	1.504472	-0.481812	0.123021
C73	C	0.951141	-1.028714	-0.426149
C74	C	1.451141	-0.528714	0.073851
C75	C	0.937961	-1.122886	-0.438339
C76	C	1.437961	-0.622886	0.061661
C77	C	0.910982	-0.981452	-0.463121
C78	C	1.410982	-0.481452	0.036879
C79	C	0.857651	-1.028353	-0.512291
C80	C	1.357651	-0.528353	-0.012291
C81	C	0.844474	-1.122517	-0.524480
C82	C	1.344474	-0.622517	-0.024480
C83	C	0.884628	-1.169788	-0.487505
C84	C	1.384628	-0.669788	0.012495
C85	C	0.924162	-0.887280	-0.450930
C86	C	1.424162	-0.387280	0.049070
C87	C	0.830672	-0.886919	-0.537073
C88	C	1.330672	-0.386919	-0.037073
C89	C	0.817497	-0.981082	-0.549266
C90	C	1.317497	-0.481082	-0.049266
C91	C	1.112853	-0.515383	-0.453317
C92	C	1.612853	-0.015383	0.046683
C93	C	1.190368	-0.519579	-0.457002
C94	C	1.690368	-0.019579	0.042998
C95	C	0.922362	-0.514535	-0.629112
C96	C	1.422362	-0.014535	-0.129112
C97	C	0.918700	-0.518369	-0.707711
C98	C	1.418700	-0.018369	-0.207711
C99	C	0.964025	-0.270365	-0.414303
C100	C	1.464025	0.229635	0.085697
C101	C	0.978118	-0.170148	-0.401362
C102	C	1.478118	0.329852	0.098638
C103	C	0.969686	-0.464926	-0.739314
C104	C	1.469686	0.035074	-0.239314
C105	C	0.966238	-0.468525	-0.813165
C106	C	1.466238	0.031475	-0.313165
C107	C	0.911807	-0.525572	-0.855413
C108	C	1.411807	-0.025572	-0.355413
C109	C	0.860816	-0.579017	-0.823806
C110	C	1.360816	-0.079017	-0.323806
C111	C	0.864262	-0.575413	-0.749955
C112	C	1.364262	-0.075413	-0.249955
C113	C	0.895847	-0.542271	-1.076853
C114	C	1.395847	-0.042271	-0.576853
C115	C	0.892406	-0.545873	-1.150709
C116	C	1.392406	-0.045873	-0.650709
C117	C	0.997828	-0.435379	-1.140063
C118	C	1.497828	0.064621	-0.640063
C119	C	1.001271	-0.431784	-1.066212
C120	C	1.501271	0.068216	-0.566212
C121	C	0.950279	-0.485225	-1.034610
C122	C	1.450279	0.014775	-0.534610
N123	N	0.908282	-0.529254	-0.930901
N124	N	1.408282	-0.029254	-0.430901
N125	N	0.953801	-0.481538	-0.959123
N126	N	1.453801	0.018462	-0.459123
C127	C	0.939560	-0.496511	-0.260936
C128	C	1.439560	0.003489	0.239064
C129	C	0.943392	-0.492430	-0.182311
C130	C	1.443392	0.007570	0.317689
H131	H	0.551855	-0.375279	-0.330377
H132	H	1.051855	0.124721	0.169623
C133	C	0.264486	-0.343435	-0.302455
C134	C	0.764486	0.156565	0.197545
C135	C	0.208181	-0.393517	-0.346391
C136	C	0.708181	0.106483	0.153609
H137	H	0.246697	-0.301411	-0.265589
H138	H	0.746697	0.198589	0.234411
H139	H	0.288639	-0.382869	-0.281765
H140	H	0.788639	0.117131	0.218235
H141	H	0.296300	-0.312047	-0.330215
H142	H	0.796300	0.187953	0.169785
H143	H	0.176370	-0.424910	-0.318632
H144	H	0.676370	0.075090	0.181368
H145	H	0.184016	-0.354078	-0.367082
H146	H	0.684016	0.145922	0.132918
H147	H	1.088047	-0.990900	-0.299969
H148	H	1.588047	-0.490900	0.200031
C149	C	0.658902	-0.310717	-0.273696
C150	C	1.158902	0.189283	0.226304
C151	C	0.697287	-0.365891	-0.322117
C152	C	1.197287	0.134109	0.177883
H153	H	0.690543	-0.271371	-0.239157
H154	H	1.190543	0.228629	0.260843
H155	H	0.633904	-0.276260	-0.298756
H156	H	1.133904	0.223740	0.201244
H157	H	0.626233	-0.347104	-0.250326
H158	H	1.126233	0.152896	0.249674
H159	H	0.729953	-0.329504	-0.345491
H160	H	1.229953	0.170496	0.154509
H161	H	0.722297	-0.400350	-0.297053
H162	H	1.222297	0.099650	0.202947
H163	H	0.347786	-0.418290	-0.368118
H164	H	0.847786	0.081710	0.131882
H165	H	1.039343	-0.391869	-1.165801
H166	H	1.539343	0.108131	-0.665801
C167	C	1.052716	-1.267761	-0.332604
C168	C	1.552716	-0.767761	0.167396
C169	C	1.075560	-1.175205	-0.311532
C170	C	1.575560	-0.675205	0.188468
H171	H	1.079946	-1.299835	-0.307492
H172	H	1.579946	-0.799835	0.192508
H173	H	1.004182	-1.280183	-0.322016
H174	H	1.504182	-0.780183	0.177984
H175	H	1.058541	-1.286035	-0.382598
H176	H	1.558541	-0.786035	0.117402
H177	H	1.069730	-1.156930	-0.261539
H178	H	1.569730	-0.656930	0.238461
H179	H	1.124106	-1.162777	-0.322116
H180	H	1.624106	-0.662777	0.177884
H181	H	0.967585	-0.849101	-0.410896
H182	H	1.467585	-0.349101	0.089104
C183	C	1.074251	-0.847122	-0.312621
C184	C	1.574251	-0.347122	0.187379
C185	C	1.018959	-0.878307	-0.363583
C186	C	1.518959	-0.378307	0.136417
H187	H	1.083199	-0.783220	-0.304356
H188	H	1.583199	-0.283220	0.195644
H189	H	1.061360	-0.865576	-0.269174
H190	H	1.561360	-0.365576	0.230826
H191	H	1.115696	-0.871411	-0.329777
H192	H	1.615696	-0.371411	0.170223
H193	H	0.977512	-0.854023	-0.346424
H194	H	1.477512	-0.354023	0.153576
H195	H	1.031847	-0.859844	-0.407038
H196	H	1.531847	-0.359844	0.092962
H197	H	1.045597	-0.385332	-1.031818
H198	H	1.545597	0.114668	-0.531818
H199	H	0.822738	-0.618923	-0.724225
H200	H	1.322738	-0.118923	-0.224225
C201	C	0.880365	-1.308862	-0.573092
C202	C	1.380365	-0.808862	-0.073092
C203	C	0.870154	-1.273298	-0.500909
C204	C	1.370154	-0.773298	-0.000909
H205	H	0.871437	-1.372765	-0.581364
H206	H	1.371437	-0.872765	-0.081364
H207	H	0.848811	-1.287434	-0.602140
H208	H	1.348811	-0.787434	-0.102140
H209	H	0.927777	-1.290515	-0.584720
H210	H	1.427777	-0.790515	-0.084720
H211	H	0.822740	-1.291639	-0.489282
H212	H	1.322740	-0.791639	0.010718
H213	H	0.901709	-1.294734	-0.471852
H214	H	1.401709	-0.794734	0.028148
C215	C	0.203717	-0.700418	-0.615697
C216	C	0.703717	-0.200418	-0.115697
C217	C	0.165329	-0.645243	-0.567279
C218	C	0.665329	-0.145243	-0.067279
H219	H	0.172077	-0.739769	-0.650233
H220	H	0.672077	-0.239769	-0.150233
H221	H	0.236383	-0.664038	-0.639064
H222	H	0.736383	-0.164038	-0.139064
H223	H	0.228717	-0.734876	-0.590628
H224	H	0.728717	-0.234876	-0.090628
H225	H	0.140334	-0.610780	-0.592347
H226	H	0.640334	-0.110780	-0.092347
H227	H	0.132651	-0.681627	-0.543910
H228	H	0.632651	-0.181627	-0.043910
H229	H	0.801040	-1.160700	-0.564509
H230	H	1.301040	-0.660700	-0.064509
H231	H	0.774074	-1.019283	-0.589301
H232	H	1.274074	-0.519283	-0.089301
C233	C	0.809367	-0.742411	-0.556645
C234	C	1.309367	-0.242411	-0.056645
C235	C	0.786533	-0.834968	-0.577723
C236	C	1.286533	-0.334968	-0.077723
H237	H	0.782121	-0.710337	-0.581742
H238	H	1.282121	-0.210337	-0.081742
H239	H	0.803563	-0.724150	-0.506654
H240	H	1.303563	-0.224150	-0.006654
H241	H	0.857901	-0.729976	-0.567256
H242	H	1.357901	-0.229976	-0.067256
H243	H	0.737999	-0.847405	-0.567108
H244	H	1.237999	-0.347405	-0.067108
H245	H	0.792330	-0.853236	-0.627725
H246	H	1.292330	-0.353236	-0.127725
C247	C	0.735488	-0.617649	-0.846595
C248	C	1.235488	-0.117649	-0.346595
C249	C	0.800982	-0.641724	-0.870244
C250	C	1.300982	-0.141724	-0.370244
H251	H	0.698551	-0.656362	-0.875266
H252	H	1.198551	-0.156362	-0.375266
H253	H	0.730247	-0.623153	-0.798095
H254	H	1.230247	-0.123153	-0.298095
H255	H	0.733246	-0.557107	-0.850396
H256	H	1.233246	-0.057107	-0.350396
H257	H	0.803227	-0.702265	-0.866437
H258	H	1.303227	-0.202265	-0.366437
H259	H	0.806225	-0.636229	-0.918755
H260	H	1.306225	-0.136229	-0.418755
C261	C	1.073539	-0.356062	-0.736214
C262	C	1.573539	0.143938	-0.236214
C263	C	1.029518	-0.402214	-0.692877
C264	C	1.529518	0.097786	-0.192877
H265	H	1.110473	-0.317341	-0.707545
H266	H	1.610473	0.182659	-0.207545
H267	H	1.093346	-0.398195	-0.771358
H268	H	1.593346	0.101805	-0.271358
H269	H	1.046650	-0.321339	-0.759121
H270	H	1.546650	0.178661	-0.259121
H271	H	1.056406	-0.436943	-0.669974
H272	H	1.556406	0.063057	-0.169974
H273	H	1.009710	-0.360076	-0.657720
H274	H	1.509710	0.139924	-0.157720
C275	C	0.989106	-0.351801	-0.880995
C276	C	1.489106	0.148199	-0.380995
C277	C	1.022282	-0.409766	-0.847893
C278	C	1.522282	0.090234	-0.347893
H279	H	1.023707	-0.315517	-0.902427
H280	H	1.523707	0.184483	-0.402427
H281	H	0.956207	-0.386289	-0.916727
H282	H	1.456207	0.113711	-0.416727
H283	H	0.964913	-0.314276	-0.846274
H284	H	1.464913	0.185724	-0.346274
H285	H	1.046471	-0.447296	-0.882615
H286	H	1.546471	0.052704	-0.382615
H287	H	1.055193	-0.375275	-0.812157
H288	H	1.555193	0.124725	-0.312157
C289	C	0.835886	-0.697816	-1.191550
C290	C	1.335886	-0.197816	-0.691550
C291	C	0.832569	-0.608578	-1.197153
C292	C	1.332569	-0.108578	-0.697153
H293	H	0.798945	-0.736522	-1.220221
H294	H	1.298945	-0.236522	-0.720221
H295	H	0.880317	-0.714137	-1.207585
H296	H	1.380317	-0.214137	-0.707585
H297	H	0.830633	-0.703310	-1.143043
H298	H	1.330633	-0.203310	-0.643043
H299	H	0.837827	-0.603082	-1.245660
H300	H	1.337827	-0.103082	-0.745660
H301	H	0.788126	-0.592252	-1.181121
H302	H	1.288126	-0.092252	-0.681121
C303	C	0.598116	-0.667673	-0.586944
C304	C	1.098116	-0.167673	-0.086944
C305	C	0.654424	-0.617609	-0.543003
C306	C	1.154424	-0.117609	-0.043003
H307	H	0.615900	-0.709686	-0.623821
H308	H	1.115900	-0.209686	-0.123821
H309	H	0.566303	-0.699063	-0.559194
H310	H	1.066303	-0.199063	-0.059194
H311	H	0.573963	-0.628220	-0.607625
H312	H	1.073963	-0.128220	-0.107625
H313	H	0.678573	-0.657061	-0.522318
H314	H	1.178573	-0.157061	-0.022318
H315	H	0.686249	-0.586216	-0.570757
H316	H	1.186249	-0.086216	-0.070757
H317	H	0.514822	-0.592837	-0.521271
H318	H	1.014822	-0.092837	-0.021271
C319	C	0.872956	-0.658981	-1.009012
C320	C	1.372956	-0.158981	-0.509012
C321	C	0.839794	-0.601020	-1.042131
C322	C	1.339794	-0.101020	-0.542131
H323	H	0.838347	-0.695248	-0.987573
H324	H	1.338347	-0.195248	-0.487573
H325	H	0.897146	-0.696515	-1.043718
H326	H	1.397146	-0.196515	-0.543718
H327	H	0.905858	-0.624485	-0.973275
H328	H	1.405858	-0.124485	-0.473275
H329	H	0.806896	-0.635516	-1.077872
H330	H	1.306896	-0.135516	-0.577872
H331	H	0.815593	-0.563481	-1.007421
H332	H	1.315593	-0.063481	-0.507421
H333	H	0.310749	-0.635854	-0.559018
H334	H	0.810749	-0.135854	-0.059018
