data_functionalizedCrystal
_audit_creation_method	'MofGen! by Chris Wilmer'
_symmetry_space_group_name_H-M	'P1'
_symmetry_Int_Tables_number	1
_symmetry_cell_setting	triclinic
loop_
_symmetry_equiv_pos_as_xyz
  x,y,z
_cell_length_a	9.065218
_cell_length_b	8.140239
_cell_length_c	10.654550
_cell_angle_alpha	89.997641
_cell_angle_beta	95.249606
_cell_angle_gamma	90.002802
loop_
_atom_site_label
_atom_site_type_symbol
_atom_site_fract_x
_atom_site_fract_y
_atom_site_fract_z
O1	O	1.959391	0.136613	-0.184157
O2	O	1.530024	0.136615	-0.199263
O3	O	1.754580	0.136608	-0.009010
O4	O	1.734836	0.136620	-0.374410
O5	O	1.754567	-0.136619	-0.009008
O6	O	1.530011	-0.136612	-0.199261
O7	O	1.959379	-0.136614	-0.184155
Zn8	Zn	1.744693	-0.179994	-0.191708
Zn9	Zn	1.744710	0.179995	-0.191711
O10	O	1.734823	-0.136607	-0.374408
C11	C	1.475039	0.000002	-0.197810
C12	C	1.311220	0.000003	-0.193469
N13	N	1.744693	-0.425676	-0.191705
C14	C	2.014364	0.000003	-0.185608
C15	C	2.178183	0.000013	-0.189949
C16	C	1.753124	-0.000004	0.037795
C17	C	1.748786	0.000002	0.177255
N18	N	1.744722	0.425677	-0.191704
C19	C	1.736279	0.000008	-0.421213
C20	C	1.740616	0.000013	-0.560673
C21	C	1.881001	-0.000003	0.256217
C22	C	1.876917	0.000008	0.387254
C23	C	1.608391	0.000024	0.360354
C24	C	1.612477	0.000024	0.229320
C25	C	2.036032	-0.000020	0.271749
C26	C	2.031948	-0.000008	0.402786
H27	H	1.504815	0.000051	0.165033
Cl28	Cl	2.104291	0.182124	0.472978
H29	H	1.497413	0.000043	0.402762
Cl30	Cl	2.122118	-0.176540	0.466913
H31	H	2.096676	0.114317	0.242150
H32	H	2.085394	-0.117994	0.235927
