data_functionalizedCrystal
_audit_creation_method	'MofGen! by Chris Wilmer'
_symmetry_space_group_name_H-M	'P1'
_symmetry_Int_Tables_number	1
_symmetry_cell_setting	triclinic
loop_
_symmetry_equiv_pos_as_xyz
  x,y,z
_cell_length_a	21.395364
_cell_length_b	25.639240
_cell_length_c	21.395356
_cell_angle_alpha	89.963811
_cell_angle_beta	89.983542
_cell_angle_gamma	90.028522
loop_
_atom_site_label
_atom_site_type_symbol
_atom_site_fract_x
_atom_site_fract_y
_atom_site_fract_z
Zn1	Zn	0.957800	-0.208221	-0.354226
Zn2	Zn	1.457800	0.291779	0.145774
Zn3	Zn	0.957714	-0.295655	-0.249434
Zn4	Zn	1.457714	0.204345	0.250566
Zn5	Zn	0.853030	-0.208229	-0.249463
Zn6	Zn	1.353030	0.291771	0.250537
Zn7	Zn	0.852981	-0.295620	-0.354174
Zn8	Zn	1.352981	0.204380	0.145826
O9	O	0.905381	-0.251931	-0.301824
O10	O	1.405381	0.248069	0.198176
O11	O	1.045467	-0.219830	-0.340335
O12	O	1.545467	0.280170	0.159665
O13	O	0.943812	-0.284076	-0.161760
O14	O	1.443812	0.215924	0.338240
O15	O	0.866985	-0.135063	-0.263394
O16	O	1.366985	0.364937	0.236606
O17	O	1.045403	-0.284068	-0.263344
O18	O	1.545403	0.215932	0.236656
O19	O	0.943959	-0.135056	-0.340363
O20	O	1.443959	0.364944	0.159637
O21	O	0.866901	-0.219844	-0.161781
O22	O	1.366901	0.280156	0.338219
O23	O	0.765346	-0.219811	-0.263343
O24	O	1.265346	0.280189	0.236657
O25	O	0.866901	-0.284009	-0.441859
O26	O	1.366901	0.215991	0.058141
O27	O	0.765309	-0.284017	-0.340274
O28	O	1.265309	0.215983	0.159726
O29	O	0.943911	-0.219796	-0.441897
O30	O	1.443911	0.280204	0.058103
O31	O	0.943764	-0.368816	-0.263294
O32	O	1.443764	0.131184	0.236706
O33	O	0.866817	-0.368790	-0.340246
O34	O	1.366817	0.131210	0.159754
C35	C	0.742594	-0.251911	-0.301807
C36	C	1.242594	0.248089	0.198193
C37	C	0.672952	-0.251915	-0.301814
C38	C	1.172952	0.248085	0.198186
C39	C	0.171189	-0.218562	-0.341987
C40	C	0.671189	0.281438	0.158013
C41	C	0.236624	-0.218558	-0.341987
C42	C	0.736624	0.281442	0.158013
C43	C	0.269314	-0.251947	-0.301838
C44	C	0.769314	0.248053	0.198162
C45	C	0.236563	-0.285353	-0.261698
C46	C	0.736563	0.214647	0.238302
C47	C	0.171129	-0.285359	-0.261704
C48	C	0.671129	0.214641	0.238296
C49	C	0.372958	-0.256004	-0.245370
C50	C	0.872958	0.243996	0.254630
C51	C	0.438391	-0.255994	-0.245364
C52	C	0.938391	0.244006	0.254636
C53	C	0.471135	-0.251930	-0.301821
C54	C	0.971135	0.248070	0.198179
C55	C	0.438437	-0.247865	-0.358287
C56	C	0.938437	0.252135	0.141713
C57	C	0.373003	-0.247872	-0.358293
C58	C	0.873003	0.252128	0.141707
C59	C	0.340266	-0.251944	-0.301828
C60	C	0.840266	0.248056	0.198172
C61	C	0.574830	-0.218525	-0.341962
C62	C	1.074830	0.281475	0.158038
C63	C	0.640267	-0.218525	-0.341962
C64	C	1.140267	0.281475	0.158038
C65	C	0.640205	-0.285317	-0.261668
C66	C	1.140205	0.214683	0.238332
C67	C	0.574769	-0.285320	-0.261673
C68	C	1.074769	0.214680	0.238327
C69	C	0.542086	-0.251921	-0.301819
C70	C	1.042086	0.248079	0.198181
C71	C	0.905293	-0.387774	-0.301775
C72	C	1.405293	0.112226	0.198225
C73	C	0.905312	-0.445888	-0.301775
C74	C	1.405312	0.054112	0.198225
C75	C	0.945482	-0.806209	-0.341974
C76	C	1.445482	-0.306209	0.158026
C77	C	0.945500	-0.860813	-0.341987
C78	C	1.445500	-0.360813	0.158013
O79	O	0.979548	-0.889015	-0.376115
O80	O	1.479548	-0.389015	0.123885
N81	N	0.905468	-0.888170	-0.301885
N82	N	1.405468	-0.388170	0.198115
C83	C	0.865411	-0.860920	-0.261772
C84	C	1.365411	-0.360920	0.238228
O85	O	0.831362	-0.889203	-0.227663
O86	O	1.331362	-0.389203	0.272337
C87	C	0.865389	-0.806317	-0.261762
C88	C	1.365389	-0.306317	0.238238
C89	C	0.905428	-0.778963	-0.301863
C90	C	1.405428	-0.278963	0.198137
C91	C	0.985517	-0.778855	-0.382072
C92	C	1.485517	-0.278855	0.117928
C93	C	0.985499	-0.724255	-0.382058
C94	C	1.485499	-0.224255	0.117942
C95	C	0.945446	-0.697008	-0.341947
C96	C	1.445446	-0.197008	0.158053
C97	C	0.905411	-0.724362	-0.301849
C98	C	1.405411	-0.224362	0.198151
C99	C	0.825329	-0.779067	-0.221653
C100	C	1.325329	-0.279067	0.278347
C101	C	0.825311	-0.724460	-0.221648
C102	C	1.325311	-0.224460	0.278352
C103	C	0.865350	-0.697106	-0.261748
C104	C	1.365350	-0.197106	0.238252
C105	C	0.865340	-0.642515	-0.261724
C106	C	1.365340	-0.142515	0.238276
N107	N	0.905372	-0.615158	-0.301826
N108	N	1.405372	-0.115158	0.198174
C109	C	0.945425	-0.642405	-0.341938
C110	C	1.445425	-0.142405	0.158062
C111	C	0.865457	-0.975590	-0.261795
C112	C	1.365457	-0.475590	0.238205
C113	C	0.865481	-1.030193	-0.261800
C114	C	1.365481	-0.530193	0.238200
C115	C	0.945570	-1.030083	-0.342016
C116	C	1.445570	-0.530083	0.157984
C117	C	0.945549	-0.975479	-0.342007
C118	C	1.445549	-0.475479	0.157993
C119	C	0.905489	-0.948234	-0.301897
C120	C	1.405489	-0.448234	0.198103
C121	C	0.945385	-0.527740	-0.341905
C122	C	1.445385	-0.027740	0.158095
C123	C	0.945365	-0.473134	-0.341886
C124	C	1.445365	0.026866	0.158114
C125	C	0.865274	-0.473249	-0.261673
C126	C	1.365274	0.026751	0.238327
C127	C	0.865296	-0.527850	-0.261689
C128	C	1.365296	-0.027850	0.238311
C129	C	0.905353	-0.555094	-0.301811
C130	C	1.405353	-0.055094	0.198189
O131	O	0.831307	-0.614279	-0.227615
O132	O	1.331307	-0.114279	0.272385
O133	O	0.979462	-0.614115	-0.376046
O134	O	1.479462	-0.114115	0.123954
C135	C	1.068804	-0.251952	-0.301842
C136	C	1.568804	0.248048	0.198158
C137	C	1.138446	-0.251960	-0.301850
C138	C	1.638446	0.248040	0.198150
C139	C	0.905410	-0.251898	-0.465247
C140	C	1.405410	0.248102	0.034753
C141	C	0.905423	-0.251883	-0.534889
C142	C	1.405423	0.248117	-0.034889
C143	C	0.905487	-0.115558	-0.301887
C144	C	1.405487	0.384442	0.198113
C145	C	0.905532	-0.057444	-0.301914
C146	C	1.405532	0.442556	0.198086
C147	C	0.945581	-0.218365	-1.036706
C148	C	1.445581	0.281635	-0.536706
C149	C	0.945576	-0.218377	-0.971271
C150	C	1.445576	0.281623	-0.471271
C151	C	0.905476	-0.251814	-0.938527
C152	C	1.405476	0.248186	-0.438527
C153	C	0.865390	-0.285249	-0.971225
C154	C	1.365390	0.214751	-0.471225
C155	C	0.865401	-0.285240	-1.036659
C156	C	1.365401	0.214760	-0.536659
C157	C	0.849007	-0.255951	-0.834851
C158	C	1.349007	0.244049	-0.334851
C159	C	0.848996	-0.255957	-0.769418
C160	C	1.348996	0.244043	-0.269418
C161	C	0.905444	-0.251847	-0.736706
C162	C	1.405444	0.248153	-0.236706
C163	C	0.961906	-0.247720	-0.769436
C164	C	1.461906	0.252280	-0.269436
C165	C	0.961917	-0.247710	-0.834870
C166	C	1.461917	0.252290	-0.334870
C167	C	0.905461	-0.251828	-0.867575
C168	C	1.405461	0.248172	-0.367575
C169	C	0.945526	-0.218430	-0.633064
C170	C	1.445526	0.281570	-0.133064
C171	C	0.945522	-0.218446	-0.567628
C172	C	1.445522	0.281554	-0.067628
C173	C	0.865330	-0.285315	-0.567583
C174	C	1.365330	0.214685	-0.067583
C175	C	0.865340	-0.285302	-0.633018
C176	C	1.365340	0.214698	-0.133018
C177	C	0.905437	-0.251856	-0.665755
C178	C	1.405437	0.248144	-0.165755
C179	C	0.905388	-0.251927	-0.139037
C180	C	1.405388	0.248073	0.360963
C181	C	0.905497	-0.251794	-0.069396
C182	C	1.405497	0.248206	0.430604
H183	H	0.263288	-0.191358	-0.374671
H184	H	0.763288	0.308642	0.125329
H185	H	0.465008	-0.259300	-0.199386
H186	H	0.965008	0.240700	0.300614
Cl187	Cl	0.331802	-0.261121	-0.174389
Cl188	Cl	0.831802	0.238879	0.325611
H189	H	0.978216	-0.191153	-0.944649
H190	H	1.478216	0.308847	-0.444649
H191	H	0.832683	-0.312542	-0.540924
H192	H	1.332683	0.187458	-0.040924
H193	H	0.792725	-0.801329	-0.188999
H194	H	1.292725	-0.301329	0.311001
Cl195	Cl	0.479593	-0.242749	-0.429266
Cl196	Cl	0.979593	0.257251	0.070734
Cl197	Cl	0.277658	-0.327330	-0.211228
Cl198	Cl	0.777658	0.172670	0.288772
H199	H	0.832884	-1.052460	-0.229139
H200	H	1.332884	-0.552460	0.270861
Cl201	Cl	0.331900	-0.242767	-0.429275
Cl202	Cl	0.831900	0.257233	0.070725
H203	H	0.792688	-0.702279	-0.188985
H204	H	1.292688	-0.202279	0.311015
H205	H	0.978182	-1.052277	-0.374678
H206	H	1.478182	-0.552277	0.125322
H207	H	0.977999	-0.549915	-0.374581
H208	H	1.477999	-0.049915	0.125419
Cl209	Cl	0.129964	-0.327347	-0.211238
Cl210	Cl	0.629964	0.172653	0.288762
Cl211	Cl	0.681295	-0.327297	-0.211200
Cl212	Cl	1.181295	0.172703	0.288800
H213	H	0.832698	-0.550123	-0.229031
H214	H	1.332698	-0.050123	0.270969
H215	H	0.832697	-0.312521	-0.659635
H216	H	1.332697	0.187479	-0.159635
H217	H	0.548110	-0.312515	-0.228985
H218	H	1.048110	0.187485	0.271015
H219	H	1.018100	-0.701986	-0.414713
H220	H	1.518100	-0.201986	0.085287
H221	H	1.007890	-0.244351	-0.861516
H222	H	1.507890	0.255649	-0.361516
H223	H	0.144582	-0.191368	-0.374680
H224	H	0.644582	0.308632	0.125320
H225	H	0.977972	-0.450864	-0.374541
H226	H	1.477972	0.049136	0.125459
H227	H	0.832838	-0.953410	-0.229127
H228	H	1.332838	-0.453410	0.270873
Cl229	Cl	0.815005	-0.327269	-1.077757
Cl230	Cl	1.315005	0.172731	-0.577757
Cl231	Cl	1.032876	-0.242563	-0.728321
Cl232	Cl	1.532876	0.257437	-0.228321
H233	H	0.803021	-0.259317	-0.742774
H234	H	1.303021	0.240683	-0.242774
H235	H	0.832665	-0.451057	-0.229012
H236	H	1.332665	0.048943	0.270988
H237	H	1.018133	-0.801034	-0.414739
H238	H	1.518133	-0.301034	0.085261
H239	H	0.978152	-0.953211	-0.374661
H240	H	1.478152	-0.453211	0.125339
Cl241	Cl	0.996013	-0.176340	-1.077857
Cl242	Cl	1.496013	0.323660	-0.577857
H243	H	0.978175	-0.191196	-0.659720
H244	H	1.478175	0.308804	-0.159720
Cl245	Cl	0.995921	-0.176420	-0.526531
Cl246	Cl	1.495921	0.323580	-0.026531
Cl247	Cl	0.778035	-0.261110	-0.875966
Cl248	Cl	1.278035	0.238890	-0.375966
H249	H	0.832742	-0.312474	-0.944561
H250	H	1.332742	0.187526	-0.444561
H251	H	0.548218	-0.191330	-0.374651
H252	H	1.048218	0.308670	0.125349
H253	H	0.666925	-0.191329	-0.374652
H254	H	1.166925	0.308671	0.125348
