data_functionalizedCrystal
_audit_creation_method	'MofGen! by Chris Wilmer'
_symmetry_space_group_name_H-M	'P1'
_symmetry_Int_Tables_number	1
_symmetry_cell_setting	triclinic
loop_
_symmetry_equiv_pos_as_xyz
  x,y,z
_cell_length_a	11.169417
_cell_length_b	12.645330
_cell_length_c	11.169409
_cell_angle_alpha	89.965645
_cell_angle_beta	89.979747
_cell_angle_gamma	90.013895
loop_
_atom_site_label
_atom_site_type_symbol
_atom_site_fract_x
_atom_site_fract_y
_atom_site_fract_z
Zn1	Zn	1.834952	-0.421919	-0.678515
Zn2	Zn	2.334952	0.078081	-0.178515
Zn3	Zn	1.834831	-0.599229	-0.477825
Zn4	Zn	2.334831	-0.099229	0.022175
Zn5	Zn	1.634235	-0.421984	-0.477851
Zn6	Zn	2.134235	0.078016	0.022149
Zn7	Zn	1.634237	-0.599144	-0.678471
Zn8	Zn	2.134237	-0.099144	-0.178471
O9	O	1.734564	-0.510569	-0.578166
O10	O	2.234564	-0.010569	-0.078166
O11	O	2.002885	-0.445448	-0.651901
O12	O	2.502885	0.054552	-0.151901
O13	O	1.808170	-0.575781	-0.309879
O14	O	2.308170	-0.075781	0.190121
O15	O	1.660911	-0.273628	-0.504499
O16	O	2.160911	0.226372	-0.004499
O17	O	2.002796	-0.575717	-0.504455
O18	O	2.502796	-0.075717	-0.004455
O19	O	1.808376	-0.273580	-0.651926
O20	O	2.308376	0.226420	-0.151926
O21	O	1.660793	-0.445559	-0.309898
O22	O	2.160793	0.054441	0.190102
O23	O	1.466286	-0.445477	-0.504456
O24	O	1.966286	0.054523	-0.004456
O25	O	1.660914	-0.575572	-0.846427
O26	O	2.160914	-0.075572	-0.346427
O27	O	1.466287	-0.575636	-0.651851
O28	O	1.966287	-0.075636	-0.151851
O29	O	1.808378	-0.445365	-0.846459
O30	O	2.308378	0.054635	-0.346459
O31	O	1.808171	-0.747565	-0.504412
O32	O	2.308171	-0.247565	-0.004412
O33	O	1.660796	-0.747503	-0.651826
O34	O	2.160796	-0.247503	-0.151826
C35	C	1.422739	-0.510555	-0.578152
C36	C	1.922739	-0.010555	-0.078152
C37	C	1.289339	-0.510574	-0.578174
C38	C	1.789339	-0.010574	-0.078174
C39	C	1.734504	-0.785999	-0.578137
C40	C	2.234504	-0.285999	-0.078137
C41	C	1.734588	-0.903829	-0.578165
C42	C	2.234588	-0.403829	-0.078165
C43	C	1.827152	-1.071388	-0.485239
C44	C	2.327152	-0.571388	0.014761
C45	C	1.827454	-0.948828	-0.485467
C46	C	2.327454	-0.448828	0.014533
C47	C	1.768895	-0.948196	-0.704674
C48	C	2.268895	-0.448196	-0.204674
C49	C	1.769629	-1.070794	-0.704181
C50	C	2.269629	-0.570794	-0.204181
C51	C	1.607680	-1.071163	-0.545830
C52	C	2.107680	-0.571163	-0.045830
C53	C	1.608288	-0.948558	-0.542993
C54	C	2.108288	-0.448558	-0.042993
C55	C	2.047606	-0.510584	-0.578180
C56	C	2.547606	-0.010584	-0.078180
C57	C	2.181006	-0.510591	-0.578186
C58	C	2.681006	-0.010591	-0.078186
C59	C	1.734660	-0.510452	-0.891208
C60	C	2.234660	-0.010452	-0.391208
C61	C	1.734701	-0.510402	-1.024608
C62	C	2.234701	-0.010402	-0.524608
C63	C	1.734657	-0.234064	-0.578220
C64	C	2.234657	0.265936	-0.078220
C65	C	1.734696	-0.116234	-0.578244
C66	C	2.234696	0.383766	-0.078244
C67	C	1.734537	-0.510610	-0.266341
C68	C	2.234537	-0.010610	0.233659
C69	C	1.734728	-0.510361	-0.132941
C70	C	2.234728	-0.010361	0.367059
H71	H	1.805989	-0.918836	-0.391662
H72	H	2.305989	-0.418836	0.108338
H73	H	1.920725	-1.102114	-0.506438
H74	H	2.420725	-0.602114	-0.006438
H75	H	1.576483	-1.102183	-0.455187
H76	H	2.076483	-0.602183	0.044813
N77	N	1.575850	-0.912198	-0.426196
N78	N	2.075850	-0.412198	0.073804
N79	N	1.645425	-0.853557	-0.369007
N80	N	2.145425	-0.353557	0.130993
H81	H	1.622521	-0.827874	-0.286517
H82	H	2.122521	-0.327874	0.213483
H83	H	1.535684	-0.917938	-0.605766
H84	H	2.035684	-0.417938	-0.105766
H85	H	1.921531	-0.919416	-0.506906
H86	H	2.421531	-0.419416	-0.006906
H87	H	1.538792	-1.100164	-0.613569
H88	H	2.038792	-0.600164	-0.113569
H89	H	1.862472	-1.099302	-0.731638
H90	H	2.362472	-0.599302	-0.231638
N91	N	1.800562	-1.108491	-0.367223
N92	N	2.300562	-0.608491	0.132777
N93	N	1.713165	-1.168423	-0.350277
N94	N	2.213165	-0.668423	0.149723
H95	H	1.694382	-1.194635	-0.266925
H96	H	2.194382	-0.694635	0.233075
H97	H	1.705238	-1.100455	-0.775863
H98	H	2.205238	-0.600455	-0.275863
N99	N	1.686981	-0.911625	-0.793925
N100	N	2.186981	-0.411625	-0.293925
N101	N	1.602203	-0.852311	-0.765221
N102	N	2.102203	-0.352311	-0.265221
H103	H	1.544347	-0.826481	-0.828253
H104	H	2.044347	-0.326481	-0.328253
H105	H	1.860689	-0.917403	-0.732589
H106	H	2.360689	-0.417403	-0.232589
