data_functionalizedCrystal
_audit_creation_method	'MofGen! by Chris Wilmer'
_symmetry_space_group_name_H-M	'P1'
_symmetry_Int_Tables_number	1
_symmetry_cell_setting	triclinic
loop_
_symmetry_equiv_pos_as_xyz
  x,y,z
_cell_length_a	10.654549
_cell_length_b	17.000381
_cell_length_c	9.730223
_cell_angle_alpha	90.007127
_cell_angle_beta	89.997160
_cell_angle_gamma	99.957346
loop_
_atom_site_label
_atom_site_type_symbol
_atom_site_fract_x
_atom_site_fract_y
_atom_site_fract_z
O1	O	0.045242	-1.056347	-0.114427
O2	O	0.090789	-0.824867	-0.114399
O3	O	-0.115384	-0.945929	-0.114408
O4	O	0.251416	-0.935285	-0.114418
O5	O	-0.115387	-0.945923	0.114172
O6	O	0.090786	-0.824860	0.114181
O7	O	0.045240	-1.056341	0.114153
Zn8	Zn	0.068013	-0.940600	0.150459
Zn9	Zn	0.068016	-0.940608	-0.150705
O10	O	0.251413	-0.935278	0.114162
C11	C	-0.162087	-0.945145	-0.000119
C12	C	-0.301240	-0.942806	-0.000123
C13	C	0.093234	-0.795223	-0.000105
C14	C	0.100507	-0.706905	-0.000094
C15	C	-0.520331	-1.011883	-0.000141
C16	C	-0.389584	-1.014086	-0.000131
C17	C	-0.343648	-0.869319	-0.000113
C18	C	-0.474393	-0.867117	-0.000114
C19	C	0.147475	-0.206948	-0.000126
C20	C	0.140631	-0.289933	-0.000128
C21	C	0.021829	-0.340272	-0.000117
C22	C	-0.090136	-0.307622	-0.000117
C23	C	-0.083291	-0.224638	-0.000124
C24	C	-0.004612	-0.591272	-0.000102
C25	C	-0.011449	-0.674260	-0.000090
C26	C	0.219319	-0.656565	-0.000105
C27	C	0.226153	-0.573581	-0.000104
C28	C	0.114189	-0.540938	-0.000111
C29	C	0.014830	-0.425096	-0.000115
C30	C	0.121189	-0.456115	-0.000123
C31	C	0.298115	-0.936063	-0.000130
C32	C	0.437268	-0.938401	-0.000135
C33	C	0.042794	-0.085984	-0.000134
C34	C	0.035518	-0.174303	-0.000122
N35	N	0.068009	-0.940600	0.355995
N36	N	0.068009	-0.940614	-0.356241
C37	C	-0.023255	-0.994229	0.571809
C38	C	-0.023253	-0.994224	0.427926
C39	C	0.159283	-0.886983	0.427954
C40	C	0.159285	-0.886992	0.571835
H41	H	-0.592254	-1.069928	-0.000159
H42	H	0.322895	-0.532600	-0.000118
C43	C	-0.127768	-0.555374	-0.000087
H44	H	-0.199499	-0.597242	-0.000060
H45	H	-0.129911	-0.523378	-0.079797
H46	H	-0.129886	-0.523364	0.079634
H47	H	0.233610	-0.843333	0.630420
C48	C	-0.246473	-0.790912	-0.000107
H49	H	-0.162533	-0.802747	-0.000123
H50	H	-0.258462	-0.760805	0.079604
H51	H	-0.258465	-0.760817	-0.079828
C52	C	-0.342942	-1.094914	-0.000136
H53	H	-0.252423	-1.086020	-0.000116
H54	H	-0.373798	-1.124299	-0.079849
H55	H	-0.373815	-1.124288	0.079582
H56	H	-0.508913	-0.807275	-0.000102
C57	C	0.278158	-0.151582	-0.000147
H58	H	0.343854	-0.182912	-0.000165
H59	H	0.285638	-0.118831	0.079557
H60	H	0.285614	-0.118854	-0.079875
C61	C	0.263783	-0.325839	-0.000116
H62	H	0.335516	-0.283973	-0.000103
H63	H	0.265920	-0.357852	-0.079821
H64	H	0.265901	-0.357833	0.079610
C65	C	0.342468	-0.692475	-0.000116
H66	H	0.321381	-0.749106	-0.000122
H67	H	0.391008	-0.675232	0.079585
H68	H	0.390985	-0.675247	-0.079846
H69	H	-0.081899	-0.466091	-0.000100
H70	H	-0.108197	-0.715246	-0.000088
H71	H	-0.174458	-0.198061	-0.000124
C72	C	-0.220815	-0.362992	-0.000100
H73	H	-0.208860	-0.417090	-0.000081
H74	H	-0.267110	-0.353038	-0.079806
H75	H	-0.267092	-0.353015	0.079625
H76	H	0.217916	-0.415126	-0.000139
H77	H	-0.097576	-1.037892	0.630366
C78	C	-0.123649	-1.053196	0.348788
H79	H	-0.178011	-1.085126	0.412234
H80	H	-0.082132	-1.086553	0.292643
H81	H	-0.172765	-1.024286	0.292678
C82	C	0.259666	-0.827996	0.348834
H83	H	0.246586	-0.835661	0.252839
H84	H	0.342488	-0.837090	0.372397
H85	H	0.251833	-0.774836	0.372442
