data_functionalizedCrystal
_audit_creation_method	'MofGen! by Chris Wilmer'
_symmetry_space_group_name_H-M	'P1'
_symmetry_Int_Tables_number	1
_symmetry_cell_setting	triclinic
loop_
_symmetry_equiv_pos_as_xyz
  x,y,z
_cell_length_a	15.712078
_cell_length_b	15.625429
_cell_length_c	9.198806
_cell_angle_alpha	71.919667
_cell_angle_beta	89.986935
_cell_angle_gamma	101.022721
loop_
_atom_site_label
_atom_site_type_symbol
_atom_site_fract_x
_atom_site_fract_y
_atom_site_fract_z
O1	O	1.147487	0.494562	-0.381915
O2	O	0.895750	0.425906	-0.345655
O3	O	1.028344	0.331216	-0.295774
O4	O	1.014893	0.589252	-0.431796
O5	O	1.028334	0.331212	-0.053987
O6	O	0.895739	0.425902	-0.103867
O7	O	1.147477	0.494558	-0.140128
Cu8	Cu	1.021607	0.460230	-0.099921
Cu9	Cu	1.021619	0.460234	-0.385862
O10	O	1.014882	0.589248	-0.190009
C11	C	0.863528	0.414688	-0.218840
C12	C	0.767533	0.381258	-0.201191
C13	C	0.400774	0.665093	-0.350912
C14	C	0.310575	0.633659	-0.334378
C15	C	0.331004	0.476151	-0.251352
C16	C	0.421207	0.507572	-0.267887
C17	C	0.456084	0.602044	-0.317665
C18	C	0.476517	0.444522	-0.234640
C19	C	0.566711	0.475941	-0.251165
C20	C	0.601596	0.570409	-0.300938
C21	C	0.546279	0.633462	-0.334191
C22	C	0.441637	0.350051	-0.184851
C23	C	0.496947	0.287001	-0.151604
C24	C	0.587144	0.318420	-0.168140
C25	C	0.622028	0.412888	-0.217912
C26	C	0.642461	0.255367	-0.134887
C27	C	0.732656	0.286786	-0.151412
C28	C	0.712223	0.444307	-0.234438
C29	C	1.027730	0.297426	-0.157072
C30	C	1.025905	0.196745	-0.104006
C31	C	1.019907	-0.134382	-0.588412
C32	C	1.018188	-0.228988	-0.538503
C33	C	1.018177	-0.228978	-0.274923
C34	C	1.019900	-0.134369	-0.324811
C35	C	1.020764	-0.087079	-0.481557
C36	C	1.020757	-0.087066	-0.217956
C37	C	1.022475	0.007533	-0.267839
C38	C	1.023337	0.054830	-0.424578
C39	C	1.022482	0.007521	-0.531440
C40	C	1.019887	-0.134360	-0.061210
C41	C	1.020744	-0.087057	0.045645
C42	C	1.022468	0.007546	-0.004239
C43	C	1.023330	0.054842	-0.160977
C44	C	1.023323	0.054855	0.102624
C45	C	1.025041	0.149454	0.052740
C46	C	1.025048	0.149442	-0.210861
C47	C	1.179698	0.505776	-0.266946
C48	C	1.275693	0.539206	-0.284604
C49	C	1.015496	0.623038	-0.328714
C50	C	1.017321	0.723719	-0.381789
N51	N	1.021605	0.460228	0.101194
N52	N	1.021629	0.460231	-0.586974
C53	C	1.077279	0.420217	0.194468
C54	C	1.077292	0.420218	0.361880
H55	H	0.675039	0.595989	-0.314386
C56	C	1.017979	-0.237077	-0.006737
C57	C	1.017376	-0.268374	0.153404
C58	C	1.015607	-0.362993	0.203638
H59	H	1.067964	-0.248859	-0.049109
H60	H	0.967188	-0.268255	-0.038899
H61	H	1.068162	-0.237207	0.185552
H62	H	0.967395	-0.256617	0.195816
H63	H	0.964817	-0.394170	0.171476
H64	H	1.065593	-0.374765	0.161256
H65	H	1.015190	-0.384241	0.312298
C66	C	1.140807	0.374379	0.468618
C67	C	1.126469	0.281101	0.480852
C68	C	1.184970	0.238845	0.579154
H69	H	1.132429	0.380344	0.567015
H70	H	1.198601	0.403016	0.428583
H71	H	1.068689	0.252472	0.520891
H72	H	1.134854	0.275109	0.382482
H73	H	1.242764	0.267482	0.539120
H74	H	1.176587	0.244817	0.677543
H75	H	1.175256	0.175554	0.587457
C76	C	1.025820	0.200683	0.168920
C77	C	0.951070	0.163293	0.268172
C78	C	0.951751	0.210456	0.375225
H79	H	1.026916	0.263798	0.116948
H80	H	1.075892	0.194909	0.226207
H81	H	0.901012	0.169076	0.210891
H82	H	0.949959	0.100184	0.320179
H83	H	1.001823	0.204681	0.432513
H84	H	0.952849	0.273569	0.323240
H85	H	0.901039	0.185088	0.442589
C86	C	1.140983	0.374633	0.135877
C87	C	1.226045	0.417085	0.150436
C88	C	1.284762	0.375111	0.096517
H89	H	1.132670	0.380669	0.031156
H90	H	1.131435	0.311323	0.194174
H91	H	1.235589	0.480378	0.092137
H92	H	1.234385	0.411050	0.255142
H93	H	1.275214	0.311802	0.154814
H94	H	1.276441	0.381150	-0.008202
H95	H	1.342482	0.403903	0.106400
C96	C	0.293250	0.373559	-0.197530
C97	C	0.321404	0.333701	-0.300894
C98	C	0.286653	0.239193	-0.251358
H99	H	0.231614	0.363749	-0.192456
H100	H	0.312230	0.346292	-0.098884
H101	H	0.302418	0.360959	-0.399513
H102	H	0.383034	0.343486	-0.305981
H103	H	0.305634	0.211926	-0.152713
H104	H	0.225019	0.229392	-0.246285
H105	H	0.305757	0.212136	-0.321475
H106	H	0.574678	0.710391	-0.374723
H107	H	0.740622	0.521235	-0.274970
H108	H	1.023193	0.046029	-0.659079
H109	H	0.429173	0.742021	-0.391445
C110	C	0.250666	0.702264	-0.370641
C111	C	0.300521	0.791720	-0.417808
C112	C	0.245363	0.854940	-0.451242
H113	H	0.215011	0.693397	-0.281690
H114	H	0.215095	0.693344	-0.450305
H115	H	0.336077	0.800637	-0.338150
H116	H	0.336174	0.800617	-0.506768
H117	H	0.209792	0.846020	-0.530907
H118	H	0.209711	0.846064	-0.362286
H119	H	0.279181	0.915642	-0.483262
H120	H	0.368194	0.324472	-0.171380
H121	H	1.017483	-0.267500	-0.625528
H122	H	0.973964	0.494492	0.332901
H123	H	0.468537	0.210082	-0.111057
H124	H	0.777691	0.235444	-0.124343
C125	C	0.604419	0.152837	-0.080925
C126	C	0.513592	0.138817	-0.073594
C127	C	0.478521	0.044379	-0.023909
H128	H	0.623283	0.125518	0.017772
H129	H	0.623368	0.125606	-0.150917
H130	H	0.494652	0.166036	-0.003604
H131	H	0.494705	0.166115	-0.172274
H132	H	0.497469	0.017148	-0.093901
H133	H	0.497390	0.017067	0.074786
H134	H	0.416892	0.034854	-0.018941
H135	H	1.025759	0.187950	-0.338500
H136	H	1.024726	0.131857	-0.465190
H137	H	1.020618	-0.095873	-0.716050
H138	H	1.017471	-0.267495	-0.147300
H139	H	1.020037	-0.125574	0.173269
H140	H	1.022611	0.016335	0.230247
H141	H	0.973946	0.494480	0.145279
