data_functionalizedCrystal
_audit_creation_method	'MofGen! by Chris Wilmer'
_symmetry_space_group_name_H-M	'P1'
_symmetry_Int_Tables_number	1
_symmetry_cell_setting	triclinic
loop_
_symmetry_equiv_pos_as_xyz
  x,y,z
_cell_length_a	25.639242
_cell_length_b	25.639239
_cell_length_c	25.639234
_cell_angle_alpha	90.024584
_cell_angle_beta	90.026995
_cell_angle_gamma	90.034213
loop_
_atom_site_label
_atom_site_type_symbol
_atom_site_fract_x
_atom_site_fract_y
_atom_site_fract_z
Zn1	Zn	0.799250	-0.208247	0.295742
Zn2	Zn	0.799166	-0.295674	0.208307
Zn3	Zn	0.711819	-0.208248	0.208306
Zn4	Zn	0.711771	-0.295646	0.295696
O5	O	0.755502	-0.251954	0.252013
O6	O	0.872404	-0.219855	0.284163
O7	O	0.787564	-0.284089	0.135141
O8	O	0.723472	-0.135083	0.219924
O9	O	0.872342	-0.284088	0.219924
O10	O	0.787707	-0.135082	0.284163
O11	O	0.723390	-0.219858	0.135141
O12	O	0.638647	-0.219830	0.219880
O13	O	0.723391	-0.284040	0.368868
O14	O	0.638613	-0.284041	0.284085
O15	O	0.787661	-0.219828	0.368901
O16	O	0.787518	-0.368836	0.219880
O17	O	0.723309	-0.368815	0.284085
C18	C	0.619659	-0.251933	0.251977
C19	C	0.561545	-0.251937	0.251975
C20	C	0.201173	-0.285444	0.285413
C21	C	0.146568	-0.285447	0.285421
O22	O	0.118324	-0.313911	0.313821
N23	N	0.119263	-0.251968	0.252047
C24	C	0.146564	-0.218480	0.218666
O25	O	0.118324	-0.190003	0.190280
C26	C	0.201167	-0.218474	0.218661
C27	C	0.228470	-0.251959	0.252034
C28	C	0.228476	-0.318926	0.318783
C29	C	0.283076	-0.318924	0.318774
C30	C	0.310374	-0.285439	0.285395
C31	C	0.283071	-0.251957	0.252024
C32	C	0.228468	-0.184983	0.185283
C33	C	0.283075	-0.184981	0.185281
C34	C	0.310378	-0.218466	0.218654
C35	C	0.364969	-0.218469	0.218636
N36	N	0.392275	-0.251949	0.252010
C37	C	0.364977	-0.285434	0.285389
C38	C	0.031893	-0.218493	0.218680
C39	C	-0.022709	-0.218501	0.218683
C40	C	-0.022701	-0.285468	0.285438
C41	C	0.031902	-0.285463	0.285433
C42	C	0.059199	-0.251972	0.252054
C43	C	0.479642	-0.285426	0.285368
C44	C	0.534247	-0.285422	0.285354
C45	C	0.534235	-0.218453	0.218601
C46	C	0.479634	-0.218458	0.218612
C47	C	0.452339	-0.251947	0.252000
O48	O	0.393248	-0.190019	0.190252
O49	O	0.393223	-0.313901	0.313776
C50	C	0.755414	-0.387796	0.251989
C51	C	0.755424	-0.445910	0.251996
C52	C	0.789022	-0.806272	0.218638
C53	C	0.789042	-0.860876	0.218645
O54	O	0.817518	-0.889111	0.190257
N55	N	0.755593	-0.888193	0.252048
C56	C	0.722126	-0.860902	0.285449
O57	O	0.693677	-0.889152	0.313861
C58	C	0.722109	-0.806299	0.285444
C59	C	0.755556	-0.778985	0.252036
C60	C	0.822467	-0.778958	0.185233
C61	C	0.822446	-0.724357	0.185226
C62	C	0.788980	-0.697071	0.218623
C63	C	0.755535	-0.724385	0.252028
C64	C	0.688644	-0.779010	0.318847
C65	C	0.688630	-0.724403	0.318840
C66	C	0.722077	-0.697089	0.285432
C67	C	0.722048	-0.642498	0.285418
N68	N	0.755497	-0.615181	0.252016
C69	C	0.788963	-0.642467	0.218619
C70	C	0.722165	-0.975573	0.285457
C71	C	0.722179	-1.030175	0.285459
C72	C	0.789097	-1.030145	0.218656
C73	C	0.789080	-0.975542	0.218652
C74	C	0.755614	-0.948256	0.252055
C75	C	0.788916	-0.527802	0.218605
C76	C	0.788890	-0.473197	0.218599
C77	C	0.721975	-0.473232	0.285403
C78	C	0.721998	-0.527832	0.285408
C79	C	0.755473	-0.555116	0.252007
O80	O	0.693588	-0.614228	0.313794
O81	O	0.817412	-0.614212	0.190216
C82	C	0.891875	-0.251975	0.252049
C83	C	0.949989	-0.251984	0.252064
C84	C	0.755530	-0.251931	0.388386
C85	C	0.755542	-0.251921	0.446500
C86	C	0.755604	-0.115581	0.252048
C87	C	0.755648	-0.057467	0.252064
C88	C	0.755503	-0.251939	0.116170
C89	C	0.755593	-0.251802	0.058057
C90	C	0.788971	-0.285323	0.697686
C91	C	0.788965	-0.285334	0.643082
O92	O	0.817364	-0.313792	0.614839
N93	N	0.755553	-0.251895	0.615774
C94	C	0.722141	-0.218447	0.643073
O95	O	0.693720	-0.190006	0.614832
C96	C	0.722144	-0.218439	0.697677
C97	C	0.755562	-0.251877	0.724982
C98	C	0.822386	-0.318758	0.724991
C99	C	0.822392	-0.318747	0.779592
C100	C	0.788983	-0.285300	0.806887
C101	C	0.755568	-0.251865	0.779582
C102	C	0.688729	-0.184994	0.724975
C103	C	0.688735	-0.184989	0.779582
C104	C	0.722153	-0.218427	0.806887
C105	C	0.722165	-0.218406	0.861478
N106	N	0.755578	-0.251845	0.888786
C107	C	0.788986	-0.285292	0.861491
C108	C	0.722136	-0.218467	0.528403
C109	C	0.722135	-0.218472	0.473800
C110	C	0.788959	-0.285360	0.473813
C111	C	0.788962	-0.285352	0.528416
C112	C	0.755548	-0.251906	0.555710
C113	C	0.788997	-0.285264	0.976156
C114	C	0.789002	-0.285248	1.030761
C115	C	0.722176	-0.218363	1.030744
C116	C	0.722173	-0.218377	0.976144
C117	C	0.755585	-0.251832	0.948851
O118	O	0.693780	-0.189965	0.889756
O119	O	0.817397	-0.313733	0.889739
H120	H	0.305301	-0.346190	0.345950
H121	H	0.816174	-0.312580	0.550644
H122	H	0.661516	-0.157767	0.702753
H123	H	-0.044936	-0.312732	0.312619
H124	H	-0.044935	-0.191239	0.191502
O125	O	0.656094	-0.697842	0.351216
C126	C	0.585451	-0.636289	0.358175
C127	C	0.622273	-0.666324	0.321452
H128	H	0.558091	-0.610807	0.334124
H129	H	0.609400	-0.610652	0.385528
H130	H	0.561577	-0.665205	0.382061
H131	H	0.646156	-0.637445	0.297531
H132	H	0.598294	-0.691969	0.294133
O133	O	0.689706	-0.185826	1.057184
C134	C	0.623392	-0.119516	1.051424
C135	C	0.660150	-0.156324	1.021415
H136	H	0.599479	-0.095661	1.022519
H137	H	0.647392	-0.092141	1.076992
H138	H	0.596065	-0.143527	1.076985
H139	H	0.687484	-0.132355	0.995827
H140	H	0.636118	-0.183700	0.995881
H141	H	0.694929	-0.191238	0.451573
O142	O	0.689423	-0.446801	0.317866
C143	C	0.623093	-0.452578	0.384168
C144	C	0.659916	-0.482577	0.347415
H145	H	0.599234	-0.481490	0.408075
H146	H	0.595723	-0.427063	0.360163
H147	H	0.647093	-0.426967	0.411500
H148	H	0.635958	-0.508217	0.320076
H149	H	0.687287	-0.508060	0.371452
O150	O	0.058326	-0.185948	0.186198
C151	C	0.052544	-0.119509	0.120005
C152	C	0.022548	-0.156348	0.156754
H153	H	0.023630	-0.095561	0.096197
H154	H	0.078064	-0.143449	0.092584
H155	H	0.078151	-0.092220	0.144058
H156	H	-0.003087	-0.183645	0.132743
H157	H	-0.002939	-0.132376	0.184177
O158	O	0.453189	-0.317930	0.317872
C159	C	0.436511	-0.343416	0.406767
C160	C	0.466511	-0.306580	0.370019
H161	H	0.447262	-0.334245	0.448936
H162	H	0.447231	-0.385569	0.397549
H163	H	0.392796	-0.337680	0.401019
H164	H	0.510233	-0.312270	0.375746
H165	H	0.455747	-0.264440	0.379246
O166	O	0.202035	-0.152403	0.152851
C167	C	0.207814	-0.085992	0.086628
C168	C	0.237812	-0.122858	0.123341
H169	H	0.236726	-0.062103	0.062751
H170	H	0.182295	-0.058652	0.110661
H171	H	0.182205	-0.109960	0.059265
H172	H	0.263449	-0.098932	0.150711
H173	H	0.263297	-0.150199	0.099274
H174	H	0.694968	-0.191142	0.953911
H175	H	0.694909	-0.953360	0.312656
O176	O	0.854893	-0.351267	0.698562
C177	C	0.921157	-0.417623	0.704355
C178	C	0.884372	-0.380827	0.734346
H179	H	0.944993	-0.441540	0.733273
H180	H	0.948550	-0.393653	0.678826
H181	H	0.897130	-0.444945	0.678758
H182	H	0.908357	-0.353498	0.759971
H183	H	0.856977	-0.404830	0.759842
O184	O	0.309648	-0.152522	0.152829
C185	C	0.371229	-0.145386	0.082219
C186	C	0.341178	-0.182201	0.118946
H187	H	0.396720	-0.169367	0.054808
H188	H	0.396859	-0.118087	0.106240
H189	H	0.342323	-0.121445	0.058394
H190	H	0.370046	-0.206176	0.142779
H191	H	0.315541	-0.209465	0.094896
O192	O	0.821451	-0.317680	1.057365
C193	C	0.851065	-0.347326	1.141486
C194	C	0.814299	-0.310565	1.111425
H195	H	0.845288	-0.341594	1.185198
H196	H	0.893239	-0.338149	1.130802
H197	H	0.841859	-0.389481	1.130706
H198	H	0.823458	-0.268398	1.122188
H199	H	0.772136	-0.319787	1.122111
H200	H	0.694928	-0.191226	0.550623
H201	H	0.694764	-0.550073	0.312613
O202	O	0.854913	-0.351154	0.806131
C203	C	0.925498	-0.358194	0.867809
C204	C	0.888705	-0.321432	0.837785
H205	H	0.952822	-0.334180	0.893416
H206	H	0.949409	-0.382085	0.838932
H207	H	0.901474	-0.385542	0.893335
H208	H	0.912690	-0.294053	0.812258
H209	H	0.864793	-0.297578	0.866690
O210	O	0.821621	-0.949092	0.186185
C211	C	0.887969	-0.954840	0.119901
C212	C	0.851150	-0.984855	0.156653
H213	H	0.911845	-0.983742	0.096007
H214	H	0.915324	-0.929254	0.143904
H215	H	0.863966	-0.929297	0.092556
H216	H	0.875110	-1.010426	0.184005
H217	H	0.823793	-1.010408	0.132617
H218	H	0.694938	-1.052410	0.312659
O219	O	0.656260	-0.152449	0.806014
C220	C	0.589952	-0.086134	0.800235
C221	C	0.626711	-0.122951	0.770237
H222	H	0.566044	-0.062283	0.771322
H223	H	0.613952	-0.058756	0.825799
H224	H	0.562620	-0.110138	0.825797
H225	H	0.654050	-0.098989	0.744646
H226	H	0.602678	-0.150330	0.744705
O227	O	0.656138	-0.805453	0.351352
C228	C	0.589751	-0.799697	0.417596
C229	C	0.626548	-0.769686	0.380817
H230	H	0.565810	-0.770792	0.441421
H231	H	0.613723	-0.825207	0.445000
H232	H	0.562452	-0.825314	0.393565
H233	H	0.653854	-0.744040	0.404807
H234	H	0.602543	-0.744209	0.353412
O235	O	0.854966	-0.697769	0.152850
C236	C	0.925569	-0.636092	0.145888
C237	C	0.888761	-0.666156	0.182612
H238	H	0.952908	-0.610533	0.169937
H239	H	0.901606	-0.610529	0.118525
H240	H	0.949466	-0.664989	0.122011
H241	H	0.864856	-0.637296	0.206523
H242	H	0.912754	-0.691727	0.209941
H243	H	0.556475	-0.312691	0.312530
O244	O	0.058342	-0.318003	0.317903
C245	C	0.052572	-0.384448	0.384093
C246	C	0.022568	-0.347614	0.347353
H247	H	0.023662	-0.408405	0.407905
H248	H	0.078146	-0.360505	0.411511
H249	H	0.078124	-0.411730	0.360032
H250	H	-0.003013	-0.320324	0.371372
H251	H	-0.002973	-0.371589	0.319934
H252	H	0.457403	-0.191193	0.191436
O253	O	0.821628	-1.056737	0.186300
C254	C	0.851369	-1.140850	0.156774
C255	C	0.814490	-1.110798	0.193426
H256	H	0.845602	-1.184564	0.162514
H257	H	0.893513	-1.130084	0.166050
H258	H	0.842267	-1.130145	0.114590
H259	H	0.823545	-1.121487	0.235622
H260	H	0.772357	-1.121567	0.184105
H261	H	0.816175	-0.550010	0.191408
H262	H	0.816208	-0.312504	0.953940
H263	H	0.556470	-0.191192	0.191422
O264	O	0.201906	-0.351483	0.351137
C265	C	0.140265	-0.422123	0.358048
C266	C	0.170308	-0.385270	0.321350
H267	H	0.114719	-0.449456	0.333980
H268	H	0.114692	-0.398195	0.385430
H269	H	0.169177	-0.446024	0.381906
H270	H	0.141433	-0.361361	0.297459
H271	H	0.195888	-0.409228	0.294003
O272	O	0.821361	-0.317838	0.447211
C273	C	0.850979	-0.347471	0.363090
C274	C	0.814253	-0.310675	0.393152
H275	H	0.845253	-0.341684	0.319378
H276	H	0.841764	-0.389638	0.373771
H277	H	0.893143	-0.338304	0.373872
H278	H	0.772077	-0.319794	0.382387
H279	H	0.823513	-0.268518	0.382469
H280	H	0.816127	-0.450959	0.191392
H281	H	0.849722	-0.801168	0.158037
