data_functionalizedCrystal
_audit_creation_method	'MofGen! by Chris Wilmer'
_symmetry_space_group_name_H-M	'P1'
_symmetry_Int_Tables_number	1
_symmetry_cell_setting	triclinic
loop_
_symmetry_equiv_pos_as_xyz
  x,y,z
_cell_length_a	16.625548
_cell_length_b	19.077356
_cell_length_c	19.077174
_cell_angle_alpha	89.923556
_cell_angle_beta	92.315520
_cell_angle_gamma	92.300340
loop_
_atom_site_label
_atom_site_type_symbol
_atom_site_fract_x
_atom_site_fract_y
_atom_site_fract_z
Zn1	Zn	1.236930	-0.295704	0.386130
Zn2	Zn	1.736930	0.204296	0.886130
Zn3	Zn	1.226077	-0.408496	0.263925
Zn4	Zn	1.726077	0.091504	0.763925
Zn5	Zn	1.096910	-0.291007	0.268636
Zn6	Zn	1.596910	0.208993	0.768636
Zn7	Zn	1.096488	-0.413178	0.381394
Zn8	Zn	1.596488	0.086822	0.881394
O9	O	1.164101	-0.352096	0.325021
O10	O	1.664101	0.147904	0.825021
O11	O	1.348323	-0.310672	0.369930
O12	O	1.848323	0.189328	0.869930
O13	O	1.204577	-0.388985	0.166217
O14	O	1.704577	0.111015	0.666217
O15	O	1.120203	-0.193298	0.288175
O16	O	1.620203	0.306702	0.788175
O17	O	1.340350	-0.393540	0.280146
O18	O	1.840350	0.106460	0.780146
O19	O	1.223075	-0.196749	0.374498
O20	O	1.723075	0.303251	0.874498
O21	O	1.109679	-0.302667	0.169678
O22	O	1.609679	0.197333	0.669678
O23	O	0.984021	-0.307207	0.283583
O24	O	1.484021	0.192793	0.783583
O25	O	1.119484	-0.401520	0.480355
O26	O	1.619484	0.098480	0.980355
O27	O	0.983711	-0.396966	0.366426
O28	O	1.483711	0.103034	0.866426
O29	O	1.222666	-0.315213	0.483835
O30	O	1.722666	0.184787	0.983835
O31	O	1.204168	-0.507449	0.275554
O32	O	1.704168	-0.007449	0.775554
O33	O	1.108960	-0.510889	0.361858
O34	O	1.608960	-0.010889	0.861858
C35	C	1.155363	-0.534666	0.317696
C36	C	1.655363	-0.034666	0.817696
C37	C	1.151699	-0.612771	0.314586
C38	C	1.651699	-0.112771	0.814586
C39	C	0.954610	-0.352085	0.325002
C40	C	1.454610	0.147915	0.825002
C41	C	0.864989	-0.352098	0.325010
C42	C	1.364989	0.147902	0.825010
C43	C	1.172238	-0.359413	0.508305
C44	C	1.672238	0.140587	1.008305
C45	C	1.175706	-0.362530	0.586409
C46	C	1.675706	0.137470	1.086409
C47	C	0.536814	-0.352104	0.325040
C48	C	1.036814	0.147896	0.825040
C49	C	0.628122	-0.352101	0.325029
C50	C	1.128122	0.147899	0.825029
C51	C	0.700899	-0.352102	0.325024
C52	C	1.200899	0.147898	0.825024
C53	C	0.792213	-0.352097	0.325015
C54	C	1.292213	0.147903	0.825015
C55	C	1.374411	-0.352108	0.325041
C56	C	1.874411	0.147892	0.825041
C57	C	1.464032	-0.352113	0.325049
C58	C	1.964032	0.147887	0.825049
C59	C	1.172897	-0.168814	0.332390
C60	C	1.672897	0.331186	0.832390
C61	C	1.176645	-0.090710	0.335531
C62	C	1.676645	0.409290	0.835531
C63	C	1.124849	-0.052219	0.292064
C64	C	1.624849	0.447781	0.792064
C65	C	1.128369	0.021167	0.295022
C66	C	1.628369	0.521167	0.795022
C67	C	1.183690	0.056061	0.341443
C68	C	1.683690	0.556061	0.841443
C69	C	1.235489	0.017565	0.384915
C70	C	1.735489	0.517565	0.884915
C71	C	1.231964	-0.055820	0.381960
C72	C	1.731964	0.444180	0.881960
C73	C	1.199973	0.275347	0.355102
C74	C	1.699973	0.775347	0.855102
C75	C	1.203496	0.348738	0.358052
C76	C	1.703496	0.848738	0.858052
C77	C	1.096375	0.352335	0.268160
C78	C	1.596375	0.852335	0.768160
C79	C	1.092858	0.278948	0.265207
C80	C	1.592858	0.778948	0.765207
C81	C	1.144653	0.240458	0.308681
C82	C	1.644653	0.740458	0.808681
N83	N	1.187292	0.131074	0.344466
N84	N	1.687292	0.631074	0.844466
N85	N	1.141047	0.165446	0.305661
N86	N	1.641047	0.665446	0.805661
C87	C	1.156045	-0.344758	0.142453
C88	C	1.656045	0.155242	0.642453
C89	C	1.152743	-0.341442	0.064356
C90	C	1.652743	0.158558	0.564356
C91	C	1.127929	-0.319055	0.624904
C92	C	1.627929	0.180945	1.124904
C93	C	1.131183	-0.321990	0.698292
C94	C	1.631183	0.178010	1.198292
C95	C	1.182220	-0.368398	0.733183
C96	C	1.682220	0.131602	1.233183
C97	C	1.229999	-0.411878	0.694682
C98	C	1.729999	0.088122	1.194682
C99	C	1.226740	-0.408946	0.621296
C100	C	1.726740	0.091054	1.121296
C101	C	1.197263	-0.381990	0.952470
C102	C	1.697263	0.118010	1.452470
C103	C	1.200520	-0.384918	1.025861
C104	C	1.700520	0.115082	1.525861
C105	C	1.101703	-0.295030	1.029466
C106	C	1.601703	0.204970	1.529466
C107	C	1.098451	-0.292099	0.956078
C108	C	1.598451	0.207901	1.456078
C109	C	1.146227	-0.335582	0.917584
C110	C	1.646227	0.164418	1.417584
N111	N	1.185550	-0.371398	0.808196
N112	N	1.685550	0.128602	1.308196
N113	N	1.142893	-0.332585	0.842572
N114	N	1.642893	0.167415	1.342572
H115	H	1.086192	0.052506	0.259628
H116	H	1.586192	0.552506	0.759628
N117	N	1.282121	-0.459285	0.730331
N118	N	1.782121	0.040715	1.230331
N119	N	1.285026	-0.461898	0.795853
N120	N	1.785026	0.038102	1.295853
H121	H	1.321839	-0.495379	0.821030
H122	H	1.821839	0.004621	1.321030
N123	N	1.284874	-0.095151	0.426348
N124	N	1.784874	0.404849	0.926348
N125	N	1.281721	-0.160673	0.423704
N126	N	1.781721	0.339327	0.923704
H127	H	1.319089	-0.188451	0.455055
H128	H	1.819089	0.311549	0.955055
H129	H	1.056889	-0.254311	0.927675
H130	H	1.556889	0.245689	1.427675
N131	N	1.275559	-0.453343	0.581973
N132	N	1.775559	0.046657	1.081973
N133	N	1.326308	-0.426986	0.542023
N134	N	1.826308	0.073014	1.042023
H135	H	1.360787	-0.458344	0.514252
H136	H	1.860787	0.041656	1.014252
N137	N	1.291981	0.053217	0.432341
N138	N	1.791981	0.553217	0.932341
N139	N	1.295118	0.118739	0.434977
N140	N	1.795118	0.618739	0.934977
H141	H	1.335016	0.143918	0.468474
H142	H	1.835016	0.643918	0.968474
H143	H	1.054204	0.383680	0.232766
H144	H	1.554204	0.883680	0.732766
H145	H	1.086374	-0.281261	0.596502
H146	H	1.586374	0.218739	1.096502
H147	H	1.047811	0.250542	0.227404
H148	H	1.547811	0.750542	0.727404
H149	H	1.092275	-0.286590	0.729631
H150	H	1.592275	0.213410	1.229631
H151	H	1.062806	-0.259629	1.060815
H152	H	1.562806	0.240371	1.560815
H153	H	1.248548	0.377145	0.395856
H154	H	1.748548	0.877145	0.895856
H155	H	1.242157	0.244018	0.390494
H156	H	1.742157	0.744018	0.890494
H157	H	1.079803	-0.080625	0.254260
H158	H	1.579803	0.419375	0.754260
H159	H	1.242084	-0.422709	1.054267
H160	H	1.742084	0.077291	1.554267
N161	N	1.246067	-0.426411	0.913166
N162	N	1.746067	0.073589	1.413166
N163	N	1.291632	-0.467841	0.944330
N164	N	1.791632	0.032159	1.444330
H165	H	1.326103	-0.499216	0.916570
H166	H	1.826103	0.000784	1.416570
