data_functionalizedCrystal
_audit_creation_method	'MofGen! by Chris Wilmer'
_symmetry_space_group_name_H-M	'P1'
_symmetry_Int_Tables_number	1
_symmetry_cell_setting	triclinic
loop_
_symmetry_equiv_pos_as_xyz
  x,y,z
_cell_length_a	15.698487
_cell_length_b	21.606444
_cell_length_c	21.606444
_cell_angle_alpha	60.001331
_cell_angle_beta	90.003081
_cell_angle_gamma	59.998956
loop_
_atom_site_label
_atom_site_type_symbol
_atom_site_fract_x
_atom_site_fract_y
_atom_site_fract_z
Zr1	Zr	0.820615	0.677437	-0.081179
O2	O	0.684588	0.806562	-0.180005
O3	O	0.862315	0.548316	-0.050886
O4	O	0.862304	0.677440	-0.180005
O5	O	0.684606	0.677433	0.050967
O6	O	1.002489	0.677438	-0.180001
O7	O	0.684599	0.677438	-0.050887
O8	O	1.002508	0.446459	0.050968
O9	O	0.684586	0.908412	-0.180002
O10	O	0.984717	0.601422	-0.037961
O11	O	0.880104	0.601420	0.038049
O12	O	0.880091	0.753447	-0.113971
O13	O	0.775478	0.753446	-0.037961
Zr14	Zr	1.044204	0.677426	0.081272
Zr15	Zr	1.044193	0.677433	-0.081173
Zr16	Zr	0.820626	0.677430	0.081267
Zr17	Zr	0.820612	0.839877	-0.081174
Zr18	Zr	1.044206	0.514986	0.081267
O19	O	1.002503	0.806546	0.050980
O20	O	1.002487	0.806556	-0.179997
O21	O	0.684604	0.806552	0.050971
O22	O	1.180231	0.548301	0.180099
O23	O	1.180215	0.548311	-0.050878
O24	O	0.862332	0.548306	0.180090
O25	O	1.180213	0.677429	-0.050874
O26	O	1.002514	0.677422	0.180098
O27	O	0.862330	0.677425	0.180094
O28	O	1.180220	0.677425	0.050980
O29	O	0.862301	0.908409	-0.179997
O30	O	1.002517	0.446453	0.180091
O31	O	1.180232	0.446450	0.180095
O32	O	1.180223	0.446456	0.050973
O33	O	0.684595	0.908407	-0.050879
O34	O	0.862310	0.908404	-0.050875
O35	O	0.984727	0.601415	0.114065
O36	O	1.089340	0.601417	0.038055
O37	O	0.984715	0.753442	-0.037956
O38	O	0.880102	0.753441	0.038054
C39	C	0.932412	0.474243	0.000040
C40	C	0.932413	0.405283	0.000038
C41	C	0.652747	0.677436	0.000039
C42	C	0.557832	0.677438	0.000037
C43	C	0.987018	0.372886	-0.039640
C44	C	0.987021	0.308086	-0.039634
C45	C	0.932414	0.275689	0.000044
C46	C	0.877808	0.308088	0.039726
C47	C	0.877811	0.372883	0.039725
C48	C	0.877796	0.046779	0.039733
C49	C	0.877794	-0.018018	0.039729
C50	C	0.987006	-0.018017	-0.039627
C51	C	0.987009	0.046777	-0.039628
C52	C	0.932408	0.079168	0.000057
C53	C	0.932406	0.149430	0.000052
C54	C	0.932409	0.205432	0.000045
C55	C	0.480750	0.677440	0.000038
C56	C	0.384053	0.677435	0.000046
C57	C	1.212071	0.677426	0.000054
C58	C	1.306986	0.677425	0.000057
C59	C	0.932395	0.677440	-0.203148
C60	C	0.932390	0.677443	-0.272110
C61	C	0.932406	0.880619	0.000053
C62	C	0.932405	0.949579	0.000056
C63	C	0.877776	0.756798	-0.344186
C64	C	0.877785	0.756796	-0.408980
C65	C	0.932403	0.677437	-0.401698
C66	C	0.987024	0.598076	-0.329615
C67	C	0.987020	0.598079	-0.264822
C68	C	0.987040	0.598061	-0.590918
C69	C	0.987037	0.598064	-0.655719
C70	C	0.877805	0.756777	-0.735077
C71	C	0.877802	0.756780	-0.670283
C72	C	0.932427	0.677420	-0.598207
C73	C	0.932418	0.677423	-0.527949
C74	C	0.932406	0.677433	-0.471954
C75	C	0.932423	0.677423	0.203241
C76	C	0.932428	0.677420	0.272204
C77	C	1.212074	0.474238	0.000048
C78	C	1.306990	0.405277	0.000048
C79	C	0.932426	0.474235	0.203235
C80	C	0.932432	0.405271	0.272195
C81	C	1.212089	0.474230	0.203242
C82	C	1.307009	0.405265	0.272205
C83	C	0.652730	0.880633	-0.203149
C84	C	0.557810	0.949598	-0.272111
C85	C	0.652744	0.880624	0.000046
C86	C	0.557829	0.949586	0.000046
C87	C	0.932392	0.880628	-0.203141
C88	C	0.932386	0.949591	-0.272101
C89	C	1.296951	0.372894	-0.039638
C90	C	1.386126	0.308106	-0.039653
C91	C	1.485339	0.275697	0.000023
C92	C	1.495376	0.308086	0.039710
C93	C	1.406202	0.372878	0.039720
C94	C	0.987047	0.372883	0.344265
C95	C	0.987049	0.308094	0.409067
C96	C	0.932441	0.275690	0.401796
C97	C	0.877819	0.308085	0.329718
C98	C	0.877812	0.372877	0.264918
C99	C	1.406201	0.372879	0.264914
C100	C	1.495397	0.308088	0.329706
C101	C	1.485400	0.275680	0.401787
C102	C	1.386197	0.308072	0.409076
C103	C	1.297003	0.372866	0.344286
C104	C	0.458618	0.981991	-0.264821
C105	C	0.369421	1.046802	-0.329612
C106	C	0.379419	1.079214	-0.401694
C107	C	0.478621	1.046817	-0.408983
C108	C	0.567815	0.982012	-0.344192
C109	C	0.567867	0.981975	0.039725
C110	C	0.478693	1.046781	0.039722
C111	C	0.379480	1.079192	0.000044
C112	C	0.369443	1.046800	-0.039640
C113	C	0.458617	0.982000	-0.039641
C114	C	0.987005	0.981974	-0.264807
C115	C	0.987020	1.046764	-0.329596
C116	C	0.932409	1.079174	-0.401679
C117	C	0.877789	1.046784	-0.408972
C118	C	0.877781	0.981991	-0.344184
H119	H	1.031485	0.281708	-0.071942
H120	H	1.557941	0.222939	0.000009
N121	N	1.045930	0.512490	-0.187081
H122	H	1.080531	0.462215	-0.192298
H123	H	0.995790	0.509032	-0.158468
N124	N	0.818865	0.947068	-0.352057
H125	H	0.784274	0.977437	-0.407554
H126	H	0.763957	0.958352	-0.326911
H127	H	1.031471	0.073156	-0.071941
H128	H	1.031470	-0.044400	-0.071938
N129	N	0.932456	0.205801	0.471689
H130	H	0.901383	0.228354	0.502875
H131	H	1.006449	0.152063	0.502813
H132	H	0.932424	1.131932	-0.454428
H133	H	0.833315	0.821414	-0.467665
H134	H	0.833327	1.073182	-0.467671
N135	N	1.602378	0.273154	0.321823
H136	H	1.641817	0.208110	0.346938
H137	H	1.641746	0.284492	0.346913
H138	H	1.216240	0.399227	0.350232
N139	N	0.818899	-0.052968	0.082531
H140	H	0.784314	-0.022620	0.107675
H141	H	0.869054	-0.118015	0.122416
N142	N	0.283304	1.149084	0.000048
H143	H	0.304727	1.164678	0.031210
H144	H	0.240420	1.126486	0.022613
H145	H	1.031497	1.073129	-0.323643
H146	H	0.288652	1.073199	-0.071945
N147	N	1.602386	0.273128	0.082501
H148	H	1.657346	0.227168	0.076470
H149	H	1.610660	0.246281	0.137991
N150	N	0.674864	0.947039	0.082519
H151	H	0.714293	0.958314	0.046126
H152	H	0.714226	0.882005	0.122453
N153	N	0.818919	0.407821	0.082525
H154	H	0.742519	0.434708	0.061714
H155	H	0.827291	0.453746	0.076495
N156	N	1.375422	0.273113	0.486823
H157	H	1.446983	0.227150	0.526756
H158	H	1.335998	0.246269	0.492829
N159	N	0.447781	0.947068	-0.082440
H160	H	0.371397	0.977437	-0.107572
H161	H	0.482396	0.882024	-0.046010
H162	H	1.031475	0.955597	-0.206119
H163	H	1.031520	0.533441	-0.532239
H164	H	1.031516	0.399259	0.350200
N165	N	1.417015	0.407822	0.187179
H166	H	1.382442	0.472866	0.158527
H167	H	1.382472	0.396483	0.158582
H168	H	1.414390	0.399235	0.072041
N169	N	0.489531	1.081709	0.082526
H170	H	0.565915	1.051333	0.107667
H171	H	0.454909	1.070437	0.122414
H172	H	0.833340	0.073140	0.072050
N173	N	1.045908	0.407833	-0.082442
H174	H	1.080501	0.377474	-0.107576
H175	H	1.100814	0.396556	-0.046011
N176	N	1.045968	0.273159	0.486801
H177	H	1.080568	0.303515	0.481568
H178	H	1.100871	0.208112	0.515417
H179	H	0.833351	0.281701	0.072038
H180	H	0.833322	0.821402	-0.676220
N181	N	0.818862	0.842393	-0.352042
H182	H	0.784268	0.892663	-0.407536
H183	H	0.869004	0.845850	-0.326885
H184	H	0.833330	0.821396	-0.793772
N185	N	0.283215	1.149100	-0.471574
H186	H	0.283157	1.202875	-0.502765
H187	H	0.218914	1.164624	-0.455952
N188	N	1.045959	0.512466	-0.647866
H189	H	1.080569	0.462191	-0.592374
H190	H	1.100853	0.509023	-0.673024
N191	N	1.045943	0.512480	-0.321757
H192	H	1.037657	0.524518	-0.373739
H193	H	1.017272	0.477825	-0.293104
N194	N	0.447819	0.947038	-0.187081
H195	H	0.371441	0.977403	-0.192305
H196	H	0.482451	0.958306	-0.158464
N197	N	0.818930	0.273126	0.321882
H198	H	0.827235	0.227162	0.373873
H199	H	0.847613	0.246282	0.293238
H200	H	1.377933	0.281743	-0.071971
N201	N	1.189950	0.407839	-0.082433
H202	H	1.197138	0.377489	-0.107575
H203	H	1.150566	0.472886	-0.122319
H204	H	1.558036	0.222921	0.454538
H205	H	0.833341	0.399239	0.206238
H206	H	0.486749	1.073215	-0.467679
N207	N	0.262434	1.081734	-0.321741
H208	H	0.269643	1.051357	-0.266245
H209	H	0.223044	1.070467	-0.346901
N210	N	0.674800	0.947073	-0.352061
H211	H	0.667588	0.977442	-0.407558
H212	H	0.714177	0.882030	-0.326916
