data_functionalizedCrystal
_audit_creation_method	'MofGen! by Chris Wilmer'
_symmetry_space_group_name_H-M	'P1'
_symmetry_Int_Tables_number	1
_symmetry_cell_setting	triclinic
loop_
_symmetry_equiv_pos_as_xyz
  x,y,z
_cell_length_a	14.908571
_cell_length_b	12.645329
_cell_length_c	14.908308
_cell_angle_alpha	86.730911
_cell_angle_beta	89.824947
_cell_angle_gamma	86.714286
loop_
_atom_site_label
_atom_site_type_symbol
_atom_site_fract_x
_atom_site_fract_y
_atom_site_fract_z
Zn1	Zn	1.345315	-0.553226	0.587598
Zn2	Zn	1.678648	-0.219893	0.920931
Zn3	Zn	2.011981	0.113441	1.254264
Zn4	Zn	1.353901	-0.720904	0.437243
Zn5	Zn	1.687234	-0.387571	0.770576
Zn6	Zn	2.020568	-0.054238	1.103910
Zn7	Zn	1.203629	-0.532864	0.428595
Zn8	Zn	1.536963	-0.199531	0.761928
Zn9	Zn	1.870296	0.133803	1.095262
Zn10	Zn	1.194929	-0.719645	0.578895
Zn11	Zn	1.528262	-0.386312	0.912228
Zn12	Zn	1.861595	-0.052978	1.245561
O13	O	1.274443	-0.631660	0.508083
O14	O	1.607777	-0.298327	0.841416
O15	O	1.941110	0.035007	1.174749
O16	O	1.472280	-0.584517	0.574914
O17	O	1.805613	-0.251184	0.908248
O18	O	2.138947	0.082149	1.241581
O19	O	1.341202	-0.687966	0.310271
O20	O	1.674535	-0.354633	0.643604
O21	O	2.007868	-0.021299	0.976938
O22	O	1.222472	-0.387223	0.449710
O23	O	1.555805	-0.053889	0.783044
O24	O	1.889139	0.279444	1.116377
O25	O	1.478588	-0.707710	0.464449
O26	O	1.811922	-0.374377	0.797783
O27	O	2.145255	-0.041043	1.131116
O28	O	1.326568	-0.402182	0.566529
O29	O	1.659901	-0.068849	0.899862
O30	O	1.993234	0.264484	1.233196
O31	O	1.230798	-0.549814	0.303917
O32	O	1.564131	-0.216480	0.637251
O33	O	1.897464	0.116853	0.970584
O34	O	1.076649	-0.548592	0.441271
O35	O	1.409982	-0.215259	0.774604
O36	O	1.743315	0.118074	1.107938
O37	O	1.207643	-0.705564	0.705874
O38	O	1.540976	-0.372230	1.039207
O39	O	1.874310	-0.038897	1.372541
O40	O	1.070256	-0.685819	0.551695
O41	O	1.403590	-0.352486	0.885029
O42	O	1.736923	-0.019153	1.218362
O43	O	1.318131	-0.583296	0.712268
O44	O	1.651464	-0.249963	1.045602
O45	O	1.984798	0.083370	1.378935
O46	O	1.332765	-0.869080	0.456010
O47	O	1.666098	-0.535746	0.789343
O48	O	1.999432	-0.202413	1.122677
O49	O	1.215969	-0.868154	0.560081
O50	O	1.549302	-0.534821	0.893414
O51	O	1.882635	-0.201488	1.226748
C52	C	1.040827	-0.614861	0.494601
C53	C	1.374161	-0.281527	0.827934
C54	C	1.707494	0.051806	1.161268
C55	C	0.940884	-0.607701	0.488855
C56	C	1.274217	-0.274367	0.822188
C57	C	1.607551	0.058966	1.155521
C58	C	1.274378	-0.907084	0.508061
C59	C	1.607711	-0.573750	0.841394
C60	C	1.941044	-0.240417	1.174727
C61	C	1.274430	-1.024919	0.508086
C62	C	1.607763	-0.691586	0.841419
C63	C	1.941097	-0.358252	1.174753
C64	C	0.746481	-0.737341	0.592888
C65	C	1.079814	-0.404008	0.926221
C66	C	1.413148	-0.070675	1.259554
C67	C	0.652575	-0.730618	0.587492
C68	C	0.985909	-0.397284	0.920825
C69	C	1.319242	-0.063951	1.254158
C70	C	0.659165	-0.587525	0.472672
C71	C	0.992498	-0.254191	0.806006
C72	C	1.325831	0.079142	1.139339
C73	C	0.753070	-0.594249	0.478068
C74	C	1.086404	-0.260915	0.811401
C75	C	1.419737	0.072418	1.144735
C76	C	0.796725	-0.669161	0.538177
C77	C	1.130059	-0.335827	0.871510
C78	C	1.463392	-0.002494	1.204844
C79	C	0.890633	-0.675889	0.543568
C80	C	1.223966	-0.342555	0.876901
C81	C	1.557300	-0.009222	1.210234
C82	C	0.897220	-0.532791	0.428753
C83	C	1.230554	-0.199458	0.762087
C84	C	1.563887	0.133875	1.095420
C85	C	0.803315	-0.526068	0.423357
C86	C	1.136648	-0.192734	0.756691
C87	C	1.469981	0.140599	1.090024
C88	C	1.200923	-1.069258	0.573515
C89	C	1.534257	-0.735925	0.906848
C90	C	1.867590	-0.402592	1.240181
C91	C	1.201194	-1.191858	0.573833
C92	C	1.534527	-0.858524	0.907166
C93	C	1.867860	-0.525191	1.240499
C94	C	1.367887	-1.201134	0.539090
C95	C	1.701220	-0.867801	0.872423
C96	C	2.034554	-0.534468	1.205756
C97	C	1.367374	-1.078532	0.539537
C98	C	1.700708	-0.745199	0.872870
C99	C	2.034041	-0.411865	1.206203
C100	C	1.255490	-1.062382	0.411598
C101	C	1.588823	-0.729049	0.744931
C102	C	1.922156	-0.395715	1.078264
C103	C	1.253451	-1.184880	0.412018
C104	C	1.586784	-0.851547	0.745351
C105	C	1.920117	-0.518214	1.078684
C106	C	1.508972	-0.648526	0.521617
C107	C	1.842305	-0.315192	0.854951
C108	C	2.175638	0.018141	1.188284
C109	C	1.608914	-0.655713	0.527385
C110	C	1.942247	-0.322379	0.860718
C111	C	2.275580	0.010954	1.194052
C112	C	1.260959	-0.646561	0.742608
C113	C	1.594292	-0.313227	1.075942
C114	C	1.927625	0.020106	1.409275
C115	C	1.255212	-0.652911	0.842549
C116	C	1.588546	-0.319577	1.175883
C117	C	1.921879	0.013756	1.509216
C118	C	1.274533	-0.355164	0.508126
C119	C	1.607866	-0.021830	0.841459
C120	C	1.941199	0.311503	1.174792
C121	C	1.274571	-0.237337	0.508144
C122	C	1.607904	0.095996	0.841478
C123	C	1.941237	0.429329	1.174811
C124	C	1.287927	-0.616744	0.274472
C125	C	1.621261	-0.283411	0.607806
C126	C	1.954594	0.049922	0.941139
C127	C	1.293848	-0.610108	0.174542
C128	C	1.627181	-0.276775	0.507875
C129	C	1.960514	0.056558	0.841209
C130	C	1.359463	-0.537501	1.037009
C131	C	1.692796	-0.204167	1.370342
C132	C	2.026130	0.129166	1.703675
C133	C	1.354067	-0.543463	1.130912
C134	C	1.687400	-0.210130	1.464245
C135	C	2.020733	0.123203	1.797579
C136	C	1.239019	-0.670793	1.124261
C137	C	1.572353	-0.337459	1.457595
C138	C	1.905686	-0.004126	1.790928
C139	C	1.244416	-0.664830	1.030358
C140	C	1.577749	-0.331496	1.363691
C141	C	1.911082	0.001837	1.697024
C142	C	1.304641	-0.598183	0.986735
C143	C	1.637974	-0.264849	1.320068
C144	C	1.971307	0.068484	1.653402
C145	C	1.310041	-0.592226	0.892830
C146	C	1.643374	-0.258893	1.226163
C147	C	1.976707	0.074440	1.559497
C148	C	1.194990	-0.719549	0.886180
C149	C	1.528323	-0.386216	1.219514
C150	C	1.861656	-0.052882	1.552847
C151	C	1.189593	-0.725512	0.980084
C152	C	1.522927	-0.392178	1.313417
C153	C	1.856260	-0.058845	1.646751
H154	H	0.926175	-0.736888	0.592510
H155	H	1.259509	-0.403554	0.925843
H156	H	1.592842	-0.070221	1.259176
H157	H	1.408505	-0.483240	1.001491
H158	H	1.741838	-0.149906	1.334824
H159	H	2.075172	0.183427	1.668157
H160	H	1.303537	-1.215385	0.360252
H161	H	1.636871	-0.882052	0.693586
H162	H	1.970204	-0.548719	1.026919
H163	H	1.423731	-1.049580	0.494238
H164	H	1.757064	-0.716247	0.827572
H165	H	2.090397	-0.382914	1.160905
H166	H	0.782026	-0.798343	0.641826
H167	H	1.115359	-0.465010	0.975159
H168	H	1.448692	-0.131676	1.308492
H169	H	1.150351	-0.768964	0.845237
H170	H	1.483685	-0.435631	1.178571
H171	H	1.817018	-0.102297	1.511904
H172	H	1.189987	-0.725053	1.159795
H173	H	1.523320	-0.391719	1.493129
H174	H	1.856654	-0.058386	1.826462
H175	H	1.423953	-1.230935	0.493154
H176	H	1.757287	-0.897602	0.826487
H177	H	2.090620	-0.564268	1.159821
H178	H	0.611669	-0.786136	0.632045
H179	H	0.945003	-0.452802	0.965378
H180	H	1.278336	-0.119469	1.298711
H181	H	1.398706	-0.494047	1.171842
H182	H	1.732040	-0.160713	1.505175
H183	H	2.065373	0.172620	1.838508
H184	H	1.384997	-1.237664	0.609052
H185	H	1.718330	-0.904331	0.942385
H186	H	2.051663	-0.570997	1.275719
H187	H	0.938140	-0.477276	0.384202
H188	H	1.271473	-0.143942	0.717535
H189	H	1.604806	0.189391	1.050868
H190	H	1.131834	-1.215981	0.553855
H191	H	1.465167	-0.882648	0.887189
H192	H	1.798501	-0.549314	1.220522
H193	H	1.212873	-1.044003	0.644488
H194	H	1.546207	-0.710669	0.977821
H195	H	1.879540	-0.377336	1.311154
H196	H	1.140558	-0.779772	1.015615
H197	H	1.473892	-0.446438	1.348948
H198	H	1.807225	-0.113105	1.682281
H199	H	1.188849	-1.025193	0.384425
H200	H	1.522183	-0.691860	0.717758
H201	H	1.855516	-0.358527	1.051091
H202	H	0.623604	-0.526529	0.423740
H203	H	0.956937	-0.193195	0.757074
H204	H	1.290271	0.140138	1.090407
H205	H	1.131291	-1.033812	0.553697
H206	H	1.464624	-0.700479	0.887031
H207	H	1.797958	-0.367146	1.220364
H208	H	0.767758	-0.465074	0.374421
H209	H	1.101091	-0.131741	0.707755
H210	H	1.434425	0.201593	1.041088
H211	H	1.213386	-1.226780	0.645228
H212	H	1.546719	-0.893447	0.978561
H213	H	1.880053	-0.560113	1.311895
H214	H	1.184802	-1.207833	0.388775
H215	H	1.518136	-0.874499	0.722109
H216	H	1.851469	-0.541166	1.055442
H217	H	1.359080	-0.537960	0.857314
H218	H	1.692414	-0.204627	1.190647
H219	H	2.025747	0.128706	1.523980
H220	H	1.309089	-1.033666	0.362783
H221	H	1.642423	-0.700333	0.696117
H222	H	1.975756	-0.367000	1.029450
H223	H	1.384042	-1.055781	0.610225
H224	H	1.717375	-0.722448	0.943559
H225	H	2.050709	-0.389115	1.276892
