data_functionalizedCrystal
_audit_creation_method	'MofGen! by Chris Wilmer'
_symmetry_space_group_name_H-M	'P1'
_symmetry_Int_Tables_number	1
_symmetry_cell_setting	triclinic
loop_
_symmetry_equiv_pos_as_xyz
  x,y,z
_cell_length_a	27.732048
_cell_length_b	19.288865
_cell_length_c	26.210047
_cell_angle_alpha	90.009860
_cell_angle_beta	90.010925
_cell_angle_gamma	82.889452
loop_
_atom_site_label
_atom_site_type_symbol
_atom_site_fract_x
_atom_site_fract_y
_atom_site_fract_z
O1	O	-0.641185	-0.082647	-0.042369
O2	O	-0.141185	0.417353	0.457631
O3	O	-0.500430	-0.095213	-0.042385
O4	O	-0.000430	0.404787	0.457615
O5	O	-0.574875	0.012226	-0.042367
O6	O	-0.074875	0.512226	0.457633
O7	O	-0.566740	-0.190086	-0.042388
O8	O	-0.066740	0.309914	0.457612
O9	O	-0.574851	0.012226	0.042492
O10	O	-0.074851	0.512226	0.542492
O11	O	-0.500406	-0.095213	0.042473
O12	O	-0.000406	0.404787	0.542473
O13	O	-0.641162	-0.082647	0.042489
O14	O	-0.141162	0.417353	0.542489
Cu15	Cu	-0.570782	-0.088930	0.050229
Cu16	Cu	-0.070782	0.411070	0.550229
Cu17	Cu	-0.570810	-0.088930	-0.050125
Cu18	Cu	-0.070810	0.411070	0.449875
O19	O	-0.566717	-0.190086	0.042470
O20	O	-0.066717	0.309914	0.542470
C21	C	-0.574601	0.038100	0.000064
C22	C	-0.074601	0.538100	0.500064
C23	C	-0.573816	0.115199	0.000068
C24	C	-0.073816	0.615199	0.500068
C25	C	-0.482410	-0.094950	0.000042
C26	C	0.017590	0.405050	0.500042
C27	C	-0.428753	-0.094155	0.000036
C28	C	0.071247	0.405845	0.500036
C29	C	-0.659181	-0.082910	0.000061
C30	C	-0.159181	0.417090	0.500061
C31	C	-0.712839	-0.083705	0.000063
C32	C	-0.212839	0.416295	0.500063
C33	C	-0.090115	-0.152644	0.000052
C34	C	0.409885	0.347356	0.500052
C35	C	0.111554	-0.149697	0.000057
C36	C	0.611554	0.350303	0.500057
O37	O	0.142648	-0.203181	0.000073
O38	O	0.642648	0.296819	0.500073
N39	N	0.130870	-0.085990	0.000063
N40	N	0.630870	0.414010	0.500063
C41	C	0.099766	-0.023015	0.000071
C42	C	0.599766	0.476985	0.500071
O43	O	0.120823	0.031239	0.000081
O44	O	0.620823	0.531239	0.500081
C45	C	-0.101902	-0.025963	0.000069
C46	C	0.398098	0.474037	0.500069
C47	C	-0.121215	-0.089674	0.000058
C48	C	0.378785	0.410326	0.500058
C49	C	-0.109428	-0.216350	0.000042
C50	C	0.390572	0.283650	0.500042
C51	C	-0.159843	-0.217086	0.000038
C52	C	0.340157	0.282914	0.500038
C53	C	-0.190943	-0.154116	0.000044
C54	C	0.309057	0.345884	0.500044
C55	C	-0.171629	-0.090410	0.000054
C56	C	0.328371	0.409590	0.500054
C57	C	-0.133005	0.037011	0.000081
C58	C	0.366995	0.537011	0.500081
C59	C	-0.183425	0.036268	0.000082
C60	C	0.316575	0.536268	0.500082
C61	C	-0.202738	-0.027443	0.000071
C62	C	0.297262	0.472557	0.500071
C63	C	-0.253144	-0.028177	0.000057
C64	C	0.246856	0.471823	0.500057
N65	N	-0.272460	-0.091884	0.000051
N66	N	0.227540	0.408116	0.500051
C67	C	-0.241360	-0.154853	0.000045
C68	C	0.258640	0.345147	0.500045
C69	C	0.205644	-0.021472	0.000070
C70	C	0.705644	0.478528	0.500070
C71	C	0.256061	-0.020735	0.000070
C72	C	0.756061	0.479265	0.500070
C73	C	0.267846	-0.147417	0.000057
C74	C	0.767846	0.352583	0.500057
C75	C	0.217428	-0.148153	0.000054
C76	C	0.717428	0.351847	0.500054
C77	C	0.186328	-0.085179	0.000064
C78	C	0.686328	0.414821	0.500064
C79	C	-0.347234	-0.156395	0.000036
C80	C	0.152766	0.343605	0.500036
C81	C	-0.397653	-0.157125	0.000030
C82	C	0.102347	0.342875	0.500030
C83	C	-0.409433	-0.030444	0.000045
C84	C	0.090567	0.469556	0.500045
C85	C	-0.359018	-0.029713	0.000049
C86	C	0.140982	0.470287	0.500049
C87	C	-0.327919	-0.092694	0.000046
C88	C	0.172081	0.407306	0.500046
O89	O	-0.284266	0.025278	0.000046
O90	O	0.215734	0.525278	0.500046
O91	O	-0.262426	-0.209100	0.000046
O92	O	0.237574	0.290900	0.500046
C93	C	-0.039701	-0.151908	0.000056
C94	C	0.460299	0.348092	0.500056
C95	C	-0.020387	-0.088202	0.000066
C96	C	0.479613	0.411798	0.500066
C97	C	-0.051487	-0.025232	0.000073
C98	C	0.448513	0.474768	0.500073
C99	C	0.030030	-0.087465	0.000066
C100	C	0.530030	0.412535	0.500066
C101	C	0.061130	-0.150435	0.000059
C102	C	0.561130	0.349565	0.500059
C103	C	0.041814	-0.214142	0.000054
C104	C	0.541814	0.285858	0.500054
C105	C	-0.008600	-0.214878	0.000050
C106	C	0.491400	0.285122	0.500050
C107	C	-0.032171	0.038475	0.000079
C108	C	0.467829	0.538475	0.500079
C109	C	0.018244	0.039206	0.000082
C110	C	0.518244	0.539206	0.500082
C111	C	0.049344	-0.023764	0.000076
C112	C	0.549344	0.476236	0.500076
C113	C	-0.566990	-0.215961	0.000039
C114	C	-0.066990	0.284039	0.500039
C115	C	-0.567776	-0.293059	0.000031
C116	C	-0.067776	0.206941	0.500031
N117	N	-0.570766	-0.088930	0.120813
N118	N	-0.070766	0.411070	0.620813
C119	C	-0.617496	0.160168	0.000076
C120	C	-0.117496	0.660168	0.500076
C121	C	-0.616758	0.232610	0.000068
C122	C	-0.116758	0.732610	0.500068
C123	C	-0.572337	0.260081	0.000062
C124	C	-0.072337	0.760081	0.500062
C125	C	-0.528650	0.215102	0.000052
C126	C	-0.028650	0.715102	0.500052
C127	C	-0.529390	0.142661	0.000055
C128	C	-0.029390	0.642661	0.500055
C129	C	-0.537408	0.368150	0.029782
C130	C	-0.037408	0.868150	0.529782
C131	C	-0.536671	0.440590	0.029782
C132	C	-0.036671	0.940590	0.529782
C133	C	-0.570054	0.483512	0.000051
C134	C	-0.070054	0.983512	0.500051
C135	C	-0.604184	0.453987	-0.029675
C136	C	-0.104184	0.953987	0.470325
C137	C	-0.604924	0.381546	-0.029672
C138	C	-0.104924	0.881546	0.470328
C139	C	-0.571530	0.338630	0.000059
C140	C	-0.071530	0.838630	0.500059
C141	C	-0.612938	0.607032	0.000049
C142	C	-0.112938	1.107032	0.500049
C143	C	-0.612198	0.679475	0.000037
C144	C	-0.112198	1.179475	0.500037
C145	C	-0.524089	0.661966	0.000027
C146	C	-0.024089	1.161966	0.500027
C147	C	-0.524830	0.589524	0.000033
C148	C	-0.024830	1.089524	0.500033
C149	C	-0.569256	0.562062	0.000046
C150	C	-0.069256	1.062062	0.500046
N151	N	-0.570829	-0.088925	-0.120709
N152	N	-0.070829	0.411075	0.379291
C153	C	-0.600028	-0.130760	0.473326
C154	C	-0.100028	0.369240	0.973326
C155	C	-0.600042	-0.130760	0.686985
C156	C	-0.100042	0.369240	1.186985
O157	O	-0.624911	-0.166318	0.714606
O158	O	-0.124911	0.333682	1.214606
N159	N	-0.570821	-0.088923	0.713707
N160	N	-0.070821	0.411077	1.213707
C161	C	-0.541597	-0.047080	0.687011
C162	C	-0.041597	0.452920	1.187011
O163	O	-0.516746	-0.011490	0.714643
O164	O	-0.016746	0.488510	1.214643
C165	C	-0.541585	-0.047077	0.473354
C166	C	-0.041585	0.452923	0.973354
C167	C	-0.570805	-0.088922	0.446634
C168	C	-0.070805	0.411078	0.946634
C169	C	-0.629245	-0.172601	0.446607
C170	C	-0.129245	0.327399	0.946607
C171	C	-0.629240	-0.172604	0.393195
C172	C	-0.129240	0.327396	0.893195
C173	C	-0.600016	-0.130766	0.366503
C174	C	-0.100016	0.369234	0.866503
C175	C	-0.570799	-0.088925	0.393223
C176	C	-0.070799	0.411075	0.893223
C177	C	-0.512364	-0.005231	0.446659
C178	C	-0.012364	0.494769	0.946659
C179	C	-0.512365	-0.005232	0.393241
C180	C	-0.012365	0.494768	0.893241
C181	C	-0.541584	-0.047077	0.366522
C182	C	-0.041584	0.452923	0.866522
C183	C	-0.541570	-0.047089	0.313119
C184	C	-0.041570	0.452911	0.813119
N185	N	-0.570791	-0.088926	0.286397
N186	N	-0.070791	0.411074	0.786397
C187	C	-0.600014	-0.130764	0.313089
C188	C	-0.100014	0.369236	0.813089
C189	C	-0.541604	-0.047085	0.799185
C190	C	-0.041604	0.452915	1.299185
C191	C	-0.541606	-0.047087	0.852599
C192	C	-0.041606	0.452913	1.352599
C193	C	-0.600053	-0.130766	0.852569
C194	C	-0.100053	0.369234	1.352569
C195	C	-0.600047	-0.130768	0.799153
C196	C	-0.100047	0.369232	1.299153
C197	C	-0.570825	-0.088922	0.772462
C198	C	-0.070825	0.411078	1.272462
C199	C	-0.599999	-0.130767	0.200921
C200	C	-0.099999	0.369233	0.700921
C201	C	-0.599989	-0.130768	0.147505
C202	C	-0.099989	0.369232	0.647505
C203	C	-0.541545	-0.047086	0.147540
C204	C	-0.041545	0.452914	0.647540
C205	C	-0.541553	-0.047088	0.200951
C206	C	-0.041553	0.452912	0.700951
C207	C	-0.570784	-0.088930	0.227641
C208	C	-0.070784	0.411070	0.727641
O209	O	-0.516719	-0.011543	0.285465
O210	O	-0.016719	0.488457	0.785465
O211	O	-0.624869	-0.166337	0.285448
O212	O	-0.124869	0.333663	0.785448
C213	C	-0.600034	-0.130758	0.526738
C214	C	-0.100034	0.369242	1.026738
C215	C	-0.570816	-0.088917	0.553457
C216	C	-0.070816	0.411083	1.053457
C217	C	-0.541593	-0.047079	0.526765
C218	C	-0.041593	0.452921	1.026765
C219	C	-0.570819	-0.088918	0.606871
C220	C	-0.070819	0.411082	1.106871
C221	C	-0.600042	-0.130757	0.633563
C222	C	-0.100042	0.369243	1.133563
C223	C	-0.629263	-0.172593	0.606841
C224	C	-0.129263	0.327407	1.106841
C225	C	-0.629257	-0.172596	0.553429
C226	C	-0.129257	0.327404	1.053429
C227	C	-0.512372	-0.005242	0.553488
C228	C	-0.012372	0.494758	1.053488
C229	C	-0.512380	-0.005243	0.606899
C230	C	-0.012380	0.494757	1.106899
C231	C	-0.541603	-0.047081	0.633591
C232	C	-0.041603	0.452919	1.133591
H233	H	-0.413374	-0.209008	0.000021
H234	H	0.086626	0.290992	0.500021
H235	H	-0.632712	0.357510	-0.053876
H236	H	-0.132712	0.857510	0.446124
C237	C	-0.664809	0.282085	0.000080
C238	C	-0.164809	0.782085	0.500080
H239	H	-0.691373	0.255354	0.000091
H240	H	-0.191373	0.755354	0.500091
H241	H	-0.666363	0.310704	-0.029511
H242	H	-0.166363	0.810704	0.470489
H243	H	-0.666338	0.310711	0.029676
H244	H	-0.166338	0.810711	0.529676
H245	H	-0.117290	0.088891	0.000090
H246	H	0.382710	0.588891	0.500090
C247	C	-0.509402	-0.001066	0.118174
C248	C	-0.009402	0.498934	0.618174
H249	H	-0.491997	0.023854	0.141735
H250	H	0.008003	0.523854	0.641735
H251	H	-0.529282	0.031093	0.097336
H252	H	-0.029282	0.531093	0.597336
H253	H	-0.487091	-0.029755	0.097341
H254	H	0.012909	0.470245	0.597341
H255	H	-0.488571	0.028845	0.468405
H256	H	0.011429	0.528845	0.968405
C257	C	-0.661403	-0.218620	0.524045
C258	C	-0.161403	0.281380	1.024045
H259	H	-0.678809	-0.243528	0.547598
H260	H	-0.178809	0.256472	1.047598
H261	H	-0.641528	-0.250787	0.503208
H262	H	-0.141528	0.249213	1.003208
H263	H	-0.683713	-0.189931	0.503208
H264	H	-0.183713	0.310069	1.003208
H265	H	-0.488568	0.028845	0.371512
H266	H	0.011432	0.528845	0.871512
H267	H	0.201707	-0.200032	0.000048
H268	H	0.701707	0.299968	0.500048
H269	H	0.067145	-0.265414	0.000046
H270	H	0.567145	0.234586	0.500046
C271	C	-0.640906	0.501191	-0.062385
C272	C	-0.140906	1.001191	0.437615
H273	H	-0.635575	0.548562	-0.058136
H274	H	-0.135575	1.048562	0.441864
H275	H	-0.673006	0.495680	-0.051930
H276	H	-0.173006	0.995680	0.448070
H277	H	-0.636784	0.488459	-0.097272
H278	H	-0.136784	0.988459	0.402728
C279	C	-0.661386	-0.218627	0.363810
C280	C	-0.161386	0.281373	0.863810
H281	H	-0.678792	-0.243535	0.387363
H282	H	-0.178792	0.256465	0.887363
H283	H	-0.641512	-0.250794	0.342973
H284	H	-0.141512	0.249206	0.842973
H285	H	-0.683696	-0.189937	0.342974
H286	H	-0.183696	0.310063	0.842974
H287	H	-0.175562	-0.268966	0.000029
H288	H	0.324438	0.231034	0.500029
H289	H	-0.487920	0.684331	0.000020
H290	H	0.012080	1.184331	0.500020
H291	H	-0.488581	0.028830	0.628649
H292	H	0.011419	0.528830	1.128649
H293	H	-0.321918	-0.207680	0.000035
H294	H	0.178082	0.292320	0.500035
H295	H	-0.623845	-0.164835	0.874310
H296	H	-0.123845	0.335165	1.374310
H297	H	-0.647770	0.716089	0.000041
H298	H	-0.147770	1.216089	0.500041
H299	H	-0.488575	0.028830	0.531760
H300	H	0.011425	0.528830	1.031760
H301	H	-0.343293	0.022166	0.000050
H302	H	0.156707	0.522166	0.500050
H303	H	-0.489260	0.552909	0.000029
H304	H	0.010740	1.052909	0.500029
C305	C	-0.443647	0.038819	0.000049
C306	C	0.056353	0.538819	0.500049
H307	H	-0.424927	0.076871	0.000051
H308	H	0.075073	0.576871	0.500051
H309	H	-0.463557	0.041161	0.029640
H310	H	0.036443	0.541161	0.529640
H311	H	-0.463562	0.041161	-0.029548
H312	H	0.036438	0.541161	0.470452
H313	H	-0.517754	-0.013023	0.222708
H314	H	-0.017754	0.486977	0.722708
H315	H	-0.649112	0.584671	0.000057
H316	H	-0.149112	1.084671	0.500057
H317	H	-0.024320	-0.266758	0.000042
H318	H	0.475680	0.233242	0.500042
C319	C	0.039485	0.109291	0.000091
C320	C	0.539485	0.609291	0.500091
H321	H	0.073966	0.100718	0.000089
H322	H	0.573966	0.600718	0.500089
H323	H	0.028801	0.135193	0.029685
H324	H	0.528801	0.635193	0.529685
H325	H	0.028796	0.135193	-0.029503
H326	H	0.528796	0.635193	0.470497
C327	C	0.277303	0.049345	0.000072
C328	C	0.777303	0.549345	0.500072
H329	H	0.311783	0.040772	0.000067
H330	H	0.811783	0.540772	0.500067
H331	H	0.266622	0.075251	0.029666
H332	H	0.766622	0.575251	0.529666
H333	H	0.266611	0.075244	-0.029521
H334	H	0.766611	0.575244	0.470479
C335	C	-0.661409	-0.218613	0.636209
C336	C	-0.161409	0.281387	1.136209
H337	H	-0.657226	-0.212610	0.671846
H338	H	-0.157226	0.287390	1.171846
H339	H	-0.652326	-0.266230	0.627456
H340	H	-0.152326	0.233770	1.127456
H341	H	-0.694510	-0.205374	0.627449
H342	H	-0.194510	0.294626	1.127449
H343	H	-0.510222	0.333208	0.053996
H344	H	-0.010222	0.833208	0.553996
C345	C	-0.066375	0.107745	0.000081
C346	C	0.433625	0.607745	0.500081
H347	H	-0.047646	0.145787	0.000081
H348	H	0.452354	0.645787	0.500081
H349	H	-0.086287	0.110101	0.029670
H350	H	0.413713	0.610101	0.529670
H351	H	-0.086288	0.110091	-0.029517
H352	H	0.413712	0.610091	0.470483
H353	H	0.293177	-0.198689	0.000052
H354	H	0.793177	0.301311	0.500052
C355	C	-0.499131	0.473062	0.062478
C356	C	0.000869	0.973062	0.562478
H357	H	-0.479348	0.437125	0.080179
H358	H	0.020652	0.937125	0.580179
H359	H	-0.515544	0.504647	0.086387
H360	H	-0.015544	1.004647	0.586387
H361	H	-0.479331	0.497438	0.041036
H362	H	0.020669	0.997438	0.541036
C363	C	-0.217632	0.105541	0.000088
C364	C	0.282368	0.605541	0.500088
H365	H	-0.198906	0.143586	0.000090
H366	H	0.301094	0.643586	0.500090
H367	H	-0.237543	0.107892	0.029677
H368	H	0.262457	0.607892	0.529677
H369	H	-0.237546	0.107887	-0.029510
H370	H	0.262454	0.607887	0.470490
H371	H	-0.492482	0.237473	0.000046
H372	H	0.007518	0.737473	0.500046
C373	C	-0.481340	0.093191	0.000048
C374	C	0.018660	0.593191	0.500048
H375	H	-0.488143	0.046114	0.000048
H376	H	0.011857	0.546114	0.500048
H377	H	-0.463107	0.101473	0.029635
H378	H	0.036893	0.601473	0.529635
H379	H	-0.463129	0.101457	-0.029553
H380	H	0.036871	0.601457	0.470447
H381	H	-0.623783	-0.164846	0.125752
H382	H	-0.123783	0.335154	0.625752
H383	H	-0.623802	-0.164838	0.222645
H384	H	-0.123802	0.335162	0.722645
C385	C	-0.632194	-0.176788	0.769767
C386	C	-0.132194	0.323212	1.269767
H387	H	-0.649599	-0.201700	0.793318
H388	H	-0.149599	0.298300	1.293318
H389	H	-0.612320	-0.208953	0.748927
H390	H	-0.112320	0.291047	1.248927
H391	H	-0.654505	-0.148097	0.748932
H392	H	-0.154505	0.351903	1.248932
H393	H	-0.653672	0.137813	0.000085
H394	H	-0.153672	0.637813	0.500085
C395	C	-0.509460	-0.001064	0.881985
C396	C	-0.009460	0.498936	1.381985
H397	H	-0.492060	0.023855	0.858433
H398	H	0.007940	0.523855	1.358433
H399	H	-0.487152	-0.029746	0.902824
H400	H	0.012848	0.470254	1.402824
H401	H	-0.529341	0.031104	0.902820
H402	H	-0.029341	0.531104	1.402820
C403	C	-0.509453	-0.001059	0.769831
C404	C	-0.009453	0.498941	1.269831
H405	H	-0.492049	0.023848	0.793400
H406	H	0.007951	0.523848	1.293400
H407	H	-0.529324	0.031110	0.748992
H408	H	-0.029324	0.531110	1.248992
H409	H	-0.487141	-0.029748	0.748998
H410	H	0.012859	0.470252	1.248998
H411	H	-0.653045	-0.206671	0.468333
H412	H	-0.153045	0.293329	0.968333
H413	H	-0.084111	-0.267630	0.000038
H414	H	0.415889	0.232370	0.500038
H415	H	0.180326	0.029812	0.000079
H416	H	0.680326	0.529812	0.500079
