data_functionalizedCrystal
_audit_creation_method	'MofGen! by Chris Wilmer'
_symmetry_space_group_name_H-M	'P1'
_symmetry_Int_Tables_number	1
_symmetry_cell_setting	triclinic
loop_
_symmetry_equiv_pos_as_xyz
  x,y,z
_cell_length_a	14.971491
_cell_length_b	19.188930
_cell_length_c	17.666332
_cell_angle_alpha	89.990320
_cell_angle_beta	89.992325
_cell_angle_gamma	83.380508
loop_
_atom_site_label
_atom_site_type_symbol
_atom_site_fract_x
_atom_site_fract_y
_atom_site_fract_z
O1	O	1.186463	0.091003	-0.062990
O2	O	1.686463	0.591003	0.437010
O3	O	0.926006	0.101895	-0.062985
O4	O	1.426006	0.601895	0.437015
O5	O	1.063751	-0.005182	-0.062973
O6	O	1.563751	0.494818	0.437027
O7	O	1.048718	0.198081	-0.063002
O8	O	1.548718	0.698081	0.436998
O9	O	1.063735	-0.005185	0.062924
O10	O	1.563735	0.494815	0.562924
O11	O	0.925990	0.101893	0.062912
O12	O	1.425990	0.601893	0.562912
O13	O	1.186448	0.091001	0.062907
O14	O	1.686448	0.591001	0.562907
Cu15	Cu	1.056218	0.096446	0.074405
Cu16	Cu	1.556218	0.596446	0.574405
Cu17	Cu	1.056236	0.096450	-0.074483
Cu18	Cu	1.556236	0.596450	0.425517
O19	O	1.048703	0.198078	0.062895
O20	O	1.548703	0.698078	0.562895
C21	C	0.892676	0.101406	-0.000036
C22	C	1.392676	0.601406	0.499964
C23	C	0.793387	0.099945	-0.000033
C24	C	1.293387	0.599945	0.499967
C25	C	0.365723	0.093639	-0.068676
C26	C	0.865723	0.593639	0.431324
C27	C	0.459016	0.095010	-0.068674
C28	C	0.959016	0.595010	0.431326
C29	C	0.505650	0.095699	-0.000045
C30	C	1.005650	0.595699	0.499955
C31	C	0.458987	0.095009	0.068586
C32	C	0.958987	0.595009	0.568586
C33	C	0.365697	0.093633	0.068582
C34	C	0.865697	0.593633	0.568582
C35	C	0.653434	0.097879	0.068588
C36	C	1.153434	0.597879	0.568588
C37	C	0.746730	0.099257	0.068592
C38	C	1.246730	0.599257	0.568592
C39	C	0.746753	0.099257	-0.068668
C40	C	1.246753	0.599257	0.431332
C41	C	0.653463	0.097880	-0.068671
C42	C	1.153463	0.597880	0.431329
C43	C	0.606806	0.097192	-0.000040
C44	C	1.106806	0.597192	0.499960
C45	C	1.063256	-0.031196	-0.000022
C46	C	1.563256	0.468804	0.499978
C47	C	1.061795	-0.108705	-0.000016
C48	C	1.561795	0.391295	0.499984
C49	C	1.142619	-0.153368	-0.000013
C50	C	1.642619	0.346632	0.499987
C51	C	1.141246	-0.226196	-0.000025
C52	C	1.641246	0.273804	0.499975
C53	C	1.059044	-0.254358	-0.000025
C54	C	1.559044	0.245642	0.499975
C55	C	0.978210	-0.209686	-0.000031
C56	C	1.478210	0.290314	0.499969
C57	C	0.979585	-0.136859	-0.000027
C58	C	1.479585	0.363141	0.499973
N59	N	0.996206	-0.362567	0.042822
N60	N	1.496206	0.137433	0.542822
N61	N	0.994905	-0.431750	0.042819
N62	N	1.494905	0.068250	0.542819
C63	C	1.054896	-0.473780	-0.000040
C64	C	1.554896	0.026220	0.499960
N65	N	1.116251	-0.444016	-0.042886
N66	N	1.616251	0.055984	0.457114
N67	N	1.117554	-0.374827	-0.042880
N68	N	1.617554	0.125173	0.457120
C69	C	1.057544	-0.333326	-0.000030
C70	C	1.557544	0.166674	0.499970
C71	C	1.134237	-0.597412	-0.000052
C72	C	1.634237	-0.097412	0.499948
C73	C	1.132861	-0.670242	-0.000069
C74	C	1.632861	-0.170242	0.499931
C75	C	0.969822	-0.653730	-0.000067
C76	C	1.469822	-0.153730	0.499933
C77	C	0.971201	-0.580902	-0.000057
C78	C	1.471201	-0.080902	0.499943
C79	C	1.053411	-0.552748	-0.000046
C80	C	1.553411	-0.052748	0.499954
C81	C	1.219777	0.091490	-0.000044
C82	C	1.719777	0.591490	0.499956
C83	C	1.319066	0.092951	-0.000051
C84	C	1.819066	0.592951	0.499949
C85	C	1.049197	0.224092	-0.000057
C86	C	1.549197	0.724092	0.499943
C87	C	1.050659	0.301601	-0.000069
C88	C	1.550659	0.801601	0.499931
N89	N	1.056211	0.096444	0.179124
N90	N	1.556211	0.596444	0.679124
N91	N	1.056249	0.096447	-0.179202
N92	N	1.556249	0.596447	0.320798
C93	C	1.117244	0.049046	0.781180
C94	C	1.617244	0.549046	1.281180
C95	C	1.117246	0.049047	0.701932
C96	C	1.617246	0.549047	1.201932
C97	C	1.056237	0.096443	0.662306
C98	C	1.556237	0.596443	1.162306
C99	C	0.995237	0.143853	0.701933
C100	C	1.495237	0.643853	1.201933
C101	C	0.995243	0.143855	0.781179
C102	C	1.495243	0.643855	1.281179
N103	N	0.977051	0.105235	0.537894
N104	N	1.477051	0.605235	1.037894
N105	N	0.977048	0.105230	0.462613
N106	N	1.477048	0.605230	0.962613
C107	C	1.056216	0.096442	0.423542
C108	C	1.556216	0.596442	0.923542
N109	N	1.135389	0.087646	0.462595
N110	N	1.635389	0.587646	0.962595
N111	N	1.135391	0.087649	0.537882
N112	N	1.635391	0.587649	1.037882
C113	C	1.056224	0.096447	0.576377
C114	C	1.556224	0.596447	1.076377
C115	C	1.117217	0.049040	0.297994
C116	C	1.617217	0.549040	0.797994
C117	C	1.117220	0.049047	0.218745
C118	C	1.617220	0.549047	0.718745
C119	C	0.995204	0.143849	0.218748
C120	C	1.495204	0.643849	0.718748
C121	C	0.995209	0.143846	0.297996
C122	C	1.495209	0.643846	0.797996
C123	C	1.056214	0.096438	0.337614
C124	C	1.556214	0.596438	0.837614
H125	H	0.497001	0.095566	-0.124555
H126	H	0.997001	0.595566	0.375445
H127	H	0.902892	-0.676659	-0.000070
H128	H	1.402892	-0.176659	0.499930
O129	O	0.935863	0.189829	0.819634
O130	O	1.435863	0.689829	1.319634
C131	C	0.847368	0.178378	0.800270
C132	C	1.347368	0.678378	1.300270
H133	H	0.847150	0.122478	0.778493
H134	H	1.347150	0.622478	1.278493
H135	H	0.802452	0.186349	0.852391
H136	H	1.302452	0.686349	1.352391
H137	H	0.820943	0.217046	0.754270
H138	H	1.320943	0.717046	1.254270
O139	O	1.214113	-0.570089	-0.000188
O140	O	1.714113	-0.070089	0.499812
C141	C	1.263379	-0.592904	-0.065387
C142	C	1.763379	-0.092904	0.434613
H143	H	1.215307	-0.608086	-0.110958
H144	H	1.715307	-0.108086	0.389042
H145	H	1.301256	-0.548748	-0.087273
H146	H	1.801256	-0.048748	0.412727
H147	H	1.313411	-0.640326	-0.050654
H148	H	1.813411	-0.140326	0.449346
H149	H	0.496964	0.095566	0.124465
H150	H	0.996964	0.595566	0.624465
H151	H	0.327709	0.093080	0.124464
H152	H	0.827709	0.593080	0.624464
O153	O	0.935905	0.189958	0.180382
O154	O	1.435905	0.689958	0.680382
C155	C	0.882049	0.231782	0.232349
C156	C	1.382049	0.731782	0.732349
H157	H	0.918719	0.232617	0.288832
H158	H	1.418719	0.732617	0.788832
H159	H	0.868184	0.287523	0.209444
H160	H	1.368184	0.787523	0.709444
H161	H	0.815696	0.209026	0.240791
H162	H	1.315696	0.709026	0.740791
O163	O	0.892605	-0.537613	-0.000016
O164	O	1.392605	-0.037613	0.499984
C165	C	0.819755	-0.578083	-0.000037
C166	C	1.319755	-0.078083	0.499963
H167	H	0.842669	-0.632422	0.023793
H168	H	1.342669	-0.132422	0.523793
H169	H	0.763137	-0.551275	0.036518
H170	H	1.263137	-0.051275	0.536518
H171	H	0.794550	-0.583276	-0.060436
H172	H	1.294550	-0.083276	0.439564
O173	O	0.936094	0.189922	0.663361
O174	O	1.436094	0.689922	1.163361
C175	C	0.983821	0.233066	0.617516
C176	C	1.483821	0.733066	1.117516
H177	H	1.053917	0.205345	0.605637
H178	H	1.553917	0.705345	1.105637
H179	H	0.946441	0.244062	0.561794
H180	H	1.446441	0.744062	1.061794
H181	H	0.989700	0.284677	0.648043
H182	H	1.489700	0.784677	1.148043
O183	O	1.176355	0.002927	0.336523
O184	O	1.676355	0.502927	0.836523
C185	C	1.128623	-0.040195	0.382389
C186	C	1.628623	0.459805	0.882389
H187	H	1.058093	-0.041466	0.358513
H188	H	1.558093	0.458534	0.858513
H189	H	1.165333	-0.095644	0.383298
H190	H	1.665333	0.404356	0.883298
H191	H	1.123846	-0.018347	0.442444
H192	H	1.623846	0.481653	0.942444
O193	O	1.176508	0.002932	0.180375
O194	O	1.676508	0.502932	0.680375
C195	C	1.230365	-0.038897	0.232341
C196	C	1.730365	0.461103	0.732341
H197	H	1.193699	-0.039730	0.288835
H198	H	1.693699	0.460270	0.788835
H199	H	1.244222	-0.094638	0.209452
H200	H	1.744222	0.405362	0.709452
H201	H	1.296722	-0.016146	0.240756
H202	H	1.796722	0.483854	0.740756
H203	H	1.166917	0.010447	0.669669
H204	H	1.666917	0.510447	1.169669
H205	H	1.166921	0.010445	0.813435
H206	H	1.666921	0.510445	1.313435
H207	H	1.209561	-0.130450	-0.000007
H208	H	1.709561	0.369550	0.499993
O209	O	1.219844	-0.269492	0.000013
O210	O	1.719844	0.230508	0.500013
C211	C	1.292698	-0.229026	0.000001
C212	C	1.792698	0.270974	0.500001
H213	H	1.269780	-0.174695	0.023836
H214	H	1.769780	0.325305	0.523836
H215	H	1.349302	-0.255849	0.036556
H216	H	1.849302	0.244151	0.536556
H217	H	1.317924	-0.223810	-0.060396
H218	H	1.817924	0.276190	0.439604
H219	H	0.911280	-0.232620	-0.000032
H220	H	1.411280	0.267380	0.499968
O221	O	0.936035	0.189858	0.336602
O222	O	1.436035	0.689858	0.836602
C223	C	0.949105	0.179684	0.415043
C224	C	1.449105	0.679684	0.915043
H225	H	1.020318	0.153682	0.425860
H226	H	1.520318	0.653682	0.925860
H227	H	0.938945	0.232546	0.445153
H228	H	1.438945	0.732546	0.945153
H229	H	0.898622	0.144598	0.437546
H230	H	1.398622	0.644598	0.937546
O231	O	0.320570	0.092944	-0.135411
O232	O	0.820570	0.592944	0.364589
C233	C	0.381758	0.093862	-0.195981
C234	C	0.881758	0.593862	0.304019
H235	H	0.452043	0.072755	-0.175854
H236	H	0.952043	0.572755	0.324146
H237	H	0.360626	0.059595	-0.243975
H238	H	0.860626	0.559595	0.256025
H239	H	0.382082	0.149979	-0.217091
H240	H	0.882082	0.649979	0.282909
H241	H	0.913766	-0.100494	-0.000028
H242	H	1.413766	0.399506	0.499972
H243	H	0.784696	0.099822	0.124476
H244	H	1.284696	0.599822	0.624476
O245	O	1.211356	-0.713657	-0.000204
O246	O	1.711356	-0.213657	0.499796
C247	C	1.215443	-0.756272	-0.065403
C248	C	1.715443	-0.256272	0.434597
H249	H	1.169608	-0.729630	-0.110975
H250	H	1.669608	-0.229630	0.389025
H251	H	1.287529	-0.764391	-0.087287
H252	H	1.787529	-0.264391	0.412713
H253	H	1.192501	-0.809253	-0.050671
H254	H	1.692501	-0.309253	0.449329
H255	H	0.784745	0.099818	-0.124550
H256	H	1.284745	0.599818	0.375450
O257	O	0.608304	0.097182	-0.135404
O258	O	1.108304	0.597182	0.364596
C259	C	0.669484	0.098101	-0.195979
C260	C	1.169484	0.598101	0.304021
H261	H	0.739773	0.076996	-0.175857
H262	H	1.239773	0.576996	0.324143
H263	H	0.648349	0.063830	-0.243969
H264	H	1.148349	0.563830	0.256031
H265	H	0.669802	0.154216	-0.217093
H266	H	1.169802	0.654216	0.282907
H267	H	0.615447	0.097327	0.124475
H268	H	1.115447	0.597327	0.624475
