data_functionalizedCrystal
_audit_creation_method	'MofGen! by Chris Wilmer'
_symmetry_space_group_name_H-M	'P1'
_symmetry_Int_Tables_number	1
_symmetry_cell_setting	triclinic
loop_
_symmetry_equiv_pos_as_xyz
  x,y,z
_cell_length_a	14.519709
_cell_length_b	27.732048
_cell_length_c	13.596369
_cell_angle_alpha	89.989067
_cell_angle_beta	90.000291
_cell_angle_gamma	83.161400
loop_
_atom_site_label
_atom_site_type_symbol
_atom_site_fract_x
_atom_site_fract_y
_atom_site_fract_z
O1	O	1.222766	0.063362	-0.081675
O2	O	0.954159	0.070824	-0.081706
O3	O	1.096805	-0.003264	-0.081671
O4	O	1.080120	0.137450	-0.081710
O5	O	1.096791	-0.003268	0.081912
O6	O	0.954145	0.070820	0.081877
O7	O	1.222752	0.063358	0.081908
Zn8	Zn	1.088446	0.067088	0.107865
Zn9	Zn	1.088465	0.067094	-0.107663
O10	O	1.080106	0.137446	0.081873
C11	C	0.919799	0.070474	0.000082
C12	C	0.817435	0.069432	0.000071
C13	C	0.442606	0.065596	0.000116
C14	C	0.546896	0.066661	0.000103
C15	C	0.630018	0.067514	0.000093
C16	C	0.734314	0.068579	0.000081
C17	C	1.096448	-0.021274	0.000124
C18	C	1.095393	-0.074934	0.000132
C19	C	1.173048	-0.413378	0.000090
C20	C	1.169135	-0.615057	0.000076
O21	O	1.240145	-0.645973	0.000041
N22	N	1.084552	-0.634585	0.000067
C23	C	1.000941	-0.603690	0.000055
O24	O	0.928909	-0.624927	0.000037
C25	C	1.004855	-0.402012	0.000062
C26	C	1.089444	-0.382487	0.000081
C27	C	1.257630	-0.393853	0.000108
C28	C	1.258607	-0.343436	0.000117
C29	C	1.175003	-0.312545	0.000108
C30	C	1.090421	-0.332071	0.000090
C31	C	0.921246	-0.371118	0.000043
C32	C	0.922232	-0.320696	0.000043
C33	C	1.006820	-0.301171	0.000062
C34	C	1.007794	-0.250763	0.000090
N35	N	1.092377	-0.231235	0.000099
C36	C	1.175981	-0.262126	0.000108
C37	C	0.998893	-0.709574	0.000053
C38	C	0.997914	-0.759993	0.000053
C39	C	1.166108	-0.771356	0.000072
C40	C	1.167086	-0.720936	0.000079
C41	C	1.083476	-0.690045	0.000062
C42	C	1.178028	-0.156247	0.000128
C43	C	1.178998	-0.105825	0.000141
C44	C	1.010804	-0.094466	0.000116
C45	C	1.009833	-0.144883	0.000109
C46	C	1.093453	-0.175773	0.000111
O47	O	0.936822	-0.219818	0.000114
O48	O	1.248004	-0.240879	0.000104
C49	C	1.172071	-0.463795	0.000081
C50	C	1.087489	-0.483320	0.000063
C51	C	1.003885	-0.452429	0.000054
C52	C	1.086510	-0.533740	0.000063
C53	C	1.170115	-0.564631	0.000072
C54	C	1.254698	-0.545103	0.000081
C55	C	1.255675	-0.494686	0.000090
C56	C	0.919302	-0.471957	0.000046
C57	C	0.918331	-0.522375	0.000038
C58	C	1.001936	-0.553266	0.000047
C59	C	1.257113	0.063708	0.000119
C60	C	1.359476	0.064750	0.000123
C61	C	1.080464	0.155456	0.000077
C62	C	1.081518	0.209116	0.000062
N63	N	1.088441	0.067085	0.254957
N64	N	1.088478	0.067094	-0.254754
C65	C	1.088464	0.067094	0.656248
C66	C	1.088454	0.067093	0.544596
C67	C	1.088453	0.067090	0.455606
C68	C	1.088442	0.067088	0.343947
H69	H	1.246119	-0.181392	0.000126
O70	O	0.838000	-0.442023	0.000086
C71	C	0.763145	-0.470076	0.000051
H72	H	0.787113	-0.507687	0.031012
H73	H	0.737185	-0.473681	-0.078430
C74	C	0.654631	-0.398853	0.026180
C75	C	0.684067	-0.445045	0.064214
H76	H	0.605849	-0.383412	0.065754
H77	H	0.705061	-0.379952	0.026200
H78	H	0.633004	-0.401863	-0.039220
H79	H	0.705704	-0.442034	0.129608
H80	H	0.633638	-0.463945	0.064207
O81	O	1.340858	-0.324553	0.000084
C82	C	1.414429	-0.362638	0.000113
H83	H	1.389068	-0.396907	-0.030860
H84	H	1.440177	-0.369758	0.078594
C85	C	1.525422	-0.306243	-0.025991
C86	C	1.494274	-0.348331	-0.064040
H87	H	1.574677	-0.297417	-0.065559
H88	H	1.475857	-0.280584	-0.026007
H89	H	1.546872	-0.312181	0.039410
H90	H	1.472814	-0.342390	-0.129433
H91	H	1.543838	-0.373988	-0.064036
O92	O	0.927645	-0.163832	-0.000079
C93	C	0.876726	-0.148029	-0.084792
H94	H	0.926208	-0.137483	-0.143992
H95	H	0.824854	-0.115223	-0.065636
C96	C	0.763559	-0.202282	-0.050525
C97	C	0.824335	-0.189333	-0.123239
H98	H	0.731238	-0.227759	-0.074240
H99	H	0.797861	-0.212928	0.006550
H100	H	0.720341	-0.174940	-0.034569
H101	H	0.867559	-0.216673	-0.139186
H102	H	0.790038	-0.178693	-0.180318
O103	O	1.335888	-0.575135	-0.000087
C104	C	1.340336	-0.604636	-0.084801
H105	H	1.292915	-0.586205	-0.144015
H106	H	1.316989	-0.641321	-0.065655
C107	C	1.499035	-0.634841	-0.050483
C108	C	1.440798	-0.612202	-0.123215
H109	H	1.561005	-0.639510	-0.074177
H110	H	1.496038	-0.614967	0.006593
H111	H	1.479568	-0.665410	-0.034535
H112	H	1.460258	-0.581632	-0.139153
H113	H	1.443801	-0.632071	-0.180294
H114	H	0.930803	-0.684426	0.000040
O115	O	0.840925	-0.290759	0.000070
C116	C	0.766065	-0.318809	0.000026
H117	H	0.790021	-0.356418	0.030997
H118	H	0.740117	-0.322416	-0.078459
C119	C	0.657557	-0.247580	0.026123
C120	C	0.686979	-0.293771	0.064170
H121	H	0.608771	-0.232134	0.065686
H122	H	0.707991	-0.228681	0.026150
H123	H	0.635940	-0.250592	-0.039280
H124	H	0.708606	-0.290757	0.129568
H125	H	0.636547	-0.312668	0.064156
H126	H	0.942736	-0.069306	0.000113
H127	H	1.247882	-0.089931	0.000158
O128	O	0.836213	-0.541394	-0.000112
C129	C	0.830615	-0.570195	-0.084857
H130	H	0.903487	-0.582683	-0.113085
H131	H	0.789510	-0.547947	-0.144186
C132	C	0.692086	-0.599500	-0.024480
C133	C	0.781589	-0.614842	-0.059145
H134	H	0.661840	-0.627039	-0.008623
H135	H	0.695854	-0.580095	0.032613
H136	H	0.657843	-0.580960	-0.073927
H137	H	0.815833	-0.633376	-0.009694
H138	H	0.777824	-0.634250	-0.116229
O139	O	1.337926	-0.475803	0.000058
C140	C	1.411497	-0.513888	0.000088
H141	H	1.386136	-0.548156	-0.030886
H142	H	1.437244	-0.521008	0.078570
C143	C	1.522491	-0.457492	-0.026012
C144	C	1.491343	-0.499580	-0.064062
H145	H	1.571746	-0.448667	-0.065579
H146	H	1.472926	-0.431834	-0.026028
H147	H	1.543940	-0.463431	0.039389
H148	H	1.469884	-0.493639	-0.129456
H149	H	1.540907	-0.525238	-0.064058
H150	H	1.325714	-0.419000	0.000112
H151	H	1.235965	-0.705043	0.000094
O152	O	1.247299	-0.801388	-0.000101
C153	C	1.251741	-0.830889	-0.084814
H154	H	1.204312	-0.812459	-0.144024
H155	H	1.228398	-0.867575	-0.065663
C156	C	1.410444	-0.861092	-0.050514
C157	C	1.352198	-0.838454	-0.123240
H158	H	1.472411	-0.865760	-0.074215
H159	H	1.407452	-0.841218	0.006561
H160	H	1.390981	-0.891660	-0.034561
H161	H	1.371655	-0.807883	-0.139182
H162	H	1.355196	-0.858323	-0.180318
O163	O	0.915663	-0.778876	0.000002
C164	C	0.842089	-0.740793	0.000017
H165	H	0.867451	-0.706518	-0.030947
H166	H	0.816328	-0.733690	0.078492
C167	C	0.731107	-0.797187	-0.026118
C168	C	0.762256	-0.755090	-0.064156
H169	H	0.681860	-0.806007	-0.065699
H170	H	0.780674	-0.822845	-0.026124
H171	H	0.709646	-0.791262	0.039277
H172	H	0.783727	-0.761018	-0.129545
H173	H	0.712690	-0.729434	-0.064162
H174	H	0.852365	-0.387006	0.000022
