data_functionalizedCrystal
_audit_creation_method	'MofGen! by Chris Wilmer'
_symmetry_space_group_name_H-M	'P1'
_symmetry_Int_Tables_number	1
_symmetry_cell_setting	triclinic
loop_
_symmetry_equiv_pos_as_xyz
  x,y,z
_cell_length_a	18.050591
_cell_length_b	25.639240
_cell_length_c	18.050582
_cell_angle_alpha	90.031820
_cell_angle_beta	90.010544
_cell_angle_gamma	90.031599
loop_
_atom_site_label
_atom_site_type_symbol
_atom_site_fract_x
_atom_site_fract_y
_atom_site_fract_z
Zn1	Zn	1.135269	-0.208200	0.419778
Zn2	Zn	1.635269	0.291800	0.919778
Zn3	Zn	1.135170	-0.295628	0.295568
Zn4	Zn	1.635170	0.204372	0.795568
Zn5	Zn	1.011088	-0.208207	0.295612
Zn6	Zn	1.511088	0.291793	0.795612
Zn7	Zn	1.011026	-0.295605	0.419726
Zn8	Zn	1.511026	0.204395	0.919726
O9	O	1.073138	-0.251910	0.357671
O10	O	1.573138	0.248090	0.857671
O11	O	1.239180	-0.219805	0.403305
O12	O	1.739180	0.280195	0.903305
O13	O	1.118695	-0.284044	0.191649
O14	O	1.618695	0.215956	0.691649
O15	O	1.027628	-0.135041	0.312123
O16	O	1.527628	0.364959	0.812123
O17	O	1.239108	-0.284038	0.312048
O18	O	1.739108	0.215962	0.812048
O19	O	1.118864	-0.135036	0.403347
O20	O	1.618864	0.364964	0.903347
O21	O	1.027532	-0.219816	0.191681
O22	O	1.527532	0.280184	0.691681
O23	O	0.907155	-0.219793	0.312072
O24	O	1.407155	0.280207	0.812072
O25	O	1.027523	-0.283998	0.523658
O26	O	1.527523	0.216002	1.023658
O27	O	0.907110	-0.284004	0.403258
O28	O	1.407110	0.215996	0.903258
O29	O	1.118804	-0.219782	0.523696
O30	O	1.618804	0.280218	1.023696
O31	O	1.118635	-0.368790	0.311998
O32	O	1.618635	0.131210	0.811998
O33	O	1.027427	-0.368773	0.403216
O34	O	1.527427	0.131227	0.903216
C35	C	0.880186	-0.251897	0.357665
C36	C	1.380186	0.248103	0.857665
C37	C	0.797640	-0.251904	0.357680
C38	C	1.297640	0.248096	0.857680
C39	C	0.548812	-0.286894	0.407199
C40	C	1.048812	0.213106	0.907199
C41	C	0.598180	-0.299617	0.339410
C42	C	1.098180	0.200383	0.839410
C43	C	0.500520	-0.251921	0.357678
C44	C	1.000520	0.248079	0.857678
C45	C	0.598233	-0.239215	0.425464
C46	C	1.098233	0.260785	0.925464
C47	C	0.646505	-0.251914	0.357683
C48	C	1.146505	0.248086	0.857683
C49	C	0.548801	-0.264668	0.289854
C50	C	1.048801	0.235332	0.789854
C51	C	0.548850	-0.204244	0.375953
C52	C	1.048850	0.295756	0.875953
C53	C	0.598196	-0.216948	0.308117
C54	C	1.098196	0.283052	0.808117
C55	C	0.416422	-0.251926	0.357677
C56	C	0.916422	0.248074	0.857677
C57	C	0.730602	-0.251909	0.357677
C58	C	1.230602	0.248091	0.857677
C59	C	1.073033	-0.387752	0.357613
C60	C	1.573033	0.112248	0.857613
C61	C	1.073056	-0.445866	0.357613
C62	C	1.573056	0.054134	0.857613
C63	C	1.120668	-0.806189	0.405257
C64	C	1.620668	-0.306189	0.905257
C65	C	1.120690	-0.860793	0.405272
C66	C	1.620690	-0.360793	0.905272
O67	O	1.161046	-0.888995	0.445722
O68	O	1.661046	-0.388995	0.945722
N69	N	1.073241	-0.888149	0.357743
N70	N	1.573241	-0.388149	0.857743
C71	C	1.025763	-0.860898	0.310200
C72	C	1.525763	-0.360898	0.810200
O73	O	0.985405	-0.889180	0.269774
O74	O	1.485405	-0.389180	0.769774
C75	C	1.025737	-0.806294	0.310189
C76	C	1.525737	-0.306294	0.810189
C77	C	1.073194	-0.778941	0.357717
C78	C	1.573194	-0.278941	0.857717
C79	C	1.168121	-0.778835	0.452781
C80	C	1.668121	-0.278835	0.952781
C81	C	1.168099	-0.724235	0.452765
C82	C	1.668099	-0.224235	0.952765
C83	C	1.120626	-0.696988	0.405225
C84	C	1.620626	-0.196988	0.905225
C85	C	1.073173	-0.724341	0.357701
C86	C	1.573173	-0.224341	0.857701
C87	C	0.978255	-0.779044	0.262651
C88	C	1.478255	-0.279044	0.762651
C89	C	0.978234	-0.724437	0.262645
C90	C	1.478234	-0.224437	0.762645
C91	C	1.025691	-0.697084	0.310172
C92	C	1.525691	-0.197084	0.810172
C93	C	1.025679	-0.642493	0.310144
C94	C	1.525679	-0.142493	0.810144
N95	N	1.073127	-0.615137	0.357674
N96	N	1.573127	-0.115137	0.857674
C97	C	1.120601	-0.642384	0.405214
C98	C	1.620601	-0.142384	0.905214
C99	C	1.025818	-0.975568	0.310227
C100	C	1.525818	-0.475568	0.810227
C101	C	1.025846	-1.030171	0.310234
C102	C	1.525846	-0.530171	0.810234
C103	C	1.120773	-1.030062	0.405307
C104	C	1.620773	-0.530062	0.905307
C105	C	1.120748	-0.975459	0.405296
C106	C	1.620748	-0.475459	0.905296
C107	C	1.073267	-0.948212	0.357757
C108	C	1.573267	-0.448212	0.857757
C109	C	1.120553	-0.527719	0.405176
C110	C	1.620553	-0.027719	0.905176
C111	C	1.120530	-0.473114	0.405153
C112	C	1.620530	0.026886	0.905153
C113	C	1.025601	-0.473227	0.310083
C114	C	1.525601	0.026773	0.810083
C115	C	1.025627	-0.527828	0.310102
C116	C	1.525627	-0.027828	0.810102
C117	C	1.073105	-0.555072	0.357655
C118	C	1.573105	-0.055072	0.857655
O119	O	0.985341	-0.614256	0.269717
O120	O	1.485341	-0.114256	0.769717
O121	O	1.160944	-0.614095	0.445640
O122	O	1.660944	-0.114095	0.945640
C123	C	1.266844	-0.251923	0.357677
C124	C	1.766844	0.248077	0.857677
C125	C	1.349390	-0.251929	0.357680
C126	C	1.849390	0.248071	0.857680
C127	C	1.073167	-0.251887	0.551377
C128	C	1.573167	0.248113	1.051377
C129	C	1.073180	-0.251877	0.633922
C130	C	1.573180	0.248123	1.133922
C131	C	1.073264	-0.115537	0.357746
C132	C	1.573264	0.384463	0.857746
C133	C	1.073317	-0.057423	0.357777
C134	C	1.573317	0.442577	0.857777
C135	C	1.073152	-0.251895	0.164719
C136	C	1.573152	0.248105	0.664719
C137	C	1.073284	-0.251758	0.082173
C138	C	1.573284	0.248242	0.582173
C139	C	1.023579	-0.286750	0.833352
C140	C	1.523579	0.213250	1.333352
C141	C	1.091333	-0.299531	0.882736
C142	C	1.591333	0.200469	1.382736
C143	C	1.073217	-0.251837	0.785053
C144	C	1.573217	0.248163	1.285053
C145	C	1.005500	-0.239041	0.882751
C146	C	1.505500	0.260959	1.382751
C147	C	1.073246	-0.251799	0.931038
C148	C	1.573246	0.248201	1.431038
C149	C	1.141006	-0.264643	0.833349
C150	C	1.641006	0.235357	1.333349
C151	C	1.055127	-0.204131	0.833360
C152	C	1.555127	0.295869	1.333360
C153	C	1.122927	-0.216894	0.882721
C154	C	1.622927	0.283106	1.382721
C155	C	1.073199	-0.251860	0.700955
C156	C	1.573199	0.248140	1.200955
C157	C	1.073272	-0.251776	1.015135
C158	C	1.573272	0.248224	1.515135
H159	H	0.527164	-0.163939	0.391433
H160	H	1.027164	0.336061	0.891433
H161	H	0.619946	-0.228471	0.482788
H162	H	1.119946	0.271529	0.982788
C163	C	0.476875	-0.301182	0.517217
C164	C	0.976875	0.198818	1.017217
C165	C	0.519534	-0.326851	0.463662
C166	C	1.019534	0.173149	0.963662
H167	H	0.458805	-0.325851	0.552073
H168	H	0.958805	0.174149	1.052073
H169	H	0.436310	-0.284249	0.493904
H170	H	0.936310	0.215751	0.993904
H171	H	0.506587	-0.276044	0.542001
H172	H	1.006587	0.223956	1.042001
H173	H	0.489820	-0.351987	0.438874
H174	H	0.989820	0.148013	0.938874
H175	H	0.560105	-0.343793	0.486977
H176	H	1.060105	0.156207	0.986977
H177	H	0.619849	-0.339933	0.323950
H178	H	1.119849	0.160067	0.823950
C179	C	1.217626	-0.279213	0.726614
C180	C	1.717626	0.220787	1.226614
C181	C	1.218352	-0.279302	0.804184
C182	C	1.718352	0.220698	1.304184
H183	H	1.265374	-0.288267	0.708610
H184	H	1.765374	0.211733	1.208610
H185	H	1.204693	-0.245446	0.709303
H186	H	1.704693	0.254554	1.209303
H187	H	1.182326	-0.303871	0.709325
H188	H	1.682326	0.196129	1.209325
H189	H	1.253649	-0.254641	0.821474
H190	H	1.753649	0.245359	1.321474
H191	H	1.231295	-0.313074	0.821503
H192	H	1.731295	0.186926	1.321503
H193	H	0.527180	-0.275460	0.232514
H194	H	1.027180	0.224540	0.732514
H195	H	1.039789	-0.163815	0.811655
H196	H	1.539789	0.336185	1.311655
H197	H	0.619743	-0.187369	0.266193
H198	H	1.119743	0.312631	0.766193
H199	H	1.159178	-0.450844	0.443856
H200	H	1.659178	0.049156	0.943856
H201	H	1.159210	-0.549895	0.443903
H202	H	1.659210	-0.049895	0.943903
H203	H	0.939567	-0.702256	0.223933
H204	H	1.439567	-0.202256	0.723933
C205	C	1.261925	-0.729629	0.546744
C206	C	1.761925	-0.229629	1.046744
C207	C	1.220260	-0.694173	0.505016
C208	C	1.720260	-0.194173	1.005016
H209	H	1.294123	-0.711072	0.579006
H210	H	1.794123	-0.211072	1.079006
H211	H	1.290360	-0.750923	0.514413
H212	H	1.790360	-0.250923	1.014413
H213	H	1.229545	-0.750933	0.575121
H214	H	1.729545	-0.250933	1.075121
H215	H	1.252640	-0.672871	0.476634
H216	H	1.752640	-0.172871	0.976634
H217	H	1.191822	-0.672870	0.537350
H218	H	1.691822	-0.172870	1.037350
H219	H	1.164965	-0.187354	0.904261
H220	H	1.664965	0.312646	1.404261
C221	C	1.178420	-0.840177	0.552714
C222	C	1.678420	-0.340177	1.052714
C223	C	1.220312	-0.808779	0.505043
C224	C	1.720312	-0.308779	1.005043
H225	H	1.210648	-0.858657	0.584980
H226	H	1.710648	-0.358657	1.084980
H227	H	1.150177	-0.864287	0.524417
H228	H	1.650177	-0.364287	1.024417
H229	H	1.146034	-0.818878	0.581086
H230	H	1.646034	-0.318878	1.081086
H231	H	1.252695	-0.830079	0.476667
H232	H	1.752695	-0.330079	0.976667
H233	H	1.248568	-0.784666	0.533343
H234	H	1.748568	-0.284666	1.033343
H235	H	1.159391	-0.953191	0.443998
H236	H	1.659391	-0.453191	0.943998
C237	C	1.162942	-1.113722	0.447545
C238	C	1.662942	-0.613722	0.947545
C239	C	1.172951	-1.060020	0.457573
C240	C	1.672951	-0.560020	0.957573
H241	H	1.195150	-1.132216	0.479813
H242	H	1.695150	-0.632216	0.979813
H243	H	1.173852	-1.122685	0.397664
H244	H	1.673852	-0.622685	0.897664
H245	H	1.113035	-1.122685	0.458369
H246	H	1.613035	-0.622685	0.958369
H247	H	1.222857	-1.051056	0.446743
H248	H	1.722857	-0.551056	0.946743
H249	H	1.162046	-1.051053	0.507465
H250	H	1.662046	-0.551053	1.007465
H251	H	0.987155	-0.953387	0.271509
H252	H	1.487155	-0.453387	0.771509
H253	H	0.986989	-0.550100	0.271396
H254	H	1.486989	-0.050100	0.771396
C255	C	0.932014	-1.024780	0.216260
C256	C	1.432014	-0.524780	0.716260
C257	C	0.973684	-1.060234	0.257986
C258	C	1.473684	-0.560234	0.757986
H259	H	0.899805	-1.043339	0.184009
H260	H	1.399805	-0.543339	0.684009
H261	H	0.964384	-1.003481	0.187877
H262	H	1.464384	-0.503481	0.687877
H263	H	0.903582	-1.003480	0.248597
H264	H	1.403582	-0.503480	0.748597
H265	H	1.002121	-1.081530	0.225648
H266	H	1.502121	-0.581530	0.725648
H267	H	0.941310	-1.081541	0.286371
H268	H	1.441310	-0.581541	0.786371
H269	H	0.948221	-0.228234	0.904452
H270	H	1.448221	0.271766	1.404452
C271	C	0.896230	-0.313757	0.830097
C272	C	1.396230	0.186243	1.330097
C273	C	0.966966	-0.326655	0.804083
C274	C	1.466966	0.173345	1.304083
H275	H	0.861284	-0.338396	0.812029
H276	H	1.361284	0.161604	1.312029
H277	H	0.883256	-0.279897	0.813187
H278	H	1.383256	0.220103	1.313187
H279	H	0.896176	-0.314239	0.882719
H280	H	1.396176	0.185761	1.382719
H281	H	0.967022	-0.326169	0.751461
H282	H	1.467022	0.173831	1.251461
H283	H	0.979943	-0.360524	0.820989
H284	H	1.479943	0.139476	1.320989
H285	H	0.986951	-0.451034	0.271374
H286	H	1.486951	0.048966	0.771374
C287	C	0.884409	-0.773644	0.168695
C288	C	1.384409	-0.273644	0.668695
C289	C	0.926082	-0.809101	0.210412
C290	C	1.426082	-0.309101	0.710412
H291	H	0.852193	-0.792200	0.136448
H292	H	1.352193	-0.292200	0.636448
H293	H	0.916776	-0.752345	0.140309
H294	H	1.416776	-0.252345	0.640309
H295	H	0.855984	-0.752344	0.201039
H296	H	1.355984	-0.252344	0.701039
H297	H	0.954511	-0.830398	0.178068
H298	H	1.454511	-0.330398	0.678068
H299	H	0.893710	-0.830409	0.238800
H300	H	1.393710	-0.330409	0.738800
H301	H	1.106652	-0.339859	0.904424
H302	H	1.606652	0.160141	1.404424
