data_functionalizedCrystal
_audit_creation_method	'MofGen! by Chris Wilmer'
_symmetry_space_group_name_H-M	'P1'
_symmetry_Int_Tables_number	1
_symmetry_cell_setting	triclinic
loop_
_symmetry_equiv_pos_as_xyz
  x,y,z
_cell_length_a	19.077068
_cell_length_b	19.805407
_cell_length_c	19.805399
_cell_angle_alpha	89.978936
_cell_angle_beta	87.730571
_cell_angle_gamma	87.673869
loop_
_atom_site_label
_atom_site_type_symbol
_atom_site_fract_x
_atom_site_fract_y
_atom_site_fract_z
Zn1	Zn	-0.280237	-1.023903	0.393561
Zn2	Zn	-0.397936	-1.019269	0.284915
Zn3	Zn	-0.280254	-0.910717	0.280384
Zn4	Zn	-0.397896	-0.906133	0.398057
O5	O	-0.339081	-0.965006	0.339229
O6	O	-0.295859	-1.118005	0.379164
O7	O	-0.382349	-1.004848	0.189598
O8	O	-0.181761	-0.929590	0.291619
O9	O	-0.382332	-1.114600	0.299342
O10	O	-0.181748	-1.012747	0.374770
O11	O	-0.295889	-0.925096	0.186269
O12	O	-0.295850	-0.815393	0.295978
O13	O	-0.382265	-0.921777	0.492177
O14	O	-0.382282	-0.812025	0.382433
O15	O	-0.295821	-1.008302	0.488873
O16	O	-0.496422	-1.000403	0.303702
O17	O	-0.496393	-0.917283	0.386827
C18	C	-0.339064	-0.789150	0.339202
C19	C	-0.339074	-0.713918	0.339207
C20	C	-0.384146	-0.676835	0.384156
C21	C	-0.384146	-0.606147	0.384163
C22	C	-0.339077	-0.572542	0.339219
C23	C	-0.294000	-0.609630	0.294268
C24	C	-0.293997	-0.680317	0.294265
C25	C	-0.294010	-0.324556	0.294284
C26	C	-0.294018	-0.253864	0.294290
C27	C	-0.384159	-0.250386	0.384183
C28	C	-0.384156	-0.321073	0.384179
C29	C	-0.339077	-0.358155	0.339231
C30	C	-0.339077	-0.434803	0.339224
C31	C	-0.339080	-0.495895	0.339222
C32	C	-0.521945	-0.957861	0.346259
C33	C	-0.600175	-0.954866	0.349289
C34	C	-0.636919	-0.996769	0.307469
C35	C	-0.710425	-0.993957	0.310323
C36	C	-0.747184	-0.949237	0.354993
C37	C	-0.710435	-0.907333	0.396817
C38	C	-0.636931	-0.910149	0.393966
C39	C	-0.967019	-0.936173	0.368160
C40	C	-1.040528	-0.933358	0.371006
C41	C	-1.040513	-1.019983	0.284512
C42	C	-0.967008	-1.022793	0.281662
C43	C	-0.930264	-0.980891	0.323489
N44	N	-0.822319	-0.946360	0.357910
N45	N	-0.855131	-0.983772	0.320575
C46	C	-0.155503	-0.972197	0.332187
C47	C	-0.077273	-0.975261	0.329186
C48	C	-0.339037	-0.965045	0.515770
C49	C	-0.339018	-0.965062	0.591002
C50	C	-0.339094	-0.141548	0.339250
C51	C	-0.339087	-0.216780	0.339242
C52	C	-0.339074	-0.965007	0.163373
C53	C	-0.338895	-0.965129	0.088135
C54	C	-0.294004	-1.010117	0.624627
C55	C	-0.293984	-1.010125	0.695315
C56	C	-0.338981	-0.965080	0.732376
C57	C	-0.383996	-0.920021	0.698746
C58	C	-0.384013	-0.920010	0.628059
C59	C	-0.383931	-0.920062	0.983817
C60	C	-0.383913	-0.920077	1.054508
C61	C	-0.293902	-1.010176	1.051072
C62	C	-0.293918	-1.010165	0.980385
C63	C	-0.338931	-0.965104	0.946762
C64	C	-0.338951	-0.965095	0.870114
C65	C	-0.338964	-0.965092	0.809022
H66	H	-0.257301	-0.582264	0.257677
H67	H	-0.257364	-1.046799	0.594456
H68	H	-0.257291	-0.710509	0.257666
H69	H	-1.070456	-0.896950	0.407393
H70	H	-0.420593	-0.883379	0.956449
H71	H	-0.257313	-0.226505	0.257690
Br72	Br	-0.445061	-0.858885	0.749043
H73	H	-0.607014	-0.876028	0.428021
Br74	Br	-0.445319	-0.722434	0.445151
H75	H	-1.070437	-1.054098	0.250460
Br76	Br	-0.917124	-1.083494	0.221045
Br77	Br	-0.232828	-0.374873	0.233287
Br78	Br	-0.445341	-0.200057	0.445183
H79	H	-0.420848	-0.575957	0.420764
H80	H	-0.606994	-1.033181	0.271091
Br81	Br	-0.917162	-0.879306	0.424925
Br82	Br	-0.760290	-1.050832	0.253569
H83	H	-0.740371	-0.870924	0.433192
H84	H	-0.420660	-0.883316	0.600683
Br85	Br	-0.232924	-1.071303	0.740948
H86	H	-0.257279	-1.046847	0.950213
H87	H	-0.257248	-1.046865	1.078457
H88	H	-0.420858	-0.348430	0.420775
Br89	Br	-0.444986	-0.858942	1.104806
