data_functionalizedCrystal
_audit_creation_method	'MofGen! by Chris Wilmer'
_symmetry_space_group_name_H-M	'P1'
_symmetry_Int_Tables_number	1
_symmetry_cell_setting	triclinic
loop_
_symmetry_equiv_pos_as_xyz
  x,y,z
_cell_length_a	10.654553
_cell_length_b	15.944493
_cell_length_c	9.730223
_cell_angle_alpha	89.994150
_cell_angle_beta	90.003316
_cell_angle_gamma	83.980611
loop_
_atom_site_label
_atom_site_type_symbol
_atom_site_fract_x
_atom_site_fract_y
_atom_site_fract_z
O1	O	1.666274	0.117986	0.114286
O2	O	1.300647	0.129224	0.114283
O3	O	1.493482	0.001385	0.114296
O4	O	1.473438	0.245825	0.114273
O5	O	1.493470	0.001392	-0.114284
O6	O	1.300634	0.129231	-0.114297
O7	O	1.666261	0.117993	-0.114294
Zn8	Zn	1.483446	0.123613	-0.150588
Zn9	Zn	1.483462	0.123604	0.150576
O10	O	1.473425	0.245832	-0.114307
C11	C	1.253853	0.128402	-0.000007
C12	C	1.114443	0.125931	-0.000007
C13	C	0.917942	0.122448	-0.124596
C14	C	1.048932	0.124774	-0.124604
C15	C	1.048956	0.124771	0.124606
C16	C	0.917967	0.122451	0.124613
C17	C	0.917931	0.122446	-0.268476
C18	C	1.048921	0.124772	-0.268484
C19	C	1.492657	-0.029911	0.000012
C20	C	1.490201	-0.123174	0.000029
C21	C	1.603708	-0.358276	0.000004
C22	C	1.542504	-0.409202	0.112705
C23	C	1.485650	-0.293921	0.000012
C24	C	1.542464	-0.409171	-0.112657
C25	C	1.481262	-0.458856	-0.000010
C26	C	1.424477	-0.343619	0.112806
C27	C	1.424455	-0.343585	-0.112657
C28	C	1.363164	-0.394479	0.000071
C29	C	1.488181	-0.198907	0.000026
C30	C	1.478722	-0.553868	-0.000014
C31	C	1.713054	0.118815	-0.000001
C32	C	1.852465	0.121286	0.000008
C33	C	1.474251	0.277128	-0.000020
C34	C	1.476707	0.370391	-0.000028
N35	N	1.483444	0.123619	-0.356124
C36	C	1.559592	0.175035	-0.428068
C37	C	1.559611	0.175019	-0.571951
C38	C	1.407323	0.072169	-0.571933
C39	C	1.407311	0.072181	-0.428053
C40	C	1.647510	0.234418	-0.428079
C41	C	1.647529	0.234402	-0.571962
N42	N	1.483474	0.123591	0.356113
H43	H	1.095971	0.066722	-0.323715
C44	C	1.741082	-0.336357	0.000151
C45	C	1.829898	-0.365730	0.119551
C46	C	1.967267	-0.343809	0.119705
C47	C	2.015820	-0.292514	0.000460
C48	C	1.927002	-0.263138	-0.118949
C49	C	1.789633	-0.285059	-0.119103
H50	H	1.793958	-0.403705	0.207831
H51	H	2.033016	-0.365556	0.208100
H52	H	2.117509	-0.276287	0.000574
H53	H	1.962943	-0.225164	-0.207230
H54	H	1.723885	-0.263312	-0.207498
H55	H	1.615720	0.300638	-0.611042
C56	C	1.357179	-0.305090	0.241673
C57	C	1.406144	-0.331925	0.385671
C58	C	1.338850	-0.293396	0.514537
C59	C	1.222592	-0.228032	0.499405
C60	C	1.173621	-0.201193	0.355401
C61	C	1.240914	-0.239723	0.226535
H62	H	1.492211	-0.380315	0.396878
H63	H	1.375103	-0.313264	0.621138
H64	H	1.172777	-0.199510	0.594799
H65	H	1.087554	-0.152804	0.344194
H66	H	1.204662	-0.219855	0.119934
H67	H	1.746835	0.213781	-0.389011
C68	C	1.087772	0.207530	-0.328829
C69	C	1.173619	0.205324	-0.456373
C70	C	1.212470	0.288080	-0.516715
C71	C	1.165474	0.373042	-0.449514
C72	C	1.079622	0.375251	-0.321963
C73	C	1.040771	0.292495	-0.261621
H74	H	1.208412	0.142427	-0.506126
H75	H	1.276024	0.286444	-0.611137
H76	H	1.194234	0.434303	-0.494183
H77	H	1.044828	0.438148	-0.272210
H78	H	0.977217	0.294131	-0.167199
H79	H	1.102303	0.125722	0.226056
H80	H	1.261392	-0.410535	0.000132
C81	C	1.609832	-0.447854	-0.241377
C82	C	1.750053	-0.437259	-0.266100
C83	C	1.817431	-0.475938	-0.394811
C84	C	1.744587	-0.525214	-0.498800
C85	C	1.604358	-0.535811	-0.474080
C86	C	1.536981	-0.497131	-0.345368
H87	H	1.803983	-0.400780	-0.189119
H88	H	1.921238	-0.468093	-0.413110
H89	H	1.794464	-0.553847	-0.594080
H90	H	1.550428	-0.572290	-0.551061
H91	H	1.433174	-0.504977	-0.327070
C92	C	0.854349	0.200866	-0.343103
C93	C	0.758985	0.263303	-0.266204
C94	C	0.695404	0.341721	-0.340828
C95	C	0.727186	0.357703	-0.492351
C96	C	0.822554	0.295265	-0.569259
C97	C	0.886136	0.216846	-0.494635
H98	H	0.735454	0.251474	-0.154031
H99	H	0.624806	0.387942	-0.283896
H100	H	0.680120	0.415753	-0.547592
H101	H	0.846086	0.307094	-0.681433
H102	H	0.956734	0.170626	-0.551568
C103	C	1.323551	0.015620	-0.348913
C104	C	1.239805	-0.040952	-0.428036
C105	C	1.156040	-0.097515	-0.348896
C106	C	1.156021	-0.097505	-0.190634
C107	C	1.239770	-0.040930	-0.111502
C108	C	1.323536	0.015633	-0.190642
H109	H	1.239816	-0.040961	-0.545200
H110	H	1.094043	-0.139395	-0.407476
H111	H	1.094013	-0.139376	-0.132050
H112	H	1.239759	-0.040921	0.005662
H113	H	1.385532	0.057513	-0.132062
H114	H	1.592367	-0.437862	0.207987
H115	H	0.889167	0.061185	-0.313109
H116	H	0.864658	0.121515	0.226077
C117	C	1.323572	0.015597	-0.651062
C118	C	1.383997	-0.052458	-0.749942
C119	C	1.300241	-0.109029	-0.829068
C120	C	1.156060	-0.097545	-0.809314
C121	C	1.095627	-0.029487	-0.710429
C122	C	1.179383	0.027084	-0.631303
H123	H	1.490735	-0.060961	-0.764569
H124	H	1.344978	-0.159410	-0.902270
H125	H	1.094059	-0.139423	-0.867888
H126	H	0.988888	-0.020984	-0.695802
H127	H	1.134645	0.077465	-0.558102
H128	H	1.374635	-0.314910	-0.207943
H129	H	1.607142	0.297667	-0.383481
H130	H	1.742470	0.207999	-0.616561
