data_functionalizedCrystal
_audit_creation_method	'MofGen! by Chris Wilmer'
_symmetry_space_group_name_H-M	'P1'
_symmetry_Int_Tables_number	1
_symmetry_cell_setting	triclinic
loop_
_symmetry_equiv_pos_as_xyz
  x,y,z
_cell_length_a	11.169417
_cell_length_b	16.959447
_cell_length_c	11.169416
_cell_angle_alpha	89.975335
_cell_angle_beta	90.011219
_cell_angle_gamma	89.987900
loop_
_atom_site_label
_atom_site_type_symbol
_atom_site_fract_x
_atom_site_fract_y
_atom_site_fract_z
Zn1	Zn	1.834871	-0.446893	-0.477755
Zn2	Zn	1.834787	-0.314727	-0.678474
Zn3	Zn	1.634184	-0.314736	-0.477807
Zn4	Zn	1.634164	-0.446871	-0.678398
O5	O	1.734502	-0.380807	-0.578109
O6	O	2.002809	-0.429367	-0.504391
O7	O	1.808150	-0.204118	-0.651908
O8	O	1.660848	-0.332279	-0.309850
O9	O	2.002748	-0.332265	-0.651859
O10	O	1.808292	-0.429375	-0.309812
O11	O	1.660767	-0.204124	-0.504479
O12	O	1.466231	-0.332258	-0.504405
O13	O	1.660815	-0.557485	-0.651729
O14	O	1.466217	-0.429337	-0.651779
O15	O	1.808273	-0.557501	-0.504318
O16	O	1.808131	-0.332244	-0.846414
O17	O	1.660734	-0.429329	-0.846358
C18	C	1.422677	-0.380797	-0.578090
C19	C	1.289277	-0.380811	-0.578112
C20	C	1.734551	-0.586975	-0.578009
C21	C	1.734573	-0.674832	-0.577967
C22	C	1.657941	-1.046302	-0.654591
C23	C	1.811491	-1.046313	-0.501090
C24	C	1.811459	-0.963767	-0.501115
C25	C	1.734668	-0.922485	-0.577881
C26	C	1.657909	-0.963748	-0.654621
C27	C	1.888225	-0.922498	-0.424385
C28	C	1.888197	-0.839947	-0.424409
C29	C	1.811399	-0.798663	-0.501169
C30	C	1.734636	-0.839931	-0.577911
C31	C	1.657846	-0.798649	-0.654677
C32	C	1.581076	-0.839915	-0.731414
C33	C	1.581112	-0.922464	-0.731381
C34	C	1.811363	-0.716114	-0.501202
C35	C	1.657814	-0.716095	-0.654707
C36	C	2.047544	-0.380817	-0.578128
C37	C	2.180944	-0.380822	-0.578136
C38	C	1.734454	-0.380801	-0.889933
C39	C	1.734543	-0.380825	-1.023333
C40	C	1.734521	-0.175441	-0.578121
C41	C	1.734732	-0.087584	-0.577825
C42	C	1.734582	-0.380830	-0.265066
C43	C	1.734616	-0.380840	-0.131666
H44	H	1.518558	-0.806292	-0.793921
C45	C	1.641247	-1.139110	-0.816001
C46	C	1.573560	-1.091656	-0.738942
H47	H	1.589152	-1.167105	-0.868079
H48	H	1.686968	-1.175509	-0.770278
H49	H	1.693514	-1.106893	-0.861920
H50	H	1.521300	-1.123874	-0.693016
H51	H	1.527819	-1.055253	-0.784669
H52	H	1.873871	-0.682519	-0.438727
H53	H	1.950707	-0.806355	-0.361924
H54	H	1.518614	-0.956071	-0.793860
H55	H	1.950751	-0.956116	-0.361895
C56	C	1.599303	-0.690656	-0.857946
C57	C	1.573413	-0.670715	-0.739098
H58	H	1.547203	-0.662635	-0.910045
H59	H	1.588322	-0.745717	-0.868899
H60	H	1.679938	-0.677125	-0.875501
H61	H	1.492779	-0.684251	-0.721540
H62	H	1.584383	-0.615641	-0.728140
C63	C	1.879721	-1.172860	-0.432899
C64	C	1.895900	-1.091689	-0.416717
H65	H	1.931831	-1.200873	-0.380802
H66	H	1.897273	-1.186368	-0.513527
H67	H	1.799089	-1.186387	-0.415323
H68	H	1.976531	-1.078161	-0.434302
H69	H	1.878357	-1.078175	-0.336071
