data_functionalizedCrystal
_audit_creation_method	'MofGen! by Chris Wilmer'
_symmetry_space_group_name_H-M	'P1'
_symmetry_Int_Tables_number	1
_symmetry_cell_setting	triclinic
loop_
_symmetry_equiv_pos_as_xyz
  x,y,z
_cell_length_a	11.169417
_cell_length_b	29.839131
_cell_length_c	11.169409
_cell_angle_alpha	89.952226
_cell_angle_beta	89.980487
_cell_angle_gamma	90.036478
loop_
_atom_site_label
_atom_site_type_symbol
_atom_site_fract_x
_atom_site_fract_y
_atom_site_fract_z
Zn1	Zn	1.834755	-0.178802	-0.678404
Zn2	Zn	2.334755	0.321198	-0.178404
Zn3	Zn	1.834557	-0.253943	-0.477667
Zn4	Zn	2.334557	0.246057	0.022333
Zn5	Zn	1.634041	-0.178830	-0.477739
Zn6	Zn	2.134041	0.321170	0.022261
Zn7	Zn	1.633961	-0.253907	-0.678313
Zn8	Zn	2.133961	0.246093	-0.178313
O9	O	1.734328	-0.216371	-0.578031
O10	O	2.234328	0.283629	-0.078031
O11	O	2.002678	-0.188773	-0.651784
O12	O	2.502678	0.311227	-0.151784
O13	O	1.807909	-0.244006	-0.309727
O14	O	2.307909	0.255994	0.190273
O15	O	1.660782	-0.115959	-0.504427
O16	O	2.160782	0.384041	-0.004427
O17	O	2.002533	-0.243979	-0.504303
O18	O	2.502533	0.256021	-0.004303
O19	O	1.808246	-0.115939	-0.651854
O20	O	2.308246	0.384061	-0.151854
O21	O	1.660590	-0.188821	-0.309780
O22	O	2.160590	0.311179	0.190220
O23	O	1.466080	-0.188786	-0.504338
O24	O	1.966080	0.311214	-0.004338
O25	O	1.660646	-0.243918	-0.846275
O26	O	2.160646	0.256082	-0.346275
O27	O	1.466022	-0.243945	-0.651699
O28	O	1.966022	0.256055	-0.151699
O29	O	1.808168	-0.188738	-0.846342
O30	O	2.308168	0.311262	-0.346342
O31	O	1.807831	-0.316806	-0.504214
O32	O	2.307831	0.183194	-0.004214
O33	O	1.660454	-0.316779	-0.651628
O34	O	2.160454	0.183221	-0.151628
C35	C	1.422504	-0.216365	-0.578017
C36	C	1.922504	0.283635	-0.078017
C37	C	1.289104	-0.216373	-0.578040
C38	C	1.789104	0.283627	-0.078040
C39	C	1.734145	-0.333093	-0.577930
C40	C	2.234145	0.166907	-0.077930
C41	C	1.734177	-0.383028	-0.577926
C42	C	2.234177	0.116972	-0.077926
C43	C	1.811096	-0.692625	-0.654906
C44	C	2.311096	-0.192625	-0.154906
C45	C	1.811226	-0.880299	-0.654978
C46	C	2.311226	-0.380299	-0.154978
O47	O	1.876446	-0.904525	-0.720353
O48	O	2.376446	-0.404525	-0.220353
N49	N	1.734532	-0.903813	-0.578164
N50	N	2.234532	-0.403813	-0.078164
C51	C	1.657794	-0.880406	-0.501332
C52	C	2.157794	-0.380406	-0.001332
O53	O	1.592556	-0.904712	-0.436008
O54	O	2.092556	-0.404712	0.063992
C55	C	1.657659	-0.692734	-0.501267
C56	C	2.157659	-0.192734	-0.001267
C57	C	1.734367	-0.669222	-0.578077
C58	C	2.234367	-0.169222	-0.078077
C59	C	1.887797	-0.669114	-0.731710
C60	C	2.387797	-0.169114	-0.231710
C61	C	1.887768	-0.622198	-0.731687
C62	C	2.387768	-0.122198	-0.231687
C63	C	1.811039	-0.598795	-0.654859
C64	C	2.311039	-0.098795	-0.154859
C65	C	1.734338	-0.622306	-0.578054
C66	C	2.234338	-0.122306	-0.078054
C67	C	1.580916	-0.669327	-0.424442
C68	C	2.080916	-0.169327	0.075558
C69	C	1.580887	-0.622406	-0.424435
C70	C	2.080887	-0.122406	0.075565
C71	C	1.657595	-0.598895	-0.501245
C72	C	2.157595	-0.098895	-0.001245
C73	C	1.657580	-0.551987	-0.501202
C74	C	2.157580	-0.051987	-0.001202
N75	N	1.734274	-0.528473	-0.578016
N76	N	2.234274	-0.028473	-0.078016
C77	C	1.811003	-0.551877	-0.654844
C78	C	2.311003	-0.051877	-0.154844
C79	C	1.657873	-0.978936	-0.501370
C80	C	2.157873	-0.478936	-0.001370
C81	C	1.657908	-1.025854	-0.501385
C82	C	2.157908	-0.525854	-0.001385
C83	C	1.811338	-1.025744	-0.655032
C84	C	2.311338	-0.525744	-0.155032
C85	C	1.811308	-0.978825	-0.655011
C86	C	2.311308	-0.478825	-0.155011
C87	C	1.734567	-0.955422	-0.578184
C88	C	2.234567	-0.455422	-0.078184
C89	C	1.810938	-0.453351	-0.654789
C90	C	2.310938	0.046649	-0.154789
C91	C	1.810906	-0.406431	-0.654755
C92	C	2.310906	0.093569	-0.154755
C93	C	1.657472	-0.406546	-0.501112
C94	C	2.157472	0.093454	-0.001112
C95	C	1.657507	-0.453461	-0.501141
C96	C	2.157507	0.046539	-0.001141
C97	C	1.734245	-0.476863	-0.577989
C98	C	2.234245	0.023137	-0.077989
O99	O	1.592385	-0.527732	-0.435871
O100	O	2.092385	-0.027732	0.064129
O101	O	1.876214	-0.527562	-0.720178
O102	O	2.376214	-0.027562	-0.220178
C103	C	1.811125	-0.739541	-0.654929
C104	C	2.311125	-0.239541	-0.154929
C105	C	1.734424	-0.763053	-0.578124
C106	C	2.234424	-0.263053	-0.078124
C107	C	1.657695	-0.739649	-0.501296
C108	C	2.157695	-0.239649	-0.001296
C109	C	1.734459	-0.809971	-0.578139
C110	C	2.234459	-0.309971	-0.078139
C111	C	1.811189	-0.833374	-0.654967
C112	C	2.311189	-0.333374	-0.154967
C113	C	1.887883	-0.809860	-0.731781
C114	C	2.387883	-0.309860	-0.231781
C115	C	1.887854	-0.762945	-0.731757
C116	C	2.387854	-0.262945	-0.231757
C117	C	1.581001	-0.763163	-0.424482
C118	C	2.081001	-0.263163	0.075518
C119	C	1.581037	-0.810079	-0.424511
C120	C	2.081037	-0.310079	0.075489
C121	C	1.657766	-0.833482	-0.501339
C122	C	2.157766	-0.333482	-0.001339
C123	C	2.047371	-0.216377	-0.578045
C124	C	2.547371	0.283623	-0.078045
C125	C	2.180771	-0.216380	-0.578051
C126	C	2.680771	0.283620	-0.078051
C127	C	1.734421	-0.216321	-0.891073
C128	C	2.234421	0.283679	-0.391073
C129	C	1.734460	-0.216300	-1.024474
C130	C	2.234460	0.283700	-0.524474
C131	C	1.734545	-0.099192	-0.578159
C132	C	2.234545	0.400808	-0.078159
C133	C	1.734637	-0.049258	-0.578213
C134	C	2.234637	0.450742	-0.078213
C135	C	1.734306	-0.216388	-0.266206
C136	C	2.234306	0.283612	0.233794
C137	C	1.734499	-0.216283	-0.132807
C138	C	2.234499	0.283717	0.367193
H139	H	1.873375	-0.387289	-0.717303
H140	H	2.373375	0.112711	-0.217303
H141	H	1.595003	-0.387483	-0.438556
H142	H	2.095003	0.112517	0.061444
N143	N	1.574790	-0.478823	-0.418282
N144	N	2.074790	0.021177	0.081718
H145	H	1.519155	-0.498288	-0.467013
H146	H	2.019155	0.001712	0.032987
H147	H	1.623697	-0.498268	-0.362737
H148	H	2.123697	0.001732	0.137263
H149	H	1.873417	-0.472399	-0.717373
H150	H	2.373417	0.027601	-0.217373
N151	N	1.498182	-0.694679	-0.341594
N152	N	1.998182	-0.194679	0.158406
H153	H	1.449573	-0.672727	-0.292934
H154	H	1.949573	-0.172727	0.207066
H155	H	1.442625	-0.714145	-0.390407
H156	H	1.942625	-0.214145	0.109593
H157	H	1.595379	-0.959885	-0.438806
H158	H	2.095379	-0.459885	0.061194
N159	N	1.575192	-1.051211	-0.418522
N160	N	2.075192	-0.551211	0.081478
H161	H	1.526582	-1.029261	-0.369855
H162	H	2.026582	-0.529261	0.130145
H163	H	1.519635	-1.070679	-0.467329
H164	H	2.019635	-0.570679	0.032671
H165	H	1.950226	-0.603058	-0.794236
H166	H	2.450226	-0.103058	-0.294236
N167	N	1.970572	-0.694342	-0.814593
N168	N	2.470572	-0.194342	-0.314593
H169	H	2.026245	-0.713806	-0.765888
H170	H	2.526245	-0.213806	-0.265888
H171	H	1.921717	-0.713778	-0.870178
H172	H	2.421717	-0.213778	-0.370178
H173	H	1.873816	-1.044807	-0.717587
H174	H	2.373816	-0.544807	-0.217587
N175	N	1.498111	-0.597165	-0.341573
N176	N	1.998111	-0.097165	0.158427
H177	H	1.449528	-0.619182	-0.292922
H178	H	1.949528	-0.119182	0.207078
H179	H	1.546976	-0.577704	-0.286059
H180	H	2.046976	-0.077704	0.213941
H181	H	1.950316	-0.743805	-0.794304
H182	H	2.450316	-0.243805	-0.294304
N183	N	1.894040	-0.953468	-0.737856
N184	N	2.394040	-0.453468	-0.237856
H185	H	1.942651	-0.975417	-0.786522
H186	H	2.442651	-0.475417	-0.286522
H187	H	1.845146	-0.933999	-0.793355
H188	H	2.345146	-0.433999	-0.293355
N189	N	1.970648	-0.835107	-0.814642
N190	N	2.470648	-0.335107	-0.314642
H191	H	1.959018	-0.868396	-0.802992
H192	H	2.459018	-0.368396	-0.302992
H193	H	1.951917	-0.826883	-0.900339
H194	H	2.451917	-0.326883	-0.400339
H195	H	1.518574	-0.829218	-0.361951
H196	H	2.018574	-0.329218	0.138049
H197	H	1.518517	-0.744112	-0.361921
H198	H	2.018517	-0.244112	0.138079
