data_functionalizedCrystal
_audit_creation_method	'MofGen! by Chris Wilmer'
_symmetry_space_group_name_H-M	'P1'
_symmetry_Int_Tables_number	1
_symmetry_cell_setting	triclinic
loop_
_symmetry_equiv_pos_as_xyz
  x,y,z
_cell_length_a	8.559649
_cell_length_b	16.109301
_cell_length_c	14.586319
_cell_angle_alpha	90.005214
_cell_angle_beta	89.996820
_cell_angle_gamma	103.379927
loop_
_atom_site_label
_atom_site_type_symbol
_atom_site_fract_x
_atom_site_fract_y
_atom_site_fract_z
O1	O	2.120141	0.028207	-0.076224
O2	O	1.654914	-0.014732	-0.076230
O3	O	1.900308	0.128583	-0.076218
O4	O	1.874747	-0.115108	-0.076237
O5	O	1.900291	0.128584	0.076263
O6	O	1.654897	-0.014731	0.076250
O7	O	2.120124	0.028208	0.076257
Cu8	Cu	1.887509	0.006738	0.090176
Cu9	Cu	1.887529	0.006737	-0.090150
O10	O	1.874730	-0.115107	0.076244
C11	C	1.595374	-0.017985	0.000009
C12	C	1.417989	-0.027671	0.000007
C13	C	1.899264	0.159492	0.000023
C14	C	1.896160	0.251590	0.000024
N15	N	1.887506	0.006740	0.217008
C16	C	2.179664	0.031461	0.000015
C17	C	2.357049	0.041147	0.000011
C18	C	1.875774	-0.146016	0.000001
C19	C	1.878878	-0.238114	-0.000006
C20	C	2.034553	0.482679	0.000012
C21	C	2.031624	0.569213	0.000004
C22	C	1.740473	0.530789	0.000004
C23	C	1.743404	0.444257	0.000005
C24	C	1.890449	0.420205	0.000013
C25	C	1.884589	0.593271	0.000005
C26	C	1.881412	0.687094	-0.000003
C27	C	1.893627	0.326376	0.000020
N28	N	1.887544	0.006743	-0.216982
C29	C	1.996202	0.070183	0.452020
C30	C	1.996207	0.070186	0.548001
C31	C	1.778837	-0.056704	0.547999
C32	C	1.778826	-0.056702	0.452020
C33	C	1.887518	0.006741	0.404033
C34	C	1.887533	0.006742	0.595994
C35	C	1.887537	0.006744	0.700061
C36	C	1.887512	0.006741	0.299959
H37	H	1.440580	0.107476	0.000012
C38	C	1.305147	-0.117283	-0.000001
H39	H	1.196726	-0.112259	0.000004
H40	H	1.324550	-0.147436	-0.053175
H41	H	1.324533	-0.147431	0.053179
C42	C	2.196294	0.456223	0.000011
H43	H	2.281697	0.505827	0.000000
H44	H	2.203495	0.423270	0.053184
H45	H	2.203488	0.423262	-0.053170
C46	C	2.115767	0.139969	0.600784
H47	H	2.180501	0.177747	0.558455
H48	H	2.058319	0.170929	0.638233
H49	H	2.182269	0.114280	0.638216
C50	C	2.190139	0.637931	0.000008
H51	H	2.278127	0.611209	0.000020
H52	H	2.195060	0.672482	-0.053166
H53	H	2.195039	0.672489	0.053188
C54	C	1.578738	0.557251	0.000007
H55	H	1.597629	0.617734	0.000016
H56	H	1.519400	0.535173	-0.053164
H57	H	1.519412	0.535179	0.053189
H58	H	1.690313	-0.108364	0.412946
C59	C	1.584886	0.375528	0.000002
H60	H	1.607695	0.320549	-0.000008
H61	H	1.524578	0.381814	0.053173
H62	H	1.524605	0.381814	-0.053181
H63	H	1.690344	-0.108358	0.587080
H64	H	2.084704	0.121844	0.412951
