data_functionalizedCrystal
_audit_creation_method	'MofGen! by Chris Wilmer'
_symmetry_space_group_name_H-M	'P1'
_symmetry_Int_Tables_number	1
_symmetry_cell_setting	triclinic
loop_
_symmetry_equiv_pos_as_xyz
  x,y,z
_cell_length_a	20.919309
_cell_length_b	16.704494
_cell_length_c	16.704494
_cell_angle_alpha	60.174809
_cell_angle_beta	90.228451
_cell_angle_gamma	60.955789
loop_
_atom_site_label
_atom_site_type_symbol
_atom_site_fract_x
_atom_site_fract_y
_atom_site_fract_z
Zr1	Zr	0.680589	0.800964	-0.107766
O2	O	0.586906	0.963754	-0.241974
O3	O	0.704162	0.636000	-0.061232
O4	O	0.717617	0.785055	-0.227157
O5	O	0.568691	0.828005	0.048702
O6	O	0.826579	0.774979	-0.221603
O7	O	0.573450	0.814698	-0.076049
O8	O	0.802510	0.508347	0.075207
O9	O	0.592760	1.094638	-0.248108
O10	O	0.801750	0.697137	-0.043755
O11	O	0.716881	0.714588	0.045200
O12	O	0.732723	0.890081	-0.150156
O13	O	0.647854	0.907532	-0.061201
Zr14	Zr	0.846780	0.806117	0.100055
Zr15	Zr	0.854371	0.784893	-0.098908
Zr16	Zr	0.672998	0.822187	0.091197
Zr17	Zr	0.689926	1.009709	-0.117549
Zr18	Zr	0.837443	0.597371	0.109838
O19	O	0.823207	0.971080	0.053521
O20	O	0.834001	0.940904	-0.229379
O21	O	0.576112	0.993930	0.040926
O22	O	0.940464	0.643327	0.234263
O23	O	0.951257	0.613150	-0.048636
O24	O	0.693368	0.666177	0.221668
O25	O	0.958679	0.779075	-0.056412
O26	O	0.809752	0.822025	0.219446
O27	O	0.700790	0.832101	0.213892
O28	O	0.953919	0.792382	0.068338
O29	O	0.730893	1.081864	-0.241067
O30	O	0.796476	0.525216	0.233356
O31	O	0.934609	0.512442	0.240397
O32	O	0.940643	0.495573	0.082248
O33	O	0.586726	1.111507	-0.089959
O34	O	0.724859	1.098734	-0.082918
O35	O	0.794646	0.716999	0.142445
O36	O	0.879515	0.699549	0.053490
O37	O	0.810488	0.892492	-0.052911
O38	O	0.725619	0.909943	0.036044
C39	C	0.752006	0.542432	0.008381
C40	C	0.748042	0.453814	0.012534
C41	C	0.829216	0.269056	-0.072524
C42	C	0.825494	0.185791	-0.068624
C43	C	0.736881	0.204012	0.024239
C44	C	0.740603	0.287277	0.020340
C45	C	0.786771	0.319796	-0.028045
C46	C	0.790488	0.403069	-0.031950
C47	C	0.701880	0.421282	0.060919
C48	C	0.698158	0.338018	0.064818
C49	C	0.546310	0.823642	-0.014936
C50	C	0.472535	0.830464	-0.018696
C51	C	0.473905	0.732957	0.035072
C52	C	0.404584	0.739373	0.031536
C53	C	0.333893	0.843298	-0.025774
C54	C	0.332525	0.940813	-0.079544
C55	C	0.401846	0.934396	-0.076002
C56	C	0.122787	0.867714	-0.039242
C57	C	0.053464	0.874124	-0.042783
C58	C	0.125528	0.672683	0.068299
C59	C	0.194846	0.666275	0.071832
C60	C	0.193472	0.763790	0.018066
C61	C	0.263034	0.849860	-0.029392
C62	C	0.264330	0.757228	0.021690
C63	C	0.981059	0.783439	0.007225
C64	C	1.054834	0.776616	0.010986
C65	C	0.773180	0.776993	-0.252728
C66	C	0.776403	0.767984	-0.337193
C67	C	0.775364	1.064649	-0.016092
C68	C	0.779327	1.153267	-0.020245
C69	C	0.710400	0.952503	-0.607005
C70	C	0.713426	0.944043	-0.686370
C71	C	0.785486	0.742603	-0.575291
C72	C	0.782459	0.751064	-0.495925
C73	C	0.744914	0.856017	-0.511787
C74	C	0.741884	0.864477	-0.432420
C75	C	0.813948	0.663038	-0.321343
C76	C	0.816974	0.654577	-0.400708
C77	C	0.754189	0.830087	0.245017
C78	C	0.750967	0.839097	0.329482
C79	C	0.969380	0.522330	0.019462
C80	C	1.039191	0.426890	0.027375
C81	C	0.742510	0.568978	0.257254
C82	C	0.735324	0.489370	0.345872
C83	C	0.959885	0.548877	0.268334
C84	C	1.026473	0.462447	0.360713
C85	C	0.567485	1.058203	-0.276045
C86	C	0.500896	1.144634	-0.368424
C87	C	0.557989	1.084750	-0.027173
C88	C	0.488178	1.180190	-0.035086
C89	C	0.784859	1.038102	-0.264965
C90	C	0.792045	1.117710	-0.353583
C91	C	1.031383	0.380811	-0.019677
C92	C	1.096973	0.291145	-0.012261
C93	C	1.170369	0.247555	0.042214
C94	C	1.178176	0.293642	0.089268
C95	C	1.112588	0.383312	0.081846
C96	C	0.772542	0.453245	0.438257
C97	C	0.765786	0.378457	0.521530
C98	C	0.721818	0.339790	0.512416
C99	C	0.684596	0.375923	0.420021
C100	C	0.691347	0.450716	0.336750
C101	C	1.102052	0.412748	0.357662
C102	C	1.164627	0.331548	0.444454
C103	C	1.151620	0.300042	0.534296
C104	C	1.076034	0.349749	0.537344
C105	C	1.013461	0.430953	0.450553
C106	C	0.425318	1.194342	-0.365373
C107	C	0.362744	1.275568	-0.452166
C108	C	0.375751	1.307079	-0.542009
C109	C	0.451337	1.257366	-0.545057
C110	C	0.513909	1.176147	-0.458265
C111	C	0.495987	1.226277	0.011958
C112	C	0.430399	1.315964	0.004519
C113	C	0.357003	1.359557	-0.049960
C114	C	0.349196	1.313466	-0.097010
C115	C	0.414783	1.223786	-0.089576
C116	C	0.836020	1.156353	-0.344437
C117	C	0.842787	1.231142	-0.427695
C118	C	0.805575	1.267292	-0.520097
C119	C	0.761599	1.228641	-0.529240
C120	C	0.754837	1.153848	-0.445983
H121	H	0.699303	0.177507	0.063644
Br122	Br	1.058396	0.306978	0.659282
H123	H	0.660572	0.311525	0.104215
Br124	Br	0.441013	1.378495	0.068381
H125	H	0.301204	1.316032	-0.449665
H126	H	0.711309	0.949936	-0.445339
Br127	Br	0.290822	1.417308	-0.659790
Br128	Br	0.468976	1.300141	-0.666995
Br129	Br	1.277792	0.234468	0.163199
H130	H	0.842047	0.584472	-0.243804
Br131	Br	0.816309	0.329434	0.646911
Br132	Br	0.659446	1.094935	-0.628524
H133	H	0.289428	1.348973	-0.141366
H134	H	0.408414	1.186265	-0.127883
H135	H	0.252403	0.581646	0.118482
H136	H	0.667315	0.462609	0.097132
Br137	Br	1.259375	0.125858	0.052278
H138	H	0.860058	0.144478	-0.104841
Br139	Br	0.832222	0.505699	0.450654
Br140	Br	0.236587	1.081857	-0.157314
Br141	Br	0.616478	1.108689	-0.462423
Br142	Br	0.711094	1.277723	-0.654652
Br143	Br	0.814759	1.368800	-0.633080
H144	H	0.719025	1.122393	-0.453443
H145	H	0.828078	0.429548	-0.071350
H146	H	0.866802	0.295541	-0.111928
H147	H	0.685322	1.022612	-0.763898
Br148	Br	0.836439	0.600178	-0.553784
Br149	Br	0.910891	0.498388	0.454712
H150	H	0.847545	0.569127	-0.387807
Br151	Br	1.119725	0.455493	0.235745
Br152	Br	1.086359	0.228614	-0.076124
H153	H	0.648797	0.344430	0.412615
Br154	Br	0.569839	0.591908	0.112846
H155	H	0.405706	0.659973	0.075321
Br156	Br	0.127386	0.540349	0.141266
Br157	Br	0.931782	0.439951	-0.093618
Br158	Br	0.407645	1.151594	-0.243456
Br159	Br	1.123198	0.445832	0.145717
H160	H	0.716327	0.278890	0.580229
Br161	Br	0.886530	1.107309	-0.219045
Br162	Br	0.595588	1.167139	0.085896
Br163	Br	0.640834	0.499729	0.211373
Br164	Br	1.267199	0.264102	0.440293
H165	H	0.205470	0.934475	-0.076054
H166	H	0.303604	1.432580	-0.056005
Br167	Br	1.236550	0.189833	0.652077
H168	H	-0.004097	0.958756	-0.089456
Br169	Br	0.399985	1.066733	-0.148969
Br170	Br	0.120913	1.000057	-0.112212
Br171	Br	0.360266	0.616193	0.099477
Br172	Br	0.902468	1.283585	-0.415264
