data_functionalizedCrystal
_audit_creation_method	'MofGen! by Chris Wilmer'
_symmetry_space_group_name_H-M	'P1'
_symmetry_Int_Tables_number	1
_symmetry_cell_setting	triclinic
loop_
_symmetry_equiv_pos_as_xyz
  x,y,z
_cell_length_a	23.532407
_cell_length_b	14.586319
_cell_length_c	16.109301
_cell_angle_alpha	90.005214
_cell_angle_beta	96.844921
_cell_angle_gamma	90.001839
loop_
_atom_site_label
_atom_site_type_symbol
_atom_site_fract_x
_atom_site_fract_y
_atom_site_fract_z
O1	O	0.755631	-0.076129	-0.100925
O2	O	1.255631	0.423871	0.399075
O3	O	0.589822	-0.076156	-0.115528
O4	O	1.089822	0.423844	0.384472
O5	O	0.677281	-0.076132	0.012841
O6	O	1.177281	0.423868	0.512841
O7	O	0.668171	-0.076153	-0.229293
O8	O	1.168171	0.423847	0.270707
O9	O	0.677275	0.076348	0.012843
O10	O	1.177275	0.576348	0.512843
O11	O	0.589816	0.076325	-0.115526
O12	O	1.089816	0.576325	0.384474
O13	O	0.755625	0.076352	-0.100923
O14	O	1.255625	0.576352	0.399077
Cu15	Cu	0.672720	0.090261	-0.108224
Cu16	Cu	1.172720	0.590261	0.391776
Cu17	Cu	0.672727	-0.090065	-0.108226
Cu18	Cu	1.172727	0.409935	0.391774
O19	O	0.668165	0.076328	-0.229291
O20	O	1.168165	0.576328	0.270709
C21	C	0.568601	0.000081	-0.115155
C22	C	1.068601	0.500081	0.384845
C23	C	0.505380	0.000071	-0.114037
C24	C	1.005380	0.500071	0.385963
N25	N	0.672719	0.217093	-0.108222
N26	N	1.172719	0.717093	0.391778
N27	N	0.672732	-0.216897	-0.108222
N28	N	1.172732	0.283103	0.391778
C29	C	0.106531	0.000107	-0.182990
C30	C	0.606531	0.500107	0.317010
C31	C	0.047127	0.000112	-0.181951
C32	C	0.547127	0.500112	0.318049
O33	O	0.010619	0.000140	-0.245872
O34	O	0.510619	0.500140	0.254128
N35	N	0.024220	0.000117	-0.105636
N36	N	0.524220	0.500117	0.394364
C37	C	0.060719	0.000126	-0.030355
C38	C	0.560719	0.500126	0.469645
O39	O	0.035780	0.000131	0.034652
O40	O	0.535780	0.500131	0.534652
C41	C	0.120122	0.000126	-0.031395
C42	C	0.620122	0.500126	0.468605
C43	C	0.143027	0.000112	-0.107715
C44	C	0.643027	0.500112	0.392285
C45	C	0.129436	0.000093	-0.259304
C46	C	0.629436	0.500093	0.240696
C47	C	0.188836	0.000086	-0.260342
C48	C	0.688836	0.500086	0.239658
C49	C	0.225331	0.000092	-0.185066
C50	C	0.725331	0.500092	0.314934
C51	C	0.202427	0.000105	-0.108753
C52	C	0.702427	0.500105	0.391247
C53	C	0.156621	0.000141	0.043886
C54	C	0.656621	0.500141	0.543886
C55	C	0.216027	0.000143	0.042840
C56	C	0.716027	0.500143	0.542840
C57	C	0.238932	0.000129	-0.033480
C58	C	0.738932	0.500129	0.466520
C59	C	0.298322	0.000103	-0.034516
C60	C	0.798322	0.500103	0.465484
N61	N	0.321229	0.000098	-0.110831
N62	N	0.821229	0.500098	0.389169
C63	C	0.284734	0.000093	-0.186106
C64	C	0.784734	0.500093	0.313894
C65	C	-0.064031	0.000125	-0.028178
C66	C	0.435969	0.500125	0.471822
C67	C	-0.123433	0.000118	-0.027138
C68	C	0.376567	0.500118	0.472862
C69	C	-0.137021	0.000106	-0.178734
C70	C	0.362979	0.500106	0.321266
C71	C	-0.077618	0.000107	-0.179774
C72	C	0.422382	0.500107	0.320226
C73	C	-0.041123	0.000120	-0.104493
C74	C	0.458877	0.500120	0.395507
C75	C	0.409479	0.000076	-0.188281
C76	C	0.909479	0.500076	0.311719
C77	C	0.468885	0.000065	-0.189312
C78	C	0.968885	0.500065	0.310688
C79	C	0.482468	0.000081	-0.037716
C80	C	0.982468	0.500081	0.462284
C81	C	0.423067	0.000088	-0.036684
C82	C	0.923067	0.500088	0.463316
C83	C	0.386574	0.000088	-0.111973
C84	C	0.886574	0.500088	0.388027
O85	O	0.334865	0.000079	0.029371
O86	O	0.834865	0.500079	0.529371
O87	O	0.309682	0.000099	-0.251102
O88	O	0.809682	0.500099	0.248898
C89	C	0.776846	0.000113	-0.101295
C90	C	1.276846	0.500113	0.398705
C91	C	0.840067	0.000117	-0.102414
C92	C	1.340067	0.500117	0.397586
C93	C	0.676909	0.000108	0.043814
C94	C	1.176909	0.500108	0.543814
C95	C	0.675803	0.000110	0.136100
C96	C	1.175803	0.500110	0.636100
C97	C	0.711459	0.452110	-0.051399
C98	C	1.211459	0.952110	0.448601
C99	C	0.711460	0.548091	-0.051397
C100	C	1.211460	1.048091	0.448603
C101	C	0.633988	0.548079	-0.165047
C102	C	1.133988	1.048079	0.334953
C103	C	0.633984	0.452100	-0.165045
C104	C	1.133984	0.952100	0.334955
C105	C	0.672723	0.404117	-0.108222
C106	C	1.172723	0.904117	0.391778
C107	C	0.672728	0.596078	-0.108222
C108	C	1.172728	1.096078	0.391778
C109	C	0.672730	0.700145	-0.108220
C110	C	1.172730	1.200145	0.391780
C111	C	0.672721	0.300044	-0.108222
C112	C	1.172721	0.800044	0.391778
C113	C	0.668537	0.000085	-0.260264
C114	C	1.168537	0.500085	0.239736
C115	C	0.669644	0.000078	-0.352551
C116	C	1.169644	0.500078	0.147449
C117	C	0.725127	0.000103	0.358760
C118	C	1.225127	0.500103	0.858760
C119	C	0.724083	0.000095	0.445473
C120	C	1.224083	0.500095	0.945473
C121	C	0.620315	0.000082	0.424782
C122	C	1.120315	0.500082	0.924782
C123	C	0.621360	0.000083	0.338072
C124	C	1.121360	0.500083	0.838072
C125	C	0.673768	0.000098	0.305063
C126	C	1.173768	0.500098	0.805063
C127	C	0.671679	0.000089	0.478486
C128	C	1.171679	0.500089	0.978486
C129	C	0.670547	0.000081	0.572503
C130	C	1.170547	0.500081	1.072503
C131	C	0.674900	0.000105	0.211040
C132	C	1.174900	0.500105	0.711040
H133	H	0.487530	0.000053	-0.251464
H134	H	0.987530	0.500053	0.248536
F135	F	-0.147802	0.000112	0.054092
F136	F	0.352198	0.500112	0.554092
F137	F	0.370648	0.000077	-0.268412
F138	F	0.870648	0.500077	0.231588
H139	H	0.579534	0.000076	0.294349
H140	H	1.079534	0.500076	0.794349
F141	F	-0.025195	0.000131	0.051952
F142	F	0.474805	0.500131	0.551952
H143	H	-0.058974	0.000101	-0.241920
H144	H	0.441026	0.500101	0.258080
H145	H	0.765906	0.000097	0.489190
H146	H	1.265906	0.500097	0.989190
H147	H	0.137983	0.000154	0.106033
H148	H	0.637983	0.500154	0.606033
H149	H	0.245739	0.000154	0.104144
H150	H	0.745739	0.500154	0.604144
H151	H	0.577647	0.000071	0.451669
H152	H	1.077647	0.500071	0.951669
H153	H	0.207479	0.000074	-0.322489
H154	H	0.707479	0.500074	0.177511
F155	F	0.752687	0.599165	0.009082
F156	F	1.252687	1.099165	0.509082
H157	H	0.602438	0.413022	-0.211316
H158	H	1.102438	0.913022	0.288684
H159	H	-0.166747	0.000106	-0.240027
H160	H	0.333253	0.500106	0.259973
F161	F	0.090603	0.000087	-0.339430
F162	F	0.590603	0.500087	0.160570
F163	F	0.780904	0.000118	0.323633
F164	F	1.280904	0.500118	0.823633
F165	F	0.592763	0.599152	-0.225521
F166	F	1.092763	1.099152	0.274479
H167	H	0.512193	0.000083	0.023571
H168	H	1.012193	0.500083	0.523571
F169	F	0.752686	0.401047	0.009079
F170	F	1.252686	0.901047	0.509079
F171	F	0.398690	0.000103	0.044543
F172	F	0.898690	0.500103	0.544543
