data_functionalizedCrystal
_audit_creation_method	'MofGen! by Chris Wilmer'
_symmetry_space_group_name_H-M	'P1'
_symmetry_Int_Tables_number	1
_symmetry_cell_setting	triclinic
loop_
_symmetry_equiv_pos_as_xyz
  x,y,z
_cell_length_a	15.297476
_cell_length_b	13.897441
_cell_length_c	15.297327
_cell_angle_alpha	99.644476
_cell_angle_beta	91.626159
_cell_angle_gamma	80.312072
loop_
_atom_site_label
_atom_site_type_symbol
_atom_site_fract_x
_atom_site_fract_y
_atom_site_fract_z
Zn1	Zn	1.278718	-0.889009	-0.580741
Zn2	Zn	1.778718	-0.389009	-0.080741
Zn3	Zn	1.253248	-0.750089	-0.727208
Zn4	Zn	1.753248	-0.250089	-0.227208
Zn5	Zn	1.132232	-0.695978	-0.555394
Zn6	Zn	1.632232	-0.195978	-0.055394
Zn7	Zn	1.106859	-0.879594	-0.701776
Zn8	Zn	1.606859	-0.379594	-0.201776
O9	O	1.192764	-0.803668	-0.641280
O10	O	1.692764	-0.303668	-0.141280
O11	O	1.397908	-0.897168	-0.621421
O12	O	1.897908	-0.397168	-0.121421
O13	O	1.237155	-0.607929	-0.704452
O14	O	1.737155	-0.107929	-0.204452
O15	O	1.172941	-0.702878	-0.436198
O16	O	1.672941	-0.202878	0.063802
O17	O	1.379196	-0.795104	-0.729030
O18	O	1.879196	-0.295104	-0.229030
O19	O	1.280563	-0.844698	-0.454820
O20	O	1.780563	-0.344698	0.045180
O21	O	1.148244	-0.568173	-0.578221
O22	O	1.648244	-0.068173	-0.078221
O23	O	1.006297	-0.693748	-0.553560
O24	O	1.506297	-0.193748	-0.053560
O25	O	1.129697	-1.015825	-0.685684
O26	O	1.629697	-0.515825	-0.185684
O27	O	0.987656	-0.828651	-0.661106
O28	O	1.487656	-0.328651	-0.161106
O29	O	1.255961	-1.022743	-0.596761
O30	O	1.755961	-0.522743	-0.096761
O31	O	1.212552	-0.785974	-0.846393
O32	O	1.712552	-0.285974	-0.346393
O33	O	1.105001	-0.881120	-0.827708
O34	O	1.605001	-0.381120	-0.327708
C35	C	0.965196	-0.754307	-0.601824
C36	C	1.465196	-0.254307	-0.101824
C37	C	0.867837	-0.733216	-0.584965
C38	C	1.367837	-0.233216	-0.084965
C39	C	0.831798	-0.653150	-0.520955
C40	C	1.331798	-0.153150	-0.020955
C41	C	0.740325	-0.633332	-0.505114
C42	C	1.240325	-0.133332	-0.005114
C43	C	0.684883	-0.693582	-0.553276
C44	C	1.184883	-0.193582	-0.053276
C45	C	0.720923	-0.773654	-0.617283
C46	C	1.220923	-0.273654	-0.117283
C47	C	0.812404	-0.793469	-0.633131
C48	C	1.312404	-0.293469	-0.133131
C49	C	0.665490	-0.833901	-0.665452
C50	C	1.165490	-0.333901	-0.165452
C51	C	0.701530	-0.913973	-0.729459
C52	C	1.201530	-0.413973	-0.229459
C53	C	0.793002	-0.933785	-0.745303
C54	C	1.293002	-0.433785	-0.245303
C55	C	0.848444	-0.873535	-0.697141
C56	C	1.348444	-0.373535	-0.197141
C57	C	0.574009	-0.814086	-0.649604
C58	C	1.074009	-0.314086	-0.149604
C59	C	0.554616	-0.954405	-0.761780
C60	C	1.054616	-0.454405	-0.261780
C61	C	0.646089	-0.974223	-0.777621
C62	C	1.146089	-0.474223	-0.277621
C63	C	1.192840	-1.055262	-0.641213
C64	C	1.692840	-0.555262	-0.141213
C65	C	1.192872	-1.162477	-0.641185
C66	C	1.692872	-0.662477	-0.141185
C67	C	1.192906	-1.358768	-0.641129
C68	C	1.692906	-0.858768	-0.141129
C69	C	1.192884	-1.249538	-0.641162
C70	C	1.692884	-0.749538	-0.141162
C71	C	1.421221	-0.853222	-0.680890
C72	C	1.921221	-0.353222	-0.180890
C73	C	1.518576	-0.874339	-0.697770
C74	C	2.018576	-0.374339	-0.197770
C75	C	1.153283	-0.838423	-0.868833
C76	C	1.653283	-0.338423	-0.368833
C77	C	1.136474	-0.853342	-0.966195
C78	C	1.636474	-0.353342	-0.466195
C79	C	1.192750	-0.553053	-0.641291
C80	C	1.692750	-0.053053	-0.141291
C81	C	1.192931	-0.445838	-0.641103
C82	C	1.692931	0.054162	-0.141103
C83	C	1.313268	-0.697452	-1.279464
C84	C	1.813268	-0.197452	-0.779464
C85	C	1.329062	-0.683430	-1.187987
C86	C	1.829062	-0.183430	-0.687987
C87	C	1.280916	-0.725907	-1.132535
C88	C	1.780916	-0.225907	-0.632535
C89	C	1.216974	-0.782407	-1.168567
C90	C	1.716974	-0.282407	-0.668567
C91	C	1.201175	-0.796424	-1.260052
C92	C	1.701175	-0.296424	-0.760052
C93	C	1.168823	-0.824879	-1.113123
C94	C	1.668823	-0.324879	-0.613123
C95	C	1.104881	-0.881379	-1.149156
C96	C	1.604881	-0.381379	-0.649156
C97	C	1.089084	-0.895394	-1.240632
C98	C	1.589084	-0.395394	-0.740632
C99	C	1.137230	-0.852917	-1.296084
C100	C	1.637230	-0.352917	-0.796084
C101	C	1.184622	-0.810863	-1.021638
C102	C	1.684622	-0.310863	-0.521638
C103	C	1.072529	-0.909835	-1.002227
C104	C	1.572529	-0.409835	-0.502227
C105	C	1.056735	-0.923856	-1.093703
C106	C	1.556735	-0.423856	-0.593703
C107	C	1.232423	-0.768802	-0.412842
C108	C	1.732423	-0.268802	0.087158
C109	C	1.249323	-0.753945	-0.315496
C110	C	1.749323	-0.253945	0.184504
H111	H	0.822341	-0.998978	-0.797430
H112	H	1.322341	-0.498978	-0.297430
N113	N	1.297946	-0.710786	-1.033870
N114	N	1.797946	-0.210786	-0.533870
H115	H	1.345759	-0.668549	-1.019458
H116	H	1.845759	-0.168549	-0.519458
H117	H	1.317795	-0.777108	-1.014629
H118	H	1.817795	-0.277108	-0.514629
H119	H	0.544675	-0.748893	-0.597487
H120	H	1.044675	-0.248893	-0.097487
H121	H	1.004673	-0.969859	-1.123054
H122	H	1.504673	-0.469859	-0.623054
H123	H	1.124376	-0.864333	-1.370573
H124	H	1.624376	-0.364333	-0.870573
H125	H	1.037008	-0.941387	-1.269964
H126	H	1.537008	-0.441387	-0.769964
H127	H	0.610403	-0.677442	-0.540374
H128	H	1.110403	-0.177442	-0.040374
N129	N	0.701453	-0.546974	-0.436087
N130	N	1.201453	-0.046974	0.063913
H131	H	0.750453	-0.511813	-0.407979
H132	H	1.250453	-0.011813	0.092021
H133	H	0.670538	-0.571908	-0.389028
H134	H	1.170538	-0.071908	0.110972
N135	N	1.020589	-0.955648	-0.942428
N136	N	1.520589	-0.455648	-0.442428
H137	H	1.040302	-0.938198	-0.879009
H138	H	1.540302	-0.438198	-0.379009
H139	H	1.031435	-1.029941	-0.960718
H140	H	1.531435	-0.529941	-0.460718
N141	N	1.253592	-0.749936	-0.982788
N142	N	1.753592	-0.249936	-0.482788
H143	H	1.300729	-0.792149	-0.951807
H144	H	1.800729	-0.292149	-0.451807
H145	H	1.224497	-0.691687	-0.938765
H146	H	1.724497	-0.191687	-0.438765
H147	H	1.352456	-0.662866	-1.324619
H148	H	1.852456	-0.162866	-0.824619
N149	N	0.947106	-0.894912	-0.714233
N150	N	1.447106	-0.394912	-0.214233
H151	H	0.979565	-0.908354	-0.657990
H152	H	1.479565	-0.408354	-0.157990
H153	H	0.966252	-0.835901	-0.734092
H154	H	1.466252	-0.335901	-0.234092
N155	N	0.891589	-0.588173	-0.469012
N156	N	1.391589	-0.088173	0.030988
H157	H	0.873292	-0.517839	-0.479775
H158	H	1.373292	-0.017839	0.020225
H159	H	0.954986	-0.612958	-0.488791
H160	H	1.454986	-0.112958	0.011209
N161	N	0.684963	-1.060579	-0.846659
N162	N	1.184963	-0.560579	-0.346659
H163	H	0.751324	-1.063984	-0.849388
H164	H	1.251324	-0.563984	-0.349388
H165	H	0.658121	-1.051535	-0.906422
H166	H	1.158121	-0.551535	-0.406422
H167	H	0.509475	-1.003465	-0.800998
H168	H	1.009475	-0.503465	-0.300998
H169	H	1.381122	-0.637427	-1.158652
H170	H	1.881122	-0.137427	-0.658652
