data_functionalizedCrystal
_audit_creation_method	'MofGen! by Chris Wilmer'
_symmetry_space_group_name_H-M	'P1'
_symmetry_Int_Tables_number	1
_symmetry_cell_setting	triclinic
loop_
_symmetry_equiv_pos_as_xyz
  x,y,z
_cell_length_a	27.732048
_cell_length_b	14.971486
_cell_length_c	14.048226
_cell_angle_alpha	89.993360
_cell_angle_beta	89.999028
_cell_angle_gamma	83.128392
loop_
_atom_site_label
_atom_site_type_symbol
_atom_site_fract_x
_atom_site_fract_y
_atom_site_fract_z
O1	O	0.641420	0.106429	-0.079039
O2	O	0.500701	0.122612	-0.079068
O3	O	0.574832	-0.015739	-0.079046
O4	O	0.567289	0.244780	-0.079061
O5	O	0.574823	-0.015747	0.079276
O6	O	0.500692	0.122604	0.079254
O7	O	0.641411	0.106421	0.079283
Zn8	Zn	0.571050	0.114511	0.104405
Zn9	Zn	0.571062	0.114522	-0.104190
O10	O	0.567280	0.244772	0.079261
C11	C	0.574490	-0.049063	0.000115
C12	C	0.573479	-0.148344	0.000114
C13	C	0.482688	0.122268	0.000090
C14	C	0.429028	0.121245	0.000079
C15	C	0.617029	-0.206257	0.000123
C16	C	0.616076	-0.299542	0.000114
C17	C	0.571573	-0.334911	0.000101
C18	C	0.528020	-0.276990	0.000089
C19	C	0.528973	-0.183707	0.000091
C20	C	0.526036	-0.471421	0.000085
C21	C	0.525082	-0.564710	0.000083
C22	C	0.613139	-0.587255	0.000107
C23	C	0.614092	-0.493973	0.000110
C24	C	0.570539	-0.436058	0.000099
C25	C	0.090561	0.196562	0.000116
C26	C	-0.111116	0.192767	0.000124
O27	O	-0.142054	0.261639	0.000162
N28	N	-0.130619	0.110731	0.000127
C29	C	-0.099698	0.029637	0.000134
O30	O	-0.120914	-0.040227	0.000147
C31	C	0.101978	0.033433	0.000133
C32	C	0.121477	0.115475	0.000120
C33	C	0.110061	0.278597	0.000104
C34	C	0.160477	0.279545	0.000097
C35	C	0.191393	0.198458	0.000101
C36	C	0.171893	0.116423	0.000112
C37	C	0.132897	-0.047659	0.000147
C38	C	0.183319	-0.046703	0.000148
C39	C	0.202818	0.035339	0.000136
C40	C	0.253226	0.036284	0.000109
N41	N	0.272729	0.118320	0.000106
C42	C	0.241812	0.199407	0.000102
C43	C	-0.205582	0.027650	0.000134
C44	C	-0.256000	0.026701	0.000132
C45	C	-0.267415	0.189831	0.000124
C46	C	-0.216995	0.190779	0.000118
C47	C	-0.186079	0.109686	0.000131
C48	C	0.347690	0.201392	0.000086
C49	C	0.398112	0.202332	0.000074
C50	C	0.409522	0.039203	0.000088
C51	C	0.359105	0.038261	0.000094
C52	C	0.328190	0.119363	0.000096
O53	O	0.284193	-0.032551	0.000083
O54	O	0.263037	0.269261	0.000111
C55	C	0.040144	0.195614	0.000123
C56	C	0.020645	0.113579	0.000135
C57	C	0.051561	0.032492	0.000139
C58	C	-0.029774	0.112630	0.000133
C59	C	-0.060691	0.193717	0.000129
C60	C	-0.041188	0.275753	0.000126
C61	C	0.009228	0.276701	0.000119
C62	C	0.032059	-0.049544	0.000142
C63	C	-0.018358	-0.050486	0.000148
C64	C	-0.049275	0.030602	0.000144
C65	C	0.659424	0.106765	0.000124
C66	C	0.713083	0.107788	0.000128
C67	C	0.567621	0.278096	0.000098
C68	C	0.568632	0.377377	0.000093
N69	N	0.571045	0.114504	0.246766
N70	N	0.571070	0.114522	-0.246551
C71	C	0.603881	0.053267	0.296594
C72	C	0.603884	0.053266	0.396251
C73	C	0.571054	0.114507	0.446079
C74	C	0.538215	0.175747	0.396245
C75	C	0.538210	0.175743	0.296589
C76	C	0.538229	0.175753	0.603959
C77	C	0.538234	0.175759	0.703622
C78	C	0.603903	0.053277	0.703621
C79	C	0.603898	0.053272	0.603966
C80	C	0.571059	0.114514	0.554138
H81	H	0.653269	-0.177468	0.000139
H82	H	0.493510	-0.136554	0.000083
F83	F	-0.276747	-0.060619	0.000125
F84	F	0.638831	-0.011910	0.449282
H85	H	0.511481	0.225608	0.436820
F86	F	0.503291	0.240940	0.756645
H87	H	0.630617	0.003401	0.256030
F88	F	0.662428	-0.361174	0.000126
H89	H	0.117030	-0.114466	0.000158
H90	H	0.413985	0.269143	0.000064
H91	H	0.650331	-0.465179	0.000127
F92	F	0.216220	-0.133016	0.000164
H93	H	0.490570	-0.424269	0.000073
F94	F	-0.039105	-0.137812	0.000150
F95	F	0.503276	0.240932	0.550932
H96	H	0.630633	0.003410	0.563396
F97	F	0.638853	-0.011899	0.756656
F98	F	0.659492	-0.648893	0.000114
F99	F	-0.300327	0.276130	0.000120
H100	H	0.511471	0.225607	0.256020
F101	F	0.477717	-0.602350	0.000071
F102	F	0.029974	0.364022	0.000105
H103	H	0.491784	-0.305795	0.000072
F104	F	0.181223	0.366865	0.000088
F105	F	0.314795	0.287709	0.000089
H106	H	0.084893	0.344632	0.000104
H107	H	0.343228	-0.028543	0.000091
H108	H	-0.201123	0.257585	0.000113
H109	H	-0.180413	-0.038389	0.000144
H110	H	0.434703	-0.026816	0.000088
F111	F	-0.074101	0.362052	0.000117
H112	H	0.057227	-0.115577	0.000148
