data_functionalizedCrystal
_audit_creation_method	'MofGen! by Chris Wilmer'
_symmetry_space_group_name_H-M	'P1'
_symmetry_Int_Tables_number	1
_symmetry_cell_setting	triclinic
loop_
_symmetry_equiv_pos_as_xyz
  x,y,z
_cell_length_a	11.792241
_cell_length_b	19.188925
_cell_length_c	10.268362
_cell_angle_alpha	89.995070
_cell_angle_beta	89.999626
_cell_angle_gamma	83.667982
loop_
_atom_site_label
_atom_site_type_symbol
_atom_site_fract_x
_atom_site_fract_y
_atom_site_fract_z
O1	O	1.505473	0.095695	-0.108173
O2	O	2.005473	0.595695	0.391827
O3	O	1.174984	0.105558	-0.108203
O4	O	1.674984	0.605558	0.391797
O5	O	1.349769	-0.000975	-0.108180
O6	O	1.849769	0.499025	0.391820
O7	O	1.330688	0.202229	-0.108196
O8	O	1.830688	0.702229	0.391804
O9	O	1.349754	-0.000980	0.108421
O10	O	1.849754	0.499020	0.608421
O11	O	1.174969	0.105553	0.108398
O12	O	1.674969	0.605553	0.608398
O13	O	1.505458	0.095691	0.108428
O14	O	2.005458	0.595691	0.608428
Cu15	Cu	1.340212	0.100622	0.128190
Cu16	Cu	1.840212	0.600622	0.628190
Cu17	Cu	1.340230	0.100627	-0.127965
Cu18	Cu	1.840230	0.600627	0.372035
O19	O	1.330673	0.202224	0.108405
O20	O	1.830673	0.702224	0.608405
C21	C	1.132695	0.104936	0.000093
C22	C	1.632695	0.604936	0.500093
C23	C	1.006709	0.103082	0.000082
C24	C	1.506709	0.603082	0.500082
C25	C	1.349145	-0.026992	0.000120
C26	C	1.849145	0.473008	0.500120
C27	C	1.347293	-0.104507	0.000117
C28	C	1.847293	0.395493	0.500117
C29	C	0.776048	0.099672	0.000120
C30	C	1.276048	0.599672	0.500120
C31	C	0.904405	0.101567	0.000099
C32	C	1.404405	0.601567	0.500099
C33	C	1.437452	-0.665767	0.000092
C34	C	1.937452	-0.165767	0.500092
C35	C	1.439201	-0.592934	0.000104
C36	C	1.939201	-0.092934	0.500104
C37	C	1.336643	-0.548580	0.000094
C38	C	1.836643	-0.048580	0.500094
C39	C	1.232327	-0.577065	0.000106
C40	C	1.732327	-0.077065	0.500106
C41	C	1.230581	-0.649897	0.000107
C42	C	1.730581	-0.149897	0.500107
N43	N	1.262401	-0.428319	-0.073638
N44	N	1.762401	0.071681	0.426362
N45	N	1.264067	-0.359132	-0.073641
N46	N	1.764067	0.140868	0.426359
C47	C	1.341900	-0.329141	0.000094
C48	C	1.841900	0.170859	0.500094
N49	N	1.418022	-0.370952	0.073817
N50	N	1.918022	0.129048	0.573817
N51	N	1.416358	-0.440146	0.073815
N52	N	1.916358	0.059854	0.573815
C53	C	1.338526	-0.469605	0.000094
C54	C	1.838526	0.030395	0.500094
C55	C	1.448107	-0.221691	0.000105
C56	C	1.948107	0.278309	0.500105
C57	C	1.449852	-0.148856	0.000125
C58	C	1.949852	0.351144	0.500125
C59	C	1.242975	-0.132988	0.000113
C60	C	1.742975	0.367012	0.500113
C61	C	1.241233	-0.205822	0.000106
C62	C	1.741233	0.294178	0.500106
C63	C	1.343802	-0.250169	0.000096
C64	C	1.843802	0.249831	0.500096
C65	C	1.547747	0.096313	0.000129
C66	C	2.047747	0.596313	0.500129
C67	C	1.673733	0.098167	0.000131
C68	C	2.173733	0.598167	0.500131
C69	C	1.331298	0.228241	0.000102
C70	C	1.831298	0.728241	0.500102
C71	C	1.333150	0.305756	0.000097
C72	C	1.833150	0.805756	0.500097
N73	N	1.340208	0.100618	0.308356
N74	N	1.840208	0.600618	0.808356
N75	N	1.340244	0.100626	-0.308131
N76	N	1.840244	0.600626	0.191869
C77	C	1.340225	0.100626	0.574027
C78	C	1.840225	0.600626	1.074027
C79	C	1.340212	0.100623	0.426189
C80	C	1.840212	0.600623	0.926189
H81	H	1.520971	-0.701870	0.000091
H82	H	2.020971	-0.201870	0.500091
Br83	Br	1.591418	-0.110207	0.000117
Br84	Br	2.091418	0.389793	0.500117
H85	H	1.156299	-0.229008	0.000100
H86	H	1.656299	0.270992	0.500100
Br87	Br	1.580764	-0.554276	0.000119
Br88	Br	2.080764	-0.054276	0.500119
H89	H	1.531625	-0.257800	0.000097
H90	H	2.031625	0.242200	0.500097
Br91	Br	1.089017	-0.688547	0.000114
Br92	Br	1.589017	-0.188547	0.500114
H93	H	1.159471	-0.096876	0.000117
H94	H	1.659471	0.403124	0.500117
H95	H	1.148824	-0.540948	0.000102
H96	H	1.648824	-0.040948	0.500102
