data_functionalizedCrystal
_audit_creation_method	'MofGen! by Chris Wilmer'
_symmetry_space_group_name_H-M	'P1'
_symmetry_Int_Tables_number	1
_symmetry_cell_setting	triclinic
loop_
_symmetry_equiv_pos_as_xyz
  x,y,z
_cell_length_a	19.188930
_cell_length_b	19.188940
_cell_length_c	18.266242
_cell_angle_alpha	90.004936
_cell_angle_beta	90.019504
_cell_angle_gamma	83.146747
loop_
_atom_site_label
_atom_site_type_symbol
_atom_site_fract_x
_atom_site_fract_y
_atom_site_fract_z
O1	O	0.926149	0.087167	0.061117
O2	O	1.426149	0.587167	0.561117
O3	O	0.722838	0.098901	0.061067
O4	O	1.222838	0.598901	0.561067
O5	O	0.830357	-0.008621	0.061088
O6	O	1.330357	0.491379	0.561088
O7	O	0.818630	0.194689	0.061096
O8	O	1.318630	0.694689	0.561096
O9	O	0.830346	-0.008624	-0.060674
O10	O	1.330346	0.491376	0.439326
O11	O	0.722827	0.098899	-0.060695
O12	O	1.222827	0.598899	0.439305
O13	O	0.926137	0.087164	-0.060645
O14	O	1.426137	0.587164	0.439355
Zn15	Zn	0.824480	0.093031	-0.080002
Zn16	Zn	1.324480	0.593031	0.419998
Zn17	Zn	0.824495	0.093034	0.080424
Zn18	Zn	1.324495	0.593034	0.580424
O19	O	0.818618	0.194687	-0.060666
O20	O	1.318618	0.694687	0.439334
C21	C	0.696821	0.098520	0.000179
C22	C	1.196821	0.598520	0.500179
C23	C	0.619317	0.097379	0.000160
C24	C	1.119317	0.597379	0.500160
C25	C	0.574395	0.160470	0.000174
C26	C	1.074395	0.660470	0.500174
C27	C	0.501571	0.159398	0.000182
C28	C	1.001571	0.659398	0.500182
C29	C	0.473672	0.095232	0.000191
C30	C	0.973672	0.595232	0.500191
C31	C	0.518604	0.032133	0.000173
C32	C	1.018604	0.532133	0.500173
C33	C	0.591426	0.033207	0.000157
C34	C	1.091426	0.533207	0.500157
N35	N	0.365694	0.046186	0.041659
N36	N	0.865694	0.546186	0.541659
N37	N	0.296516	0.045171	0.041675
N38	N	0.796516	0.545171	0.541675
C39	C	0.254264	0.091994	0.000236
C40	C	0.754264	0.591994	0.500236
N41	N	0.283802	0.139882	-0.041212
N42	N	0.783802	0.639882	0.458788
N43	N	0.352987	0.140899	-0.041225
N44	N	0.852987	0.640899	0.458775
C45	C	0.394710	0.094061	0.000207
C46	C	0.894710	0.594061	0.500207
C47	C	0.130377	0.153927	0.000257
C48	C	0.630377	0.653927	0.500257
C49	C	0.057553	0.152853	0.000261
C50	C	0.557553	0.652853	0.500261
C51	C	0.074587	0.025586	0.000259
C52	C	0.574587	0.525586	0.500259
C53	C	0.147410	0.026662	0.000248
C54	C	0.647410	0.526662	0.500248
C55	C	0.175301	0.090835	0.000251
C56	C	0.675301	0.590835	0.500251
C57	C	0.829970	-0.034633	0.000207
C58	C	1.329970	0.465367	0.500207
C59	C	0.828827	-0.112138	0.000207
C60	C	1.328827	0.387862	0.500207
C61	C	0.820686	-0.665398	-0.066150
C62	C	1.320686	-0.165398	0.433850
C63	C	0.821753	-0.592574	-0.066154
C64	C	1.321753	-0.092574	0.433846
C65	C	0.822296	-0.556153	0.000218
C66	C	1.322296	-0.056153	0.500218
C67	C	0.821754	-0.592560	0.066598
C68	C	1.321754	-0.092560	0.566598
C69	C	0.820680	-0.665382	0.066600
C70	C	1.320680	-0.165382	0.566600
N71	N	0.863717	-0.447128	0.049630
N72	N	1.363717	0.052872	0.549630
N73	N	0.864738	-0.377950	0.049623
N74	N	1.364738	0.122050	0.549623
C75	C	0.825530	-0.336744	0.000216
C76	C	1.325530	0.163256	0.500216
N77	N	0.785269	-0.367329	-0.049196
N78	N	1.285269	0.132671	0.450804
N79	N	0.784251	-0.436514	-0.049192
N80	N	1.284251	0.063486	0.450808
C81	C	0.823460	-0.477189	0.000223
C82	C	1.323460	0.022811	0.500223
C83	C	0.827223	-0.221380	-0.066164
C84	C	1.327223	0.278620	0.433836
C85	C	0.828285	-0.148554	-0.066166
C86	C	1.328285	0.351446	0.433834
C87	C	0.828294	-0.148542	0.066589
C88	C	1.328294	0.351458	0.566589
C89	C	0.827224	-0.221366	0.066588
C90	C	1.327224	0.278634	0.566588
C91	C	0.826692	-0.257781	0.000209
C92	C	1.326692	0.242219	0.500209
C93	C	0.952154	0.087546	0.000244
C94	C	1.452154	0.587546	0.500244
C95	C	1.029659	0.088686	0.000268
C96	C	1.529659	0.588686	0.500268
C97	C	0.819005	0.220699	0.000217
C98	C	1.319005	0.720699	0.500217
C99	C	0.820148	0.298203	0.000221
C100	C	1.320148	0.798203	0.500221
N101	N	0.824475	0.093028	-0.189489
N102	N	1.324475	0.593028	0.310511
C103	C	0.872117	0.045434	-0.771757
C104	C	1.372117	0.545434	-0.271757
C105	C	0.872118	0.045435	-0.695112
C106	C	1.372118	0.545435	-0.195112
C107	C	0.824496	0.093028	-0.656802
C108	C	1.324496	0.593028	-0.156802
C109	C	0.776882	0.140635	-0.695143
C110	C	1.276882	0.640635	-0.195143
C111	C	0.776887	0.140637	-0.771786
C112	C	1.276887	0.640637	-0.271786
N113	N	0.762684	0.102076	-0.536490
N114	N	1.262684	0.602076	-0.036490
N115	N	0.762682	0.102070	-0.463682
N116	N	1.262682	0.602070	0.036318
C117	C	0.824479	0.093027	-0.425880
C118	C	1.324479	0.593027	0.074120
N119	N	0.886281	0.083975	-0.463635
N120	N	1.386281	0.583975	0.036365
N121	N	0.886283	0.083978	-0.536450
N122	N	1.386283	0.583978	-0.036450
C123	C	0.824486	0.093032	-0.573695
C124	C	1.324486	0.593032	-0.073695
C125	C	0.872094	0.045428	-0.304441
C126	C	1.372094	0.545428	0.195559
C127	C	0.872096	0.045434	-0.227795
C128	C	1.372096	0.545434	0.272205
C129	C	0.776854	0.140631	-0.227826
C130	C	1.276854	0.640631	0.272174
C131	C	0.776858	0.140627	-0.304471
C132	C	1.276858	0.640627	0.195529
C133	C	0.824478	0.093022	-0.342774
C134	C	1.324478	0.593022	0.157226
N135	N	0.824506	0.093031	0.189911
N136	N	1.324506	0.593031	0.689911
H137	H	0.051873	-0.026659	0.000311
H138	H	0.551873	0.473341	0.500311
H139	H	0.822178	-0.562930	-0.120204
H140	H	1.322178	-0.062930	0.379796
O141	O	0.828684	-0.113147	-0.130625
O142	O	1.328684	0.386853	0.369375
C143	C	0.768858	-0.062924	-0.134617
C144	C	1.268858	0.437076	0.365383
H145	H	0.726278	-0.079211	-0.096967
H146	H	1.226278	0.420789	0.403033
H147	H	0.783336	-0.009559	-0.116783
H148	H	1.283336	0.490441	0.383217
C149	C	0.793763	-0.038147	-0.260170
C150	C	1.293763	0.461853	0.239830
C151	C	0.741464	-0.058154	-0.213932
C152	C	1.241464	0.441846	0.286068
H153	H	0.776867	-0.035202	-0.309095
H154	H	1.276867	0.464798	0.190905
H155	H	0.834071	-0.071982	-0.257480
H156	H	1.334071	0.428018	0.242520
H157	H	0.805824	0.006322	-0.245299
H158	H	1.305824	0.506322	0.254701
H159	H	0.729411	-0.102626	-0.228797
H160	H	1.229411	0.397374	0.271203
H161	H	0.701154	-0.024327	-0.216626
H162	H	1.201154	0.475673	0.283374
O163	O	0.191151	-0.034560	0.000213
O164	O	0.691151	0.465440	0.500213
C165	C	0.261407	-0.019854	0.000219
C166	C	0.761407	0.480146	0.500219
H167	H	0.264023	0.034976	-0.022837
H168	H	0.764023	0.534976	0.477163
H169	H	0.282503	-0.022561	0.058631
H170	H	0.782503	0.477439	0.558631
C171	C	0.302907	-0.141544	-0.019217
C172	C	0.802907	0.358456	0.480783
C173	C	0.306121	-0.074203	-0.047541
C174	C	0.806121	0.425797	0.452459
H175	H	0.330489	-0.175071	-0.048675
H176	H	0.830489	0.324929	0.451325
H177	H	0.255574	-0.151453	-0.019218
H178	H	0.755574	0.348547	0.480782
H179	H	0.320485	-0.143790	0.029459
H180	H	0.820485	0.356210	0.529459
H181	H	0.288534	-0.071956	-0.096213
H182	H	0.788534	0.428044	0.403787
H183	H	0.353452	-0.064295	-0.047549
H184	H	0.853452	0.435705	0.452451
O185	O	0.730699	0.186927	-0.341744
O186	O	1.230699	0.686927	0.158256
C187	C	0.767959	0.229897	-0.386072
C188	C	1.267959	0.729897	0.113928
H189	H	0.823013	0.230941	-0.362951
H190	H	1.323013	0.730941	0.137049
H191	H	0.771689	0.208035	-0.444159
H192	H	1.271689	0.708035	0.055841
C193	C	0.661633	0.303676	-0.415658
C194	C	1.161633	0.803676	0.084342
C195	C	0.729250	0.304963	-0.387257
C196	C	1.229250	0.804963	0.112743
H197	H	0.637754	0.349979	-0.416392
H198	H	1.137754	0.849979	0.083608
H199	H	0.636529	0.274725	-0.385796
H200	H	1.136529	0.774725	0.114204
H201	H	0.664751	0.285455	-0.464061
H202	H	1.164751	0.785455	0.035939
H203	H	0.726131	0.323176	-0.338852
H204	H	1.226131	0.823176	0.161148
H205	H	0.754352	0.333919	-0.417111
H206	H	1.254352	0.833919	0.082889
O207	O	0.820190	-0.700640	0.131142
O208	O	1.320190	-0.200640	0.631142
C209	C	0.820874	-0.652879	0.189726
C210	C	1.320874	-0.152879	0.689726
H211	H	0.843739	-0.603928	0.170276
H212	H	1.343739	-0.103928	0.670276
H213	H	0.764986	-0.637638	0.210113
H214	H	1.264986	-0.137638	0.710113
C215	C	0.838147	-0.747543	0.276341
C216	C	1.338147	-0.247543	0.776341
C217	C	0.866235	-0.687423	0.252455
C218	C	1.366235	-0.187423	0.752455
H219	H	0.866124	-0.768851	0.315037
H220	H	1.366124	-0.268851	0.815037
H221	H	0.837683	-0.779721	0.236873
H222	H	1.337683	-0.279721	0.736873
H223	H	0.791574	-0.734834	0.293325
H224	H	1.291574	-0.234834	0.793325
H225	H	0.912803	-0.700134	0.235463
H226	H	1.412803	-0.200134	0.735463
H227	H	0.866707	-0.655248	0.291922
H228	H	1.366707	-0.155248	0.791922
H229	H	0.822194	-0.562901	0.120638
H230	H	1.322194	-0.062901	0.620638
H231	H	0.464989	0.210775	0.000192
H232	H	0.964989	0.710775	0.500192
O233	O	0.157360	0.216322	0.000220
O234	O	0.657360	0.716322	0.500220
C235	C	0.102090	0.271779	0.000245
C236	C	0.602090	0.771779	0.500245
H237	H	0.052666	0.252359	-0.022800
H238	H	0.552666	0.752359	0.477200
H239	H	0.091753	0.291233	0.058661
H240	H	0.591753	0.791233	0.558661
C241	C	0.183148	0.356166	-0.019206
C242	C	0.683148	0.856166	0.480794
C243	C	0.122445	0.332315	-0.047516
C244	C	0.622445	0.832315	0.452484
H245	H	0.195704	0.393509	-0.048664
H246	H	0.695704	0.893509	0.451336
H247	H	0.220384	0.318803	-0.019220
H248	H	0.720384	0.818803	0.480780
H249	H	0.174525	0.372372	0.029474
H250	H	0.674525	0.872372	0.529474
H251	H	0.131071	0.316101	-0.096191
H252	H	0.631071	0.816101	0.403809
H253	H	0.085210	0.369676	-0.047511
H254	H	0.585210	0.869676	0.452489
O255	O	0.730604	0.186776	-0.809106
O256	O	1.230604	0.686776	-0.309106
C257	C	0.687636	0.149490	-0.853444
C258	C	1.187636	0.649490	-0.353444
H259	H	0.715609	0.094784	-0.864918
H260	H	1.215609	0.594784	-0.364918
H261	H	0.636049	0.144877	-0.823927
H262	H	1.136049	0.644877	-0.323927
C263	C	0.638240	0.256080	-0.912160
C264	C	1.138240	0.756080	-0.412160
C265	C	0.672600	0.188891	-0.926257
C266	C	1.172600	0.688891	-0.426257
H267	H	0.628962	0.280385	-0.957073
H268	H	1.128962	0.780385	-0.457073
H269	H	0.667186	0.281201	-0.882287
H270	H	1.167186	0.781201	-0.382287
H271	H	0.595255	0.252226	-0.887561
H272	H	1.095255	0.752226	-0.387561
H273	H	0.715587	0.192746	-0.950848
H274	H	1.215587	0.692746	-0.450848
H275	H	0.643660	0.163771	-0.956137
H276	H	1.143660	0.663771	-0.456137
O277	O	0.013843	0.214097	0.000373
O278	O	0.513843	0.714097	0.500373
C279	C	-0.028746	0.217287	0.063452
C280	C	0.471254	0.717287	0.563452
H281	H	-0.032254	0.161878	0.084469
H282	H	0.467746	0.661878	0.584469
H283	H	-0.004860	0.249096	0.107611
H284	H	0.495140	0.749096	0.607611
C285	C	-0.098490	0.320706	0.018501
C286	C	0.401510	0.820706	0.518501
C287	C	-0.102802	0.252651	0.044311
C288	C	0.397198	0.752651	0.544311
H289	H	-0.144170	0.342523	0.006696
H290	H	0.355830	0.842523	0.506696
H291	H	-0.069795	0.318559	-0.023995
H292	H	0.430205	0.818559	0.476005
H293	H	-0.078582	0.347204	0.055304
H294	H	0.421418	0.847204	0.555304
H295	H	-0.122701	0.226151	0.007504
H296	H	0.377299	0.726151	0.507504
H297	H	-0.131502	0.254794	0.086800
H298	H	0.368498	0.754794	0.586800
H299	H	0.820252	-0.695043	-0.120201
H300	H	1.320252	-0.195043	0.379799
O301	O	0.918184	-0.000874	-0.190444
O302	O	1.418184	0.499126	0.309556
C303	C	0.907887	0.009247	-0.114582
C304	C	1.407887	0.509247	0.385418
H305	H	0.881824	0.064888	-0.104067
H306	H	1.381824	0.564888	0.395933
H307	H	0.872780	-0.030054	-0.092983
H308	H	1.372780	0.469946	0.407017
C309	C	1.011282	-0.070108	-0.088012
C310	C	1.511282	0.429892	0.411988
C311	C	0.979276	-0.001767	-0.075096
C312	C	1.479276	0.498233	0.424904
H313	H	1.055317	-0.076906	-0.063654
H314	H	1.555317	0.423094	0.436346
H315	H	1.018218	-0.076930	-0.139121
H316	H	1.518218	0.423070	0.360879
H317	H	0.982019	-0.102851	-0.070012
H318	H	1.482019	0.397149	0.429988
H319	H	1.008535	0.030974	-0.093104
H320	H	1.508535	0.530974	0.406896
H321	H	0.972346	0.005059	-0.023989
H322	H	1.472346	0.505059	0.476011
O323	O	0.491623	-0.030259	0.000152
O324	O	0.991623	0.469741	0.500152
C325	C	0.546892	-0.085717	0.000157
C326	C	1.046892	0.414283	0.500157
H327	H	0.596293	-0.066298	-0.022909
H328	H	1.096293	0.433702	0.477091
H329	H	0.557288	-0.105165	0.058570
H330	H	1.057288	0.394835	0.558570
C331	C	0.465815	-0.170104	-0.019257
C332	C	0.965815	0.329896	0.480743
C333	C	0.526488	-0.146256	-0.047593
C334	C	1.026488	0.353744	0.452407
H335	H	0.453229	-0.207450	-0.048708
H336	H	0.953229	0.292550	0.451292
H337	H	0.428578	-0.132742	-0.019257
H338	H	0.928578	0.367258	0.480743
H339	H	0.474486	-0.186307	0.029420
H340	H	0.974486	0.313693	0.529420
H341	H	0.517814	-0.130046	-0.096265
H342	H	1.017814	0.369954	0.403735
H343	H	0.563724	-0.183617	-0.047601
H344	H	1.063724	0.316383	0.452399
O345	O	0.918297	-0.000886	-0.657879
O346	O	1.418297	0.499114	-0.157879
C347	C	0.907184	-0.069984	-0.676606
C348	C	1.407184	0.430016	-0.176606
H349	H	0.851298	-0.070201	-0.697718
H350	H	1.351298	0.429799	-0.197718
H351	H	0.945964	-0.090604	-0.721058
H352	H	1.445964	0.409396	-0.221058
C353	C	0.986795	-0.117050	-0.582568
C354	C	1.486795	0.382950	-0.082568
C355	C	0.918152	-0.117318	-0.608492
C356	C	1.418152	0.382682	-0.108492
H357	H	0.993563	-0.146249	-0.540553
H358	H	1.493563	0.353751	-0.040553
H359	H	0.994284	-0.070498	-0.569953
H360	H	1.494284	0.429502	-0.069953
H361	H	1.019104	-0.134232	-0.619618
H362	H	1.519104	0.365768	-0.119618
H363	H	0.885845	-0.100128	-0.571445
H364	H	1.385845	0.399872	-0.071445
H365	H	0.910658	-0.163869	-0.621099
H366	H	1.410658	0.336131	-0.121099
H367	H	0.826784	-0.251030	-0.120214
H368	H	1.326784	0.248970	0.379786
O369	O	0.828679	-0.113100	0.131031
O370	O	1.328679	0.386900	0.631031
C371	C	0.768808	-0.062931	0.134962
C372	C	1.268808	0.437069	0.634962
H373	H	0.748856	-0.049312	0.077314
H374	H	1.248856	0.450688	0.577314
H375	H	0.726049	-0.085369	0.167645
H376	H	1.226049	0.414631	0.667645
C377	C	0.812624	-0.012939	0.243781
C378	C	1.312624	0.487061	0.743781
C379	C	0.788122	0.003791	0.172977
C380	C	1.288122	0.503791	0.672977
H381	H	0.824536	0.028217	0.267233
H382	H	1.324536	0.528217	0.767233
H383	H	0.852959	-0.046741	0.241135
H384	H	1.352959	0.453259	0.741135
H385	H	0.776987	-0.031639	0.271007
H386	H	1.276987	0.468361	0.771007
H387	H	0.823762	0.022482	0.145749
H388	H	1.323762	0.522482	0.645749
H389	H	0.747793	0.037598	0.175619
H390	H	1.247793	0.537598	0.675619
H391	H	0.628002	-0.018171	0.000146
H392	H	1.128002	0.481829	0.500146
O393	O	0.826749	-0.256626	0.131128
O394	O	1.326749	0.243374	0.631128
C395	C	0.827442	-0.208866	0.189710
C396	C	1.327442	0.291134	0.689710
H397	H	0.850299	-0.159912	0.170254
H398	H	1.350299	0.340088	0.670254
H399	H	0.771558	-0.193629	0.210110
H400	H	1.271558	0.306371	0.710110
C401	C	0.844739	-0.303530	0.276323
C402	C	1.344739	0.196470	0.776323
C403	C	0.872819	-0.243407	0.252429
C404	C	1.372819	0.256593	0.752429
H405	H	0.872727	-0.324837	0.315013
H406	H	1.372727	0.175163	0.815013
H407	H	0.844270	-0.335708	0.236856
H408	H	1.344270	0.164292	0.736856
H409	H	0.798170	-0.290824	0.293318
H410	H	1.298170	0.209176	0.793318
H411	H	0.919383	-0.256115	0.235426
H412	H	1.419383	0.243885	0.735426
H413	H	0.873297	-0.211232	0.291895
H414	H	1.373297	0.288768	0.791895
O415	O	0.730595	0.186933	-0.658045
O416	O	1.230595	0.686933	-0.158045
C417	C	0.688559	0.228934	-0.708317
C418	C	1.188559	0.728934	-0.208317
H419	H	0.717186	0.229653	-0.762938
H420	H	1.217186	0.729653	-0.262938
H421	H	0.636764	0.206395	-0.716495
H422	H	1.136764	0.706395	-0.216495
C423	C	0.638780	0.303408	-0.611313
C424	C	1.138780	0.803408	-0.111313
C425	C	0.673943	0.304295	-0.678398
C426	C	1.173943	0.804295	-0.178398
H427	H	0.629761	0.349893	-0.592858
H428	H	1.129761	0.849893	-0.092858
H429	H	0.667098	0.275109	-0.577443
H430	H	1.167098	0.775109	-0.077443
H431	H	0.595621	0.284622	-0.618138
H432	H	1.095621	0.784622	-0.118138
H433	H	0.717104	0.323073	-0.671571
H434	H	1.217104	0.823073	-0.171571
H435	H	0.645631	0.332599	-0.712267
H436	H	1.145631	0.832599	-0.212267
H437	H	0.910893	0.006672	-0.802941
H438	H	1.410893	0.506672	-0.302941
O439	O	0.601577	0.222757	0.000086
O440	O	1.101577	0.722757	0.500086
C441	C	0.643150	0.227202	-0.062988
C442	C	1.143150	0.727202	0.437012
H443	H	0.661436	0.172119	-0.084030
H444	H	1.161436	0.672119	0.415970
H445	H	0.610867	0.258204	-0.107134
H446	H	1.110867	0.758204	0.392866
C447	C	0.685011	0.332240	-0.017983
C448	C	1.185011	0.832240	0.482017
C449	C	0.707475	0.264586	-0.043824
C450	C	1.207475	0.764586	0.456176
H451	H	0.724688	0.355303	-0.006164
H452	H	1.224688	0.855303	0.493836
H453	H	0.657000	0.329247	0.024510
H454	H	1.157000	0.829247	0.524510
H455	H	0.658108	0.358066	-0.054776
H456	H	1.158108	0.858066	0.445224
H457	H	0.734370	0.238759	-0.007028
H458	H	1.234370	0.738759	0.492972
H459	H	0.735492	0.267575	-0.086310
H460	H	1.235492	0.767575	0.413690
O461	O	0.918416	-0.000840	-0.341540
O462	O	1.418416	0.499160	0.158460
C463	C	0.960430	-0.042863	-0.291268
C464	C	1.460430	0.457137	0.208732
H465	H	0.961138	-0.014235	-0.236633
H466	H	1.461138	0.485765	0.263367
H467	H	0.937910	-0.094669	-0.283123
H468	H	1.437910	0.405331	0.216877
C469	C	1.034919	-0.092617	-0.388260
C470	C	1.534919	0.407383	0.111740
C471	C	1.035793	-0.057453	-0.321159
C472	C	1.535793	0.442547	0.178841
H473	H	1.081405	-0.101620	-0.406698
H474	H	1.581405	0.398380	0.093302
H475	H	1.006612	-0.064308	-0.422130
H476	H	1.506612	0.435692	0.077870
H477	H	1.016149	-0.135784	-0.381464
H478	H	1.516149	0.364216	0.118536
H479	H	1.054554	-0.014283	-0.327957
H480	H	1.554554	0.485717	0.172043
H481	H	1.064105	-0.085755	-0.287290
H482	H	1.564105	0.414245	0.212710
H483	H	0.738083	0.179384	-0.196634
H484	H	1.238083	0.679384	0.303366
