data_functionalizedCrystal
_audit_creation_method	'MofGen! by Chris Wilmer'
_symmetry_space_group_name_H-M	'P1'
_symmetry_Int_Tables_number	1
_symmetry_cell_setting	triclinic
loop_
_symmetry_equiv_pos_as_xyz
  x,y,z
_cell_length_a	16.625548
_cell_length_b	13.032721
_cell_length_c	16.625539
_cell_angle_alpha	82.846360
_cell_angle_beta	89.979432
_cell_angle_gamma	82.794397
loop_
_atom_site_label
_atom_site_type_symbol
_atom_site_fract_x
_atom_site_fract_y
_atom_site_fract_z
Zn1	Zn	1.191923	0.416011	-0.496664
Zn2	Zn	1.441923	0.666011	-0.246664
Zn3	Zn	1.691923	0.916011	0.003336
Zn4	Zn	1.941923	1.166011	0.253336
Zn5	Zn	1.174704	0.590777	-0.378952
Zn6	Zn	1.424704	0.840777	-0.128952
Zn7	Zn	1.674704	1.090777	0.121048
Zn8	Zn	1.924704	1.340777	0.371048
Zn9	Zn	1.057081	0.416050	-0.361848
Zn10	Zn	1.307081	0.666050	-0.111848
Zn11	Zn	1.557081	0.916050	0.138152
Zn12	Zn	1.807081	1.166050	0.388152
Zn13	Zn	1.039939	0.590717	-0.513736
Zn14	Zn	1.289939	0.840717	-0.263736
Zn15	Zn	1.539939	1.090717	-0.013736
Zn16	Zn	1.789939	1.340717	0.236264
O17	O	1.115912	0.503389	-0.437800
O18	O	1.365912	0.753389	-0.187800
O19	O	1.615912	1.003389	0.062200
O20	O	1.865912	1.253389	0.312200
O21	O	1.302470	0.439202	-0.481062
O22	O	1.552470	0.689202	-0.231062
O23	O	1.802470	0.939202	0.018938
O24	O	2.052470	1.189202	0.268938
O25	O	1.159069	0.567641	-0.263855
O26	O	1.409069	0.817641	-0.013855
O27	O	1.659069	1.067641	0.236145
O28	O	1.909069	1.317641	0.486145
O29	O	1.089348	0.269806	-0.365429
O30	O	1.339348	0.519806	-0.115429
O31	O	1.589348	0.769806	0.134571
O32	O	1.839348	1.019806	0.384571
O33	O	1.289820	0.567603	-0.394580
O34	O	1.539820	0.817603	-0.144580
O35	O	1.789820	1.067603	0.105420
O36	O	2.039820	1.317603	0.355420
O37	O	1.188416	0.269777	-0.464477
O38	O	1.438416	0.519777	-0.214477
O39	O	1.688416	0.769777	0.035523
O40	O	1.938416	1.019777	0.285523
O41	O	1.072652	0.439270	-0.251289
O42	O	1.322652	0.689270	-0.001289
O43	O	1.572652	0.939270	0.248711
O44	O	1.822652	1.189270	0.498711
O45	O	0.941975	0.439212	-0.381983
O46	O	1.191975	0.689212	-0.131983
O47	O	1.441975	0.939212	0.118017
O48	O	1.691975	1.189212	0.368017
O49	O	1.060132	0.567500	-0.624300
O50	O	1.310132	0.817500	-0.374300
O51	O	1.560132	1.067500	-0.124300
O52	O	1.810132	1.317500	0.125700
O53	O	0.929381	0.567539	-0.493575
O54	O	1.179381	0.817539	-0.243575
O55	O	1.429381	1.067539	0.006425
O56	O	1.679381	1.317539	0.256425
O57	O	1.171794	0.439144	-0.611757
O58	O	1.421794	0.689144	-0.361757
O59	O	1.671794	0.939144	-0.111757
O60	O	1.921794	1.189144	0.138243
O61	O	1.142447	0.737009	-0.411134
O62	O	1.392447	0.987009	-0.161134
O63	O	1.642447	1.237009	0.088866
O64	O	1.892447	1.487009	0.338866
O65	O	1.043435	0.736965	-0.510160
O66	O	1.293435	0.986965	-0.260160
O67	O	1.543435	1.236965	-0.010160
O68	O	1.793435	1.486965	0.239840
C69	C	1.089234	0.774905	-0.464373
C70	C	1.339234	1.024905	-0.214373
C71	C	1.589234	1.274905	0.035627
C72	C	1.839234	1.524905	0.285627
C73	C	1.077895	0.891061	-0.475768
C74	C	1.327895	1.141061	-0.225768
C75	C	1.577895	1.391061	0.024232
C76	C	1.827895	1.641061	0.274232
C77	C	0.906422	0.503374	-0.437776
C78	C	1.156422	0.753374	-0.187776
C79	C	1.406422	1.003374	0.062224
C80	C	1.656422	1.253374	0.312224
C81	C	0.816799	0.503393	-0.437787
C82	C	1.066799	0.753393	-0.187787
C83	C	1.316799	1.003393	0.062213
C84	C	1.566799	1.253393	0.312213
C85	C	1.115972	0.503311	-0.648101
C86	C	1.365972	0.753311	-0.398101
C87	C	1.615972	1.003311	-0.148101
C88	C	1.865972	1.253311	0.101899
C89	C	1.115997	0.503278	-0.737719
C90	C	1.365997	0.753278	-0.487719
C91	C	1.615997	1.003278	-0.237719
C92	C	1.865997	1.253278	0.012281
C93	C	0.488623	0.503400	-0.437823
C94	C	0.738623	0.753400	-0.187823
C95	C	0.988623	1.003400	0.062177
C96	C	1.238623	1.253400	0.312177
C97	C	0.579932	0.503395	-0.437810
C98	C	0.829932	0.753395	-0.187810
C99	C	1.079932	1.003395	0.062190
C100	C	1.329932	1.253395	0.312190
C101	C	0.652708	0.503397	-0.437804
C102	C	0.902708	0.753397	-0.187804
C103	C	1.152708	1.003397	0.062196
C104	C	1.402708	1.253397	0.312196
C105	C	0.744023	0.503391	-0.437793
C106	C	0.994023	0.753391	-0.187793
C107	C	1.244023	1.003391	0.062207
C108	C	1.494023	1.253391	0.312207
C109	C	1.326219	0.503405	-0.437825
C110	C	1.576219	0.753405	-0.187825
C111	C	1.826219	1.003405	0.062175
C112	C	2.076219	1.253405	0.312175
C113	C	1.415839	0.503411	-0.437835
C114	C	1.665839	0.753411	-0.187835
C115	C	1.915839	1.003411	0.062165
C116	C	2.165839	1.253411	0.312165
C117	C	1.142715	0.230813	-0.411141
C118	C	1.392715	0.480813	-0.161141
C119	C	1.642715	0.730813	0.088859
C120	C	1.892715	0.980813	0.338859
C121	C	1.154137	0.114657	-0.399780
C122	C	1.404137	0.364657	-0.149780
C123	C	1.654137	0.614657	0.100220
C124	C	1.904137	0.864657	0.350220
C125	C	1.121872	0.942834	-0.431889
C126	C	1.371872	1.192834	-0.181889
C127	C	1.621872	1.442834	0.068111
C128	C	1.871872	1.692834	0.318111
C129	C	1.110154	1.062887	-0.443665
C130	C	1.360154	1.312887	-0.193665
C131	C	1.610154	1.562887	0.056335
C132	C	1.860154	1.812887	0.306335
C133	C	1.116046	0.503161	-1.065884
C134	C	1.366046	0.753161	-0.815884
C135	C	1.616046	1.003161	-0.565884
C136	C	1.866046	1.253161	-0.315884
C137	C	1.116030	0.503197	-0.974579
C138	C	1.366030	0.753197	-0.724579
C139	C	1.616030	1.003197	-0.474579
C140	C	1.866030	1.253197	-0.224579
C141	C	1.116022	0.503220	-0.901805
C142	C	1.366022	0.753220	-0.651805
C143	C	1.616022	1.003220	-0.401805
C144	C	1.866022	1.253220	-0.151805
C145	C	1.116005	0.503255	-0.810494
C146	C	1.366005	0.753255	-0.560494
C147	C	1.616005	1.003255	-0.310494
C148	C	1.866005	1.253255	-0.060494
C149	C	1.115906	0.503391	-0.228310
C150	C	1.365906	0.753391	0.021690
C151	C	1.615906	1.003391	0.271690
C152	C	1.865906	1.253391	0.521690
C153	C	1.116065	0.503130	-0.138663
C154	C	1.366065	0.753130	0.111337
C155	C	1.616065	1.003130	0.361337
C156	C	1.866065	1.253130	0.611337
H157	H	1.168201	0.898282	-0.385607
H158	H	1.418201	1.148282	-0.135607
H159	H	1.668201	1.398282	0.114393
H160	H	1.918201	1.648282	0.364393
C161	C	1.048106	1.230307	-0.505724
C162	C	1.298106	1.480307	-0.255724
C163	C	1.548106	1.730307	-0.005724
C164	C	1.798106	1.980307	0.244276
C165	C	1.047610	1.123018	-0.506153
C166	C	1.297610	1.373018	-0.256153
C167	C	1.547610	1.623018	-0.006153
C168	C	1.797610	1.873018	0.243847
H169	H	1.009491	1.267428	-0.544297
H170	H	1.259491	1.517428	-0.294297
H171	H	1.509491	1.767428	-0.044297
H172	H	1.759491	2.017428	0.205703
H173	H	1.100547	1.248064	-0.519306
H174	H	1.350547	1.498064	-0.269306
H175	H	1.600547	1.748064	-0.019306
H176	H	1.850547	1.998064	0.230694
H177	H	1.034602	1.248193	-0.453277
H178	H	1.284602	1.498193	-0.203277
H179	H	1.534602	1.748193	0.046723
H180	H	1.784602	1.998193	0.296723
H181	H	1.061119	1.105131	-0.558599
H182	H	1.311119	1.355131	-0.308599
H183	H	1.561119	1.605131	-0.058599
H184	H	1.811119	1.855131	0.191401
H185	H	0.995156	1.105254	-0.492576
H186	H	1.245156	1.355254	-0.242576
H187	H	1.495156	1.605254	0.007424
H188	H	1.745156	1.855254	0.257424
C189	C	1.177304	0.991871	-0.279365
C190	C	1.427304	1.241871	-0.029365
C191	C	1.677304	1.491871	0.220635
C192	C	1.927304	1.741871	0.470635
C193	C	1.216680	1.054532	-0.337289
C194	C	1.466680	1.304532	-0.087289
C195	C	1.716680	1.554532	0.162711
C196	C	1.966680	1.804532	0.412711
H197	H	1.215915	0.954760	-0.240783
H198	H	1.465915	1.204760	0.009217
H199	H	1.715915	1.454760	0.259217
H200	H	1.965915	1.704760	0.509217
H201	H	1.151243	0.943834	-0.305368
H202	H	1.401243	1.193834	-0.055368
H203	H	1.651243	1.443834	0.194632
H204	H	1.901243	1.693834	0.444632
H205	H	1.138057	1.034530	-0.252650
H206	H	1.388057	1.284530	-0.002650
H207	H	1.638057	1.534530	0.247350
H208	H	1.888057	1.784530	0.497350
H209	H	1.255923	1.011872	-0.364007
H210	H	1.505923	1.261872	-0.114007
H211	H	1.755923	1.511872	0.135993
H212	H	2.005923	1.761872	0.385993
H213	H	1.242754	1.102575	-0.311283
H214	H	1.492754	1.352575	-0.061283
H215	H	1.742754	1.602575	0.188717
H216	H	1.992754	1.852575	0.438717
H217	H	1.031573	0.935614	-0.522056
H218	H	1.281573	1.185614	-0.272056
H219	H	1.531573	1.435614	-0.022056
H220	H	1.781573	1.685614	0.227944
