data_functionalizedCrystal
_audit_creation_method	'MofGen! by Chris Wilmer'
_symmetry_space_group_name_H-M	'P1'
_symmetry_Int_Tables_number	1
_symmetry_cell_setting	triclinic
loop_
_symmetry_equiv_pos_as_xyz
  x,y,z
_cell_length_a	10.723024
_cell_length_b	10.723024
_cell_length_c	9.798715
_cell_angle_alpha	90.002605
_cell_angle_beta	89.997513
_cell_angle_gamma	95.532131
loop_
_atom_site_label
_atom_site_type_symbol
_atom_site_fract_x
_atom_site_fract_y
_atom_site_fract_z
O1	O	1.657187	-0.175024	-0.113452
O2	O	2.157187	0.324976	0.386548
O3	O	1.294035	-0.191778	-0.113463
O4	O	1.794035	0.308222	0.386537
O5	O	1.483988	-0.001825	-0.113450
O6	O	1.983988	0.498175	0.386550
O7	O	1.467234	-0.364977	-0.113465
O8	O	1.967234	0.135023	0.386535
O9	O	1.483974	-0.001824	0.113532
O10	O	1.983974	0.498176	0.613532
O11	O	1.294021	-0.191777	0.113519
O12	O	1.794021	0.308223	0.613519
O13	O	1.657173	-0.175024	0.113530
O14	O	2.157173	0.324976	0.613530
Zn15	Zn	1.475595	-0.183401	0.149563
Zn16	Zn	1.975595	0.316599	0.649563
Zn17	Zn	1.475613	-0.183401	-0.149496
Zn18	Zn	1.975613	0.316599	0.350504
O19	O	1.467220	-0.364977	0.113517
O20	O	1.967220	0.135023	0.613517
C21	C	1.247528	-0.190558	0.000027
C22	C	1.747528	0.309442	0.500027
C23	C	1.108974	-0.186911	0.000023
C24	C	1.608974	0.313089	0.500023
C25	C	1.482762	0.044675	0.000040
C26	C	1.982762	0.544675	0.500040
C27	C	1.479114	0.183229	0.000037
C28	C	1.979114	0.683229	0.500037
N29	N	1.475591	-0.183399	0.353663
N30	N	1.975591	0.316601	0.853663
C31	C	1.703680	-0.176243	0.000038
C32	C	2.203680	0.323757	0.500038
C33	C	1.842234	-0.179891	0.000033
C34	C	2.342234	0.320109	0.500033
C35	C	1.917217	-0.073603	0.000035
C36	C	2.417217	0.426397	0.500035
C37	C	2.060420	-0.077371	0.000030
C38	C	2.560420	0.422629	0.500030
C39	C	1.585401	0.258212	0.000039
C40	C	2.085401	0.758212	0.500039
C41	C	1.581634	0.401415	0.000036
C42	C	2.081634	0.901415	0.500036
C43	C	1.468447	0.588523	0.000027
C44	C	1.968447	1.088523	0.500027
C45	C	1.472094	0.449969	0.000031
C46	C	1.972094	0.949969	0.500031
N47	N	1.475627	-0.183393	-0.353595
N48	N	1.975627	0.316607	0.146405
C49	C	1.555347	-0.103292	0.421445
C50	C	2.055347	0.396708	0.921445
C51	C	1.555367	-0.103288	0.578608
C52	C	2.055367	0.396712	1.078608
H53	H	1.875395	0.020182	0.000062
H54	H	2.375395	0.520182	0.500062
H55	H	1.385328	0.225051	0.000026
H56	H	1.885328	0.725051	0.500026
Br57	Br	1.361790	-0.297701	0.450854
Br58	Br	1.861790	0.202299	0.950854
Br59	Br	1.668819	0.011335	0.324254
Br60	Br	2.168819	0.511335	0.824254
Br61	Br	1.911926	-0.336217	0.000039
Br62	Br	2.411926	0.163783	0.500039
H63	H	1.623654	-0.034709	0.636898
H64	H	2.123654	0.465291	1.136898
Br65	Br	2.167804	0.074296	0.000017
Br66	Br	2.667804	0.574296	0.500017
H67	H	2.044549	-0.277906	0.000015
H68	H	2.544549	0.222094	0.500015
Br69	Br	1.733301	0.508799	0.000055
Br70	Br	2.233301	1.008799	0.500055
H71	H	1.679187	0.216390	0.000050
H72	H	2.179187	0.716390	0.500050
Br73	Br	1.320422	0.342592	0.000044
Br74	Br	1.820422	0.842592	0.500044
H75	H	1.407345	-0.251984	0.588124
H76	H	1.907345	0.248016	1.088124
