data_functionalizedCrystal
_audit_creation_method	'MofGen! by Chris Wilmer'
_symmetry_space_group_name_H-M	'P1'
_symmetry_Int_Tables_number	1
_symmetry_cell_setting	triclinic
loop_
_symmetry_equiv_pos_as_xyz
  x,y,z
_cell_length_a	18.215407
_cell_length_b	18.215399
_cell_length_c	11.169416
_cell_angle_alpha	90.024035
_cell_angle_beta	89.992201
_cell_angle_gamma	89.986109
loop_
_atom_site_label
_atom_site_type_symbol
_atom_site_fract_x
_atom_site_fract_y
_atom_site_fract_z
Zn1	Zn	1.125124	-0.416091	0.477872
Zn2	Zn	1.375124	-0.166091	0.727872
Zn3	Zn	1.625124	0.083909	0.977872
Zn4	Zn	1.875124	0.333909	1.227872
Zn5	Zn	1.125071	-0.293038	0.678589
Zn6	Zn	1.375071	-0.043038	0.928589
Zn7	Zn	1.625071	0.206962	1.178589
Zn8	Zn	1.875071	0.456962	1.428589
Zn9	Zn	1.002063	-0.293044	0.477910
Zn10	Zn	1.252063	-0.043044	0.727910
Zn11	Zn	1.502063	0.206956	0.977910
Zn12	Zn	1.752063	0.456956	1.227910
Zn13	Zn	1.002054	-0.416069	0.678503
Zn14	Zn	1.252054	-0.166069	0.928503
Zn15	Zn	1.502054	0.083931	1.178503
Zn16	Zn	1.752054	0.333931	1.428503
O17	O	1.063578	-0.354560	0.578218
O18	O	1.313578	-0.104560	0.828218
O19	O	1.563578	0.145440	1.078218
O20	O	1.813578	0.395440	1.328218
O21	O	1.228102	-0.399774	0.504518
O22	O	1.478102	-0.149774	0.754518
O23	O	1.728102	0.100226	1.004518
O24	O	1.978102	0.350226	1.254518
O25	O	1.108735	-0.190054	0.652020
O26	O	1.358735	0.059946	0.902020
O27	O	1.608735	0.309946	1.152020
O28	O	1.858735	0.559946	1.402020
O29	O	1.018414	-0.309378	0.309955
O30	O	1.268414	-0.059378	0.559955
O31	O	1.518414	0.190622	0.809955
O32	O	1.768414	0.440622	1.059955
O33	O	1.228062	-0.309367	0.651984
O34	O	1.478062	-0.059367	0.901984
O35	O	1.728062	0.190633	1.151984
O36	O	1.978062	0.440633	1.401984
O37	O	1.108827	-0.399780	0.309928
O38	O	1.358827	-0.149780	0.559928
O39	O	1.608827	0.100220	0.809928
O40	O	1.858827	0.350220	1.059928
O41	O	1.018362	-0.190059	0.504582
O42	O	1.268362	0.059941	0.754582
O43	O	1.518362	0.309941	1.004582
O44	O	1.768362	0.559941	1.254582
O45	O	0.899078	-0.309357	0.504498
O46	O	1.149078	-0.059357	0.754498
O47	O	1.399078	0.190643	1.004498
O48	O	1.649078	0.440643	1.254498
O49	O	1.018398	-0.519056	0.651838
O50	O	1.268398	-0.269056	0.901838
O51	O	1.518398	-0.019056	1.151838
O52	O	1.768398	0.230944	1.401838
O53	O	0.899071	-0.399743	0.651874
O54	O	1.149071	-0.149743	0.901874
O55	O	1.399071	0.100257	1.151874
O56	O	1.649071	0.350257	1.401874
O57	O	1.108818	-0.519072	0.504435
O58	O	1.358818	-0.269072	0.754435
O59	O	1.608818	-0.019072	1.004435
O60	O	1.858818	0.230928	1.254435
O61	O	1.108726	-0.309347	0.846527
O62	O	1.358726	-0.059347	1.096527
O63	O	1.608726	0.190653	1.346527
O64	O	1.858726	0.440653	1.596527
O65	O	1.018346	-0.399737	0.846464
O66	O	1.268346	-0.149737	1.096464
O67	O	1.518346	0.100263	1.346464
O68	O	1.768346	0.350263	1.596464
C69	C	0.872372	-0.354549	0.578182
C70	C	1.122372	-0.104549	0.828182
C71	C	1.372372	0.145451	1.078182
C72	C	1.622372	0.395451	1.328182
C73	C	0.790573	-0.354562	0.578195
C74	C	1.040573	-0.104562	0.828195
C75	C	1.290573	0.145438	1.078195
C76	C	1.540573	0.395438	1.328195
C77	C	0.525531	-0.401560	0.655083
C78	C	0.775531	-0.151560	0.905083
C79	C	1.025531	0.098440	1.155083
C80	C	1.275531	0.348440	1.405083
C81	C	0.602390	-0.401556	0.655073
C82	C	0.852390	-0.151556	0.905073
C83	C	1.102390	0.098444	1.155073
C84	C	1.352390	0.348444	1.405073
C85	C	0.602366	-0.307574	0.501381
C86	C	0.852366	-0.057574	0.751381
C87	C	1.102366	0.192426	1.001381
C88	C	1.352366	0.442426	1.251381
C89	C	0.525509	-0.307574	0.501398
C90	C	0.775509	-0.057574	0.751398
C91	C	1.025509	0.192426	1.001398
C92	C	1.275509	0.442426	1.251398
C93	C	0.487093	-0.354572	0.578247
C94	C	0.737093	-0.104572	0.828247
C95	C	0.987093	0.145428	1.078247
C96	C	1.237093	0.395428	1.328247
C97	C	0.640810	-0.354568	0.578220
C98	C	0.890810	-0.104568	0.828220
C99	C	1.140810	0.145432	1.078220
C100	C	1.390810	0.395432	1.328220
C101	C	0.724143	-0.354563	0.578208
C102	C	0.974143	-0.104563	0.828208
C103	C	1.224143	0.145437	1.078208
C104	C	1.474143	0.395437	1.328208
C105	C	0.403754	-0.354575	0.578261
C106	C	0.653754	-0.104575	0.828261
C107	C	0.903754	0.145425	1.078261
C108	C	1.153754	0.395425	1.328261
C109	C	1.063613	-0.546513	0.578123
C110	C	1.313613	-0.296513	0.828123
C111	C	1.563613	-0.046513	1.078123
C112	C	1.813613	0.203487	1.328123
C113	C	1.063628	-0.628312	0.578082
C114	C	1.313628	-0.378312	0.828082
C115	C	1.563628	-0.128312	1.078082
C116	C	1.813628	0.121688	1.328082
C117	C	1.016610	-0.816510	0.501259
C118	C	1.266610	-0.566510	0.751259
C119	C	1.516610	-0.316510	1.001259
C120	C	1.766610	-0.066510	1.251259
C121	C	1.016623	-0.893369	0.501235
C122	C	1.266623	-0.643369	0.751235
C123	C	1.516623	-0.393369	1.001235
C124	C	1.766623	-0.143369	1.251235
C125	C	1.110733	-0.893353	0.654762
C126	C	1.360733	-0.643353	0.904762
C127	C	1.610733	-0.393353	1.154762
C128	C	1.860733	-0.143353	1.404762
C129	C	1.110716	-0.816496	0.654791
C130	C	1.360716	-0.566496	0.904791
C131	C	1.610716	-0.316496	1.154791
C132	C	1.860716	-0.066496	1.404791
C133	C	1.063656	-0.778076	0.578033
C134	C	1.313656	-0.528076	0.828033
C135	C	1.563656	-0.278076	1.078033
C136	C	1.813656	-0.028076	1.328033
C137	C	1.063686	-0.931792	0.577979
C138	C	1.313686	-0.681792	0.827979
C139	C	1.563686	-0.431792	1.077979
C140	C	1.813686	-0.181792	1.327979
C141	C	1.063700	-1.015126	0.577954
C142	C	1.313700	-0.765126	0.827954
C143	C	1.563700	-0.515126	1.077954
C144	C	1.813700	-0.265126	1.327954
C145	C	1.063640	-0.694737	0.578060
C146	C	1.313640	-0.444737	0.828060
C147	C	1.563640	-0.194737	1.078060
C148	C	1.813640	0.055263	1.328060
C149	C	1.255531	-0.354572	0.578256
C150	C	1.505531	-0.104572	0.828256
C151	C	1.755531	0.145428	1.078256
C152	C	2.005531	0.395428	1.328256
C153	C	1.337330	-0.354577	0.578272
C154	C	1.587330	-0.104577	0.828272
C155	C	1.837330	0.145423	1.078272
C156	C	2.087330	0.395423	1.328272
C157	C	1.063549	-0.354555	0.890043
C158	C	1.313549	-0.104555	1.140043
C159	C	1.563549	0.145445	1.390043
C160	C	1.813549	0.395445	1.640043
C161	C	1.063604	-0.354577	1.023443
C162	C	1.313604	-0.104577	1.273443
C163	C	1.563604	0.145423	1.523443
C164	C	1.813604	0.395423	1.773443
C165	C	1.063586	-0.163354	0.578227
C166	C	1.313586	0.086646	0.828227
C167	C	1.563586	0.336646	1.078227
C168	C	1.813586	0.586646	1.328227
C169	C	1.063714	-0.081556	0.577930
C170	C	1.313714	0.168444	0.827930
C171	C	1.563714	0.418444	1.077930
C172	C	1.813714	0.668444	1.327930
C173	C	1.063628	-0.354582	0.265176
C174	C	1.313628	-0.104582	0.515176
C175	C	1.563628	0.145418	0.765176
C176	C	1.813628	0.395418	1.015176
C177	C	1.063649	-0.354591	0.131776
C178	C	1.313649	-0.104591	0.381776
C179	C	1.563649	0.145409	0.631776
C180	C	1.813649	0.395409	0.881776
H181	H	0.633654	-0.269312	0.438812
H182	H	0.883654	-0.019312	0.688812
H183	H	1.133654	0.230688	0.938812
H184	H	1.383654	0.480688	1.188812
H185	H	1.149048	-0.924644	0.717254
H186	H	1.399048	-0.674644	0.967254
H187	H	1.649048	-0.424644	1.217254
H188	H	1.899048	-0.174644	1.467254
H189	H	0.494255	-0.439828	0.717659
H190	H	0.744255	-0.189828	0.967659
H191	H	0.994255	0.060172	1.217659
H192	H	1.244255	0.310172	1.467659
H193	H	1.149028	-0.785202	0.717314
H194	H	1.399028	-0.535202	0.967314
H195	H	1.649028	-0.285202	1.217314
H196	H	1.899028	-0.035202	1.467314
H197	H	0.494212	-0.269307	0.438828
H198	H	0.744212	-0.019307	0.688828
H199	H	0.994212	0.230693	0.938828
H200	H	1.244212	0.480693	1.188828
H201	H	0.633682	-0.439818	0.717641
H202	H	0.883682	-0.189818	0.967641
H203	H	1.133682	0.060182	1.217641
H204	H	1.383682	0.310182	1.467641
H205	H	0.978313	-0.924658	0.438719
H206	H	1.228313	-0.674658	0.688719
H207	H	1.478313	-0.424658	0.938719
H208	H	1.728313	-0.174658	1.188719
H209	H	0.978291	-0.785231	0.438758
H210	H	1.228291	-0.535231	0.688758
H211	H	1.478291	-0.285231	0.938758
H212	H	1.728291	-0.035231	1.188758
