data_functionalizedCrystal
_audit_creation_method	'MofGen! by Chris Wilmer'
_symmetry_space_group_name_H-M	'P1'
_symmetry_Int_Tables_number	1
_symmetry_cell_setting	triclinic
loop_
_symmetry_equiv_pos_as_xyz
  x,y,z
_cell_length_a	18.215407
_cell_length_b	16.120444
_cell_length_c	16.120256
_cell_angle_alpha	84.383140
_cell_angle_beta	87.119259
_cell_angle_gamma	92.923925
loop_
_atom_site_label
_atom_site_type_symbol
_atom_site_fract_x
_atom_site_fract_y
_atom_site_fract_z
Zn1	Zn	1.087185	-0.356817	0.489416
Zn2	Zn	1.337185	-0.106817	0.739416
Zn3	Zn	1.587185	0.143183	0.989416
Zn4	Zn	1.837185	0.393183	1.239416
Zn5	Zn	1.087090	-0.489504	0.356727
Zn6	Zn	1.337090	-0.239504	0.606727
Zn7	Zn	1.587090	0.010496	0.856727
Zn8	Zn	1.837090	0.260496	1.106727
Zn9	Zn	0.970689	-0.349743	0.349666
Zn10	Zn	1.220689	-0.099743	0.599666
Zn11	Zn	1.470689	0.150257	0.849666
Zn12	Zn	1.720689	0.400257	1.099666
Zn13	Zn	0.957510	-0.496543	0.496456
Zn14	Zn	1.207510	-0.246543	0.746456
Zn15	Zn	1.457510	0.003457	0.996456
Zn16	Zn	1.707510	0.253457	1.246456
O17	O	1.025618	-0.423152	0.423066
O18	O	1.275618	-0.173152	0.673066
O19	O	1.525618	0.076848	0.923066
O20	O	1.775618	0.326848	1.173066
O21	O	1.190155	-0.374433	0.471823
O22	O	1.440155	-0.124433	0.721823
O23	O	1.690155	0.125567	0.971823
O24	O	1.940155	0.375567	1.221823
O25	O	1.077125	-0.465058	0.238828
O26	O	1.327125	-0.215058	0.488828
O27	O	1.577125	0.034942	0.738828
O28	O	1.827125	0.284942	0.988828
O29	O	0.991698	-0.233716	0.362303
O30	O	1.241698	0.016284	0.612303
O31	O	1.491698	0.266284	0.862303
O32	O	1.741698	0.516284	1.112303
O33	O	1.190086	-0.471917	0.374338
O34	O	1.440086	-0.221917	0.624338
O35	O	1.690086	0.028083	0.874338
O36	O	1.940086	0.278083	1.124338
O37	O	1.077286	-0.238913	0.464976
O38	O	1.327286	0.011087	0.714976
O39	O	1.577286	0.261087	0.964976
O40	O	1.827286	0.511087	1.214976
O41	O	0.991606	-0.362377	0.233640
O42	O	1.241606	-0.112377	0.483640
O43	O	1.491606	0.137623	0.733640
O44	O	1.741606	0.387623	0.983640
O45	O	0.865958	-0.369202	0.369129
O46	O	1.115958	-0.119202	0.619129
O47	O	1.365958	0.130798	0.869129
O48	O	1.615958	0.380798	1.119129
O49	O	0.969236	-0.483914	0.612485
O50	O	1.219236	-0.233914	0.862485
O51	O	1.469236	0.016086	1.112485
O52	O	1.719236	0.266086	1.362485
O53	O	0.856275	-0.477055	0.476975
O54	O	1.106275	-0.227055	0.726975
O55	O	1.356275	0.022945	0.976975
O56	O	1.606275	0.272945	1.226975
O57	O	1.064507	-0.381259	0.607313
O58	O	1.314507	-0.131259	0.857313
O59	O	1.564507	0.118741	1.107313
O60	O	1.814507	0.368741	1.357313
O61	O	1.064346	-0.607403	0.381164
O62	O	1.314346	-0.357403	0.631164
O63	O	1.564346	-0.107403	0.881164
O64	O	1.814346	0.142597	1.131164
O65	O	0.969144	-0.612575	0.483822
O66	O	1.219144	-0.362575	0.733822
O67	O	1.469144	-0.112575	0.983822
O68	O	1.719144	0.137425	1.233822
C69	C	0.834414	-0.423125	0.423050
C70	C	1.084414	-0.173125	0.673050
C71	C	1.334414	0.076875	0.923050
C72	C	1.584414	0.326875	1.173050
C73	C	0.752614	-0.423135	0.423064
C74	C	1.002614	-0.173135	0.673064
C75	C	1.252614	0.076865	0.923064
C76	C	1.502614	0.326865	1.173064
C77	C	0.564446	-0.372490	0.473915
C78	C	0.814446	-0.122490	0.723915
C79	C	1.064446	0.127510	0.973915
C80	C	1.314446	0.377510	1.223915
C81	C	0.487587	-0.372497	0.473918
C82	C	0.737587	-0.122497	0.723918
C83	C	0.987587	0.127503	0.973918
C84	C	1.237587	0.377503	1.223918
C85	C	0.487541	-0.473838	0.372233
C86	C	0.737541	-0.223838	0.622233
C87	C	0.987541	0.026162	0.872233
C88	C	1.237541	0.276162	1.122233
C89	C	0.564399	-0.473826	0.372226
C90	C	0.814399	-0.223826	0.622226
C91	C	1.064399	0.026174	0.872226
C92	C	1.314399	0.276174	1.122226
C93	C	0.602849	-0.423153	0.423072
C94	C	0.852849	-0.173153	0.673072
C95	C	1.102849	0.076847	0.923072
C96	C	1.352849	0.326847	1.173072
C97	C	0.449132	-0.423173	0.423082
C98	C	0.699132	-0.173173	0.673082
C99	C	0.949132	0.076827	0.923082
C100	C	1.199132	0.326827	1.173082
C101	C	0.365798	-0.423181	0.423085
C102	C	0.615798	-0.173181	0.673085
C103	C	0.865798	0.076819	0.923085
C104	C	1.115798	0.326819	1.173085
C105	C	0.686189	-0.423143	0.423068
C106	C	0.936189	-0.173143	0.673068
C107	C	1.186189	0.076857	0.923068
C108	C	1.436189	0.326857	1.173068
C109	C	1.015324	-0.640318	0.434042
C110	C	1.265324	-0.390318	0.684042
C111	C	1.515324	-0.140318	0.934042
C112	C	1.765324	0.109682	1.184042
C113	C	1.010985	-0.733224	0.438765
C114	C	1.260985	-0.483224	0.688765
C115	C	1.510985	-0.233224	0.938765
C116	C	1.760985	0.016776	1.188765
C117	C	1.048295	-0.942134	0.398744
C118	C	1.298295	-0.692134	0.648744
C119	C	1.548295	-0.442134	0.898744
C120	C	1.798295	-0.192134	1.148744
C121	C	1.003078	-0.903319	0.447398
C122	C	1.253078	-0.653319	0.697398
C123	C	1.503078	-0.403319	0.947398
C124	C	1.753078	-0.153319	1.197398
C125	C	1.007479	-0.808669	0.442593
C126	C	1.257479	-0.558669	0.692593
C127	C	1.507479	-0.308669	0.942593
C128	C	1.757479	-0.058669	1.192593
C129	C	1.043895	-1.036792	0.403547
C130	C	1.293895	-0.786792	0.653547
C131	C	1.543895	-0.536792	0.903547
C132	C	1.793895	-0.286792	1.153547
C133	C	1.217569	-0.423179	0.423083
C134	C	1.467569	-0.173179	0.673083
C135	C	1.717569	0.076821	0.923083
C136	C	1.967569	0.326821	1.173083
C137	C	1.299367	-0.423191	0.423090
C138	C	1.549367	-0.173191	0.673090
C139	C	1.799367	0.076809	0.923090
C140	C	2.049367	0.326809	1.173090
C141	C	1.015412	-0.434161	0.641074
C142	C	1.265412	-0.184161	0.891074
C143	C	1.515412	0.065839	1.141074
C144	C	1.765412	0.315839	1.391074
C145	C	1.011062	-0.438852	0.733976
C146	C	1.261062	-0.188852	0.983976
C147	C	1.511062	0.061148	1.233976
C148	C	1.761062	0.311148	1.483976
C149	C	1.035973	-0.205139	0.412066
C150	C	1.285973	0.044861	0.662066
C151	C	1.535973	0.294861	0.912066
C152	C	1.785973	0.544861	1.162066
C153	C	1.040385	-0.112235	0.407379
C154	C	1.290385	0.137765	0.657379
C155	C	1.540385	0.387765	0.907379
C156	C	1.790385	0.637765	1.157379
C157	C	1.035831	-0.412125	0.205904
C158	C	1.285831	-0.162125	0.455904
C159	C	1.535831	0.087875	0.705904
C160	C	1.785831	0.337875	0.955904
C161	C	1.040334	-0.407199	0.112991
C162	C	1.290334	-0.157199	0.362991
C163	C	1.540334	0.092801	0.612991
C164	C	1.790334	0.342801	0.862991
C165	C	1.048300	-0.398665	0.942900
C166	C	1.298300	-0.148665	1.192900
C167	C	1.548300	0.101335	1.442900
C168	C	1.798300	0.351335	1.692900
C169	C	1.003098	-0.447383	0.904061
C170	C	1.253098	-0.197383	1.154061
C171	C	1.503098	0.052617	1.404061
C172	C	1.753098	0.302617	1.654061
C173	C	1.007531	-0.442635	0.809417
C174	C	1.257531	-0.192635	1.059417
C175	C	1.507531	0.057365	1.309417
C176	C	1.757531	0.307365	1.559417
C177	C	1.043868	-0.403412	1.037553
C178	C	1.293868	-0.153412	1.287553
C179	C	1.543868	0.096588	1.537553
C180	C	1.793868	0.346588	1.787553
H181	H	0.456323	-0.331240	0.515319
H182	H	0.706323	-0.081240	0.765319
H183	H	0.956323	0.168760	1.015319
H184	H	1.206323	0.418760	1.265319
H185	H	0.961061	-0.941172	0.492659
H186	H	1.211061	-0.691172	0.742659
H187	H	1.461061	-0.441172	0.992659
H188	H	1.711061	-0.191172	1.242659
H189	H	1.090308	-0.904285	0.353484
H190	H	1.340308	-0.654285	0.603484
H191	H	1.590308	-0.404285	0.853484
H192	H	1.840308	-0.154285	1.103484
H193	H	0.961067	-0.492652	0.941891
H194	H	1.211067	-0.242652	1.191891
H195	H	1.461067	0.007348	1.441891
H196	H	1.711067	0.257348	1.691891
H197	H	1.090324	-0.353396	0.905072
H198	H	1.340324	-0.103396	1.155072
H199	H	1.590324	0.146604	1.405072
H200	H	1.840324	0.396604	1.655072
H201	H	0.456225	-0.515095	0.330837
H202	H	0.706225	-0.265095	0.580837
H203	H	0.956225	-0.015095	0.830837
H204	H	1.206225	0.234905	1.080837
H205	H	0.595668	-0.515083	0.330819
H206	H	0.845668	-0.265083	0.580819
H207	H	1.095668	-0.015083	0.830819
H208	H	1.345668	0.234917	1.080819
H209	H	0.595751	-0.331226	0.515314
H210	H	0.845751	-0.081226	0.765314
H211	H	1.095751	0.168774	1.015314
H212	H	1.345751	0.418774	1.265314
