data_functionalizedCrystal
_audit_creation_method	'MofGen! by Chris Wilmer'
_symmetry_space_group_name_H-M	'P1'
_symmetry_Int_Tables_number	1
_symmetry_cell_setting	triclinic
loop_
_symmetry_equiv_pos_as_xyz
  x,y,z
_cell_length_a	12.759399
_cell_length_b	12.759401
_cell_length_c	12.759401
_cell_angle_alpha	89.993434
_cell_angle_beta	90.008321
_cell_angle_gamma	89.986676
loop_
_atom_site_label
_atom_site_type_symbol
_atom_site_fract_x
_atom_site_fract_y
_atom_site_fract_z
Zn1	Zn	-0.418500	-1.606118	0.594006
Zn2	Zn	0.081500	-1.106118	1.094006
Zn3	Zn	-0.594146	-1.606051	0.418325
Zn4	Zn	-0.094146	-1.106051	0.918325
Zn5	Zn	-0.418476	-1.430460	0.418343
Zn6	Zn	0.081524	-0.930460	0.918343
Zn7	Zn	-0.594132	-1.430407	0.593963
Zn8	Zn	-0.094132	-0.930407	1.093963
O9	O	-0.506314	-1.518259	0.506159
O10	O	-0.006314	-1.018259	1.006159
O11	O	-0.441816	-1.753130	0.570712
O12	O	0.058184	-1.253130	1.070712
O13	O	-0.570839	-1.582752	0.271306
O14	O	-0.070839	-1.082752	0.771306
O15	O	-0.271458	-1.453811	0.441670
O16	O	0.228542	-0.953811	0.941670
O17	O	-0.570862	-1.753081	0.441640
O18	O	-0.070862	-1.253081	0.941640
O19	O	-0.271476	-1.582867	0.570729
O20	O	0.228524	-1.082867	1.070729
O21	O	-0.441775	-1.453746	0.271319
O22	O	0.058225	-0.953746	0.771319
O23	O	-0.441762	-1.283432	0.441628
O24	O	0.058238	-0.783432	0.941628
O25	O	-0.570838	-1.453722	0.740990
O26	O	-0.070838	-0.953722	1.240990
O27	O	-0.570815	-1.283393	0.570656
O28	O	-0.070815	-0.783393	1.070656
O29	O	-0.441802	-1.582816	0.741021
O30	O	0.058198	-1.082816	1.241021
O31	O	-0.741165	-1.582701	0.441599
O32	O	-0.241165	-1.082701	0.941599
O33	O	-0.741155	-1.453657	0.570639
O34	O	-0.241155	-0.953657	1.070639
C35	C	-0.506285	-1.245292	0.506140
C36	C	-0.006285	-0.745292	1.006140
C37	C	-0.506298	-1.128515	0.506157
C38	C	-0.006298	-0.628515	1.006157
C39	C	-0.439223	-1.073679	0.573468
C40	C	0.060777	-0.573679	1.073468
C41	C	-0.439229	-0.963955	0.573473
C42	C	0.060771	-0.463955	1.073473
C43	C	-0.573395	-0.963912	0.438854
C44	C	-0.073395	-0.463912	0.938854
C45	C	-0.573383	-1.073634	0.438844
C46	C	-0.073383	-0.573634	0.938844
C47	C	-0.779281	-1.518195	0.506135
C48	C	-0.279281	-1.018195	1.006135
C49	C	-0.896058	-1.518263	0.506160
C50	C	-0.396058	-1.018263	1.006160
C51	C	-0.950890	-1.585533	0.439045
C52	C	-0.450890	-1.085533	0.939045
C53	C	-1.060614	-1.585601	0.439081
C54	C	-0.560614	-1.085601	0.939081
C55	C	-1.060663	-1.451119	0.573349
C56	C	-0.560663	-0.951119	1.073349
C57	C	-0.950941	-1.451058	0.573318
C58	C	-0.450941	-0.951058	1.073318
C59	C	-0.232280	-1.518352	0.506206
C60	C	0.267720	-1.018352	1.006206
C61	C	-0.115504	-1.518392	0.506226
C62	C	0.384496	-1.018392	1.006226
C63	C	-0.506321	-1.518271	0.780193
C64	C	-0.006321	-1.018271	1.280193
C65	C	-0.506324	-1.518276	0.896969
C66	C	-0.006324	-1.018276	1.396969
C67	C	-0.506333	-0.792292	0.506175
C68	C	-0.006333	-0.292292	1.006175
C69	C	-0.506317	-0.909069	0.506172
C70	C	-0.006317	-0.409069	1.006172
C71	C	-0.439146	-1.585486	0.951849
C72	C	0.060854	-1.085486	1.451849
C73	C	-0.439144	-1.585477	1.061573
C74	C	0.060856	-1.085477	1.561573
C75	C	-0.573507	-1.451044	1.061528
C76	C	-0.073507	-0.951044	1.561528
C77	C	-0.573503	-1.451048	0.951806
C78	C	-0.073503	-0.951048	1.451806
C79	C	-0.506330	-1.518246	1.233192
C80	C	-0.006330	-1.018246	1.733192
C81	C	-0.506326	-1.518262	1.116415
C82	C	-0.006326	-1.018262	1.616415
H83	H	-0.628004	-1.118283	0.384026
H84	H	-0.128004	-0.618283	0.884026
H85	H	-0.906206	-1.640258	0.384363
H86	H	-0.406206	-1.140258	0.884363
H87	H	-1.105254	-1.640380	0.384430
H88	H	-0.605254	-1.140380	0.884430
H89	H	-0.384439	-1.640205	1.106252
H90	H	0.115561	-1.140205	1.606252
H91	H	-0.906294	-1.396278	0.627976
H92	H	-0.406294	-0.896278	1.127976
Cl93	Cl	-1.129668	-1.366633	0.657768
Cl94	Cl	-0.629668	-0.866633	1.157768
H95	H	-0.384441	-1.640224	0.907205
H96	H	0.115559	-1.140224	1.407205
Cl97	Cl	-0.354883	-1.142669	0.658084
Cl98	Cl	0.145117	-0.642669	1.158084
H99	H	-0.628204	-1.396312	1.106189
H100	H	-0.128204	-0.896312	1.606189
Cl101	Cl	-0.657957	-1.366542	0.882808
Cl102	Cl	-0.157957	-0.866542	1.382808
H103	H	-0.384608	-0.919313	0.628282
H104	H	0.115392	-0.419313	1.128282
Cl105	Cl	-0.657729	-0.894912	0.354241
Cl106	Cl	-0.157729	-0.394912	0.854241
