data_functionalizedCrystal
_audit_creation_method	'MofGen! by Chris Wilmer'
_symmetry_space_group_name_H-M	'P1'
_symmetry_Int_Tables_number	1
_symmetry_cell_setting	triclinic
loop_
_symmetry_equiv_pos_as_xyz
  x,y,z
_cell_length_a	6.394989
_cell_length_b	8.559649
_cell_length_c	7.088929
_cell_angle_alpha	95.344185
_cell_angle_beta	83.614363
_cell_angle_gamma	78.138188
loop_
_atom_site_label
_atom_site_type_symbol
_atom_site_fract_x
_atom_site_fract_y
_atom_site_fract_z
O1	O	-2.705644	-0.276866	-0.158957
O2	O	-2.095406	-0.290011	-0.158965
O3	O	-2.454288	-0.051919	-0.158958
O4	O	-2.346762	-0.514958	-0.158964
O5	O	-2.502260	-0.020027	0.159018
O6	O	-2.143378	-0.258119	0.159011
O7	O	-2.753617	-0.244973	0.159019
Cu8	Cu	-2.452878	-0.248634	0.188049
Cu9	Cu	-2.396144	-0.286351	-0.187995
O10	O	-2.394735	-0.483066	0.159012
C11	C	-2.486422	0.023393	0.000026
C12	C	-2.510676	0.200283	0.000016
C13	C	-2.362600	-0.558378	0.000024
C14	C	-2.338344	-0.735270	0.000022
N15	N	-2.492796	-0.222106	0.452538
C16	C	-2.041989	-0.271465	0.000033
C17	C	-1.807029	-0.263521	0.000041
N18	N	-2.356244	-0.312867	-0.452483
H19	H	-2.676786	0.280446	0.000033
H20	H	-2.634338	-0.128056	0.534196
C21	C	-2.116853	0.157748	-0.000387
C22	C	-2.067969	0.045072	-0.164012
C23	C	-1.863936	-0.053503	-0.164467
H24	H	-2.116540	0.103236	0.110362
H25	H	-2.011906	0.221831	-0.000486
H26	H	-2.172888	-0.019003	-0.163895
H27	H	-2.068236	0.099539	-0.274787
H28	H	-1.758989	0.010580	-0.164567
H29	H	-1.863642	-0.108003	-0.053711
H30	H	-1.830734	-0.129955	-0.275492
C31	C	-2.167743	-0.438528	0.438761
C32	C	-2.183996	-0.590852	0.487271
C33	C	-2.010401	-0.706655	0.387093
H34	H	-2.036272	-0.415486	0.471409
H35	H	-2.170460	-0.436814	0.305236
H36	H	-2.181258	-0.592563	0.620766
H37	H	-2.315430	-0.613946	0.454619
H38	H	-2.013118	-0.704941	0.253568
H39	H	-1.878942	-0.683597	0.419749
H40	H	-2.021415	-0.810021	0.419980
