data_functionalizedCrystal
_audit_creation_method	'MofGen! by Chris Wilmer'
_symmetry_space_group_name_H-M	'P1'
_symmetry_Int_Tables_number	1
_symmetry_cell_setting	triclinic
loop_
_symmetry_equiv_pos_as_xyz
  x,y,z
_cell_length_a	19.377118
_cell_length_b	19.375795
_cell_length_c	16.704494
_cell_angle_alpha	107.185213
_cell_angle_beta	104.455604
_cell_angle_gamma	104.909995
loop_
_atom_site_label
_atom_site_type_symbol
_atom_site_fract_x
_atom_site_fract_y
_atom_site_fract_z
Zr1	Zr	0.838867	-0.642454	0.309934
O2	O	0.758704	-0.752347	0.196284
O3	O	0.843003	-0.524732	0.315847
O4	O	0.876815	-0.634199	0.196263
O5	O	0.721471	-0.652121	0.443102
O6	O	0.993232	-0.636593	0.229152
O7	O	0.724893	-0.642880	0.315867
O8	O	0.932749	-0.440777	0.443065
O9	O	0.781954	-0.847937	0.229189
O10	O	0.956341	-0.577839	0.377862
O11	O	0.866907	-0.582949	0.448271
O12	O	0.906715	-0.711832	0.307477
O13	O	0.817281	-0.716942	0.377886
Zr14	Zr	1.019082	-0.661010	0.565313
Zr15	Zr	1.024539	-0.646272	0.362388
Zr16	Zr	0.833411	-0.657193	0.512859
Zr17	Zr	0.875948	-0.794910	0.362414
Zr18	Zr	0.982002	-0.508554	0.512833
O19	O	1.014947	-0.778732	0.559400
O20	O	1.022706	-0.757775	0.270867
O21	O	0.750945	-0.773303	0.484817
O22	O	1.099246	-0.551118	0.678963
O23	O	1.107005	-0.530161	0.390430
O24	O	0.835244	-0.545689	0.604380
O25	O	1.136478	-0.651343	0.432145
O26	O	0.981135	-0.669265	0.678984
O27	O	0.864718	-0.666871	0.646095
O28	O	1.133057	-0.660584	0.559380
O29	O	0.929538	-0.850972	0.270883
O30	O	0.928412	-0.452492	0.604364
O31	O	1.075996	-0.455527	0.646058
O32	O	1.080333	-0.443811	0.484760
O33	O	0.777616	-0.859653	0.390487
O34	O	0.925201	-0.862687	0.432182
O35	O	0.951234	-0.591632	0.567770
O36	O	1.040668	-0.586522	0.497361
O37	O	0.991043	-0.720515	0.426976
O38	O	0.901609	-0.725625	0.497385
C39	C	0.882593	-0.461033	0.371979
C40	C	0.866851	-0.396311	0.349700
C41	C	1.062555	0.047765	0.626997
C42	C	1.047818	0.108603	0.606069
C43	C	0.948923	0.016160	0.465881
C44	C	0.963654	-0.044688	0.486796
C45	C	1.020471	-0.028879	0.567356
C46	C	0.921570	-0.121332	0.427154
C47	C	0.936297	-0.182174	0.448070
C48	C	0.993109	-0.166372	0.528627
C49	C	1.035198	-0.089721	0.588272
C50	C	0.864750	-0.137140	0.346597
C51	C	0.822665	-0.213783	0.286956
C52	C	0.837396	-0.274627	0.307868
C53	C	0.894208	-0.258825	0.388425
C54	C	0.795307	-0.351278	0.248224
C55	C	0.810035	-0.412120	0.269139
C56	C	0.908936	-0.319667	0.409341
C57	C	0.696728	-0.646956	0.372011
C58	C	0.617905	-0.645336	0.349743
C59	C	0.349259	-0.665493	0.626991
C60	C	0.275191	-0.663975	0.606052
C61	C	0.278959	-0.653793	0.465865
C62	C	0.353030	-0.655306	0.486795
C63	C	0.388174	-0.661157	0.567358
C64	C	0.391945	-0.650971	0.427162
C65	C	0.466008	-0.652488	0.448088
C66	C	0.501156	-0.658341	0.528646
C67	C	0.462237	-0.662675	0.588284
C68	C	0.356798	-0.645125	0.346596
C69	C	0.395713	-0.640790	0.286963
C70	C	0.469779	-0.642301	0.307891
C71	C	0.504927	-0.648154	0.388450
C72	C	0.508699	-0.637967	0.248253
C73	C	0.582762	-0.639485	0.269179
C74	C	0.578990	-0.649671	0.409376
C75	C	1.161222	-0.656508	0.503236
C76	C	1.240045	-0.658129	0.525504
C77	C	0.975335	0.157559	0.503263
C78	C	0.991012	0.092807	0.525528
C79	C	0.935801	-0.633296	0.183795
C80	C	0.938117	-0.627039	0.097648
C81	C	0.890670	-0.755183	-0.137718
C82	C	0.892845	-0.749308	-0.218662
C83	C	0.944648	-0.609413	-0.145186
C84	C	0.942473	-0.615289	-0.064242
C85	C	0.915482	-0.688176	-0.060512
C86	C	0.913301	-0.694051	0.020433
C87	C	0.965109	-0.554157	0.093909
C88	C	0.967285	-0.548282	0.012964
C89	C	0.922149	-0.670168	0.691452
C90	C	0.919833	-0.676425	0.777599
C91	C	1.114840	-0.465808	0.437591
C92	C	1.177921	-0.402707	0.437580
C93	C	0.875767	-0.479469	0.625807
C94	C	0.857709	-0.421004	0.689675
C95	C	1.108014	-0.484244	0.691419
C96	C	1.168779	-0.427401	0.777556
C97	C	0.749935	-0.819220	0.183828
C98	C	0.689171	-0.876063	0.097692
C99	C	0.743110	-0.837656	0.437656
C100	C	0.680029	-0.900757	0.437667
C101	C	0.982182	-0.823995	0.249440
C102	C	1.000241	-0.882460	0.185572
C103	C	1.163527	-0.368541	0.375189
C104	C	1.222793	-0.309258	0.375161
C105	C	1.296453	-0.284139	0.437528
C106	C	1.310847	-0.318311	0.499922
C107	C	1.251582	-0.377597	0.499946
C108	C	0.893246	-0.398082	0.782054
C109	C	0.876277	-0.343157	0.842074
C110	C	0.823775	-0.311152	0.809714
C111	C	0.788234	-0.334079	0.717326
C112	C	0.805199	-0.389007	0.657308
C113	C	1.244006	-0.398039	0.781255
C114	C	1.301110	-0.344636	0.862186
C115	C	1.282984	-0.320592	0.939415
C116	C	1.207750	-0.349960	0.935713
C117	C	1.150648	-0.403365	0.854785
C118	C	0.613946	-0.905433	0.093994
C119	C	0.556846	-0.958854	0.013070
C120	C	0.574973	-0.982901	-0.064158
C121	C	0.650206	-0.953530	-0.060457
C122	C	0.707305	-0.900114	0.020468
C123	C	0.694425	-0.934928	0.500051
C124	C	0.635163	-0.994227	0.500063
C125	C	0.561504	-1.019348	0.437694
C126	C	0.547109	-0.985173	0.375303
C127	C	0.606372	-0.925880	0.375288
C128	C	1.052747	-0.914448	0.217959
C129	C	1.069729	-0.969375	0.157958
C130	C	1.034200	-0.992316	0.065571
C131	C	0.981692	-0.960322	0.033184
C132	C	0.964714	-0.905392	0.093184
H133	H	1.108824	0.060640	0.692595
H134	H	0.377877	-0.670249	0.692599
H135	H	0.985308	-0.499595	0.156780
H136	H	1.103556	-0.388992	0.324393
Br137	Br	0.876670	-0.792967	0.025496
Br138	Br	1.203241	-0.262893	0.290479
H139	H	0.599171	-0.885856	0.156867
H140	H	0.250336	-0.649032	0.400269
H141	H	0.495592	-0.982759	0.010073
Br142	Br	0.859175	-0.840249	-0.323440
H143	H	0.935998	-0.424135	0.808419
Br144	Br	0.348012	-0.632854	0.177627
Br145	Br	1.183163	-0.317321	1.040533
Br146	Br	1.376876	-0.203678	0.437484
H147	H	0.513255	-1.067629	0.437716
H148	H	1.089395	-0.427265	0.851783
H149	H	0.614446	-0.635955	0.220619
Br150	Br	0.509941	-0.670600	0.697631
Br151	Br	0.497472	-1.055397	-0.173979
H152	H	0.921957	-0.879353	0.066802
H153	H	0.966633	-0.550073	-0.148237
Br154	Br	0.601669	-0.660408	0.557043
Br155	Br	0.844759	-0.054567	0.318213
H156	H	0.664957	-0.973116	-0.123346
Br157	Br	0.986058	-0.298217	0.518664
Br158	Br	1.112320	-0.068271	0.697594
H159	H	0.868683	-0.814530	-0.134684
Br160	Br	0.745555	-0.235230	0.177632
Br161	Br	0.809395	-0.860258	0.025468
H162	H	0.646897	-1.022042	0.550873
H163	H	1.082091	0.171013	0.654643
H164	H	0.989263	-0.488940	0.009915
Br165	Br	1.410817	-0.284209	0.584560
Br166	Br	0.794385	-0.900851	0.584704
H167	H	1.263312	-0.405408	0.550756
H168	H	0.905226	-0.324496	0.917297
Br169	Br	0.752918	-0.516142	0.188199
Br170	Br	0.222381	-0.669866	0.686992
Br171	Br	0.716982	-0.290635	0.673423
H172	H	0.776260	-0.407662	0.582088
H173	H	0.809968	-0.266427	0.858594
Br174	Br	0.256279	-0.643075	0.318195
Br175	Br	1.268627	-0.430662	0.676458
H176	H	0.749043	-0.364139	0.182636
Br177	Br	0.447138	-1.019274	0.290666
Br178	Br	1.403205	-0.304790	0.867189
H179	H	0.594639	-0.898059	0.324488
H180	H	1.081682	-0.895779	0.293182
Br181	Br	0.460991	-0.630043	0.138913
Br182	Br	1.360489	-0.248111	1.049242
Br183	Br	1.140988	-1.012788	0.201931
Br184	Br	1.057249	-1.066866	-0.015847
H185	H	0.952768	-0.979009	-0.042045
H186	H	0.902661	0.003298	0.400291
H187	H	1.005095	-0.215916	0.545658
H188	H	0.607608	-0.654428	0.474983
