data_functionalizedCrystal
_audit_creation_method	'MofGen! by Chris Wilmer'
_symmetry_space_group_name_H-M	'P1'
_symmetry_Int_Tables_number	1
_symmetry_cell_setting	triclinic
loop_
_symmetry_equiv_pos_as_xyz
  x,y,z
_cell_length_a	6.817900
_cell_length_b	10.773890
_cell_length_c	12.200875
_cell_angle_alpha	95.686777
_cell_angle_beta	107.143593
_cell_angle_gamma	96.645716
loop_
_atom_site_label
_atom_site_type_symbol
_atom_site_fract_x
_atom_site_fract_y
_atom_site_fract_z
V1	V	-4.033591	-0.172876	-0.355789
O2	O	-4.056650	0.008016	-0.350939
O3	O	-3.950750	-0.342504	-0.351507
O4	O	-4.003823	-0.170345	-0.511805
O5	O	-4.003210	-0.165335	-0.189531
V6	V	-4.519267	-0.151224	-0.336128
O7	O	-4.290126	-0.220372	-0.398918
O8	O	-4.712930	-0.103729	-0.293000
O9	O	-4.378902	0.018404	-0.340411
O10	O	-4.613606	-0.332117	-0.340978
O11	O	-4.667046	-0.158766	-0.502386
O12	O	-4.325829	-0.153756	-0.180112
C13	C	-3.786770	-0.383852	-0.345417
C14	C	-3.800449	-0.522526	-0.342955
C15	C	-3.854468	-0.164244	-0.549892
C16	C	-3.911185	-0.163297	-0.677423
C17	C	-3.979034	-0.590392	-0.347232
C18	C	-3.993176	-0.733719	-0.344688
C19	C	-4.014984	-0.161564	-0.910916
C20	C	-3.957214	-0.162528	-0.780984
C21	C	-4.206223	0.059745	-0.346497
C22	C	-4.171782	0.198417	-0.348967
C23	C	-4.138525	-0.159861	-0.142020
C24	C	-4.061048	-0.160802	-0.014487
H25	H	-4.121462	-0.542387	-0.352784
H26	H	-3.850742	-0.781721	-0.339149
C27	C	-4.361803	-0.737730	-0.356185
C28	C	-4.428410	-0.756310	-0.260088
C29	C	-4.603463	-0.697522	-0.266707
H30	H	-4.327319	-0.649884	-0.356864
H31	H	-4.469874	-0.773115	-0.425181
H32	H	-4.320362	-0.720919	-0.191110
H33	H	-4.462937	-0.844142	-0.259390
H34	H	-4.711535	-0.732908	-0.335703
H35	H	-4.568961	-0.609680	-0.267388
H36	H	-4.648690	-0.710130	-0.201513
H37	H	-3.658028	-0.570533	-0.337416
