data_functionalizedCrystal
_audit_creation_method	'MofGen! by Chris Wilmer'
_symmetry_space_group_name_H-M	'P1'
_symmetry_Int_Tables_number	1
_symmetry_cell_setting	triclinic
loop_
_symmetry_equiv_pos_as_xyz
  x,y,z
_cell_length_a	19.121215
_cell_length_b	19.120786
_cell_length_c	12.594510
_cell_angle_alpha	87.520136
_cell_angle_beta	87.532061
_cell_angle_gamma	94.789602
loop_
_atom_site_label
_atom_site_type_symbol
_atom_site_fract_x
_atom_site_fract_y
_atom_site_fract_z
Zn1	Zn	1.063783	-0.234286	-0.655619
Zn2	Zn	1.058668	-0.351987	-0.469679
Zn3	Zn	0.946107	-0.239338	-0.469693
Zn4	Zn	0.941062	-0.356933	-0.639667
O5	O	1.002405	-0.295636	-0.558665
O6	O	1.161571	-0.245715	-0.637623
O7	O	1.043707	-0.337087	-0.320731
O8	O	0.965969	-0.140196	-0.501038
O9	O	1.157812	-0.332189	-0.501015
O10	O	1.052426	-0.136484	-0.637637
O11	O	0.961009	-0.254325	-0.320741
O12	O	0.846972	-0.259121	-0.485571
O13	O	0.957371	-0.340619	-0.790734
O14	O	0.843265	-0.345518	-0.610449
O15	O	1.047534	-0.250511	-0.802453
O16	O	1.038815	-0.451115	-0.485547
O17	O	0.952411	-0.454749	-0.610436
C18	C	0.819588	-0.303405	-0.546281
C19	C	0.741377	-0.306746	-0.541008
C20	C	0.298933	-0.327894	-0.507643
C21	C	0.372421	-0.324751	-0.512591
C22	C	0.411120	-0.278231	-0.586295
C23	C	0.376329	-0.234846	-0.655050
C24	C	0.302843	-0.237985	-0.650096
C25	C	0.633099	-0.266500	-0.604809
C26	C	0.706590	-0.263365	-0.609759
C27	C	0.702677	-0.353270	-0.467298
C28	C	0.629189	-0.356408	-0.462356
C29	C	0.594404	-0.313020	-0.531106
C30	C	0.486236	-0.275019	-0.591356
C31	C	0.519290	-0.316229	-0.526040
C32	C	0.994529	-0.478464	-0.546283
C33	C	0.991224	-0.556675	-0.541027
C34	C	1.034651	-0.591428	-0.609730
C35	C	1.031543	-0.664917	-0.604792
C36	C	0.985011	-0.703651	-0.531146
C37	C	0.941579	-0.668893	-0.462440
C38	C	0.944684	-0.595406	-0.467383
C39	C	0.973382	-0.925634	-0.512663
C40	C	0.970282	-0.999126	-0.507723
C41	C	1.060245	-0.995144	-0.650077
C42	C	1.063349	-0.921656	-0.655010
C43	C	1.019914	-0.886904	-0.586308
C44	C	0.981834	-0.778768	-0.526095
C45	C	1.023088	-0.811789	-0.591365
C46	C	1.185936	-0.287837	-0.571097
C47	C	1.264147	-0.284513	-0.576395
C48	C	1.002460	-0.295554	-0.836294
C49	C	1.002484	-0.295519	-0.954604
C50	C	1.010331	-0.112093	-0.571119
C51	C	1.013708	-0.033878	-0.576426
C52	C	1.051541	-0.246494	-1.100997
C53	C	1.065971	-0.309971	-1.026997
C54	C	0.988084	-0.232048	-1.027034
C55	C	1.016976	-0.359005	-1.091393
C56	C	0.939062	-0.281040	-1.091437
C57	C	0.953466	-0.344562	-1.017464
C58	C	1.002393	-0.295665	-0.282121
C59	C	1.002514	-0.295496	-0.163835
H60	H	0.517754	-0.237144	-0.651369
C61	C	1.074273	-0.769179	-0.672371
N62	N	1.112829	-0.737079	-0.733382
C63	C	0.410682	-0.372474	-0.436958
N64	N	0.439501	-0.408420	-0.379988
H65	H	0.943950	-0.810313	-0.466129
C66	C	0.740947	-0.400986	-0.391667
N67	N	0.769772	-0.436924	-0.334693
H68	H	0.267429	-0.365779	-0.447630
H69	H	1.101239	-0.890120	-0.714979
C70	C	1.033537	-0.431523	-1.129552
N71	N	1.046014	-0.486141	-1.158296
C72	C	0.749158	-0.212186	-0.690841
N73	N	0.781221	-0.173640	-0.751910
C74	C	0.897452	-0.400622	-0.968416
N75	N	0.855270	-0.442849	-0.931459
C76	C	0.866611	-0.264473	-1.129865
N77	N	0.812042	-0.251986	-1.158813
C78	C	0.971610	-0.159547	-0.988704
N79	N	0.959206	-0.104937	-0.959840
H80	H	0.903689	-0.700437	-0.402479
C81	C	0.586626	-0.407574	-0.381261
N82	N	0.554567	-0.446112	-0.320177
H83	H	0.604786	-0.231174	-0.660795
H84	H	0.909321	-0.567111	-0.411439
C85	C	0.418901	-0.183671	-0.736122
N86	N	0.450966	-0.145126	-0.797190
H87	H	1.093042	-0.205093	-1.137464
C88	C	1.108014	-1.033376	-0.725651
N89	N	1.143994	-1.062173	-0.782580
C90	C	1.138444	-0.326505	-0.988603
N91	N	1.193032	-0.338953	-0.959686
H92	H	0.274521	-0.202658	-0.706078
H93	H	0.487778	-0.354104	-0.466027
C94	C	0.919088	-1.041732	-0.426707
N95	N	0.880531	-1.073823	-0.365688
C96	C	0.925587	-0.887418	-0.437111
N97	N	0.889579	-0.858631	-0.380211
H98	H	1.072545	-0.559895	-0.669696
H99	H	1.066911	-0.693209	-0.660729
