data_functionalizedCrystal
_audit_creation_method	'MofGen! by Chris Wilmer'
_symmetry_space_group_name_H-M	'P1'
_symmetry_Int_Tables_number	1
_symmetry_cell_setting	triclinic
loop_
_symmetry_equiv_pos_as_xyz
  x,y,z
_cell_length_a	12.970454
_cell_length_b	31.640172
_cell_length_c	12.970454
_cell_angle_alpha	90.003384
_cell_angle_beta	59.999262
_cell_angle_gamma	60.007086
loop_
_atom_site_label
_atom_site_type_symbol
_atom_site_fract_x
_atom_site_fract_y
_atom_site_fract_z
Zr1	Zr	1.128489	-0.055463	0.993223
O2	O	1.343558	-0.122942	0.828597
O3	O	0.913406	-0.034778	1.043690
O4	O	1.128468	-0.122945	1.043687
O5	O	1.128518	0.034773	0.828602
O6	O	1.128467	-0.122946	1.213355
O7	O	1.128496	-0.034775	0.828599
O8	O	0.743761	0.034769	1.213359
O9	O	1.513224	-0.122942	0.828598
O10	O	1.001877	-0.025956	1.191834
O11	O	1.001894	0.025948	1.065215
O12	O	1.255102	-0.077857	1.065212
O13	O	1.255118	-0.025953	0.938593
Zr14	Zr	1.128522	0.055457	1.263827
Zr15	Zr	1.128488	-0.055465	1.263823
Zr16	Zr	1.128523	0.055458	0.993227
Zr17	Zr	1.399087	-0.055462	0.993224
Zr18	Zr	0.857924	0.055456	1.263826
O19	O	1.343605	0.034771	1.213361
O20	O	1.343556	-0.122945	1.213355
O21	O	1.343607	0.034774	0.828603
O22	O	0.913453	0.122936	1.428453
O23	O	0.913404	-0.034780	1.428448
O24	O	0.913455	0.122938	1.043695
O25	O	1.128493	-0.034779	1.428449
O26	O	1.128543	0.122938	1.213363
O27	O	1.128544	0.122939	1.043696
O28	O	1.128514	0.034769	1.428451
O29	O	1.513223	-0.122943	1.043689
O30	O	0.743788	0.122937	1.213362
O31	O	0.743787	0.122935	1.428453
O32	O	0.743759	0.034768	1.428450
O33	O	1.513251	-0.034774	0.828601
O34	O	1.513250	-0.034775	1.043692
O35	O	1.001909	0.077851	1.191838
O36	O	1.001893	0.025947	1.318457
O37	O	1.255117	-0.025955	1.191835
O38	O	1.255133	0.025949	1.065216
C39	C	0.790029	-0.000004	1.128524
C40	C	0.675153	-0.000005	1.128524
C41	C	1.128463	-0.138749	1.128520
C42	C	1.128448	-0.185838	1.128519
C43	C	1.260700	-0.504965	1.062441
C44	C	1.260725	-0.681961	1.062443
O45	O	1.373140	-0.727888	1.006277
N46	N	1.128545	-0.676999	1.128536
C47	C	0.996350	-0.627783	1.194640
O48	O	0.883924	-0.627624	1.250866
C49	C	0.996326	-0.450789	1.194645
C50	C	1.128515	-0.455755	1.128537
C51	C	1.392877	-0.509929	0.996340
C52	C	1.392869	-0.465682	0.996335
C53	C	1.260684	-0.416472	1.062431
C54	C	1.128507	-0.411509	1.128532
C55	C	0.864133	-0.401575	1.260755
C56	C	0.864138	-0.357326	1.260753
C57	C	0.996327	-0.362292	1.194646
C58	C	0.996314	-0.318052	1.194622
N59	N	1.128494	-0.323014	1.128530
C60	C	1.260679	-0.372224	1.062434
C61	C	0.996372	-0.720710	1.194630
C62	C	0.996377	-0.764958	1.194627
C63	C	1.260753	-0.819132	1.062432
C64	C	1.260746	-0.774883	1.062429
C65	C	1.128551	-0.725672	1.128537
C66	C	1.260653	-0.279301	1.062427
C67	C	1.260633	-0.235048	1.062423
C68	C	0.996259	-0.180878	1.194623
C69	C	0.996277	-0.225127	1.194622
C70	C	1.128486	-0.274340	1.128521
O71	O	0.883958	-0.272110	1.250771
O72	O	1.373088	-0.372372	1.006238
C73	C	1.260707	-0.549212	1.062447
C74	C	1.128530	-0.544248	1.128548
C75	C	0.996345	-0.495038	1.194644
C76	C	1.128535	-0.588496	1.128545
C77	C	1.260720	-0.637706	1.062449
C78	C	1.392900	-0.642668	0.996356
C79	C	1.392892	-0.598422	0.996351
C80	C	0.864165	-0.490076	1.260736
C81	C	0.864184	-0.534325	1.260735
C82	C	0.996369	-0.583535	1.194639
C83	C	1.466982	-0.000002	1.128526
C84	C	1.581857	-0.000002	1.128527
C85	C	1.128507	-0.000001	0.790046
C86	C	1.128508	-0.000000	0.675169
C87	C	1.128548	0.138743	1.128530
C88	C	1.128562	0.185832	1.128532
C89	C	1.128504	-0.000005	1.467004
C90	C	1.128503	-0.000006	1.581881
C91	C	0.790027	-0.000007	1.467003
C92	C	0.675151	-0.000008	1.581880
C93	C	0.790072	0.138741	1.128529
C94	C	0.675210	0.185830	1.128530
C95	C	0.790070	0.138739	1.467008
C96	C	0.675208	0.185827	1.581886
C97	C	1.466941	-0.138746	0.790042
C98	C	1.581803	-0.185834	0.675164
C99	C	1.466984	0.000000	0.790047
C100	C	1.581860	0.000001	0.675171
C101	C	1.466939	-0.138748	1.128522
C102	C	1.581800	-0.185837	1.128520
C103	C	0.621278	0.235041	1.194626
C104	C	0.513369	0.279290	1.194623
C105	C	0.459386	0.274327	1.128529
C106	C	0.513329	0.225111	1.062425
C107	C	0.621244	0.180864	1.062422
C108	C	0.621259	0.180847	1.701939
C109	C	0.513349	0.225087	1.809890
C110	C	0.459383	0.274307	1.797784
C111	C	0.513342	0.279286	1.677718
C112	C	0.621258	0.235046	1.569771
C113	C	1.635765	-0.180853	0.555111
C114	C	1.743708	-0.225093	0.447161
C115	C	1.797680	-0.274313	0.459266
C116	C	1.743714	-0.279292	0.579332
C117	C	1.635780	-0.235053	0.687280
C118	C	1.635749	-0.180857	1.194627
C119	C	1.743659	-0.225098	1.194650
C120	C	1.797626	-0.274317	1.128559
C121	C	1.743667	-0.279295	1.062451
C122	C	1.635751	-0.235055	1.062436
H123	H	1.368309	-0.319368	1.008602
H124	H	1.591844	-0.239114	0.785029
H125	H	0.665219	0.239091	1.248448
H126	H	0.469462	0.319359	1.248457
O127	O	1.796256	-0.327144	0.590856
C128	C	1.903109	-0.365117	0.469826
H129	H	1.885381	-0.347863	0.398296
H130	H	2.016001	-0.378957	0.442331
C131	C	1.913054	-0.432402	0.559238
C132	C	1.891272	-0.411211	0.471386
H133	H	1.905758	-0.460836	0.560200
H134	H	1.841069	-0.406820	0.640779
H135	H	2.007129	-0.443931	0.536315
H136	H	1.797192	-0.399676	0.494319
H137	H	1.963241	-0.436792	0.389849
H138	H	0.371515	0.310361	1.128542
O139	O	1.795895	-0.327070	0.998231
C140	C	1.725177	-0.321986	0.939843
H141	H	1.615774	-0.282509	0.991668
H142	H	1.795976	-0.325613	0.837254
C143	C	1.834446	-0.413347	0.880987
C144	C	1.700069	-0.364862	0.944646
H145	H	1.818963	-0.439795	0.883944
H146	H	1.882095	-0.416772	0.920320
H147	H	1.893431	-0.416362	0.795502
H148	H	1.641094	-0.361844	1.030133
H149	H	1.652409	-0.361436	0.905328
H150	H	0.756487	-0.317256	1.314590
O151	O	1.583151	-0.133006	0.543559
C152	C	1.476338	-0.095019	0.664569
H153	H	1.429111	-0.112259	0.736114
H154	H	1.527972	-0.081181	0.692079
C155	C	1.411710	-0.027755	0.575076
C156	C	1.353697	-0.048929	0.662946
H157	H	1.336063	0.000677	0.574075
H158	H	1.483676	-0.053347	0.493548
H159	H	1.454738	-0.016227	0.598012
H160	H	1.310688	-0.060462	0.640001
H161	H	1.281721	-0.023338	0.744471
H162	H	0.469360	0.221079	1.008613
O163	O	0.735710	-0.442288	1.324774
C164	C	0.655311	-0.436648	1.276175
H165	H	0.732683	-0.464666	1.175427
H166	H	0.572917	-0.445453	1.337455
C167	C	0.479246	-0.346335	1.400144
C168	C	0.574277	-0.380744	1.276399
H169	H	0.429254	-0.311850	1.400287
H170	H	0.533408	-0.350135	1.432890
H171	H	0.410597	-0.353679	1.451197
H172	H	0.642934	-0.373404	1.225352
H173	H	0.520124	-0.376941	1.243644
O174	O	0.460699	0.327138	1.666195
C175	C	0.353904	0.365111	1.787225
H176	H	0.306729	0.347855	1.858753
H177	H	0.405540	0.378953	1.814723
C178	C	0.289160	0.432395	1.697811
C179	C	0.231210	0.411203	1.785661
H180	H	0.213479	0.460828	1.696847
H181	H	0.361114	0.406813	1.616270
H182	H	0.332189	0.443926	1.720737
H183	H	0.188199	0.399667	1.762726
H184	H	0.159247	0.436785	1.867199
H185	H	0.888639	-0.221082	1.248435
H186	H	0.888717	-0.680642	1.248467
H187	H	0.665141	0.140796	1.008603
O188	O	1.583198	-0.239804	0.998275
C189	C	1.476427	-0.190207	1.012368
H190	H	1.429149	-0.160872	1.101665
H191	H	1.528119	-0.178937	0.926984
C192	C	1.411901	-0.226909	0.912802
C193	C	1.353824	-0.190880	1.022484
H194	H	1.336276	-0.227324	0.919036
H195	H	1.483838	-0.260324	0.903302
H196	H	1.454976	-0.217513	0.841659
H197	H	1.310766	-0.200280	1.093621
H198	H	1.281876	-0.157467	1.031995
H199	H	0.665182	0.140774	1.711820
H200	H	1.368385	-0.778932	1.008597
O201	O	0.867991	-0.133033	1.258815
C202	C	0.896346	-0.095047	1.244610
H203	H	1.009959	-0.112290	1.220247
H204	H	0.890062	-0.081204	1.165488
C205	C	0.642796	-0.027784	1.398806
C206	C	0.782333	-0.048961	1.368894
H207	H	0.572464	0.000646	1.475467
H208	H	0.623690	-0.053375	1.408373
H209	H	0.637580	-0.016252	1.332861
H210	H	0.787552	-0.060498	1.434830
H211	H	0.801437	-0.023370	1.359341
H212	H	1.787581	-0.221035	1.248481
H213	H	0.469426	0.221023	1.907643
O214	O	0.673440	0.239980	1.453248
C215	C	0.602679	0.292911	1.465728
H216	H	0.493298	0.316497	1.562062
H217	H	0.673472	0.305948	1.456877
C218	C	0.711854	0.272287	1.242868
C219	C	0.577505	0.301256	1.361183
H220	H	0.696330	0.277436	1.178377
H221	H	0.759532	0.236627	1.234458
H222	H	0.770834	0.283155	1.235510
H223	H	0.518535	0.290384	1.368546
H224	H	0.529816	0.336915	1.369592
H225	H	0.371511	0.310325	1.885692
O226	O	1.583218	-0.133011	1.258727
C227	C	1.476368	-0.095023	1.244581
H228	H	1.494094	-0.112261	1.155303
H229	H	1.363475	-0.081187	1.329973
C230	C	1.466436	-0.027760	1.344030
C231	C	1.488215	-0.048931	1.234371
H232	H	1.473738	0.000673	1.337738
H233	H	1.538419	-0.053352	1.353565
H234	H	1.372359	-0.016233	1.415179
H235	H	1.582298	-0.060462	1.163227
H236	H	1.416249	-0.023339	1.224824
H237	H	1.368281	-0.239098	1.008585
H238	H	1.787630	-0.221029	0.349409
H239	H	1.500524	-0.549996	0.942518
O240	O	1.521408	-0.470602	0.932111
C241	C	1.638063	-0.523529	0.873761
H242	H	1.599292	-0.547122	0.925608
H243	H	1.678717	-0.536569	0.771169
C244	C	1.810567	-0.502880	0.814892
C245	C	1.762950	-0.531857	0.878578
H246	H	1.887607	-0.508017	0.817857
H247	H	1.731976	-0.467222	0.854199
H248	H	1.844435	-0.513750	0.729404
H249	H	1.729066	-0.520982	0.964067
H250	H	1.841539	-0.567513	0.839285
O251	O	1.389029	-0.866979	0.998345
C252	C	1.360671	-0.904964	1.012503
H253	H	1.247058	-0.887718	1.101763
H254	H	1.366955	-0.918812	0.927097
C255	C	1.614221	-0.972227	0.913130
C256	C	1.474683	-0.951046	1.022767
H257	H	1.684552	-1.000654	0.919456
H258	H	1.633328	-0.946636	0.903587
H259	H	1.619437	-0.983763	0.841970
H260	H	1.469464	-0.939505	1.093923
H261	H	1.455577	-0.976636	1.032323
H262	H	0.888737	-0.760908	1.248442
O263	O	1.521431	-0.603341	0.932121
C264	C	1.638086	-0.656268	0.873767
H265	H	1.599318	-0.679862	0.925618
H266	H	1.678731	-0.669308	0.771178
C267	C	1.810593	-0.635619	0.814880
C268	C	1.762981	-0.664597	0.878571
H269	H	1.887638	-0.640757	0.817837
H270	H	1.732002	-0.599961	0.854189
H271	H	1.844454	-0.646489	0.729395
H272	H	1.729105	-0.653722	0.964057
H273	H	1.841570	-0.700253	0.839276
O274	O	0.735818	-0.396811	1.325070
C275	C	0.727898	-0.420768	1.417859
H276	H	0.842668	-0.450920	1.390067
H277	H	0.662686	-0.390345	1.512658
C278	C	0.511337	-0.410272	1.462834
C279	C	0.652302	-0.447308	1.428694
H280	H	0.464700	-0.426641	1.469523
H281	H	0.516669	-0.394129	1.400324
H282	H	0.457013	-0.384922	1.541830
H283	H	0.706629	-0.472653	1.349693
H284	H	0.646977	-0.463455	1.491192
O285	O	1.521269	-0.690487	0.932354
C286	C	1.529142	-0.717698	1.017219
H287	H	1.454130	-0.688984	1.116794
H288	H	1.493617	-0.743951	1.014910
C289	C	1.779193	-0.786011	0.856232
C290	C	1.687071	-0.750744	0.978530
H291	H	1.876611	-0.806397	0.832365
H292	H	1.773888	-0.767680	0.799054
H293	H	1.749571	-0.807884	0.854323
H294	H	1.716682	-0.728868	0.980433
H295	H	1.692384	-0.769072	1.035707
O296	O	0.735729	-0.529470	1.325156
C297	C	0.655311	-0.502161	1.454166
H298	H	0.732664	-0.505846	1.477550
H299	H	0.572892	-0.459587	1.475297
C300	C	0.479305	-0.520337	1.506236
C301	C	0.574313	-0.524867	1.534959
H302	H	0.429335	-0.534340	1.556074
H303	H	0.533480	-0.538734	1.419319
H304	H	0.410635	-0.484858	1.523845
H305	H	0.642991	-0.560345	1.517335
H306	H	0.520147	-0.506476	1.621875
H307	H	1.885567	-0.310331	0.371358
H308	H	1.885498	-0.310336	1.128582
