data_functionalizedCrystal
_audit_creation_method	'MofGen! by Chris Wilmer'
_symmetry_space_group_name_H-M	'P1'
_symmetry_Int_Tables_number	1
_symmetry_cell_setting	triclinic
loop_
_symmetry_equiv_pos_as_xyz
  x,y,z
_cell_length_a	10.489741
_cell_length_b	10.723023
_cell_length_c	9.198806
_cell_angle_alpha	89.996513
_cell_angle_beta	89.997101
_cell_angle_gamma	84.503361
loop_
_atom_site_label
_atom_site_type_symbol
_atom_site_fract_x
_atom_site_fract_y
_atom_site_fract_z
O1	O	0.178901	1.657298	-0.120877
O2	O	0.196027	1.294156	-0.120883
O3	O	0.001861	1.483990	-0.120871
O4	O	0.373067	1.467464	-0.120889
O5	O	0.001861	1.483975	0.120914
O6	O	0.196027	1.294141	0.120902
O7	O	0.178901	1.657283	0.120908
Cu8	Cu	0.187464	1.475710	0.142982
Cu9	Cu	0.187464	1.475728	-0.142957
O10	O	0.373067	1.467448	0.120896
C11	C	0.194781	1.247648	0.000009
C12	C	0.191053	1.109091	0.000007
C13	C	0.189390	1.047310	0.125258
C14	C	0.185537	0.904105	0.125258
C15	C	-0.045670	1.482734	0.000021
C16	C	-0.187297	1.479000	0.000018
C17	C	-0.255360	1.358214	0.000005
C18	C	-0.347519	1.415265	0.119219
C19	C	-0.347493	1.415308	-0.119162
C20	C	-0.277591	1.536100	0.119330
C21	C	-0.277556	1.536127	-0.119158
C22	C	-0.369688	1.593265	0.000084
C23	C	0.420598	1.468704	0.000002
C24	C	0.562225	1.472439	-0.000005
C25	C	0.180147	1.703791	0.000013
C26	C	0.183875	1.842347	0.000006
N27	N	0.187463	1.475707	0.344096
N28	N	0.187456	1.475741	-0.344071
C29	C	0.105578	1.555412	0.416298
C30	C	0.105574	1.555432	0.583710
H31	H	0.185312	0.895468	-0.107231
F32	F	0.279100	1.386547	0.574785
F33	F	-0.237018	1.602881	-0.250898
H34	H	0.189620	1.055965	-0.107224
F35	F	0.279087	1.386523	0.425291
H36	H	-0.246792	1.587157	0.220229
H37	H	-0.205645	1.258904	0.000124
F38	F	-0.388011	1.348458	0.250953
F39	F	-0.434375	1.723185	0.000169
F40	F	0.013721	1.644366	0.335104
F41	F	0.183678	0.834663	0.265424
F42	F	0.191255	1.116744	0.265422
F43	F	-0.387950	1.348488	-0.250890
H44	H	0.035474	1.623676	0.645801
