data_functionalizedCrystal
_audit_creation_method	'MofGen! by Chris Wilmer'
_symmetry_space_group_name_H-M	'P1'
_symmetry_Int_Tables_number	1
_symmetry_cell_setting	triclinic
loop_
_symmetry_equiv_pos_as_xyz
  x,y,z
_cell_length_a	15.995280
_cell_length_b	14.472310
_cell_length_c	15.538191
_cell_angle_alpha	89.998969
_cell_angle_beta	65.367846
_cell_angle_gamma	89.986254
loop_
_atom_site_label
_atom_site_type_symbol
_atom_site_fract_x
_atom_site_fract_y
_atom_site_fract_z
O1	O	-1.074224	0.076847	-0.121111
O2	O	-0.825862	0.076844	-0.136175
O3	O	-0.998389	0.076850	0.008500
O4	O	-0.901698	0.076840	-0.265786
O5	O	-0.998353	-0.076832	0.008492
O6	O	-0.825827	-0.076838	-0.136184
O7	O	-1.074189	-0.076835	-0.121119
Cu8	Cu	-0.950004	-0.090869	-0.128652
Cu9	Cu	-0.950047	0.090878	-0.128642
O10	O	-0.901662	-0.076842	-0.265795
C11	C	-0.794834	0.000003	-0.135569
C12	C	-0.702438	0.000002	-0.133736
N13	N	-0.949981	-0.218700	-0.128659
C14	C	-0.366745	0.000016	-0.127001
C15	C	-0.358322	0.000355	-0.231418
C16	C	-0.454396	0.000004	-0.233398
C17	C	-0.533286	0.000010	-0.130343
C18	C	-0.520029	-0.087745	-0.078145
C19	C	-0.423619	-0.087814	-0.076893
C20	C	-0.424452	0.086951	-0.074751
C21	C	-0.519771	0.088106	-0.078616
C22	C	-0.627410	0.000003	-0.132226
C23	C	-0.272622	0.000016	-0.125115
C24	C	-0.950047	-0.592791	-0.128638
C25	C	-0.857579	-0.553629	-0.205792
C26	C	-0.857653	-0.446541	-0.206073
C27	C	-0.950013	-0.407200	-0.128649
C28	C	-1.030863	-0.446037	-0.150093
C29	C	-1.030309	-0.553159	-0.150642
C30	C	-0.962513	-0.553317	-0.029811
C31	C	-0.960309	-0.446190	-0.030471
C32	C	-0.950001	-0.302312	-0.128652
C33	C	-0.950064	-0.697679	-0.128637
C34	C	-0.105211	0.000010	-0.121738
C35	C	-0.197592	0.000023	-0.123608
C36	C	-1.008488	0.000012	0.043594
C37	C	-1.038621	0.000022	0.148177
N38	N	-0.950079	0.218709	-0.128628
C39	C	-0.891563	-0.000002	-0.300889
C40	C	-0.861430	-0.000005	-0.405471
C41	C	-0.739252	-0.000001	0.435882
C42	C	-0.767588	-0.000003	0.534156
C43	C	-0.926973	-0.000001	0.556644
C44	C	-0.898650	0.000005	0.458370
C45	C	-0.804788	0.000004	0.397996
C46	C	-0.964186	0.000011	0.420485
C47	C	-0.935865	0.000012	0.322219
C48	C	-0.842008	0.000008	0.261839
C49	C	-0.776467	0.000006	0.299731
C50	C	-1.058047	0.000006	0.480860
C51	C	-1.123584	0.000011	0.442974
C52	C	-1.095263	0.000019	0.344707
C53	C	-1.001406	0.000015	0.284328
C54	C	-1.160804	0.000022	0.306816
C55	C	-1.132483	0.000023	0.208550
C56	C	-0.973085	0.000016	0.186062
H57	H	-0.461013	0.062912	-0.274272
Br58	Br	-0.440072	0.087945	0.053353
H59	H	-0.662820	0.000005	0.386722
Br60	Br	-0.612823	0.096948	0.046762
Br61	Br	-1.069108	-0.401575	0.069708
Br62	Br	-1.146224	-0.403569	-0.058921
H63	H	-0.796593	-0.420285	-0.193300
Br64	Br	-1.021198	-0.401313	-0.268849
H65	H	-0.906457	-0.580385	-0.009184
H66	H	-0.714213	-0.000021	0.564997
Br67	Br	-0.360575	-0.197154	-0.137163
H68	H	-0.796245	-0.579417	-0.193229
Br69	Br	-0.531543	0.196317	-0.141926
Br70	Br	-0.291295	0.105250	-0.298504
Br71	Br	-0.535071	-0.196606	-0.138569
Br72	Br	-0.861435	-0.403888	-0.003340
Br73	Br	-1.145810	-0.596340	-0.060438
Br74	Br	-0.611547	-0.093175	0.048257
Br75	Br	-0.839084	-0.598462	-0.327346
H76	H	-0.432336	-0.091796	-0.000334
Br77	Br	-1.250963	0.000002	0.524918
Br78	Br	-1.096484	-0.000007	0.614222
Br79	Br	-1.221425	0.000008	0.157128
Br80	Br	-0.649082	0.000017	0.217786
Br81	Br	-0.845699	0.000028	0.104117
Br82	Br	-0.289651	-0.103948	-0.298144
H83	H	-1.237226	0.000013	0.355986
Br84	Br	-0.839159	-0.403811	-0.328322
Br85	Br	-1.019605	-0.594796	-0.270767
H86	H	-1.030295	-0.578641	0.027604
H87	H	-0.460284	-0.063013	-0.274531
Br88	Br	-0.360737	0.197814	-0.129153
H89	H	-0.818950	0.000004	0.181826
H90	H	-1.003395	-0.000004	0.605813
