data_functionalizedCrystal
_audit_creation_method	'MofGen! by Chris Wilmer'
_symmetry_space_group_name_H-M	'P1'
_symmetry_Int_Tables_number	1
_symmetry_cell_setting	triclinic
loop_
_symmetry_equiv_pos_as_xyz
  x,y,z
_cell_length_a	11.026607
_cell_length_b	8.559649
_cell_length_c	7.681481
_cell_angle_alpha	85.069100
_cell_angle_beta	96.989644
_cell_angle_gamma	89.182341
loop_
_atom_site_label
_atom_site_type_symbol
_atom_site_fract_x
_atom_site_fract_y
_atom_site_fract_z
O1	O	-1.536888	-0.663150	0.146413
O2	O	-1.190497	-0.588949	0.146417
O3	O	-1.394210	-0.402226	0.146413
O4	O	-1.333175	-0.849874	0.146417
O5	O	-1.419290	-0.379177	-0.146445
O6	O	-1.215577	-0.565900	-0.146441
O7	O	-1.561968	-0.640101	-0.146445
Zn8	Zn	-1.392754	-0.599341	-0.192941
Zn9	Zn	-1.359710	-0.629709	0.192913
O10	O	-1.358255	-0.826825	-0.146441
C11	C	-1.159101	-0.563736	-0.000011
C12	C	-1.028190	-0.522929	-0.000009
C13	C	-1.411375	-0.332502	-0.000013
C14	C	-1.425142	-0.159083	-0.000003
C15	C	-1.593363	-0.665315	-0.000013
C16	C	-1.724273	-0.706123	-0.000003
C17	C	-0.943884	-0.635604	-0.000007
C18	C	-0.808580	-0.593431	-0.000005
C19	C	-1.341089	-0.896549	-0.000011
C20	C	-1.327321	-1.069969	-0.000009
N21	N	-1.415314	-0.578617	-0.456275
N22	N	-1.337161	-0.650424	0.456247
H23	H	-0.780591	-0.465740	0.000039
C24	C	-0.877832	-0.904104	-0.000010
C25	C	-0.981655	-0.807984	-0.000010
H26	H	-0.901152	-1.010524	-0.000023
H27	H	-0.822230	-0.891539	0.102112
H28	H	-0.839714	-0.875449	-0.102141
H29	H	-1.019768	-0.836631	0.102128
H30	H	-1.037278	-0.820556	-0.102143
C31	C	-1.640154	-0.199663	-0.000010
C32	C	-1.552434	-0.082982	-0.000016
H33	H	-1.718737	-0.152677	-0.000028
H34	H	-1.621874	-0.270739	0.102118
H35	H	-1.639355	-0.254688	-0.102135
H36	H	-1.553228	-0.027964	0.102117
H37	H	-1.570720	-0.011878	-0.102154
C38	C	-1.173116	-0.250851	0.150566
C39	C	-1.200035	-0.146063	0.000007
H40	H	-1.094530	-0.297826	0.150578
H41	H	-1.232632	-0.329983	0.150554
H42	H	-1.173909	-0.195800	0.252673
H43	H	-1.199250	-0.201117	-0.102101
H44	H	-1.140502	-0.066920	0.000003
H45	H	-1.257382	-0.723715	-0.468554
C46	C	-1.591958	-0.416333	-0.438115
C47	C	-1.523026	-0.479673	-0.557786
H48	H	-1.658455	-0.355258	-0.500787
H49	H	-1.541795	-0.351866	-0.366226
H50	H	-1.622390	-0.498928	-0.366191
H51	H	-1.492586	-0.397078	-0.629702
H52	H	-1.573198	-0.544144	-0.629706
C53	C	-0.863690	-0.342139	0.000005
C54	C	-0.990416	-0.350551	-0.000002
H55	H	-0.840374	-0.235718	0.000022
H56	H	-0.841121	-0.384439	-0.102117
H57	H	-0.823630	-0.400539	0.102136
H58	H	-1.030476	-0.292161	-0.102140
H59	H	-1.012997	-0.308230	0.102131
H60	H	-0.752257	-0.833818	-0.000014
