data_functionalizedCrystal
_audit_creation_method	'MofGen! by Chris Wilmer'
_symmetry_space_group_name_H-M	'P1'
_symmetry_Int_Tables_number	1
_symmetry_cell_setting	triclinic
loop_
_symmetry_equiv_pos_as_xyz
  x,y,z
_cell_length_a	15.500227
_cell_length_b	10.654550
_cell_length_c	10.654550
_cell_angle_alpha	95.515069
_cell_angle_beta	87.144206
_cell_angle_gamma	87.131310
loop_
_atom_site_label
_atom_site_type_symbol
_atom_site_fract_x
_atom_site_fract_y
_atom_site_fract_z
O1	O	0.071879	-1.673627	0.170625
O2	O	0.071895	-1.308150	0.187429
O3	O	0.071881	-1.499291	-0.003712
O4	O	0.071893	-1.482486	0.361766
O5	O	-0.072007	-1.487692	0.007841
O6	O	-0.071993	-1.296551	0.198982
O7	O	-0.072009	-1.662028	0.182178
Cu8	Cu	-0.085139	-1.478230	0.191635
Cu9	Cu	0.085025	-1.491948	0.177972
O10	O	-0.071995	-1.470887	0.373319
C11	C	-0.000047	-1.255553	0.191972
C12	C	-0.000041	-1.116110	0.188279
N13	N	-0.204823	-1.468591	0.201244
C14	C	-0.000062	-1.492258	-0.044733
C15	C	-0.000061	-1.488566	-0.184177
C16	C	-0.250106	-1.549613	0.120281
C17	C	-0.340678	-1.542335	0.127560
C18	C	-0.385966	-1.454040	0.215809
C19	C	-0.340677	-1.373010	0.296775
C20	C	-0.250107	-1.380283	0.289489
C21	C	-0.659431	-1.427839	0.242034
C22	C	-0.750008	-1.420575	0.249316
C23	C	-0.750003	-1.589899	0.080099
C24	C	-0.659430	-1.597170	0.072826
C25	C	-0.614149	-1.516135	0.153788
C26	C	-0.478546	-1.446601	0.223253
C27	C	-0.521571	-1.523569	0.146336
N28	N	0.204709	-1.501597	0.168353
C29	C	-0.000065	-1.714626	0.177635
C30	C	-0.000065	-1.854069	0.181327
C31	C	-0.000040	-1.036624	0.300821
C32	C	-0.000055	-0.905602	0.297346
C33	C	-0.000069	-0.933564	0.068777
C34	C	-0.000060	-1.064583	0.072254
C35	C	-0.000065	-1.601107	-0.263662
C36	C	-0.000055	-1.597631	-0.394683
C37	C	-0.000038	-1.369063	-0.366722
C38	C	-0.000043	-1.372541	-0.235703
C39	C	-0.000050	-1.477921	0.414340
C40	C	-0.000046	-1.481613	0.553783
H41	H	-0.213238	-1.621517	0.048425
H42	H	-0.000089	-0.891595	-0.025686
H43	H	-0.786878	-1.348671	0.321184
H44	H	-0.377547	-1.608308	0.061633
H45	H	-0.622558	-1.669066	0.000967
H46	H	-0.622571	-1.361860	0.307959
H47	H	-0.000063	-1.129304	-0.019396
H48	H	-0.000031	-1.078572	0.395296
H49	H	-0.000078	-1.695582	-0.221714
H50	H	-0.000056	-0.840889	0.388989
H51	H	-0.377556	-1.301112	0.368625
H52	H	-0.213239	-1.314304	0.355416
H53	H	-0.000056	-1.689274	-0.459396
H54	H	-0.484695	-1.595454	0.074479
H55	H	-0.000026	-1.274599	-0.408691
H56	H	-0.786878	-1.655873	0.014182
H57	H	-0.515427	-1.374712	0.295110
H58	H	-0.000037	-1.280890	-0.170982
