data_functionalizedCrystal
_audit_creation_method	'MofGen! by Chris Wilmer'
_symmetry_space_group_name_H-M	'P1'
_symmetry_Int_Tables_number	1
_symmetry_cell_setting	triclinic
loop_
_symmetry_equiv_pos_as_xyz
  x,y,z
_cell_length_a	16.109302
_cell_length_b	15.995292
_cell_length_c	14.586319
_cell_angle_alpha	89.999401
_cell_angle_beta	89.994552
_cell_angle_gamma	83.465199
loop_
_atom_site_label
_atom_site_type_symbol
_atom_site_fract_x
_atom_site_fract_y
_atom_site_fract_z
O1	O	1.103137	0.107630	-0.076275
O2	O	0.861076	0.121023	-0.076267
O3	O	0.988749	-0.007566	-0.076273
O4	O	0.975465	0.236219	-0.076269
O5	O	0.988740	-0.007568	0.076208
O6	O	0.861067	0.121021	0.076214
O7	O	1.103128	0.107628	0.076206
Cu8	Cu	0.982097	0.114325	0.090133
Cu9	Cu	0.982107	0.114327	-0.090194
O10	O	0.975456	0.236218	0.076211
C11	C	0.830097	0.120480	-0.000026
C12	C	0.737801	0.118853	-0.000023
C13	C	0.525455	0.115090	0.083085
C14	C	0.438735	0.113552	0.083082
C15	C	0.438755	0.113559	-0.083161
C16	C	0.525475	0.115090	-0.083157
C17	C	0.568822	0.115860	-0.000031
C18	C	0.395382	0.112791	-0.000038
C19	C	0.301357	0.111124	-0.000042
C20	C	0.662854	0.117526	-0.000026
C21	C	0.988204	-0.038763	-0.000034
C22	C	0.986583	-0.131715	-0.000041
C23	C	0.980624	-0.469452	-0.000033
C24	C	1.072774	-0.446164	0.000305
C25	C	1.074526	-0.349489	-0.000042
C26	C	0.983581	-0.301897	-0.000036
C27	C	0.937515	-0.330984	-0.087106
C28	C	0.936405	-0.427774	-0.087176
C29	C	0.934513	-0.427633	0.086224
C30	C	0.937928	-0.331142	0.087371
C31	C	0.985247	-0.207201	-0.000042
C32	C	0.978955	-0.564147	-0.000034
C33	C	1.134108	0.108172	-0.000037
C34	C	1.226403	0.109799	-0.000046
C35	C	0.976001	0.267414	-0.000029
C36	C	0.977622	0.360366	-0.000028
N37	N	0.982096	0.114322	0.216964
N38	N	0.982115	0.114322	-0.217025
C39	C	1.038648	0.057402	0.451968
C40	C	1.038650	0.057400	0.547950
C41	C	0.925557	0.171245	0.547964
C42	C	0.925551	0.171243	0.451984
C43	C	0.982101	0.114322	0.403989
C44	C	0.982110	0.114323	0.595950
C45	C	0.982112	0.114321	0.700017
C46	C	0.982098	0.114323	0.299915
H47	H	0.560785	0.115715	-0.150844
H48	H	1.084694	0.011050	0.587012
H49	H	0.403430	0.112926	0.150764
H50	H	0.403451	0.112933	-0.150839
H51	H	1.108100	-0.475191	-0.061788
N52	N	0.569736	0.115893	0.167990
N53	N	0.552366	0.174712	0.223641
H54	H	0.583639	0.175282	0.283606
N55	N	1.119786	-0.325643	0.078258
N56	N	1.150299	-0.380451	0.133542
H57	H	1.182269	-0.363615	0.188843
H58	H	0.866684	-0.441605	0.086814
H59	H	1.108290	-0.474172	0.062746
H60	H	1.110824	-0.331094	-0.062568
H61	H	0.879517	0.217590	0.587051
H62	H	0.968316	-0.454599	-0.152266
N63	N	0.851644	-0.445998	-0.092119
N64	N	0.793497	-0.387254	-0.095513
H65	H	0.733635	-0.400120	-0.099004
H66	H	0.870591	-0.299098	-0.090339
N67	N	0.867776	0.229389	0.402983
N68	N	0.817293	0.280208	0.445844
H69	H	0.776488	0.321270	0.411237
N70	N	0.977659	-0.305827	-0.168393
N71	N	1.040185	-0.266484	-0.162426
H72	H	1.068543	-0.248718	-0.219833
N73	N	0.854645	-0.289783	0.093985
N74	N	0.809046	-0.305581	0.159631
H75	H	0.750223	-0.276373	0.164297
N76	N	0.970723	-0.463102	0.169009
N77	N	1.030960	-0.519641	0.165439
H78	H	1.056541	-0.544694	0.223901
H79	H	0.971471	-0.312586	0.151784
H80	H	1.084693	0.011053	0.412893
