data_functionalizedCrystal
_audit_creation_method	'MofGen! by Chris Wilmer'
_symmetry_space_group_name_H-M	'P1'
_symmetry_Int_Tables_number	1
_symmetry_cell_setting	triclinic
loop_
_symmetry_equiv_pos_as_xyz
  x,y,z
_cell_length_a	10.723022
_cell_length_b	19.188930
_cell_length_c	17.666332
_cell_angle_alpha	89.989658
_cell_angle_beta	89.991053
_cell_angle_gamma	83.806004
loop_
_atom_site_label
_atom_site_type_symbol
_atom_site_fract_x
_atom_site_fract_y
_atom_site_fract_z
O1	O	1.655166	0.097918	-0.062953
O2	O	2.155166	0.597918	0.437047
O3	O	1.291818	0.107292	-0.062956
O4	O	1.791818	0.607292	0.437044
O5	O	1.483977	0.001018	-0.062940
O6	O	1.983977	0.501018	0.437060
O7	O	1.463007	0.204193	-0.062970
O8	O	1.963007	0.704193	0.437030
O9	O	1.483944	0.001015	0.062957
O10	O	1.983944	0.501015	0.562957
O11	O	1.291785	0.107289	0.062940
O12	O	1.791785	0.607289	0.562940
O13	O	1.655132	0.097915	0.062944
O14	O	2.155132	0.597915	0.562944
Cu15	Cu	1.473455	0.102602	0.074437
Cu16	Cu	1.973455	0.602602	0.574437
Cu17	Cu	1.473495	0.102606	-0.074450
Cu18	Cu	1.973495	0.602606	0.425550
O19	O	1.462973	0.204190	0.062927
O20	O	1.962973	0.704190	0.562927
C21	C	1.245316	0.106609	-0.000008
C22	C	1.745316	0.606609	0.499992
C23	C	1.106804	0.104569	-0.000009
C24	C	1.606804	0.604569	0.499991
C25	C	1.483281	-0.024999	0.000011
C26	C	1.983281	0.475001	0.500011
C27	C	1.481243	-0.102517	0.000017
C28	C	1.981243	0.397483	0.500017
C29	C	0.887435	0.161924	-0.000019
C30	C	1.387435	0.661924	0.499981
C31	C	1.030594	0.164034	-0.000018
C32	C	1.530594	0.664034	0.499982
C33	C	1.593996	-0.146709	0.000022
C34	C	2.093996	0.353291	0.500022
C35	C	1.592080	-0.219545	0.000010
C36	C	2.092080	0.280455	0.500010
C37	C	1.477406	-0.248186	0.000008
C38	C	1.977406	0.251814	0.500008
C39	C	1.364639	-0.203985	-0.000001
C40	C	1.864639	0.296015	0.499999
C41	C	1.366557	-0.131150	0.000004
C42	C	1.866557	0.368850	0.500004
N43	N	1.389740	-0.356762	0.042852
N44	N	1.889740	0.143238	0.542852
N45	N	1.387925	-0.425952	0.042850
N46	N	1.887925	0.074048	0.542850
C47	C	1.471619	-0.467632	-0.000007
C48	C	1.971619	0.032368	0.499993
N49	N	1.557215	-0.437510	-0.042852
N50	N	2.057215	0.062490	0.457148
N51	N	1.559034	-0.368313	-0.042846
N52	N	2.059034	0.131687	0.457154
C53	C	1.475313	-0.327162	0.000003
C54	C	1.975313	0.172838	0.500003
C55	C	1.582303	-0.590802	-0.000017
C56	C	2.082303	-0.090802	0.499983
C57	C	1.580383	-0.663639	-0.000034
C58	C	2.080383	-0.163639	0.499966
C59	C	1.352938	-0.648078	-0.000037
C60	C	1.852938	-0.148078	0.499963
C61	C	1.354861	-0.575242	-0.000027
C62	C	1.854861	-0.075242	0.499973
C63	C	1.469547	-0.546609	-0.000014
C64	C	1.969547	-0.046609	0.499986
C65	C	1.701634	0.098599	-0.000006
C66	C	2.201634	0.598599	0.499994
C67	C	1.840146	0.100639	-0.000010
C68	C	2.340146	0.600639	0.499990
C69	C	1.463669	0.230207	-0.000025
C70	C	1.963669	0.730207	0.499975
C71	C	1.465707	0.307724	-0.000037
C72	C	1.965707	0.807724	0.499963
N73	N	1.473436	0.102599	0.179157
N74	N	1.973436	0.602599	0.679157
N75	N	1.473524	0.102603	-0.179169
N76	N	1.973524	0.602603	0.320831
C77	C	1.548870	0.145334	0.218754
C78	C	2.048870	0.645334	0.718754
C79	C	1.548890	0.145332	0.298002
C80	C	2.048890	0.645332	0.798002
C81	C	1.473453	0.102603	0.337649
C82	C	1.973453	0.602603	0.837649
C83	C	1.398015	0.059859	0.298042
C84	C	1.898015	0.559859	0.798042
C85	C	1.398006	0.059857	0.218796
C86	C	1.898006	0.559857	0.718796
N87	N	1.364172	0.100173	0.462088
N88	N	1.864172	0.600173	0.962088
N89	N	1.364183	0.100179	0.537369
N90	N	1.864183	0.600179	1.037369
C91	C	1.473476	0.102605	0.576413
C92	C	1.973476	0.602605	1.076413
N93	N	1.582758	0.105039	0.537333
N94	N	2.082758	0.605039	1.037333
N95	N	1.582745	0.105037	0.462046
N96	N	2.082745	0.605037	0.962046
C97	C	1.473454	0.102600	0.423578
C98	C	1.973454	0.602600	0.923578
C99	C	1.548937	0.145341	0.701940
C100	C	2.048937	0.645341	1.201940
C101	C	1.548960	0.145334	0.781189
C102	C	2.048960	0.645334	1.281189
C103	C	1.398073	0.059865	0.781227
C104	C	1.898073	0.559865	1.281227
C105	C	1.398062	0.059868	0.701980
C106	C	1.898062	0.559868	1.201980
C107	C	1.473492	0.102609	0.662341
C108	C	1.973492	0.602609	1.162341
H109	H	0.821936	0.212830	-0.000031
H110	H	1.321936	0.712830	0.499969
Br111	Br	1.651354	0.203332	0.834931
Br112	Br	2.151354	0.703332	1.334931
H113	H	1.610358	0.180143	0.669664
H114	H	2.110358	0.680143	1.169664
Br115	Br	1.038949	0.017104	0.000012
Br116	Br	1.538949	0.517104	0.500012
Br117	Br	1.098458	0.251496	-0.000021
Br118	Br	1.598458	0.751496	0.499979
Br119	Br	1.749639	-0.107852	0.000019
Br120	Br	2.249639	0.392148	0.500019
H121	H	1.259568	-0.671397	-0.000042
H122	H	1.759568	-0.171397	0.499958
Br123	Br	1.745112	-0.279531	0.000013
Br124	Br	2.245112	0.220469	0.500013
Br125	Br	1.209008	-0.242853	-0.000013
Br126	Br	1.709008	0.257147	0.499987
Br127	Br	1.213523	-0.071171	-0.000005
Br128	Br	1.713523	0.428829	0.499995
Br129	Br	1.737943	-0.551938	0.000009
Br130	Br	2.237943	-0.051938	0.500009
Br131	Br	1.295712	0.001863	0.835025
Br132	Br	1.795712	0.501863	1.335025
H133	H	1.610318	0.180134	0.330249
H134	H	2.110318	0.680134	0.830249
H135	H	1.610296	0.180135	0.186485
H136	H	2.110296	0.680135	0.686485
H137	H	1.336631	0.025071	0.669739
H138	H	1.836631	0.525071	1.169739
Br139	Br	1.295643	0.001864	0.351846
Br140	Br	1.795643	0.501864	0.851846
H141	H	1.336577	0.025056	0.186556
H142	H	1.836577	0.525056	0.686556
Br143	Br	1.201831	-0.515263	-0.000033
Br144	Br	1.701831	-0.015263	0.499967
H145	H	0.905645	0.049733	-0.000007
H146	H	1.405645	0.549733	0.499993
Br147	Br	1.733418	-0.723616	-0.000035
Br148	Br	2.233418	-0.223616	0.499965
