data_functionalizedCrystal
_audit_creation_method	'MofGen! by Chris Wilmer'
_symmetry_space_group_name_H-M	'P1'
_symmetry_Int_Tables_number	1
_symmetry_cell_setting	triclinic
loop_
_symmetry_equiv_pos_as_xyz
  x,y,z
_cell_length_a	12.594516
_cell_length_b	21.295418
_cell_length_c	12.594510
_cell_angle_alpha	89.958333
_cell_angle_beta	89.968094
_cell_angle_gamma	90.031869
loop_
_atom_site_label
_atom_site_type_symbol
_atom_site_fract_x
_atom_site_fract_y
_atom_site_fract_z
Zn1	Zn	-0.423201	0.962406	-0.602412
Zn2	Zn	0.076799	1.462406	-0.102412
Zn3	Zn	-0.601229	0.962339	-0.424439
Zn4	Zn	-0.101229	1.462339	0.075561
Zn5	Zn	-0.423314	0.857133	-0.424382
Zn6	Zn	0.076686	1.357133	0.075618
Zn7	Zn	-0.601187	0.857125	-0.602311
Zn8	Zn	-0.101187	1.357125	-0.102311
O9	O	-0.512232	0.909751	-0.513386
O10	O	-0.012232	1.409751	-0.013386
O11	O	-0.446787	1.050487	-0.578869
O12	O	0.053213	1.550487	-0.078869
O13	O	-0.577693	0.948358	-0.275486
O14	O	-0.077693	1.448358	0.224514
O15	O	-0.274353	0.871129	-0.448016
O16	O	0.225647	1.371129	0.051984
O17	O	-0.577583	1.050437	-0.448114
O18	O	-0.077583	1.550437	0.051886
O19	O	-0.274270	0.948473	-0.578814
O20	O	0.225730	1.448473	-0.078814
O21	O	-0.446979	0.871064	-0.275443
O22	O	0.053021	1.371064	0.224557
O23	O	-0.446939	0.769043	-0.447918
O24	O	0.053061	1.269043	0.052082
O25	O	-0.577512	0.871116	-0.751270
O26	O	-0.077512	1.371116	-0.251270
O27	O	-0.577621	0.769037	-0.578642
O28	O	-0.077621	1.269037	-0.078642
O29	O	-0.446746	0.948465	-0.751344
O30	O	0.053254	1.448465	-0.251344
O31	O	-0.750169	0.948351	-0.448016
O32	O	-0.250169	1.448351	0.051984
O33	O	-0.750138	0.871051	-0.578698
O34	O	-0.250138	1.371051	-0.078698
C35	C	-0.788773	0.909710	-0.513375
C36	C	-0.288773	1.409710	-0.013375
C37	C	-0.907079	0.909750	-0.513407
C38	C	-0.407079	1.409750	-0.013407
C39	C	-0.512288	0.746199	-0.513263
C40	C	-0.012288	1.246199	-0.013263
C41	C	-0.512338	0.676231	-0.513236
C42	C	-0.012338	1.176231	-0.013236
C43	C	-0.976354	0.867702	-0.584434
C44	C	-0.476354	1.367702	-0.084434
C45	C	-1.047236	0.852363	-0.487302
C46	C	-0.547236	1.352363	0.012698
C47	C	-1.046995	0.925146	-0.610555
C48	C	-0.546995	1.425146	-0.110555
C49	C	-0.976403	0.894380	-0.416223
C50	C	-0.476403	1.394380	0.083777
C51	C	-0.976156	0.967190	-0.539541
C52	C	-0.476156	1.467190	-0.039541
C53	C	-1.047006	0.951873	-0.442343
C54	C	-0.547006	1.451873	0.057657
C55	C	-0.580475	0.643378	-0.581202
C56	C	-0.080475	1.143378	-0.081202
C57	C	-0.580448	0.577635	-0.581250
C58	C	-0.080448	1.077635	-0.081250
C59	C	-0.512297	0.544749	-0.513313
C60	C	-0.012297	1.044749	-0.013313
C61	C	-0.444147	0.577610	-0.445342
C62	C	0.055853	1.077610	0.054658
C63	C	-0.444168	0.643351	-0.445304
C64	C	0.055832	1.143351	0.054696
N65	N	-0.503999	0.441473	-0.420217
N66	N	-0.003999	0.941473	0.079783
N67	N	-0.503985	0.379022	-0.420257
N68	N	-0.003985	0.879022	0.079743
C69	C	-0.512229	0.346674	-0.513426
C70	C	-0.012229	0.846674	-0.013426
N71	N	-0.520507	0.379137	-0.606556
N72	N	-0.020507	0.879137	-0.106556
N73	N	-0.520526	0.441594	-0.606515
N74	N	-0.020526	0.941594	-0.106515
C75	C	-0.512266	0.473463	-0.513347
C76	C	-0.012266	0.973463	-0.013347
C77	C	-0.580340	0.242535	-0.581449
C78	C	-0.080340	0.742535	-0.081449
C79	C	-0.580307	0.176792	-0.581499
C80	C	-0.080307	0.676792	-0.081499
C81	C	-0.444011	0.176767	-0.445581
C82	C	0.055989	0.676767	0.054419
C83	C	-0.444039	0.242510	-0.445541
C84	C	0.055961	0.742510	0.054459
C85	C	-0.512210	0.275390	-0.513474
C86	C	-0.012210	0.775390	-0.013474
C87	C	-0.234611	0.909809	-0.513420
C88	C	0.265389	1.409809	-0.013420
C89	C	-0.116306	0.909834	-0.513434
C90	C	0.383694	1.409834	-0.013434
C91	C	-0.512111	0.909797	-0.791007
C92	C	-0.012111	1.409797	-0.291007
C93	C	-0.512060	0.909817	-0.909312
C94	C	-0.012060	1.409817	-0.409312
C95	C	-0.512177	1.073941	-0.513509
C96	C	-0.012177	1.573941	-0.013509
C97	C	-0.512153	1.143909	-0.513562
C98	C	-0.012153	1.643909	-0.013562
C99	C	-0.440915	0.951902	-1.049370
C100	C	0.059085	1.451902	-0.549370
C101	C	-0.538029	0.967272	-0.978561
C102	C	-0.038029	1.467272	-0.478561
C103	C	-0.414957	0.894475	-0.978550
C104	C	0.085043	1.394475	-0.478550
C105	C	-0.609192	0.925243	-1.049289
C106	C	-0.109192	1.425243	-0.549289
C107	C	-0.486055	0.852419	-1.049284
C108	C	0.013945	1.352419	-0.549284
C109	C	-0.583236	0.867767	-0.978508
C110	C	-0.083236	1.367767	-0.478508
C111	C	-0.512276	0.909741	-0.236845
C112	C	-0.012276	1.409741	0.263155
C113	C	-0.512028	0.909843	-0.118540
C114	C	-0.012028	1.409843	0.381460
H115	H	-0.945330	0.832080	-0.644412
H116	H	-0.445330	1.332080	-0.144412
H117	H	-0.635790	0.150044	-0.636852
H118	H	-0.135790	0.650044	-0.136852
H119	H	-0.944915	1.015715	-0.561670
H120	H	-0.444915	1.515715	-0.061670
C121	C	-0.359757	1.000004	-1.091408
C122	C	0.140243	1.500004	-0.591408
N123	N	-0.298634	1.036235	-1.123073
N124	N	0.201366	1.536235	-0.623073
C125	C	-0.369092	0.278649	-0.370762
C126	C	0.130908	0.778649	0.129238
N127	N	-0.312638	0.305870	-0.314436
N128	N	0.187362	0.805870	0.185564
H129	H	-0.945522	0.881336	-0.334055
H130	H	-0.445522	1.381336	0.165945
C131	C	-0.304038	0.876927	-0.936575
C132	C	0.195962	1.376927	-0.436575
N133	N	-0.220490	0.863714	-0.904964
N134	N	0.279510	1.363714	-0.404964
H135	H	-0.560016	1.015822	-0.947491
H136	H	-0.060016	1.515822	-0.447491
C137	C	-0.456307	0.786850	-1.091296
C138	C	0.043693	1.286850	-0.591296
N139	N	-0.433888	0.737463	-1.122944
N140	N	0.066112	1.237463	-0.622944
C141	C	-0.655410	0.541490	-0.656017
C142	C	-0.155410	1.041490	-0.156017
N143	N	-0.711873	0.514267	-0.712331
N144	N	-0.211873	1.014267	-0.212331
H145	H	-0.388516	0.149991	-0.390270
H146	H	0.111484	0.649991	0.109730
C147	C	-0.720142	0.942869	-1.091089
C148	C	-0.220142	1.442869	-0.591089
N149	N	-0.803707	0.956148	-1.122575
N150	N	-0.303707	1.456148	-0.622575
H151	H	-1.077833	0.987467	-0.382219
H152	H	-0.577833	1.487467	0.117781
C153	C	-1.089414	0.786789	-0.457447
C154	C	-0.589414	1.286789	0.042553
N155	N	-1.121179	0.737397	-0.434966
N156	N	-0.621179	1.237397	0.065034
C157	C	-1.088888	0.942693	-0.721530
C158	C	-0.588888	1.442693	-0.221530
N159	N	-1.120436	0.955905	-0.805119
N160	N	-0.620436	1.455905	-0.305119
H161	H	-0.643457	0.832188	-0.947592
H162	H	-0.143457	1.332188	-0.447592
H163	H	-0.635983	0.670145	-0.636520
H164	H	-0.135983	1.170145	-0.136520
H165	H	-0.388655	0.550829	-0.390029
H166	H	0.111345	1.050829	0.109971
C167	C	-0.369214	0.679491	-0.370527
C168	C	0.130786	1.179491	0.129473
N169	N	-0.312761	0.706712	-0.314201
N170	N	0.187239	1.206712	0.185799
C171	C	-0.655316	0.278706	-0.656188
C172	C	-0.155316	0.778706	-0.156188
N173	N	-0.711787	0.305947	-0.712484
N174	N	-0.211787	0.805947	-0.212484
