data_functionalizedCrystal
_audit_creation_method	'MofGen! by Chris Wilmer'
_symmetry_space_group_name_H-M	'P1'
_symmetry_Int_Tables_number	1
_symmetry_cell_setting	triclinic
loop_
_symmetry_equiv_pos_as_xyz
  x,y,z
_cell_length_a	12.759395
_cell_length_b	12.759394
_cell_length_c	12.759387
_cell_angle_alpha	90.029697
_cell_angle_beta	90.020509
_cell_angle_gamma	90.016178
loop_
_atom_site_label
_atom_site_type_symbol
_atom_site_fract_x
_atom_site_fract_y
_atom_site_fract_z
Zn1	Zn	1.606269	-0.418168	0.594013
Zn2	Zn	1.606160	-0.593885	0.418337
Zn3	Zn	1.430567	-0.418225	0.418350
Zn4	Zn	1.430560	-0.593810	0.593976
O5	O	1.518389	-0.506022	0.506169
O6	O	1.753276	-0.441485	0.570719
O7	O	1.582825	-0.570639	0.271318
O8	O	1.453923	-0.271197	0.441673
O9	O	1.753195	-0.570583	0.441651
O10	O	1.583011	-0.271154	0.570732
O11	O	1.453817	-0.441582	0.271327
O12	O	1.283545	-0.441510	0.441637
O13	O	1.453911	-0.570456	0.741002
O14	O	1.283540	-0.570511	0.570669
O15	O	1.583003	-0.441412	0.741029
O16	O	1.582817	-0.740896	0.441615
O17	O	1.453805	-0.740841	0.570656
C18	C	1.245422	-0.506009	0.506151
C19	C	1.128645	-0.506029	0.506168
C20	C	1.518327	-0.778990	0.506153
C21	C	1.518396	-0.895766	0.506181
C22	C	1.128678	-0.640576	0.640312
C23	C	1.073833	-0.707857	0.707386
C24	C	0.964112	-0.707870	0.707399
C25	C	0.909232	-0.640592	0.640332
C26	C	0.964076	-0.573310	0.573258
C27	C	1.073800	-0.573307	0.573250
C28	C	0.964043	-0.438760	0.439121
C29	C	1.073765	-0.438751	0.439101
C30	C	0.909164	-0.371482	0.372054
C31	C	0.964008	-0.304204	0.304973
C32	C	1.073736	-0.304195	0.304962
C33	C	1.128609	-0.371469	0.372027
C34	C	1.652960	-1.115194	0.371955
C35	C	1.720156	-1.060324	0.304813
C36	C	1.720101	-0.950602	0.304792
C37	C	1.652842	-0.895748	0.371918
C38	C	1.585646	-0.950618	0.439060
C39	C	1.585710	-1.060342	0.439076
C40	C	1.451201	-0.950636	0.573323
C41	C	1.451259	-1.060358	0.573351
C42	C	1.383942	-0.895782	0.640450
C43	C	1.316750	-0.950652	0.707599
C44	C	1.316808	-1.060380	0.707617
C45	C	1.384064	-1.115228	0.640493
C46	C	1.792422	-0.506036	0.506188
C47	C	1.909199	-0.506042	0.506196
C48	C	1.518468	-0.505919	0.780203
C49	C	1.518502	-0.505875	0.896979
C50	C	1.518480	-0.231989	0.506208
C51	C	1.518519	-0.115212	0.506225
C52	C	1.518370	-0.506049	0.233202
C53	C	1.518540	-0.505797	0.116425
C54	C	1.652936	-0.371511	0.897028
C55	C	1.720167	-0.304313	0.951912
C56	C	1.720193	-0.304275	1.061634
C57	C	1.652977	-0.371439	1.116473
C58	C	1.585746	-0.438637	1.061589
C59	C	1.585730	-0.438671	0.951864
C60	C	1.451309	-0.572995	1.061540
C61	C	1.451287	-0.573040	0.951819
C62	C	1.384093	-0.640159	1.116380
C63	C	1.316866	-0.707364	1.061495
C64	C	1.316844	-0.707400	0.951766
C65	C	1.384056	-0.640238	0.896934
H66	H	1.118529	-0.762632	0.761992
N67	N	1.792694	-0.231791	1.120839
H68	H	1.835268	-0.189245	1.069455
H69	H	1.841305	-0.274548	1.166365
N70	N	1.246951	-0.371457	0.372023
H71	H	1.273371	-0.318626	0.319358
H72	H	1.273274	-0.443538	0.352611
H73	H	1.774813	-0.905927	0.250115
H74	H	0.919458	-0.762651	0.762022
H75	H	0.819891	-0.640599	0.640358
N76	N	1.652921	-0.371567	0.778686
H77	H	1.705703	-0.318827	0.752274
H78	H	1.580819	-0.352284	0.752324
N79	N	1.384015	-0.640286	0.778592
H80	H	1.456069	-0.659620	0.752159
H81	H	1.364682	-0.568205	0.752259
N82	N	1.244335	-1.119555	0.780042
H83	H	1.254574	-1.197388	0.769875
H84	H	1.169300	-1.100448	0.763619
N85	N	1.383889	-0.777440	0.640424
H86	H	1.403149	-0.750948	0.712510
H87	H	1.311799	-0.751162	0.620999
H88	H	1.774915	-1.104998	0.250157
H89	H	1.262139	-0.762038	1.106154
N90	N	1.653018	-1.233535	0.371970
H91	H	1.600243	-1.259971	0.424687
H92	H	1.725128	-1.259812	0.391318
H93	H	0.819823	-0.371492	0.372074
N94	N	1.652765	-0.777406	0.371883
H95	H	1.705533	-0.750970	0.319158
H96	H	1.671995	-0.750985	0.443999
N97	N	1.244203	-0.891492	0.779982
H98	H	1.254358	-0.813658	0.769773
H99	H	1.260527	-0.910595	0.855037
N100	N	1.384131	-1.233570	0.640519
H101	H	1.436934	-1.259989	0.587808
H102	H	1.312048	-1.259988	0.621179
H103	H	0.919316	-0.249426	0.250377
H104	H	1.774891	-0.249627	0.907250
H105	H	1.652995	-0.371393	1.205815
N106	N	1.384114	-0.640094	1.234722
H107	H	1.456181	-0.659405	1.261166
H108	H	1.331285	-0.692820	1.261058
N109	N	1.247019	-0.640576	0.640283
H110	H	1.273463	-0.693405	0.692942
H111	H	1.273397	-0.568493	0.659690
N112	N	1.132888	-0.231615	0.232627
H113	H	1.081469	-0.188998	0.190150
H114	H	1.178382	-0.274306	0.183919
N115	N	1.244314	-0.779864	0.892571
H116	H	1.201738	-0.822398	0.943965
H117	H	1.287037	-0.828514	0.847041
