data_functionalizedCrystal
_audit_creation_method	'MofGen! by Chris Wilmer'
_symmetry_space_group_name_H-M	'P1'
_symmetry_Int_Tables_number	1
_symmetry_cell_setting	triclinic
loop_
_symmetry_equiv_pos_as_xyz
  x,y,z
_cell_length_a	16.625548
_cell_length_b	16.959454
_cell_length_c	16.959455
_cell_angle_alpha	89.989418
_cell_angle_beta	90.002676
_cell_angle_gamma	89.978857
loop_
_atom_site_label
_atom_site_type_symbol
_atom_site_fract_x
_atom_site_fract_y
_atom_site_fract_z
Zn1	Zn	1.232551	0.314769	0.446951
Zn2	Zn	1.732551	0.814769	0.946951
Zn3	Zn	1.232502	0.446925	0.314781
Zn4	Zn	1.732502	0.946925	0.814781
Zn5	Zn	1.097755	0.314766	0.314786
Zn6	Zn	1.597755	0.814766	0.814786
Zn7	Zn	1.097689	0.446912	0.446917
Zn8	Zn	1.597689	0.946912	0.946917
O9	O	1.165125	0.380843	0.380859
O10	O	1.665125	0.880843	0.880859
O11	O	1.345377	0.332307	0.429431
O12	O	1.845377	0.832307	0.929431
O13	O	1.214635	0.429397	0.204171
O14	O	1.714635	0.929397	0.704171
O15	O	1.115685	0.204156	0.332335
O16	O	1.615685	0.704156	0.832335
O17	O	1.345341	0.429400	0.332326
O18	O	1.845341	0.929400	0.832326
O19	O	1.214719	0.204158	0.429436
O20	O	1.714719	0.704158	0.929436
O21	O	1.115637	0.332301	0.204175
O22	O	1.615637	0.832301	0.704175
O23	O	0.984914	0.332290	0.332302
O24	O	1.484914	0.832290	0.832302
O25	O	1.115572	0.429379	0.557533
O26	O	1.615572	0.929379	1.057533
O27	O	0.984866	0.429376	0.429378
O28	O	1.484866	0.929376	0.929378
O29	O	1.214655	0.332295	0.557558
O30	O	1.714655	0.832295	1.057558
O31	O	1.214571	0.557534	0.332293
O32	O	1.714571	1.057534	0.832293
O33	O	1.115524	0.557525	0.429373
O34	O	1.615524	1.057525	0.929373
C35	C	1.165057	0.586210	0.380846
C36	C	1.665057	1.086210	0.880846
C37	C	1.165102	0.674066	0.380866
C38	C	1.665102	1.174066	0.880866
C39	C	0.955634	0.380832	0.380837
C40	C	1.455634	0.880832	0.880837
C41	C	0.866013	0.380846	0.380846
C42	C	1.366013	0.880846	0.880846
C43	C	1.165111	0.380836	0.587027
C44	C	1.665111	0.880836	1.087027
C45	C	1.165106	0.380833	0.674884
C46	C	1.665106	0.880833	1.174884
C47	C	0.537837	0.380851	0.380880
C48	C	1.037837	0.880851	0.880880
C49	C	0.629146	0.380848	0.380868
C50	C	1.129146	0.880848	0.880868
C51	C	0.701922	0.380849	0.380863
C52	C	1.201922	0.880849	0.880863
C53	C	0.793236	0.380845	0.380852
C54	C	1.293236	0.880845	0.880852
C55	C	1.375434	0.380855	0.380882
C56	C	1.875434	0.880855	0.880882
C57	C	1.465055	0.380860	0.380891
C58	C	1.965055	0.880860	0.880891
C59	C	1.165214	0.174675	0.380890
C60	C	1.665214	0.674675	0.880890
C61	C	1.165253	0.086818	0.380903
C62	C	1.665253	0.586818	0.880903
C63	C	1.113626	1.045567	0.431403
C64	C	1.613626	1.545567	0.931403
C65	C	1.216848	1.045516	0.330396
C66	C	1.716848	1.545516	0.830396
C67	C	1.216820	0.962971	0.330388
C68	C	1.716820	1.462971	0.830388
C69	C	1.165193	0.921719	0.380888
C70	C	1.665193	1.421719	0.880888
C71	C	1.113594	0.963013	0.431396
C72	C	1.613594	1.463013	0.931396
C73	C	1.268412	0.921670	0.279876
C74	C	1.768412	1.421670	0.779876
C75	C	1.268385	0.839119	0.279866
C76	C	1.768385	1.339119	0.779866
C77	C	1.216762	0.797866	0.330371
C78	C	1.716762	1.297866	0.830371
C79	C	1.165162	0.839165	0.380881
C80	C	1.665162	1.339165	0.880881
C81	C	1.113535	0.797914	0.431381
C82	C	1.613535	1.297914	0.931381
C83	C	1.061938	0.839212	0.481896
C84	C	1.561938	1.339212	0.981896
C85	C	1.061971	0.921760	0.481900
C86	C	1.561971	1.421760	0.981900
C87	C	1.216729	0.715318	0.330366
C88	C	1.716729	1.215318	0.830366
C89	C	1.113503	0.715360	0.431374
C90	C	1.613503	1.215360	0.931374
C91	C	1.113530	0.431402	1.046349
C92	C	1.613530	0.931402	1.546349
C93	C	1.216706	0.330307	1.046370
C94	C	1.716706	0.830307	1.546370
C95	C	1.216703	0.330300	0.963824
C96	C	1.716703	0.830300	1.463824
C97	C	1.165114	0.380846	0.922537
C98	C	1.665114	0.880846	1.422537
C99	C	1.113527	0.431398	0.963795
C100	C	1.613527	0.931398	1.463795
C101	C	1.268294	0.279754	0.922560
C102	C	1.768294	0.779754	1.422560
C103	C	1.268294	0.279746	0.840009
C104	C	1.768294	0.779746	1.340009
C105	C	1.216700	0.330289	0.798720
C106	C	1.716700	0.830289	1.298720
C107	C	1.165111	0.380843	0.839983
C108	C	1.665111	0.880843	1.339983
C109	C	1.113522	0.431389	0.798696
C110	C	1.613522	0.931389	1.298696
C111	C	1.061928	0.481939	0.839958
C112	C	1.561928	0.981939	1.339958
C113	C	1.061933	0.481941	0.922506
C114	C	1.561933	0.981941	1.422506
C115	C	1.216695	0.330287	0.716171
C116	C	1.716695	0.830287	1.216171
C117	C	1.113519	0.431385	0.716142
C118	C	1.613519	0.931385	1.216142
C119	C	1.165127	0.380864	1.175493
C120	C	1.665127	0.880864	1.675493
C121	C	1.165119	0.380856	1.087636
C122	C	1.665119	0.880856	1.587636
H123	H	1.071465	0.681778	0.472500
H124	H	1.571465	1.181778	0.972500
H125	H	1.310304	0.238585	0.806420
H126	H	1.810304	0.738585	1.306420
F127	F	1.058620	0.485196	1.090262
F128	F	1.558620	0.985196	1.590262
H129	H	1.258711	0.289159	1.079991
H130	H	1.758711	0.789159	1.579991
H131	H	1.019928	0.523097	0.806331
H132	H	1.519928	1.023097	1.306331
F133	F	1.271789	1.089421	0.276653
F134	F	1.771789	1.589421	0.776653
H135	H	1.310300	0.238607	0.956182
H136	H	1.810300	0.738607	1.456182
F137	F	1.271605	0.276496	0.672261
F138	F	1.771605	0.776496	1.172261
H139	H	1.310398	0.805499	0.238736
H140	H	1.810398	1.305499	0.738736
H141	H	1.019931	0.523099	0.956109
H142	H	1.519931	1.023099	1.456109
H143	H	1.019900	0.805615	0.523010
H144	H	1.519900	1.305615	1.023010
H145	H	1.310437	0.955263	0.238756
H146	H	1.810437	1.455263	0.738756
H147	H	1.019963	0.955392	0.523026
H148	H	1.519963	1.455392	1.023026
F149	F	1.058606	0.485180	0.672208
F150	F	1.558606	0.985180	1.172208
F151	F	1.058719	1.089518	0.485165
F152	F	1.558719	1.589518	0.985165
H153	H	1.258734	0.681697	0.289234
H154	H	1.758734	1.181697	0.789234
