data_functionalizedCrystal
_audit_creation_method	'MofGen! by Chris Wilmer'
_symmetry_space_group_name_H-M	'P1'
_symmetry_Int_Tables_number	1
_symmetry_cell_setting	triclinic
loop_
_symmetry_equiv_pos_as_xyz
  x,y,z
_cell_length_a	19.077312
_cell_length_b	29.839131
_cell_length_c	19.077174
_cell_angle_alpha	92.262165
_cell_angle_beta	90.075859
_cell_angle_gamma	87.741726
loop_
_atom_site_label
_atom_site_type_symbol
_atom_site_fract_x
_atom_site_fract_y
_atom_site_fract_z
Zn1	Zn	1.090077	-0.215848	-0.354066
Zn2	Zn	1.085256	-0.287839	-0.236543
Zn3	Zn	0.967863	-0.209841	-0.241299
Zn4	Zn	0.972518	-0.288062	-0.358732
O5	O	1.028928	-0.250397	-0.297660
O6	O	1.187765	-0.227819	-0.334533
O7	O	1.065717	-0.274886	-0.138844
O8	O	0.984145	-0.147773	-0.256295
O9	O	1.184223	-0.280711	-0.248190
O10	O	1.073934	-0.152187	-0.339145
O11	O	0.979470	-0.217580	-0.142338
O12	O	0.870153	-0.217796	-0.260820
O13	O	0.992078	-0.281089	-0.456443
O14	O	0.873572	-0.275264	-0.347097
O15	O	1.078448	-0.228034	-0.453015
O16	O	1.070231	-0.350733	-0.252714
O17	O	0.987403	-0.350897	-0.342486
C18	C	0.846367	-0.245903	-0.304981
C19	C	0.768267	-0.243991	-0.308130
C20	C	0.328849	-0.230245	-0.330721
C21	C	0.402232	-0.232049	-0.327758
C22	C	0.437067	-0.260440	-0.281250
C23	C	0.398516	-0.287032	-0.237706
C24	C	0.325134	-0.285229	-0.240673
C25	C	0.656335	-0.268780	-0.267553
C26	C	0.729721	-0.270580	-0.264588
C27	C	0.733432	-0.215597	-0.354642
C28	C	0.660049	-0.213796	-0.357601
C29	C	0.621505	-0.240389	-0.314060
N30	N	0.512076	-0.262284	-0.278219
N31	N	0.546497	-0.238547	-0.317095
C32	C	1.028819	-0.367116	-0.297605
C33	C	1.028837	-0.417051	-0.297603
C34	C	1.075675	-0.728962	-0.340864
C35	C	1.075753	-0.916639	-0.340903
O36	O	1.115469	-0.942828	-0.377646
N37	N	1.029051	-0.937844	-0.297733
C38	C	0.982323	-0.912128	-0.254554
O39	O	0.942597	-0.934472	-0.217841
C40	C	0.982242	-0.724453	-0.254519
C41	C	1.028952	-0.703250	-0.297686
C42	C	1.122380	-0.707759	-0.384029
C43	C	1.122363	-0.660843	-0.384016
C44	C	1.075640	-0.635130	-0.340838
C45	C	1.028935	-0.656334	-0.297673
C46	C	0.935511	-0.698738	-0.211343
C47	C	0.935494	-0.651817	-0.211340
C48	C	0.982204	-0.630613	-0.254507
C49	C	0.982194	-0.583705	-0.254482
N50	N	1.028896	-0.562499	-0.297653
C51	C	1.075619	-0.588211	-0.340830
C52	C	0.982370	-1.010661	-0.254574
C53	C	0.982391	-1.057579	-0.254582
C54	C	1.075819	-1.062086	-0.340933
C55	C	1.075801	-1.015167	-0.340921
C56	C	1.029071	-0.989455	-0.297744
C57	C	1.075579	-0.489684	-0.340799
C58	C	1.075560	-0.442763	-0.340780
C59	C	0.982129	-0.438260	-0.254433
C60	C	0.982150	-0.485177	-0.254448
C61	C	1.028878	-0.510888	-0.297638
O62	O	0.942494	-0.557487	-0.217765
O63	O	1.115328	-0.565860	-0.377549
C64	C	1.075692	-0.775879	-0.340877
C65	C	1.028987	-0.797082	-0.297712
C66	C	0.982264	-0.771370	-0.254535
C67	C	1.029008	-0.844001	-0.297720
C68	C	1.075730	-0.869713	-0.340898
C69	C	1.122432	-0.848508	-0.384068
C70	C	1.122415	-0.801591	-0.384055
C71	C	0.935562	-0.792576	-0.211364
C72	C	0.935584	-0.839492	-0.211380
C73	C	0.982306	-0.865205	-0.254558
C74	C	1.212202	-0.254910	-0.290311
C75	C	1.290303	-0.256833	-0.287179
C76	C	1.036320	-0.255257	-0.480938
C77	C	1.039470	-0.257327	-0.559040
C78	C	1.029058	-0.133224	-0.297730
C79	C	1.029113	-0.083292	-0.297760
C80	C	0.996047	-0.228465	-0.597550
C81	C	0.999004	-0.230414	-0.670936
C82	C	1.045388	-0.261224	-0.705808
C83	C	1.088813	-0.290090	-0.667292
C84	C	1.085852	-0.288142	-0.593909
C85	C	1.059056	-0.270250	-0.925087
C86	C	1.062015	-0.272194	-0.998476
C87	C	0.972205	-0.212519	-1.002114
C88	C	0.969251	-0.210573	-0.928729
C89	C	1.012673	-0.239440	-0.890219
N90	N	1.048413	-0.263216	-0.780820
N91	N	1.009644	-0.237449	-0.815210
C92	C	1.021606	-0.245526	-0.115094
C93	C	1.018592	-0.243332	-0.036987
H94	H	0.433613	-0.210399	-0.363217
Br95	Br	0.918940	-0.975772	-0.195975
H96	H	0.944362	-1.074839	-0.219422
Br97	Br	0.785746	-0.179510	-0.413732
Br98	Br	0.918723	-0.403356	-0.195836
Br99	Br	0.918769	-0.513954	-0.195852
Br100	Br	0.872190	-0.868262	-0.152786
Br101	Br	0.272821	-0.321321	-0.181586
Br102	Br	1.138958	-0.413990	-0.399366
H103	H	0.931479	-0.185485	-0.900341
H104	H	0.963642	-0.206913	-0.702288
Br105	Br	0.913277	-0.173346	-1.054381
H106	H	1.126576	-0.315178	-0.695692
H107	H	1.160450	-0.784331	-0.419206
Br108	Br	0.776998	-0.309122	-0.201479
Br109	Br	1.124977	-0.314005	-1.045803
H110	H	0.624960	-0.290433	-0.232097
Br111	Br	0.612778	-0.175264	-0.420723
Br112	Br	1.117990	-0.309424	-0.872833
H113	H	1.113625	-0.510612	-0.375973
H114	H	0.897476	-0.715994	-0.176191
Br115	Br	0.933100	-0.186646	-0.550230
Br116	Br	1.144779	-0.327317	-0.541643
Br117	Br	0.872070	-0.616924	-0.152741
H118	H	1.160396	-0.643582	-0.419169
H119	H	0.300491	-0.207123	-0.368589
Br120	Br	1.185795	-0.742646	-0.442640
Br121	Br	0.445791	-0.325566	-0.174592
Br122	Br	1.139195	-0.986396	-0.399507
Br123	Br	1.139229	-1.096991	-0.399530
H124	H	1.160478	-0.869451	-0.419223
Br125	Br	0.872141	-0.757687	-0.152765
