data_functionalizedCrystal
_audit_creation_method	'MofGen! by Chris Wilmer'
_symmetry_space_group_name_H-M	'P1'
_symmetry_Int_Tables_number	1
_symmetry_cell_setting	triclinic
loop_
_symmetry_equiv_pos_as_xyz
  x,y,z
_cell_length_a	21.395362
_cell_length_b	19.805405
_cell_length_c	21.395355
_cell_angle_alpha	90.017223
_cell_angle_beta	90.043940
_cell_angle_gamma	90.042604
loop_
_atom_site_label
_atom_site_type_symbol
_atom_site_fract_x
_atom_site_fract_y
_atom_site_fract_z
Zn1	Zn	0.957877	-0.269255	0.354591
Zn2	Zn	1.457877	0.230745	0.854591
Zn3	Zn	0.957787	-0.382425	0.249816
Zn4	Zn	1.457787	0.117575	0.749816
Zn5	Zn	0.853092	-0.269286	0.249793
Zn6	Zn	1.353092	0.230714	0.749793
Zn7	Zn	0.853068	-0.382438	0.354521
Zn8	Zn	1.353068	0.117562	0.854521
O9	O	0.905456	-0.325851	0.302180
O10	O	1.405456	0.174149	0.802180
O11	O	1.045543	-0.284248	0.340732
O12	O	1.545543	0.215752	0.840732
O13	O	0.943871	-0.367424	0.162135
O14	O	1.443871	0.132576	0.662135
O15	O	0.867039	-0.174565	0.263714
O16	O	1.367039	0.325435	0.763714
O17	O	1.045476	-0.367393	0.263754
O18	O	1.545476	0.132607	0.763754
O19	O	0.944024	-0.174542	0.340709
O20	O	1.444024	0.325458	0.840709
O21	O	0.866952	-0.284302	0.162118
O22	O	1.366952	0.215698	0.662118
O23	O	0.765411	-0.284315	0.263646
O24	O	1.265411	0.215685	0.763646
O25	O	0.866999	-0.367417	0.442208
O26	O	1.366999	0.132583	0.942208
O27	O	0.765393	-0.367448	0.340589
O28	O	1.265393	0.132552	0.840589
O29	O	0.944002	-0.284261	0.442260
O30	O	1.444002	0.215739	0.942260
O31	O	0.943848	-0.477143	0.263686
O32	O	1.443848	0.022857	0.763686
O33	O	0.866912	-0.477153	0.340612
O34	O	1.366912	0.022847	0.840612
C35	C	0.742668	-0.325887	0.302107
C36	C	1.242668	0.174113	0.802107
C37	C	0.673027	-0.325918	0.302091
C38	C	1.173027	0.174082	0.802091
C39	C	0.640321	-0.369263	0.342096
C40	C	1.140321	0.130737	0.842096
C41	C	0.574886	-0.369246	0.342124
C42	C	1.074886	0.130754	0.842124
C43	C	0.542159	-0.325892	0.302136
C44	C	1.042159	0.174108	0.802136
C45	C	0.574872	-0.282539	0.262129
C46	C	1.074872	0.217461	0.762129
C47	C	0.640306	-0.282553	0.262106
C48	C	1.140306	0.217447	0.762106
C49	C	0.438434	-0.320440	0.245731
C50	C	0.938434	0.179560	0.745731
C51	C	0.373001	-0.320431	0.245752
C52	C	0.873001	0.179569	0.745752
C53	C	0.340338	-0.325848	0.302205
C54	C	0.840338	0.174152	0.802205
C55	C	0.373116	-0.331287	0.358639
C56	C	0.873116	0.168713	0.858639
C57	C	0.438550	-0.331301	0.358616
C58	C	0.938550	0.168699	0.858616
C59	C	0.471206	-0.325873	0.302156
C60	C	0.971206	0.174127	0.802156
C61	C	0.236680	-0.369177	0.342243
C62	C	0.736680	0.130823	0.842243
C63	C	0.171243	-0.369156	0.342272
C64	C	0.671243	0.130844	0.842272
C65	C	0.171231	-0.282452	0.262272
C66	C	0.671231	0.217548	0.762272
C67	C	0.236666	-0.282470	0.262248
C68	C	0.736666	0.217530	0.762248
C69	C	0.269387	-0.325836	0.302233
C70	C	0.769387	0.174164	0.802233
C71	C	0.905384	-0.501707	0.302157
C72	C	1.405384	-0.001707	0.802157
C73	C	0.905411	-0.576939	0.302169
C74	C	1.405411	-0.076939	0.802169
C75	C	0.945474	-0.612213	0.342292
C76	C	1.445474	-0.112213	0.842292
C77	C	0.945496	-0.682901	0.342303
C78	C	1.445496	-0.182901	0.842303
C79	C	0.905459	-0.718315	0.302188
C80	C	1.405459	-0.218315	0.802188
C81	C	0.865392	-0.683036	0.262064
C82	C	1.365392	-0.183036	0.762064
C83	C	0.865367	-0.612349	0.262056
C84	C	1.365367	-0.112349	0.762056
C85	C	0.865493	-0.968109	0.262096
C86	C	1.365493	-0.468109	0.762096
C87	C	0.865523	-1.038801	0.262106
C88	C	1.365523	-0.538801	0.762106
C89	C	0.945622	-1.038662	0.342343
C90	C	1.445622	-0.538662	0.842343
C91	C	0.945597	-0.967975	0.342335
C92	C	1.445597	-0.467975	0.842335
C93	C	0.905528	-0.932702	0.302213
C94	C	1.405528	-0.432702	0.802213
C95	C	0.905503	-0.856053	0.302202
C96	C	1.405503	-0.356053	0.802202
C97	C	0.905487	-0.794962	0.302196
C98	C	1.405487	-0.294962	0.802196
C99	C	1.068879	-0.325816	0.302253
C100	C	1.568879	0.174184	0.802253
C101	C	1.138520	-0.325800	0.302285
C102	C	1.638520	0.174200	0.802285
C103	C	0.905508	-0.325837	0.465604
C104	C	1.405508	0.174163	0.965604
C105	C	0.905530	-0.325831	0.535245
C106	C	1.405530	0.174169	1.035245
C107	C	0.905545	-0.149308	0.302217
C108	C	1.405545	0.350692	0.802217
C109	C	0.905582	-0.074076	0.302232
C110	C	1.405582	0.425924	0.802232
C111	C	0.905440	-0.325816	0.139393
C112	C	1.405440	0.174184	0.639393
C113	C	0.905539	-0.325631	0.069752
C114	C	1.405539	0.174369	0.569752
C115	C	0.945623	-0.282530	0.567986
C116	C	1.445623	0.217470	1.067986
C117	C	0.945623	-0.282501	0.633421
C118	C	1.445623	0.217499	1.133421
C119	C	0.905535	-0.325785	0.666113
C120	C	1.405535	0.174215	1.166113
C121	C	0.865434	-0.369089	0.633364
C122	C	1.365434	0.130911	1.133364
C123	C	0.865431	-0.369112	0.567930
C124	C	1.365431	0.130888	1.067930
C125	C	0.900563	-0.386731	0.769778
C126	C	1.400563	0.113269	1.269778
C127	C	0.900570	-0.386709	0.835211
C128	C	1.400570	0.113291	1.335211
C129	C	0.905539	-0.325714	0.867934
C130	C	1.405539	0.174286	1.367934
C131	C	0.910514	-0.264738	0.835216
C132	C	1.410514	0.235262	1.335216
C133	C	0.910512	-0.264762	0.769782
C134	C	1.410512	0.235238	1.269782
C135	C	0.905533	-0.325765	0.737066
C136	C	1.405533	0.174235	1.237066
C137	C	0.945633	-0.282378	0.971628
C138	C	1.445633	0.217622	1.471628
C139	C	0.945628	-0.282347	1.037064
C140	C	1.445628	0.217653	1.537064
C141	C	0.865443	-0.368941	1.037006
C142	C	1.365443	0.131059	1.537006
C143	C	0.865445	-0.368966	0.971571
C144	C	1.365445	0.131034	1.471571
C145	C	0.905543	-0.325685	0.938885
C146	C	1.405543	0.174315	1.438885
H147	H	0.263322	-0.404485	0.374805
H148	H	0.763322	0.095515	0.874805
C149	C	0.821389	-0.721993	0.217899
C150	C	1.321389	-0.221993	0.717899
N151	N	0.788260	-0.751335	0.184618
N152	N	1.288260	-0.251335	0.684618
H153	H	0.144615	-0.404451	0.374852
H154	H	0.644615	0.095549	0.874852
C155	C	0.895096	-0.453783	0.871195
C156	C	1.395096	0.046217	1.371195
N157	N	0.890972	-0.504304	0.898297
N158	N	1.390972	-0.004304	1.398297
H159	H	0.978274	-0.247287	0.541378
H160	H	1.478274	0.252713	1.041378
H161	H	0.263295	-0.247178	0.229669
H162	H	0.763295	0.252822	0.729669
C163	C	0.915976	-0.197689	0.733794
C164	C	1.415976	0.302311	1.233794
N165	N	0.920088	-0.147169	0.706688
N166	N	1.420088	0.352831	1.206688
H167	H	0.832869	-0.939395	0.229426
H168	H	1.332869	-0.439395	0.729426
C169	C	0.989520	-0.573265	0.386421
C170	C	1.489520	-0.073265	0.886421
N171	N	1.022695	-0.543931	0.419662
N172	N	1.522695	-0.043931	0.919662
H173	H	0.465022	-0.316026	0.199756
H174	H	0.965022	0.183974	0.699756
C175	C	0.821296	-0.573548	0.217917
C176	C	1.321296	-0.073548	0.717917
N177	N	0.788098	-0.544324	0.184672
N178	N	1.288098	-0.044324	0.684672
C179	C	0.337192	-0.337244	0.420743
C180	C	0.837192	0.162756	0.920743
N181	N	0.310132	-0.341730	0.467518
N182	N	0.810132	0.158270	0.967518
C183	C	0.676310	-0.416964	0.386083
C184	C	1.176310	0.083036	0.886083
N185	N	0.703418	-0.452893	0.419214
N186	N	1.203418	0.047107	0.919214
H187	H	0.978270	-0.247237	0.660084
H188	H	1.478270	0.252763	1.160084
H189	H	0.914561	-0.215070	0.861857
H190	H	1.414561	0.284930	1.361857
H191	H	0.346318	-0.316007	0.199800
H192	H	0.846318	0.183993	0.699800
H193	H	0.978281	-0.247132	0.945014
H194	H	1.478281	0.252868	1.445014
H195	H	0.896349	-0.436388	0.743141
H196	H	1.396349	0.063612	1.243141
H197	H	0.978276	-0.247083	1.063721
H198	H	1.478276	0.252917	1.563721
C199	C	0.821473	-1.077754	0.217978
C200	C	1.321473	-0.577754	0.717978
N201	N	0.788295	-1.107094	0.184744
N202	N	1.288295	-0.607094	0.684744
H203	H	0.832796	-0.404177	1.063623
H204	H	1.332796	0.095823	1.563623
H205	H	0.978124	-0.711618	0.374970
H206	H	1.478124	-0.211618	0.874970
H207	H	0.548252	-0.404542	0.374702
H208	H	1.048252	0.095458	0.874702
H209	H	0.144585	-0.247150	0.229716
H210	H	0.644585	0.252850	0.729716
C211	C	0.538871	-0.234850	0.218142
C212	C	1.038871	0.265150	0.718142
N213	N	0.511755	-0.198927	0.185011
N214	N	1.011755	0.301073	0.685011
C215	C	0.821334	-0.416699	0.669327
C216	C	1.321334	0.083301	1.169327
N217	N	0.788115	-0.452557	0.696413
N218	N	1.288115	0.047443	1.196413
C219	C	0.821341	-0.416604	0.935554
C220	C	1.321341	0.083396	1.435554
N221	N	0.788118	-0.452485	0.908427
N222	N	1.288118	0.047515	1.408427
C223	C	0.676284	-0.234872	0.218093
C224	C	1.176284	0.265128	0.718093
N225	N	0.703383	-0.198959	0.184940
N226	N	1.203383	0.301041	0.684940
C227	C	0.989645	-0.929024	0.386461
C228	C	1.489645	-0.429024	0.886461
N229	N	1.022822	-0.899687	0.419697
N230	N	1.522822	-0.399687	0.919697
H231	H	0.832779	-0.404372	0.541273
H232	H	1.332779	0.095628	1.041273
H233	H	0.465236	-0.335727	0.404567
H234	H	0.965236	0.164273	0.904567
C235	C	0.989694	-1.077468	0.386484
C236	C	1.489694	-0.577468	0.886484
N237	N	1.022889	-1.106696	0.419729
N238	N	1.522889	-0.606696	0.919729
