data_functionalizedCrystal
_audit_creation_method	'MofGen! by Chris Wilmer'
_symmetry_space_group_name_H-M	'P1'
_symmetry_Int_Tables_number	1
_symmetry_cell_setting	triclinic
loop_
_symmetry_equiv_pos_as_xyz
  x,y,z
_cell_length_a	14.044220
_cell_length_b	16.109301
_cell_length_c	15.186229
_cell_angle_alpha	90.005167
_cell_angle_beta	90.001537
_cell_angle_gamma	91.674821
loop_
_atom_site_label
_atom_site_type_symbol
_atom_site_fract_x
_atom_site_fract_y
_atom_site_fract_z
O1	O	1.257643	-0.200436	-0.073140
O2	O	0.981676	-0.193203	-0.073163
O3	O	1.127241	-0.076352	-0.073142
O4	O	1.112079	-0.317286	-0.073161
O5	O	1.127231	-0.076350	0.073315
O6	O	0.981667	-0.193200	0.073295
O7	O	1.257634	-0.200433	0.073317
Zn8	Zn	1.119649	-0.196816	0.096559
Zn9	Zn	1.119661	-0.196820	-0.096405
O10	O	1.112069	-0.317284	0.073296
C11	C	1.126622	-0.045330	0.000087
C12	C	1.124781	0.047102	0.000088
C13	C	0.946358	-0.190036	0.000063
C14	C	0.841135	-0.180592	0.000055
N15	N	1.119647	-0.196814	0.228252
C16	C	0.648479	-0.163326	0.000074
C17	C	0.590825	-0.230306	0.000072
C18	C	0.483625	-0.220699	0.000083
C19	C	0.755690	-0.172932	0.000064
C20	C	1.292952	-0.203600	0.000089
C21	C	1.398175	-0.213044	0.000091
C22	C	1.112688	-0.348306	0.000065
C23	C	1.114529	-0.440738	0.000058
C24	C	1.206874	0.263266	0.000081
C25	C	1.205137	0.350116	0.000073
C26	C	1.032429	0.343091	0.000063
C27	C	1.034168	0.256243	0.000064
C28	C	1.121393	0.216333	0.000078
C29	C	1.117917	0.390031	0.000069
C30	C	1.116032	0.484197	0.000061
C31	C	1.123278	0.122161	0.000084
N32	N	1.119671	-0.196816	-0.228097
C33	C	1.184125	-0.145093	0.453984
C34	C	1.184128	-0.145092	0.546173
C35	C	1.055186	-0.248539	0.546164
C36	C	1.055179	-0.248536	0.453976
C37	C	1.119654	-0.196814	0.407888
C38	C	1.119664	-0.196816	0.592266
C39	C	1.119666	-0.196814	0.692222
C40	C	1.119650	-0.196814	0.307926
H41	H	0.621976	-0.294863	0.000063
C42	C	0.606397	-0.076117	0.000079
N43	N	0.574690	-0.010432	0.000078
H44	H	1.277898	0.230774	0.000090
C45	C	0.940127	0.204613	0.000056
N46	N	0.869298	0.165726	0.000047
C47	C	1.299173	0.401739	0.000085
N48	N	1.370005	0.440621	0.000095
C49	C	0.936486	0.387001	0.000066
N50	N	0.864220	0.420072	0.000074
C51	C	1.255041	-0.088191	0.403290
N52	N	1.308454	-0.045328	0.365111
C53	C	1.255043	-0.088187	0.596874
N54	N	1.308457	-0.045321	0.635061
C55	C	0.984266	-0.305428	0.596869
N56	N	0.930847	-0.348277	0.635060
H57	H	1.002675	-0.290653	0.416443
