data_functionalizedCrystal
_audit_creation_method	'MofGen! by Chris Wilmer'
_symmetry_space_group_name_H-M	'P1'
_symmetry_Int_Tables_number	1
_symmetry_cell_setting	triclinic
loop_
_symmetry_equiv_pos_as_xyz
  x,y,z
_cell_length_a	19.121112
_cell_length_b	19.120785
_cell_length_c	19.121278
_cell_angle_alpha	84.986890
_cell_angle_beta	89.882050
_cell_angle_gamma	89.914053
loop_
_atom_site_label
_atom_site_type_symbol
_atom_site_fract_x
_atom_site_fract_y
_atom_site_fract_z
Zn1	Zn	1.042387	-0.305902	-0.428453
Zn2	Zn	1.292387	-0.055902	-0.178453
Zn3	Zn	1.542387	0.194098	0.071547
Zn4	Zn	1.792387	0.444098	0.321547
Zn5	Zn	1.042307	-0.428595	-0.305757
Zn6	Zn	1.292307	-0.178595	-0.055757
Zn7	Zn	1.542307	0.071405	0.194243
Zn8	Zn	1.792307	0.321405	0.444243
Zn9	Zn	0.930137	-0.306342	-0.306216
Zn10	Zn	1.180137	-0.056342	-0.056216
Zn11	Zn	1.430137	0.193658	0.193784
Zn12	Zn	1.680137	0.443658	0.443784
Zn13	Zn	0.920529	-0.418545	-0.418410
Zn14	Zn	1.170529	-0.168545	-0.168410
Zn15	Zn	1.420529	0.081455	0.081590
Zn16	Zn	1.670529	0.331455	0.331590
O17	O	0.983840	-0.364846	-0.364709
O18	O	1.233840	-0.114846	-0.114709
O19	O	1.483840	0.135154	0.135291
O20	O	1.733840	0.385154	0.385291
O21	O	1.140318	-0.326199	-0.416188
O22	O	1.390318	-0.076199	-0.166188
O23	O	1.640318	0.173801	0.083812
O24	O	1.890318	0.423801	0.333812
O25	O	1.031415	-0.416768	-0.207515
O26	O	1.281415	-0.166768	0.042485
O27	O	1.531415	0.083232	0.292485
O28	O	1.781415	0.333232	0.542485
O29	O	0.949082	-0.207979	-0.326827
O30	O	1.199082	0.042021	-0.076827
O31	O	1.449082	0.292021	0.173173
O32	O	1.699082	0.542021	0.423173
O33	O	1.140259	-0.416341	-0.326044
O34	O	1.390259	-0.166341	-0.076044
O35	O	1.640259	0.083659	0.173956
O36	O	1.890259	0.333659	0.423956
O37	O	1.031552	-0.207656	-0.416634
O38	O	1.281552	0.042344	-0.166634
O39	O	1.531552	0.292344	0.083366
O40	O	1.781552	0.542344	0.333366
O41	O	0.949004	-0.326949	-0.207853
O42	O	1.199004	-0.076949	0.042147
O43	O	1.449004	0.173051	0.292147
O44	O	1.699004	0.423051	0.542147
O45	O	0.830921	-0.317205	-0.317088
O46	O	1.080921	-0.067205	-0.067088
O47	O	1.330921	0.182795	0.182912
O48	O	1.580921	0.432795	0.432912
O49	O	0.932707	-0.399213	-0.518045
O50	O	1.182707	-0.149213	-0.268045
O51	O	1.432707	0.100787	-0.018045
O52	O	1.682707	0.350787	0.231955
O53	O	0.823862	-0.399640	-0.399516
O54	O	1.073862	-0.149640	-0.149516
O55	O	1.323862	0.100360	0.100484
O56	O	1.573862	0.350360	0.350484
O57	O	1.022235	-0.316454	-0.525423
O58	O	1.272235	-0.066454	-0.275423
O59	O	1.522235	0.183546	-0.025423
O60	O	1.772235	0.433546	0.224577
O61	O	1.022098	-0.525566	-0.316305
O62	O	1.272098	-0.275566	-0.066305
O63	O	1.522098	-0.025566	0.183695
O64	O	1.772098	0.224434	0.433695
O65	O	0.932629	-0.518183	-0.399071
O66	O	1.182629	-0.268183	-0.149071
O67	O	1.432629	-0.018183	0.100929
O68	O	1.682629	0.231817	0.350929
C69	C	0.801996	-0.357380	-0.357263
C70	C	1.051996	-0.107380	-0.107263
C71	C	1.301996	0.142620	0.142737
C72	C	1.551996	0.392620	0.392737
C73	C	0.724201	-0.354202	-0.354093
C74	C	0.974201	-0.104202	-0.104093
C75	C	1.224201	0.145798	0.145907
C76	C	1.474201	0.395798	0.395907
C77	C	0.976331	-0.547364	-0.356564
C78	C	1.226331	-0.297364	-0.106564
C79	C	1.476331	-0.047364	0.143436
C80	C	1.726331	0.202636	0.393436
C81	C	0.973181	-0.625447	-0.353106
C82	C	1.223181	-0.375447	-0.103106
C83	C	1.473181	-0.125447	0.146894
C84	C	1.723181	0.124553	0.396894
C85	C	0.284393	-0.334039	-0.334019
C86	C	0.534393	-0.084039	-0.084019
C87	C	0.784393	0.165961	0.165981
C88	C	1.034393	0.415961	0.415981
C89	C	0.357490	-0.337029	-0.337000
C90	C	0.607490	-0.087029	-0.087000
C91	C	0.857490	0.162971	0.163000
C92	C	1.107490	0.412971	0.413000
C93	C	0.390379	-0.381520	-0.381331
C94	C	0.640379	-0.131520	-0.131331
C95	C	0.890379	0.118480	0.118669
C96	C	1.140379	0.368480	0.368669
C97	C	0.350167	-0.423019	-0.422688
C98	C	0.600167	-0.173019	-0.172688
C99	C	0.850167	0.076981	0.077312
C100	C	1.100167	0.326981	0.327312
C101	C	0.277072	-0.420025	-0.419709
C102	C	0.527072	-0.170025	-0.169709
C103	C	0.777072	0.079975	0.080291
C104	C	1.027072	0.329975	0.330291
C105	C	0.610895	-0.392707	-0.392471
C106	C	0.860895	-0.142707	-0.142471
C107	C	1.110895	0.107293	0.107529
C108	C	1.360895	0.357293	0.357529
C109	C	0.683995	-0.395700	-0.395445
C110	C	0.933995	-0.145700	-0.145445
C111	C	1.183995	0.104300	0.104555
C112	C	1.433995	0.354300	0.354555
C113	C	0.691313	-0.309708	-0.309758
C114	C	0.941313	-0.059708	-0.059758
C115	C	1.191313	0.190292	0.190242
C116	C	1.441313	0.440292	0.440242
C117	C	0.618216	-0.306721	-0.306780
C118	C	0.868216	-0.056721	-0.056780
C119	C	1.118216	0.193279	0.193220
C120	C	1.368216	0.443279	0.443220
C121	C	0.578011	-0.348217	-0.348140
C122	C	0.828011	-0.098217	-0.098140
C123	C	1.078011	0.151783	0.151860
C124	C	1.328011	0.401783	0.401860
C125	C	0.465095	-0.384579	-0.384378
C126	C	0.715095	-0.134579	-0.134378
C127	C	0.965095	0.115421	0.115622
C128	C	1.215095	0.365421	0.365622
C129	C	0.503297	-0.345154	-0.345096
C130	C	0.753297	-0.095154	-0.095096
C131	C	1.003297	0.154846	0.154904
C132	C	1.253297	0.404846	0.404904
C133	C	0.953197	-1.067082	-0.331223
C134	C	1.203197	-0.817082	-0.081223
C135	C	1.453197	-0.567082	0.168777
C136	C	1.703197	-0.317082	0.418777
C137	C	0.956158	-0.993714	-0.334472
C138	C	1.206158	-0.743714	-0.084472
C139	C	1.456158	-0.493714	0.165528
C140	C	1.706158	-0.243714	0.415528
C141	C	1.000544	-0.956800	-0.382889
C142	C	1.250544	-0.706800	-0.132889
C143	C	1.500544	-0.456800	0.117111
C144	C	1.750544	-0.206800	0.367111
C145	C	1.041966	-0.993257	-0.428063
C146	C	1.291966	-0.743257	-0.178063
C147	C	1.541966	-0.493257	0.071937
C148	C	1.791966	-0.243257	0.321937
C149	C	1.039002	-1.066623	-0.424817
C150	C	1.289002	-0.816623	-0.174817
C151	C	1.539002	-0.566623	0.075183
C152	C	1.789002	-0.316623	0.325183
C153	C	1.011639	-0.735270	-0.395035
C154	C	1.261639	-0.485270	-0.145035
C155	C	1.511639	-0.235270	0.104965
C156	C	1.761639	0.014730	0.354965
C157	C	1.014602	-0.661899	-0.398276
C158	C	1.264602	-0.411899	-0.148276
C159	C	1.514602	-0.161899	0.101724
C160	C	1.764602	0.088101	0.351724
C161	C	0.928792	-0.662362	-0.304685
C162	C	1.178792	-0.412362	-0.054685
C163	C	1.428792	-0.162362	0.195315
C164	C	1.678792	0.087638	0.445315
C165	C	0.925834	-0.735729	-0.301440
C166	C	1.175834	-0.485729	-0.051440
C167	C	1.425834	-0.235729	0.198560
C168	C	1.675834	0.014271	0.448560
C169	C	0.967254	-0.772180	-0.346618
C170	C	1.217254	-0.522180	-0.096618
C171	C	1.467254	-0.272180	0.153382
C172	C	1.717254	-0.022180	0.403382
C173	C	1.003573	-0.881807	-0.386210
C174	C	1.253573	-0.631807	-0.136210
C175	C	1.503573	-0.381807	0.113790
C176	C	1.753573	-0.131807	0.363790
C177	C	0.964221	-0.847171	-0.343300
C178	C	1.214221	-0.597171	-0.093300
C179	C	1.464221	-0.347171	0.156700
C180	C	1.714221	-0.097171	0.406700
C181	C	1.166394	-0.372342	-0.372185
C182	C	1.416394	-0.122342	-0.122185
C183	C	1.666394	0.127658	0.127815
C184	C	1.916394	0.377658	0.377815
C185	C	1.244188	-0.375536	-0.375371
C186	C	1.494188	-0.125536	-0.125371
C187	C	1.744188	0.124464	0.124629
C188	C	1.994188	0.374464	0.374629
C189	C	0.976408	-0.356664	-0.547935
C190	C	1.226408	-0.106664	-0.297935
C191	C	1.476408	0.143336	-0.047935
C192	C	1.726408	0.393336	0.202065
C193	C	0.973241	-0.353177	-0.626015
C194	C	1.223241	-0.103177	-0.376015
C195	C	1.473241	0.146823	-0.126015
C196	C	1.723241	0.396823	0.123985
C197	C	0.991397	-0.181616	-0.372902
C198	C	1.241397	0.068384	-0.122902
C199	C	1.491397	0.318384	0.127098
C200	C	1.741397	0.568384	0.377098
C201	C	0.994618	-0.103534	-0.376393
C202	C	1.244618	0.146466	-0.126393
C203	C	1.494618	0.396466	0.123607
C204	C	1.744618	0.646466	0.373607
C205	C	0.953180	-0.331116	-1.067630
C206	C	1.203180	-0.081116	-0.817630
C207	C	1.453180	0.168884	-0.567630
C208	C	1.703180	0.418884	-0.317630
C209	C	0.956159	-0.334390	-0.994266
C210	C	1.206159	-0.084390	-0.744266
C211	C	1.456159	0.165610	-0.494266
C212	C	1.706159	0.415610	-0.244266
C213	C	1.000551	-0.382794	-0.957407
C214	C	1.250551	-0.132794	-0.707407
C215	C	1.500551	0.117206	-0.457407
C216	C	1.750551	0.367206	-0.207407
C217	C	1.041972	-0.427922	-0.993916
C218	C	1.291972	-0.177922	-0.743916
C219	C	1.541972	0.072078	-0.493916
C220	C	1.791972	0.322078	-0.243916
C221	C	1.038997	-0.424645	-1.067279
C222	C	1.288997	-0.174645	-0.817279
C223	C	1.538997	0.075355	-0.567279
C224	C	1.788997	0.325355	-0.317279
C225	C	1.011687	-0.395027	-0.735888
C226	C	1.261687	-0.145027	-0.485888
C227	C	1.511687	0.104973	-0.235888
C228	C	1.761687	0.354973	0.014112
C229	C	1.014658	-0.398303	-0.662520
C230	C	1.264658	-0.148303	-0.412520
C231	C	1.514658	0.101697	-0.162520
C232	C	1.764658	0.351697	0.087480
C233	C	0.928845	-0.304769	-0.662874
C234	C	1.178845	-0.054769	-0.412874
C235	C	1.428845	0.195231	-0.162874
C236	C	1.678845	0.445231	0.087126
C237	C	0.925870	-0.301499	-0.736239
C238	C	1.175870	-0.051499	-0.486239
C239	C	1.425870	0.198501	-0.236239
C240	C	1.675870	0.448501	0.013761
C241	C	0.967293	-0.346624	-0.772742
C242	C	1.217293	-0.096624	-0.522742
C243	C	1.467293	0.153376	-0.272742
C244	C	1.717293	0.403376	-0.022742
C245	C	1.003596	-0.386143	-0.882416
C246	C	1.253596	-0.136143	-0.632416
C247	C	1.503596	0.113857	-0.382416
C248	C	1.753596	0.363857	-0.132416
C249	C	0.964252	-0.343271	-0.847731
C250	C	1.214252	-0.093271	-0.597731
C251	C	1.464252	0.156729	-0.347731
C252	C	1.714252	0.406729	-0.097731
C253	C	0.991285	-0.372948	-0.182200
C254	C	1.241285	-0.122948	0.067800
C255	C	1.491285	0.127052	0.317800
C256	C	1.741285	0.377052	0.567800
C257	C	0.994596	-0.376242	-0.104134
C258	C	1.244596	-0.126242	0.145866
C259	C	1.494596	0.123758	0.395866
C260	C	1.744596	0.373758	0.645866
H261	H	0.257621	-0.297810	-0.297919
H262	H	0.507621	-0.047810	-0.047919
H263	H	0.757621	0.202190	0.202081
H264	H	1.007621	0.452190	0.452081
H265	H	0.724055	-0.275923	-0.276087
H266	H	0.974055	-0.025923	-0.026087
H267	H	1.224055	0.224077	0.223913
H268	H	1.474055	0.474077	0.473913
H269	H	1.078104	-0.963197	-0.467489
H270	H	1.328104	-0.713197	-0.217489
H271	H	1.578104	-0.463197	0.032511
H272	H	1.828104	-0.213197	0.282511
F273	F	0.234282	-0.464190	-0.463724
F274	F	0.484282	-0.214190	-0.213724
F275	F	0.734282	0.035810	0.036276
F276	F	0.984282	0.285810	0.286276
F277	F	0.905958	-1.106363	-0.279687
F278	F	1.155958	-0.856363	-0.029687
F279	F	1.405958	-0.606363	0.220313
F280	F	1.655958	-0.356363	0.470313
H281	H	0.922429	-0.964036	-0.297692
H282	H	1.172429	-0.714036	-0.047692
H283	H	1.422429	-0.464036	0.202308
H284	H	1.672429	-0.214036	0.452308
F285	F	0.916980	-0.886459	-0.291777
F286	F	1.166980	-0.636459	-0.041777
F287	F	1.416980	-0.386459	0.208223
F288	F	1.666980	-0.136459	0.458223
H289	H	0.710771	-0.431930	-0.431548
H290	H	0.960771	-0.181930	-0.181548
H291	H	1.210771	0.068070	0.068452
H292	H	1.460771	0.318070	0.318452
H293	H	1.072726	-1.096300	-0.461604
H294	H	1.322726	-0.846300	-0.211604
H295	H	1.572726	-0.596300	0.038396
H296	H	1.822726	-0.346300	0.288396
F297	F	1.055767	-0.443061	-0.774728
F298	F	1.305767	-0.193061	-0.524728
F299	F	1.555767	0.056939	-0.274728
F300	F	1.805767	0.306939	-0.024728
H301	H	1.039714	-0.851745	-0.425630
H302	H	1.289714	-0.601745	-0.175630
H303	H	1.539714	-0.351745	0.074370
H304	H	1.789714	-0.101745	0.324370
F305	F	0.905930	-0.279598	-1.106851
F306	F	1.155930	-0.029598	-0.856851
F307	F	1.405930	0.220402	-0.606851
F308	F	1.655930	0.470402	-0.356851
F309	F	0.917011	-0.291755	-0.886961
F310	F	1.167011	-0.041755	-0.636961
F311	F	1.417011	0.208245	-0.386961
F312	F	1.667011	0.458245	-0.136961
H313	H	0.889692	-0.765780	-0.262013
H314	H	1.139692	-0.515780	-0.012013
H315	H	1.389692	-0.265780	0.237987
H316	H	1.639692	-0.015780	0.487987
H317	H	0.578169	-0.426499	-0.426146
H318	H	0.828169	-0.176499	-0.176146
H319	H	1.078169	0.073501	0.073854
H320	H	1.328169	0.323501	0.323854
H321	H	0.390223	-0.303240	-0.303324
H322	H	0.640223	-0.053240	-0.053324
H323	H	0.890223	0.196760	0.196676
H324	H	1.140223	0.446760	0.446676
F325	F	0.884769	-0.256740	-0.624020
F326	F	1.134769	-0.006740	-0.374020
F327	F	1.384769	0.243260	-0.124020
F328	F	1.634769	0.493260	0.125980
F329	F	1.089224	-0.479433	-0.954686
F330	F	1.339224	-0.229433	-0.704686
F331	F	1.589224	0.020567	-0.454686
F332	F	1.839224	0.270567	-0.204686
F333	F	0.385172	-0.470372	-0.469866
F334	F	0.635172	-0.220372	-0.219866
F335	F	0.885172	0.029628	0.030134
F336	F	1.135172	0.279628	0.280134
H337	H	0.591443	-0.270496	-0.270676
H338	H	0.841443	-0.020496	-0.020676
H339	H	1.091443	0.229504	0.229324
H340	H	1.341443	0.479504	0.479324
F341	F	1.083081	-0.472671	-1.106130
F342	F	1.333081	-0.222671	-0.856130
F343	F	1.583081	0.027329	-0.606130
F344	F	1.833081	0.277329	-0.356130
F345	F	0.468292	-0.297802	-0.297921
F346	F	0.718292	-0.047802	-0.047921
F347	F	0.968292	0.202198	0.202079
F348	F	1.218292	0.452198	0.452079
F349	F	1.055717	-0.774053	-0.443122
F350	F	1.305717	-0.524053	-0.193122
F351	F	1.555717	-0.274053	0.056878
F352	F	1.805717	-0.024053	0.306878
F353	F	1.061849	-0.622614	-0.449808
F354	F	1.311849	-0.372614	-0.199808
F355	F	1.561849	-0.122614	0.050192
F356	F	1.811849	0.127386	0.300192
F357	F	0.912079	-0.286359	-0.955418
F358	F	1.162079	-0.036359	-0.705418
F359	F	1.412079	0.213641	-0.455418
F360	F	1.662079	0.463641	-0.205418
H361	H	0.491881	-0.420806	-0.420471
H362	H	0.741881	-0.170806	-0.170471
H363	H	0.991881	0.079194	0.079529
H364	H	1.241881	0.329194	0.329529
F365	F	1.050842	-0.437655	-0.843182
F366	F	1.300842	-0.187655	-0.593182
F367	F	1.550842	0.062345	-0.343182
F368	F	1.800842	0.312345	-0.093182
H369	H	1.050824	-0.437708	-0.632512
H370	H	1.300824	-0.187708	-0.382512
H371	H	1.550824	0.062292	-0.132512
H372	H	1.800824	0.312292	0.117488
F373	F	0.884711	-0.623564	-0.256610
F374	F	1.134711	-0.373564	-0.006610
F375	F	1.384711	-0.123564	0.243390
F376	F	1.634711	0.126436	0.493390
F377	F	0.878588	-0.250011	-0.775459
F378	F	1.128588	-0.000011	-0.525459
F379	F	1.378588	0.249989	-0.275459
F380	F	1.628588	0.499989	-0.025459
