data_functionalizedCrystal
_audit_creation_method	'MofGen! by Chris Wilmer'
_symmetry_space_group_name_H-M	'P1'
_symmetry_Int_Tables_number	1
_symmetry_cell_setting	triclinic
loop_
_symmetry_equiv_pos_as_xyz
  x,y,z
_cell_length_a	19.188928
_cell_length_b	17.666332
_cell_length_c	19.188930
_cell_angle_alpha	90.010342
_cell_angle_beta	96.855705
_cell_angle_gamma	89.974047
loop_
_atom_site_label
_atom_site_type_symbol
_atom_site_fract_x
_atom_site_fract_y
_atom_site_fract_z
O1	O	-0.926151	0.063250	0.087160
O2	O	-0.426151	0.563250	0.587160
O3	O	-0.722839	0.063188	0.098896
O4	O	-0.222839	0.563188	0.598896
O5	O	-0.830362	0.063206	-0.008628
O6	O	-0.330362	0.563206	0.491372
O7	O	-0.818628	0.063232	0.194683
O8	O	-0.318628	0.563232	0.694683
O9	O	-0.830343	-0.062691	-0.008631
O10	O	-0.330343	0.437309	0.491369
O11	O	-0.722820	-0.062709	0.098893
O12	O	-0.222820	0.437291	0.598893
O13	O	-0.926132	-0.062647	0.087157
O14	O	-0.426132	0.437353	0.587157
Cu15	Cu	-0.824474	-0.074173	0.093024
Cu16	Cu	-0.324474	0.425827	0.593024
Cu17	Cu	-0.824497	0.074714	0.093028
Cu18	Cu	-0.324497	0.574714	0.593028
O19	O	-0.818609	-0.062665	0.194680
O20	O	-0.318609	0.437335	0.694680
C21	C	-0.696819	0.000232	0.098514
C22	C	-0.196819	0.500232	0.598514
C23	C	-0.619314	0.000207	0.097374
C24	C	-0.119314	0.500207	0.597374
N25	N	-0.824464	-0.178893	0.093021
N26	N	-0.324464	0.321107	0.593021
C27	C	-0.574390	0.000225	0.160465
C28	C	-0.074390	0.500225	0.660465
C29	C	-0.501566	0.000229	0.159394
C30	C	-0.001566	0.500229	0.659394
C31	C	-0.473670	0.000231	0.095229
C32	C	0.026330	0.500231	0.595229
C33	C	-0.518603	0.000209	0.032129
C34	C	-0.018603	0.500209	0.532129
C35	C	-0.591426	0.000197	0.033202
C36	C	-0.091426	0.500197	0.533202
N37	N	-0.365696	0.043098	0.046184
N38	N	0.134304	0.543098	0.546184
N39	N	-0.296517	0.043110	0.045169
N40	N	0.203483	0.543110	0.545169
C41	C	-0.254261	0.000265	0.091992
C42	C	0.245739	0.500265	0.591992
N43	N	-0.283795	-0.042584	0.139880
N44	N	0.216205	0.457416	0.639880
N45	N	-0.352980	-0.042593	0.140897
N46	N	0.147020	0.457407	0.640897
C47	C	-0.394707	0.000244	0.094058
C48	C	0.105293	0.500244	0.594058
C49	C	-0.130372	0.000287	0.153927
C50	C	0.369628	0.500287	0.653927
C51	C	-0.057547	0.000286	0.152853
C52	C	0.442453	0.500286	0.652853
C53	C	-0.074586	0.000274	0.025586
C54	C	0.425414	0.500274	0.525586
C55	C	-0.147409	0.000266	0.026661
C56	C	0.352591	0.500266	0.526661
C57	C	-0.175298	0.000276	0.090834
C58	C	0.324702	0.500276	0.590834
C59	C	0.047848	0.000298	0.087540
C60	C	0.547848	0.500298	0.587540
C61	C	-0.029656	0.000287	0.088686
C62	C	0.470344	0.500287	0.588686
C63	C	-0.866673	-0.218477	0.135266
C64	C	-0.366673	0.281523	0.635266
C65	C	-0.866684	-0.297724	0.135264
C66	C	-0.366684	0.202276	0.635264
C67	C	-0.824473	-0.337385	0.093025
C68	C	-0.324473	0.162615	0.593025
C69	C	-0.782261	-0.297791	0.050772
C70	C	-0.282261	0.202209	0.550772
C71	C	-0.782257	-0.218545	0.050770
C72	C	-0.282257	0.281455	0.550770
N73	N	-0.763325	-0.461844	0.091306
N74	N	-0.263325	0.038156	0.591306
N75	N	-0.763331	-0.537124	0.091312
N76	N	-0.263331	-0.037124	0.591312
C77	C	-0.824486	-0.576149	0.093028
C78	C	-0.324486	-0.076149	0.593028
N79	N	-0.885635	-0.537049	0.094751
N80	N	-0.385635	-0.037049	0.594751
N81	N	-0.885628	-0.461762	0.094749
N82	N	-0.385628	0.038238	0.594749
C83	C	-0.824474	-0.423314	0.093022
C84	C	-0.324474	0.076686	0.593022
C85	C	-0.866711	-0.701662	0.135273
C86	C	-0.366711	-0.201662	0.635273
C87	C	-0.866723	-0.780911	0.135266
C88	C	-0.366723	-0.280911	0.635266
C89	C	-0.782294	-0.780977	0.050777
C90	C	-0.282294	-0.280977	0.550777
C91	C	-0.782288	-0.701729	0.050780
C92	C	-0.282288	-0.201729	0.550780
C93	C	-0.824495	-0.662077	0.093032
C94	C	-0.324495	-0.162077	0.593032
C95	C	-0.829973	0.000255	-0.034641
C96	C	-0.329973	0.500255	0.465359
C97	C	-0.828832	0.000248	-0.112145
C98	C	-0.328832	0.500248	0.387855
N99	N	-0.824513	0.179434	0.093025
N100	N	-0.324513	0.679434	0.593025
C101	C	-0.891923	0.000264	-0.157070
C102	C	-0.391923	0.500264	0.342930
C103	C	-0.890851	0.000276	-0.229893
C104	C	-0.390851	0.500276	0.270107
C105	C	-0.826685	0.000257	-0.257789
C106	C	-0.326685	0.500257	0.242211
C107	C	-0.763586	0.000245	-0.212855
C108	C	-0.263586	0.500245	0.287145
C109	C	-0.764659	0.000241	-0.140033
C110	C	-0.264659	0.500241	0.359967
N111	N	-0.777631	-0.042603	-0.365795
N112	N	-0.277631	0.457397	0.134205
N113	N	-0.776616	-0.042601	-0.434974
N114	N	-0.276616	0.457399	0.065026
C115	C	-0.823447	0.000271	-0.477198
C116	C	-0.323447	0.500271	0.022802
N117	N	-0.871342	0.043131	-0.447632
N118	N	-0.371342	0.543131	0.052368
N119	N	-0.872360	0.043125	-0.378447
N120	N	-0.372360	0.543125	0.121553
C121	C	-0.825514	0.000262	-0.336752
C122	C	-0.325514	0.500262	0.163248
C123	C	-0.885380	0.000300	-0.601087
C124	C	-0.385380	0.500300	-0.101087
C125	C	-0.884306	0.000317	-0.673912
C126	C	-0.384306	0.500317	-0.173912
C127	C	-0.757039	0.000279	-0.656872
C128	C	-0.257039	0.500279	-0.156872
C129	C	-0.758115	0.000270	-0.584049
C130	C	-0.258115	0.500270	-0.084049
C131	C	-0.822287	0.000277	-0.556161
C132	C	-0.322287	0.500277	-0.056161
C133	C	-0.818998	0.000287	0.220693
C134	C	-0.318998	0.500287	0.720693
C135	C	-0.820139	0.000299	0.298197
C136	C	-0.320139	0.500299	0.798197
H137	H	-0.597092	0.000235	0.212720
H138	H	-0.097092	0.500235	0.712720
Cl139	Cl	-0.647905	0.000176	-0.046120
Cl140	Cl	-0.147905	0.500176	0.453880
H141	H	-0.020970	0.000296	0.204232
H142	H	0.479030	0.500296	0.704232
H143	H	-0.153080	0.000284	0.206180
H144	H	0.346920	0.500284	0.706180
H145	H	-0.713281	0.000228	-0.103455
H146	H	-0.213281	0.500228	0.396545
H147	H	-0.747914	-0.669499	0.016382
H148	H	-0.247914	-0.169499	0.516382
H149	H	-0.747894	-0.330088	0.016380
H150	H	-0.247894	0.169912	0.516380
H151	H	-0.495885	0.000221	-0.020115
H152	H	0.004115	0.500221	0.479885
Cl153	Cl	-0.729185	-0.168780	-0.002339
Cl154	Cl	-0.229185	0.331220	0.497661
H155	H	-0.901044	-0.186197	0.169668
H156	H	-0.401044	0.313803	0.669668
Cl157	Cl	-0.972597	0.000294	-0.122014
Cl158	Cl	-0.472597	0.500294	0.377986
H159	H	-0.901079	-0.669376	0.169676
H160	H	-0.401079	-0.169376	0.669676
Cl161	Cl	-0.919795	-0.830675	0.188375
Cl162	Cl	-0.419795	-0.330675	0.688375
Cl163	Cl	-0.970172	0.000296	-0.286380
Cl164	Cl	-0.470172	0.500296	0.213620
Cl165	Cl	-0.729237	-0.830828	-0.002332
Cl166	Cl	-0.229237	-0.330828	0.497668
Cl167	Cl	-0.682920	0.000228	-0.247923
Cl168	Cl	-0.182920	0.500228	0.252077
H169	H	-0.464982	0.000242	0.210773
H170	H	0.035018	0.500242	0.710773
Cl171	Cl	-0.966053	0.000305	-0.566024
Cl172	Cl	-0.466053	0.500305	-0.066024
Cl173	Cl	-0.039523	0.000267	-0.055081
Cl174	Cl	0.460477	0.500267	0.444919
Cl175	Cl	-0.963628	0.000341	-0.730390
Cl176	Cl	-0.463628	0.500341	-0.230390
Cl177	Cl	-0.919751	-0.347498	0.188376
Cl178	Cl	-0.419751	0.152502	0.688376
Cl179	Cl	-0.678796	0.000247	-0.527569
Cl180	Cl	-0.178796	0.500247	-0.027569
H181	H	-0.704793	0.000267	-0.679584
H182	H	-0.204793	0.500267	-0.179584
H183	H	-0.183988	0.000256	-0.024715
H184	H	0.316012	0.500256	0.475285
