data_functionalizedCrystal
_audit_creation_method	'MofGen! by Chris Wilmer'
_symmetry_space_group_name_H-M	'P1'
_symmetry_Int_Tables_number	1
_symmetry_cell_setting	triclinic
loop_
_symmetry_equiv_pos_as_xyz
  x,y,z
_cell_length_a	19.121321
_cell_length_b	29.839131
_cell_length_c	19.120904
_cell_angle_alpha	92.409150
_cell_angle_beta	94.963752
_cell_angle_gamma	87.606090
loop_
_atom_site_label
_atom_site_type_symbol
_atom_site_fract_x
_atom_site_fract_y
_atom_site_fract_z
Zn1	Zn	1.058552	-0.217304	-0.351905
Zn2	Zn	1.391885	0.116029	-0.018572
Zn3	Zn	1.725219	0.449363	0.314761
Zn4	Zn	1.063457	-0.289355	-0.234242
Zn5	Zn	1.396791	0.043979	0.099091
Zn6	Zn	1.730124	0.377312	0.432424
Zn7	Zn	0.945919	-0.211175	-0.239280
Zn8	Zn	1.279252	0.122159	0.094053
Zn9	Zn	1.612586	0.455492	0.427387
Zn10	Zn	0.940828	-0.289336	-0.356886
Zn11	Zn	1.274162	0.043997	-0.023553
Zn12	Zn	1.607495	0.377330	0.309781
O13	O	1.002189	-0.251792	-0.295578
O14	O	1.335523	0.081541	0.037755
O15	O	1.668856	0.414874	0.371088
O16	O	1.157661	-0.229434	-0.332104
O17	O	1.490994	0.103899	0.001229
O18	O	1.824327	0.437232	0.334563
O19	O	1.052049	-0.276426	-0.136450
O20	O	1.385382	0.056907	0.196883
O21	O	1.718716	0.390240	0.530217
O22	O	0.960938	-0.149123	-0.254244
O23	O	1.294271	0.184210	0.079090
O24	O	1.627604	0.517543	0.412423
O25	O	1.161265	-0.282370	-0.245658
O26	O	1.494598	0.050964	0.087675
O27	O	1.827931	0.384297	0.421009
O28	O	1.043689	-0.153626	-0.336989
O29	O	1.377022	0.179707	-0.003656
O30	O	1.710355	0.513040	0.329678
O31	O	0.965694	-0.218988	-0.140151
O32	O	1.299028	0.114345	0.193182
O33	O	1.632361	0.447679	0.526516
O34	O	0.846786	-0.218970	-0.259074
O35	O	1.180119	0.114363	0.074260
O36	O	1.513453	0.447696	0.407593
O37	O	0.952261	-0.282339	-0.454686
O38	O	1.285595	0.050995	-0.121353
O39	O	1.618928	0.384328	0.211980
O40	O	0.843046	-0.276395	-0.345478
O41	O	1.176379	0.056938	-0.012145
O42	O	1.509712	0.390271	0.321188
O43	O	1.038752	-0.229417	-0.451027
O44	O	1.372086	0.103917	-0.117693
O45	O	1.705419	0.437250	0.215640
O46	O	1.047113	-0.352217	-0.250488
O47	O	1.380446	-0.018883	0.082846
O48	O	1.713780	0.314450	0.416179
O49	O	0.957018	-0.352203	-0.340593
O50	O	1.290351	-0.018870	-0.007260
O51	O	1.623685	0.314463	0.326073
C52	C	0.819387	-0.247016	-0.303363
C53	C	1.152720	0.086317	0.029970
C54	C	1.486053	0.419651	0.363303
C55	C	0.741182	-0.244984	-0.306711
C56	C	1.074516	0.088349	0.026623
C57	C	1.407849	0.421683	0.359956
C58	C	1.002064	-0.368511	-0.295549
C59	C	1.335397	-0.035177	0.037784
C60	C	1.668730	0.298156	0.371118
C61	C	1.002073	-0.418446	-0.295557
C62	C	1.335407	-0.085112	0.037776
C63	C	1.668740	0.248221	0.371110
C64	C	0.298778	-0.232076	-0.327936
C65	C	0.632112	0.101257	0.005398
C66	C	0.965445	0.434590	0.338731
C67	C	0.372260	-0.233994	-0.324787
C68	C	0.705593	0.099339	0.008547
C69	C	1.038927	0.432673	0.341880
C70	C	0.410871	-0.262464	-0.278131
C71	C	0.744204	0.070869	0.055202
C72	C	1.077538	0.404202	0.388535
C73	C	0.375997	-0.289022	-0.234627
C74	C	0.709330	0.044311	0.098706
C75	C	1.042664	0.377645	0.432040
C76	C	0.302517	-0.287106	-0.237780
C77	C	0.635850	0.046227	0.095553
C78	C	0.969183	0.379560	0.428887
C79	C	0.632828	-0.269626	-0.266359
C80	C	0.966161	0.063707	0.066974
C81	C	1.299494	0.397040	0.400307
C82	C	0.706313	-0.271539	-0.263208
C83	C	1.039647	0.061795	0.070125
C84	C	1.372980	0.395128	0.403458
C85	C	0.702571	-0.216511	-0.353369
C86	C	1.035904	0.116822	-0.020036
C87	C	1.369238	0.450155	0.313298
C88	C	0.629090	-0.214596	-0.356515
C89	C	0.962423	0.118737	-0.023182
C90	C	1.295756	0.452070	0.310152
C91	C	0.594222	-0.241156	-0.313013
C92	C	0.927555	0.092178	0.020320
C93	C	1.260888	0.425511	0.353653
C94	C	0.485981	-0.264424	-0.274910
C95	C	0.819314	0.068909	0.058423
C96	C	1.152648	0.402243	0.391757
C97	C	0.519113	-0.239198	-0.316239
C98	C	0.852446	0.094135	0.017095
C99	C	1.185779	0.427469	0.350428
C100	C	1.049181	-0.728091	-0.248723
C101	C	1.382514	-0.394758	0.084611
C102	C	1.715847	-0.061424	0.417944
C103	C	1.049266	-0.915767	-0.248746
C104	C	1.382600	-0.582434	0.084587
C105	C	1.715933	-0.249100	0.417920
O106	O	1.089219	-0.940030	-0.208903
O107	O	1.422552	-0.606697	0.124430
O108	O	1.755886	-0.273363	0.457763
N109	N	1.002333	-0.939240	-0.295625
N110	N	1.335666	-0.605906	0.037708
N111	N	1.669000	-0.272573	0.371041
C112	C	0.955378	-0.915791	-0.342505
C113	C	1.288711	-0.582457	-0.009172
C114	C	1.622044	-0.249124	0.324162
O115	O	0.915465	-0.940062	-0.382384
O116	O	1.248798	-0.606729	-0.049051
O117	O	1.582131	-0.273395	0.284283
C118	C	0.955296	-0.728116	-0.342484
C119	C	1.288629	-0.394782	-0.009151
C120	C	1.621963	-0.061449	0.324183
C121	C	1.002228	-0.704645	-0.295597
C122	C	1.335561	-0.371312	0.037736
C123	C	1.668894	-0.037978	0.371069
C124	C	1.096109	-0.704620	-0.201840
C125	C	1.429443	-0.371287	0.131493
C126	C	1.762776	-0.037954	0.464827
C127	C	1.096085	-0.657704	-0.201832
C128	C	1.429418	-0.324371	0.131501
C129	C	1.762751	0.008963	0.464835
C130	C	1.049132	-0.634258	-0.248707
C131	C	1.382465	-0.300925	0.084627
C132	C	1.715798	0.032408	0.417960
C133	C	1.002203	-0.657729	-0.295589
C134	C	1.335537	-0.324395	0.037744
C135	C	1.668870	0.008938	0.371077
C136	C	0.908345	-0.704668	-0.389367
C137	C	1.241678	-0.371334	-0.056033
C138	C	1.575011	-0.038001	0.277300
C139	C	0.908330	-0.657746	-0.389358
C140	C	1.241663	-0.324413	-0.056025
C141	C	1.574996	0.008921	0.277308
C142	C	0.955261	-0.634275	-0.342472
C143	C	1.288595	-0.300942	-0.009138
C144	C	1.621928	0.032391	0.324195
C145	C	0.955226	-0.587367	-0.342456
C146	C	1.288559	-0.254033	-0.009122
C147	C	1.621892	0.079300	0.324211
N148	N	1.002159	-0.563894	-0.295577
N149	N	1.335493	-0.230561	0.037757
N150	N	1.668826	0.102773	0.371090
C151	C	1.049112	-0.587340	-0.248702
C152	C	1.382446	-0.254006	0.084631
C153	C	1.715779	0.079327	0.417965
C154	C	0.955423	-1.014323	-0.342512
C155	C	1.288756	-0.680989	-0.009178
C156	C	1.622090	-0.347656	0.324155
C157	C	0.955442	-1.061241	-0.342516
C158	C	1.288776	-0.727908	-0.009183
C159	C	1.622109	-0.394574	0.324151
C160	C	1.049332	-1.061214	-0.248758
C161	C	1.382666	-0.727881	0.084575
C162	C	1.715999	-0.394548	0.417909
C163	C	1.049309	-1.014295	-0.248751
C164	C	1.382642	-0.680961	0.084583
C165	C	1.715976	-0.347628	0.417916
C166	C	1.002357	-0.990850	-0.295632
C167	C	1.335690	-0.657517	0.037701
C168	C	1.669023	-0.324183	0.371034
C169	C	1.049057	-0.488812	-0.248688
C170	C	1.382390	-0.155479	0.084645
C171	C	1.715724	0.177855	0.417978
C172	C	1.049026	-0.441892	-0.248683
C173	C	1.382360	-0.108558	0.084651
C174	C	1.715693	0.224775	0.417984
C175	C	0.955139	-0.441923	-0.342443
C176	C	1.288473	-0.108589	-0.009109
C177	C	1.621806	0.224744	0.324224
C178	C	0.955167	-0.488839	-0.342446
C179	C	1.288500	-0.155506	-0.009113
C180	C	1.621834	0.177828	0.324220
C181	C	1.002132	-0.512283	-0.295567
C182	C	1.335465	-0.178949	0.037767
C183	C	1.668798	0.154384	0.371100
O184	O	0.915299	-0.563075	-0.382283
O185	O	1.248633	-0.229742	-0.048950
O186	O	1.581966	0.103592	0.284384
O187	O	1.089030	-0.563061	-0.208840
O188	O	1.422363	-0.229727	0.124494
O189	O	1.755697	0.103606	0.457827
C190	C	1.049205	-0.775007	-0.248731
C191	C	1.382539	-0.441674	0.084603
C192	C	1.715872	-0.108341	0.417936
C193	C	1.002277	-0.798478	-0.295613
C194	C	1.335610	-0.465144	0.037720
C195	C	1.668943	-0.131811	0.371053
C196	C	0.955324	-0.775032	-0.342488
C197	C	1.288657	-0.441699	-0.009154
C198	C	1.621990	-0.108365	0.324179
C199	C	1.002296	-0.845396	-0.295618
C200	C	1.335629	-0.512063	0.037716
C201	C	1.668963	-0.178730	0.371049
C202	C	1.049249	-0.868842	-0.248743
C203	C	1.382582	-0.535509	0.084590
C204	C	1.715916	-0.202175	0.417924
C205	C	1.096183	-0.845369	-0.201864
C206	C	1.429516	-0.512036	0.131469
C207	C	1.762849	-0.178703	0.464803
C208	C	1.096158	-0.798453	-0.201856
C209	C	1.429491	-0.465120	0.131477
C210	C	1.762825	-0.131786	0.464811
C211	C	0.908390	-0.798505	-0.389367
C212	C	1.241724	-0.465171	-0.056034
C213	C	1.575057	-0.131838	0.277300
C214	C	0.908418	-0.845421	-0.389371
C215	C	1.241751	-0.512088	-0.056037
C216	C	1.575085	-0.178754	0.277296
C217	C	0.955371	-0.868867	-0.342496
C218	C	1.288704	-0.535533	-0.009163
C219	C	1.622038	-0.202200	0.324171
C220	C	1.185706	-0.256588	-0.287763
C221	C	1.519039	0.076746	0.045570
C222	C	1.852372	0.410079	0.378903
C223	C	1.263909	-0.258631	-0.284433
C224	C	1.597243	0.074702	0.048900
C225	C	1.930576	0.408036	0.382233
C226	C	0.994392	-0.256559	-0.479100
C227	C	1.327725	0.076774	-0.145767
C228	C	1.661058	0.410107	0.187567
C229	C	0.991069	-0.258591	-0.557306
C230	C	1.324402	0.074743	-0.223973
C231	C	1.657736	0.408076	0.109361
C232	C	1.002334	-0.134619	-0.295623
C233	C	1.335667	0.198714	0.037711
C234	C	1.669000	0.532047	0.371044
C235	C	1.002395	-0.084687	-0.295641
C236	C	1.335729	0.248646	0.037692
C237	C	1.669062	0.581980	0.371025
C238	C	1.034537	-0.231993	-0.592143
C239	C	1.367870	0.101341	-0.258810
C240	C	1.701204	0.434674	0.074523
C241	C	1.031406	-0.233899	-0.665627
C242	C	1.364739	0.099434	-0.332293
C243	C	1.698073	0.432767	0.001040
C244	C	0.984811	-0.262407	-0.704271
C245	C	1.318144	0.070927	-0.370938
C246	C	1.651477	0.404260	-0.037604
C247	C	0.941338	-0.289006	-0.669429
C248	C	1.274671	0.044328	-0.336095
C249	C	1.608005	0.377661	-0.002762
C250	C	0.944466	-0.287096	-0.595947
C251	C	1.277799	0.046237	-0.262614
C252	C	1.611132	0.379570	0.070720
C253	C	0.973111	-0.269548	-0.926234
C254	C	1.306444	0.063785	-0.592900
C255	C	1.639778	0.397119	-0.259567
C256	C	0.969988	-0.271456	-0.999720
C257	C	1.303322	0.061877	-0.666387
C258	C	1.636655	0.395210	-0.333054
C259	C	1.060056	-0.216349	-0.995913
C260	C	1.393389	0.116984	-0.662580
C261	C	1.726722	0.450318	-0.329246
C262	C	1.063182	-0.214444	-0.922430
C263	C	1.396516	0.118889	-0.589097
C264	C	1.729849	0.452222	-0.255763
C265	C	1.019707	-0.241042	-0.887594
C266	C	1.353040	0.092292	-0.554261
C267	C	1.686374	0.425625	-0.220928
C268	C	0.981611	-0.264357	-0.779383
C269	C	1.314944	0.068976	-0.446049
C270	C	1.648278	0.402309	-0.112716
C271	C	1.022904	-0.239088	-0.812484
C272	C	1.356237	0.094245	-0.479151
C273	C	1.689570	0.427578	-0.145818
C274	C	1.009997	-0.247013	-0.112769
C275	C	1.343330	0.086321	0.220564
C276	C	1.676664	0.419654	0.553898
C277	C	1.013456	-0.244858	-0.034558
C278	C	1.346789	0.088475	0.298776
C279	C	1.680123	0.421808	0.632109
H280	H	0.267346	-0.208890	-0.365923
H281	H	0.600680	0.124443	-0.032590
H282	H	0.934013	0.457777	0.300744
H283	H	0.932042	-0.294672	-1.031183
H284	H	1.265376	0.038662	-0.697850
H285	H	1.598709	0.371995	-0.364516
H286	H	0.730968	-0.194889	-0.388786
H287	H	1.064302	0.138445	-0.055453
H288	H	1.397635	0.471778	0.277881
Br289	Br	0.538388	-0.303061	-0.211593
Br290	Br	0.871721	0.030273	0.121740
Br291	Br	1.205055	0.363606	0.455074
Br292	Br	1.097782	-0.193306	-0.539704
Br293	Br	1.431116	0.140028	-0.206371
Br294	Br	1.764449	0.473361	0.126963
Br295	Br	0.419579	-0.197958	-0.383834
Br296	Br	0.752913	0.135376	-0.050501
Br297	Br	1.086246	0.468709	0.282833
H298	H	0.916909	-0.422826	-0.380606
H299	H	1.250242	-0.089492	-0.047272
H300	H	1.583575	0.243841	0.286061
H301	H	0.870096	-0.638660	-0.427538
H302	H	1.203429	-0.305326	-0.094204
H303	H	1.536763	0.028007	0.239129
H304	H	0.870156	-0.779419	-0.427539
H305	H	1.203490	-0.446085	-0.094205
H306	H	1.536823	-0.112752	0.239128
H307	H	1.066804	-0.212241	-0.693988
H308	H	1.400137	0.121092	-0.360654
H309	H	1.733471	0.454425	-0.027321
Br310	Br	1.126424	-0.175756	-0.869989
Br311	Br	1.459757	0.157578	-0.536655
Br312	Br	1.793090	0.490911	-0.203322
H313	H	0.917187	-0.995237	-0.380689
H314	H	1.250520	-0.661904	-0.047356
H315	H	1.583854	-0.328570	0.285977
Br316	Br	1.086129	-0.200395	-0.760038
Br317	Br	1.419462	0.132939	-0.426704
Br318	Br	1.752796	0.466272	-0.093371
H319	H	1.134302	-0.638597	-0.163655
H320	H	1.467636	-0.305264	0.169679
H321	H	1.800969	0.028069	0.503012
H322	H	0.943676	-0.287570	-0.810855
H323	H	1.277009	0.045763	-0.477522
H324	H	1.610343	0.379096	-0.144188
H325	H	1.087563	-1.080312	-0.210591
H326	H	1.420897	-0.746979	0.122742
H327	H	1.754230	-0.413645	0.456076
H328	H	0.903396	-0.312215	-0.700899
H329	H	1.236730	0.021118	-0.367566
H330	H	1.570063	0.354451	-0.034232
Br331	Br	0.844717	-0.877268	-0.453007
Br332	Br	1.178050	-0.543934	-0.119674
Br333	Br	1.511383	-0.210601	0.213659
Br334	Br	1.119053	-0.180254	-1.043194
Br335	Br	1.452387	0.153079	-0.709860
Br336	Br	1.785720	0.486413	-0.376527
H337	H	1.087301	-0.507895	-0.210516
H338	H	1.420635	-0.174561	0.122817
H339	H	1.753968	0.158772	0.456151
Br340	Br	0.914107	-0.305644	-0.878966
Br341	Br	1.247441	0.027690	-0.545633
Br342	Br	1.580774	0.361023	-0.212299
H343	H	0.917220	-1.080346	-0.380690
H344	H	1.250553	-0.747013	-0.047356
H345	H	1.583886	-0.413680	0.285977
H346	H	0.737749	-0.294724	-0.225215
H347	H	1.071082	0.038609	0.108119
H348	H	1.404415	0.371942	0.441452
H349	H	0.597657	-0.191415	-0.394509
H350	H	0.930990	0.141919	-0.061176
H351	H	1.264324	0.475252	0.272158
Br352	Br	0.428397	-0.327664	-0.171313
Br353	Br	0.761730	0.005669	0.162020
Br354	Br	1.095064	0.339003	0.495353
H355	H	1.134375	-0.779347	-0.163677
H356	H	1.467708	-0.446013	0.169657
H357	H	1.801041	-0.112680	0.502990
Br358	Br	1.112722	-0.410041	-0.185045
Br359	Br	1.446056	-0.076708	0.148289
Br360	Br	1.779389	0.256625	0.481622
Br361	Br	0.255193	-0.323152	-0.178747
Br362	Br	0.588526	0.010181	0.154586
Br363	Br	0.921860	0.343515	0.487919
Br364	Br	1.159841	-0.736431	-0.138217
Br365	Br	1.493175	-0.403098	0.195116
Br366	Br	1.826508	-0.069764	0.528449
Br367	Br	0.885467	-0.323192	-0.548667
Br368	Br	1.218800	0.010141	-0.215334
Br369	Br	1.552133	0.343474	0.118000
H370	H	0.604447	-0.291252	-0.230935
H371	H	0.937781	0.042082	0.102398
H372	H	1.271114	0.375415	0.435731
H373	H	0.487672	-0.216019	-0.354228
H374	H	0.821006	0.117314	-0.020894
H375	H	1.154339	0.450647	0.312439
H376	H	1.087525	-0.995188	-0.210572
H377	H	1.420858	-0.661854	0.122762
H378	H	1.754192	-0.328521	0.456095
Br379	Br	0.844655	-0.736509	-0.453010
Br380	Br	1.177988	-0.403176	-0.119677
Br381	Br	1.511321	-0.069842	0.213656
Br382	Br	1.159901	-0.877198	-0.138246
Br383	Br	1.493235	-0.543865	0.195087
Br384	Br	1.826568	-0.210531	0.528420
H385	H	0.916954	-0.507950	-0.380628
H386	H	1.250287	-0.174616	-0.047294
H387	H	1.583620	0.158717	0.286039
