data_functionalizedCrystal
_audit_creation_method	'MofGen! by Chris Wilmer'
_symmetry_space_group_name_H-M	'P1'
_symmetry_Int_Tables_number	1
_symmetry_cell_setting	triclinic
loop_
_symmetry_equiv_pos_as_xyz
  x,y,z
_cell_length_a	18.760492
_cell_length_b	14.560432
_cell_length_c	14.560432
_cell_angle_alpha	89.998644
_cell_angle_beta	60.000060
_cell_angle_gamma	120.001687
loop_
_atom_site_label
_atom_site_type_symbol
_atom_site_fract_x
_atom_site_fract_y
_atom_site_fract_z
Zr1	Zr	0.780273	0.120566	0.884710
O2	O	0.928986	0.267222	0.738054
O3	O	0.631560	0.075603	0.929673
O4	O	0.780277	0.267215	0.929661
O5	O	0.780266	-0.075532	0.738069
O6	O	0.780280	0.267215	1.080799
O7	O	0.780269	0.075609	0.738066
O8	O	0.514253	-0.075544	1.080820
O9	O	1.046293	0.267227	0.738048
O10	O	0.692730	0.056433	1.061635
O11	O	0.692726	-0.056363	0.948846
O12	O	0.867820	0.169236	0.948832
O13	O	0.867816	0.056441	0.836043
Zr14	Zr	0.780273	-0.120487	1.125763
Zr15	Zr	0.780278	0.120566	1.125757
Zr16	Zr	0.780268	-0.120488	0.884716
Zr17	Zr	0.967364	0.120575	0.884701
Zr18	Zr	0.593182	-0.120496	1.125772
O19	O	0.928986	-0.075524	1.080801
O20	O	0.928992	0.267222	1.080792
O21	O	0.928979	-0.075525	0.738063
O22	O	0.631560	-0.267143	1.272419
O23	O	0.631567	0.075603	1.272411
O24	O	0.631554	-0.267144	0.929682
O25	O	0.780280	0.075611	1.272404
O26	O	0.780269	-0.267137	1.080812
O27	O	0.780266	-0.267137	0.929675
O28	O	0.780277	-0.075531	1.272408
O29	O	1.046296	0.267228	0.929649
O30	O	0.514250	-0.267149	1.080825
O31	O	0.514253	-0.267149	1.272425
O32	O	0.514257	-0.075544	1.272420
O33	O	1.046289	0.075622	0.738053
O34	O	1.046293	0.075623	0.929654
O35	O	0.692726	-0.169158	1.061641
O36	O	0.692730	-0.056362	1.174431
O37	O	0.867820	0.056441	1.061627
O38	O	0.867816	-0.056354	0.948838
C39	C	0.546250	0.000028	1.005247
C40	C	0.466825	0.000024	1.005251
C41	C	0.780279	0.301560	1.005229
C42	C	0.780281	0.403894	1.005226
C43	C	0.780267	-0.301482	1.005244
C44	C	0.780265	-0.403815	1.005247
C45	C	0.131028	-0.058829	0.946347
C46	C	0.131038	0.058932	1.064101
C47	C	0.205653	0.058925	1.064110
C48	C	0.242961	0.000042	1.005235
C49	C	0.205653	-0.058835	0.946351
C50	C	0.242974	0.117810	1.122983
C51	C	0.317595	0.117807	1.122993
C52	C	0.354899	0.058916	1.064123
C53	C	0.317585	0.000036	1.005239
C54	C	0.354893	-0.058847	0.946364
C55	C	0.317576	-0.117734	0.887485
C56	C	0.242957	-0.117725	0.887482
C57	C	0.429518	0.058907	1.064126
C58	C	0.429517	-0.058852	0.946368
C59	C	1.014296	0.000050	1.005226
C60	C	1.093721	0.000054	1.005222
C61	C	0.780267	0.000039	0.703723
C62	C	0.780265	0.000038	0.601393
C63	C	0.963077	0.521679	0.887447
C64	C	1.054471	0.628644	0.828557
C65	C	1.054467	0.724791	0.828560
C66	C	0.963058	0.713969	0.887463
C67	C	0.871664	0.607003	0.946353
C68	C	0.871678	0.510860	0.946341
C69	C	0.688870	0.489219	1.064137
C70	C	0.688872	0.393071	1.064129
C71	C	0.597461	0.478397	1.123040
C72	C	0.506065	0.371430	1.181926
C73	C	0.506073	0.275280	1.181919
C74	C	0.597478	0.286106	1.123020
C75	C	0.597469	-0.117718	0.719143
C76	C	0.506075	-0.176591	0.729942
C77	C	0.506079	-0.176588	0.633789
C78	C	0.597488	-0.117709	0.526830
C79	C	0.688882	-0.058836	0.516031
C80	C	0.688868	-0.058843	0.612192
C81	C	0.871676	0.058913	0.398282
C82	C	0.871674	0.058918	0.494433
C83	C	0.963085	0.117793	0.291323
C84	C	1.054481	0.176673	0.280523
C85	C	1.054473	0.176669	0.376684
C86	C	0.963068	0.117791	0.483635
C87	C	0.780279	0.000040	1.306750
C88	C	0.780281	0.000040	1.409081
C89	C	0.546256	0.000029	1.306761
C90	C	0.466833	0.000025	1.409095
C91	C	0.546244	-0.301493	1.005255
C92	C	0.466817	-0.403830	1.005261
C93	C	0.546250	-0.301492	1.306768
C94	C	0.466825	-0.403829	1.409105
C95	C	1.014296	0.301571	0.703705
C96	C	1.093721	0.403908	0.601368
C97	C	1.014289	0.000050	0.703713
C98	C	1.093713	0.000053	0.601378
C99	C	1.014302	0.301571	1.005218
C100	C	1.093729	0.403909	1.005212
C101	C	0.429535	0.058911	1.398274
C102	C	0.354919	0.058930	1.494419
C103	C	0.317598	0.000056	1.601384
C104	C	0.354903	-0.058832	1.612202
C105	C	0.429523	-0.058844	1.516058
C106	C	0.429517	-0.510777	1.064142
C107	C	0.354898	-0.606943	1.064144
C108	C	0.317574	-0.596160	1.005271
C109	C	0.354881	-0.489202	0.946382
C110	C	0.429505	-0.393038	0.946375
C111	C	0.429529	-0.393010	1.516049
C112	C	0.354911	-0.489157	1.612215
C113	C	0.317586	-0.596123	1.601434
C114	C	0.354890	-0.606940	1.494480
C115	C	0.429511	-0.510794	1.398316
C116	C	1.131026	0.393088	0.494424
C117	C	1.205667	0.489236	0.398259
C118	C	1.242996	0.596201	0.409039
C119	C	1.205688	0.607019	0.515994
C120	C	1.131053	0.510872	0.612157
C121	C	1.131018	-0.058823	0.612199
C122	C	1.205655	-0.058815	0.516054
C123	C	1.242979	0.000062	0.409090
C124	C	1.205671	0.058946	0.398271
C125	C	1.131040	0.058944	0.494415
C126	C	1.131029	0.393089	1.064097
C127	C	1.205649	0.489237	1.064113
C128	C	1.242973	0.596203	1.005237
C129	C	1.205666	0.607020	0.946350
C130	C	1.131042	0.510873	0.946341
H131	H	0.459886	-0.106805	0.898426
F132	F	1.091339	0.121605	0.482881
F133	F	0.315147	-0.477743	0.883730
F134	F	1.091319	0.279257	1.126766
H135	H	1.128899	0.224603	0.193434
H136	H	1.236072	0.106882	0.311168
F137	F	1.245345	0.477701	1.126785
F138	F	0.597459	0.580727	1.123047
H139	H	1.100680	0.519695	0.699233
H140	H	0.963063	0.792262	0.887471
H141	H	0.324488	-0.694045	1.485719
F142	F	0.408795	-0.239270	0.843778
F143	F	0.357296	-0.180392	0.824820
F144	F	0.238179	0.000078	1.703700
H145	H	1.100637	0.306000	0.485625
H146	H	0.100665	0.106879	1.112029
F147	F	1.322430	0.698520	0.306682
F148	F	1.322398	0.698521	1.005254
H149	H	1.236067	0.694124	0.898415
F150	F	0.469190	-0.279220	0.883708
F151	F	1.151739	0.838635	0.765890
F152	F	0.315169	-0.121489	1.726051
F153	F	0.408792	0.359924	1.244612
H154	H	1.128898	0.224596	0.367879
F155	F	1.091359	0.522405	0.883655
F156	F	0.408807	-0.239252	0.645282
F157	F	0.091304	-0.121510	0.883699
F158	F	0.315203	-0.720764	1.126827
F159	F	0.357303	0.180478	1.185657
H160	H	0.459903	0.106859	1.112058
H161	H	0.212566	-0.165668	0.839546
F162	F	0.408796	0.161441	1.244609
F163	F	1.245425	0.720869	0.527449
F164	F	0.963089	0.419355	0.887422
H165	H	0.459881	-0.106803	1.524884
H166	H	0.459868	-0.519619	1.311242
F167	F	0.597494	0.183785	1.123001
F168	F	0.238151	-0.698517	1.005289
F169	F	0.203273	0.180482	1.185628
H170	H	0.459908	-0.305922	1.524848
H171	H	0.459898	-0.519578	1.112084
F172	F	1.151750	0.640153	0.765875
F173	F	1.245345	-0.121494	0.527591
F174	F	0.597457	-0.117713	0.821482
F175	F	1.091311	-0.121490	0.726029
H176	H	1.303748	0.000054	0.330812
H177	H	0.597483	-0.117723	0.448543
F178	F	0.315220	-0.477621	1.726033
F179	F	0.238165	-0.698442	1.703791
H180	H	0.963053	0.117785	0.561935
H181	H	0.963082	0.117785	0.213035
H182	H	0.324555	0.106884	1.485589
F183	F	0.469245	0.121581	1.284444
F184	F	1.245358	0.477699	0.284440
