data_functionalizedCrystal
_audit_creation_method	'MofGen! by Chris Wilmer'
_symmetry_space_group_name_H-M	'P1'
_symmetry_Int_Tables_number	1
_symmetry_cell_setting	triclinic
loop_
_symmetry_equiv_pos_as_xyz
  x,y,z
_cell_length_a	17.077404
_cell_length_b	18.215405
_cell_length_c	17.077396
_cell_angle_alpha	90.030460
_cell_angle_beta	90.019777
_cell_angle_gamma	90.019206
loop_
_atom_site_label
_atom_site_type_symbol
_atom_site_fract_x
_atom_site_fract_y
_atom_site_fract_z
Zn1	Zn	1.200050	-0.293075	0.443838
Zn2	Zn	1.700050	0.206925	0.943838
Zn3	Zn	1.199954	-0.416148	0.312567
Zn4	Zn	1.699954	0.083852	0.812567
Zn5	Zn	1.068781	-0.293090	0.312585
Zn6	Zn	1.568781	0.206910	0.812585
Zn7	Zn	1.068747	-0.416094	0.443790
Zn8	Zn	1.568747	0.083906	0.943790
O9	O	1.134383	-0.354602	0.378195
O10	O	1.634383	0.145398	0.878195
O11	O	1.309884	-0.309417	0.426437
O12	O	1.809884	0.190583	0.926437
O13	O	1.182529	-0.399854	0.202722
O14	O	1.682529	0.100146	0.702722
O15	O	1.086248	-0.190104	0.330023
O16	O	1.586248	0.309896	0.830023
O17	O	1.309814	-0.399839	0.329993
O18	O	1.809814	0.100161	0.829993
O19	O	1.182691	-0.190093	0.426454
O20	O	1.682691	0.309907	0.926454
O21	O	1.086156	-0.309443	0.202736
O22	O	1.586156	0.190557	0.702736
O23	O	0.958930	-0.309391	0.329977
O24	O	1.458930	0.190609	0.829977
O25	O	1.086190	-0.399746	0.553643
O26	O	1.586190	0.100254	1.053643
O27	O	0.958905	-0.399761	0.426373
O28	O	1.458905	0.100239	0.926373
O29	O	1.182657	-0.309365	0.553678
O30	O	1.682657	0.190635	1.053678
O31	O	1.182495	-0.519125	0.329947
O32	O	1.682495	-0.019125	0.829947
O33	O	1.086098	-0.519086	0.426356
O34	O	1.586098	-0.019086	0.926356
C35	C	0.930435	-0.354572	0.378172
C36	C	1.430435	0.145428	0.878172
C37	C	0.843185	-0.354578	0.378181
C38	C	1.343185	0.145422	0.878181
C39	C	0.467379	-0.401763	0.428332
C40	C	0.967379	0.098237	0.928332
C41	C	0.549359	-0.401754	0.428320
C42	C	1.049359	0.098246	0.928320
C43	C	0.590337	-0.354621	0.378207
C44	C	1.090337	0.145379	0.878207
C45	C	0.549329	-0.307501	0.328098
C46	C	1.049329	0.192499	0.828098
C47	C	0.467350	-0.307515	0.328107
C48	C	0.967350	0.192485	0.828107
C49	C	0.720199	-0.307474	0.328085
C50	C	1.220199	0.192526	0.828085
C51	C	0.802184	-0.307459	0.328077
C52	C	1.302184	0.192541	0.828077
C53	C	0.802208	-0.401713	0.428298
C54	C	1.302208	0.098287	0.928298
C55	C	0.720229	-0.401727	0.428307
C56	C	1.220229	0.098273	0.928307
C57	C	0.679228	-0.354605	0.378198
C58	C	1.179228	0.145395	0.878198
C59	C	1.134304	-0.545808	0.378161
C60	C	1.634304	-0.045808	0.878161
C61	C	1.134342	-0.627607	0.378173
C62	C	1.634342	-0.127607	0.878173
C63	C	1.184683	-0.892661	0.328079
C64	C	1.684683	-0.392661	0.828079
C65	C	1.184651	-0.815802	0.328061
C66	C	1.684651	-0.315802	0.828061
C67	C	1.084180	-0.815802	0.428364
C68	C	1.584180	-0.315802	0.928364
C69	C	1.084209	-0.892659	0.428378
C70	C	1.584209	-0.392659	0.928378
C71	C	1.134465	-0.931087	0.378236
C72	C	1.634465	-0.431087	0.878236
C73	C	1.134404	-0.777371	0.378205
C74	C	1.634404	-0.277371	0.878205
C75	C	1.134368	-0.694037	0.378186
C76	C	1.634368	-0.194037	0.878186
C77	C	1.134500	-1.014426	0.378254
C78	C	1.634500	-0.514426	0.878254
C79	C	1.339127	-0.354632	0.378218
C80	C	1.839127	0.145368	0.878218
C81	C	1.426377	-0.354645	0.378228
C82	C	1.926377	0.145355	0.878228
C83	C	1.134431	-0.354548	0.582939
C84	C	1.634431	0.145452	1.082939
C85	C	1.134451	-0.354525	0.670189
C86	C	1.634451	0.145475	1.170189
C87	C	1.134484	-0.162649	0.378246
C88	C	1.634484	0.337351	0.878246
C89	C	1.134527	-0.080850	0.378268
C90	C	1.634527	0.419150	0.878268
C91	C	1.134381	-0.354603	0.174247
C92	C	1.634381	0.145397	0.674247
C93	C	1.134513	-0.354419	0.086998
C94	C	1.634513	0.145581	0.586998
C95	C	1.184683	-0.307459	0.711199
C96	C	1.684683	0.192541	1.211199
C97	C	1.184693	-0.307434	0.793179
C98	C	1.684693	0.192566	1.293179
C99	C	1.134473	-0.354480	0.834149
C100	C	1.634473	0.145520	1.334149
C101	C	1.084235	-0.401548	0.793133
C102	C	1.584235	0.098452	1.293133
C103	C	1.084222	-0.401568	0.711154
C104	C	1.584222	0.098432	1.211154
C105	C	1.084267	-0.401503	0.964003
C106	C	1.584267	0.098497	1.464003
C107	C	1.084281	-0.401484	1.045988
C108	C	1.584281	0.098516	1.545988
C109	C	1.184737	-0.307370	1.046028
C110	C	1.684737	0.192630	1.546028
C111	C	1.184724	-0.307390	0.964049
C112	C	1.684724	0.192610	1.464049
C113	C	1.134487	-0.354459	0.923040
C114	C	1.634487	0.145541	1.423040
H115	H	0.835546	-0.269073	0.287279
H116	H	1.335546	0.230927	0.787279
C117	C	0.675879	-0.452980	0.482742
C118	C	1.175879	0.047020	0.982742
C119	C	0.729330	-0.494260	0.526607
C120	C	1.229330	0.005740	1.026607
C121	C	0.688503	-0.541492	0.576750
C122	C	1.188503	-0.041492	1.076750
H123	H	0.643913	-0.424959	0.517071
H124	H	1.143913	0.075041	1.017071
H125	H	0.643898	-0.485051	0.452667
H126	H	1.143898	0.014949	0.952667
H127	H	0.761297	-0.462193	0.556680
H128	H	1.261297	0.037807	1.056680
H129	H	0.761297	-0.522296	0.492298
H130	H	1.261297	-0.022296	0.992298
H131	H	0.656523	-0.573563	0.546675
H132	H	1.156523	-0.073563	1.046675
H133	H	0.656539	-0.513465	0.611074
H134	H	1.156539	-0.013465	1.111074
H135	H	0.724763	-0.569511	0.606513
H136	H	1.224763	-0.069511	1.106513
H137	H	0.433968	-0.269145	0.287309
H138	H	0.933968	0.230855	0.787309
H139	H	1.225604	-0.923946	0.287250
H140	H	1.725604	-0.423946	0.787250
C141	C	1.239262	-0.774215	0.273576
C142	C	1.739262	-0.274215	0.773576
C143	C	1.283290	-0.824322	0.229684
C144	C	1.783290	-0.324322	0.729684
C145	C	1.333615	-0.786040	0.179489
C146	C	1.833615	-0.286040	0.679489
H147	H	1.209334	-0.744274	0.239266
H148	H	1.709334	-0.244274	0.739266
H149	H	1.273474	-0.744206	0.303615
H150	H	1.773474	-0.244206	0.803615
H151	H	1.249082	-0.854319	0.199647
H152	H	1.749082	-0.354319	0.699647
H153	H	1.313234	-0.854265	0.263973
H154	H	1.813234	-0.354265	0.763973
H155	H	1.367827	-0.756030	0.209528
H156	H	1.867827	-0.256030	0.709528
H157	H	1.303681	-0.756100	0.145184
H158	H	1.803681	-0.256100	0.645184
H159	H	1.363499	-0.820031	0.149707
H160	H	1.863499	-0.320031	0.649707
C161	C	1.029546	-0.774211	0.482844
C162	C	1.529546	-0.274211	0.982844
C163	C	0.985561	-0.824316	0.526760
C164	C	1.485561	-0.324316	1.026760
C165	C	0.935220	-0.786032	0.576953
C166	C	1.435220	-0.286032	1.076953
H167	H	1.059460	-0.744189	0.517138
H168	H	1.559460	-0.244189	1.017138
H169	H	0.995307	-0.744282	0.452801
H170	H	1.495307	-0.244282	0.952801
H171	H	1.019795	-0.854233	0.556800
H172	H	1.519795	-0.354233	1.056800
H173	H	0.955631	-0.854340	0.492487
H174	H	1.455631	-0.354340	0.992487
H175	H	0.900981	-0.756103	0.546911
H176	H	1.400981	-0.256103	1.046911
H177	H	0.965140	-0.756011	0.611242
H178	H	1.465140	-0.256011	1.111242
H179	H	0.905365	-0.820022	0.606751
H180	H	1.405365	-0.320022	1.106751
C181	C	1.029812	-0.934477	0.482885
C182	C	1.529812	-0.434477	0.982885
C183	C	1.074243	-0.978555	0.533234
C184	C	1.574243	-0.478555	1.033234
C185	C	1.024159	-1.017095	0.583446
C186	C	1.524159	-0.517095	1.083446
H187	H	0.999863	-0.900669	0.512825
H188	H	1.499863	-0.400669	1.012825
H189	H	0.995653	-0.964543	0.452849
H190	H	1.495653	-0.464543	0.952849
H191	H	1.108387	-0.948492	0.563268
H192	H	1.608387	-0.448492	1.063268
H193	H	1.104189	-1.012377	0.503317
H194	H	1.604189	-0.512377	1.003317
H195	H	0.990001	-1.047161	0.553409
H196	H	1.490001	-0.547161	1.053409
H197	H	0.994214	-0.983282	0.613380
H198	H	1.494214	-0.483282	1.113380
H199	H	1.054298	-1.047011	0.617609
H200	H	1.554298	-0.547011	1.117609
H201	H	1.225580	-0.269151	0.677847
H202	H	1.725580	0.230849	1.177847
C203	C	0.846861	-0.452846	0.482618
C204	C	1.346861	0.047154	0.982618
C205	C	0.927425	-0.442763	0.471872
C206	C	1.427425	0.057237	0.971872
C207	C	0.968587	-0.489855	0.521893
C208	C	1.468587	0.010145	1.021893
H209	H	0.833546	-0.442183	0.535413
H210	H	1.333546	0.057817	1.035413
H211	H	0.833457	-0.502298	0.471033
H212	H	1.333457	-0.002298	0.971033
H213	H	0.940824	-0.393323	0.483463
H214	H	1.440824	0.106677	0.983463
H215	H	0.940764	-0.453432	0.419088
H216	H	1.440764	0.046568	0.919088
H217	H	0.955183	-0.539307	0.510307
H218	H	1.455183	-0.039307	1.010307
H219	H	0.955266	-0.479188	0.574684
H220	H	1.455266	0.020812	1.074684
H221	H	1.023254	-0.483025	0.514603
H222	H	1.523254	0.016975	1.014603
C223	C	1.029666	-0.452760	0.666768
C224	C	1.529666	0.047240	1.166768
C225	C	0.985707	-0.493975	0.720191
C226	C	1.485707	0.006025	1.220191
C227	C	0.935450	-0.541151	0.679332
C228	C	1.435450	-0.041151	1.179332
H229	H	0.995401	-0.424701	0.634782
H230	H	1.495401	0.075299	1.134782
H231	H	1.059663	-0.484874	0.634806
H232	H	1.559663	0.015126	1.134806
H233	H	0.955712	-0.461865	0.752140
H234	H	1.455712	0.038135	1.252140
H235	H	1.019952	-0.522049	0.752179
H236	H	1.519952	-0.022049	1.252179
H237	H	0.965447	-0.573265	0.647370
H238	H	1.465447	-0.073265	1.147370
H239	H	0.901190	-0.513086	0.647348
H240	H	1.401190	-0.013086	1.147348
H241	H	0.905623	-0.569126	0.715574
H242	H	1.405623	-0.069126	1.215574
H243	H	0.434020	-0.440140	0.469144
H244	H	0.934020	0.059860	0.969144
H245	H	1.225599	-0.269111	0.826566
H246	H	1.725599	0.230889	1.326566
H247	H	0.582739	-0.440124	0.469118
H248	H	1.082739	0.059876	0.969118
C249	C	0.593675	-0.256305	0.273598
C250	C	1.093675	0.243695	0.773598
C251	C	0.540218	-0.215060	0.229703
C252	C	1.040218	0.284940	0.729703
C253	C	0.581038	-0.167897	0.179480
C254	C	1.081038	0.332103	0.679480
H255	H	0.625679	-0.224203	0.303593
H256	H	1.125679	0.275797	0.803593
H257	H	0.625617	-0.284397	0.239297
H258	H	1.125617	0.215603	0.739297
H259	H	0.508290	-0.186970	0.263999
H260	H	1.008290	0.313030	0.763999
H261	H	0.508213	-0.247142	0.199692
H262	H	1.008213	0.252858	0.699692
H263	H	0.612980	-0.195990	0.145179
H264	H	1.112980	0.304010	0.645179
H265	H	0.613040	-0.135800	0.209482
H266	H	1.113040	0.364200	0.709482
H267	H	0.544774	-0.139912	0.149686
H268	H	1.044774	0.360088	0.649686
H269	H	0.686819	-0.269102	0.287283
H270	H	1.186819	0.230898	0.787283
H271	H	1.225622	-0.269086	0.930694
H272	H	1.725622	0.230914	1.430694
H273	H	1.225641	-0.269043	1.079422
H274	H	1.725641	0.230957	1.579422
H275	H	1.043386	-0.439791	1.079343
H276	H	1.543386	0.060209	1.579343
H277	H	1.043346	-0.439821	0.930616
H278	H	1.543346	0.060179	1.430616
C279	C	1.029840	-0.452717	0.837654
C280	C	1.529840	0.047283	1.337654
C281	C	1.074270	-0.499895	0.884696
C282	C	1.574270	0.000105	1.384696
C283	C	1.024189	-0.547050	0.925710
C284	C	1.524189	-0.047050	1.425710
H285	H	0.995644	-0.424637	0.869701
H286	H	1.495644	0.075363	1.369701
H287	H	0.999934	-0.480793	0.801512
H288	H	1.499934	0.019207	1.301512
H289	H	1.104163	-0.471822	0.920834
H290	H	1.604163	0.028178	1.420834
H291	H	1.108464	-0.527991	0.852669
H292	H	1.608464	-0.027991	1.352669
H293	H	0.994283	-0.575127	0.889569
H294	H	1.494283	-0.075127	1.389569
H295	H	0.989995	-0.518965	0.957753
H296	H	1.489995	-0.018965	1.457753
H297	H	1.054327	-0.579071	0.957628
H298	H	1.554327	-0.079071	1.457628
