data_functionalizedCrystal
_audit_creation_method	'MofGen! by Chris Wilmer'
_symmetry_space_group_name_H-M	'P1'
_symmetry_Int_Tables_number	1
_symmetry_cell_setting	triclinic
loop_
_symmetry_equiv_pos_as_xyz
  x,y,z
_cell_length_a	19.077212
_cell_length_b	19.077068
_cell_length_c	18.215407
_cell_angle_alpha	87.713242
_cell_angle_beta	92.314333
_cell_angle_gamma	94.708021
loop_
_atom_site_label
_atom_site_type_symbol
_atom_site_fract_x
_atom_site_fract_y
_atom_site_fract_z
Zn1	Zn	1.066377	-0.237619	0.470998
Zn2	Zn	1.566377	0.262381	0.970998
Zn3	Zn	1.061568	-0.355476	0.352673
Zn4	Zn	1.561568	0.144524	0.852673
Zn5	Zn	0.948508	-0.242325	0.343178
Zn6	Zn	1.448508	0.257675	0.843178
Zn7	Zn	0.943713	-0.360197	0.470932
Zn8	Zn	1.443713	0.139803	0.970932
O9	O	1.005041	-0.298904	0.409445
O10	O	1.505041	0.201096	0.909445
O11	O	1.164390	-0.249308	0.459303
O12	O	1.664390	0.250692	0.959303
O13	O	1.046565	-0.340460	0.248429
O14	O	1.546565	0.159540	0.748429
O15	O	0.968162	-0.143047	0.356188
O16	O	1.468162	0.356953	0.856188
O17	O	1.160858	-0.335897	0.372370
O18	O	1.660858	0.164103	0.872370
O19	O	1.054760	-0.139590	0.450097
O20	O	1.554760	0.360410	0.950097
O21	O	0.963500	-0.257328	0.241453
O22	O	1.463500	0.242672	0.741453
O23	O	0.849220	-0.261906	0.356124
O24	O	1.349220	0.238094	0.856124
O25	O	0.959990	-0.343943	0.573925
O26	O	1.459990	0.156057	1.073925
O27	O	0.845697	-0.348506	0.449984
O28	O	1.345697	0.151494	0.949984
O29	O	1.050110	-0.253886	0.573974
O30	O	1.550110	0.246114	1.073974
O31	O	1.041916	-0.454756	0.372306
O32	O	1.541916	0.045244	0.872306
O33	O	0.955327	-0.458224	0.459190
O34	O	1.455327	0.041776	0.959190
C35	C	0.821879	-0.306229	0.402017
C36	C	1.321879	0.193771	0.902017
C37	C	0.743521	-0.309380	0.398857
C38	C	1.243521	0.190620	0.898857
C39	C	0.302249	-0.331947	0.376226
C40	C	0.802249	0.168053	0.876226
C41	C	0.375875	-0.328983	0.379190
C42	C	0.875875	0.171017	0.879190
C43	C	0.414527	-0.282493	0.426012
C44	C	0.914527	0.217507	0.926012
C45	C	0.379549	-0.238958	0.469869
C46	C	0.879549	0.261042	0.969869
C47	C	0.305924	-0.241919	0.466902
C48	C	0.805924	0.258081	0.966902
C49	C	0.634918	-0.268807	0.439746
C50	C	1.134918	0.231193	0.939746
C51	C	0.708548	-0.265851	0.442712
C52	C	1.208548	0.234149	0.942712
C53	C	0.704870	-0.355875	0.352031
C54	C	1.204870	0.144125	0.852031
C55	C	0.631244	-0.358835	0.349071
C56	C	1.131244	0.141165	0.849071
C57	C	0.596272	-0.315298	0.392925
C58	C	1.096272	0.184702	0.892925
N59	N	0.489784	-0.279463	0.429044
N60	N	0.989784	0.220537	0.929044
N61	N	0.521016	-0.318324	0.389889
N62	N	1.021016	0.181676	0.889889
C63	C	0.997599	-0.482069	0.416788
C64	C	1.497599	0.017931	0.916788
C65	C	0.994479	-0.560425	0.419956
C66	C	1.494479	-0.060425	0.919956
C67	C	1.038130	-0.595406	0.376249
C68	C	1.538130	-0.095406	0.876249
C69	C	1.035200	-0.669030	0.379234
C70	C	1.535200	-0.169030	0.879234
C71	C	0.988615	-0.707671	0.425922
C72	C	1.488615	-0.207671	0.925922
C73	C	0.944962	-0.672685	0.469634
C74	C	1.444962	-0.172685	0.969634
C75	C	0.947896	-0.599063	0.466653
C76	C	1.447896	-0.099063	0.966653
C77	C	0.975006	-0.928056	0.439688
C78	C	1.475006	-0.428056	0.939688
C79	C	0.972073	-1.001683	0.442664
C80	C	1.472073	-0.501683	0.942664
C81	C	1.062313	-0.998023	0.352265
C82	C	1.562313	-0.498023	0.852265
C83	C	1.065240	-0.924400	0.349284
C84	C	1.565240	-0.424400	0.849284
C85	C	1.021589	-0.889420	0.392999
C86	C	1.521589	-0.389420	0.892999
N87	N	0.985618	-0.782927	0.428972
N88	N	1.485618	-0.282927	0.928972
N89	N	1.024591	-0.814165	0.389952
N90	N	1.524591	-0.314165	0.889952
C91	C	1.188919	-0.291551	0.416903
C92	C	1.688919	0.208449	0.916903
C93	C	1.267276	-0.288418	0.420082
C94	C	1.767276	0.211582	0.920082
C95	C	1.005052	-0.298916	0.601399
C96	C	1.505052	0.201084	1.101399
C97	C	1.005056	-0.298921	0.683198
C98	C	1.505056	0.201079	1.183198
C99	C	1.012532	-0.115024	0.402091
C100	C	1.512532	0.384976	0.902091
C101	C	1.015725	-0.036665	0.398957
C102	C	1.515725	0.463335	0.898957
C103	C	1.048298	-0.342195	0.951892
C104	C	1.548298	0.157805	1.451892
C105	C	1.048299	-0.342198	0.875033
C106	C	1.548299	0.157802	1.375033
C107	C	0.961794	-0.255638	0.867752
C108	C	1.461794	0.244362	1.367752
C109	C	0.961790	-0.255639	0.944610
C110	C	1.461790	0.244361	1.444610
C111	C	1.005045	-0.298916	0.986677
C112	C	1.505045	0.201084	1.486677
C113	C	1.005052	-0.298918	0.832962
C114	C	1.505052	0.201082	1.332962
C115	C	1.005053	-0.298921	0.749628
C116	C	1.505053	0.201079	1.249628
C117	C	1.005043	-0.298914	1.070016
C118	C	1.505043	0.201086	1.570016
C119	C	1.005030	-0.298911	1.218239
C120	C	1.505030	0.201089	1.718239
C121	C	1.005041	-0.298913	1.136440
C122	C	1.505041	0.201087	1.636440
H123	H	0.404347	-0.364428	0.343477
H124	H	0.904347	0.135572	0.843477
H125	H	0.907035	-0.704153	0.507651
H126	H	1.407035	-0.204153	1.007651
H127	H	0.740016	-0.227987	0.480839
H128	H	1.240016	0.272013	0.980839
H129	H	1.070745	-0.697508	0.343642
H130	H	1.570745	-0.197508	0.843642
H131	H	1.083519	-0.377435	0.986141
H132	H	1.583519	0.122565	1.486141
H133	H	0.912352	-0.570582	0.502244
H134	H	1.412352	-0.070582	1.002244
F135	F	0.915774	-0.209569	0.822975
F136	F	1.415774	0.290431	1.322975
F137	F	0.261120	-0.381434	0.326396
F138	F	0.761120	0.118566	0.826396
H139	H	0.599779	-0.396692	0.310942
H140	H	1.099779	0.103308	0.810942
F141	F	1.114830	-0.883279	0.299601
F142	F	1.614830	-0.383279	0.799601
H143	H	1.083520	-0.377440	0.846714
H144	H	1.583520	0.122560	1.346714
H145	H	1.097852	-1.026512	0.316676
H146	H	1.597852	-0.526512	0.816676
F147	F	0.915743	-0.209582	0.981633
F148	F	1.415743	0.290418	1.481633
H149	H	0.934147	-1.033143	0.480696
H150	H	1.434147	-0.533143	0.980696
F151	F	0.928548	-0.890837	0.486212
F152	F	1.428548	-0.390837	0.986212
F153	F	1.087709	-0.554288	0.326552
F154	F	1.587709	-0.054288	0.826552
H155	H	0.733352	-0.391320	0.316327
H156	H	1.233352	0.108680	0.816327
F157	F	0.597708	-0.222475	0.486425
F158	F	1.097708	0.277525	0.986425
H159	H	0.277450	-0.206471	0.502611
H160	H	0.777450	0.293529	1.002611
F161	F	0.420686	-0.189477	0.519700
F162	F	0.920686	0.310523	1.019700
