data_functionalizedCrystal
_audit_creation_method	'MofGen! by Chris Wilmer'
_symmetry_space_group_name_H-M	'P1'
_symmetry_Int_Tables_number	1
_symmetry_cell_setting	triclinic
loop_
_symmetry_equiv_pos_as_xyz
  x,y,z
_cell_length_a	10.654562
_cell_length_b	23.532357
_cell_length_c	9.730223
_cell_angle_alpha	89.993164
_cell_angle_beta	89.996961
_cell_angle_gamma	83.659197
loop_
_atom_site_label
_atom_site_type_symbol
_atom_site_fract_x
_atom_site_fract_y
_atom_site_fract_z
O1	O	1.665258	0.080019	-0.114399
O2	O	1.299537	0.087632	-0.114384
O3	O	1.493459	0.000964	-0.114363
O4	O	1.471337	0.166686	-0.114419
O5	O	1.493456	0.000966	0.114217
O6	O	1.299535	0.087634	0.114196
O7	O	1.665256	0.080021	0.114181
Zn8	Zn	1.482395	0.083828	0.150481
Zn9	Zn	1.482398	0.083825	-0.150683
O10	O	1.471334	0.166689	0.114161
C11	C	1.252756	0.087072	-0.000091
C12	C	1.113368	0.085395	-0.000084
C13	C	1.047861	0.084614	0.124504
C14	C	0.916889	0.083043	0.124482
C15	C	0.916942	0.083036	-0.124728
C16	C	1.047912	0.084603	-0.124705
C17	C	1.113316	0.085406	0.249125
C18	C	1.047809	0.084626	0.373723
C19	C	0.916837	0.083054	0.373701
C20	C	0.851372	0.082264	0.249080
C21	C	1.492904	-0.020255	-0.000069
C22	C	1.491240	-0.083485	-0.000056
C23	C	1.480798	-0.475566	-0.124729
C24	C	1.479216	-0.534975	-0.124737
O25	O	1.478357	-0.565698	-0.230703
N26	N	1.478431	-0.564691	-0.000139
C27	C	1.479214	-0.534992	0.124474
O28	O	1.478399	-0.565722	0.230453
C29	C	1.480786	-0.475583	0.124480
C30	C	1.481584	-0.445872	-0.000125
C31	C	1.481594	-0.445854	-0.249324
C32	C	1.483178	-0.386449	-0.249316
C33	C	1.483965	-0.356755	-0.124712
C34	C	1.483168	-0.386466	-0.000117
C35	C	1.481560	-0.445885	0.249092
C36	C	1.483132	-0.386472	0.249087
C37	C	1.483930	-0.356760	0.124482
C38	C	1.485539	-0.297366	0.124495
N39	N	1.486324	-0.267651	-0.000102
C40	C	1.485537	-0.297345	-0.124706
C41	C	1.475909	-0.659755	0.124451
C42	C	1.474346	-0.719164	0.124446
C43	C	1.474346	-0.719143	-0.124765
C44	C	1.475918	-0.659734	-0.124759
C45	C	1.476695	-0.630040	-0.000146
C46	C	1.488864	-0.172590	-0.124679
C47	C	1.490454	-0.113179	-0.124660
C48	C	1.490447	-0.113205	0.124550
C49	C	1.488865	-0.172610	0.124532
C50	C	1.488069	-0.202301	-0.000094
O51	O	1.486394	-0.266605	0.230407
O52	O	1.486335	-0.266607	-0.230667
C53	C	1.712036	0.080580	-0.000114
C54	C	1.851425	0.082257	-0.000130
C55	C	1.471889	0.187908	-0.000136
C56	C	1.473552	0.251137	-0.000158
N57	N	1.482402	0.083829	0.356017
N58	N	1.482401	0.083819	-0.356220
C59	C	1.568292	0.045466	0.427952
C60	C	1.568289	0.045459	0.571835
C61	C	1.396502	0.122184	0.571835
C62	C	1.396500	0.122188	0.427955
C63	C	1.654194	0.007107	0.356014
C64	C	1.740092	-0.031259	0.427949
C65	C	1.740089	-0.031266	0.571832
C66	C	1.654188	0.007094	0.643780
H67	H	0.863629	0.082394	-0.226189
C68	C	1.480670	-0.478554	0.386160
H69	H	1.481346	-0.452352	0.460358
H70	H	1.553287	-0.505787	0.391363
H71	H	1.406801	-0.497670	0.391336
C72	C	1.480734	-0.478512	-0.386397
H73	H	1.479677	-0.518150	-0.368579
H74	H	1.554233	-0.472820	-0.437585
H75	H	1.407747	-0.464714	-0.437589
C76	C	1.476784	-0.627056	-0.261823
H77	H	1.476084	-0.653254	-0.336026
H78	H	1.550632	-0.607932	-0.267011
H79	H	1.404146	-0.599828	-0.267002
C80	C	1.834580	-0.073448	0.348813
H81	H	1.822292	-0.067946	0.252820
H82	H	1.821450	-0.111517	0.372389
H83	H	1.918302	-0.066900	0.372398
C84	C	1.491305	-0.080533	0.261603
H85	H	1.492347	-0.040896	0.243751
H86	H	1.564278	-0.094324	0.312814
H87	H	1.417792	-0.086215	0.312790
H88	H	1.654207	0.007111	0.238857
C89	C	1.257381	0.087131	0.249155
H90	H	1.286985	0.087487	0.341215
H91	H	1.277026	0.120634	0.203120
H92	H	1.297012	0.054328	0.203163
H93	H	1.483823	-0.362263	-0.350782
H94	H	1.810022	-0.062508	0.630400
C95	C	1.488024	-0.205243	-0.261764
H96	H	1.488745	-0.179034	-0.335957
H97	H	1.414179	-0.224367	-0.266980
H98	H	1.560666	-0.232469	-0.266933
C99	C	1.119973	0.085468	-0.261748
H100	H	1.062232	0.084781	-0.335971
H101	H	1.181061	0.052929	-0.266908
H102	H	1.161069	0.119234	-0.266923
C103	C	1.654176	0.007085	0.802048
H104	H	1.590715	0.035423	0.834590
H105	H	1.734328	0.015217	0.834600
H106	H	1.637454	-0.029390	0.834593
H107	H	0.863506	0.082415	0.475155
C108	C	1.302031	0.164380	0.650975
H109	H	1.314343	0.158886	0.746967
H110	H	1.218305	0.157843	0.627407
H111	H	1.315185	0.202447	0.627387
C112	C	1.302030	0.164389	0.348821
H113	H	1.250883	0.187239	0.412269
H114	H	1.250028	0.143683	0.292697
H115	H	1.346902	0.188290	0.292691
H116	H	1.473701	-0.743330	-0.226224
C117	C	1.119814	0.085494	0.510794
H118	H	1.207196	0.086547	0.492967
H119	H	1.108337	0.052088	0.562004
H120	H	1.088340	0.118393	0.561969
C121	C	1.473479	-0.751841	0.261512
H122	H	1.474166	-0.725642	0.335715
H123	H	1.546098	-0.779074	0.266697
H124	H	1.399612	-0.770957	0.266694
H125	H	1.491106	-0.088991	-0.226133
H126	H	1.476546	-0.635583	0.225932
H127	H	1.483746	-0.362297	0.350564
H128	H	0.744727	0.080983	0.249072
C129	C	1.487990	-0.205294	0.261593
H130	H	1.488679	-0.179098	0.335802
H131	H	1.560602	-0.232531	0.266778
H132	H	1.414117	-0.224407	0.266766
