data_functionalizedCrystal
_audit_creation_method	'MofGen! by Chris Wilmer'
_symmetry_space_group_name_H-M	'P1'
_symmetry_Int_Tables_number	1
_symmetry_cell_setting	triclinic
loop_
_symmetry_equiv_pos_as_xyz
  x,y,z
_cell_length_a	16.109302
_cell_length_b	14.044190
_cell_length_c	14.586319
_cell_angle_alpha	89.991348
_cell_angle_beta	89.994552
_cell_angle_gamma	88.326779
loop_
_atom_site_label
_atom_site_type_symbol
_atom_site_fract_x
_atom_site_fract_y
_atom_site_fract_z
O1	O	1.112198	0.121838	-0.076292
O2	O	0.871264	0.136999	-0.076287
O3	O	0.988112	-0.008565	-0.076271
O4	O	0.995351	0.267402	-0.076308
O5	O	0.988103	-0.008567	0.076209
O6	O	0.871255	0.136997	0.076194
O7	O	1.112189	0.121836	0.076188
Cu8	Cu	0.991721	0.129416	0.090114
Cu9	Cu	0.991732	0.129419	-0.090212
O10	O	0.995342	0.267400	0.076173
C11	C	0.840239	0.136384	-0.000045
C12	C	0.747807	0.134543	-0.000042
C13	C	0.535144	0.130283	0.083067
C14	C	0.448295	0.128542	0.083064
C15	C	0.448315	0.128550	-0.083179
C16	C	0.535164	0.130283	-0.083175
C17	C	0.578576	0.131155	-0.000050
C18	C	0.404878	0.127681	-0.000056
C19	C	0.310712	0.125793	-0.000060
C20	C	0.672748	0.133040	-0.000045
C21	C	0.984940	-0.043879	-0.000028
C22	C	0.975494	-0.149103	-0.000020
C23	C	1.025219	-0.399404	-0.000057
C24	C	0.958238	-0.341755	-0.000049
C25	C	0.967842	-0.234553	-0.000033
C26	C	1.015617	-0.506616	-0.000073
C27	C	1.143214	0.122451	-0.000055
C28	C	1.235646	0.124293	-0.000064
C29	C	0.998513	0.302715	-0.000072
C30	C	1.007959	0.407938	-0.000086
N31	N	0.991720	0.129414	0.216946
N32	N	0.991740	0.129414	-0.217044
C33	C	1.043480	0.064980	0.451959
C34	C	1.043482	0.064977	0.547940
C35	C	0.939973	0.193851	0.547936
C36	C	0.939967	0.193848	0.451957
C37	C	0.991726	0.129414	0.403971
C38	C	0.991734	0.129414	0.595931
C39	C	0.991736	0.129412	0.699998
C40	C	0.991723	0.129414	0.299897
H41	H	0.570488	0.130993	0.150753
F42	F	1.109594	-0.358684	-0.000048
H43	H	0.893681	-0.372910	-0.000053
H44	H	1.085623	0.012512	0.412891
H45	H	0.412937	0.127833	0.150745
F46	F	0.402107	0.127603	-0.171642
H47	H	0.570526	0.130991	-0.150863
H48	H	1.085624	0.012508	0.587010
H49	H	0.897834	0.246314	0.587016
F50	F	0.884877	0.262427	0.400880
