data_functionalizedCrystal
_audit_creation_method	'MofGen! by Chris Wilmer'
_symmetry_space_group_name_H-M	'P1'
_symmetry_Int_Tables_number	1
_symmetry_cell_setting	triclinic
loop_
_symmetry_equiv_pos_as_xyz
  x,y,z
_cell_length_a	16.992697
_cell_length_b	10.065875
_cell_length_c	16.992695
_cell_angle_alpha	99.390570
_cell_angle_beta	90.668337
_cell_angle_gamma	80.654860
loop_
_atom_site_label
_atom_site_type_symbol
_atom_site_fract_x
_atom_site_fract_y
_atom_site_fract_z
O1	O	-1.061624	0.113295	-0.156088
O2	O	-0.833228	0.113341	-0.154252
O3	O	-0.946510	0.113307	-0.040971
O4	O	-0.948343	0.113328	-0.269369
O5	O	-0.924914	-0.113675	-0.062665
O6	O	-0.811633	-0.113642	-0.175946
O7	O	-1.040029	-0.113688	-0.177782
Zn8	Zn	-0.922402	-0.149703	-0.180308
Zn9	Zn	-0.950855	0.149356	-0.151726
O10	O	-0.926748	-0.113654	-0.291063
C11	C	-0.793071	-0.000145	-0.162743
C12	C	-0.705588	-0.000127	-0.155712
C13	C	-0.659598	-0.000121	-0.223530
C14	C	-0.577396	-0.000138	-0.216922
C15	C	-0.541186	-0.000152	-0.142496
C16	C	-0.587182	-0.000163	-0.074674
C17	C	-0.669382	-0.000155	-0.081283
C18	C	-0.295869	-0.000185	-0.115104
C19	C	-0.213663	-0.000189	-0.108499
C20	C	-0.203882	-0.000167	-0.250749
C21	C	-0.286085	-0.000151	-0.257350
C22	C	-0.332073	-0.000169	-0.189529
N23	N	-0.457162	-0.000166	-0.135740
N24	N	-0.416094	-0.000165	-0.196287
N25	N	-0.902990	-0.353803	-0.199815
C26	C	-0.944096	-0.421594	-0.158508
C27	C	-0.929162	-0.578757	-0.173527
C28	C	-0.080187	-0.000193	-0.169290
C29	C	-0.167673	-0.000182	-0.176317
C30	C	-0.933356	-0.000184	-0.022458
C31	C	-0.926328	-0.000182	0.065027
N32	N	-0.970273	0.353456	-0.132214
C33	C	-0.939901	-0.000161	-0.309576
C34	C	-0.946931	-0.000153	-0.397060
C35	C	-0.994144	-0.000197	0.111016
C36	C	-0.987537	-0.000183	0.193218
C37	C	-0.913111	-0.000163	0.229429
C38	C	-0.845290	-0.000144	0.183433
C39	C	-0.851899	-0.000148	0.101234
C40	C	-0.885719	-0.000139	0.474745
C41	C	-0.879114	-0.000138	0.556951
C42	C	-1.021362	-0.000175	0.566730
C43	C	-1.027964	-0.000187	0.484527
C44	C	-0.960143	-0.000161	0.438540
N45	N	-0.906355	-0.000153	0.313452
N46	N	-0.966901	-0.000161	0.354520
H47	H	-0.315562	-0.000124	-0.317955
H48	H	-0.333302	-0.000201	-0.059879
H49	H	-1.054749	-0.000221	0.081539
H50	H	-0.166430	-0.000155	-0.305965
C51	C	-1.062138	-0.000203	0.243803
C52	C	-1.110502	-0.118091	0.225276
C53	C	-1.185109	-0.118108	0.275859
C54	C	-1.211352	-0.000239	0.344969
C55	C	-1.162987	0.117657	0.363500
C56	C	-1.088380	0.117675	0.312916
H57	H	-1.091076	-0.205352	0.174113
H58	H	-1.220911	-0.205383	0.262141
H59	H	-1.266580	-0.000252	0.382414
H60	H	-1.182413	0.204919	0.414662
H61	H	-1.052578	0.204950	0.326634
C62	C	-0.866678	-0.657515	-0.236329
C63	C	-0.778782	-0.638016	-0.227736
C64	C	-0.716300	-0.716775	-0.290537
C65	C	-0.741713	-0.815032	-0.361930
C66	C	-0.829612	-0.834535	-0.370525
C67	C	-0.892095	-0.755776	-0.307725
H68	H	-0.759966	-0.565276	-0.174884
H69	H	-0.651230	-0.702337	-0.284173
H70	H	-0.695459	-0.873334	-0.408418
H71	H	-0.848428	-0.907275	-0.423377
H72	H	-0.957164	-0.770214	-0.314088
H73	H	-1.088569	-0.000203	0.455051
C74	C	-0.547352	-0.000182	0.007196
C75	C	-0.551483	-0.118059	0.053695
C76	C	-0.511655	-0.118075	0.135566
C77	C	-0.467695	-0.000214	0.170939
C78	C	-0.463562	0.117671	0.124439
C79	C	-0.503391	0.117687	0.042568
H80	H	-0.584027	-0.205314	0.027510
H81	H	-0.514715	-0.205342	0.169988
H82	H	-0.438212	-0.000226	0.231545
H83	H	-0.431019	0.204926	0.150624
H84	H	-0.500331	0.204954	0.008146
C85	C	-0.811112	-0.000135	0.424168
C86	C	-0.762734	0.117732	0.442701
C87	C	-0.688122	0.117729	0.392120
C88	C	-0.661888	-0.000141	0.323007
C89	C	-0.710268	-0.118016	0.304472
C90	C	-0.784880	-0.118013	0.355052
H91	H	-0.782153	0.204993	0.493865
H92	H	-0.652308	0.204988	0.405842
H93	H	-0.606656	-0.000143	0.285565
H94	H	-0.690849	-0.205277	0.253307
H95	H	-0.820693	-0.205272	0.341330
H96	H	-0.689073	-0.000109	-0.284135
H97	H	-0.539954	-0.000132	-0.272146
H98	H	-0.990341	-0.363283	-0.112021
H99	H	-1.016522	-0.588237	-0.085724
H100	H	-0.856738	-0.412115	-0.246296
H101	H	-1.076578	-0.000193	0.604181
H102	H	-0.184184	-0.000199	-0.047889
H103	H	-0.818503	-0.000144	0.586428
H104	H	-0.784691	-0.000119	0.212923
H105	H	-0.706827	-0.000160	-0.026059
H106	H	-0.796675	-0.000136	0.063790
