data_functionalizedCrystal
_audit_creation_method	'MofGen! by Chris Wilmer'
_symmetry_space_group_name_H-M	'P1'
_symmetry_Int_Tables_number	1
_symmetry_cell_setting	triclinic
loop_
_symmetry_equiv_pos_as_xyz
  x,y,z
_cell_length_a	21.606444
_cell_length_b	17.917603
_cell_length_c	21.606444
_cell_angle_alpha	57.009817
_cell_angle_beta	89.998123
_cell_angle_gamma	63.035261
loop_
_atom_site_label
_atom_site_type_symbol
_atom_site_fract_x
_atom_site_fract_y
_atom_site_fract_z
Zr1	Zr	0.627115	0.818664	-0.112144
O2	O	0.534181	0.974689	-0.216856
O3	O	0.651521	0.662638	-0.075961
O4	O	0.657410	0.818669	-0.210971
O5	O	0.528291	0.818656	0.020008
O6	O	0.759260	0.818674	-0.210975
O7	O	0.528292	0.818658	-0.081845
O8	O	0.748726	0.539563	0.030534
O9	O	0.538825	1.097767	-0.221501
O10	O	0.742873	0.726818	-0.065466
O11	O	0.666863	0.726812	0.010549
O12	O	0.673796	0.910519	-0.148409
O13	O	0.597786	0.910513	-0.072394
Zr14	Zr	0.789553	0.818668	0.050294
Zr15	Zr	0.789554	0.818673	-0.112150
Zr16	Zr	0.627114	0.818660	0.050300
Zr17	Zr	0.634522	1.014958	-0.119553
Zr18	Zr	0.782145	0.622375	0.057703
O19	O	0.765146	0.974695	0.014110
O20	O	0.765148	0.974701	-0.216865
O21	O	0.534179	0.974683	0.014119
O22	O	0.882487	0.662643	0.155005
O23	O	0.882488	0.662650	-0.075969
O24	O	0.651520	0.662631	0.155014
O25	O	0.888376	0.818677	-0.081859
O26	O	0.759257	0.818664	0.149121
O27	O	0.657407	0.818659	0.149125
O28	O	0.888376	0.818674	0.019994
O29	O	0.667942	1.097773	-0.221506
O30	O	0.748725	0.539559	0.159656
O31	O	0.877842	0.539566	0.159651
O32	O	0.877843	0.539570	0.030529
O33	O	0.538824	1.097763	-0.092380
O34	O	0.667941	1.097770	-0.092385
O35	O	0.742871	0.726814	0.086558
O36	O	0.818882	0.726820	0.010543
O37	O	0.749805	0.910520	-0.072400
O38	O	0.673795	0.910514	0.003615
C39	C	0.699068	0.573133	-0.021658
C40	C	0.695924	0.489801	-0.018512
C41	C	0.505147	0.818656	-0.030917
C42	C	0.436188	0.818652	-0.030915
C43	C	0.690178	0.337231	-0.012768
C44	C	0.726487	0.300097	-0.049080
C45	C	0.723291	0.215202	-0.045884
C46	C	0.693374	0.422134	-0.015963
C47	C	0.439846	0.722763	0.012378
C48	C	0.375049	0.722766	0.012378
C49	C	0.306594	0.818659	-0.030919
C50	C	0.302938	0.914556	-0.074213
C51	C	0.367734	0.914551	-0.074208
C52	C	0.041620	0.914574	-0.074230
C53	C	-0.023178	0.914571	-0.074233
C54	C	0.048935	0.722789	0.012356
C55	C	0.113731	0.722785	0.012361
C56	C	0.110070	0.818680	-0.030930
C57	C	0.180330	0.818676	-0.030929
C58	C	0.236334	0.818665	-0.030925
C59	C	0.911520	0.818677	-0.030933
C60	C	0.980480	0.818680	-0.030936
C61	C	0.708335	0.818672	-0.234118
C62	C	0.708336	0.818674	-0.303080
C63	C	0.717599	1.064200	-0.040193
C64	C	0.720744	1.147532	-0.043338
C65	C	0.764445	0.818679	-0.335480
C66	C	0.764448	0.818672	-0.400273
C67	C	0.708336	0.818667	-0.432668
C68	C	0.652223	0.818659	-0.400261
C69	C	0.652225	0.818659	-0.335466
C70	C	0.652217	0.818658	-0.661571
C71	C	0.652218	0.818661	-0.726372
C72	C	0.764440	0.818671	-0.726378
C73	C	0.764441	0.818671	-0.661583
C74	C	0.708331	0.818657	-0.629180
C75	C	0.708330	0.818663	-0.558923
C76	C	0.708334	0.818668	-0.502926
C77	C	0.708332	0.818660	0.172268
C78	C	0.708332	0.818658	0.241229
C79	C	0.902254	0.573143	-0.021665
C80	C	0.968069	0.489815	-0.018523
C81	C	0.699067	0.573127	0.181535
C82	C	0.695922	0.489793	0.253643
C83	C	0.902253	0.573138	0.181528
C84	C	0.968067	0.489807	0.253632
C85	C	0.514414	1.064195	-0.243378
C86	C	0.448600	1.147525	-0.315483
C87	C	0.514413	1.064189	-0.040185
C88	C	0.448598	1.147517	-0.043328
C89	C	0.717601	1.064206	-0.243386
C90	C	0.720746	1.147539	-0.315493
C91	C	0.959301	0.450682	-0.056729
C92	C	1.021135	0.372398	-0.053792
C93	C	1.091737	0.333242	-0.012643
C94	C	1.100505	0.372382	0.025565
C95	C	1.038671	0.450671	0.022623
C96	C	0.734120	0.450660	0.327188
C97	C	0.731163	0.372370	0.394946
C98	C	0.690010	0.333209	0.389157
C99	C	0.651807	0.372351	0.315604
C100	C	0.654761	0.450644	0.247848
C101	C	1.038658	0.450678	0.247814
C102	C	1.100504	0.372391	0.315557
C103	C	1.091758	0.333230	0.389118
C104	C	1.021161	0.372367	0.394934
C105	C	0.959316	0.450658	0.327192
C106	C	0.378010	1.186664	-0.309665
C107	C	0.316164	1.264975	-0.377409
C108	C	0.324911	1.304141	-0.450970
C109	C	0.395508	1.264998	-0.456786
C110	C	0.457352	1.186694	-0.389043
C111	C	0.457367	1.186658	-0.005128
C112	C	0.395533	1.264965	-0.008084
C113	C	0.324931	1.304124	-0.049236
C114	C	0.316164	1.264980	-0.087440
C115	C	0.377997	1.186680	-0.084489
C116	C	0.761905	1.186675	-0.309679
C117	C	0.764875	1.264966	-0.377425
C118	C	0.726680	1.304125	-0.450984
C119	C	0.685519	1.264981	-0.456796
C120	C	0.682554	1.186687	-0.389051
H121	H	0.759973	0.332065	-0.082569
H122	H	0.687611	0.269457	0.444335
H123	H	0.810137	0.818675	-0.426653
H124	H	0.606535	0.818653	-0.309085
H125	H	0.656694	0.305267	0.020716
C126	C	0.368371	1.143604	-0.228755
N127	N	0.361106	1.111182	-0.167815
H128	H	0.274547	1.367901	-0.506125
C129	C	0.515143	0.617272	0.060009
N130	N	0.571857	0.537812	0.095889
C131	C	0.238494	1.308051	-0.132692
N132	N	0.179992	1.340487	-0.166768
H133	H	0.767632	0.482535	0.331915
C134	C	0.238514	1.308016	-0.370994
N135	N	0.180029	1.340431	-0.366160
C136	C	0.379078	0.617281	0.059990
N137	N	0.382116	0.537824	0.095849
C138	C	0.535024	1.143604	0.040140
N139	N	0.593514	1.111185	0.074234
H140	H	0.370847	1.154813	-0.115594
C141	C	0.405194	1.308001	0.033953
N142	N	0.412472	1.340410	0.065618
H143	H	0.793008	1.154804	-0.249790
C144	C	0.405116	1.308082	-0.537710
N145	N	0.412351	1.340528	-0.598664
C146	C	1.011474	0.329348	-0.095818
N147	N	1.004196	0.296923	-0.127469
H148	H	0.038629	0.992658	-0.109494
C149	C	0.810152	1.308014	-0.371015
N150	N	0.844254	1.340436	-0.366184
C151	C	0.189030	0.617295	0.059991
N152	N	0.245746	0.537838	0.095870
C153	C	0.729948	1.390253	-0.525499
N154	N	0.732410	1.455127	-0.581621
C155	C	1.178173	0.329291	0.070833
N156	N	1.236675	0.296826	0.104934
H157	H	0.274589	1.367880	-0.051633
H158	H	0.051910	0.644706	0.047607
C159	C	0.535000	1.143637	-0.395455
N160	N	0.593483	1.111209	-0.400290
H161	H	0.762276	0.340510	0.454829
C162	C	-0.098481	1.020065	-0.121861
N163	N	-0.155198	1.099520	-0.157732
H164	H	0.654423	1.296877	-0.516696
C165	C	0.826174	0.818684	-0.299852
N166	N	0.872671	0.818682	-0.273016
C167	C	0.227635	1.020039	-0.121843
N168	N	0.170917	1.099492	-0.157723
H169	H	1.045821	0.482523	0.053740
C170	C	0.606545	0.329257	0.309250
N171	N	0.572458	0.296791	0.304467
C172	C	0.590492	0.818646	-0.762000
N173	N	0.544003	0.818633	-0.788835
C174	C	1.048297	0.493746	0.166904
N175	N	1.055563	0.526186	0.105963
H176	H	0.364751	0.992634	-0.109452
H177	H	0.810130	0.818680	-0.635212
C178	C	1.178155	0.329345	0.309143
N179	N	1.236639	0.296922	0.304309
C180	C	1.159797	0.247100	0.463631
N181	N	1.211046	0.182223	0.519751
H182	H	0.810130	0.818677	-0.752766
C183	C	0.590418	0.818843	-0.626027
N184	N	0.543841	0.819055	-0.599285
H185	H	0.606538	0.818648	-0.426638
H186	H	0.623656	0.482497	0.187967
H187	H	0.901819	0.482563	-0.090247
H188	H	0.649035	1.154831	-0.393795
H189	H	1.142080	0.269493	-0.010252
H190	H	1.014050	0.340471	0.454836
H191	H	0.901840	0.482507	0.331940
