data_functionalizedCrystal
_audit_creation_method	'MofGen! by Chris Wilmer'
_symmetry_space_group_name_H-M	'P1'
_symmetry_Int_Tables_number	1
_symmetry_cell_setting	triclinic
loop_
_symmetry_equiv_pos_as_xyz
  x,y,z
_cell_length_a	21.295418
_cell_length_b	21.295417
_cell_length_c	21.395355
_cell_angle_alpha	89.979596
_cell_angle_beta	89.956257
_cell_angle_gamma	90.045515
loop_
_atom_site_label
_atom_site_type_symbol
_atom_site_fract_x
_atom_site_fract_y
_atom_site_fract_z
Zn1	Zn	0.962359	-0.250416	-0.354574
Zn2	Zn	1.212359	-0.000416	-0.104574
Zn3	Zn	1.462359	0.249584	0.145426
Zn4	Zn	1.712359	0.499584	0.395426
Zn5	Zn	0.962263	-0.355668	-0.249793
Zn6	Zn	1.212263	-0.105668	0.000207
Zn7	Zn	1.462263	0.144332	0.250207
Zn8	Zn	1.712263	0.394332	0.500207
Zn9	Zn	0.857083	-0.250446	-0.249776
Zn10	Zn	1.107083	-0.000446	0.000224
Zn11	Zn	1.357083	0.249554	0.250224
Zn12	Zn	1.607083	0.499554	0.500224
Zn13	Zn	0.857053	-0.355681	-0.354498
Zn14	Zn	1.107053	-0.105681	-0.104498
Zn15	Zn	1.357053	0.144319	0.145502
Zn16	Zn	1.607053	0.394319	0.395502
O17	O	0.909690	-0.303053	-0.302160
O18	O	1.159690	-0.053053	-0.052160
O19	O	1.409690	0.196947	0.197840
O20	O	1.659690	0.446947	0.447840
O21	O	1.050436	-0.264361	-0.340714
O22	O	1.300436	-0.014361	-0.090714
O23	O	1.550436	0.235639	0.159286
O24	O	1.800436	0.485639	0.409286
O25	O	0.948283	-0.341717	-0.162113
O26	O	1.198283	-0.091717	0.087887
O27	O	1.448283	0.158283	0.337887
O28	O	1.698283	0.408283	0.587887
O29	O	0.871100	-0.162352	-0.263702
O30	O	1.121100	0.087648	-0.013702
O31	O	1.371100	0.337648	0.236298
O32	O	1.621100	0.587648	0.486298
O33	O	1.050365	-0.341688	-0.263732
O34	O	1.300365	-0.091688	-0.013732
O35	O	1.550365	0.158312	0.236268
O36	O	1.800365	0.408312	0.486268
O37	O	0.948447	-0.162331	-0.340697
O38	O	1.198447	0.087669	-0.090697
O39	O	1.448447	0.337669	0.159303
O40	O	1.698447	0.587669	0.409303
O41	O	0.871007	-0.264410	-0.162100
O42	O	1.121007	-0.014410	0.087900
O43	O	1.371007	0.235590	0.337900
O44	O	1.621007	0.485590	0.587900
O45	O	0.768989	-0.264423	-0.263628
O46	O	1.018989	-0.014423	-0.013628
O47	O	1.268989	0.235577	0.236372
O48	O	1.518989	0.485577	0.486372
O49	O	0.871050	-0.341710	-0.442186
O50	O	1.121050	-0.091710	-0.192186
O51	O	1.371050	0.158290	0.057814
O52	O	1.621050	0.408290	0.307814
O53	O	0.768968	-0.341739	-0.340568
O54	O	1.018968	-0.091739	-0.090568
O55	O	1.268968	0.158261	0.159432
O56	O	1.518968	0.408261	0.409432
O57	O	0.948418	-0.264373	-0.442242
O58	O	1.198418	-0.014373	-0.192242
O59	O	1.448418	0.235627	0.057758
O60	O	1.698418	0.485627	0.307758
O61	O	0.948254	-0.443759	-0.263658
O62	O	1.198254	-0.193759	-0.013658
O63	O	1.448254	0.056241	0.236342
O64	O	1.698254	0.306241	0.486342
O65	O	0.870957	-0.443768	-0.340584
O66	O	1.120957	-0.193768	-0.090584
O67	O	1.370957	0.056232	0.159416
O68	O	1.620957	0.306232	0.409416
C69	C	0.909609	-0.466604	-0.302129
C70	C	1.159609	-0.216604	-0.052129
C71	C	1.409609	0.033396	0.197871
C72	C	1.659609	0.283396	0.447871
C73	C	0.909633	-0.536572	-0.302136
C74	C	1.159633	-0.286572	-0.052136
C75	C	1.409633	-0.036572	0.197864
C76	C	1.659633	0.213428	0.447864
C77	C	0.746138	-0.303086	-0.302088
C78	C	0.996138	-0.053086	-0.052088
C79	C	1.246138	0.196914	0.197912
C80	C	1.496138	0.446914	0.447912
C81	C	0.676170	-0.303115	-0.302072
C82	C	0.926170	-0.053115	-0.052072
C83	C	1.176170	0.196885	0.197928
C84	C	1.426170	0.446885	0.447928
C85	C	0.949884	-0.569371	-0.342256
C86	C	1.199884	-0.319371	-0.092256
C87	C	1.449884	-0.069371	0.157744
C88	C	1.699884	0.180629	0.407744
C89	C	0.949906	-0.635113	-0.342271
C90	C	1.199906	-0.385113	-0.092271
C91	C	1.449906	-0.135113	0.157729
C92	C	1.699906	0.114887	0.407729
C93	C	0.909684	-0.668055	-0.302156
C94	C	1.159684	-0.418055	-0.052156
C95	C	1.409684	-0.168055	0.197844
C96	C	1.659684	0.081945	0.447844
C97	C	0.869425	-0.635249	-0.262033
C98	C	1.119425	-0.385249	-0.012033
C99	C	1.369425	-0.135249	0.237967
C100	C	1.619425	0.114751	0.487967
C101	C	0.869399	-0.569507	-0.262023
C102	C	1.119399	-0.319507	-0.012023
C103	C	1.369399	-0.069507	0.237977
C104	C	1.619399	0.180493	0.487977
N105	N	0.904924	-0.771308	-0.247320
N106	N	1.154924	-0.521308	0.002680
N107	N	1.404924	-0.271308	0.252680
N108	N	1.654924	-0.021308	0.502680
N109	N	0.904952	-0.833760	-0.247332
N110	N	1.154952	-0.583760	0.002668
N111	N	1.404952	-0.333760	0.252668
N112	N	1.654952	-0.083760	0.502668
C113	C	0.909757	-0.866130	-0.302184
C114	C	1.159757	-0.616130	-0.052184
C115	C	1.409757	-0.366130	0.197816
C116	C	1.659757	-0.116130	0.447816
N117	N	0.914546	-0.833689	-0.357026
N118	N	1.164546	-0.583689	-0.107026
N119	N	1.414546	-0.333689	0.142974
N120	N	1.664546	-0.083689	0.392974
N121	N	0.914521	-0.771231	-0.357014
N122	N	1.164521	-0.521231	-0.107014
N123	N	1.414521	-0.271231	0.142986
N124	N	1.664521	-0.021231	0.392986
C125	C	0.909707	-0.739340	-0.302162
C126	C	1.159707	-0.489340	-0.052162
C127	C	1.409707	-0.239340	0.197838
C128	C	1.659707	0.010660	0.447838
C129	C	0.950035	-0.970213	-0.342324
C130	C	1.200035	-0.720213	-0.092324
C131	C	1.450035	-0.470213	0.157676
C132	C	1.700035	-0.220213	0.407676
C133	C	0.950053	-1.035957	-0.342341
C134	C	1.200053	-0.785957	-0.092341
C135	C	1.450053	-0.535957	0.157659
C136	C	1.700053	-0.285957	0.407659
C137	C	0.869574	-1.036091	-0.262097
C138	C	1.119574	-0.786091	-0.012097
C139	C	1.369574	-0.536091	0.237903
C140	C	1.619574	-0.286091	0.487903
C141	C	0.869553	-0.970349	-0.262086
C142	C	1.119553	-0.720349	-0.012086
C143	C	1.369553	-0.470349	0.237914
C144	C	1.619553	-0.220349	0.487914
C145	C	0.909787	-0.937414	-0.302199
C146	C	1.159787	-0.687414	-0.052199
C147	C	1.409787	-0.437414	0.197801
C148	C	1.659787	-0.187414	0.447801
C149	C	0.643308	-0.343427	-0.342075
C150	C	0.893308	-0.093427	-0.092075
C151	C	1.143308	0.156573	0.157925
C152	C	1.393308	0.406573	0.407925
C153	C	0.577566	-0.343411	-0.342103
C154	C	0.827566	-0.093411	-0.092103
C155	C	1.077566	0.156589	0.157897
C156	C	1.327566	0.406589	0.407897
C157	C	0.544687	-0.303091	-0.302117
C158	C	0.794687	-0.053091	-0.052117
C159	C	1.044687	0.196909	0.197883
C160	C	1.294687	0.446909	0.447883
C161	C	0.577557	-0.262771	-0.262112
C162	C	0.827557	-0.012771	-0.012112
C163	C	1.077557	0.237229	0.237888
C164	C	1.327557	0.487229	0.487888
C165	C	0.643298	-0.262783	-0.262090
C166	C	0.893298	-0.012783	-0.012090
C167	C	1.143298	0.237217	0.237910
C168	C	1.393298	0.487217	0.487910
N169	N	0.441411	-0.298163	-0.247317
N170	N	0.691411	-0.048163	0.002683
N171	N	0.941411	0.201837	0.252683
N172	N	1.191411	0.451837	0.502683
N173	N	0.378960	-0.298156	-0.247340
N174	N	0.628960	-0.048156	0.002660
N175	N	0.878960	0.201844	0.252660
N176	N	1.128960	0.451844	0.502660
C177	C	0.346613	-0.303051	-0.302184
C178	C	0.596613	-0.053051	-0.052184
C179	C	0.846613	0.196949	0.197816
C180	C	1.096613	0.446949	0.447816
N181	N	0.379076	-0.307966	-0.357005
N182	N	0.629076	-0.057966	-0.107005
N183	N	0.879076	0.192034	0.142995
N184	N	1.129076	0.442034	0.392995
N185	N	0.441533	-0.307977	-0.356981
N186	N	0.691533	-0.057977	-0.106981
N187	N	0.941533	0.192023	0.143019
N188	N	1.191533	0.442023	0.393019
C189	C	0.473402	-0.303073	-0.302138
C190	C	0.723402	-0.053073	-0.052138
C191	C	0.973402	0.196927	0.197862
C192	C	1.223402	0.446927	0.447862
C193	C	0.242466	-0.343348	-0.342220
C194	C	0.492466	-0.093348	-0.092220
C195	C	0.742466	0.156652	0.157780
C196	C	0.992466	0.406652	0.407780
C197	C	0.176722	-0.343328	-0.342249
C198	C	0.426722	-0.093328	-0.092249
C199	C	0.676722	0.156672	0.157751
C200	C	0.926722	0.406672	0.407751
C201	C	0.176714	-0.262691	-0.262253
C202	C	0.426714	-0.012691	-0.012253
C203	C	0.676714	0.237309	0.237747
C204	C	0.926714	0.487309	0.487747
C205	C	0.242456	-0.262708	-0.262229
C206	C	0.492456	-0.012708	-0.012229
C207	C	0.742456	0.237292	0.237771
C208	C	0.992456	0.487292	0.487771
C209	C	0.275328	-0.303039	-0.302212
C210	C	0.525328	-0.053039	-0.052212
C211	C	0.775328	0.196961	0.197788
C212	C	1.025328	0.446961	0.447788
C213	C	1.073880	-0.303020	-0.302233
C214	C	1.323880	-0.053020	-0.052233
C215	C	1.573880	0.196980	0.197767
C216	C	1.823880	0.446980	0.447767
C217	C	1.143848	-0.303006	-0.302264
C218	C	1.393848	-0.053006	-0.052264
C219	C	1.643848	0.196994	0.197736
C220	C	1.893848	0.446994	0.447736
C221	C	0.909742	-0.303040	-0.465584
C222	C	1.159742	-0.053040	-0.215584
C223	C	1.409742	0.196960	0.034416
C224	C	1.659742	0.446960	0.284416
C225	C	0.909764	-0.303034	-0.535225
C226	C	1.159764	-0.053034	-0.285225
C227	C	1.409764	0.196966	-0.035225
C228	C	1.659764	0.446966	0.214775
C229	C	0.909787	-0.138862	-0.302206
C230	C	1.159787	0.111138	-0.052206
C231	C	1.409787	0.361138	0.197794
C232	C	1.659787	0.611138	0.447794
C233	C	0.909829	-0.068894	-0.302225
C234	C	1.159829	0.181106	-0.052225
C235	C	1.409829	0.431106	0.197775
C236	C	1.659829	0.681106	0.447775
C237	C	0.950048	-0.262763	-0.567968
C238	C	1.200048	-0.012763	-0.317968
C239	C	1.450048	0.237237	-0.067968
C240	C	1.700048	0.487237	0.182032
C241	C	0.950047	-0.262736	-0.633404
C242	C	1.200047	-0.012736	-0.383404
C243	C	1.450047	0.237264	-0.133404
C244	C	1.700047	0.487264	0.116596
C245	C	0.909769	-0.302992	-0.666093
C246	C	1.159769	-0.052992	-0.416093
C247	C	1.409769	0.197008	-0.166093
C248	C	1.659769	0.447008	0.083907
C249	C	0.869478	-0.343266	-0.633342
C250	C	1.119478	-0.093266	-0.383342
C251	C	1.369478	0.156734	-0.133342
C252	C	1.619478	0.406734	0.116658
C253	C	0.869475	-0.343287	-0.567908
C254	C	1.119475	-0.093287	-0.317908
C255	C	1.369475	0.156713	-0.067908
C256	C	1.619475	0.406713	0.182092
C257	C	0.904771	-0.359673	-0.769755
C258	C	1.154771	-0.109673	-0.519755
C259	C	1.404771	0.140327	-0.269755
C260	C	1.654771	0.390327	-0.019755
C261	C	0.904778	-0.359653	-0.835188
C262	C	1.154778	-0.109653	-0.585188
C263	C	1.404778	0.140347	-0.335188
C264	C	1.654778	0.390347	-0.085188
C265	C	0.909773	-0.302925	-0.867914
C266	C	1.159773	-0.052925	-0.617914
C267	C	1.409773	0.197075	-0.367914
C268	C	1.659773	0.447075	-0.117914
C269	C	0.914775	-0.246216	-0.835199
C270	C	1.164775	0.003784	-0.585199
C271	C	1.414775	0.253784	-0.335199
C272	C	1.664775	0.503784	-0.085199
C273	C	0.914772	-0.246238	-0.769765
C274	C	1.164772	0.003762	-0.519765
C275	C	1.414772	0.253762	-0.269765
C276	C	1.664772	0.503762	-0.019765
C277	C	0.909767	-0.302973	-0.737046
C278	C	1.159767	-0.052973	-0.487046
C279	C	1.409767	0.197027	-0.237046
C280	C	1.659767	0.447027	0.012954
C281	C	0.950058	-0.262621	-0.971610
C282	C	1.200058	-0.012621	-0.721610
C283	C	1.450058	0.237379	-0.471610
C284	C	1.700058	0.487379	-0.221610
C285	C	0.950053	-0.262593	-1.037047
C286	C	1.200053	-0.012593	-0.787047
C287	C	1.450053	0.237407	-0.537047
C288	C	1.700053	0.487407	-0.287047
C289	C	0.869486	-0.343128	-1.036984
C290	C	1.119486	-0.093128	-0.786984
C291	C	1.369486	0.156872	-0.536984
C292	C	1.619486	0.406872	-0.286984
C293	C	0.869488	-0.343151	-0.971549
C294	C	1.119488	-0.093151	-0.721549
C295	C	1.369488	0.156849	-0.471549
C296	C	1.619488	0.406849	-0.221549
C297	C	0.909777	-0.302898	-0.938866
C298	C	1.159777	-0.052898	-0.688866
C299	C	1.409777	0.197102	-0.438866
C300	C	1.659777	0.447102	-0.188866
C301	C	0.909674	-0.303020	-0.139373
C302	C	1.159674	-0.053020	0.110627
C303	C	1.409674	0.196980	0.360627
C304	C	1.659674	0.446980	0.610627
C305	C	0.909774	-0.302848	-0.069732
C306	C	1.159774	-0.052848	0.180268
C307	C	1.409774	0.197152	0.430268
C308	C	1.659774	0.447152	0.680268
H309	H	0.982678	-0.661823	-0.374949
H310	H	1.232678	-0.411823	-0.124949
H311	H	1.482678	-0.161823	0.125051
H312	H	1.732678	0.088177	0.375051
O313	O	0.141323	-0.386849	-0.385396
O314	O	0.391323	-0.136849	-0.135396
O315	O	0.641323	0.113151	0.114604
O316	O	0.891323	0.363151	0.364604
H317	H	0.111432	-0.358764	-0.417374
H318	H	0.361432	-0.108764	-0.167374
H319	H	0.611432	0.141236	0.082626
H320	H	0.861432	0.391236	0.332626
H321	H	0.918843	-0.200063	-0.743131
H322	H	1.168843	0.049937	-0.493131
H323	H	1.418843	0.299937	-0.243131
H324	H	1.668843	0.549937	0.006869
O325	O	0.542110	-0.386916	-0.385225
O326	O	0.792110	-0.136916	-0.135225
O327	O	1.042110	0.113084	0.114775
O328	O	1.292110	0.363084	0.364775
H329	H	0.576013	-0.414973	-0.413013
H330	H	0.826013	-0.164973	-0.163013
H331	H	1.076013	0.085027	0.086987
H332	H	1.326013	0.335027	0.336987
O333	O	0.826048	-0.670773	-0.218756
O334	O	1.076048	-0.420773	0.031244
O335	O	1.326048	-0.170773	0.281244
O336	O	1.576048	0.079227	0.531244
H337	H	0.832835	-0.721998	-0.225496
H338	H	1.082835	-0.471998	0.024504
H339	H	1.332835	-0.221998	0.274504
H340	H	1.582835	0.028002	0.524504
H341	H	0.982793	-0.943397	-0.374988
H342	H	1.232793	-0.693397	-0.124988
H343	H	1.482793	-0.443397	0.125012
H344	H	1.732793	-0.193397	0.375012
H345	H	0.550783	-0.229941	-0.229557
H346	H	0.800783	0.020059	0.020443
H347	H	1.050783	0.270059	0.270443
H348	H	1.300783	0.520059	0.520443
H349	H	0.269212	-0.229884	-0.229652
H350	H	0.519212	0.020116	0.020348
H351	H	0.769212	0.270116	0.270348
H352	H	1.019212	0.520116	0.520348
O353	O	0.920146	-0.185022	-0.870484
O354	O	1.170146	0.064978	-0.620484
O355	O	1.420146	0.314978	-0.370484
O356	O	1.670146	0.564978	-0.120484
H357	H	0.919294	-0.194530	-0.921480
H358	H	1.169294	0.055470	-0.671480
H359	H	1.419294	0.305470	-0.421480
H360	H	1.669294	0.555470	-0.171480
O361	O	0.899376	-0.420864	-0.734465
O362	O	1.149376	-0.170864	-0.484465
O363	O	1.399376	0.079136	-0.234465
O364	O	1.649376	0.329136	0.015535
H365	H	0.941537	-0.427291	-0.704679
H366	H	1.191537	-0.177291	-0.454679
H367	H	1.441537	0.072709	-0.204679
H368	H	1.691537	0.322709	0.045321
H369	H	0.982860	-0.229842	-0.944998
H370	H	1.232860	0.020158	-0.694998
H371	H	1.482860	0.270158	-0.444998
H372	H	1.732860	0.520158	-0.194998
H373	H	0.836685	-0.375898	-1.063599
H374	H	1.086685	-0.125898	-0.813599
H375	H	1.336685	0.124102	-0.563599
H376	H	1.586685	0.374102	-0.313599
H377	H	0.982855	-0.229796	-1.063705
H378	H	1.232855	0.020204	-0.813705
H379	H	1.482855	0.270204	-0.563705
H380	H	1.732855	0.520204	-0.313705
H381	H	0.836779	-0.943643	-0.229414
H382	H	1.086779	-0.693643	0.020586
H383	H	1.336779	-0.443643	0.270586
H384	H	1.586779	-0.193643	0.520586
O385	O	0.826023	-0.386569	-0.936226
O386	O	1.076023	-0.136569	-0.686226
O387	O	1.326023	0.113431	-0.436226
O388	O	1.576023	0.363431	-0.186226
H389	H	0.798009	-0.414553	-0.969948
H390	H	1.048009	-0.164553	-0.719948
H391	H	1.298009	0.085447	-0.469948
H392	H	1.548009	0.335447	-0.219948
O393	O	0.678748	-0.219315	-0.218931
O394	O	0.928748	0.030685	0.031069
O395	O	1.178748	0.280685	0.281069
O396	O	1.428748	0.530685	0.531069
H397	H	0.644843	-0.191278	-0.191125
H398	H	0.894843	0.058722	0.058875
H399	H	1.144843	0.308722	0.308875
H400	H	1.394843	0.558722	0.558875
H401	H	0.269232	-0.376185	-0.374779
H402	H	0.519232	-0.126185	-0.124779
H403	H	0.769232	0.123815	0.125221
H404	H	1.019232	0.373815	0.375221
H405	H	0.900709	-0.405829	-0.861820
H406	H	1.150709	-0.155829	-0.611820
H407	H	1.400709	0.094171	-0.361820
H408	H	1.650709	0.344171	-0.111820
O409	O	0.826009	-0.386716	-0.532595
O410	O	1.076009	-0.136716	-0.282595
O411	O	1.326009	0.113284	-0.032595
O412	O	1.576009	0.363284	0.217405
H413	H	0.836765	-0.436118	-0.545155
H414	H	1.086765	-0.186118	-0.295155
H415	H	1.336765	0.063882	-0.045155
H416	H	1.586765	0.313882	0.204845
H417	H	0.149945	-0.229858	-0.229699
H418	H	0.399945	0.020142	0.020301
H419	H	0.649945	0.270142	0.270301
H420	H	0.899945	0.520142	0.520301
H421	H	0.982854	-0.229986	-0.541362
H422	H	1.232854	0.020014	-0.291362
H423	H	1.482854	0.270014	-0.041362
H424	H	1.732854	0.520014	0.208638
H425	H	0.836681	-0.376040	-0.659963
H426	H	1.086681	-0.126040	-0.409963
H427	H	1.336681	0.123960	-0.159963
H428	H	1.586681	0.373960	0.090037
O429	O	0.993465	-1.071338	-0.385618
O430	O	1.243465	-0.821338	-0.135618
O431	O	1.493465	-0.571338	0.114382
O432	O	1.743465	-0.321338	0.364382
H433	H	1.042871	-1.058675	-0.374925
H434	H	1.292871	-0.808675	-0.124925
H435	H	1.542871	-0.558675	0.125075
H436	H	1.792871	-0.308675	0.375075
O437	O	0.993287	-0.533846	-0.385507
O438	O	1.243287	-0.283846	-0.135507
O439	O	1.493287	-0.033846	0.114493
O440	O	1.743287	0.216154	0.364493
H441	H	1.021283	-0.567702	-0.413406
H442	H	1.271283	-0.317702	-0.163406
H443	H	1.521283	-0.067702	0.086594
H444	H	1.771283	0.182298	0.336594
H445	H	0.836820	-1.062912	-0.229438
H446	H	1.086820	-0.812912	0.020562
H447	H	1.336820	-0.562912	0.270562
H448	H	1.586820	-0.312912	0.520562
O449	O	0.825992	-0.534126	-0.218741
O450	O	1.075992	-0.284126	0.031259
O451	O	1.325992	-0.034126	0.281259
O452	O	1.575992	0.215874	0.531259
H453	H	0.798029	-0.568074	-0.190844
H454	H	1.048029	-0.318074	0.059156
H455	H	1.298029	-0.068074	0.309156
H456	H	1.548029	0.181926	0.559156
O457	O	0.678765	-0.386916	-0.385205
O458	O	0.928765	-0.136916	-0.135205
O459	O	1.178765	0.113084	0.114795
O460	O	1.428765	0.363084	0.364795
H461	H	0.644865	-0.414940	-0.413031
H462	H	0.894865	-0.164940	-0.163031
H463	H	1.144865	0.085060	0.086969
H464	H	1.394865	0.335060	0.336969
H465	H	0.982849	-0.229939	-0.660068
H466	H	1.232849	0.020061	-0.410068
H467	H	1.482849	0.270061	-0.160068
H468	H	1.732849	0.520061	0.089932
