data_functionalizedCrystal
_audit_creation_method	'MofGen! by Chris Wilmer'
_symmetry_space_group_name_H-M	'P1'
_symmetry_Int_Tables_number	1
_symmetry_cell_setting	triclinic
loop_
_symmetry_equiv_pos_as_xyz
  x,y,z
_cell_length_a	11.026607
_cell_length_b	11.792254
_cell_length_c	10.065918
_cell_angle_alpha	99.761624
_cell_angle_beta	97.708363
_cell_angle_gamma	96.392307
loop_
_atom_site_label
_atom_site_type_symbol
_atom_site_fract_x
_atom_site_fract_y
_atom_site_fract_z
O1	O	1.629363	0.494002	0.113506
O2	O	1.275698	0.439810	0.113506
O3	O	1.461104	0.303437	0.113496
O4	O	1.443957	0.630374	0.113516
O5	O	1.429000	0.267252	-0.113494
O6	O	1.243594	0.403625	-0.113484
O7	O	1.597259	0.457817	-0.113484
Zn8	Zn	1.415329	0.424976	-0.149524
Zn9	Zn	1.457628	0.472651	0.149546
O10	O	1.411853	0.594189	-0.113474
C11	C	1.214369	0.411720	0.000011
C12	C	1.079457	0.381917	0.000011
C13	C	1.006198	0.464208	0.000017
C14	C	0.866759	0.433408	0.000017
C15	C	1.443971	0.242840	0.000002
C16	C	1.440738	0.116185	0.000003
C17	C	1.438112	0.013327	0.000008
C18	C	1.434828	-0.115710	0.000021
C19	C	1.658589	0.485907	0.000014
C20	C	1.793501	0.515711	0.000023
C21	C	1.428986	0.654787	0.000023
C22	C	1.432220	0.781444	0.000031
N23	N	1.386471	0.392440	-0.353630
C24	C	1.447579	0.461329	-0.421407
C25	C	1.425379	0.436280	-0.578575
N26	N	1.486496	0.505180	0.353653
H27	H	0.834003	0.608972	0.000019
H28	H	1.555256	0.582707	-0.588024
O29	O	1.054419	0.575443	-0.000219
C30	C	0.998479	0.611112	-0.117756
H31	H	0.959995	0.531490	-0.199928
H32	H	0.920132	0.661912	-0.091171
C33	C	1.142460	0.786800	-0.070135
C34	C	1.095202	0.689007	-0.171064
H35	H	1.202120	0.834853	-0.103016
H36	H	1.180146	0.762772	0.009055
H37	H	1.077160	0.829119	-0.047990
H38	H	1.160499	0.646682	-0.193195
H39	H	1.057530	0.713030	-0.250260
O40	O	0.818257	0.322214	0.000073
C41	C	0.689830	0.316210	0.000038
H42	H	0.666856	0.405721	0.043014
H43	H	0.639098	0.286176	-0.108861
C44	C	0.677324	0.119371	0.036268
C45	C	0.649109	0.229308	0.089063
H46	H	0.652203	0.065762	0.091177
H47	H	0.763847	0.123413	0.036287
H48	H	0.635045	0.094358	-0.054480
H49	H	0.691399	0.254325	0.179803
H50	H	0.562592	0.225268	0.089062
O51	O	1.031118	0.270717	0.000249
C52	C	0.975198	0.267332	0.117791
H53	H	1.017276	0.345917	0.199961
H54	H	0.871685	0.269015	0.091211
C55	C	0.945422	0.058686	0.070170
C56	C	0.997111	0.155201	0.171097
H57	H	0.958932	-0.010484	0.103050
H58	H	0.983092	0.060965	-0.009023
H59	H	0.859164	0.060104	0.048029
H60	H	1.083368	0.153788	0.193223
H61	H	0.959455	0.152918	0.250296
O62	O	1.529512	0.553941	-0.351981
C63	C	1.492029	0.657007	-0.386767
H64	H	1.430354	0.635903	-0.490563
H65	H	1.438515	0.698429	-0.306385
C66	C	1.682437	0.768064	-0.265654
C67	C	1.606695	0.742145	-0.393143
H68	H	1.753168	0.820584	-0.269581
H69	H	1.707689	0.698628	-0.242213
H70	H	1.637828	0.802577	-0.198682
H71	H	1.651300	0.707620	-0.460108
H72	H	1.581454	0.811578	-0.416596
H73	H	1.356625	0.358749	-0.636900
H74	H	1.317722	0.314914	-0.411961
