data_functionalizedCrystal
_audit_creation_method	'MofGen! by Chris Wilmer'
_symmetry_space_group_name_H-M	'P1'
_symmetry_Int_Tables_number	1
_symmetry_cell_setting	triclinic
loop_
_symmetry_equiv_pos_as_xyz
  x,y,z
_cell_length_a	12.827892
_cell_length_b	10.685980
_cell_length_c	10.685880
_cell_angle_alpha	80.918858
_cell_angle_beta	94.339956
_cell_angle_gamma	94.382205
loop_
_atom_site_label
_atom_site_type_symbol
_atom_site_fract_x
_atom_site_fract_y
_atom_site_fract_z
Zn1	Zn	-0.344322	1.995735	-0.866679
Zn2	Zn	0.155678	2.495735	-0.366679
Zn3	Zn	-0.506673	1.979324	-0.654425
Zn4	Zn	-0.006673	2.479324	-0.154425
Zn5	Zn	-0.344377	1.767176	-0.638151
Zn6	Zn	0.155623	2.267176	-0.138151
Zn7	Zn	-0.531457	1.783436	-0.850329
Zn8	Zn	-0.031457	2.283436	-0.350329
O9	O	-0.431707	1.881418	-0.752396
O10	O	0.068293	2.381418	-0.252396
O11	O	-0.355463	2.171191	-0.852176
O12	O	0.144537	2.671191	-0.352176
O13	O	-0.474795	1.937508	-0.474641
O14	O	0.025205	2.437508	0.025359
O15	O	-0.198132	1.797558	-0.668498
O16	O	0.301868	2.297558	-0.168498
O17	O	-0.474741	2.159134	-0.696234
O18	O	0.025259	2.659134	-0.196234
O19	O	-0.198091	1.965480	-0.836396
O20	O	0.301909	2.465480	-0.336396
O21	O	-0.355557	1.781644	-0.462684
O22	O	0.144443	2.281644	0.037316
O23	O	-0.379589	1.591700	-0.652644
O24	O	0.120411	2.091700	-0.152644
O25	O	-0.516982	1.825271	-1.030124
O26	O	-0.016982	2.325271	-0.530124
O27	O	-0.517036	1.603646	-0.808530
O28	O	-0.017036	2.103646	-0.308530
O29	O	-0.379495	1.981247	-1.042136
O30	O	0.120505	2.481247	-0.542136
O31	O	-0.656199	1.953275	-0.680381
O32	O	-0.156199	2.453275	-0.180381
O33	O	-0.674407	1.809357	-0.824310
O34	O	-0.174407	2.309357	-0.324310
C35	C	-0.451009	1.551615	-0.727048
C36	C	0.048991	2.051615	-0.227048
C37	C	-0.459293	1.410526	-0.716234
C38	C	0.040707	1.910526	-0.216234
C39	C	-0.703220	1.881337	-0.752368
C40	C	-0.203220	2.381337	-0.252368
C41	C	-0.819371	1.881421	-0.752407
C42	C	-0.319371	2.381421	-0.252407
C43	C	-0.862110	1.952734	-0.681279
C44	C	-0.362110	2.452734	-0.181279
C45	C	-0.982157	1.952824	-0.681317
C46	C	-0.482157	2.452824	-0.181317
C47	C	-0.159133	1.881536	-0.752455
C48	C	0.340867	2.381536	-0.252455
C49	C	-0.042979	1.881586	-0.752480
C50	C	0.457021	2.381586	-0.252480
C51	C	-0.450997	1.906904	-1.083474
C52	C	0.049003	2.406904	-0.583474
C53	C	-0.459217	1.917764	-1.224560
C54	C	0.040783	2.417764	-0.724560
C55	C	-0.412331	2.212508	-0.777844
C56	C	0.087669	2.712508	-0.277844
C57	C	-0.404074	2.353600	-0.788689
C58	C	0.095926	2.853600	-0.288689
C59	C	-0.412413	1.856104	-0.422612
C60	C	0.087587	2.356104	0.077388
C61	C	-0.403884	1.845489	-0.281546
C62	C	0.096116	2.345489	0.218454
H63	H	-0.512908	1.351319	-0.645918
H64	H	-0.012908	1.851319	-0.145918
O65	O	-0.994253	1.800702	-0.833141
O66	O	-0.494253	2.300702	-0.333141
H67	H	-1.019778	1.699407	-0.803647
H68	H	-0.519778	2.199407	-0.303647
O69	O	-0.530317	2.010736	-1.302908
O70	O	-0.030317	2.510736	-0.802908
H71	H	-0.569563	2.061955	-1.238974
H72	H	-0.069563	2.561955	-0.738974
O73	O	-0.792870	2.033556	-0.600599
O74	O	-0.292870	2.533556	-0.100599
H75	H	-0.709445	2.020812	-0.613238
H76	H	-0.209445	2.520812	-0.113238
H77	H	-0.350455	1.412799	-0.858992
H78	H	0.149545	1.912799	-0.358992
O79	O	-0.888623	1.800629	-0.833105
O80	O	-0.388623	2.300629	-0.333105
H81	H	-0.872236	1.829954	-0.934429
H82	H	-0.372236	2.329954	-0.434429
O83	O	-1.030874	2.033728	-0.600671
O84	O	-0.530874	2.533728	-0.100671
H85	H	-1.117518	2.021121	-0.613375
H86	H	-0.617518	2.521121	-0.113375
O87	O	-0.332792	1.752511	-1.203213
O88	O	0.167208	2.252511	-0.703213
H89	H	-0.337266	1.758285	-1.100975
H90	H	0.162734	2.258285	-0.600975
