data_functionalizedCrystal
_audit_creation_method	'MofGen! by Chris Wilmer'
_symmetry_space_group_name_H-M	'P1'
_symmetry_Int_Tables_number	1
_symmetry_cell_setting	triclinic
loop_
_symmetry_equiv_pos_as_xyz
  x,y,z
_cell_length_a	18.050589
_cell_length_b	12.759401
_cell_length_c	12.759393
_cell_angle_alpha	89.980469
_cell_angle_beta	90.029827
_cell_angle_gamma	89.973866
loop_
_atom_site_label
_atom_site_type_symbol
_atom_site_fract_x
_atom_site_fract_y
_atom_site_fract_z
Zn1	Zn	-0.295663	-1.606159	0.594011
Zn2	Zn	-0.419871	-1.606011	0.418334
Zn3	Zn	-0.295695	-1.430460	0.418348
Zn4	Zn	-0.419811	-1.430408	0.593973
O5	O	-0.357760	-1.518260	0.506167
O6	O	-0.312151	-1.753160	0.570718
O7	O	-0.403438	-1.582684	0.271315
O8	O	-0.191766	-1.453851	0.441672
O9	O	-0.403407	-1.753052	0.441648
O10	O	-0.191742	-1.582936	0.570731
O11	O	-0.312206	-1.453707	0.271325
O12	O	-0.312148	-1.283432	0.441635
O13	O	-0.403304	-1.453762	0.740999
O14	O	-0.403335	-1.283394	0.570666
O15	O	-0.312093	-1.582885	0.741027
O16	O	-0.523788	-1.582633	0.441611
O17	O	-0.523744	-1.453618	0.570653
C18	C	-0.550712	-1.518133	0.506149
C19	C	-0.633258	-1.518175	0.506177
C20	C	-0.357739	-1.245292	0.506149
C21	C	-0.357748	-1.128516	0.506166
C22	C	-0.357688	-1.518334	0.780200
C23	C	-0.357657	-1.518366	0.896977
C24	C	-0.832711	-1.448085	0.576325
C25	C	-0.882159	-1.422471	0.480456
C26	C	-0.784388	-1.518278	0.506191
C27	C	-0.882023	-1.543944	0.602070
C28	C	-0.930373	-1.518375	0.506212
C29	C	-0.832748	-1.492613	0.410271
C30	C	-0.832608	-1.614131	0.531950
C31	C	-0.882033	-1.588552	0.436015
C32	C	-0.700290	-1.518219	0.506180
C33	C	-1.014470	-1.518435	0.506213
C34	C	-0.164054	-1.518415	0.506207
C35	C	-0.081509	-1.518482	0.506225
C36	C	-0.405303	-1.073661	0.573240
C37	C	-0.405310	-0.963937	0.573250
C38	C	-0.310202	-0.963932	0.439102
C39	C	-0.310193	-1.073654	0.439098
C40	C	-0.452858	-1.128523	0.640308
C41	C	-0.500418	-1.073668	0.707387
C42	C	-0.500425	-0.963944	0.707397
C43	C	-0.452871	-0.909075	0.640328
C44	C	-0.357775	-0.792293	0.506182
C45	C	-0.357764	-0.909069	0.506179
C46	C	-0.357778	-1.518246	0.233199
C47	C	-0.357600	-1.518418	0.116423
C48	C	-0.310117	-1.451252	1.061569
C49	C	-0.310143	-1.451228	0.951845
C50	C	-0.405142	-1.585539	0.951839
C51	C	-0.405112	-1.585567	1.061561
C52	C	-0.262605	-1.384103	1.116431
C53	C	-0.215119	-1.316931	1.061576
C54	C	-0.215145	-1.316907	0.951852
C55	C	-0.262658	-1.384056	0.896982
H56	H	-0.811055	-1.388638	0.635551
N57	N	-0.261634	-0.907871	0.370605
N58	N	-0.261650	-0.809906	0.370619
H59	H	-0.227348	-0.770312	0.322242
N60	N	-0.909454	-1.320830	0.453133
N61	N	-0.893666	-1.243394	0.508800
H62	H	-0.912940	-1.171607	0.489509
N63	N	-0.261603	-1.129677	0.370590
N64	N	-0.219148	-1.080684	0.310714
H65	H	-0.184826	-1.120250	0.262334
H66	H	-0.452860	-1.217866	0.640306
H67	H	-0.539145	-0.919285	0.762023
H68	H	-0.811193	-1.470850	0.329173
N69	N	-0.262689	-1.384063	0.784901
N70	N	-0.247190	-1.466027	0.735951
H71	H	-0.247214	-1.466034	0.656795
H72	H	-0.443775	-1.640261	1.106225
N73	N	-0.548979	-1.129727	0.775897
N74	N	-0.548967	-1.227692	0.775883
H75	H	-0.583263	-1.267283	0.824270
H76	H	-0.452873	-0.819730	0.640350
N77	N	-0.453687	-1.654116	0.895811
N78	N	-0.496083	-1.714078	0.944802
H79	H	-0.530372	-1.762510	0.905234
H80	H	-0.810829	-1.695126	0.553763
N81	N	-0.909026	-1.663067	0.361531
N82	N	-0.893090	-1.653488	0.266687
H83	H	-0.912154	-1.706110	0.214080
H84	H	-0.903668	-1.565614	0.683146
H85	H	-0.262580	-1.384113	1.205773
N86	N	-0.166585	-1.248363	1.117634
N87	N	-0.166564	-1.248394	1.215599
H88	H	-0.132284	-1.199969	1.255191
H89	H	-0.176474	-1.262220	0.907192
