data_functionalizedCrystal
_audit_creation_method	'MofGen! by Chris Wilmer'
_symmetry_space_group_name_H-M	'P1'
_symmetry_Int_Tables_number	1
_symmetry_cell_setting	triclinic
loop_
_symmetry_equiv_pos_as_xyz
  x,y,z
_cell_length_a	6.817900
_cell_length_b	17.329402
_cell_length_c	17.110486
_cell_angle_alpha	92.673421
_cell_angle_beta	99.060439
_cell_angle_gamma	103.025973
loop_
_atom_site_label
_atom_site_type_symbol
_atom_site_fract_x
_atom_site_fract_y
_atom_site_fract_z
V1	V	-3.971136	-0.108505	-0.239562
O2	O	-3.965663	0.005455	-0.242383
O3	O	-3.917307	-0.215379	-0.230823
O4	O	-3.901088	-0.106730	-0.347282
O5	O	-3.981994	-0.103946	-0.125119
V6	V	-4.458273	-0.094886	-0.226736
O7	O	-4.224468	-0.138378	-0.267696
O8	O	-4.655138	-0.065013	-0.198601
O9	O	-4.288896	0.011987	-0.235474
O10	O	-4.581143	-0.208846	-0.223914
O11	O	-4.564812	-0.099446	-0.341179
O12	O	-4.305114	-0.096661	-0.119016
C13	C	-3.761687	-0.241435	-0.225212
C14	C	-3.798817	-0.328805	-0.218786
C15	C	-3.841274	-0.381009	-0.287492
C16	C	-3.876141	-0.463101	-0.281447
C17	C	-3.868565	-0.492988	-0.206694
C18	C	-3.826098	-0.440777	-0.137982
C19	C	-3.791218	-0.358687	-0.144028
C20	C	-3.972617	-0.740290	-0.184849
C21	C	-4.007508	-0.822387	-0.178808
C22	C	-4.057545	-0.844705	-0.322273
C23	C	-4.022673	-0.762612	-0.328313
C24	C	-3.980199	-0.710409	-0.259601
C25	C	-3.904211	-0.576899	-0.200512
C26	C	-3.944540	-0.626499	-0.265783
C27	C	-3.740998	-0.102843	-0.373766
C28	C	-3.764974	-0.102099	-0.461781
C29	C	-3.957325	-0.105672	-0.506903
C30	C	-3.979841	-0.104972	-0.589602
C31	C	-3.810005	-0.100706	-0.627179
C32	C	-3.617637	-0.097130	-0.582050
C33	C	-3.595121	-0.097824	-0.499352
C34	C	-3.868926	-0.098409	-0.876685
C35	C	-3.891459	-0.097718	-0.959390
C36	C	-4.253661	-0.105559	-0.966936
C37	C	-4.231130	-0.106258	-0.884236
C38	C	-4.038763	-0.102678	-0.839115
C39	C	-3.833017	-0.099993	-0.711711
C40	C	-4.015752	-0.103385	-0.754583
C41	C	-4.107858	0.038040	-0.241083
C42	C	-4.049964	0.125409	-0.247514
C43	C	-4.128547	-0.100551	-0.092528
C44	C	-4.083810	-0.101291	-0.004512
H45	H	-4.095631	-0.109152	-0.476315
O46	O	-3.387665	-0.093966	-0.450670
H47	H	-3.330620	-0.145763	-0.469615
H48	H	-4.001328	-0.846716	-0.117932
H49	H	-3.712306	-0.095522	-0.839959
O50	O	-4.461122	-0.109404	-1.015604
H51	H	-4.569136	-0.165225	-1.006447
H52	H	-3.753146	-0.094241	-0.989981
O53	O	-3.434449	-0.092532	-0.622573
H54	H	-3.482421	-0.092660	-0.687660
H55	H	-3.938052	-0.697795	-0.128899
O56	O	-3.817902	-0.473005	-0.057352
H57	H	-3.849303	-0.538859	-0.064689
H58	H	-3.756638	-0.316182	-0.088079
H59	H	-3.950696	-0.602162	-0.326646
O60	O	-3.896053	-0.609136	-0.119887
H61	H	-3.741945	-0.585041	-0.083897
H62	H	-4.136468	-0.107877	-0.626337
O63	O	-4.198928	-0.107979	-0.714059
H64	H	-4.315584	-0.163531	-0.736638
H65	H	-4.369432	-0.109731	-0.853648
O66	O	-3.649824	-0.095416	-0.752227
H67	H	-3.625888	-0.041111	-0.784836
O68	O	-3.849684	-0.348833	-0.368148
H69	H	-3.970500	-0.315001	-0.377061
H70	H	-3.910711	-0.505603	-0.337395
H71	H	-4.092125	-0.887218	-0.378214
O72	O	-4.030823	-0.730376	-0.408939
H73	H	-4.066184	-0.780469	-0.455700
