data_functionalizedCrystal
_audit_creation_method	'MofGen! by Chris Wilmer'
_symmetry_space_group_name_H-M	'P1'
_symmetry_Int_Tables_number	1
_symmetry_cell_setting	triclinic
loop_
_symmetry_equiv_pos_as_xyz
  x,y,z
_cell_length_a	17.077404
_cell_length_b	18.215405
_cell_length_c	17.077396
_cell_angle_alpha	90.028580
_cell_angle_beta	90.019501
_cell_angle_gamma	90.022957
loop_
_atom_site_label
_atom_site_type_symbol
_atom_site_fract_x
_atom_site_fract_y
_atom_site_fract_z
Zn1	Zn	1.200055	-0.292980	0.443842
Zn2	Zn	1.700055	0.207020	0.943842
Zn3	Zn	1.199963	-0.416053	0.312576
Zn4	Zn	1.699963	0.083947	0.812576
Zn5	Zn	1.068787	-0.293006	0.312590
Zn6	Zn	1.568787	0.206994	0.812590
Zn7	Zn	1.068756	-0.416010	0.443800
Zn8	Zn	1.568756	0.083990	0.943800
O9	O	1.134390	-0.354512	0.378202
O10	O	1.634390	0.145488	0.878202
O11	O	1.309890	-0.309313	0.426441
O12	O	1.809890	0.190687	0.926441
O13	O	1.182537	-0.399760	0.202731
O14	O	1.682537	0.100240	0.702731
O15	O	1.086252	-0.190018	0.330025
O16	O	1.586252	0.309982	0.830025
O17	O	1.309822	-0.399735	0.330001
O18	O	1.809822	0.100265	0.830001
O19	O	1.182694	-0.189999	0.426455
O20	O	1.682694	0.310001	0.926455
O21	O	1.086163	-0.309357	0.202741
O22	O	1.586163	0.190643	0.702741
O23	O	0.958936	-0.309315	0.329983
O24	O	1.458936	0.190685	0.829983
O25	O	1.086198	-0.399660	0.553652
O26	O	1.586198	0.100340	1.053652
O27	O	0.958913	-0.399685	0.426382
O28	O	1.458913	0.100315	0.926382
O29	O	1.182664	-0.309271	0.553683
O30	O	1.682664	0.190729	1.053683
O31	O	1.182506	-0.519032	0.329959
O32	O	1.682506	-0.019032	0.829959
O33	O	1.086109	-0.519000	0.426369
O34	O	1.586109	-0.019000	0.926369
C35	C	0.930442	-0.354499	0.378180
C36	C	1.430442	0.145501	0.878180
C37	C	0.843193	-0.354511	0.378190
C38	C	1.343193	0.145489	0.878190
C39	C	0.802211	-0.401638	0.428304
C40	C	1.302211	0.098362	0.928304
C41	C	0.720230	-0.401639	0.428317
C42	C	1.220230	0.098361	0.928317
C43	C	0.679233	-0.354517	0.378210
C44	C	1.179233	0.145483	0.878210
C45	C	0.720221	-0.307385	0.328094
C46	C	1.220221	0.192615	0.828094
C47	C	0.802200	-0.307380	0.328086
C48	C	1.302200	0.192620	0.828086
C49	C	0.549351	-0.307400	0.328112
C50	C	1.049351	0.192600	0.828112
C51	C	0.467366	-0.307405	0.328119
C52	C	0.967366	0.192595	0.828119
C53	C	0.467381	-0.401659	0.428344
C54	C	0.967381	0.098341	0.928344
C55	C	0.549360	-0.401654	0.428336
C56	C	1.049360	0.098346	0.928336
C57	C	0.590342	-0.354522	0.378218
C58	C	1.090342	0.145478	0.878218
C59	C	1.134315	-0.545718	0.378175
C60	C	1.634315	-0.045718	0.878175
C61	C	1.134355	-0.627517	0.378190
C62	C	1.634355	-0.127517	0.878190
C63	C	1.184596	-0.815640	0.428469
C64	C	1.684596	-0.315640	0.928469
C65	C	1.184625	-0.892499	0.428484
C66	C	1.684625	-0.392499	0.928484
C67	C	1.084282	-0.892632	0.327984
C68	C	1.584282	-0.392632	0.827984
C69	C	1.084250	-0.815775	0.327974
C70	C	1.584250	-0.315775	0.827974
C71	C	1.134411	-0.777281	0.378215
C72	C	1.634411	-0.277281	0.878215
C73	C	1.134472	-0.930997	0.378240
C74	C	1.634472	-0.430997	0.878240
C75	C	1.134502	-1.014330	0.378255
C76	C	1.634502	-0.514330	0.878255
C77	C	1.134380	-0.693942	0.378201
C78	C	1.634380	-0.193942	0.878201
C79	C	1.339135	-0.354526	0.378224
C80	C	1.839135	0.145474	0.878224
C81	C	1.426384	-0.354532	0.378234
C82	C	1.926384	0.145468	0.878234
C83	C	1.134438	-0.354458	0.582946
C84	C	1.634438	0.145542	1.082946
C85	C	1.134458	-0.354435	0.670196
C86	C	1.634458	0.145565	1.170196
C87	C	1.134487	-0.162559	0.378246
C88	C	1.634487	0.337441	0.878246
C89	C	1.134529	-0.080760	0.378265
C90	C	1.634529	0.419240	0.878265
C91	C	1.134388	-0.354513	0.174254
C92	C	1.634388	0.145487	0.674254
C93	C	1.134520	-0.354329	0.087005
C94	C	1.634520	0.145671	0.587005
C95	C	1.184689	-0.307365	0.711204
C96	C	1.684689	0.192635	1.211204
C97	C	1.184699	-0.307341	0.793184
C98	C	1.684699	0.192659	1.293184
C99	C	1.134480	-0.354390	0.834156
C100	C	1.634480	0.145610	1.334156
C101	C	1.084243	-0.401462	0.793142
C102	C	1.584243	0.098538	1.293142
C103	C	1.084231	-0.401482	0.711163
C104	C	1.584231	0.098518	1.211163
C105	C	1.084275	-0.401418	0.964012
C106	C	1.584275	0.098582	1.464012
C107	C	1.084289	-0.401399	1.045997
C108	C	1.584289	0.098601	1.545997
C109	C	1.184743	-0.307276	1.046034
C110	C	1.684743	0.192724	1.546034
C111	C	1.184730	-0.307296	0.964055
C112	C	1.684730	0.192704	1.464055
C113	C	1.134494	-0.354369	0.923047
C114	C	1.634494	0.145631	1.423047
H115	H	0.433988	-0.269025	0.287327
H116	H	0.933988	0.230975	0.787327
H117	H	1.225604	-0.269013	0.826569
H118	H	1.725604	0.230987	1.326569
N119	N	0.593555	-0.256563	0.274062
N120	N	1.093555	0.243437	0.774062
H121	H	0.555146	-0.226713	0.242318
H122	H	1.055146	0.273287	0.742318
H123	H	0.627542	-0.286475	0.237676
H124	H	1.127542	0.213525	0.737676
H125	H	0.686834	-0.269014	0.287299
H126	H	1.186834	0.230986	0.787299
H127	H	1.225646	-0.268946	1.079426
H128	H	1.725646	0.231054	1.579426
N129	N	1.238859	-0.256623	0.667016
N130	N	1.738859	0.243377	1.167016
H131	H	1.270681	-0.226800	0.705437
H132	H	1.770681	0.273200	1.205437
H133	H	1.206920	-0.222572	0.633004
H134	H	1.706920	0.277428	1.133004
H135	H	1.225627	-0.268989	0.930698
H136	H	1.725627	0.231011	1.430698
N137	N	0.676032	-0.452479	0.482361
N138	N	1.176032	0.047521	0.982361
H139	H	0.642046	-0.422626	0.518806
H140	H	1.142046	0.077374	1.018806
H141	H	0.714496	-0.482322	0.514041
H142	H	1.214496	0.017678	1.014041
H143	H	1.043355	-0.439738	0.930626
H144	H	1.543355	0.060262	1.430626
H145	H	1.043352	-0.439768	0.826508
H146	H	1.543352	0.060232	1.326508
H147	H	1.043395	-0.439709	1.079354
H148	H	1.543395	0.060291	1.579354
H149	H	1.043319	-0.439804	0.677776
H150	H	1.543319	0.060196	1.177776
H151	H	0.835566	-0.269001	0.287281
H152	H	1.335566	0.230999	0.787281
H153	H	1.225488	-0.923728	0.469407
H154	H	1.725488	-0.423728	0.969407
H155	H	1.225440	-0.784300	0.469380
H156	H	1.725440	-0.284300	0.969380
H157	H	0.582738	-0.440029	0.469132
H158	H	1.082738	0.059971	0.969132
N159	N	0.846427	-0.452468	0.482343
N160	N	1.346427	0.047532	0.982343
H161	H	0.808022	-0.482322	0.514092
H162	H	1.308022	0.017678	1.014092
H163	H	0.880468	-0.422554	0.518723
H164	H	1.380468	0.077446	1.018723
N165	N	1.030189	-0.934150	0.273789
N166	N	1.530189	-0.434150	0.773789
H167	H	1.037827	-0.988660	0.281416
H168	H	1.537827	-0.488660	0.781416
H169	H	1.042442	-0.920735	0.217740
H170	H	1.542442	-0.420735	0.717740
H171	H	1.043380	-0.784540	0.287051
H172	H	1.543380	-0.284540	0.787051
H173	H	0.434010	-0.440032	0.469154
H174	H	0.934010	0.059968	0.969154
