data_functionalizedCrystal
_audit_creation_method	'MofGen! by Chris Wilmer'
_symmetry_space_group_name_H-M	'P1'
_symmetry_Int_Tables_number	1
_symmetry_cell_setting	triclinic
loop_
_symmetry_equiv_pos_as_xyz
  x,y,z
_cell_length_a	25.639239
_cell_length_b	18.215407
_cell_length_c	18.215399
_cell_angle_alpha	90.013852
_cell_angle_beta	89.967555
_cell_angle_gamma	89.965181
loop_
_atom_site_label
_atom_site_type_symbol
_atom_site_fract_x
_atom_site_fract_y
_atom_site_fract_z
Zn1	Zn	-0.208198	-1.124979	-0.416047
Zn2	Zn	0.291802	-0.624979	0.083953
Zn3	Zn	-0.295637	-1.124865	-0.292976
Zn4	Zn	0.204363	-0.624865	0.207024
Zn5	Zn	-0.208212	-1.001918	-0.293001
Zn6	Zn	0.291788	-0.501918	0.206999
Zn7	Zn	-0.295598	-1.001848	-0.416007
Zn8	Zn	0.204402	-0.501848	0.083993
O9	O	-0.251911	-1.063403	-0.354508
O10	O	0.248089	-0.563403	0.145492
O11	O	-0.219807	-1.227948	-0.399727
O12	O	0.280193	-0.727948	0.100273
O13	O	-0.284063	-1.108537	-0.189995
O14	O	0.215937	-0.608537	0.310005
O15	O	-0.135045	-1.018320	-0.309350
O16	O	0.364955	-0.518320	0.190650
O17	O	-0.284049	-1.227864	-0.309308
O18	O	0.215951	-0.727864	0.190692
O19	O	-0.135034	-1.108733	-0.399751
O20	O	0.364966	-0.608733	0.100249
O21	O	-0.219831	-1.018209	-0.190013
O22	O	0.280169	-0.518209	0.309987
O23	O	-0.219793	-0.898925	-0.309311
O24	O	0.280207	-0.398925	0.190689
O25	O	-0.283982	-1.018201	-0.518997
O26	O	0.216018	-0.518201	-0.018997
O27	O	-0.283996	-0.898873	-0.399684
O28	O	0.216004	-0.398873	0.100316
O29	O	-0.219769	-1.108665	-0.519026
O30	O	0.280231	-0.608665	-0.019026
O31	O	-0.368797	-1.108469	-0.309270
O32	O	0.131203	-0.608469	0.190730
O33	O	-0.368768	-1.018089	-0.399660
O34	O	0.131232	-0.518089	0.100340
C35	C	-0.251892	-0.872196	-0.354496
C36	C	0.248108	-0.372196	0.145504
C37	C	-0.251896	-0.790398	-0.354509
C38	C	0.248104	-0.290398	0.145491
C39	C	-0.285387	-0.525332	-0.401500
C40	C	0.214613	-0.025332	0.098500
C41	C	-0.285384	-0.602191	-0.401497
C42	C	0.214616	-0.102191	0.098503
C43	C	-0.218430	-0.602214	-0.307528
C44	C	0.281570	-0.102214	0.192472
C45	C	-0.218437	-0.525357	-0.307529
C46	C	0.281563	-0.025357	0.192471
C47	C	-0.251914	-0.486918	-0.354519
C48	C	0.248086	0.013082	0.145481
C49	C	-0.251905	-0.640634	-0.354515
C50	C	0.248095	-0.140634	0.145485
C51	C	-0.251901	-0.723968	-0.354511
C52	C	0.248099	-0.223968	0.145489
C53	C	-0.251919	-0.403579	-0.354523
C54	C	0.248081	0.096421	0.145477
C55	C	-0.387754	-1.063279	-0.354474
C56	C	0.112246	-0.563279	0.145526
C57	C	-0.445868	-1.063293	-0.354484
C58	C	0.054132	-0.563293	0.145516
C59	C	-0.806233	-1.110586	-0.307521
C60	C	-0.306233	-0.610586	0.192479
C61	C	-0.860838	-1.110615	-0.307531
C62	C	-0.360838	-0.610615	0.192469
O63	O	-0.889077	-1.150696	-0.267565
O64	O	-0.389077	-0.650696	0.232435
N65	N	-0.888150	-1.063532	-0.354556
N66	N	-0.388150	-0.563532	0.145444
C67	C	-0.860856	-1.016423	-0.401580
C68	C	-0.360856	-0.516423	0.098420
O69	O	-0.889101	-0.976379	-0.441580
O70	O	-0.389101	-0.476379	0.058420
C71	C	-0.806252	-1.016399	-0.401573
C72	C	-0.306252	-0.516399	0.098427
C73	C	-0.778943	-1.063479	-0.354540
C74	C	-0.278943	-0.563479	0.145460
C75	C	-0.778924	-1.157663	-0.260492
C76	C	-0.278924	-0.657663	0.239508
C77	C	-0.724323	-1.157634	-0.260482
C78	C	-0.224323	-0.657634	0.239518
C79	C	-0.697032	-1.110527	-0.307500
C80	C	-0.197032	-0.610527	0.192500
C81	C	-0.724342	-1.063450	-0.354529
C82	C	-0.224342	-0.563450	0.145471
C83	C	-0.778959	-0.969294	-0.448600
C84	C	-0.278959	-0.469294	0.051400
C85	C	-0.724352	-0.969274	-0.448590
C86	C	-0.224352	-0.469274	0.051410
C87	C	-0.697042	-1.016355	-0.401556
C88	C	-0.197042	-0.516355	0.098444
C89	C	-0.642451	-1.016313	-0.401537
C90	C	-0.142451	-0.516313	0.098463
N91	N	-0.615138	-1.063396	-0.354512
N92	N	-0.115138	-0.563396	0.145488
C93	C	-0.642429	-1.110503	-0.307494
C94	C	-0.142429	-0.610503	0.192506
C95	C	-0.975526	-1.016479	-0.401591
C96	C	-0.475526	-0.516479	0.098409
C97	C	-1.030129	-1.016499	-0.401595
C98	C	-0.530129	-0.516499	0.098405
C99	C	-1.030107	-1.110691	-0.307547
C100	C	-0.530107	-0.610691	0.192453
C101	C	-0.975504	-1.110667	-0.307540
C102	C	-0.475504	-0.610667	0.192460
C103	C	-0.948214	-1.063561	-0.354566
C104	C	-0.448214	-0.563561	0.145434
C105	C	-0.527764	-1.110436	-0.307474
C106	C	-0.027764	-0.610436	0.192526
C107	C	-0.473159	-1.110400	-0.307466
C108	C	0.026841	-0.610400	0.192534
C109	C	-0.473185	-1.016211	-0.401516
C110	C	0.026815	-0.516211	0.098484
C111	C	-0.527786	-1.016243	-0.401522
C112	C	-0.027786	-0.516243	0.098478
C113	C	-0.555074	-1.063362	-0.354499
C114	C	-0.055074	-0.563362	0.145501
O115	O	-0.614177	-0.976254	-0.441485
O116	O	-0.114177	-0.476254	0.058515
O117	O	-0.614177	-1.150547	-0.267507
O118	O	-0.114177	-0.650547	0.232493
C119	C	-0.115538	-1.063547	-0.354558
C120	C	0.384462	-0.563547	0.145442
C121	C	-0.057424	-1.063609	-0.354579
C122	C	0.442576	-0.563609	0.145421
C123	C	-0.251869	-1.063438	-0.546461
C124	C	0.248131	-0.563438	-0.046461
C125	C	-0.251852	-1.063452	-0.628260
C126	C	0.248148	-0.563452	-0.128260
C127	C	-0.251927	-0.255356	-0.354519
C128	C	0.248073	0.244644	0.145481
C129	C	-0.251923	-0.337155	-0.354525
C130	C	0.248077	0.162845	0.145475
C131	C	-0.218384	-1.016458	-0.816464
C132	C	0.281616	-0.516458	-0.316464
C133	C	-0.218373	-1.016471	-0.893323
C134	C	0.281627	-0.516471	-0.393323
C135	C	-0.285257	-1.110534	-0.893293
C136	C	0.214743	-0.610534	-0.393293
C137	C	-0.285270	-1.110517	-0.816436
C138	C	0.214730	-0.610517	-0.316436
C139	C	-0.251830	-1.063480	-0.778023
C140	C	0.248170	-0.563480	-0.278023
C141	C	-0.251807	-1.063510	-0.931739
C142	C	0.248193	-0.563510	-0.431739
C143	C	-0.251796	-1.063524	-1.015073
C144	C	0.248204	-0.563524	-0.515073
C145	C	-0.251842	-1.063465	-0.694684
C146	C	0.248158	-0.563465	-0.194684
C147	C	-0.251915	-1.063410	-0.163301
C148	C	0.248085	-0.563410	0.336699
C149	C	-0.251786	-1.063538	-0.081503
C150	C	0.248214	-0.563538	0.418497
H151	H	-0.312642	-0.633465	-0.439753
H152	H	0.187358	-0.133465	0.060247
H153	H	-0.191178	-0.494079	-0.269268
H154	H	0.308822	0.005921	0.230732
H155	H	-0.312647	-0.494038	-0.439763
H156	H	0.187353	0.005962	0.060237
O157	O	-0.185925	-0.639669	-0.261959
O158	O	0.314075	-0.139669	0.238041
C159	C	-0.193104	-0.715743	-0.272020
C160	C	0.306896	-0.215743	0.227980
H161	H	-0.210276	-0.726242	-0.328772
H162	H	0.289724	-0.226242	0.171228
H163	H	-0.153934	-0.744978	-0.267126
H164	H	0.346066	-0.244978	0.232874
H165	H	-0.220908	-0.737526	-0.228299
H166	H	0.279092	-0.237526	0.271701
O167	O	-0.317745	-1.156129	-0.778976
O168	O	0.182255	-0.656129	-0.278976
C169	C	-0.310577	-1.146036	-0.702903
C170	C	0.189423	-0.646036	-0.202903
H171	H	-0.293449	-1.089257	-0.692417
H172	H	0.206551	-0.589257	-0.192417
H173	H	-0.349745	-1.150979	-0.673673
H174	H	0.150255	-0.650979	-0.173673
H175	H	-0.282741	-1.189711	-0.681105
H176	H	0.217259	-0.689711	-0.181105
H177	H	-0.450925	-1.148739	-0.269163
H178	H	0.049075	-0.648739	0.230837
H179	H	-0.191139	-0.978180	-0.924618
H180	H	0.308861	-0.478180	-0.424618
H181	H	-0.702135	-0.930916	-0.486886
H182	H	-0.202135	-0.430916	0.013114
H183	H	-0.953271	-1.149004	-0.269242
H184	H	-0.453271	-0.649004	0.230758
O185	O	-0.317784	-1.156253	-0.930495
O186	O	0.182216	-0.656253	-0.430495
C187	C	-0.347298	-1.197765	-0.880082
C188	C	0.152702	-0.697765	-0.380082
H189	H	-0.349117	-1.167606	-0.825295
H190	H	0.150883	-0.667606	-0.325295
H191	H	-0.388489	-1.205582	-0.902271
H192	H	0.111511	-0.705582	-0.402271
H193	H	-0.328156	-1.253674	-0.871916
H194	H	0.171844	-0.753674	-0.371916
O195	O	-0.446750	-0.970391	-0.447219
O196	O	0.053250	-0.470391	0.052781
C197	C	-0.482559	-0.928857	-0.488753
C198	C	0.017441	-0.428857	0.011247
H199	H	-0.521499	-0.926329	-0.458616
H200	H	-0.021499	-0.426329	0.041384
H201	H	-0.466811	-0.870867	-0.496566
H202	H	0.033189	-0.370867	0.003434
H203	H	-0.488324	-0.955789	-0.544663
H204	H	0.011676	-0.455789	-0.044663
H205	H	-0.549975	-1.148806	-0.269185
H206	H	-0.049975	-0.648806	0.230815
O207	O	-0.805348	-1.203449	-0.214744
O208	O	-0.305348	-0.703449	0.285256
C209	C	-0.769524	-1.245002	-0.173254
C210	C	-0.269524	-0.745002	0.326746
H211	H	-0.730624	-1.214836	-0.170689
H212	H	-0.230624	-0.714836	0.329311
H213	H	-0.785313	-1.252893	-0.115274
H214	H	-0.285313	-0.752893	0.384726
H215	H	-0.763666	-1.300876	-0.200248
H216	H	-0.263666	-0.800876	0.299752
O217	O	-0.697776	-1.203269	-0.214720
O218	O	-0.197776	-0.703269	0.285280
C219	C	-0.666231	-1.161398	-0.167149
C220	C	-0.166231	-0.661398	0.332851
H221	H	-0.682721	-1.103443	-0.162553
H222	H	-0.182721	-0.603443	0.337447
H223	H	-0.665629	-1.188056	-0.110538
H224	H	-0.165629	-0.688056	0.389462
H225	H	-0.624837	-1.158838	-0.189887
H226	H	-0.124837	-0.658838	0.310113
O227	O	-1.056703	-1.156482	-0.261994
O228	O	-0.556703	-0.656482	0.238006
C229	C	-1.110752	-1.146418	-0.272107
C230	C	-0.610752	-0.646418	0.227893
H231	H	-1.118181	-1.122212	-0.328855
H232	H	-0.618181	-0.622212	0.171145
H233	H	-1.131455	-1.201576	-0.267259
H234	H	-0.631455	-0.701576	0.232741
H235	H	-1.126327	-1.107331	-0.228384
H236	H	-0.626327	-0.607331	0.271616
H237	H	-0.953310	-0.978113	-0.439883
H238	H	-0.453310	-0.478113	0.060117
O239	O	-1.056573	-0.970735	-0.447347
O240	O	-0.556573	-0.470735	0.052653
C241	C	-1.020770	-0.929141	-0.488826
C242	C	-0.520770	-0.429141	0.011174
H243	H	-0.981826	-0.959267	-0.491388
H244	H	-0.481826	-0.459267	0.008612
H245	H	-1.036519	-0.921260	-0.546808
H246	H	-0.536519	-0.421260	-0.046808
H247	H	-1.015014	-0.873263	-0.461825
H248	H	-0.515014	-0.373263	0.038175
H249	H	-0.801185	-0.930953	-0.486896
H250	H	-0.301185	-0.430953	0.013104
H251	H	-0.550023	-0.977909	-0.439823
H252	H	-0.050023	-0.477909	0.060177
H253	H	-0.191155	-0.978158	-0.785191
H254	H	0.308845	-0.478158	-0.285191
