data_functionalizedCrystal
_audit_creation_method	'MofGen! by Chris Wilmer'
_symmetry_space_group_name_H-M	'P1'
_symmetry_Int_Tables_number	1
_symmetry_cell_setting	triclinic
loop_
_symmetry_equiv_pos_as_xyz
  x,y,z
_cell_length_a	16.974829
_cell_length_b	16.992695
_cell_length_c	15.455301
_cell_angle_alpha	87.173129
_cell_angle_beta	96.654373
_cell_angle_gamma	92.974284
loop_
_atom_site_label
_atom_site_type_symbol
_atom_site_fract_x
_atom_site_fract_y
_atom_site_fract_z
O1	O	1.062138	-0.106181	0.146689
O2	O	1.395472	0.227152	0.480022
O3	O	1.728805	0.560485	0.813356
O4	O	0.832001	-0.118218	0.130536
O5	O	1.165334	0.215115	0.463870
O6	O	1.498667	0.548449	0.797203
O7	O	0.946147	0.001945	0.138541
O8	O	1.279480	0.335278	0.471874
O9	O	1.612813	0.668612	0.805208
O10	O	0.947992	-0.226344	0.138684
O11	O	1.281326	0.106989	0.472018
O12	O	1.614659	0.440322	0.805351
O13	O	0.939549	0.008088	-0.006185
O14	O	1.272882	0.341421	0.327148
O15	O	1.606216	0.674754	0.660482
O16	O	0.825403	-0.112075	-0.014190
O17	O	1.158736	0.221258	0.319144
O18	O	1.492070	0.554591	0.652477
O19	O	1.055541	-0.100039	0.001963
O20	O	1.388874	0.233295	0.335296
O21	O	1.722207	0.566628	0.668630
Cu22	Cu	0.939869	-0.105496	-0.019328
Cu23	Cu	1.273203	0.227837	0.314005
Cu24	Cu	1.606536	0.561171	0.647339
Cu25	Cu	0.947672	-0.112761	0.151827
Cu26	Cu	1.281005	0.220573	0.485161
Cu27	Cu	1.614339	0.553906	0.818494
O28	O	0.941395	-0.220202	-0.006042
O29	O	1.274728	0.113132	0.327292
O30	O	1.608061	0.446465	0.660625
C31	C	0.799118	-0.114574	0.056097
C32	C	1.132452	0.218760	0.389430
C33	C	1.465785	0.552093	0.722764
C34	C	0.710968	-0.112857	0.049910
C35	C	1.044302	0.220477	0.383243
C36	C	1.377635	0.553810	0.716577
C37	C	0.214388	-0.102859	0.006614
C38	C	0.547722	0.230475	0.339947
C39	C	0.881055	0.563808	0.673281
C40	C	0.297215	-0.104472	0.012429
C41	C	0.630548	0.228861	0.345763
C42	C	0.963882	0.562195	0.679096
C43	C	0.342225	-0.108621	0.094229
C44	C	0.675558	0.224712	0.427562
C45	C	1.008892	0.558046	0.760895
C46	C	0.304404	-0.111165	0.170217
C47	C	0.637738	0.222168	0.503551
C48	C	0.971071	0.555501	0.836884
C49	C	0.221579	-0.109558	0.164401
C50	C	0.554912	0.223776	0.497735
C51	C	0.888246	0.557109	0.831068
C52	C	0.590322	-0.113793	0.120083
C53	C	0.923655	0.219540	0.453416
C54	C	1.256989	0.552874	0.786749
C55	C	0.673153	-0.115398	0.125893
C56	C	1.006487	0.217935	0.459226
C57	C	1.339820	0.551268	0.792560
C58	C	0.665958	-0.108706	-0.031896
C59	C	0.999291	0.224627	0.301438
C60	C	1.332625	0.557960	0.634771
C61	C	0.583132	-0.107094	-0.037705
C62	C	0.916465	0.226239	0.295629
C63	C	1.249798	0.559572	0.628962
C64	C	0.545318	-0.109643	0.038284
C65	C	0.878651	0.223691	0.371617
C66	C	1.211984	0.557024	0.704951
N67	N	0.426887	-0.110268	0.100175
N68	N	0.760221	0.223066	0.433508
N69	N	1.093554	0.556399	0.766841
N70	N	0.460657	-0.108002	0.032337
N71	N	0.793990	0.225332	0.365671
N72	N	1.127323	0.558665	0.699004
C73	C	0.940474	0.034234	0.066012
C74	C	1.273807	0.367567	0.399345
C75	C	1.607141	0.700900	0.732678
C76	C	0.933392	0.121291	0.065515
C77	C	1.266725	0.454625	0.398848
C78	C	1.600059	0.787958	0.732181
C79	C	1.088423	-0.103683	0.076404
C80	C	1.421756	0.229650	0.409738
C81	C	1.755090	0.562984	0.743071
C82	C	1.176573	-0.105400	0.082597
C83	C	1.509907	0.227933	0.415931
C84	C	1.843240	0.561266	0.749264
C85	C	0.947067	-0.252490	0.066490
C86	C	1.280401	0.080843	0.399823
C87	C	1.613734	0.414176	0.733156
C88	C	0.954150	-0.339548	0.066992
C89	C	1.287483	-0.006215	0.400326
C90	C	1.620816	0.327118	0.733659
N91	N	0.934387	-0.100386	-0.139709
N92	N	1.267721	0.232947	0.193624
N93	N	1.601054	0.566281	0.526958
C94	C	1.001726	0.171400	0.070310
C95	C	1.335059	0.504733	0.403643
C96	C	1.668392	0.838067	0.736977
C97	C	0.995067	0.253199	0.069851
C98	C	1.328400	0.586532	0.403184
C99	C	1.661734	0.919866	0.736517
C100	C	0.920073	0.284888	0.064590
C101	C	1.253407	0.618222	0.397924
C102	C	1.586740	0.951555	0.731257
C103	C	0.851734	0.234773	0.059797
C104	C	1.185068	0.568106	0.393131
C105	C	1.518401	0.901440	0.726464
C106	C	0.858394	0.152975	0.060263
C107	C	1.191728	0.486309	0.393596
C108	C	1.525061	0.819642	0.726929
C109	C	0.892471	0.528539	0.062665
C110	C	1.225804	0.861872	0.395998
C111	C	1.559138	1.195205	0.729331
C112	C	0.885816	0.610343	0.062197
C113	C	1.219149	0.943676	0.395530
C114	C	1.552483	1.277010	0.728864
C115	C	1.029149	0.628763	0.072252
C116	C	1.362483	0.962097	0.405586
C117	C	1.695816	1.295430	0.738919
C118	C	1.035802	0.546963	0.072712
C119	C	1.369136	0.880297	0.406045
C120	C	1.702469	1.213630	0.739379
C121	C	0.967464	0.496855	0.067924
C122	C	1.300797	0.830189	0.401257
C123	C	1.634130	1.163522	0.734590
N124	N	0.913265	0.368500	0.064118
N125	N	1.246598	0.701833	0.397451
N126	N	1.579932	1.035167	0.730785
N127	N	0.974273	0.413245	0.068402
N128	N	1.307606	0.746578	0.401736
N129	N	1.640940	1.079912	0.735069
C130	C	0.983434	-0.146138	-0.181654
C131	C	1.316767	0.187195	0.151679
C132	C	1.650101	0.520529	0.485013
C133	C	0.979298	-0.142269	-0.272753
C134	C	1.312632	0.191065	0.060580
C135	C	1.645965	0.524398	0.393914
C136	C	0.926111	-0.092651	-0.321905
C137	C	1.259445	0.240682	0.011428
C138	C	1.592778	0.574016	0.344762
C139	C	0.877063	-0.046894	-0.279954
C140	C	1.210396	0.286439	0.053380
C141	C	1.543730	0.619773	0.386713
C142	C	0.881203	-0.050760	-0.188856
C143	C	1.214536	0.282574	0.144477
C144	C	1.547870	0.615907	0.477810
C145	C	0.908252	-0.075973	-0.594742
C146	C	1.241585	0.257361	-0.261409
C147	C	1.574918	0.590694	0.071924
C148	C	0.904113	-0.072112	-0.685846
C149	C	1.237447	0.261221	-0.352513
C150	C	1.570780	0.594554	-0.019179
C151	C	1.006350	-0.167487	-0.678639
C152	C	1.339684	0.165847	-0.345305
C153	C	1.673017	0.499180	-0.011972
C154	C	1.010482	-0.171351	-0.587540
C155	C	1.343816	0.161982	-0.254207
C156	C	1.677149	0.495315	0.079126
C157	C	0.961437	-0.125591	-0.545597
C158	C	1.294770	0.207742	-0.212263
C159	C	1.628103	0.541076	0.121070
N160	N	0.921881	-0.088697	-0.415023
N161	N	1.255214	0.244637	-0.081689
N162	N	1.588548	0.577970	0.251644
N163	N	0.965672	-0.129542	-0.452480
N164	N	1.299005	0.203792	-0.119147
N165	N	1.632338	0.537125	0.214186
N166	N	0.953160	-0.117864	0.272209
N167	N	1.286493	0.215469	0.605542
N168	N	1.619827	0.548802	0.938876
H169	H	0.177746	-0.099483	-0.059996
H170	H	0.511080	0.233850	0.273338
H171	H	0.844413	0.567183	0.606671
H172	H	1.053795	-0.211753	-0.547526
H173	H	1.387128	0.121580	-0.214193
H174	H	1.720462	0.454914	0.119141
C175	C	1.060303	-0.217813	-0.724784
C176	C	1.393636	0.115520	-0.391451
C177	C	1.726970	0.448854	-0.058117
N178	N	1.100945	-0.255718	-0.759540
N179	N	1.434278	0.077616	-0.426207
N180	N	1.767612	0.410949	-0.092874
H181	H	0.546491	-0.103699	-0.104314
H182	H	0.879824	0.229635	0.229019
H183	H	1.213157	0.562968	0.562353
C184	C	0.179983	-0.112351	0.247989
C185	C	0.513317	0.220983	0.581322
C186	C	0.846650	0.554316	0.914656
N187	N	0.148654	-0.114456	0.310950
N188	N	0.481988	0.218877	0.644284
N189	N	0.815321	0.552210	0.977617
C190	C	0.783221	0.097856	0.054985
C191	C	1.116555	0.431189	0.388319
C192	C	1.449888	0.764522	0.721652
N193	N	0.726598	0.056340	0.051013
N194	N	1.059932	0.389673	0.384346
N195	N	1.393265	0.723007	0.717679
H196	H	0.328000	-0.102400	-0.049444
H197	H	0.661333	0.230933	0.283889
H198	H	0.994667	0.564266	0.617222
C199	C	1.118301	0.512112	0.078498
C200	C	1.451634	0.845446	0.411832
C201	C	1.784968	1.178779	0.745165
N202	N	1.180440	0.485863	0.082853
N203	N	1.513773	0.819196	0.416186
N204	N	1.847107	1.152529	0.749520
H205	H	0.696755	-0.106633	-0.093761
H206	H	1.030088	0.226700	0.239572
H207	H	1.363422	0.560033	0.572905
H208	H	1.062793	0.145606	0.074588
H209	H	1.396127	0.478939	0.407922
H210	H	1.729460	0.812273	0.741255
H211	H	0.341058	-0.114548	0.236820
H212	H	0.674391	0.218785	0.570153
H213	H	1.007725	0.552118	0.903487
H214	H	1.026740	-0.186547	-0.141641
H215	H	1.360073	0.146786	0.191693
H216	H	1.693406	0.480120	0.525026
H217	H	0.709798	-0.118784	0.192507
H218	H	1.043132	0.214550	0.525840
H219	H	1.376465	0.547883	0.859174
H220	H	1.050712	0.293995	0.073754
H221	H	1.384045	0.627328	0.407087
H222	H	1.717378	0.960662	0.740420
H223	H	0.559544	-0.115865	0.181958
H224	H	0.892878	0.217468	0.515292
H225	H	1.226211	0.550801	0.848625
C226	C	1.104317	0.683888	0.077527
C227	C	1.437650	1.017221	0.410861
C228	C	1.770983	1.350555	0.744194
N229	N	1.160936	0.725408	0.081505
N230	N	1.494270	1.058742	0.414838
N231	N	1.827603	1.392075	0.748172
C232	C	0.803314	0.645198	0.056416
C233	C	1.136647	0.978531	0.389750
C234	C	1.469981	1.311865	0.723083
N235	N	0.741176	0.671451	0.052063
N236	N	1.074510	1.004784	0.385396
N237	N	1.407843	1.338118	0.718729
H238	H	0.836824	0.487750	0.058765
H239	H	1.170158	0.821083	0.392099
H240	H	1.503491	1.154417	0.725432
C241	C	0.854293	-0.025641	-0.548617
C242	C	1.187626	0.307692	-0.215283
C243	C	1.520959	0.641025	0.118050
N244	N	0.813646	0.012269	-0.513872
N245	N	1.146979	0.345602	-0.180539
N246	N	1.480313	0.678935	0.152794
H247	H	0.833761	-0.006490	-0.319980
H248	H	1.167094	0.326843	0.013353
H249	H	1.500427	0.660176	0.346686
C250	C	0.769240	0.269634	0.054003
C251	C	1.102573	0.602968	0.387337
C252	C	1.435907	0.936301	0.720670
N253	N	0.707103	0.295891	0.049632
N254	N	1.040436	0.629224	0.382966
N255	N	1.373770	0.962558	0.716299
C256	C	0.827246	-0.000431	-0.142718
C257	C	1.160579	0.332903	0.190616
C258	C	1.493913	0.666236	0.523949
N259	N	0.786605	0.037480	-0.107967
N260	N	1.119938	0.370814	0.225366
N261	N	1.453271	0.704147	0.558700
C262	C	1.033224	-0.192631	-0.318890
C263	C	1.366558	0.140702	0.014443
C264	C	1.699891	0.474035	0.347777
N265	N	1.073834	-0.230577	-0.353641
N266	N	1.407167	0.102756	-0.020307
N267	N	1.740500	0.436089	0.313026
H268	H	0.860798	-0.031708	-0.725864
H269	H	1.194131	0.301626	-0.392531
H270	H	1.527465	0.634959	-0.059197
