data_functionalizedCrystal
_audit_creation_method	'MofGen! by Chris Wilmer'
_symmetry_space_group_name_H-M	'P1'
_symmetry_Int_Tables_number	1
_symmetry_cell_setting	triclinic
loop_
_symmetry_equiv_pos_as_xyz
  x,y,z
_cell_length_a	10.654541
_cell_length_b	10.489741
_cell_length_c	9.130307
_cell_angle_alpha	89.996969
_cell_angle_beta	89.999822
_cell_angle_gamma	84.511551
loop_
_atom_site_label
_atom_site_type_symbol
_atom_site_fract_x
_atom_site_fract_y
_atom_site_fract_z
O1	O	1.667923	0.179145	-0.121754
O2	O	1.302452	0.196218	-0.121766
O3	O	1.493503	0.002080	-0.121751
O4	O	1.476871	0.373284	-0.121769
O5	O	1.493497	0.002078	0.121848
O6	O	1.302445	0.196216	0.121833
O7	O	1.667916	0.179143	0.121845
Cu8	Cu	1.485180	0.187680	0.144081
Cu9	Cu	1.485188	0.187682	-0.144003
O10	O	1.476865	0.373282	0.121830
C11	C	1.255650	0.194964	0.000032
C12	C	1.116205	0.191216	0.000027
C13	C	1.088342	0.423360	-0.000003
C14	C	1.008902	0.537667	-0.000023
C15	C	0.877882	0.534137	-0.000025
C16	C	0.826301	0.416288	-0.000001
C17	C	0.905742	0.301982	0.000020
C18	C	1.036763	0.305524	0.000017
C19	C	0.933604	0.069840	0.000060
C20	C	1.064624	0.073367	0.000051
C21	C	0.882024	-0.048009	0.000084
C22	C	0.961465	-0.162318	0.000094
C23	C	1.092492	-0.158783	0.000093
C24	C	1.144065	-0.040939	0.000071
C25	C	1.492244	-0.045452	0.000048
C26	C	1.488486	-0.187080	0.000045
C27	C	1.366925	-0.255160	0.000030
C28	C	1.424346	-0.347312	0.120139
C29	C	1.424381	-0.347285	-0.120031
C30	C	1.545957	-0.277366	0.120253
C31	C	1.545975	-0.277329	-0.120025
C32	C	1.603484	-0.369454	0.000114
C33	C	1.714718	0.180397	0.000044
C34	C	1.854163	0.184146	0.000039
C35	C	1.478124	0.420814	0.000028
C36	C	1.481882	0.562441	0.000021
N37	N	1.485184	0.187677	0.346704
N38	N	1.485194	0.187674	-0.346625
C39	C	1.654430	0.015818	0.346708
C40	C	1.739061	-0.070107	0.423376
C41	C	1.739074	-0.070108	0.576710
C42	C	1.654444	0.015823	0.653378
C43	C	1.569812	0.101749	0.576710
C44	C	1.569811	0.101743	0.423373
C45	C	1.400562	0.273600	0.576706
C46	C	1.400554	0.273609	0.423373
C47	C	1.315932	0.359532	0.653375
C48	C	1.231305	0.445465	0.576706
C49	C	1.231296	0.445464	0.423363
C50	C	1.315922	0.359535	0.346704
H51	H	1.266979	-0.205460	0.000147
C52	C	1.551523	-0.270347	-0.382764
C53	C	1.615353	-0.235435	-0.257103
H54	H	1.594345	-0.244471	-0.467396
H55	H	1.548976	-0.360601	-0.384239
H56	H	1.467964	-0.229624	-0.381888
H57	H	1.698910	-0.276166	-0.257974
H58	H	1.617914	-0.145164	-0.255628
C59	C	1.814227	-0.146406	0.811769
C60	C	1.832097	-0.164559	0.660995
H61	H	1.871651	-0.204722	0.863800
H62	H	1.828628	-0.061150	0.836875
H63	H	1.730285	-0.161058	0.836887
H64	H	1.916037	-0.149898	0.635875
H65	H	1.817706	-0.249835	0.635879
C66	C	0.944864	-0.361285	-0.125097
C67	C	0.904769	-0.291847	0.000119
H68	H	0.909863	-0.441255	-0.125076
H69	H	0.917658	-0.314176	-0.210033
H70	H	1.034264	-0.375534	-0.125088
H71	H	0.815369	-0.277590	0.000105
H72	H	0.931967	-0.338967	0.085077
H73	H	1.157166	-0.251866	0.000116
H74	H	1.597344	-0.246560	0.221910
H75	H	1.372908	-0.378299	0.221679
H76	H	1.703520	-0.418927	0.000184
H77	H	1.315940	0.359522	0.778227
C78	C	1.231073	-0.330810	-0.256871
C79	C	1.354932	-0.389066	-0.257116
H80	H	1.188198	-0.356595	-0.341503
H81	H	1.188710	-0.355942	-0.171597
H82	H	1.232317	-0.240381	-0.257372
H83	H	1.353689	-0.479496	-0.256604
H84	H	1.397306	-0.363942	-0.342413
H85	H	1.162375	0.515430	0.360948
H86	H	1.654439	0.015821	0.221856
C87	C	1.339340	-0.099076	-0.125144
C88	C	1.288083	-0.037049	0.000068
H89	H	1.428250	-0.096662	-0.125145
H90	H	1.320000	-0.185608	-0.125115
H91	H	1.304547	-0.057006	-0.210092
H92	H	1.322870	-0.079125	0.085016
H93	H	1.307434	0.049499	0.000052
H94	H	1.654449	0.015807	0.778230
C95	C	1.342320	0.479957	0.127036
C96	C	1.315920	0.359531	0.178158
H97	H	1.342327	0.479945	0.022981
H98	H	1.279807	0.543415	0.161710
H99	H	1.422744	0.498171	0.161728
H100	H	1.235492	0.341321	0.143474
H101	H	1.378436	0.296053	0.143468
H102	H	1.162399	0.515419	0.639139
C103	C	1.025496	0.736640	0.125165
C104	C	1.065599	0.667203	-0.000049
H105	H	1.060503	0.816607	0.125153
H106	H	0.936108	0.750889	0.125152
H107	H	1.052702	0.689522	0.210111
H108	H	1.038386	0.714318	-0.084996
H109	H	1.155007	0.652959	-0.000049
C110	C	0.631027	0.474416	-0.125222
C111	C	0.682283	0.412406	0.000008
H112	H	0.542116	0.472009	-0.125217
H113	H	0.650374	0.560946	-0.125222
H114	H	0.665816	0.432331	-0.210157
H115	H	0.647500	0.454497	0.084945
H116	H	0.662924	0.325860	0.000022
C117	C	1.810886	-0.290223	0.376074
C118	C	1.832085	-0.164527	0.339056
H119	H	1.868310	-0.348503	0.324001
H120	H	1.823030	-0.302545	0.478346
H121	H	1.726943	-0.304871	0.350957
H122	H	1.916026	-0.149876	0.364184
H123	H	1.819952	-0.152200	0.236762
H124	H	0.813200	0.627215	-0.000031
H125	H	1.195024	0.426246	-0.000034
H126	H	0.775340	-0.050875	0.000091
