data_functionalizedCrystal
_audit_creation_method	'MofGen! by Chris Wilmer'
_symmetry_space_group_name_H-M	'P1'
_symmetry_Int_Tables_number	1
_symmetry_cell_setting	triclinic
loop_
_symmetry_equiv_pos_as_xyz
  x,y,z
_cell_length_a	13.897449
_cell_length_b	21.295417
_cell_length_c	13.897441
_cell_angle_alpha	89.965596
_cell_angle_beta	89.981404
_cell_angle_gamma	90.030982
loop_
_atom_site_label
_atom_site_type_symbol
_atom_site_fract_x
_atom_site_fract_y
_atom_site_fract_z
Zn1	Zn	1.474602	-0.250574	-0.545349
Zn2	Zn	1.724602	-0.000574	-0.295349
Zn3	Zn	1.974602	0.249426	-0.045349
Zn4	Zn	2.224602	0.499426	0.204651
Zn5	Zn	1.474468	-0.355851	-0.384037
Zn6	Zn	1.724468	-0.105851	-0.134037
Zn7	Zn	1.974468	0.144149	0.115963
Zn8	Zn	2.224468	0.394149	0.365963
Zn9	Zn	1.313297	-0.250602	-0.384068
Zn10	Zn	1.563297	-0.000602	-0.134068
Zn11	Zn	1.813297	0.249398	0.115932
Zn12	Zn	2.063297	0.499398	0.365932
Zn13	Zn	1.313239	-0.355811	-0.545290
Zn14	Zn	1.563239	-0.105811	-0.295290
Zn15	Zn	1.813239	0.144189	-0.045290
Zn16	Zn	2.063239	0.394189	0.204710
O17	O	1.393901	-0.303209	-0.464686
O18	O	1.643901	-0.053209	-0.214686
O19	O	1.893901	0.196791	0.035314
O20	O	2.143901	0.446791	0.285314
O21	O	1.609566	-0.264544	-0.523963
O22	O	1.859566	-0.014544	-0.273963
O23	O	2.109566	0.235456	-0.023963
O24	O	2.359566	0.485456	0.226037
O25	O	1.453057	-0.341918	-0.249059
O26	O	1.703057	-0.091918	0.000941
O27	O	1.953057	0.158082	0.250941
O28	O	2.203057	0.408082	0.500941
O29	O	1.334775	-0.162509	-0.405499
O30	O	1.584775	0.087491	-0.155499
O31	O	1.834775	0.337491	0.094501
O32	O	2.084775	0.587491	0.344501
O33	O	1.609467	-0.341890	-0.405448
O34	O	1.859467	-0.091890	-0.155448
O35	O	2.109467	0.158110	0.094552
O36	O	2.359467	0.408110	0.344552
O37	O	1.453285	-0.162488	-0.523992
O38	O	1.703285	0.087512	-0.273992
O39	O	1.953285	0.337512	-0.023992
O40	O	2.203285	0.587512	0.226008
O41	O	1.334645	-0.264592	-0.249082
O42	O	1.584645	-0.014592	0.000918
O43	O	1.834645	0.235408	0.250918
O44	O	2.084645	0.485408	0.500918
O45	O	1.178308	-0.264553	-0.405442
O46	O	1.428308	-0.014553	-0.155442
O47	O	1.678308	0.235447	0.094558
O48	O	1.928308	0.485447	0.344558
O49	O	1.334676	-0.341823	-0.680279
O50	O	1.584676	-0.091823	-0.430279
O51	O	1.834676	0.158177	-0.180279
O52	O	2.084676	0.408177	0.069721
O53	O	1.178265	-0.341850	-0.523891
O54	O	1.428265	-0.091850	-0.273891
O55	O	1.678265	0.158150	-0.023891
O56	O	1.928265	0.408150	0.226109
O57	O	1.453228	-0.264505	-0.680323
O58	O	1.703228	-0.014505	-0.430323
O59	O	1.953228	0.235495	-0.180323
O60	O	2.203228	0.485495	0.069677
O61	O	1.453000	-0.443935	-0.405390
O62	O	1.703000	-0.193935	-0.155390
O63	O	1.953000	0.056065	0.094610
O64	O	2.203000	0.306065	0.344610
O65	O	1.334546	-0.443906	-0.523862
O66	O	1.584546	-0.193906	-0.273862
O67	O	1.834546	0.056094	-0.023862
O68	O	2.084546	0.306094	0.226138
C69	C	1.143287	-0.303201	-0.464664
C70	C	1.393287	-0.053201	-0.214664
C71	C	1.643287	0.196799	0.035336
C72	C	1.893287	0.446799	0.285336
C73	C	1.036073	-0.303213	-0.464677
C74	C	1.286073	-0.053213	-0.214677
C75	C	1.536073	0.196787	0.035323
C76	C	1.786073	0.446787	0.285323
C77	C	1.393778	-0.466761	-0.464637
C78	C	1.643778	-0.216761	-0.214637
C79	C	1.893778	0.033239	0.035363
C80	C	2.143778	0.283239	0.285363
C81	C	1.393814	-0.536729	-0.464648
C82	C	1.643814	-0.286729	-0.214648
C83	C	1.893814	-0.036729	0.035352
C84	C	2.143814	0.213271	0.285352
C85	C	0.839778	-0.303215	-0.464703
C86	C	1.089778	-0.053215	-0.214703
C87	C	1.339778	0.196785	0.035297
C88	C	1.589778	0.446785	0.285297
C89	C	0.949010	-0.303212	-0.464686
C90	C	1.199010	-0.053212	-0.214686
C91	C	1.449010	0.196788	0.035314
C92	C	1.699010	0.446788	0.285314
C93	C	1.455487	-0.569528	-0.526392
C94	C	1.705487	-0.319528	-0.276392
C95	C	1.955487	-0.069528	-0.026392
C96	C	2.205487	0.180472	0.223608
C97	C	1.455521	-0.635270	-0.526416
C98	C	1.705521	-0.385270	-0.276416
C99	C	1.955521	-0.135270	-0.026416
C100	C	2.205521	0.114730	0.223584
C101	C	1.393892	-0.668212	-0.464679
C102	C	1.643892	-0.418212	-0.214679
C103	C	1.893892	-0.168212	0.035321
C104	C	2.143892	0.081788	0.285321
C105	C	1.332207	-0.635405	-0.402931
C106	C	1.582207	-0.385405	-0.152931
C107	C	1.832207	-0.135405	0.097069
C108	C	2.082207	0.114595	0.347069
C109	C	1.332168	-0.569664	-0.402916
C110	C	1.582168	-0.319664	-0.152916
C111	C	1.832168	-0.069664	0.097084
C112	C	2.082168	0.180336	0.347084
N113	N	1.386606	-0.771477	-0.380261
N114	N	1.636606	-0.521477	-0.130261
N115	N	1.886606	-0.271477	0.119739
N116	N	2.136606	-0.021477	0.369739
N117	N	1.386649	-0.833929	-0.380279
N118	N	1.636649	-0.583929	-0.130279
N119	N	1.886649	-0.333929	0.119721
N120	N	2.136649	-0.083929	0.369721
C121	C	1.394005	-0.866286	-0.464722
C122	C	1.644005	-0.616286	-0.214722
C123	C	1.894005	-0.366286	0.035278
C124	C	2.144005	-0.116286	0.285278
N125	N	1.401335	-0.833833	-0.549150
N126	N	1.651335	-0.583833	-0.299150
N127	N	1.901335	-0.333833	-0.049150
N128	N	2.151335	-0.083833	0.200850
N129	N	1.401297	-0.771376	-0.549132
N130	N	1.651297	-0.521376	-0.299132
N131	N	1.901297	-0.271376	-0.049132
N132	N	2.151297	-0.021376	0.200868
C133	C	1.393927	-0.739497	-0.464689
C134	C	1.643927	-0.489497	-0.214689
C135	C	1.893927	-0.239497	0.035311
C136	C	2.143927	0.010503	0.285311
C137	C	1.455718	-0.970371	-0.526497
C138	C	1.705718	-0.720371	-0.276497
C139	C	1.955718	-0.470371	-0.026497
C140	C	2.205718	-0.220371	0.223503
C141	C	1.455745	-1.036114	-0.526522
C142	C	1.705745	-0.786114	-0.276522
C143	C	1.955745	-0.536114	-0.026522
C144	C	2.205745	-0.286114	0.223478
C145	C	1.332437	-1.036248	-0.403029
C146	C	1.582437	-0.786248	-0.153029
C147	C	1.832437	-0.536248	0.096971
C148	C	2.082437	-0.286248	0.346971
C149	C	1.332405	-0.970505	-0.403012
C150	C	1.582405	-0.720505	-0.153012
C151	C	1.832405	-0.470505	0.096988
C152	C	2.082405	-0.220505	0.346988
C153	C	1.394050	-0.937571	-0.464745
C154	C	1.644050	-0.687571	-0.214745
C155	C	1.894050	-0.437571	0.035255
C156	C	2.144050	-0.187571	0.285255
C157	C	1.645494	-0.303218	-0.464708
C158	C	1.895494	-0.053218	-0.214708
C159	C	2.145494	0.196782	0.035292
C160	C	2.395494	0.446782	0.285292
C161	C	1.752708	-0.303222	-0.464718
C162	C	2.002708	-0.053222	-0.214718
C163	C	2.252708	0.196778	0.035282
C164	C	2.502708	0.446778	0.285282
C165	C	1.393960	-0.303157	-0.716279
C166	C	1.643960	-0.053157	-0.466279
C167	C	1.893960	0.196843	-0.216279
C168	C	2.143960	0.446843	0.033721
C169	C	1.393986	-0.303134	-0.823493
C170	C	1.643986	-0.053134	-0.573493
C171	C	1.893986	0.196866	-0.323493
C172	C	2.143986	0.446866	-0.073493
C173	C	1.394051	-0.139019	-0.464756
C174	C	1.644051	0.110981	-0.214756
C175	C	1.894051	0.360981	0.035244
C176	C	2.144051	0.610981	0.285244
C177	C	1.394115	-0.069051	-0.464786
C178	C	1.644115	0.180949	-0.214786
C179	C	1.894115	0.430949	0.035214
C180	C	2.144115	0.680949	0.285214
C181	C	1.394005	-0.303116	-0.910563
C182	C	1.644005	-0.053116	-0.660563
C183	C	1.894005	0.196884	-0.410563
C184	C	2.144005	0.446884	-0.160563
C185	C	1.394033	-0.303088	-1.019795
C186	C	1.644033	-0.053088	-0.769795
C187	C	1.894033	0.196912	-0.519795
C188	C	2.144033	0.446912	-0.269795
C189	C	1.393898	-0.303217	-0.214072
C190	C	1.643898	-0.053217	0.035928
C191	C	1.893898	0.196783	0.285928
C192	C	2.143898	0.446783	0.535928
C193	C	1.394060	-0.303062	-0.106858
C194	C	1.644060	-0.053062	0.143142
C195	C	1.894060	0.196938	0.393142
C196	C	2.144060	0.446938	0.643142
H197	H	1.505680	-0.542714	-0.576660
H198	H	1.755680	-0.292714	-0.326660
H199	H	2.005680	-0.042714	-0.076660
H200	H	2.255680	0.207286	0.173340
Br201	Br	1.539437	-1.080628	-0.610340
Br202	Br	1.789437	-0.830628	-0.360340
Br203	Br	2.039437	-0.580628	-0.110340
Br204	Br	2.289437	-0.330628	0.139660
Br205	Br	1.539230	-0.679793	-0.610211
Br206	Br	1.789230	-0.429793	-0.360211
Br207	Br	2.039230	-0.179793	-0.110211
Br208	Br	2.289230	0.070207	0.139789
H209	H	1.282252	-1.063068	-0.352768
H210	H	1.532252	-0.813068	-0.102768
H211	H	1.782252	-0.563068	0.147232
H212	H	2.032252	-0.313068	0.397232
H213	H	1.282027	-0.662230	-0.352667
H214	H	1.532027	-0.412230	-0.102667
H215	H	1.782027	-0.162230	0.147333
H216	H	2.032027	0.087770	0.397333
Br217	Br	1.248460	-0.525148	-0.319118
Br218	Br	1.498460	-0.275148	-0.069118
Br219	Br	1.748460	-0.025148	0.180882
Br220	Br	1.998460	0.224852	0.430882
Br221	Br	1.539375	-0.925670	-0.610276
Br222	Br	1.789375	-0.675670	-0.360276
Br223	Br	2.039375	-0.425670	-0.110276
Br224	Br	2.289375	-0.175670	0.139724
Br225	Br	1.248698	-0.925989	-0.319215
Br226	Br	1.498698	-0.675989	-0.069215
Br227	Br	1.748698	-0.425989	0.180785
Br228	Br	1.998698	-0.175989	0.430785
