data_functionalizedCrystal
_audit_creation_method	'MofGen! by Chris Wilmer'
_symmetry_space_group_name_H-M	'P1'
_symmetry_Int_Tables_number	1
_symmetry_cell_setting	triclinic
loop_
_symmetry_equiv_pos_as_xyz
  x,y,z
_cell_length_a	6.817900
_cell_length_b	15.301126
_cell_length_c	11.168136
_cell_angle_alpha	93.625843
_cell_angle_beta	108.508683
_cell_angle_gamma	104.177575
loop_
_atom_site_label
_atom_site_type_symbol
_atom_site_fract_x
_atom_site_fract_y
_atom_site_fract_z
V1	V	-4.087806	-0.124772	-0.394083
O2	O	-4.070525	0.005982	-0.386186
O3	O	-4.042399	-0.247389	-0.391768
O4	O	-4.064435	-0.122859	-0.565783
O5	O	-4.048336	-0.119410	-0.210966
V6	V	-4.567803	-0.109132	-0.372135
O7	O	-4.356799	-0.159081	-0.442228
O8	O	-4.749007	-0.074823	-0.323989
O9	O	-4.390003	0.013485	-0.374450
O10	O	-4.702481	-0.239886	-0.380031
O11	O	-4.724669	-0.114494	-0.555251
O12	O	-4.367967	-0.111045	-0.200435
C13	C	-3.887318	-0.277280	-0.385649
C14	C	-3.931646	-0.377521	-0.384900
C15	C	-4.135628	-0.429207	-0.390861
C16	C	-4.177271	-0.523395	-0.390165
C17	C	-4.014924	-0.565893	-0.383499
C18	C	-3.810926	-0.514201	-0.377542
C19	C	-3.769290	-0.420016	-0.378247
C20	C	-3.897718	-0.710511	-0.376069
C21	C	-3.939354	-0.804702	-0.375362
C22	C	-4.305699	-0.813891	-0.387987
C23	C	-4.264064	-0.719706	-0.388692
C24	C	-4.060067	-0.668019	-0.382733
C25	C	-3.915426	-0.118429	-0.607621
C26	C	-3.977621	-0.117676	-0.747989
C27	C	-4.179432	-0.121617	-0.816693
C28	C	-4.243717	-0.120839	-0.961771
C29	C	-4.208426	0.043371	-0.380565
C30	C	-4.143337	0.143611	-0.381322
C31	C	-4.180317	-0.115478	-0.158590
C32	C	-4.097361	-0.116227	-0.018221
H33	H	-4.267830	-0.394611	-0.396277
O34	O	-3.828384	-0.112843	-0.806055
C35	C	-3.808427	-0.033698	-0.864566
H36	H	-3.961904	-0.011343	-0.883997
H37	H	-3.665378	0.023192	-0.798458
C38	C	-3.584040	-0.081745	-0.967671
C39	C	-3.772550	-0.054293	-0.991546
H40	H	-3.561899	-0.094447	-1.045995
H41	H	-3.597477	-0.135066	-0.928248
H42	H	-3.464854	-0.034333	-0.912578
H43	H	-3.891735	-0.101710	-1.046625
H44	H	-3.759132	-0.000981	-1.030982
H45	H	-3.924475	-0.112858	-0.959169
H46	H	-4.396261	-0.685106	-0.394113
O47	O	-4.503694	-0.864163	-0.393590
C48	C	-4.484081	-0.906654	-0.283634
H49	H	-4.313074	-0.912704	-0.241427
H50	H	-4.520115	-0.864042	-0.210050
C51	C	-4.855015	-0.995027	-0.371775
C52	C	-4.644986	-1.002465	-0.319942
H53	H	-4.954274	-1.054126	-0.394168
H54	H	-4.868233	-0.966398	-0.445853
H55	H	-4.885013	-0.959513	-0.310446
H56	H	-4.614982	-1.037969	-0.381275
H57	H	-4.631767	-1.031103	-0.245875
H58	H	-4.343372	-0.565475	-0.395021
O59	O	-4.328801	-0.126490	-0.758720
C60	C	-4.348673	-0.205609	-0.700147
H61	H	-4.292451	-0.257682	-0.748469
H62	H	-4.245271	-0.187190	-0.594565
C63	C	-4.655059	-0.182616	-0.654168
C64	C	-4.586023	-0.246576	-0.713524
H65	H	-4.801464	-0.207885	-0.662413
H66	H	-4.641667	-0.129310	-0.693625
H67	H	-4.568871	-0.167272	-0.566188
H68	H	-4.672192	-0.261909	-0.801505
H69	H	-4.599435	-0.299886	-0.674082
H70	H	-3.678746	-0.548811	-0.372122
H71	H	-3.807173	-0.839306	-0.369971
H72	H	-3.603192	-0.377934	-0.373398
H73	H	-3.731611	-0.668432	-0.371226
H74	H	-4.416604	-0.124217	-1.020833
