data_functionalizedCrystal
_audit_creation_method	'MofGen! by Chris Wilmer'
_symmetry_space_group_name_H-M	'P1'
_symmetry_Int_Tables_number	1
_symmetry_cell_setting	triclinic
loop_
_symmetry_equiv_pos_as_xyz
  x,y,z
_cell_length_a	29.839125
_cell_length_b	29.839134
_cell_length_c	17.077402
_cell_angle_alpha	90.015628
_cell_angle_beta	89.984422
_cell_angle_gamma	89.975687
loop_
_atom_site_label
_atom_site_type_symbol
_atom_site_fract_x
_atom_site_fract_y
_atom_site_fract_z
Zn1	Zn	-0.254160	0.686778	-0.312770
Zn2	Zn	-0.004160	0.936778	-0.062770
Zn3	Zn	0.245840	1.186778	0.187230
Zn4	Zn	0.495840	1.436778	0.437230
Zn5	Zn	-0.179032	0.686734	-0.444012
Zn6	Zn	0.070968	0.936734	-0.194012
Zn7	Zn	0.320968	1.186734	0.055988
Zn8	Zn	0.570968	1.436734	0.305988
Zn9	Zn	-0.179026	0.611660	-0.312748
Zn10	Zn	0.070974	0.861660	-0.062748
Zn11	Zn	0.320974	1.111660	0.187252
Zn12	Zn	0.570974	1.361660	0.437252
Zn13	Zn	-0.254118	0.611632	-0.443981
Zn14	Zn	-0.004118	0.861632	-0.193981
Zn15	Zn	0.245882	1.111632	0.056019
Zn16	Zn	0.495882	1.361632	0.306019
O17	O	-0.216584	0.649201	-0.378378
O18	O	0.033416	0.899201	-0.128378
O19	O	0.283416	1.149201	0.121622
O20	O	0.533416	1.399201	0.371622
O21	O	-0.244214	0.749639	-0.330202
O22	O	0.005786	0.999639	-0.080202
O23	O	0.255786	1.249639	0.169798
O24	O	0.505786	1.499639	0.419798
O25	O	-0.116164	0.676769	-0.426604
O26	O	0.133836	0.926769	-0.176604
O27	O	0.383836	1.176769	0.073396
O28	O	0.633836	1.426769	0.323396
O29	O	-0.189008	0.621655	-0.202904
O30	O	0.060992	0.871655	0.047096
O31	O	0.310992	1.121655	0.297096
O32	O	0.560992	1.371655	0.547096
O33	O	-0.189018	0.749607	-0.426625
O34	O	0.060982	0.999607	-0.176625
O35	O	0.310982	1.249607	0.073375
O36	O	0.560982	1.499607	0.323375
O37	O	-0.244208	0.676843	-0.202920
O38	O	0.005792	0.926843	0.047080
O39	O	0.255792	1.176843	0.297080
O40	O	0.505792	1.426843	0.547080
O41	O	-0.116160	0.621612	-0.330164
O42	O	0.133840	0.871612	-0.080164
O43	O	0.383840	1.121612	0.169836
O44	O	0.633840	1.371612	0.419836
O45	O	-0.188967	0.548789	-0.330134
O46	O	0.061033	0.798789	-0.080134
O47	O	0.311033	1.048789	0.169866
O48	O	0.561033	1.298789	0.419866
O49	O	-0.316990	0.621607	-0.426572
O50	O	-0.066990	0.871607	-0.176572
O51	O	0.183010	1.121607	0.073428
O52	O	0.433010	1.371607	0.323428
O53	O	-0.244137	0.548769	-0.426551
O54	O	0.005863	0.798769	-0.176551
O55	O	0.255863	1.048769	0.073449
O56	O	0.505863	1.298769	0.323449
O57	O	-0.317021	0.676816	-0.330172
O58	O	-0.067021	0.926816	-0.080172
O59	O	0.182979	1.176816	0.169828
O60	O	0.432979	1.426816	0.419828
O61	O	-0.188978	0.676742	-0.553855
O62	O	0.061022	0.926742	-0.303855
O63	O	0.311022	1.176742	-0.053855
O64	O	0.561022	1.426742	0.196145
O65	O	-0.244143	0.621565	-0.553832
O66	O	0.005857	0.871565	-0.303832
O67	O	0.255857	1.121565	-0.053832
O68	O	0.505857	1.371565	0.196168
C69	C	-0.216547	0.532478	-0.378337
C70	C	0.033453	0.782478	-0.128337
C71	C	0.283453	1.032478	0.121663
C72	C	0.533453	1.282478	0.371663
C73	C	-0.216542	0.482544	-0.378339
C74	C	0.033458	0.732544	-0.128339
C75	C	0.283458	0.982544	0.121661
C76	C	0.533458	1.232544	0.371661
C77	C	-0.187916	0.125955	-0.328100
C78	C	0.062084	0.375955	-0.078100
C79	C	0.312084	0.625955	0.171900
C80	C	0.562084	0.875955	0.421900
C81	C	-0.187889	0.313628	-0.328078
C82	C	0.062111	0.563628	-0.078078
C83	C	0.312111	0.813628	0.171922
C84	C	0.562111	1.063628	0.421922
O85	O	-0.163508	0.337891	-0.285296
O86	O	0.086492	0.587891	-0.035296
O87	O	0.336492	0.837891	0.214704
O88	O	0.586492	1.087891	0.464704
N89	N	-0.216564	0.337099	-0.378351
N90	N	0.033436	0.587099	-0.128351
N91	N	0.283436	0.837099	0.121649
N92	N	0.533436	1.087099	0.371649
C93	C	-0.245251	0.313649	-0.428630
C94	C	0.004749	0.563649	-0.178630
C95	C	0.254749	0.813649	0.071370
C96	C	0.504749	1.063649	0.321370
O97	O	-0.269644	0.337918	-0.471385
O98	O	-0.019644	0.587918	-0.221385
O99	O	0.230356	0.837918	0.028615
O100	O	0.480356	1.087918	0.278615
C101	C	-0.245280	0.125976	-0.428648
C102	C	0.004720	0.375976	-0.178648
C103	C	0.254720	0.625976	0.071352
C104	C	0.504720	0.875976	0.321352
C105	C	-0.216599	0.102508	-0.378377
C106	C	0.033401	0.352508	-0.128377
C107	C	0.283401	0.602508	0.121623
C108	C	0.533401	0.852508	0.371623
C109	C	-0.159238	0.102487	-0.277832
C110	C	0.090762	0.352487	-0.027832
C111	C	0.340762	0.602487	0.222168
C112	C	0.590762	0.852487	0.472168
C113	C	-0.159243	0.055571	-0.277841
C114	C	0.090757	0.305571	-0.027841
C115	C	0.340757	0.555571	0.222159
C116	C	0.590757	0.805571	0.472159
C117	C	-0.187927	0.032124	-0.328118
C118	C	0.062073	0.282124	-0.078118
C119	C	0.312073	0.532124	0.171882
C120	C	0.562073	0.782124	0.421882
C121	C	-0.216605	0.055593	-0.378386
C122	C	0.033395	0.305593	-0.128386
C123	C	0.283395	0.555593	0.121614
C124	C	0.533395	0.805593	0.371614
C125	C	-0.273968	0.102527	-0.478923
C126	C	-0.023968	0.352527	-0.228923
C127	C	0.226032	0.602527	0.021077
C128	C	0.476032	0.852527	0.271077
C129	C	-0.273974	0.055606	-0.478921
C130	C	-0.023974	0.305606	-0.228921
C131	C	0.226026	0.555606	0.021079
C132	C	0.476026	0.805606	0.271079
C133	C	-0.245293	0.032137	-0.428650
C134	C	0.004707	0.282137	-0.178650
C135	C	0.254707	0.532137	0.071350
C136	C	0.504707	0.782137	0.321350
C137	C	-0.245293	-0.014770	-0.428672
C138	C	0.004707	0.235230	-0.178672
C139	C	0.254707	0.485230	0.071328
C140	C	0.504707	0.735230	0.321328
N141	N	-0.216618	-0.038241	-0.378398
N142	N	0.033382	0.211759	-0.128398
N143	N	0.283382	0.461759	0.121602
N144	N	0.533382	0.711759	0.371602
C145	C	-0.187934	-0.014794	-0.328121
C146	C	0.062066	0.235206	-0.078121
C147	C	0.312066	0.485206	0.171879
C148	C	0.562066	0.735206	0.421879
C149	C	-0.245233	0.412179	-0.428619
C150	C	0.004767	0.662179	-0.178619
C151	C	0.254767	0.912179	0.071381
C152	C	0.504767	1.162179	0.321381
C153	C	-0.245225	0.459097	-0.428616
C154	C	0.004775	0.709097	-0.178616
C155	C	0.254775	0.959097	0.071384
C156	C	0.504775	1.209097	0.321384
C157	C	-0.187863	0.459073	-0.328061
C158	C	0.062137	0.709073	-0.078061
C159	C	0.312137	0.959073	0.171939
C160	C	0.562137	1.209073	0.421939
C161	C	-0.187869	0.412155	-0.328069
C162	C	0.062131	0.662155	-0.078069
C163	C	0.312131	0.912155	0.171931
C164	C	0.562131	1.162155	0.421931
C165	C	-0.216557	0.388708	-0.378345
C166	C	0.033443	0.638708	-0.128345
C167	C	0.283443	0.888708	0.121655
C168	C	0.533443	1.138708	0.371655
C169	C	-0.187948	-0.113320	-0.328144
C170	C	0.062052	0.136680	-0.078144
C171	C	0.312052	0.386680	0.171856
C172	C	0.562052	0.636680	0.421856
C173	C	-0.187954	-0.160239	-0.328160
C174	C	0.062046	0.089761	-0.078160
C175	C	0.312046	0.339761	0.171840
C176	C	0.562046	0.589761	0.421840
C177	C	-0.245317	-0.160211	-0.428711
C178	C	0.004683	0.089789	-0.178711
C179	C	0.254683	0.339789	0.071289
C180	C	0.504683	0.589789	0.321289
C181	C	-0.245309	-0.113296	-0.428699
C182	C	0.004691	0.136704	-0.178699
C183	C	0.254691	0.386704	0.071301
C184	C	0.504691	0.636704	0.321301
C185	C	-0.216623	-0.089851	-0.378409
C186	C	0.033377	0.160149	-0.128409
C187	C	0.283377	0.410149	0.121591
C188	C	0.533377	0.660149	0.371591
O189	O	-0.269665	-0.039062	-0.471425
O190	O	-0.019665	0.210938	-0.221425
O191	O	0.230335	0.460938	0.028575
O192	O	0.480335	0.710938	0.278575
O193	O	-0.163552	-0.039071	-0.285360
O194	O	0.086448	0.210929	-0.035360
O195	O	0.336448	0.460929	0.214640
O196	O	0.586448	0.710929	0.464640
C197	C	-0.187911	0.172871	-0.328091
C198	C	0.062089	0.422871	-0.078091
C199	C	0.312089	0.672871	0.171909
C200	C	0.562089	0.922871	0.421909
C201	C	-0.216588	0.196339	-0.378359
C202	C	0.033412	0.446339	-0.128359
C203	C	0.283412	0.696339	0.121641
C204	C	0.533412	0.946339	0.371641
C205	C	-0.245272	0.172892	-0.428636
C206	C	0.004728	0.422892	-0.178636
C207	C	0.254728	0.672892	0.071364
C208	C	0.504728	0.922892	0.321364
C209	C	-0.216581	0.243257	-0.378355
C210	C	0.033419	0.493257	-0.128355
C211	C	0.283419	0.743257	0.121645
C212	C	0.533419	0.993257	0.371645
C213	C	-0.187897	0.266704	-0.328078
C214	C	0.062103	0.516704	-0.078078
C215	C	0.312103	0.766704	0.171922
C216	C	0.562103	1.016704	0.421922
C217	C	-0.159222	0.243233	-0.277805
C218	C	0.090778	0.493233	-0.027805
C219	C	0.340778	0.743233	0.222195
C220	C	0.590778	0.993233	0.472195
C221	C	-0.159227	0.196318	-0.277814
C222	C	0.090773	0.446318	-0.027814
C223	C	0.340773	0.696318	0.222186
C224	C	0.590773	0.946318	0.472186
C225	C	-0.273947	0.196363	-0.478909
C226	C	-0.023947	0.446363	-0.228909
C227	C	0.226053	0.696363	0.021091
C228	C	0.476053	0.946363	0.271091
C229	C	-0.273939	0.243278	-0.478897
C230	C	-0.023939	0.493278	-0.228897
C231	C	0.226061	0.743278	0.021103
C232	C	0.476061	0.993278	0.271103
C233	C	-0.245256	0.266725	-0.428620
C234	C	0.004744	0.516725	-0.178620
C235	C	0.254744	0.766725	0.071380
C236	C	0.504744	1.016725	0.321380
C237	C	-0.333762	0.649213	-0.378371
C238	C	-0.083762	0.899213	-0.128371
C239	C	0.166238	1.149213	0.121629
C240	C	0.416238	1.399213	0.371629
C241	C	-0.383697	0.649218	-0.378368
C242	C	-0.133697	0.899218	-0.128368
C243	C	0.116303	1.149218	0.121632
C244	C	0.366303	1.399218	0.371632
C245	C	-0.693359	0.677996	-0.328041
C246	C	-0.443359	0.927996	-0.078041
C247	C	-0.193359	1.177996	0.171959
C248	C	0.056641	1.427996	0.421959
C249	C	-0.881033	0.678018	-0.327974
C250	C	-0.631033	0.928018	-0.077974
C251	C	-0.381033	1.178018	0.172026
C252	C	-0.131033	1.428018	0.422026
O253	O	-0.905314	0.702452	-0.285258
O254	O	-0.655314	0.952452	-0.035258
O255	O	-0.405314	1.202452	0.214742
O256	O	-0.155314	1.452452	0.464742
N257	N	-0.904482	0.649278	-0.378158
N258	N	-0.654482	0.899278	-0.128158
N259	N	-0.404482	1.149278	0.121842
N260	N	-0.154482	1.399278	0.371842
C261	C	-0.881011	0.620528	-0.428358
C262	C	-0.631011	0.870528	-0.178358
C263	C	-0.381011	1.120528	0.071642
C264	C	-0.131011	1.370528	0.321642
O265	O	-0.905262	0.596080	-0.471035
O266	O	-0.655262	0.846080	-0.221035
O267	O	-0.405262	1.096080	0.028965
O268	O	-0.155262	1.346080	0.278965
C269	C	-0.693338	0.620504	-0.428420
C270	C	-0.443338	0.870504	-0.178420
C271	C	-0.193338	1.120504	0.071580
C272	C	0.056662	1.370504	0.321580
C273	C	-0.669891	0.649249	-0.378239
C274	C	-0.419891	0.899249	-0.128239
C275	C	-0.169891	1.149249	0.121761
C276	C	0.080109	1.399249	0.371761
C277	C	-0.669912	0.706738	-0.277863
C278	C	-0.419912	0.956738	-0.027863
C279	C	-0.169912	1.206738	0.222137
C280	C	0.080088	1.456738	0.472137
C281	C	-0.622997	0.706734	-0.277883
C282	C	-0.372997	0.956734	-0.027883
C283	C	-0.122997	1.206734	0.222117
C284	C	0.127003	1.456734	0.472117
C285	C	-0.599528	0.677988	-0.328081
C286	C	-0.349528	0.927988	-0.078081
C287	C	-0.099528	1.177988	0.171919
C288	C	0.150472	1.427988	0.421919
C289	C	-0.622976	0.649245	-0.378259
C290	C	-0.372976	0.899245	-0.128259
C291	C	-0.122976	1.149245	0.121741
C292	C	0.127024	1.399245	0.371741
C293	C	-0.669868	0.591752	-0.478616
C294	C	-0.419868	0.841752	-0.228616
C295	C	-0.169868	1.091752	0.021384
C296	C	0.080132	1.341752	0.271384
C297	C	-0.622947	0.591748	-0.478626
C298	C	-0.372947	0.841748	-0.228626
C299	C	-0.122947	1.091748	0.021374
C300	C	0.127053	1.341748	0.271374
C301	C	-0.599499	0.620493	-0.428445
C302	C	-0.349499	0.870493	-0.178445
C303	C	-0.099499	1.120493	0.071555
C304	C	0.150501	1.370493	0.321555
C305	C	-0.552592	0.620494	-0.428478
C306	C	-0.302592	0.870494	-0.178478
C307	C	-0.052592	1.120494	0.071522
C308	C	0.197408	1.370494	0.321522
N309	N	-0.529142	0.649234	-0.378294
N310	N	-0.279142	0.899234	-0.128294
N311	N	-0.029142	1.149234	0.121706
N312	N	0.220858	1.399234	0.371706
C313	C	-0.552611	0.677981	-0.328096
C314	C	-0.302611	0.927981	-0.078096
C315	C	-0.052611	1.177981	0.171904
C316	C	0.197389	1.427981	0.421904
C317	C	-0.979541	0.620543	-0.428323
C318	C	-0.729541	0.870543	-0.178323
C319	C	-0.479541	1.120543	0.071677
C320	C	-0.229541	1.370543	0.321677
C321	C	-1.026459	0.620550	-0.428308
C322	C	-0.776459	0.870550	-0.178308
C323	C	-0.526459	1.120550	0.071692
C324	C	-0.276459	1.370550	0.321692
C325	C	-1.026478	0.678040	-0.327923
C326	C	-0.776478	0.928040	-0.077923
C327	C	-0.526478	1.178040	0.172077
C328	C	-0.276478	1.428040	0.422077
C329	C	-0.979559	0.678035	-0.327942
C330	C	-0.729559	0.928035	-0.077942
C331	C	-0.479559	1.178035	0.172058
C332	C	-0.229559	1.428035	0.422058
C333	C	-0.956092	0.649284	-0.378139
C334	C	-0.706092	0.899284	-0.128139
C335	C	-0.456092	1.149284	0.121861
C336	C	-0.206092	1.399284	0.371861
C337	C	-0.454085	0.677970	-0.328143
C338	C	-0.204085	0.927970	-0.078143
C339	C	0.045915	1.177970	0.171857
C340	C	0.295915	1.427970	0.421857
C341	C	-0.407165	0.677965	-0.328170
C342	C	-0.157165	0.927965	-0.078170
C343	C	0.092835	1.177965	0.171830
C344	C	0.342835	1.427965	0.421830
C345	C	-0.407150	0.620474	-0.428552
C346	C	-0.157150	0.870474	-0.178552
C347	C	0.092850	1.120474	0.071448
C348	C	0.342850	1.370474	0.321448
C349	C	-0.454066	0.620481	-0.428528
C350	C	-0.204066	0.870481	-0.178528
C351	C	0.045934	1.120481	0.071472
C352	C	0.295934	1.370481	0.321472
C353	C	-0.477532	0.649231	-0.378317
C354	C	-0.227532	0.899231	-0.128317
C355	C	0.022468	1.149231	0.121683
C356	C	0.272468	1.399231	0.371683
O357	O	-0.528282	0.596069	-0.471165
O358	O	-0.278282	0.846069	-0.221165
O359	O	-0.028282	1.096069	0.028835
O360	O	0.221718	1.346069	0.278835
O361	O	-0.528351	0.702418	-0.285413
O362	O	-0.278351	0.952418	-0.035413
O363	O	-0.028351	1.202418	0.214587
O364	O	0.221649	1.452418	0.464587
C365	C	-0.740275	0.678000	-0.328021
C366	C	-0.490275	0.928000	-0.078021
C367	C	-0.240275	1.178000	0.171979
C368	C	0.009725	1.428000	0.421979
C369	C	-0.763722	0.649257	-0.378199
C370	C	-0.513722	0.899257	-0.128199
C371	C	-0.263722	1.149257	0.121801
C372	C	-0.013722	1.399257	0.371801
C373	C	-0.740254	0.620511	-0.428397
C374	C	-0.490254	0.870511	-0.178397
C375	C	-0.240254	1.120511	0.071603
C376	C	0.009746	1.370511	0.321603
C377	C	-0.810640	0.649264	-0.378184
C378	C	-0.560640	0.899264	-0.128184
C379	C	-0.310640	1.149264	0.121816
C380	C	-0.060640	1.399264	0.371816
C381	C	-0.834108	0.678011	-0.327986
C382	C	-0.584108	0.928011	-0.077986
C383	C	-0.334108	1.178011	0.172014
C384	C	-0.084108	1.428011	0.422014
C385	C	-0.810659	0.706751	-0.277802
C386	C	-0.560659	0.956751	-0.027802
C387	C	-0.310659	1.206751	0.222198
C388	C	-0.060659	1.456751	0.472198
C389	C	-0.763743	0.706747	-0.277822
C390	C	-0.513743	0.956747	-0.027822
C391	C	-0.263743	1.206747	0.222178
C392	C	-0.013743	1.456747	0.472178
C393	C	-0.763703	0.591770	-0.478581
C394	C	-0.513703	0.841770	-0.228581
C395	C	-0.263703	1.091770	0.021419
C396	C	-0.013703	1.341770	0.271419
C397	C	-0.810619	0.591777	-0.478557
C398	C	-0.560619	0.841777	-0.228557
C399	C	-0.310619	1.091777	0.021443
C400	C	-0.060619	1.341777	0.271443
C401	C	-0.834087	0.620524	-0.428359
C402	C	-0.584087	0.870524	-0.178359
C403	C	-0.334087	1.120524	0.071641
C404	C	-0.084087	1.370524	0.321641
C405	C	-0.099861	0.649215	-0.378328
C406	C	0.150139	0.899215	-0.128328
C407	C	0.400139	1.149215	0.121672
C408	C	0.650139	1.399215	0.371672
C409	C	-0.049927	0.649297	-0.378110
C410	C	0.200073	0.899297	-0.128110
C411	C	0.450073	1.149297	0.121890
C412	C	0.700073	1.399297	0.371890
C413	C	-0.216566	0.649158	-0.582326
C414	C	0.033434	0.899158	-0.332326
C415	C	0.283434	1.149158	-0.082326
C416	C	0.533434	1.399158	0.167674
C417	C	-0.216573	0.649180	-0.669576
C418	C	0.033427	0.899180	-0.419576
C419	C	0.283427	1.149180	-0.169576
C420	C	0.533427	1.399180	0.080424
C421	C	-0.216622	0.766379	-0.378419
C422	C	0.033378	1.016379	-0.128419
C423	C	0.283378	1.266379	0.121581
C424	C	0.533378	1.516379	0.371581
C425	C	-0.216638	0.816314	-0.378437
C426	C	0.033362	1.066314	-0.128437
C427	C	0.283362	1.316314	0.121563
C428	C	0.533362	1.566314	0.371563
C429	C	-0.187880	0.677940	-0.710552
C430	C	0.062120	0.927940	-0.460552
C431	C	0.312120	1.177940	-0.210552
C432	C	0.562120	1.427940	0.039448
C433	C	-0.187891	0.677962	-0.792532
C434	C	0.062109	0.927962	-0.542532
C435	C	0.312109	1.177962	-0.292532
C436	C	0.562109	1.427962	-0.042532
C437	C	-0.216594	0.649222	-0.833535
C438	C	0.033406	0.899222	-0.583535
C439	C	0.283406	1.149222	-0.333535
C440	C	0.533406	1.399222	-0.083535
C441	C	-0.245291	0.620460	-0.792553
C442	C	0.004709	0.870460	-0.542553
C443	C	0.254709	1.120460	-0.292553
C444	C	0.504709	1.370460	-0.042553
C445	C	-0.245282	0.620441	-0.710574
C446	C	0.004718	0.870441	-0.460574
C447	C	0.254718	1.120441	-0.210574
C448	C	0.504718	1.370441	0.039426
C449	C	-0.245308	0.620502	-0.963423
C450	C	0.004692	0.870502	-0.713423
C451	C	0.254692	1.120502	-0.463423
C452	C	0.504692	1.370502	-0.213423
C453	C	-0.245317	0.620521	-1.045408
C454	C	0.004683	0.870521	-0.795408
C455	C	0.254683	1.120521	-0.545408
C456	C	0.504683	1.370521	-0.295408
C457	C	-0.187918	0.678023	-1.045381
C458	C	0.062082	0.928023	-0.795381
C459	C	0.312082	1.178023	-0.545381
C460	C	0.562082	1.428023	-0.295381
C461	C	-0.187908	0.678004	-0.963402
C462	C	0.062092	0.928004	-0.713402
C463	C	0.312092	1.178004	-0.463402
C464	C	0.562092	1.428004	-0.213402
C465	C	-0.216605	0.649242	-0.922426
C466	C	0.033395	0.899242	-0.672426
C467	C	0.283395	1.149242	-0.422426
C468	C	0.533395	1.399242	-0.172426
C469	C	-0.216612	0.649257	-0.173634
C470	C	0.033388	0.899257	0.076366
C471	C	0.283388	1.149257	0.326366
C472	C	0.533388	1.399257	0.576366
C473	C	-0.216624	0.649281	-0.086384
C474	C	0.033376	0.899281	0.163616
C475	C	0.283376	1.149281	0.413616
C476	C	0.533376	1.399281	0.663616
H477	H	-0.164598	-0.179345	-0.287222
H478	H	0.085402	0.070655	-0.037222
H479	H	0.335402	0.320655	0.212778
H480	H	0.585402	0.570655	0.462778
F481	F	-0.275745	0.484069	-0.482132
F482	F	-0.025745	0.734069	-0.232132
F483	F	0.224255	0.984069	0.017868
F484	F	0.474255	1.234069	0.267868
F485	F	-0.275842	0.589875	-0.836194
F486	F	-0.025842	0.839875	-0.586194
F487	F	0.224158	1.089875	-0.336194
F488	F	0.474158	1.339875	-0.086194
F489	F	-0.275838	-0.185174	-0.482226
F490	F	-0.025838	0.064826	-0.232226
F491	F	0.224162	0.314826	0.017774
F492	F	0.474162	0.564826	0.267774
F493	F	-0.598048	0.737327	-0.224469
F494	F	-0.348048	0.987327	0.025531
F495	F	-0.098048	1.237327	0.275531
F496	F	0.151952	1.487327	0.525531
H497	H	-0.135873	0.177214	-0.236877
H498	H	0.114127	0.427214	0.013123
H499	H	0.364127	0.677214	0.263123
H500	H	0.614127	0.927214	0.513123
H501	H	-0.164534	0.701404	-0.930018
H502	H	0.085466	0.951404	-0.680018
H503	H	0.335466	1.201404	-0.430018
H504	H	0.585466	1.451404	-0.180018
H505	H	-0.135881	0.121572	-0.236886
H506	H	0.114119	0.371572	0.013114
H507	H	0.364119	0.621572	0.263114
H508	H	0.614119	0.871572	0.513114
H509	H	-0.744600	0.568361	-0.519460
H510	H	-0.494600	0.818361	-0.269460
H511	H	-0.244600	1.068361	-0.019460
H512	H	0.005400	1.318361	0.230540
H513	H	-1.045594	0.701447	-0.287050
H514	H	-0.795594	0.951447	-0.037050
H515	H	-0.545594	1.201447	0.212950
H516	H	-0.295594	1.451447	0.462950
F517	F	-0.275822	0.589832	-0.666965
F518	F	-0.025822	0.839832	-0.416965
F519	F	0.224178	1.089832	-0.166965
F520	F	0.474178	1.339832	0.083035
F521	F	-0.128693	0.268195	-0.224298
F522	F	0.121307	0.518195	0.025702
F523	F	0.371307	0.768195	0.275702
F524	F	0.621307	1.018195	0.525702
F525	F	-1.051408	0.589962	-0.481729
F526	F	-0.801408	0.839962	-0.231729
F527	F	-0.551408	1.089962	0.018271
F528	F	-0.301408	1.339962	0.268271
H529	H	-0.268698	0.597126	-1.078790
H530	H	-0.018698	0.847126	-0.828790
H531	H	0.231302	1.097126	-0.578790
H532	H	0.481302	1.347126	-0.328790
H533	H	-0.297306	0.177277	-0.519851
H534	H	-0.047306	0.427277	-0.269851
H535	H	0.202694	0.677277	-0.019851
H536	H	0.452694	0.927277	0.230149
F537	F	-0.157416	-0.088374	-0.274621
F538	F	0.092584	0.161626	-0.024621
F539	F	0.342584	0.411626	0.225379
F540	F	0.592584	0.661626	0.475379
H541	H	-0.960438	0.597131	-0.469205
H542	H	-0.710438	0.847131	-0.219205
H543	H	-0.460438	1.097131	0.030795
H544	H	-0.210438	1.347131	0.280795
H545	H	-0.829775	0.730159	-0.236931
H546	H	-0.579775	0.980159	0.013069
H547	H	-0.329775	1.230159	0.263069
H548	H	-0.079775	1.480159	0.513069
H549	H	-0.135889	0.036467	-0.236904
H550	H	0.114111	0.286467	0.013096
H551	H	0.364111	0.536467	0.263096
H552	H	0.614111	0.786467	0.513096
H553	H	-0.164505	0.701342	-0.677172
H554	H	0.085495	0.951342	-0.427172
H555	H	0.335495	1.201342	-0.177172
H556	H	0.585495	1.451342	0.072828
F557	F	-0.275851	0.589891	-0.919815
F558	F	-0.025851	0.839891	-0.669815
F559	F	0.224149	1.089891	-0.419815
F560	F	0.474149	1.339891	-0.169815
F561	F	-0.157353	0.708574	-0.836138
F562	F	0.092647	0.958574	-0.586138
F563	F	0.342647	1.208574	-0.336138
F564	F	0.592647	1.458574	-0.086138
H565	H	-0.164516	0.393050	-0.287131
H566	H	0.085484	0.643050	-0.037131
H567	H	0.335484	0.893050	0.212869
H568	H	0.585484	1.143050	0.462869
H569	H	-0.164554	0.701444	-1.078748
H570	H	0.085446	0.951444	-0.828748
H571	H	0.335446	1.201444	-0.578748
H572	H	0.585446	1.451444	-0.328748
F573	F	-0.835568	0.561183	-0.531976
F574	F	-0.585568	0.811183	-0.281976
F575	F	-0.335568	1.061183	-0.031976
F576	F	-0.085568	1.311183	0.218024
H577	H	-0.297294	0.262382	-0.519841
H578	H	-0.047294	0.512382	-0.269841
H579	H	0.202706	0.762382	-0.019841
H580	H	0.452706	1.012382	0.230159
F581	F	-0.157336	0.484035	-0.274553
F582	F	0.092664	0.734035	-0.024553
F583	F	0.342664	0.984035	0.225447
F584	F	0.592664	1.234035	0.475447
H585	H	-0.473185	0.701380	-0.287253
H586	H	-0.223185	0.951380	-0.037253
H587	H	0.026815	1.201380	0.212747
H588	H	0.276815	1.451380	0.462747
F589	F	-0.694882	0.737341	-0.224437
F590	F	-0.444882	0.987341	0.025563
F591	F	-0.194882	1.237341	0.275563
F592	F	0.055118	1.487341	0.525563
F593	F	-0.275767	0.387232	-0.482135
F594	F	-0.025767	0.637232	-0.232135
F595	F	0.224233	0.887232	0.017865
F596	F	0.474233	1.137232	0.267865
H597	H	-0.268660	-0.094187	-0.469640
H598	H	-0.018660	0.155813	-0.219640
H599	H	0.231340	0.405813	0.030360
H600	H	0.481340	0.655813	0.280360
H601	H	-0.388076	0.701375	-0.287305
H602	H	-0.138076	0.951375	-0.037305
H603	H	0.111924	1.201375	0.212695
H604	H	0.361924	1.451375	0.462695
H605	H	-0.744657	0.730154	-0.236959
H606	H	-0.494657	0.980154	0.013041
H607	H	-0.244657	1.230154	0.263041
H608	H	0.005343	1.480154	0.513041
F609	F	-0.304495	0.127494	-0.532429
F610	F	-0.054495	0.377494	-0.282429
F611	F	0.195505	0.627494	-0.032429
F612	F	0.445505	0.877494	0.217571
F613	F	-0.382166	0.589881	-0.481973
F614	F	-0.132166	0.839881	-0.231973
F615	F	0.117834	1.089881	0.018027
F616	F	0.367834	1.339881	0.268027
F617	F	-0.954609	0.708629	-0.274532
F618	F	-0.704609	0.958629	-0.024532
F619	F	-0.454609	1.208629	0.225468
F620	F	-0.204609	1.458629	0.475468
F621	F	-0.694812	0.561158	-0.532030
F622	F	-0.444812	0.811158	-0.282030
F623	F	-0.194812	1.061158	-0.032030
F624	F	0.055188	1.311158	0.217970
F625	F	-0.479021	0.589890	-0.481941
F626	F	-0.229021	0.839890	-0.231941
F627	F	0.020979	1.089890	0.018059
F628	F	0.270979	1.339890	0.268059
H629	H	-0.297337	0.036518	-0.519860
H630	H	-0.047337	0.286518	-0.269860
H631	H	0.202663	0.536518	-0.019860
H632	H	0.452663	0.786518	0.230140
F633	F	-0.597974	0.561145	-0.532053
F634	F	-0.347974	0.811145	-0.282053
F635	F	-0.097974	1.061145	-0.032053
F636	F	0.152026	1.311145	0.217947
