data_functionalizedCrystal
_audit_creation_method	'MofGen! by Chris Wilmer'
_symmetry_space_group_name_H-M	'P1'
_symmetry_Int_Tables_number	1
_symmetry_cell_setting	triclinic
loop_
_symmetry_equiv_pos_as_xyz
  x,y,z
_cell_length_a	25.639243
_cell_length_b	25.639240
_cell_length_c	12.827885
_cell_angle_alpha	89.968348
_cell_angle_beta	90.023817
_cell_angle_gamma	89.959854
loop_
_atom_site_label
_atom_site_type_symbol
_atom_site_fract_x
_atom_site_fract_y
_atom_site_fract_z
Zn1	Zn	0.799270	0.208087	0.590962
Zn2	Zn	0.799184	0.295533	0.416216
Zn3	Zn	0.711835	0.208117	0.416222
Zn4	Zn	0.711794	0.295498	0.590903
O5	O	0.755521	0.251809	0.503576
O6	O	0.872424	0.219689	0.567804
O7	O	0.787578	0.283964	0.269981
O8	O	0.723486	0.134948	0.439428
O9	O	0.872360	0.283935	0.439419
O10	O	0.787725	0.134926	0.567809
O11	O	0.723403	0.219740	0.269985
O12	O	0.638664	0.219706	0.439371
O13	O	0.723417	0.283876	0.737147
O14	O	0.638634	0.283904	0.567708
O15	O	0.787685	0.219656	0.737190
O16	O	0.787538	0.368693	0.439362
O17	O	0.723333	0.368668	0.567703
C18	C	0.619678	0.251805	0.503534
C19	C	0.561564	0.251816	0.503541
C20	C	0.201228	0.218409	0.570537
C21	C	0.146624	0.218408	0.570543
O22	O	0.118411	0.189994	0.627454
N23	N	0.119281	0.251807	0.503604
C24	C	0.146546	0.285205	0.436647
O25	O	0.118275	0.313613	0.379710
C26	C	0.201149	0.285202	0.436636
C27	C	0.228489	0.251805	0.503587
C28	C	0.228568	0.185013	0.637482
C29	C	0.283169	0.185015	0.637476
C30	C	0.310429	0.218411	0.570526
C31	C	0.283090	0.251806	0.503582
C32	C	0.228413	0.318597	0.369674
C33	C	0.283020	0.318592	0.369668
C34	C	0.310360	0.285194	0.436619
C35	C	0.364951	0.285204	0.436626
N36	N	0.392293	0.251805	0.503565
C37	C	0.365033	0.218409	0.570515
C38	C	0.031875	0.285207	0.436674
C39	C	-0.022727	0.285213	0.436689
C40	C	-0.022645	0.218415	0.570585
C41	C	0.031958	0.218413	0.570574
C42	C	0.059218	0.251808	0.503613
C43	C	0.479698	0.218414	0.570500
C44	C	0.534303	0.218420	0.570491
C45	C	0.534217	0.285215	0.436592
C46	C	0.479616	0.285212	0.436604
C47	C	0.452358	0.251807	0.503561
O48	O	0.393199	0.313602	0.379741
O49	O	0.393310	0.190000	0.627433
C50	C	0.755436	0.387651	0.503548
C51	C	0.755447	0.445765	0.503572
C52	C	0.788925	0.696896	0.570481
C53	C	0.788914	0.642292	0.570475
O54	O	0.817341	0.614002	0.627334
N55	N	0.755488	0.615039	0.503581
C56	C	0.722075	0.642394	0.436681
O57	O	0.693643	0.614199	0.379781
C58	C	0.722088	0.696997	0.436683
C59	C	0.755513	0.724247	0.503589
C60	C	0.822347	0.724146	0.637381
C61	C	0.822357	0.778747	0.637388
C62	C	0.788944	0.806097	0.570497
C63	C	0.755522	0.778847	0.503597
C64	C	0.688678	0.724351	0.369780
C65	C	0.688694	0.778958	0.369787
C66	C	0.722119	0.806207	0.436693
C67	C	0.722120	0.860799	0.436713
N68	N	0.755546	0.888051	0.503607
C69	C	0.788958	0.860701	0.570499
C70	C	0.722049	0.527723	0.436681
C71	C	0.722033	0.473121	0.436683
C72	C	0.788873	0.473023	0.570475
C73	C	0.788887	0.527626	0.570477
C74	C	0.755475	0.554976	0.503575
C75	C	0.788976	0.975366	0.570510
C76	C	0.788981	1.029971	0.570515
C77	C	0.722143	1.030064	0.436720
C78	C	0.722135	0.975464	0.436718
C79	C	0.755556	0.948116	0.503617
O80	O	0.693709	0.889123	0.379879
O81	O	0.817390	0.888902	0.627379
C82	C	0.891894	0.251813	0.503618
C83	C	0.950008	0.251814	0.503636
C84	C	0.755556	0.251759	0.776146
C85	C	0.755571	0.251737	0.892299
C86	C	0.755597	1.115436	0.503620
C87	C	0.755569	1.057322	0.503623
C88	C	0.755515	0.251821	0.232066
C89	C	0.755601	0.251695	0.115913
C90	C	0.787377	0.219953	0.944105
C91	C	0.787393	0.219930	1.064156
H92	H	0.457355	0.312413	0.382099
F93	F	0.720010	0.287268	1.057691
F94	F	0.719992	0.287281	0.950489
F95	F	0.060883	0.320757	0.365405
H96	H	0.814593	0.192756	0.899582
H97	H	0.694837	0.549988	0.382203
F98	F	0.563239	0.320757	0.365345
F99	F	0.061050	0.182866	0.641830
H100	H	0.816101	0.549809	0.624963
H101	H	0.206162	0.345793	0.315154
F102	F	0.824436	0.443904	0.641663
F103	F	0.312028	0.354138	0.298398
H104	H	0.556561	0.191223	0.625014
F105	F	0.450696	0.182861	0.641762
H106	H	0.305424	0.157818	0.691993
F107	F	-0.051668	0.182870	0.641836
F108	F	0.199564	0.149465	0.708745
H109	H	0.816191	0.953105	0.624984
F110	F	0.824555	1.058969	0.641732
F111	F	0.857912	0.695046	0.708582
H112	H	0.849578	0.800929	0.691862
F113	F	-0.051818	0.320764	0.365441
F114	F	0.653099	0.695361	0.298574
H115	H	0.661487	0.801223	0.315304
F116	F	0.686450	0.444125	0.365488
F117	F	0.686560	0.946461	0.365514
H118	H	0.814625	0.192720	1.108708
H119	H	0.694938	1.052343	0.382261
