data_functionalizedCrystal
_audit_creation_method	'MofGen! by Chris Wilmer'
_symmetry_space_group_name_H-M	'P1'
_symmetry_Int_Tables_number	1
_symmetry_cell_setting	triclinic
loop_
_symmetry_equiv_pos_as_xyz
  x,y,z
_cell_length_a	16.625548
_cell_length_b	21.295417
_cell_length_c	16.625539
_cell_angle_alpha	90.032326
_cell_angle_beta	90.020568
_cell_angle_gamma	90.030770
loop_
_atom_site_label
_atom_site_type_symbol
_atom_site_fract_x
_atom_site_fract_y
_atom_site_fract_z
Zn1	Zn	1.232640	-0.250590	0.455887
Zn2	Zn	1.565973	0.082743	0.789220
Zn3	Zn	1.899307	0.416077	1.122553
Zn4	Zn	1.232526	-0.355864	0.321045
Zn5	Zn	1.565859	-0.022530	0.654378
Zn6	Zn	1.899193	0.310803	0.987711
Zn7	Zn	1.097802	-0.250614	0.321067
Zn8	Zn	1.431135	0.082719	0.654401
Zn9	Zn	1.764468	0.416053	0.987734
Zn10	Zn	1.097755	-0.355827	0.455834
Zn11	Zn	1.431088	-0.022494	0.789168
Zn12	Zn	1.764422	0.310839	1.122501
O13	O	1.165181	-0.303224	0.388458
O14	O	1.498514	0.030110	0.721792
O15	O	1.831847	0.363443	1.055125
O16	O	1.345457	-0.264560	0.438012
O17	O	1.678791	0.068773	0.771345
O18	O	2.012124	0.402107	1.104679
O19	O	1.214627	-0.341927	0.208215
O20	O	1.547960	-0.008594	0.541548
O21	O	1.881293	0.324740	0.874882
O22	O	1.115755	-0.162522	0.338983
O23	O	1.449089	0.170812	0.672316
O24	O	1.782422	0.504145	1.005650
O25	O	1.345374	-0.341904	0.338944
O26	O	1.678707	-0.008571	0.672277
O27	O	2.012040	0.324763	1.005611
O28	O	1.214820	-0.162504	0.438034
O29	O	1.548154	0.170829	0.771368
O30	O	1.881487	0.504163	1.104701
O31	O	1.115645	-0.264601	0.208232
O32	O	1.448978	0.068732	0.541565
O33	O	1.782312	0.402066	0.874899
O34	O	0.984963	-0.264566	0.338932
O35	O	1.318297	0.068768	0.672265
O36	O	1.651630	0.402101	1.005599
O37	O	1.115676	-0.341842	0.568674
O38	O	1.449009	-0.008509	0.902007
O39	O	1.782343	0.324824	1.235340
O40	O	0.984929	-0.341866	0.437945
O41	O	1.318262	-0.008532	0.771278
O42	O	1.651596	0.324801	1.104612
O43	O	1.214775	-0.264525	0.568712
O44	O	1.548109	0.068808	0.902046
O45	O	1.881442	0.402142	1.235379
O46	O	1.214581	-0.443948	0.338893
O47	O	1.547915	-0.110615	0.672227
O48	O	1.881248	0.222719	1.005560
O49	O	1.115566	-0.443922	0.437923
O50	O	1.448899	-0.110588	0.771256
O51	O	1.782232	0.222745	1.104589
C52	C	0.955690	-0.303215	0.388436
C53	C	1.289023	0.030119	0.721769
C54	C	1.622357	0.363452	1.055102
C55	C	0.866069	-0.303226	0.388445
C56	C	1.199402	0.030107	0.721779
C57	C	1.532735	0.363441	1.055112
C58	C	0.537893	-0.303230	0.388480
C59	C	0.871226	0.030103	0.721813
C60	C	1.204560	0.363436	1.055146
C61	C	0.629202	-0.303227	0.388468
C62	C	0.962535	0.030106	0.721801
C63	C	1.295868	0.363439	1.055134
C64	C	0.701978	-0.303229	0.388462
C65	C	1.035311	0.030105	0.721795
C66	C	1.368645	0.363438	1.055128
C67	C	0.793292	-0.303225	0.388451
C68	C	1.126626	0.030108	0.721784
C69	C	1.459959	0.363442	1.055118
C70	C	1.165078	-0.466775	0.388417
C71	C	1.498411	-0.133442	0.721751
C72	C	1.831745	0.199891	1.055084
C73	C	1.165108	-0.536744	0.388427
C74	C	1.498441	-0.203410	0.721760
C75	C	1.831774	0.129923	1.055094
C76	C	1.216661	-0.569544	0.440040
C77	C	1.549995	-0.236210	0.773373
C78	C	1.883328	0.097123	1.106706
C79	C	1.216690	-0.635286	0.440060
C80	C	1.550023	-0.301953	0.773393
C81	C	1.883357	0.031380	1.106726
C82	C	1.165173	-0.668226	0.388452
C83	C	1.498506	-0.334893	0.721786
C84	C	1.831840	-0.001559	1.055119
C85	C	1.113609	-0.635418	0.336836
C86	C	1.446943	-0.302084	0.670169
C87	C	1.780276	0.031249	1.003503
C88	C	1.113577	-0.569677	0.336823
C89	C	1.446910	-0.236343	0.670157
C90	C	1.780243	0.096990	1.003490
N91	N	1.159082	-0.771490	0.317887
N92	N	1.492415	-0.438156	0.651220
N93	N	1.825748	-0.104823	0.984554
N94	N	1.159117	-0.833941	0.317901
N95	N	1.492451	-0.500608	0.651235
N96	N	1.825784	-0.167274	0.984568
C97	C	1.165267	-0.866301	0.388489
C98	C	1.498601	-0.532967	0.721822
C99	C	1.831934	-0.199634	1.055155
N100	N	1.171396	-0.833850	0.459063
N101	N	1.504729	-0.500516	0.792396
N102	N	1.838063	-0.167183	1.125729
N103	N	1.171364	-0.771392	0.459047
N104	N	1.504698	-0.438059	0.792381
N105	N	1.838031	-0.104726	1.125714
C106	C	1.165203	-0.739511	0.388461
C107	C	1.498536	-0.406178	0.721794
C108	C	1.831869	-0.072845	1.055127
C109	C	1.216855	-0.970387	0.440128
C110	C	1.550188	-0.637053	0.773461
C111	C	1.883521	-0.303720	1.106794
C112	C	1.216877	-1.036130	0.440149
C113	C	1.550211	-0.702797	0.773482
C114	C	1.883544	-0.369464	1.106815
C115	C	1.113801	-1.036260	0.336918
C116	C	1.447135	-0.702927	0.670251
C117	C	1.780468	-0.369594	1.003584
C118	C	1.113774	-0.970518	0.336904
C119	C	1.447108	-0.637185	0.670237
C120	C	1.780441	-0.303851	1.003570
C121	C	1.165305	-0.937585	0.388508
C122	C	1.498638	-0.604252	0.721841
C123	C	1.831972	-0.270918	1.055174
C124	C	1.375490	-0.303233	0.388481
C125	C	1.708823	0.030100	0.721815
C126	C	2.042156	0.363433	1.055148
C127	C	1.465111	-0.303237	0.388491
C128	C	1.798444	0.030096	0.721825
C129	C	2.131777	0.363429	1.055158
C130	C	1.165233	-0.303177	0.598767
C131	C	1.498566	0.030156	0.932101
C132	C	1.831900	0.363490	1.265434
C133	C	1.165256	-0.303157	0.688388
C134	C	1.498589	0.030176	1.021722
C135	C	1.831922	0.363510	1.355055
C136	C	1.165306	-0.139033	0.388517
C137	C	1.498639	0.194300	0.721850
C138	C	1.831973	0.527633	1.055184
C139	C	1.165359	-0.069065	0.388542
C140	C	1.498693	0.264268	0.721875
C141	C	1.832026	0.597601	1.055209
C142	C	1.165175	-0.303225	0.178967
C143	C	1.498508	0.030108	0.512301
C144	C	1.831842	0.363442	0.845634
C145	C	1.165309	-0.303068	0.089347
C146	C	1.498642	0.030266	0.422680
C147	C	1.831975	0.363599	0.756013
C148	C	1.165293	-0.303086	1.016564
C149	C	1.498626	0.030247	1.349898
C150	C	1.831959	0.363580	1.683231
C151	C	1.165280	-0.303108	0.925256
C152	C	1.498613	0.030225	1.258589
C153	C	1.831947	0.363559	1.591922
C154	C	1.165275	-0.303122	0.852479
C155	C	1.498608	0.030211	1.185813
C156	C	1.831941	0.363545	1.519146
C157	C	1.165261	-0.303143	0.761165
C158	C	1.498594	0.030191	1.094498
C159	C	1.831928	0.363524	1.427832
H160	H	1.258619	-0.542732	0.482061
H161	H	1.591952	-0.209398	0.815394
H162	H	1.925286	0.123935	1.148727
H163	H	1.071595	-0.542970	0.294793
H164	H	1.404928	-0.209637	0.628126
H165	H	1.738261	0.123697	0.961460
F166	F	1.271695	-0.935335	0.495051
F167	F	1.605028	-0.602001	0.828384
F168	F	1.938361	-0.268668	1.161717
H169	H	1.258858	-1.062835	0.482182
H170	H	1.592192	-0.729502	0.815515
H171	H	1.925525	-0.396168	1.148849
F172	F	1.058971	-1.071313	0.281995
F173	F	1.392304	-0.737980	0.615328
F174	F	1.725637	-0.404646	0.948662
H175	H	1.071798	-0.943810	0.294872
H176	H	1.405131	-0.610477	0.628206
H177	H	1.738464	-0.277144	0.961539
H178	H	1.071662	-0.662241	0.294819
H179	H	1.404996	-0.328908	0.628152
H180	H	1.738329	0.004425	0.961485
F181	F	1.271566	-0.670202	0.494992
F182	F	1.604900	-0.336869	0.828325
F183	F	1.938233	-0.003535	1.161658
