data_functionalizedCrystal
_audit_creation_method	'MofGen! by Chris Wilmer'
_symmetry_space_group_name_H-M	'P1'
_symmetry_Int_Tables_number	1
_symmetry_cell_setting	triclinic
loop_
_symmetry_equiv_pos_as_xyz
  x,y,z
_cell_length_a	14.421503
_cell_length_b	9.065218
_cell_length_c	9.065218
_cell_angle_alpha	85.015885
_cell_angle_beta	90.006200
_cell_angle_gamma	89.992178
loop_
_atom_site_label
_atom_site_type_symbol
_atom_site_fract_x
_atom_site_fract_y
_atom_site_fract_z
O1	O	0.077110	-1.960410	-0.216337
O2	O	0.077111	-1.531125	-0.234083
O3	O	0.077108	-1.754641	-0.010567
O4	O	0.077112	-1.736895	-0.439852
O5	O	-0.077115	-1.754604	-0.010601
O6	O	-0.077113	-1.531088	-0.234116
O7	O	-0.077114	-1.960373	-0.216370
Cu8	Cu	-0.091195	-1.745727	-0.225246
Cu9	Cu	0.091192	-1.745771	-0.225207
O10	O	-0.077111	-1.736858	-0.439885
C11	C	-0.000001	-1.476120	-0.232394
C12	C	-0.000000	-1.312277	-0.227294
N13	N	-0.219476	-1.745707	-0.225273
C14	C	-0.000002	-1.752917	0.044403
C15	C	0.000003	-1.747817	0.208245
C16	C	-0.469129	-1.642335	-0.328579
C17	C	-0.530931	-1.776048	-0.359000
C18	C	-0.408638	-1.745743	-0.225238
C19	C	-0.530929	-1.612064	-0.194852
C20	C	-0.591359	-1.745765	-0.225208
C21	C	-0.469079	-1.879525	-0.255726
C22	C	-0.469071	-1.715452	-0.091519
C23	C	-0.530846	-1.849261	-0.121885
C24	C	-0.303376	-1.745728	-0.225259
C25	C	-0.696618	-1.745795	-0.225186
N26	N	0.219473	-1.745803	-0.225168
C27	C	0.000000	-2.015378	-0.218059
C28	C	0.000006	-2.179221	-0.223158
C29	C	0.000001	-1.738582	-0.494855
C30	C	0.000003	-1.743681	-0.658698
H31	H	-0.442030	-1.554977	-0.416044
Br32	Br	-0.576216	-1.423628	-0.152036
Br33	Br	-0.423996	-2.068014	-0.298757
Br34	Br	-0.576219	-1.818793	-0.547454
Br35	Br	-0.423744	-1.672648	0.096883
H36	H	-0.557775	-1.936816	-0.034476
