data_functionalizedCrystal
_audit_creation_method	'MofGen! by Chris Wilmer'
_symmetry_space_group_name_H-M	'P1'
_symmetry_Int_Tables_number	1
_symmetry_cell_setting	triclinic
loop_
_symmetry_equiv_pos_as_xyz
  x,y,z
_cell_length_a	17.038272
_cell_length_b	16.992695
_cell_length_c	16.053802
_cell_angle_alpha	87.258926
_cell_angle_beta	87.238566
_cell_angle_gamma	89.110110
loop_
_atom_site_label
_atom_site_type_symbol
_atom_site_fract_x
_atom_site_fract_y
_atom_site_fract_z
O1	O	1.051195	-0.167893	-0.069325
O2	O	1.384528	0.165440	0.264008
O3	O	1.717862	0.498774	0.597341
O4	O	0.823395	-0.165177	-0.069350
O5	O	1.156729	0.168156	0.263984
O6	O	1.490062	0.501490	0.597317
O7	O	0.936382	-0.052332	-0.069331
O8	O	1.269715	0.281002	0.264002
O9	O	1.603048	0.614335	0.597336
O10	O	0.938209	-0.280738	-0.069344
O11	O	1.271542	0.052595	0.263989
O12	O	1.604875	0.385928	0.597323
O13	O	0.930161	-0.058516	0.069527
O14	O	1.263494	0.274818	0.402860
O15	O	1.596828	0.608151	0.736194
O16	O	0.817174	-0.171361	0.069508
O17	O	1.150508	0.161972	0.402841
O18	O	1.483841	0.495306	0.736175
O19	O	1.044974	-0.174077	0.069533
O20	O	1.378308	0.159256	0.402866
O21	O	1.711641	0.492590	0.736199
Zn22	Zn	0.930087	-0.173701	0.091567
Zn23	Zn	1.263420	0.159633	0.424900
Zn24	Zn	1.596753	0.492966	0.758234
Zn25	Zn	0.938283	-0.165553	-0.091384
Zn26	Zn	1.271616	0.167780	0.241949
Zn27	Zn	1.604950	0.501113	0.575282
O28	O	0.931988	-0.286922	0.069514
O29	O	1.265321	0.046411	0.402847
O30	O	1.598655	0.379744	0.736180
C31	C	0.930922	-0.026054	0.000098
C32	C	1.264255	0.307279	0.333431
C33	C	1.597588	0.640612	0.666764
C34	C	0.923911	0.061457	0.000097
C35	C	1.257245	0.394791	0.333430
C36	C	1.590578	0.728124	0.666763
C37	C	0.791002	-0.165799	0.000076
C38	C	1.124335	0.167534	0.333409
C39	C	1.457668	0.500867	0.666743
C40	C	0.703747	-0.158432	0.000067
C41	C	1.037080	0.174902	0.333400
C42	C	1.370414	0.508235	0.666734
N43	N	0.924499	-0.179261	0.216426
N44	N	1.257832	0.154072	0.549760
N45	N	1.591165	0.487406	0.883093
C46	C	0.657877	-0.226072	0.000064
C47	C	0.991210	0.107262	0.333397
C48	C	1.324544	0.440595	0.666730
C49	C	0.575891	-0.219145	0.000076
C50	C	0.909225	0.114188	0.333409
C51	C	1.242558	0.447521	0.666742
C52	C	0.539777	-0.144578	0.000085
C53	C	0.873111	0.188755	0.333418
C54	C	1.206444	0.522089	0.666751
C55	C	0.585654	-0.076933	0.000090
C56	C	0.918987	0.256400	0.333424
C57	C	1.252320	0.589734	0.666757
C58	C	0.667637	-0.083861	0.000084
C59	C	1.000971	0.249473	0.333418
C60	C	1.334304	0.582806	0.666751
C61	C	0.292483	-0.120105	0.000108
C62	C	0.625816	0.213229	0.333442
C63	C	0.959150	0.546562	0.666775
C64	C	0.210493	-0.113182	0.000112
C65	C	0.543826	0.220151	0.333445
C66	C	0.877160	0.553485	0.666779
C67	C	0.200736	-0.255395	0.000099
C68	C	0.534070	0.077938	0.333432
C69	C	0.867403	0.411272	0.666765
C70	C	0.282722	-0.262316	0.000088
C71	C	0.616056	0.071018	0.333421
C72	C	0.949389	0.404351	0.666754
C73	C	0.328591	-0.194671	0.000098
C74	C	0.661924	0.138662	0.333431
C75	C	0.995258	0.471996	0.666764
C76	C	0.455975	-0.137496	0.000094
C77	C	0.789308	0.195837	0.333428
C78	C	1.122642	0.529171	0.666761
C79	C	0.412392	-0.201754	0.000094
C80	C	0.745725	0.131580	0.333427
C81	C	1.079058	0.464913	0.666761
C82	C	1.077368	-0.173454	0.000105
C83	C	1.410701	0.159879	0.333438
C84	C	1.744035	0.493212	0.666772
C85	C	1.164623	-0.180822	0.000109
C86	C	1.497956	0.152511	0.333442
C87	C	1.831290	0.485845	0.666775
C88	C	0.937448	-0.313199	0.000083
C89	C	1.270781	0.020134	0.333417
C90	C	1.604115	0.353467	0.666750
C91	C	0.944458	-0.400711	0.000079
C92	C	1.277792	-0.067378	0.333412
C93	C	1.611125	0.265956	0.666746
C94	C	0.991551	0.107186	0.000105
C95	C	1.324885	0.440519	0.333438
C96	C	1.658218	0.773852	0.666771
C97	C	0.984960	0.189412	0.000096
C98	C	1.318293	0.522746	0.333429
C99	C	1.651627	0.856079	0.666763
C100	C	0.910728	0.225909	0.000085
C101	C	1.244061	0.559242	0.333419
C102	C	1.577395	0.892576	0.666752
C103	C	0.843083	0.180175	0.000075
C104	C	1.176417	0.513508	0.333408
C105	C	1.509750	0.846842	0.666741
C106	C	0.849676	0.097950	0.000077
C107	C	1.183009	0.431283	0.333411
C108	C	1.516342	0.764617	0.666744
C109	C	0.883406	0.471330	0.000071
C110	C	1.216739	0.804663	0.333404
C111	C	1.550073	1.137997	0.666738
C112	C	0.876819	0.553561	0.000071
C113	C	1.210152	0.886894	0.333404
C114	C	1.543485	1.220227	0.666737
C115	C	1.018696	0.562793	0.000091
C116	C	1.352029	0.896126	0.333424
C117	C	1.685363	1.229459	0.666757
C118	C	1.025282	0.480565	0.000098
C119	C	1.358615	0.813899	0.333432
C120	C	1.691948	1.147232	0.666765
C121	C	0.957637	0.434839	0.000083
C122	C	1.290970	0.768172	0.333417
C123	C	1.624304	1.101505	0.666750
N124	N	0.903989	0.309958	0.000079
N125	N	1.237322	0.643291	0.333412
N126	N	1.570655	0.976624	0.666746
N127	N	0.964377	0.350792	0.000083
N128	N	1.297711	0.684125	0.333417
N129	N	1.631044	1.017459	0.666750
N130	N	0.943877	-0.159987	-0.216244
N131	N	1.277210	0.173346	0.117090
N132	N	1.610543	0.506680	0.450423
C133	C	0.972594	-0.131265	0.260128
C134	C	1.305928	0.202068	0.593462
C135	C	1.639261	0.535402	0.926795
C136	C	0.968693	-0.135162	0.347534
C137	C	1.302027	0.198171	0.680868
C138	C	1.635360	0.531504	1.014201
C139	C	0.916700	-0.187061	0.391237
C140	C	1.250033	0.146273	0.724570
C141	C	1.583367	0.479606	1.057904
C142	C	0.868599	-0.235059	0.347529
C143	C	1.201932	0.098274	0.680862
C144	C	1.535266	0.431608	1.014196
C145	C	0.872497	-0.231157	0.260124
C146	C	1.205830	0.102176	0.593458
C147	C	1.539163	0.435510	0.926791
C148	C	0.899673	-0.204083	0.652644
C149	C	1.233007	0.129250	0.985977
C150	C	1.566340	0.462584	1.319311
C151	C	0.895781	-0.207983	0.740054
C152	C	1.229114	0.125350	1.073388
C153	C	1.562448	0.458683	1.406721
C154	C	0.995875	-0.108085	0.740054
C155	C	1.329208	0.225248	1.073387
C156	C	1.662541	0.558581	1.406721
C157	C	0.999771	-0.104191	0.652648
C158	C	1.333104	0.229142	0.985981
C159	C	1.666438	0.562476	1.319314
C160	C	0.951667	-0.152186	0.608947
C161	C	1.285000	0.181147	0.942281
C162	C	1.618334	0.514480	1.275614
N163	N	0.912713	-0.191048	0.480580
N164	N	1.246046	0.142286	0.813913
N165	N	1.579380	0.475619	1.147247
N166	N	0.955651	-0.148195	0.519606
N167	N	1.288984	0.185138	0.852939
N168	N	1.622317	0.518472	1.186272
H169	H	0.687274	-0.286792	0.000056
H170	H	1.020608	0.046541	0.333389
H171	H	1.353941	0.379874	0.666722
Br172	Br	0.757875	0.035889	0.000060
Br173	Br	1.091209	0.369223	0.333393
Br174	Br	1.424542	0.702556	0.666726
Br175	Br	1.126030	0.431041	0.000086
Br176	Br	1.459363	0.764374	0.333420
Br177	Br	1.792697	1.097708	0.666753
Br178	Br	1.092299	0.057662	0.000132
Br179	Br	1.425632	0.390995	0.333465
Br180	Br	1.758966	0.724329	0.666798
Br181	Br	0.798029	-0.305488	0.406836
Br182	Br	1.131362	0.027845	0.740170
Br183	Br	1.464695	0.361179	1.073503
Br184	Br	1.043167	-0.060834	0.200827
Br185	Br	1.376500	0.272500	0.534160
Br186	Br	1.709833	0.605833	0.867493
Br187	Br	1.061154	-0.042951	0.799364
Br188	Br	1.394487	0.290383	1.132698
Br189	Br	1.727821	0.623716	1.466031
Br190	Br	1.033964	-0.070021	0.406847
Br191	Br	1.367297	0.263312	0.740180
Br192	Br	1.700631	0.596646	1.073514
H193	H	0.782642	0.209897	0.000061
H194	H	1.115975	0.543231	0.333394
H195	H	1.449309	0.876564	0.666727
Br196	Br	1.070337	-0.033761	0.593336
Br197	Br	1.403670	0.299573	0.926669
Br198	Br	1.737004	0.632906	1.260002
Br199	Br	0.406957	-0.036300	0.000106
Br200	Br	0.740290	0.297034	0.333439
Br201	Br	1.073624	0.630367	0.666772
H202	H	0.828325	0.434109	0.000059
H203	H	1.161658	0.767442	0.333392
H204	H	1.494991	1.100776	0.666726
Br205	Br	0.138482	-0.347193	0.000086
Br206	Br	0.471816	-0.013860	0.333419
Br207	Br	0.805149	0.319474	0.666752
H208	H	0.853439	-0.250248	0.775633
H209	H	1.186773	0.083085	1.108966
H210	H	1.520106	0.416418	1.442300
H211	H	0.860506	-0.243164	0.617070
H212	H	1.193840	0.090169	0.950403
H213	H	1.527173	0.423502	1.283736
H214	H	0.538547	-0.274225	0.000072
H215	H	0.871880	0.059108	0.333405
H216	H	1.205214	0.392442	0.666739
Br217	Br	0.331729	-0.363517	0.000066
Br218	Br	0.665062	-0.030184	0.333399
Br219	Br	0.998395	0.303149	0.666732
H220	H	1.040040	0.226641	0.000105
H221	H	1.373373	0.559974	0.333438
H222	H	1.706706	0.893307	0.666771
H223	H	0.833331	-0.270239	0.224543
H224	H	1.166664	0.063094	0.557876
H225	H	1.499998	0.396427	0.891210
Br226	Br	0.161481	-0.011978	0.000142
Br227	Br	0.494814	0.321356	0.333475
Br228	Br	0.828148	0.654689	0.666809
H229	H	0.329820	-0.065023	0.000117
H230	H	0.663153	0.268310	0.333451
H231	H	0.996486	0.601644	0.666784
Br232	Br	0.776068	0.603091	0.000065
Br233	Br	1.109402	0.936425	0.333398
Br234	Br	1.442735	1.269758	0.666731
H235	H	0.556243	-0.016219	0.000110
H236	H	0.889576	0.317114	0.333443
H237	H	1.222909	0.650448	0.666776
H238	H	0.704984	-0.028781	0.000087
H239	H	1.038318	0.304553	0.333420
H240	H	1.371651	0.637886	0.666753
H241	H	1.073768	0.600032	0.000101
H242	H	1.407102	0.933365	0.333435
H243	H	1.740435	1.266699	0.666768
Br244	Br	0.461404	-0.302950	0.000087
Br245	Br	0.794737	0.030384	0.333420
Br246	Br	1.128071	0.363717	0.666754
