data_functionalizedCrystal
_audit_creation_method	'MofGen! by Chris Wilmer'
_symmetry_space_group_name_H-M	'P1'
_symmetry_Int_Tables_number	1
_symmetry_cell_setting	triclinic
loop_
_symmetry_equiv_pos_as_xyz
  x,y,z
_cell_length_a	12.645330
_cell_length_b	13.897449
_cell_length_c	13.897441
_cell_angle_alpha	90.018596
_cell_angle_beta	89.973671
_cell_angle_gamma	89.981028
loop_
_atom_site_label
_atom_site_type_symbol
_atom_site_fract_x
_atom_site_fract_y
_atom_site_fract_z
Zn1	Zn	-0.421980	-1.474682	-0.545403
Zn2	Zn	-0.088646	-1.141349	-0.212070
Zn3	Zn	0.244687	-0.808016	0.121263
Zn4	Zn	-0.599272	-1.474582	-0.384114
Zn5	Zn	-0.265939	-1.141249	-0.050781
Zn6	Zn	0.067395	-0.807916	0.282553
Zn7	Zn	-0.422027	-1.313377	-0.384122
Zn8	Zn	-0.088694	-0.980044	-0.050788
Zn9	Zn	0.244640	-0.646711	0.282545
Zn10	Zn	-0.599205	-1.313353	-0.545367
Zn11	Zn	-0.265872	-0.980020	-0.212033
Zn12	Zn	0.067461	-0.646686	0.121300
O13	O	-0.510621	-1.393999	-0.464751
O14	O	-0.177288	-1.060665	-0.131418
O15	O	0.156046	-0.727332	0.201915
O16	O	-0.445506	-1.609651	-0.524020
O17	O	-0.112172	-1.276317	-0.190687
O18	O	0.221161	-0.942984	0.142647
O19	O	-0.575808	-1.453166	-0.249133
O20	O	-0.242474	-1.119833	0.084200
O21	O	0.090859	-0.786500	0.417533
O22	O	-0.273673	-1.334827	-0.405535
O23	O	0.059660	-1.001494	-0.072201
O24	O	0.392993	-0.668160	0.261132
O25	O	-0.575762	-1.609577	-0.405521
O26	O	-0.242428	-1.276244	-0.072188
O27	O	0.090905	-0.942910	0.261145
O28	O	-0.273639	-1.453337	-0.524028
O29	O	0.059695	-1.120004	-0.190694
O30	O	0.393028	-0.786670	0.142639
O31	O	-0.445587	-1.334730	-0.249139
O32	O	-0.112253	-1.001397	0.084194
O33	O	0.221080	-0.668063	0.417528
O34	O	-0.445522	-1.178393	-0.405499
O35	O	-0.112189	-0.845059	-0.072166
O36	O	0.221145	-0.511726	0.261168
O37	O	-0.575648	-1.334785	-0.680353
O38	O	-0.242315	-1.001452	-0.347020
O39	O	0.091018	-0.668119	-0.013686
O40	O	-0.575694	-1.178375	-0.523965
O41	O	-0.242361	-0.845041	-0.190632
O42	O	0.090972	-0.511708	0.142702
O43	O	-0.445441	-1.453313	-0.680380
O44	O	-0.112108	-1.119980	-0.347047
O45	O	0.221225	-0.786647	-0.013713
O46	O	-0.747610	-1.453143	-0.405486
O47	O	-0.414277	-1.119810	-0.072153
O48	O	-0.080944	-0.786476	0.261181
O49	O	-0.747561	-1.334689	-0.523957
O50	O	-0.414228	-1.001355	-0.190624
O51	O	-0.080895	-0.668022	0.142709
C52	C	-0.510607	-1.143384	-0.464729
C53	C	-0.177274	-0.810051	-0.131396
C54	C	0.156060	-0.476718	0.201937
C55	C	-0.510626	-1.036171	-0.464743
C56	C	-0.177293	-0.702837	-0.131410
C57	C	0.156040	-0.369504	0.201924
C58	C	-0.786051	-1.393928	-0.464738
C59	C	-0.452717	-1.060595	-0.131405
C60	C	-0.119384	-0.727262	0.201929
C61	C	-0.903881	-1.393987	-0.464764
C62	C	-0.570547	-1.060653	-0.131431
C63	C	-0.237214	-0.727320	0.201902
C64	C	-0.510532	-1.394058	-0.716344
C65	C	-0.177199	-1.060724	-0.383011
C66	C	0.156135	-0.727391	-0.049678
C67	C	-0.510494	-1.394083	-0.823558
C68	C	-0.177161	-1.060750	-0.490225
C69	C	0.156173	-0.727416	-0.156892
C70	C	-1.071458	-1.319774	-0.539525
C71	C	-0.738125	-0.986441	-0.206191
C72	C	-0.404791	-0.653108	0.127142
C73	C	-0.948899	-1.319395	-0.539284
C74	C	-0.615565	-0.986061	-0.205951
C75	C	-0.282232	-0.652728	0.127382
C76	C	-0.948478	-1.366471	-0.363109
C77	C	-0.615145	-1.033138	-0.029775
C78	C	-0.281812	-0.699804	0.303558
C79	C	-1.071077	-1.366018	-0.363563
C80	C	-0.737743	-1.032685	-0.030229
C81	C	-0.404410	-0.699351	0.303104
C82	C	-1.070967	-1.496168	-0.490835
C83	C	-0.737633	-1.162835	-0.157502
C84	C	-0.404300	-0.829502	0.175831
C85	C	-0.948360	-1.495542	-0.493058
C86	C	-0.615027	-1.162209	-0.159725
C87	C	-0.281693	-0.828875	0.173609
C88	C	-0.234116	-1.394096	-0.464786
C89	C	0.099218	-1.060762	-0.131453
C90	C	0.432551	-0.727429	0.201881
C91	C	-0.116286	-1.394137	-0.464801
C92	C	0.217048	-1.060804	-0.131467
C93	C	0.550381	-0.727470	0.201866
C94	C	-0.510636	-1.645592	-0.464774
C95	C	-0.177303	-1.312258	-0.131441
C96	C	0.156031	-0.978925	0.201893
C97	C	-0.510642	-1.752806	-0.464784
C98	C	-0.177309	-1.419472	-0.131450
C99	C	0.156024	-1.086139	0.201883
C100	C	-0.510630	-0.839875	-0.464768
C101	C	-0.177297	-0.506542	-0.131435
C102	C	0.156037	-0.173209	0.201899
C103	C	-0.510625	-0.949108	-0.464751
C104	C	-0.177291	-0.615775	-0.131418
C105	C	0.156042	-0.282441	0.201915
C106	C	-0.510464	-1.394103	-0.910628
C107	C	-0.177131	-1.060769	-0.577295
C108	C	0.156203	-0.727436	-0.243962
C109	C	-0.510416	-1.394130	-1.019861
C110	C	-0.177083	-1.060797	-0.686528
C111	C	0.156250	-0.727464	-0.353194
C112	C	-0.510633	-1.393995	-0.214137
C113	C	-0.177300	-1.060662	0.119196
C114	C	0.156034	-0.727329	0.452530
C115	C	-0.510372	-1.394157	-0.106924
C116	C	-0.177039	-1.060824	0.226410
C117	C	0.156294	-0.727491	0.559743
H118	H	-0.918742	-1.336610	-0.614661
H119	H	-0.585409	-1.003276	-0.281328
H120	H	-0.252075	-0.669943	0.052005
Br121	Br	-1.120477	-1.348196	-0.665576
Br122	Br	-0.787143	-1.014863	-0.332243
Br123	Br	-0.453810	-0.681529	0.001091
H124	H	-1.100734	-1.417831	-0.305989
H125	H	-0.767401	-1.084497	0.027344
H126	H	-0.434068	-0.751164	0.360678
H127	H	-1.099955	-1.551570	-0.436411
H128	H	-0.766622	-1.218237	-0.103077
H129	H	-0.433288	-0.884904	0.230256
Br130	Br	-1.122992	-1.194490	-0.511171
Br131	Br	-0.789659	-0.861157	-0.177838
Br132	Br	-0.456325	-0.527824	0.155496
Br133	Br	-0.900166	-1.193318	-0.510544
Br134	Br	-0.566833	-0.859985	-0.177211
Br135	Br	-0.233499	-0.526651	0.156122
Br136	Br	-1.122370	-1.538006	-0.612285
Br137	Br	-0.789036	-1.204673	-0.278952
Br138	Br	-0.455703	-0.871340	0.054381
Br139	Br	-0.899887	-1.453881	-0.267772
Br140	Br	-0.566554	-1.120548	0.065561
Br141	Br	-0.233220	-0.787215	0.398895
H142	H	-0.919207	-1.516293	-0.567871
H143	H	-0.585873	-1.182959	-0.234538
H144	H	-0.252540	-0.849626	0.098796
Br145	Br	-1.118908	-1.241705	-0.326802
Br146	Br	-0.785575	-0.908372	0.006531
Br147	Br	-0.452241	-0.575039	0.339865
Br148	Br	-0.897470	-1.243451	-0.325681
Br149	Br	-0.564137	-0.910117	0.007652
Br150	Br	-0.230803	-0.576784	0.340986
H151	H	-0.917709	-1.553863	-0.442596
H152	H	-0.584376	-1.220530	-0.109263
H153	H	-0.251043	-0.887197	0.224070
