data_functionalizedCrystal
_audit_creation_method	'MofGen! by Chris Wilmer'
_symmetry_space_group_name_H-M	'P1'
_symmetry_Int_Tables_number	1
_symmetry_cell_setting	triclinic
loop_
_symmetry_equiv_pos_as_xyz
  x,y,z
_cell_length_a	17.077404
_cell_length_b	17.077402
_cell_length_c	17.077396
_cell_angle_alpha	89.970216
_cell_angle_beta	89.980499
_cell_angle_gamma	90.023108
loop_
_atom_site_label
_atom_site_type_symbol
_atom_site_fract_x
_atom_site_fract_y
_atom_site_fract_z
Zn1	Zn	1.200055	-0.312503	-0.443836
Zn2	Zn	1.533388	0.020830	-0.110502
Zn3	Zn	1.866721	0.354163	0.222831
Zn4	Zn	1.199962	-0.443778	-0.312567
Zn5	Zn	1.533295	-0.110445	0.020767
Zn6	Zn	1.866628	0.222888	0.354100
Zn7	Zn	1.068786	-0.312531	-0.312584
Zn8	Zn	1.402120	0.020802	0.020750
Zn9	Zn	1.735453	0.354136	0.354083
Zn10	Zn	1.068754	-0.443732	-0.443790
Zn11	Zn	1.402088	-0.110398	-0.110457
Zn12	Zn	1.735421	0.222935	0.222876
O13	O	1.134389	-0.378136	-0.378194
O14	O	1.467723	-0.044803	-0.044861
O15	O	1.801056	0.288531	0.288473
O16	O	1.309889	-0.329925	-0.426434
O17	O	1.643223	0.003408	-0.093101
O18	O	1.976556	0.336741	0.240232
O19	O	1.182536	-0.426399	-0.202722
O20	O	1.515869	-0.093066	0.130611
O21	O	1.849202	0.240268	0.463945
O22	O	1.086252	-0.202680	-0.330021
O23	O	1.419585	0.130653	0.003313
O24	O	1.752918	0.463986	0.336646
O25	O	1.309821	-0.426372	-0.329992
O26	O	1.643154	-0.093039	0.003342
O27	O	1.976488	0.240294	0.336675
O28	O	1.182694	-0.202660	-0.426451
O29	O	1.516027	0.130673	-0.093118
O30	O	1.849361	0.464007	0.240216
O31	O	1.086162	-0.329972	-0.202734
O32	O	1.419495	0.003361	0.130599
O33	O	1.752828	0.336694	0.463932
O34	O	0.958935	-0.329927	-0.329976
O35	O	1.292269	0.003406	0.003357
O36	O	1.625602	0.336740	0.336690
O37	O	1.086197	-0.426293	-0.553643
O38	O	1.419531	-0.092960	-0.220310
O39	O	1.752864	0.240374	0.113023
O40	O	0.958912	-0.426320	-0.426373
O41	O	1.292245	-0.092986	-0.093040
O42	O	1.625578	0.240347	0.240293
O43	O	1.182663	-0.329880	-0.553677
O44	O	1.515996	0.003453	-0.220343
O45	O	1.849330	0.336787	0.112990
O46	O	1.182505	-0.553619	-0.329948
O47	O	1.515838	-0.220286	0.003386
O48	O	1.849171	0.113048	0.336719
O49	O	1.086107	-0.553585	-0.426357
O50	O	1.419440	-0.220251	-0.093024
O51	O	1.752774	0.113082	0.240310
C52	C	0.930441	-0.378122	-0.378172
C53	C	1.263775	-0.044789	-0.044839
C54	C	1.597108	0.288545	0.288494
C55	C	0.843192	-0.378135	-0.378182
C56	C	1.176525	-0.044801	-0.044848
C57	C	1.509858	0.288532	0.288485
C58	C	1.134314	-0.582084	-0.378163
C59	C	1.467647	-0.248751	-0.044829
C60	C	1.800980	0.084583	0.288504
C61	C	1.134353	-0.669334	-0.378176
C62	C	1.467686	-0.336000	-0.044842
C63	C	1.801020	-0.002667	0.288491
C64	C	0.802210	-0.428402	-0.428295
C65	C	1.135543	-0.095069	-0.094962
C66	C	1.468876	0.238265	0.238372
C67	C	0.720229	-0.428404	-0.428308
C68	C	1.053563	-0.095070	-0.094974
C69	C	1.386896	0.238263	0.238359
C70	C	0.679232	-0.378141	-0.378202
C71	C	1.012566	-0.044808	-0.044869
C72	C	1.345899	0.288525	0.288464
C73	C	0.720220	-0.327869	-0.328087
C74	C	1.053553	0.005465	0.005247
C75	C	1.386887	0.338798	0.338580
C76	C	0.802199	-0.327863	-0.328079
C77	C	1.135532	0.005470	0.005255
C78	C	1.468865	0.338803	0.338588
C79	C	0.549350	-0.327884	-0.328106
C80	C	0.882683	0.005449	0.005228
C81	C	1.216016	0.338783	0.338561
C82	C	0.467365	-0.327890	-0.328112
C83	C	0.800699	0.005443	0.005221
C84	C	1.134032	0.338777	0.338554
C85	C	0.467380	-0.428424	-0.428335
C86	C	0.800714	-0.095091	-0.095001
C87	C	1.134047	0.238242	0.238332
C88	C	0.549359	-0.428419	-0.428327
C89	C	0.882693	-0.095086	-0.094993
C90	C	1.216026	0.238247	0.238340
C91	C	0.590341	-0.378147	-0.378210
C92	C	0.923675	-0.044814	-0.044876
C93	C	1.257008	0.288520	0.288457
C94	C	1.184598	-0.710316	-0.328029
C95	C	1.517932	-0.376982	0.005304
C96	C	1.851265	-0.043649	0.338638
C97	C	1.184637	-0.792296	-0.328049
C98	C	1.517970	-0.458963	0.005284
C99	C	1.851303	-0.125629	0.338618
C100	C	1.134425	-0.833293	-0.378212
C101	C	1.467759	-0.499960	-0.044879
C102	C	1.801092	-0.166626	0.288454
C103	C	1.084178	-0.792305	-0.428364
C104	C	1.417511	-0.458972	-0.095031
C105	C	1.750844	-0.125639	0.238302
C106	C	1.084144	-0.710327	-0.428348
C107	C	1.417477	-0.376993	-0.095014
C108	C	1.750810	-0.043660	0.238319
C109	C	1.084250	-0.963175	-0.428394
C110	C	1.417584	-0.629842	-0.095061
C111	C	1.750917	-0.296509	0.238273
C112	C	1.084283	-1.045160	-0.428410
C113	C	1.417616	-0.711827	-0.095076
C114	C	1.750950	-0.378493	0.238257
C115	C	1.184743	-1.045145	-0.328096
C116	C	1.518077	-0.711812	0.005238
C117	C	1.851410	-0.378478	0.338571
C118	C	1.184709	-0.963166	-0.328079
C119	C	1.518043	-0.629833	0.005254
C120	C	1.851376	-0.296499	0.338588
C121	C	1.134461	-0.922184	-0.378230
C122	C	1.467794	-0.588851	-0.044897
C123	C	1.801127	-0.255517	0.288437
C124	C	1.339134	-0.378151	-0.378216
C125	C	1.672467	-0.044818	-0.044883
C126	C	2.005800	0.288516	0.288450
C127	C	1.426383	-0.378157	-0.378226
C128	C	1.759717	-0.044824	-0.044892
C129	C	2.093050	0.288509	0.288441
C130	C	1.134437	-0.378078	-0.582938
C131	C	1.467770	-0.044745	-0.249605
C132	C	1.801103	0.288588	0.083728
C133	C	1.134457	-0.378054	-0.670188
C134	C	1.467790	-0.044720	-0.336855
C135	C	1.801124	0.288613	-0.003522
C136	C	1.134487	-0.173392	-0.378243
C137	C	1.467820	0.159942	-0.044909
C138	C	1.801153	0.493275	0.288424
C139	C	1.134528	-0.086142	-0.378263
C140	C	1.467862	0.247191	-0.044930
C141	C	1.801195	0.580525	0.288403
C142	C	1.184689	-0.327847	-0.711197
C143	C	1.518022	0.005486	-0.377864
C144	C	1.851355	0.338819	-0.044530
C145	C	1.184698	-0.327821	-0.793178
C146	C	1.518031	0.005512	-0.459844
C147	C	1.851365	0.338846	-0.126511
C148	C	1.134479	-0.378006	-0.834148
C149	C	1.467813	-0.044673	-0.500814
C150	C	1.801146	0.288661	-0.167481
C151	C	1.084242	-0.428214	-0.793133
C152	C	1.417576	-0.094881	-0.459800
C153	C	1.750909	0.238452	-0.126467
C154	C	1.084229	-0.428236	-0.711154
C155	C	1.417563	-0.094903	-0.377821
C156	C	1.750896	0.238431	-0.044488
C157	C	1.084274	-0.428167	-0.964003
C158	C	1.417607	-0.094834	-0.630670
C159	C	1.750941	0.238499	-0.297337
C160	C	1.084288	-0.428147	-1.045988
C161	C	1.417621	-0.094814	-0.712655
C162	C	1.750954	0.238520	-0.379321
C163	C	1.184742	-0.327752	-1.046027
C164	C	1.518076	0.005581	-0.712693
C165	C	1.851409	0.338914	-0.379360
C166	C	1.184730	-0.327774	-0.964048
C167	C	1.518063	0.005559	-0.630714
C168	C	1.851396	0.338893	-0.297381
C169	C	1.134493	-0.377984	-0.923039
C170	C	1.467827	-0.044650	-0.589705
C171	C	1.801160	0.288683	-0.256372
C172	C	1.134387	-0.378137	-0.174246
C173	C	1.467721	-0.044804	0.159087
C174	C	1.801054	0.288530	0.492421
C175	C	1.134519	-0.377941	-0.086997
C176	C	1.467852	-0.044607	0.246337
C177	C	1.801186	0.288726	0.579670
H178	H	0.835584	-0.469334	-0.469094
H179	H	1.168917	-0.136001	-0.135761
H180	H	1.502250	0.197333	0.197572
Br181	Br	0.664614	-0.496625	-0.496324
Br182	Br	0.997947	-0.163291	-0.162990
Br183	Br	1.331280	0.170042	0.170343
H184	H	1.043335	-0.929811	-0.469235
H185	H	1.376668	-0.596477	-0.135902
H186	H	1.710002	-0.263144	0.197431
H187	H	1.225660	-1.078516	-0.287263
H188	H	1.558994	-0.745183	0.046070
H189	H	1.892327	-0.411850	0.379404
H190	H	1.043411	-1.078538	-0.469272
H191	H	1.376744	-0.745204	-0.135938
H192	H	1.710078	-0.411871	0.197395
Br193	Br	1.252891	-0.259672	-0.908445
Br194	Br	1.586224	0.073661	-0.575112
Br195	Br	1.919558	0.406994	-0.241778
H196	H	0.582737	-0.469352	-0.469122
H197	H	0.916070	-0.136018	-0.135789
H198	H	1.249404	0.197315	0.197544
H199	H	1.225551	-0.825660	-0.287214
H200	H	1.558884	-0.492327	0.046119
H201	H	1.892218	-0.158993	0.379453
H202	H	0.434009	-0.469355	-0.469144
H203	H	0.767342	-0.136022	-0.135810
H204	H	1.100676	0.197311	0.197523
Br205	Br	1.015956	-0.654707	-0.496411
Br206	Br	1.349289	-0.321374	-0.163078
Br207	Br	1.682623	0.011960	0.170255
H208	H	1.043318	-0.469111	-0.677766
H209	H	1.376651	-0.135778	-0.344433
H210	H	1.709985	0.197555	-0.011099
Br211	Br	1.252852	-0.259742	-0.655602
Br212	Br	1.586186	0.073592	-0.322269
Br213	Br	1.919519	0.406925	0.011064
H214	H	0.433988	-0.286953	-0.287321
H215	H	0.767321	0.046381	0.046012
H216	H	1.100654	0.379714	0.379345
H217	H	1.225591	-0.929786	-0.287228
H218	H	1.558925	-0.596453	0.046105
H219	H	1.892258	-0.263120	0.379438
H220	H	1.043298	-0.825692	-0.469211
H221	H	1.376631	-0.492358	-0.135878
H222	H	1.709964	-0.159025	0.197455
H223	H	0.582715	-0.286940	-0.287302
H224	H	0.916048	0.046393	0.046031
H225	H	1.249381	0.379727	0.379365
Br226	Br	0.857818	-0.259637	-0.260069
Br227	Br	1.191152	0.073697	0.073264
Br228	Br	1.524485	0.407030	0.406597
H229	H	1.225603	-0.286940	-0.826563
H230	H	1.558937	0.046393	-0.493230
H231	H	1.892270	0.379727	-0.159897
H232	H	1.225645	-0.286868	-1.079420
H233	H	1.558979	0.046465	-0.746087
H234	H	1.892312	0.379798	-0.412753
Br235	Br	1.016125	-0.496248	-1.101591
Br236	Br	1.349459	-0.162914	-0.768257
Br237	Br	1.682792	0.170419	-0.434924
H238	H	0.686834	-0.286941	-0.287293
H239	H	1.020167	0.046393	0.046040
H240	H	1.353500	0.379726	0.379373
H241	H	1.043350	-0.469073	-0.826498
H242	H	1.376684	-0.135740	-0.493164
H243	H	1.710017	0.197594	-0.159831
H244	H	1.043354	-0.469041	-0.930616
H245	H	1.376687	-0.135708	-0.597283
H246	H	1.710021	0.197626	-0.263950
Br247	Br	1.252739	-0.654685	-0.259939
Br248	Br	1.586073	-0.321351	0.073394
Br249	Br	1.919406	0.011982	0.406727
