data_functionalizedCrystal
_audit_creation_method	'MofGen! by Chris Wilmer'
_symmetry_space_group_name_H-M	'P1'
_symmetry_Int_Tables_number	1
_symmetry_cell_setting	triclinic
loop_
_symmetry_equiv_pos_as_xyz
  x,y,z
_cell_length_a	17.019372
_cell_length_b	15.500227
_cell_length_c	8.597213
_cell_angle_alpha	79.431251
_cell_angle_beta	83.844149
_cell_angle_gamma	88.970414
loop_
_atom_site_label
_atom_site_type_symbol
_atom_site_fract_x
_atom_site_fract_y
_atom_site_fract_z
O1	O	1.047148	-0.021065	0.202025
O2	O	1.380482	0.312268	0.535359
O3	O	1.713815	0.645602	0.868692
O4	O	0.818448	-0.005826	0.225989
O5	O	1.151781	0.327507	0.559322
O6	O	1.485115	0.660840	0.892655
O7	O	0.938157	0.003312	-0.016170
O8	O	1.271491	0.336645	0.317164
O9	O	1.604824	0.669978	0.650497
O10	O	0.927439	-0.030203	0.444184
O11	O	1.260773	0.303130	0.777517
O12	O	1.594106	0.636464	1.110850
O13	O	0.930893	-0.141127	-0.001533
O14	O	1.264226	0.192206	0.331801
O15	O	1.597560	0.525539	0.665134
O16	O	0.811184	-0.150265	0.240626
O17	O	1.144517	0.183068	0.573959
O18	O	1.477850	0.516401	0.907292
O19	O	1.039884	-0.165504	0.216662
O20	O	1.373217	0.167829	0.549996
O21	O	1.706551	0.501163	0.883329
Cu22	Cu	0.924871	-0.171073	0.229980
Cu23	Cu	1.258204	0.162260	0.563314
Cu24	Cu	1.591537	0.495594	0.896647
Cu25	Cu	0.933462	-0.000257	0.212671
Cu26	Cu	1.266795	0.333076	0.546004
Cu27	Cu	1.600128	0.666409	0.879337
O28	O	0.920175	-0.174642	0.458821
O29	O	1.253508	0.158691	0.792154
O30	O	1.586841	0.492025	1.125487
C31	C	0.785534	-0.075777	0.232112
C32	C	1.118867	0.257556	0.565445
C33	C	1.452200	0.590890	0.898779
C34	C	0.698282	-0.069015	0.228532
C35	C	1.031615	0.264319	0.561865
C36	C	1.364949	0.597652	0.895198
C37	C	0.205008	-0.026757	0.207822
C38	C	0.538341	0.306576	0.541156
C39	C	0.871675	0.639909	0.874489
C40	C	0.286990	-0.033123	0.211188
C41	C	0.620323	0.300211	0.544521
C42	C	0.953656	0.633544	0.877855
C43	C	0.324012	-0.115041	0.220861
C44	C	0.657345	0.218293	0.554195
C45	C	0.990679	0.551626	0.887528
C46	C	0.279049	-0.190597	0.227153
C47	C	0.612382	0.142736	0.560486
C48	C	0.945716	0.476070	0.893820
C49	C	0.197069	-0.184230	0.223776
C50	C	0.530403	0.149104	0.557109
C51	C	0.863736	0.482437	0.890443
C52	C	0.571339	-0.138204	0.231446
C53	C	0.904673	0.195130	0.564780
C54	C	1.238006	0.528463	0.898113
C55	C	0.653325	-0.144565	0.234828
C56	C	0.986658	0.188768	0.568161
C57	C	1.319991	0.522101	0.901494
C58	C	0.661260	0.012910	0.218860
C59	C	0.994593	0.346243	0.552193
C60	C	1.327927	0.679576	0.885526
C61	C	0.579278	0.019269	0.215493
C62	C	0.912611	0.352602	0.548826
C63	C	1.245944	0.685936	0.882160
C64	C	0.534323	-0.056287	0.221777
C65	C	0.867656	0.277047	0.555110
C66	C	1.200989	0.610380	0.888443
C67	C	0.407810	-0.121550	0.224307
C68	C	0.741143	0.211784	0.557640
C69	C	1.074477	0.545117	0.890973
C70	C	0.450527	-0.049776	0.218320
C71	C	0.783860	0.283557	0.551653
C72	C	1.117193	0.616891	0.884986
N73	N	0.918834	-0.291216	0.242154
N74	N	1.252167	0.042117	0.575488
N75	N	1.585500	0.375451	0.908821
C76	C	0.969577	-0.332625	0.139581
C77	C	1.302910	0.000709	0.472915
C78	C	1.636243	0.334042	0.806248
C79	C	0.965018	-0.423545	0.148803
C80	C	1.298352	-0.090212	0.482136
C81	C	1.631685	0.243121	0.815470
C82	C	0.909720	-0.473057	0.260606
C83	C	1.243054	-0.139724	0.593940
C84	C	1.576387	0.193610	0.927273
C85	C	0.858972	-0.431642	0.363184
C86	C	1.192306	-0.098308	0.696517
C87	C	1.525639	0.235025	1.029850
C88	C	0.863527	-0.340722	0.353954
C89	C	1.196861	-0.007388	0.687287
C90	C	1.530194	0.325945	1.020620
C91	C	0.893311	-0.747779	0.293831
C92	C	1.226645	-0.414445	0.627165
C93	C	1.559978	-0.081112	0.960498
C94	C	0.888762	-0.838705	0.303057
C95	C	1.222095	-0.505372	0.636391
C96	C	1.555428	-0.172039	0.969724
C97	C	0.994807	-0.830602	0.088673
C98	C	1.328141	-0.497269	0.422007
C99	C	1.661474	-0.163936	0.755340
C100	C	0.999361	-0.739682	0.079459
C101	C	1.332694	-0.406348	0.412792
C102	C	1.666027	-0.073015	0.746126
C103	C	0.948610	-0.698274	0.182031
C104	C	1.281943	-0.364940	0.515364
C105	C	1.615276	-0.031607	0.848698
C106	C	0.905062	-0.565993	0.270038
C107	C	1.238395	-0.232660	0.603372
C108	C	1.571728	0.100674	0.936705
C109	C	0.953265	-0.605338	0.172590
C110	C	1.286599	-0.272005	0.505924
C111	C	1.619932	0.061328	0.839257
C112	C	1.072799	-0.095552	0.210539
C113	C	1.406132	0.237782	0.543872
C114	C	1.739465	0.571115	0.877205
C115	C	1.160051	-0.102308	0.214119
C116	C	1.493384	0.231025	0.547452
C117	C	1.826717	0.564359	0.880785
C118	C	0.933779	-0.064459	-0.067772
C119	C	1.267112	0.268875	0.265562
C120	C	1.600446	0.602208	0.598895
C121	C	0.931546	-0.051201	-0.243336
C122	C	1.264880	0.282132	0.089997
C123	C	1.598213	0.615465	0.423330
N124	N	0.939505	0.119886	0.200484
N125	N	1.272838	0.453219	0.533817
N126	N	1.606171	0.786553	0.867151
C127	C	0.924553	-0.106870	0.510423
C128	C	1.257887	0.226464	0.843756
C129	C	1.591220	0.559797	1.177089
C130	C	0.926786	-0.120121	0.685987
C131	C	1.260120	0.213212	1.019320
C132	C	1.593453	0.546545	1.352653
H133	H	0.323591	0.028400	0.206051
H134	H	0.656925	0.361733	0.539385
H135	H	0.990258	0.695066	0.872718
H136	H	0.683465	-0.211277	0.242716
H137	H	1.016798	0.122056	0.576049
H138	H	1.350131	0.455390	0.909383
H139	H	1.044389	-0.699371	-0.011580
H140	H	1.377722	-0.366038	0.321753
H141	H	1.711055	-0.032704	0.655087
H142	H	0.933915	0.017939	0.682862
H143	H	1.267248	0.351272	1.016195
H144	H	1.600581	0.684606	1.349528
H145	H	0.174870	0.039949	0.199957
H146	H	0.508203	0.373282	0.533290
H147	H	0.841537	0.706615	0.866624
H148	H	0.549140	0.085975	0.207614
H149	H	0.882474	0.419309	0.540947
H150	H	1.215807	0.752642	0.874281
H151	H	0.924426	-0.189267	0.759795
H152	H	1.257759	0.144067	1.093128
H153	H	1.591092	0.477400	1.426462
H154	H	0.843729	-0.879014	0.394108
H155	H	1.177063	-0.545681	0.727441
H156	H	1.510396	-0.212347	1.060774
H157	H	0.420380	0.016922	0.210438
H158	H	0.753713	0.350255	0.543771
H159	H	1.087047	0.683588	0.877104
H160	H	0.309200	-0.257296	0.235019
H161	H	0.642533	0.076038	0.568352
H162	H	0.975866	0.409371	0.901686
H163	H	0.697871	0.074423	0.213742
H164	H	1.031205	0.407756	0.547075
H165	H	1.364538	0.741089	0.880409
H166	H	0.534748	-0.199725	0.236540
H167	H	0.868081	0.133608	0.569873
H168	H	1.201414	0.466942	0.903207
H169	H	1.014609	-0.292319	0.048546
H170	H	1.347943	0.041015	0.381879
H171	H	1.681276	0.374348	0.715213
H172	H	0.160465	-0.245753	0.228920
H173	H	0.493798	0.087581	0.562253
H174	H	0.827132	0.420914	0.895586
H175	H	0.437963	-0.188248	0.232185
H176	H	0.771296	0.145085	0.565519
H177	H	1.104629	0.478419	0.898852
H178	H	1.006337	-0.457260	0.065279
H179	H	1.339670	-0.123926	0.398612
H180	H	1.673003	0.209407	0.731946
H181	H	1.036126	-0.864325	0.005162
H182	H	1.369459	-0.530992	0.338496
H183	H	1.702792	-0.197658	0.671829
H184	H	0.813943	-0.471959	0.454212
H185	H	1.147277	-0.138625	0.787545
H186	H	1.480610	0.194708	1.120878
H187	H	0.851989	-0.714072	0.377353
H188	H	1.185322	-0.380739	0.710686
H189	H	1.518656	-0.047405	1.044019
H190	H	0.998286	-0.565023	0.081554
H191	H	1.331620	-0.231690	0.414887
H192	H	1.664953	0.101644	0.748221
H193	H	0.822206	-0.307008	0.437477
H194	H	1.155539	0.026326	0.770811
H195	H	1.488873	0.359659	1.104144
H196	H	0.860038	-0.606313	0.361074
H197	H	1.193372	-0.272980	0.694407
H198	H	1.526705	0.060354	1.027740
