data_functionalizedCrystal
_audit_creation_method	'MofGen! by Chris Wilmer'
_symmetry_space_group_name_H-M	'P1'
_symmetry_Int_Tables_number	1
_symmetry_cell_setting	triclinic
loop_
_symmetry_equiv_pos_as_xyz
  x,y,z
_cell_length_a	14.044220
_cell_length_b	15.186229
_cell_length_c	16.109301
_cell_angle_alpha	89.992751
_cell_angle_beta	91.674821
_cell_angle_gamma	89.995422
loop_
_atom_site_label
_atom_site_type_symbol
_atom_site_fract_x
_atom_site_fract_y
_atom_site_fract_z
O1	O	1.257639	0.073140	-0.200438
O2	O	0.981672	0.073163	-0.193205
O3	O	1.127237	0.073142	-0.076355
O4	O	1.112074	0.073161	-0.317289
O5	O	1.127235	-0.073315	-0.076347
O6	O	0.981671	-0.073295	-0.193198
O7	O	1.257638	-0.073317	-0.200431
Zn8	Zn	1.119654	-0.096559	-0.196813
Zn9	Zn	1.119656	0.096405	-0.196823
O10	O	1.112073	-0.073296	-0.317281
C11	C	0.946358	-0.000063	-0.190036
C12	C	0.841135	-0.000055	-0.180592
N13	N	1.119660	-0.228252	-0.196806
N14	N	1.119657	0.228097	-0.196824
C15	C	0.648479	-0.000074	-0.163326
C16	C	0.590825	-0.000072	-0.230306
C17	C	0.483625	-0.000083	-0.220699
C18	C	0.755690	-0.000064	-0.172932
C19	C	1.292952	-0.000089	-0.203600
C20	C	1.398175	-0.000091	-0.213044
C21	C	1.126622	-0.000087	-0.045330
C22	C	1.124781	-0.000088	0.047102
C23	C	1.184238	0.453811	-0.145201
C24	C	1.184240	0.546001	-0.145199
C25	C	1.055077	0.546028	-0.248435
C26	C	1.055079	0.453840	-0.248440
C27	C	1.119659	0.407734	-0.196819
C28	C	1.119659	0.592112	-0.196811
C29	C	1.119661	0.692068	-0.196809
C30	C	1.119658	0.307772	-0.196821
C31	C	1.112688	-0.000065	-0.348306
C32	C	1.114529	-0.000058	-0.440738
C33	C	1.206874	-0.000081	0.263266
C34	C	1.205137	-0.000073	0.350116
C35	C	1.032429	-0.000063	0.343091
C36	C	1.034168	-0.000064	0.256243
C37	C	1.121393	-0.000078	0.216333
C38	C	1.117917	-0.000069	0.390031
C39	C	1.116032	-0.000061	0.484197
C40	C	1.123278	-0.000084	0.122161
H41	H	0.621976	-0.000063	-0.294863
H42	H	0.617330	-0.000084	-0.098774
Br43	Br	1.271883	0.391242	-0.075145
Br44	Br	1.271892	0.608531	-0.075148
Br45	Br	0.967435	0.608604	-0.318488
Br46	Br	0.967438	0.391299	-0.318505
H47	H	1.277898	-0.000090	0.230774
H48	H	1.274744	-0.000074	0.388326
Br49	Br	0.914058	-0.000042	0.397260
Br50	Br	0.918149	-0.000048	0.192542
