data_functionalizedCrystal
_audit_creation_method	'MofGen! by Chris Wilmer'
_symmetry_space_group_name_H-M	'P1'
_symmetry_Int_Tables_number	1
_symmetry_cell_setting	triclinic
loop_
_symmetry_equiv_pos_as_xyz
  x,y,z
_cell_length_a	18.215405
_cell_length_b	18.215407
_cell_length_c	18.215399
_cell_angle_alpha	90.017294
_cell_angle_beta	89.972040
_cell_angle_gamma	89.981648
loop_
_atom_site_label
_atom_site_type_symbol
_atom_site_fract_x
_atom_site_fract_y
_atom_site_fract_z
Zn1	Zn	-0.293075	-1.125079	-0.416078
Zn2	Zn	0.206925	-0.625079	0.083922
Zn3	Zn	-0.416147	-1.124993	-0.293012
Zn4	Zn	0.083853	-0.624993	0.206988
Zn5	Zn	-0.293089	-1.002013	-0.293029
Zn6	Zn	0.206911	-0.502013	0.206971
Zn7	Zn	-0.416095	-1.001982	-0.416041
Zn8	Zn	0.083905	-0.501982	0.083959
O9	O	-0.354601	-1.063517	-0.354540
O10	O	0.145399	-0.563517	0.145460
O11	O	-0.309416	-1.228052	-0.399761
O12	O	0.190584	-0.728052	0.100239
O13	O	-0.399851	-1.108657	-0.190030
O14	O	0.100149	-0.608657	0.309970
O15	O	-0.190103	-1.018387	-0.309374
O16	O	0.309897	-0.518387	0.190626
O17	O	-0.399837	-1.227989	-0.309345
O18	O	0.100163	-0.727989	0.190655
O19	O	-0.190092	-1.108803	-0.399777
O20	O	0.309908	-0.608803	0.100223
O21	O	-0.309441	-1.018303	-0.190043
O22	O	0.190559	-0.518303	0.309957
O23	O	-0.309391	-0.899025	-0.309339
O24	O	0.190609	-0.399025	0.190661
O25	O	-0.399748	-1.018335	-0.519031
O26	O	0.100252	-0.518335	-0.019031
O27	O	-0.399762	-0.899002	-0.399716
O28	O	0.100238	-0.399002	0.100284
O29	O	-0.309366	-1.108774	-0.519057
O30	O	0.190634	-0.608774	-0.019057
O31	O	-0.519124	-1.108627	-0.309310
O32	O	-0.019124	-0.608627	0.190690
O33	O	-0.519086	-1.018251	-0.399699
O34	O	-0.019086	-0.518251	0.100301
C35	C	-0.354573	-0.872311	-0.354526
C36	C	0.145427	-0.372311	0.145474
C37	C	-0.354578	-0.790512	-0.354537
C38	C	0.145422	-0.290512	0.145463
C39	C	-0.307587	-0.602350	-0.401690
C40	C	0.192413	-0.102350	0.098310
C41	C	-0.307591	-0.525491	-0.401692
C42	C	0.192409	-0.025491	0.098308
C43	C	-0.401605	-0.525436	-0.307396
C44	C	0.098395	-0.025436	0.192604
C45	C	-0.401597	-0.602294	-0.307391
C46	C	0.098403	-0.102294	0.192609
C47	C	-0.354589	-0.640748	-0.354542
C48	C	0.145411	-0.140748	0.145458
C49	C	-0.354601	-0.487032	-0.354549
C50	C	0.145399	0.012968	0.145451
C51	C	-0.354605	-0.403699	-0.354551
C52	C	0.145395	0.096301	0.145449
C53	C	-0.354583	-0.724087	-0.354540
C54	C	0.145417	-0.224087	0.145460
C55	C	-0.545808	-1.063447	-0.354515
C56	C	-0.045808	-0.563447	0.145485
C57	C	-0.627607	-1.063484	-0.354529
C58	C	-0.127607	-0.563484	0.145471
C59	C	-0.815734	-1.110586	-0.401665
C60	C	-0.315734	-0.610586	0.098335
C61	C	-0.892593	-1.110613	-0.401679
C62	C	-0.392593	-0.610613	0.098321
C63	C	-0.892717	-1.016539	-0.307461
C64	C	-0.392717	-0.516539	0.192539
C65	C	-0.815860	-1.016509	-0.307451
C66	C	-0.315860	-0.516509	0.192549
C67	C	-0.777370	-1.063537	-0.354552
C68	C	-0.277370	-0.563537	0.145448
C69	C	-0.931086	-1.063593	-0.354576
C70	C	-0.431086	-0.563593	0.145424
C71	C	-1.014420	-1.063622	-0.354590
C72	C	-0.514420	-0.563622	0.145410
C73	C	-0.694031	-1.063508	-0.354539
C74	C	-0.194031	-0.563508	0.145461
C75	C	-0.162649	-1.063608	-0.354582
C76	C	0.337351	-0.563608	0.145418
C77	C	-0.080850	-1.063647	-0.354599
C78	C	0.419150	-0.563647	0.145401
C79	C	-0.354549	-1.063560	-0.546493
C80	C	0.145451	-0.563560	-0.046493
C81	C	-0.354527	-1.063579	-0.628292
C82	C	0.145473	-0.563579	-0.128292
C83	C	-0.354623	-0.255470	-0.354553
C84	C	0.145377	0.244530	0.145447
C85	C	-0.354611	-0.337269	-0.354554
C86	C	0.145389	0.162731	0.145446
C87	C	-0.307402	-1.110697	-0.893365
C88	C	0.192598	-0.610697	-0.393365
C89	C	-0.307422	-1.110689	-0.816506
C90	C	0.192578	-0.610689	-0.316506
C91	C	-0.401546	-1.016520	-0.816468
C92	C	0.098454	-0.516520	-0.316468
C93	C	-0.401529	-1.016533	-0.893325
C94	C	0.098471	-0.516533	-0.393325
C95	C	-0.354453	-1.063620	-0.931772
C96	C	0.145547	-0.563620	-0.431772
C97	C	-0.354489	-1.063599	-0.778056
C98	C	0.145511	-0.563599	-0.278056
C99	C	-0.354511	-1.063589	-0.694722
C100	C	0.145489	-0.563589	-0.194722
C101	C	-0.354432	-1.063631	-1.015111
C102	C	0.145568	-0.563631	-0.515111
C103	C	-0.354600	-1.063516	-0.163334
C104	C	0.145400	-0.563516	0.336666
C105	C	-0.354415	-1.063641	-0.081535
C106	C	0.145585	-0.563641	0.418465
H107	H	-0.439877	-0.494117	-0.269009
H108	H	0.060123	0.005883	0.230991
H109	H	-0.439872	-0.633559	-0.268994
H110	H	0.060128	-0.133559	0.231006
O111	O	-0.778263	-1.156158	-0.447458
O112	O	-0.278263	-0.656158	0.052542
C113	C	-0.733820	-1.114208	-0.494956
C114	C	-0.233820	-0.614208	0.005044
H115	H	-0.722362	-1.058450	-0.468944
H116	H	-0.222362	-0.558450	0.031056
H117	H	-0.763413	-1.106096	-0.549489
H118	H	-0.263413	-0.606096	-0.049489
C119	C	-0.674850	-1.223144	-0.540261
C120	C	-0.174850	-0.723144	-0.040261
C121	C	-0.660771	-1.154664	-0.508309
C122	C	-0.160771	-0.654664	-0.008309
H123	H	-0.629791	-1.248100	-0.548501
H124	H	-0.129791	-0.748100	-0.048501
H125	H	-0.704793	-1.251408	-0.508263
H126	H	-0.204793	-0.751408	-0.008263
H127	H	-0.699513	-1.216375	-0.585702
H128	H	-0.199513	-0.716375	-0.085702
H129	H	-0.636118	-1.161434	-0.462866
H130	H	-0.136118	-0.661434	0.037134
H131	H	-0.630822	-1.126402	-0.540300
H132	H	-0.130822	-0.626402	-0.040300
O133	O	-0.261599	-1.156335	-0.930745
O134	O	0.238401	-0.656335	-0.430745
C135	C	-0.214063	-1.114466	-0.975222
C136	C	0.285937	-0.614466	-0.475222
H137	H	-0.209516	-1.056502	-0.952055
H138	H	0.290484	-0.556502	-0.452055
H139	H	-0.236802	-1.111932	-1.033465
H140	H	0.263198	-0.611932	-0.533465
C141	C	-0.143146	-1.221646	-1.004880
C142	C	0.356854	-0.721646	-0.504880
C143	C	-0.137557	-1.150455	-0.976421
C144	C	0.362443	-0.650455	-0.476421
H145	H	-0.095955	-1.243847	-1.005623
H146	H	0.404045	-0.743847	-0.505623
H147	H	-0.175174	-1.249855	-0.974917
H148	H	0.324826	-0.749855	-0.474917
H149	H	-0.162098	-1.219525	-1.053413
H150	H	0.337902	-0.719525	-0.553413
H151	H	-0.118614	-1.152578	-0.927886
H152	H	0.381386	-0.652578	-0.427886
H153	H	-0.105525	-1.122247	-1.006376
H154	H	0.394475	-0.622247	-0.506376
O155	O	-0.778702	-0.970780	-0.261613
O156	O	-0.278702	-0.470780	0.238387
C157	C	-0.829153	-0.929270	-0.220051
C158	C	-0.329153	-0.429270	0.279949
H159	H	-0.883920	-0.959435	-0.217534
H160	H	-0.383920	-0.459435	0.282466
H161	H	-0.837350	-0.873364	-0.246951
H162	H	-0.337350	-0.373364	0.253049
C163	C	-0.731941	-0.881650	-0.144807
C164	C	-0.231941	-0.381650	0.355193
C165	C	-0.799205	-0.918702	-0.141710
C166	C	-0.299205	-0.418702	0.358290
H167	H	-0.713467	-0.875127	-0.096483
H168	H	-0.213467	-0.375127	0.403517
H169	H	-0.697950	-0.909613	-0.172810
H170	H	-0.197950	-0.409613	0.327190
H171	H	-0.738781	-0.835066	-0.167227
H172	H	-0.238781	-0.335066	0.332773
H173	H	-0.792362	-0.965288	-0.119299
H174	H	-0.292362	-0.465288	0.380701
H175	H	-0.833194	-0.890746	-0.113702
H176	H	-0.333194	-0.390746	0.386298
H177	H	-0.439873	-0.978182	-0.785156
H178	H	0.060127	-0.478182	-0.285156
H179	H	-0.269108	-1.149024	-0.785238
H180	H	0.230892	-0.649024	-0.285238
O181	O	-0.447261	-0.970729	-0.930525
O182	O	0.052739	-0.470729	-0.430525
C183	C	-0.488824	-0.929174	-0.880113
C184	C	0.011176	-0.429174	-0.380113
H185	H	-0.458693	-0.926625	-0.825333
H186	H	0.041307	-0.426625	-0.325333
H187	H	-0.544720	-0.956101	-0.871927
H188	H	-0.044720	-0.456101	-0.371927
C189	C	-0.536425	-0.853983	-0.977381
C190	C	-0.036425	-0.353983	-0.477381
C191	C	-0.499415	-0.850847	-0.910102
C192	C	0.000585	-0.350847	-0.410102
H193	H	-0.542962	-0.805668	-0.995881
H194	H	-0.042962	-0.305668	-0.495881
H195	H	-0.508426	-0.881981	-1.011346
H196	H	-0.008426	-0.381981	-0.511346
H197	H	-0.583001	-0.876425	-0.970551
H198	H	-0.083001	-0.376425	-0.470551
H199	H	-0.452837	-0.828414	-0.916935
H200	H	0.047163	-0.328414	-0.416935
H201	H	-0.527407	-0.822843	-0.876139
H202	H	-0.027407	-0.322843	-0.376139
H203	H	-0.269316	-0.494230	-0.440083
H204	H	0.230684	0.005770	0.059917
H205	H	-0.269308	-0.633658	-0.440081
H206	H	0.230692	-0.133658	0.059919
H207	H	-0.923825	-1.148923	-0.440045
H208	H	-0.423825	-0.648923	0.059955
H209	H	-0.924064	-0.978252	-0.269112
H210	H	-0.424064	-0.478252	0.230888
