data_functionalizedCrystal
_audit_creation_method	'MofGen! by Chris Wilmer'
_symmetry_space_group_name_H-M	'P1'
_symmetry_Int_Tables_number	1
_symmetry_cell_setting	triclinic
loop_
_symmetry_equiv_pos_as_xyz
  x,y,z
_cell_length_a	19.188938
_cell_length_b	14.519709
_cell_length_c	12.996460
_cell_angle_alpha	90.007090
_cell_angle_beta	89.995186
_cell_angle_gamma	96.586046
loop_
_atom_site_label
_atom_site_type_symbol
_atom_site_fract_x
_atom_site_fract_y
_atom_site_fract_z
O1	O	0.926553	-0.115169	-0.085550
O2	O	1.426553	0.384831	0.414450
O3	O	0.723297	-0.130661	-0.085557
O4	O	1.223297	0.369339	0.414443
O5	O	0.830314	0.011356	-0.085544
O6	O	1.330314	0.511356	0.414456
O7	O	0.819536	-0.257187	-0.085563
O8	O	1.319536	0.242813	0.414437
O9	O	0.830303	0.011364	0.085590
O10	O	1.330303	0.511364	0.585590
O11	O	0.723286	-0.130654	0.085577
O12	O	1.223286	0.369346	0.585577
O13	O	0.926541	-0.115161	0.085584
O14	O	1.426541	0.384839	0.585584
Cu15	Cu	0.824913	-0.122907	0.101206
Cu16	Cu	1.324913	0.377093	0.601206
Cu17	Cu	0.824926	-0.122916	-0.101179
Cu18	Cu	1.324926	0.377084	0.398821
O19	O	0.819525	-0.257179	0.085571
O20	O	1.319525	0.242821	0.585571
C21	C	0.697279	-0.130155	0.000010
C22	C	1.197279	0.369845	0.500010
C23	C	0.619769	-0.128645	0.000007
C24	C	1.119769	0.371355	0.500007
C25	C	0.952560	-0.115668	0.000015
C26	C	1.452560	0.384332	0.500015
C27	C	1.030069	-0.117177	0.000011
C28	C	1.530069	0.382823	0.500011
C29	C	1.583366	-0.127930	-0.093275
C30	C	2.083366	0.372070	0.406725
C31	C	1.510537	-0.126521	-0.093278
C32	C	2.010537	0.373479	0.406722
C33	C	1.474115	-0.125808	0.000008
C34	C	1.974115	0.374192	0.500008
C35	C	1.510526	-0.126528	0.093303
C36	C	2.010526	0.373472	0.593303
C37	C	1.583353	-0.127947	0.093303
C38	C	2.083353	0.372053	0.593303
N39	N	1.364897	-0.071099	0.069450
N40	N	1.864897	0.428901	0.569450
N41	N	1.295714	-0.069749	0.069444
N42	N	1.795714	0.430251	0.569444
C43	C	1.254691	-0.121535	0.000014
C44	C	1.754691	0.378465	0.500014
N45	N	1.285464	-0.174710	-0.069425
N46	N	1.785464	0.325290	0.430575
N47	N	1.354653	-0.176055	-0.069422
N48	N	1.854653	0.323945	0.430578
C49	C	1.395146	-0.124270	0.000019
C50	C	1.895146	0.375730	0.500019
C51	C	1.139318	-0.119293	-0.093277
C52	C	1.639318	0.380707	0.406723
C53	C	1.066486	-0.117889	-0.093276
C54	C	1.566486	0.382111	0.406724
C55	C	1.066478	-0.117887	0.093307
C56	C	1.566478	0.382113	0.593307
C57	C	1.139307	-0.119300	0.093303
C58	C	1.639307	0.380700	0.593303
C59	C	1.175723	-0.119998	0.000008
C60	C	1.675723	0.380002	0.500008
C61	C	0.829806	0.045717	0.000023
C62	C	1.329806	0.545717	0.500023
C63	C	0.828301	0.148089	0.000024
C64	C	1.328301	0.648089	0.500024
C65	C	0.820033	-0.291540	0.000002
C66	C	1.320033	0.208460	0.500002
C67	C	0.821538	-0.393912	-0.000006
C68	C	1.321538	0.106088	0.499994
N69	N	0.824908	-0.122900	0.243553
N70	N	1.324908	0.377100	0.743553
C71	C	0.822759	0.522951	-0.000003
C72	C	1.322759	1.022951	0.499997
C73	C	0.824298	0.418652	0.000005
C74	C	1.324298	0.918652	0.500005
C75	C	0.825530	0.335523	0.000011
C76	C	1.325530	0.835523	0.500011
C77	C	0.827069	0.231218	0.000017
C78	C	1.327069	0.731218	0.500017
N79	N	0.824936	-0.122916	-0.243526
N80	N	1.324936	0.377084	0.256474
C81	C	0.824925	-0.122917	0.663368
C82	C	1.324925	0.377083	1.163368
C83	C	0.824918	-0.122915	0.546563
C84	C	1.324918	0.377085	1.046563
C85	C	0.824917	-0.122909	0.453464
C86	C	1.324917	0.377091	0.953464
C87	C	0.824910	-0.122906	0.336652
C88	C	1.324910	0.377094	0.836652
H89	H	1.613011	-0.128499	-0.169243
H90	H	2.113011	0.371501	0.330757
C91	C	1.027090	-0.117068	-0.194668
C92	C	1.527090	0.382932	0.305332
C93	C	1.074576	-0.117957	-0.276366
C94	C	1.574576	0.382043	0.223634
C95	C	1.038310	-0.117187	-0.369784
C96	C	1.538310	0.382813	0.130216
H97	H	0.993424	-0.170267	-0.198707
H98	H	1.493424	0.329733	0.301293
H99	H	1.003953	-0.062728	-0.198588
H100	H	1.503953	0.437272	0.301412
H101	H	1.097702	-0.172291	-0.272448
H102	H	1.597702	0.327709	0.227552
H103	H	1.108243	-0.064761	-0.272361
H104	H	1.608243	0.435239	0.227639
H105	H	1.015173	-0.062847	-0.373704
H106	H	1.515173	0.437153	0.126296
H107	H	1.004645	-0.170387	-0.373812
H108	H	1.504645	0.329613	0.126188
H109	H	1.070524	-0.117781	-0.425227
H110	H	1.570524	0.382219	0.074773
C111	C	1.471004	-0.125942	0.194617
C112	C	1.971004	0.374058	0.694617
C113	C	1.480942	-0.205622	0.250877
C114	C	1.980942	0.294378	0.750877
C115	C	1.444538	-0.205125	0.344210
C116	C	1.944538	0.294875	0.844210
H117	H	1.488160	-0.072471	0.233077
H118	H	1.988160	0.427529	0.733077
H119	H	1.422405	-0.125041	0.181300
H120	H	1.922405	0.374959	0.681300
H121	H	1.529531	-0.206514	0.264197
H122	H	2.029531	0.293486	0.764197
H123	H	1.463783	-0.259106	0.212448
H124	H	1.963783	0.240894	0.712448
H125	H	1.395939	-0.204224	0.330893
H126	H	1.895939	0.295776	0.830893
H127	H	1.461697	-0.151650	0.382661
H128	H	1.961697	0.348350	0.882661
H129	H	1.451270	-0.259190	0.382390
H130	H	1.951270	0.240810	0.882390
H131	H	1.168968	-0.119872	-0.169244
H132	H	1.668968	0.380128	0.330756
C133	C	1.622900	-0.128905	0.194555
C134	C	2.122900	0.371095	0.694555
C135	C	1.656945	-0.209050	0.200008
C136	C	2.156945	0.290950	0.700008
C137	C	1.693377	-0.209967	0.293272
C138	C	2.193377	0.290033	0.793272
H139	H	1.656615	-0.075753	0.198537
H140	H	2.156615	0.424247	0.698537
H141	H	1.590798	-0.128331	0.250146
H142	H	2.090798	0.371669	0.750146
H143	H	1.689044	-0.209615	0.144433
H144	H	2.189044	0.290385	0.644433
H145	H	1.623246	-0.262215	0.196044
H146	H	2.123246	0.237785	0.696044
H147	H	1.661275	-0.209393	0.348863
H148	H	2.161275	0.290607	0.848863
H149	H	1.727088	-0.156812	0.297246
H150	H	2.227088	0.343188	0.797246
H151	H	1.716475	-0.264348	0.296988
H152	H	2.216475	0.235652	0.796988
C153	C	1.178958	-0.120108	0.194477
C154	C	1.678958	0.379892	0.694477
C155	C	1.250530	-0.121524	0.174512
C156	C	1.750530	0.378476	0.674512
C157	C	1.287076	-0.122283	0.267692
C158	C	1.787076	0.377717	0.767692
H159	H	1.172359	-0.066124	0.232887
H160	H	1.672359	0.433876	0.732887
H161	H	1.161804	-0.173663	0.232814
H162	H	1.661804	0.326337	0.732814
H163	H	1.267678	-0.067975	0.136191
H164	H	1.767678	0.432025	0.636191
H165	H	1.257150	-0.175505	0.136117
H166	H	1.757150	0.324495	0.636117
H167	H	1.269922	-0.175837	0.306029
H168	H	1.769922	0.324163	0.806029
H169	H	1.280471	-0.068297	0.306094
H170	H	1.780471	0.431703	0.806094
H171	H	1.335640	-0.123252	0.254158
H172	H	1.835640	0.376748	0.754158
H173	H	1.480891	-0.125940	-0.169242
H174	H	1.980891	0.374060	0.330758
C175	C	1.026929	-0.116916	0.194563
C176	C	1.526929	0.383084	0.694563
C177	C	0.992890	-0.036765	0.200033
C178	C	1.492890	0.463235	0.700033
C179	C	0.956457	-0.035834	0.293304
C180	C	1.456457	0.464166	0.793304
H181	H	0.993210	-0.170064	0.198543
H182	H	1.493210	0.329936	0.698543
H183	H	1.059029	-0.117488	0.250148
H184	H	1.559029	0.382512	0.750148
H185	H	0.960793	-0.036201	0.144463
H186	H	1.460793	0.463799	0.644463
H187	H	1.026593	0.016396	0.196071
H188	H	1.526593	0.516396	0.696071
H189	H	0.988557	-0.036406	0.348889
H190	H	1.488557	0.463594	0.848889
H191	H	0.922742	-0.088985	0.297275
H192	H	1.422742	0.411015	0.797275
H193	H	0.933362	0.018551	0.297032
H194	H	1.433362	0.518551	0.797032
