data_functionalizedCrystal
_audit_creation_method	'MofGen! by Chris Wilmer'
_symmetry_space_group_name_H-M	'P1'
_symmetry_Int_Tables_number	1
_symmetry_cell_setting	triclinic
loop_
_symmetry_equiv_pos_as_xyz
  x,y,z
_cell_length_a	25.639242
_cell_length_b	25.639240
_cell_length_c	12.759387
_cell_angle_alpha	89.956399
_cell_angle_beta	89.968918
_cell_angle_gamma	90.027658
loop_
_atom_site_label
_atom_site_type_symbol
_atom_site_fract_x
_atom_site_fract_y
_atom_site_fract_z
Zn1	Zn	0.799296	-0.208194	-0.594208
Zn2	Zn	0.799214	-0.295640	-0.418489
Zn3	Zn	0.711857	-0.208213	-0.418512
Zn4	Zn	0.711826	-0.295593	-0.594096
O5	O	0.755548	-0.251910	-0.506326
O6	O	0.872450	-0.219806	-0.570936
O7	O	0.787604	-0.284070	-0.271471
O8	O	0.723504	-0.135045	-0.441875
O9	O	0.872390	-0.284052	-0.441836
O10	O	0.787744	-0.135031	-0.570958
O11	O	0.723424	-0.219838	-0.271488
O12	O	0.638688	-0.219792	-0.441767
O13	O	0.723450	-0.283972	-0.741132
O14	O	0.638665	-0.283989	-0.570767
O15	O	0.787714	-0.219760	-0.741214
O16	O	0.787574	-0.368799	-0.441727
O17	O	0.723371	-0.368764	-0.570744
C18	C	0.619706	-0.251888	-0.506258
C19	C	0.561592	-0.251891	-0.506253
C20	C	0.310401	-0.218426	-0.439272
C21	C	0.365006	-0.218422	-0.439259
O22	O	0.393245	-0.189938	-0.382249
N23	N	0.392318	-0.251897	-0.506306
C24	C	0.365023	-0.285377	-0.573379
O25	O	0.393268	-0.313850	-0.630408
C26	C	0.310419	-0.285379	-0.573397
C27	C	0.283110	-0.251904	-0.506338
C28	C	0.283092	-0.184954	-0.372219
C29	C	0.228492	-0.184960	-0.372231
C30	C	0.201200	-0.218438	-0.439296
C31	C	0.228510	-0.251910	-0.506350
C32	C	0.283125	-0.318855	-0.640475
C33	C	0.228518	-0.318853	-0.640487
C34	C	0.201209	-0.285379	-0.573428
C35	C	0.146618	-0.285393	-0.573428
N36	N	0.119306	-0.251917	-0.506380
C37	C	0.146597	-0.218439	-0.439314
C38	C	0.479693	-0.285370	-0.573338
C39	C	0.534296	-0.285371	-0.573316
C40	C	0.534275	-0.218415	-0.439196
C41	C	0.479672	-0.218417	-0.439214
C42	C	0.452381	-0.251894	-0.506290
C43	C	0.031932	-0.218454	-0.439344
C44	C	-0.022673	-0.218464	-0.439359
C45	C	-0.022648	-0.285418	-0.573483
C46	C	0.031953	-0.285410	-0.573464
C47	C	0.059241	-0.251924	-0.506391
O48	O	0.118344	-0.313861	-0.630411
O49	O	0.118345	-0.189966	-0.382305
C50	C	0.755474	-0.387753	-0.506244
C51	C	0.755491	-0.445867	-0.506244
C52	C	0.789015	-0.806184	-0.573661
C53	C	0.789030	-0.860788	-0.573682
O54	O	0.817446	-0.888986	-0.630918
N55	N	0.755621	-0.888149	-0.506428
C56	C	0.722190	-0.860902	-0.439155
O57	O	0.693774	-0.889189	-0.381953
C58	C	0.722172	-0.806299	-0.439140
C59	C	0.755588	-0.778941	-0.506391
C60	C	0.822427	-0.778826	-0.640908
C61	C	0.822412	-0.724226	-0.640885
C62	C	0.788985	-0.696983	-0.573615
C63	C	0.755573	-0.724341	-0.506368
C64	C	0.688739	-0.779054	-0.371873
C65	C	0.688724	-0.724447	-0.371864
C66	C	0.722140	-0.697089	-0.439116
C67	C	0.722131	-0.642498	-0.439076
N68	N	0.755540	-0.615137	-0.506330
C69	C	0.788967	-0.642380	-0.573600
C70	C	0.722229	-0.975573	-0.439194
C71	C	0.722249	-1.030175	-0.439203
C72	C	0.789089	-1.030058	-0.573732
C73	C	0.789071	-0.975454	-0.573716
C74	C	0.755638	-0.948212	-0.506448
C75	C	0.788934	-0.527715	-0.573546
C76	C	0.788918	-0.473109	-0.573513
C77	C	0.722076	-0.473232	-0.438989
C78	C	0.722094	-0.527832	-0.439017
C79	C	0.755525	-0.555072	-0.506304
O80	O	0.693728	-0.614265	-0.381872
O81	O	0.817374	-0.614087	-0.630802
C82	C	0.891921	-0.251932	-0.506396
C83	C	0.950035	-0.251942	-0.506425
C84	C	0.755588	-0.251859	-0.780360
C85	C	0.755605	-0.251837	-0.897137
C86	C	0.755637	-0.115537	-0.506432
C87	C	0.755674	-0.057423	-0.506477
C88	C	0.822527	-0.184978	-0.897242
C89	C	0.855995	-0.151541	-0.952156
C90	C	0.856008	-0.151522	-1.061878
C91	C	0.822547	-0.184942	-1.116688
C92	C	0.789079	-0.218380	-1.061775
C93	C	0.789071	-0.218396	-0.952050
C94	C	0.722155	-0.285235	-1.061669
C95	C	0.722144	-0.285258	-0.951947
C96	C	0.688695	-0.318656	-1.116480
C97	C	0.655228	-0.352096	-1.061566
C98	C	0.655217	-0.352114	-0.951838
C99	C	0.688676	-0.318695	-0.897034
C100	C	0.755539	-0.251923	-0.233359
C101	C	0.755623	-0.251798	-0.116583
H102	H	0.305307	-0.157690	-0.317606
H103	H	-0.044878	-0.312677	-0.628082
C104	C	0.651975	-0.809135	-0.297897
N105	N	0.624281	-0.831791	-0.242177
C106	C	0.688666	-0.318711	-0.776337
N107	N	0.688659	-0.318719	-0.685426
C108	C	0.685339	-0.557927	-0.365032
N109	N	0.657650	-0.580590	-0.309312
H110	H	0.883237	-0.124330	-0.907517
H111	H	0.816130	-0.450836	-0.628277
H112	H	0.457477	-0.312635	-0.627958
H113	H	0.849620	-0.701954	-0.695649
C114	C	0.313153	-0.355679	-0.714248
N115	N	0.335769	-0.383418	-0.769820
C116	C	0.564330	-0.322201	-0.647075
N117	N	0.586949	-0.349941	-0.702638
C118	C	0.825713	-0.557671	-0.647557
N119	N	0.853418	-0.580233	-0.703297
H120	H	0.627958	-0.379338	-0.907133
H121	H	-0.044906	-0.191205	-0.384748
C122	C	0.685493	-1.060263	-0.365213
N123	N	0.657805	-1.082923	-0.309486
H124	H	0.627985	-0.379302	-1.106201
H125	H	0.661498	-0.702269	-0.317088
H126	H	0.883257	-0.124291	-1.106588
H127	H	0.816306	-1.052248	-0.628508
C128	C	0.822564	-0.184920	-1.237385
N129	N	0.822578	-0.184905	-1.328295
C130	C	0.859207	-0.808785	-0.714907
N131	N	0.886917	-0.831346	-0.770641
C132	C	0.685450	-0.945612	-0.365184
N133	N	0.657747	-0.923048	-0.309443
C134	C	0.685306	-0.443254	-0.365000
N135	N	0.657607	-0.420674	-0.309278
H136	H	0.816280	-0.953183	-0.628479
C137	C	0.688714	-0.318638	-1.237177
N138	N	0.688731	-0.318629	-1.328087
H139	H	0.822525	-0.184995	-0.807901
H140	H	0.054144	-0.191184	-0.384732
H141	H	0.206261	-0.157701	-0.317624
C142	C	0.449637	-0.181589	-0.365452
N143	N	0.427017	-0.153847	-0.309894
H144	H	0.556505	-0.191154	-0.384589
H145	H	0.054189	-0.312672	-0.628061
C146	C	0.198502	-0.355684	-0.714275
N147	N	0.175895	-0.383426	-0.769847
