data_functionalizedCrystal
_audit_creation_method	'MofGen! by Chris Wilmer'
_symmetry_space_group_name_H-M	'P1'
_symmetry_Int_Tables_number	1
_symmetry_cell_setting	triclinic
loop_
_symmetry_equiv_pos_as_xyz
  x,y,z
_cell_length_a	14.628931
_cell_length_b	23.196402
_cell_length_c	23.196402
_cell_angle_alpha	120.000601
_cell_angle_beta	90.001008
_cell_angle_gamma	60.000556
loop_
_atom_site_label
_atom_site_type_symbol
_atom_site_fract_x
_atom_site_fract_y
_atom_site_fract_z
Zr1	Zr	0.880646	0.631000	0.075628
O2	O	0.734689	0.751270	0.167676
O3	O	0.925386	0.510733	0.047414
O4	O	0.925389	0.631005	0.167681
O5	O	0.734686	0.630994	-0.047464
O6	O	1.075821	0.631004	0.167681
O7	O	0.734685	0.630999	0.047409
O8	O	1.075815	0.415861	-0.047455
O9	O	0.734693	0.846138	0.167672
O10	O	1.056737	0.560199	0.035376
O11	O	0.944472	0.560196	-0.035426
O12	O	0.944476	0.701800	0.106173
O13	O	0.832211	0.701796	0.035370
Zr14	Zr	1.120569	0.630992	-0.075684
Zr15	Zr	1.120567	0.631000	0.075628
Zr16	Zr	0.880647	0.630992	-0.075684
Zr17	Zr	0.880652	0.782302	0.075621
Zr18	Zr	1.120563	0.479689	-0.075677
O19	O	1.075829	0.751259	-0.047470
O20	O	1.075827	0.751270	0.167676
O21	O	0.734691	0.751259	-0.047469
O22	O	1.266526	0.510722	-0.167732
O23	O	1.266524	0.510733	0.047413
O24	O	0.925388	0.510722	-0.167732
O25	O	1.266529	0.630998	0.047408
O26	O	1.075826	0.630987	-0.167737
O27	O	0.925393	0.630987	-0.167737
O28	O	1.266530	0.630993	-0.047465
O29	O	0.925399	0.846137	0.167672
O30	O	1.075816	0.415855	-0.167728
O31	O	1.266522	0.415854	-0.167728
O32	O	1.266521	0.415860	-0.047456
O33	O	0.734694	0.846131	0.047400
O34	O	0.925400	0.846131	0.047399
O35	O	1.056739	0.560192	-0.106229
O36	O	1.169003	0.560195	-0.035426
O37	O	1.056743	0.701796	0.035370
O38	O	0.944478	0.701793	-0.035432
C39	C	1.000599	0.441740	-0.000020
C40	C	1.000596	0.377508	-0.000017
C41	C	1.059190	0.347339	0.036944
C42	C	1.059201	0.286978	0.036938
C43	C	1.000596	0.256800	-0.000019
C44	C	0.942000	0.286972	-0.036988
C45	C	0.942000	0.347326	-0.036987
C46	C	0.902437	0.194771	0.005256
C47	C	0.902434	0.134421	0.005260
C48	C	1.000598	0.070645	-0.000026
C49	C	1.098764	0.067233	-0.005302
C50	C	1.098764	0.127587	-0.005301
C51	C	1.000590	0.191355	-0.000025
C52	C	1.059208	-0.024975	0.036930
C53	C	1.059222	-0.085341	0.036919
C54	C	0.942011	-0.085340	-0.037002
C55	C	0.942008	-0.024981	-0.036996
C56	C	1.000604	0.005201	-0.000026
C57	C	0.700502	0.630997	-0.000028
C58	C	0.598649	0.630997	-0.000028
C59	C	0.608928	0.560753	-0.035148
C60	C	0.503659	0.560752	-0.035148
C61	C	1.300713	0.630995	-0.000028
C62	C	1.402566	0.630995	-0.000028
C63	C	1.000605	0.631006	0.189240
C64	C	1.000604	0.631009	0.253476
C65	C	1.000616	0.820252	-0.000036
C66	C	1.000618	0.884484	-0.000039
C67	C	0.942035	0.704906	0.753258
C68	C	0.942025	0.704910	0.692906
C69	C	1.000624	0.630997	0.625768
C70	C	1.059214	0.557074	0.618985
C71	C	1.059213	0.557072	0.679338
C72	C	1.098782	0.574370	0.501837
C73	C	1.098786	0.574375	0.441487
C74	C	1.000624	0.631000	0.439619
C75	C	0.902459	0.687632	0.498115
C76	C	0.902458	0.687631	0.558467
C77	C	1.000630	0.630990	0.560322
C78	C	0.942020	0.704922	0.380965
C79	C	0.942006	0.704923	0.320609
C80	C	1.059206	0.557085	0.246689
C81	C	1.059209	0.557086	0.307045
C82	C	1.000618	0.631007	0.374180
C83	C	1.000613	0.630989	0.810705
C84	C	1.000623	0.630993	0.746473
C85	C	1.300705	0.441739	-0.000020
C86	C	1.402555	0.377507	-0.000017
C87	C	1.000602	0.441730	-0.189288
C88	C	1.000600	0.377495	-0.253521
C89	C	1.300707	0.441729	-0.189288
C90	C	1.402558	0.377494	-0.253521
C91	C	0.700508	0.820262	0.189232
C92	C	0.598656	0.884498	0.253465
C93	C	0.700510	0.820253	-0.000036
C94	C	0.598660	0.884485	-0.000039
C95	C	1.000613	0.820262	0.189232
C96	C	1.000615	0.884497	0.253465
C97	C	1.391783	0.347345	0.036948
C98	C	1.487473	0.287001	0.036965
C99	C	1.593934	0.256815	0.000011
C100	C	1.604704	0.286983	-0.036956
C101	C	1.509015	0.347331	-0.036968
C102	C	1.059201	0.347327	-0.320650
C103	C	1.059195	0.286980	-0.381009
C104	C	1.000593	0.256797	-0.374238
C105	C	0.941985	0.286971	-0.307102
C106	C	0.941985	0.347321	-0.246744
C107	C	1.509000	0.347330	-0.246727
C108	C	1.604709	0.286983	-0.307075
C109	C	1.593974	0.256796	-0.374216
C110	C	1.487521	0.286966	-0.381009
C111	C	1.391815	0.347316	-0.320661
C112	C	0.492215	0.914669	0.246671
C113	C	0.396506	0.975035	0.307019
C114	C	0.407241	1.005225	0.374160
C115	C	0.513693	0.975051	0.380953
C116	C	0.609400	0.914690	0.320605
C117	C	0.609432	0.914653	-0.036998
C118	C	0.513742	0.975014	-0.036998
C119	C	0.407281	1.005202	-0.000042
C120	C	0.396511	0.975031	0.036922
C121	C	0.492200	0.914675	0.036926
C122	C	1.059228	0.914661	0.246671
C123	C	1.059252	0.975008	0.307019
C124	C	1.000655	1.005195	0.374160
C125	C	0.942041	0.975026	0.380952
C126	C	0.942024	0.914675	0.320605
H127	H	1.178695	0.124804	-0.009598
Cl128	Cl	1.474045	0.249007	-0.465420
H129	H	0.894269	0.371875	-0.192087
Cl130	Cl	1.714304	0.180924	-0.450076
Cl131	Cl	1.132880	0.012964	0.083400
H132	H	1.106942	-0.109908	0.067014
Cl133	Cl	0.742836	0.467901	-0.081586
H134	H	1.106911	0.496903	0.192026
H135	H	1.106924	0.262420	-0.435669
Cl136	Cl	0.389230	0.723852	0.046402
Cl137	Cl	0.868335	-0.123272	-0.083462
Cl138	Cl	0.262694	1.012952	0.298464
Cl139	Cl	1.132937	1.012928	0.298463
H140	H	1.106916	0.262410	0.067037
Cl141	Cl	0.478638	0.876751	0.083389
Cl142	Cl	1.132883	0.385257	-0.329181
Cl143	Cl	0.868320	0.876770	0.329158
H144	H	0.309817	0.999619	0.067011
H145	H	1.671841	0.207676	0.000026
H146	H	0.696109	0.890079	-0.067097
Cl147	Cl	0.743209	0.876762	0.329158
Cl148	Cl	1.000683	1.081069	0.450019
H149	H	0.894333	0.999614	0.435627
Cl150	Cl	0.868323	0.249016	-0.298601
Cl151	Cl	1.132857	0.385276	0.083418
H152	H	1.517762	0.371900	-0.192063
Cl153	Cl	1.000606	0.180926	-0.450125
Cl154	Cl	0.478690	0.876728	0.162273
H155	H	1.178702	0.015299	-0.009615
H156	H	1.691379	0.262425	-0.301532
H157	H	1.305149	0.371868	-0.326203
Cl158	Cl	0.868336	0.249028	-0.083454
H159	H	0.894290	-0.000414	-0.067090
H160	H	0.822500	0.137208	0.009559
H161	H	1.691397	0.262397	-0.067042
Cl162	Cl	0.527170	1.013010	0.465364
H163	H	0.329374	1.054347	-0.000051
Cl164	Cl	1.257958	0.385283	0.083414
Cl165	Cl	1.132876	0.464154	0.534585
Cl166	Cl	0.286911	1.081107	0.450020
H167	H	1.478682	0.262445	0.067068
H168	H	0.522533	0.999569	-0.067101
H169	H	0.894284	0.371890	-0.067085
Cl170	Cl	0.779018	0.274946	0.011902
Cl171	Cl	0.516987	0.467898	-0.081568
Cl172	Cl	0.464741	0.723848	0.046391
H173	H	1.517802	0.371881	-0.067074
H174	H	1.106944	0.890092	0.192007
H175	H	0.894323	0.765099	0.807919
H176	H	0.822529	0.733742	0.606093
Cl177	Cl	0.779048	0.758825	0.495777
Cl178	Cl	0.868386	0.797837	0.701431
H179	H	0.894290	0.765115	0.326140
Cl180	Cl	1.132872	0.464160	0.298514
Cl181	Cl	1.222188	0.503176	0.367954
Cl182	Cl	0.868359	0.797849	0.465365
Cl183	Cl	1.222198	0.503179	0.504176
H184	H	1.106923	0.496881	0.673808
