data_functionalizedCrystal
_audit_creation_method	'MofGen! by Chris Wilmer'
_symmetry_space_group_name_H-M	'P1'
_symmetry_Int_Tables_number	1
_symmetry_cell_setting	triclinic
loop_
_symmetry_equiv_pos_as_xyz
  x,y,z
_cell_length_a	10.654559
_cell_length_b	16.109304
_cell_length_c	9.130313
_cell_angle_alpha	90.001562
_cell_angle_beta	89.999532
_cell_angle_gamma	83.975661
loop_
_atom_site_label
_atom_site_type_symbol
_atom_site_fract_x
_atom_site_fract_y
_atom_site_fract_z
O1	O	1.666244	0.116807	-0.121797
O2	O	2.166244	0.616807	0.378203
O3	O	1.300617	0.127924	-0.121798
O4	O	1.800617	0.627924	0.378202
O5	O	1.493473	0.001394	-0.121798
O6	O	1.993473	0.501394	0.378202
O7	O	1.473388	0.243336	-0.121797
O8	O	1.973388	0.743336	0.378203
O9	O	1.493471	0.001398	0.121801
O10	O	1.993471	0.501398	0.621801
O11	O	1.300614	0.127927	0.121801
O12	O	1.800614	0.627927	0.621801
O13	O	1.666242	0.116810	0.121802
O14	O	2.166242	0.616810	0.621802
Cu15	Cu	1.483428	0.122369	0.144044
Cu16	Cu	1.983428	0.622369	0.644044
Cu17	Cu	1.483431	0.122365	-0.144040
Cu18	Cu	1.983431	0.622365	0.355960
O19	O	1.473386	0.243340	0.121802
O20	O	1.973386	0.743340	0.621802
C21	C	1.253829	0.127108	0.000002
C22	C	1.753829	0.627108	0.500002
C23	C	1.114419	0.124661	0.000001
C24	C	1.614419	0.624661	0.500001
C25	C	1.063920	0.047862	0.000005
C26	C	1.563920	0.547862	0.500005
C27	C	0.932929	0.045568	-0.000006
C28	C	1.432929	0.545568	0.499994
C29	C	0.902947	0.196878	-0.000018
C30	C	1.402947	0.696878	0.499982
C31	C	1.033935	0.199171	-0.000017
C32	C	1.533935	0.699171	0.499983
C33	C	1.081229	-0.039496	0.000018
C34	C	1.581229	0.460504	0.500018
C35	C	0.950238	-0.041790	0.000007
C36	C	1.450238	0.458210	0.500007
C37	C	1.492658	-0.029584	-0.000002
C38	C	1.992658	0.470416	0.499998
C39	C	1.490217	-0.121893	-0.000012
C40	C	1.990217	0.378107	0.499988
C41	C	1.484578	-0.334266	-0.132792
C42	C	1.984578	0.165734	0.367208
C43	C	1.482273	-0.421000	-0.132791
C44	C	1.982273	0.079000	0.367209
C45	C	1.482277	-0.420993	0.132794
C46	C	1.982277	0.079007	0.632794
C47	C	1.484573	-0.334260	0.132791
C48	C	1.984573	0.165740	0.632791
C49	C	1.485730	-0.290900	-0.000007
C50	C	1.985730	0.209100	0.499993
C51	C	1.481129	-0.464366	-0.000002
C52	C	1.981129	0.035634	0.499998
C53	C	1.478630	-0.558407	0.000000
C54	C	1.978630	-0.058407	0.500000
C55	C	1.488227	-0.196853	-0.000010
C56	C	1.988227	0.303147	0.499990
C57	C	1.713030	0.117626	-0.000001
C58	C	2.213030	0.617626	0.499999
C59	C	1.852439	0.120073	-0.000010
C60	C	2.352439	0.620073	0.499990
C61	C	1.474201	0.274318	0.000003
C62	C	1.974201	0.774318	0.500003
C63	C	1.476642	0.366627	0.000003
C64	C	1.976642	0.866627	0.500003
N65	N	1.483435	0.122371	0.346667
N66	N	1.983435	0.622371	0.846667
N67	N	1.483434	0.122356	-0.346663
N68	N	1.983434	0.622356	0.153337
C69	C	1.568854	0.066363	0.423318
C70	C	2.068854	0.566363	0.923318
C71	C	1.568850	0.066353	0.576655
C72	C	2.068850	0.566353	1.076655
C73	C	1.398006	0.178367	0.576675
C74	C	1.898006	0.678367	1.076675
C75	C	1.398004	0.178372	0.423341
C76	C	1.898004	0.678372	0.923341
C77	C	1.667493	0.001695	0.423308
C78	C	2.167493	0.501695	0.923308
C79	C	1.667489	0.001685	0.576645
C80	C	2.167489	0.501685	1.076645
H81	H	0.837401	0.257541	-0.000033
H82	H	1.337401	0.757541	0.499967
H83	H	1.481333	-0.456305	-0.240919
H84	H	1.981333	0.043695	0.259081
H85	H	0.914987	-0.069615	-0.105175
H86	H	1.414987	0.430385	0.394825
Br87	Br	1.151571	-0.094371	-0.169876
Br88	Br	1.651571	0.405629	0.330124
Br89	Br	0.902048	-0.098736	0.169900
Br90	Br	1.402048	0.401264	0.669900
H91	H	1.328450	0.223961	0.639120
H92	H	1.828450	0.723961	1.139120
Br93	Br	1.828023	0.025420	0.646023
Br94	Br	2.328023	0.525420	1.146023
Br95	Br	1.819000	0.035463	0.344026
Br96	Br	2.319000	0.535463	0.844026
H97	H	1.127228	-0.065886	0.105199
H98	H	1.627228	0.434114	0.605199
H99	H	1.485517	-0.298964	-0.240925
H100	H	1.985517	0.201036	0.259075
Br101	Br	1.480703	-0.479845	0.313010
Br102	Br	1.980703	0.020155	0.813010
H103	H	1.485504	-0.298950	0.240928
H104	H	1.985504	0.201050	0.740928
Br105	Br	1.282056	0.254370	0.319310
Br106	Br	1.782056	0.754370	0.819310
H107	H	1.646916	-0.062208	0.381687
H108	H	2.146916	0.437792	0.881687
H109	H	1.075045	0.261708	-0.000045
H110	H	1.575045	0.761708	0.499955
Br111	Br	1.617981	-0.098957	0.655908
Br112	Br	2.117981	0.401043	1.155908
