data_functionalizedCrystal
_audit_creation_method	'MofGen! by Chris Wilmer'
_symmetry_space_group_name_H-M	'P1'
_symmetry_Int_Tables_number	1
_symmetry_cell_setting	triclinic
loop_
_symmetry_equiv_pos_as_xyz
  x,y,z
_cell_length_a	16.109301
_cell_length_b	16.109301
_cell_length_c	14.586319
_cell_angle_alpha	90.013784
_cell_angle_beta	89.991755
_cell_angle_gamma	96.538519
loop_
_atom_site_label
_atom_site_type_symbol
_atom_site_fract_x
_atom_site_fract_y
_atom_site_fract_z
O1	O	1.103135	-0.106876	-0.076243
O2	O	0.861073	-0.120175	-0.076245
O3	O	0.988754	0.007505	-0.076235
O4	O	0.975455	-0.234557	-0.076254
O5	O	0.988736	0.007527	0.076246
O6	O	0.861055	-0.120154	0.076236
O7	O	1.103117	-0.106854	0.076238
Cu8	Cu	0.982085	-0.113502	0.090159
Cu9	Cu	0.982106	-0.113528	-0.090167
O10	O	0.975437	-0.234535	0.076227
C11	C	0.830090	-0.119626	-0.000005
C12	C	0.737794	-0.118011	-0.000006
N13	N	0.982076	-0.113484	0.216991
C14	C	0.988206	0.038491	0.000006
C15	C	0.986591	0.130786	0.000007
C16	C	1.134101	-0.107404	-0.000004
C17	C	1.226397	-0.109019	-0.000010
C18	C	1.448669	-0.037011	0.000000
C19	C	1.535389	-0.038535	0.000003
C20	C	1.515515	-0.190024	-0.000013
C21	C	1.428796	-0.188499	-0.000010
C22	C	1.395376	-0.111990	-0.000008
C23	C	1.568815	-0.115039	-0.000008
C24	C	1.662841	-0.116692	-0.000005
C25	C	1.301344	-0.110337	-0.000009
C26	C	0.975984	-0.265521	-0.000016
C27	C	0.977600	-0.357816	-0.000023
C28	C	1.058599	0.353059	-0.000006
C29	C	1.057075	0.439779	-0.000014
C30	C	0.905586	0.419905	-0.000012
C31	C	0.907111	0.333186	-0.000011
C32	C	0.983620	0.299766	-0.000003
C33	C	0.980571	0.473205	-0.000012
C34	C	0.978918	0.567231	-0.000020
C35	C	0.985273	0.205734	0.000003
N36	N	0.982122	-0.113539	-0.216999
C37	C	0.931693	-0.063079	0.548024
C38	C	0.931687	-0.063067	0.452042
C39	C	1.032510	-0.163946	0.451976
C40	C	1.032520	-0.163953	0.547955
C41	C	0.982107	-0.113521	0.595977
C42	C	0.982090	-0.113503	0.404016
C43	C	0.982083	-0.113490	0.299949
C44	C	0.982115	-0.113531	0.700050
H45	H	1.421461	0.025287	0.000004
H46	H	0.843295	0.447127	-0.000016
C47	C	1.552277	-0.274179	-0.000028
H48	H	1.508115	-0.318615	-0.000025
H49	H	1.585696	-0.277927	-0.053205
H50	H	1.585689	-0.277919	0.053149
H51	H	1.118130	0.483168	-0.000018
C52	C	1.370170	-0.270980	-0.000022
H53	H	1.402493	-0.316764	-0.000037
H54	H	1.335922	-0.273528	0.053152
H55	H	1.335935	-0.273536	-0.053202
C56	C	0.824630	0.274560	-0.000005
H57	H	0.778846	0.306882	0.000004
H58	H	0.822082	0.240306	-0.053177
H59	H	0.822075	0.240331	0.053176
H60	H	0.890644	-0.022013	0.587120
H61	H	0.890635	-0.021992	0.413003
C62	C	1.142754	0.316298	-0.000009
H63	H	1.187190	0.360461	-0.000020
H64	H	1.146498	0.282894	0.053164
H65	H	1.146500	0.282872	-0.053189
H66	H	1.073553	-0.205007	0.412865
C67	C	1.087976	-0.219443	0.600707
H68	H	1.117989	-0.249487	0.558362
H69	H	1.126249	-0.185385	0.638151
H70	H	1.053894	-0.257703	0.638143
H71	H	1.578778	0.022520	0.000011
