data_functionalizedCrystal
_audit_creation_method	'MofGen! by Chris Wilmer'
_symmetry_space_group_name_H-M	'P1'
_symmetry_Int_Tables_number	1
_symmetry_cell_setting	triclinic
loop_
_symmetry_equiv_pos_as_xyz
  x,y,z
_cell_length_a	16.992694
_cell_length_b	16.992695
_cell_length_c	16.053802
_cell_angle_alpha	92.747646
_cell_angle_beta	92.750953
_cell_angle_gamma	89.331778
loop_
_atom_site_label
_atom_site_type_symbol
_atom_site_fract_x
_atom_site_fract_y
_atom_site_fract_z
O1	O	-1.053958	0.163816	-0.069305
O2	O	-0.825559	0.161984	-0.069330
O3	O	-0.938844	0.048699	-0.069325
O4	O	-0.940674	0.277100	-0.069310
O5	O	-0.932606	0.054907	0.069534
O6	O	-0.819322	0.168192	0.069529
O7	O	-1.047721	0.170024	0.069554
Zn8	Zn	-0.932531	0.170093	0.091588
Zn9	Zn	-0.940749	0.161914	-0.091364
O10	O	-0.934437	0.283308	0.069549
C11	C	-0.793081	0.162732	0.000096
C12	C	-0.705597	0.155703	0.000086
C13	C	-0.933369	0.022443	0.000101
C14	C	-0.926341	-0.065042	0.000089
C15	C	-1.080200	0.169276	0.000126
C16	C	-1.167684	0.176305	0.000130
N17	N	-0.926929	0.175676	0.216448
C18	C	-0.659605	0.223521	0.000091
C19	C	-0.577404	0.216912	0.000102
C20	C	-0.541196	0.142485	0.000102
C21	C	-0.587193	0.074662	0.000100
C22	C	-0.669392	0.081271	0.000095
C23	C	-0.295881	0.115091	0.000123
C24	C	-0.213675	0.108487	0.000125
C25	C	-0.203892	0.250738	0.000129
C26	C	-0.286094	0.257341	0.000119
C27	C	-0.332083	0.189518	0.000121
N28	N	-0.457173	0.135728	0.000111
N29	N	-0.416104	0.196276	0.000118
C30	C	-0.939911	0.309564	0.000121
C31	C	-0.946940	0.397049	0.000127
C32	C	-0.879122	0.443040	0.000120
C33	C	-0.885731	0.525240	0.000110
C34	C	-0.960159	0.561449	0.000114
C35	C	-1.027982	0.515452	0.000119
C36	C	-1.021372	0.433253	0.000123
C37	C	-0.987554	0.806762	0.000098
C38	C	-0.994159	0.888967	0.000097
C39	C	-0.851908	0.898750	0.000086
C40	C	-0.845304	0.816549	0.000095
C41	C	-0.913127	0.770559	0.000095
N42	N	-0.966916	0.645471	0.000107
N43	N	-0.906369	0.686539	0.000097
N44	N	-0.946358	0.156326	-0.216224
C45	C	-0.975151	0.127492	0.260144
C46	C	-0.971240	0.131405	0.347551
C47	C	-0.919109	0.183505	0.391260
C48	C	-0.870882	0.231691	0.347557
C49	C	-0.874789	0.227773	0.260152
C50	C	-0.902038	0.200594	0.652668
C51	C	-0.898135	0.204509	0.740080
C52	C	-0.998493	0.104222	0.740067
C53	C	-1.002399	0.100313	0.652660
C54	C	-0.954169	0.148495	0.608966
N55	N	-0.915112	0.187508	0.480603
N56	N	-0.958163	0.144488	0.519624
H57	H	-0.539961	0.272137	0.000105
H58	H	-1.044848	0.057889	0.617074
H59	H	-0.855682	0.246939	0.775663
H60	H	-0.830507	0.562682	0.000101
N61	N	-0.345485	0.041946	0.000109
H62	H	-0.377503	0.043817	0.051582
H63	H	-0.310027	-0.006169	0.000073
H64	H	-0.166439	0.305956	0.000130
N65	N	-0.698656	0.303796	0.000081
H66	H	-0.657045	0.345755	0.000087
H67	H	-0.730246	0.311942	0.051554
N68	N	-0.325146	0.337616	0.000103
H69	H	-0.283537	0.379577	0.000104
H70	H	-0.356740	0.345768	0.051573
N71	N	-0.174619	0.028207	0.000120
H72	H	-0.216226	-0.013756	0.000121
H73	H	-0.138418	0.024672	0.051596
N74	N	-0.850016	0.252555	0.605547
H75	H	-0.816401	0.286154	0.646502
H76	H	-0.883944	0.287639	0.569271
N77	N	-0.548144	-0.005615	0.000113
H78	H	-0.489092	0.000487	0.000117
H79	H	-0.566953	-0.037826	-0.051363
H80	H	-1.017605	0.085070	0.224562
H81	H	-0.706838	0.026046	0.000090
H82	H	-0.818515	0.413566	0.000126
N83	N	-1.060702	0.757166	0.000114
H84	H	-1.063450	0.720538	-0.051360
H85	H	-1.108809	0.792635	0.000153
N86	N	-0.765028	0.777498	0.000109
H87	H	-0.723067	0.819107	0.000107
H88	H	-0.761488	0.741293	-0.051361
N89	N	-0.814648	0.287880	0.394696
H90	H	-0.819490	0.283052	0.456697
H91	H	-0.827919	0.343615	0.379412
N92	N	-0.778759	0.948352	0.000097
H93	H	-0.794236	1.005920	0.000099
H94	H	-0.748849	0.933819	-0.051378
H95	H	-1.054769	0.918445	0.000100
N96	N	-1.108258	0.554501	0.000132
H97	H	-1.102156	0.613553	0.000135
H98	H	-1.135840	0.540296	0.051616
N99	N	-1.094517	0.383644	0.000127
H100	H	-1.142670	0.419054	0.000130
H101	H	-1.092563	0.351631	0.051604
H102	H	-0.835521	0.267008	0.224576
H103	H	-1.010506	0.092170	0.383128
H104	H	-1.037759	0.064994	0.775651
