data_functionalizedCrystal
_audit_creation_method	'MofGen! by Chris Wilmer'
_symmetry_space_group_name_H-M	'P1'
_symmetry_Int_Tables_number	1
_symmetry_cell_setting	triclinic
loop_
_symmetry_equiv_pos_as_xyz
  x,y,z
_cell_length_a	18.050589
_cell_length_b	18.050591
_cell_length_c	15.296720
_cell_angle_alpha	99.657105
_cell_angle_beta	99.646980
_cell_angle_gamma	90.024669
loop_
_atom_site_label
_atom_site_type_symbol
_atom_site_fract_x
_atom_site_fract_y
_atom_site_fract_z
Zn1	Zn	-0.368396	1.062586	-0.510205
Zn2	Zn	-0.471110	1.083992	-0.359365
Zn3	Zn	-0.346930	0.959902	-0.359358
Zn4	Zn	-0.492534	0.938361	-0.510154
O5	O	-0.419743	1.011210	-0.434770
O6	O	-0.382040	1.169347	-0.490221
O7	O	-0.436687	1.085505	-0.233128
O8	O	-0.245855	0.973580	-0.379387
O9	O	-0.457503	1.185074	-0.379399
O10	O	-0.261627	1.049022	-0.490214
O11	O	-0.345453	0.994336	-0.233123
O12	O	-0.366227	0.853123	-0.379337
O13	O	-0.494017	0.936866	-0.636396
O14	O	-0.473201	0.837297	-0.490126
O15	O	-0.402814	1.028134	-0.636434
O16	O	-0.577874	1.064618	-0.379349
O17	O	-0.593614	0.957623	-0.490132
C18	C	-0.419710	0.818265	-0.434725
C19	C	-0.419717	0.735719	-0.434727
C20	C	-0.612693	1.011123	-0.434755
C21	C	-0.695242	1.011149	-0.434779
C22	C	-0.361513	0.495457	-0.374623
C23	C	-0.355150	0.533158	-0.456948
C24	C	-0.419765	0.438588	-0.434801
C25	C	-0.426071	0.547974	-0.352445
C26	C	-0.419739	0.584579	-0.434761
C27	C	-0.413373	0.475195	-0.517170
C28	C	-0.484318	0.490014	-0.412611
C29	C	-0.477988	0.527684	-0.494993
C30	C	-0.419779	0.354486	-0.434823
C31	C	-0.419728	0.668677	-0.434748
C32	C	-0.903276	0.953017	-0.495002
C33	C	-0.940992	0.946650	-0.412685
C34	C	-0.846374	1.011220	-0.434791
C35	C	-0.955741	1.017623	-0.517118
C36	C	-0.992362	1.011287	-0.434810
C37	C	-0.882997	1.004824	-0.352430
C38	C	-0.897749	1.075820	-0.456919
C39	C	-0.935434	1.069487	-0.374544
C40	C	-0.762274	1.011180	-0.434781
C41	C	-1.076458	1.011329	-0.434810
C42	C	-0.226042	1.011316	-0.434805
C43	C	-0.143498	1.011361	-0.434820
C44	C	-0.453200	0.977710	-0.670062
C45	C	-0.467457	0.963434	-0.770329
C46	C	-0.419776	1.204909	-0.434816
C47	C	-0.419790	1.287452	-0.434836
C48	C	-0.317713	1.113271	-1.053045
C49	C	-0.304319	1.126689	-0.958839
C50	C	-0.345102	1.085876	-0.911707
C51	C	-0.399282	1.031644	-0.958790
C52	C	-0.412682	1.018229	-1.053005
C53	C	-0.440071	0.990833	-0.911667
C54	C	-0.494251	0.936601	-0.958750
C55	C	-0.507648	0.923188	-1.052956
C56	C	-0.466865	0.964001	-1.100088
C57	C	-0.426671	1.004248	-0.817452
C58	C	-0.521640	0.909206	-0.817412
C59	C	-0.535034	0.895788	-0.911618
C60	C	-0.386362	1.044624	-0.200394
C61	C	-0.371896	1.059043	-0.100128
H62	H	-0.312239	0.481018	-0.323812
Br63	Br	-0.485044	0.945796	-1.227945
H64	H	-0.551771	0.879034	-1.091289
Br65	Br	-0.434980	0.600616	-0.236391
H66	H	-0.579148	0.851631	-0.949966
H67	H	-0.960107	0.892050	-0.393986
H68	H	-0.407964	0.443701	-0.586821
Br69	Br	-0.560094	0.551497	-0.579877
Br70	Br	-0.576999	0.853820	-0.753455
H71	H	-0.284517	1.146499	-1.091428
H72	H	-0.949692	1.118744	-0.323575
H73	H	-0.300548	0.552196	-0.475716
Br74	Br	-0.865898	1.166794	-0.488149
Br75	Br	-0.830536	0.995738	-0.236364
H76	H	-0.538899	0.470949	-0.393830
Br77	Br	-0.230793	1.200289	-0.894946
H78	H	-0.987306	1.023013	-0.586734
Br79	Br	-0.353144	1.077848	-0.753565
Br80	Br	-0.879253	0.870898	-0.579753
H81	H	-0.334193	1.096804	-0.835000
