data_functionalizedCrystal
_audit_creation_method	'MofGen! by Chris Wilmer'
_symmetry_space_group_name_H-M	'P1'
_symmetry_Int_Tables_number	1
_symmetry_cell_setting	triclinic
loop_
_symmetry_equiv_pos_as_xyz
  x,y,z
_cell_length_a	14.560438
_cell_length_b	19.851628
_cell_length_c	19.851628
_cell_angle_alpha	90.001453
_cell_angle_beta	60.002331
_cell_angle_gamma	59.997752
loop_
_atom_site_label
_atom_site_type_symbol
_atom_site_fract_x
_atom_site_fract_y
_atom_site_fract_z
Zr1	Zr	1.005099	0.649006	-0.088218
O2	O	1.196714	0.541444	-0.195776
O3	O	0.813504	0.681975	-0.055260
O4	O	1.005107	0.681980	-0.195779
O5	O	1.005098	0.541440	0.055604
O6	O	1.005089	0.792842	-0.195766
O7	O	1.005112	0.541439	-0.055256
O8	O	0.662347	0.792834	0.055598
O9	O	1.347840	0.541448	-0.195759
O10	O	0.892289	0.778776	-0.041176
O11	O	0.892292	0.696042	0.041548
O12	O	1.117879	0.696047	-0.123896
O13	O	1.117882	0.613313	-0.041172
Zr14	Zr	1.005048	0.825819	0.088613
Zr15	Zr	1.005070	0.825818	-0.088196
Zr16	Zr	1.005076	0.649007	0.088592
Zr17	Zr	1.246126	0.649013	-0.088192
Zr18	Zr	0.764020	0.825812	0.088587
O19	O	1.196642	0.792849	0.055655
O20	O	1.196674	0.792847	-0.195745
O21	O	1.196683	0.541446	0.055625
O22	O	0.813433	0.933381	0.196171
O23	O	0.813464	0.933379	-0.055229
O24	O	0.813473	0.681978	0.196141
O25	O	1.005049	0.933385	-0.055209
O26	O	1.005040	0.792845	0.196175
O27	O	1.005058	0.681983	0.196161
O28	O	1.005035	0.933386	0.055652
O29	O	1.347817	0.681990	-0.195742
O30	O	0.662330	0.792835	0.196138
O31	O	0.662307	0.933377	0.196155
O32	O	0.662325	0.933376	0.055615
O33	O	1.347822	0.541449	-0.055219
O34	O	1.347799	0.681991	-0.055202
O35	O	0.892268	0.778778	0.124291
O36	O	0.892265	0.861512	0.041568
O37	O	1.117855	0.778783	-0.041152
O38	O	1.117858	0.696049	0.041572
C39	C	0.703585	0.737404	0.000165
C40	C	0.601262	0.737401	0.000154
C41	C	0.636406	0.676330	-0.060895
C42	C	0.540217	0.676344	-0.060854
C43	C	0.373741	0.798501	0.061294
C44	C	0.469929	0.798490	0.061249
C45	C	0.732519	0.605802	-0.131415
C46	C	0.636330	0.605815	-0.131374
C47	C	1.005109	0.516248	0.000171
C48	C	1.005121	0.441187	0.000162
C49	C	1.128093	0.214734	-0.044913
C50	C	1.066616	0.192371	-0.077609
C51	C	1.005087	0.303780	0.000185
C52	C	1.066573	0.192403	0.032867
C53	C	1.005064	0.171048	0.000208
C54	C	0.943609	0.282405	-0.032557
C55	C	0.943584	0.282435	0.077963
C56	C	0.882016	0.260124	0.045286
C57	C	1.005104	0.380242	0.000171
C58	C	1.005037	0.094591	0.000221
C59	C	1.306562	0.737421	0.000230
C60	C	1.408885	0.737424	0.000241
C61	C	1.005101	0.737411	-0.220964
C62	C	1.005111	0.737410	-0.296024
C63	C	1.005038	0.958577	0.000225
C64	C	1.005026	1.033638	0.000234
C65	C	1.128084	0.692302	-0.567367
C66	C	1.066629	0.659598	-0.499917
C67	C	1.005060	0.737413	-0.566170
C68	C	1.066578	0.770077	-0.499905
C69	C	1.005091	0.737410	-0.433441
C70	C	0.943604	0.704663	-0.499708
C71	C	0.943570	0.815185	-0.499706
C72	C	0.882026	0.782500	-0.432244
C73	C	1.005045	0.737412	-0.642633
C74	C	1.005096	0.737409	-0.356976
C75	C	1.005046	0.737414	0.221359
C76	C	1.005036	0.737415	0.296420
C77	C	0.703549	0.958568	0.000192
C78	C	0.601215	1.033626	0.000190
C79	C	0.703557	0.737406	0.221327
C80	C	0.601225	0.737403	0.296376
C81	C	0.703521	0.958570	0.221354
C82	C	0.601177	1.033629	0.296412
C83	C	1.306625	0.516255	-0.220958
C84	C	1.408969	0.441196	-0.296017
C85	C	1.306598	0.516257	0.000203
C86	C	1.408932	0.441199	0.000205
C87	C	1.306590	0.737419	-0.220932
C88	C	1.408922	0.737422	-0.295981
C89	C	0.553169	1.025687	-0.043009
C90	C	0.457029	1.096206	-0.043028
C91	C	0.408928	1.174662	0.000159
C92	C	0.456983	1.182600	0.043360
C93	C	0.553128	1.112082	0.043373
C94	C	0.553156	0.780589	0.374819
C95	C	0.457018	0.780584	0.445343
C96	C	0.408943	0.737397	0.437422
C97	C	0.457021	0.694205	0.358970
C98	C	0.553165	0.694206	0.288449
C99	C	0.553114	1.112071	0.288480
C100	C	0.456964	1.182604	0.358998
C101	C	0.408873	1.174692	0.437449
C102	C	0.456946	1.096242	0.445380
C103	C	0.553101	1.025711	0.374862
C104	C	1.457044	0.362754	-0.288084
C105	C	1.553224	0.292221	-0.358603
C106	C	1.601320	0.300133	-0.437053
C107	C	1.553241	0.378583	-0.444984
C108	C	1.457070	0.449114	-0.374467
C109	C	1.456987	0.449138	0.043398
C110	C	1.553155	0.378619	0.043396
C111	C	1.601259	0.300162	0.000207
C112	C	1.553200	0.292225	-0.042991
C113	C	1.457040	0.362743	-0.042994
C114	C	1.456966	0.780617	-0.288033
C115	C	1.553105	0.780636	-0.358543
C116	C	1.601205	0.737453	-0.437000
C117	C	1.553151	0.694256	-0.444946
C118	C	1.457007	0.694243	-0.374437
H119	H	0.792200	0.549711	-0.119102
F120	F	0.604348	0.942194	-0.088981
H121	H	0.417805	1.246489	0.078521
F122	F	1.604364	0.648295	-0.528452
H123	H	1.679628	0.242695	-0.494467
H124	H	0.417914	1.089727	-0.078207
F125	F	0.745983	0.832350	-0.356752
F126	F	1.604406	0.208719	-0.088951
F127	F	1.703533	0.737473	-0.512036
H128	H	1.118609	0.153562	-0.143376
H129	H	0.891611	0.880944	-0.500396
H130	H	1.232100	0.196286	-0.083105
H131	H	1.118578	0.153603	0.060497
F132	F	0.306599	1.249707	0.000139
H133	H	1.417890	0.356296	-0.224212
F134	F	1.604439	0.386990	-0.528484
F135	F	0.405815	1.266088	0.350540
F136	F	1.134556	0.806188	-0.499053
H137	H	0.592234	1.118558	0.078556
H138	H	1.417917	0.356267	-0.078164
F139	F	0.604307	0.648243	0.204966
H140	H	1.417928	0.512983	-0.380935
H141	H	1.592220	0.815810	-0.352057
H142	H	1.417818	0.815781	-0.224156
H143	H	1.592353	0.228350	-0.352129
H144	H	1.417900	0.659065	-0.380919
F145	F	1.405812	0.532630	0.089367
H146	H	0.592288	0.815757	0.381284
F147	F	1.264015	0.642385	-0.642980
F148	F	0.604237	0.942229	0.383317
F149	F	0.604285	1.120510	0.204993
H150	H	1.679558	0.242749	0.000216
F151	F	0.432518	0.863496	0.126219
F152	F	0.233964	0.863513	0.126311
H153	H	0.647153	0.545586	-0.125286
F154	F	1.604281	0.387084	0.089378
F155	F	0.814843	0.613736	-0.210154
H156	H	0.636302	0.618136	-0.187453
H157	H	0.891664	0.321098	-0.060263
H158	H	0.330658	0.737403	0.494852
F159	F	0.745995	0.284379	0.095097
H160	H	0.891635	0.321242	0.143715
H161	H	0.417865	0.659044	0.352533
H162	H	0.891668	0.676952	-0.500303
F163	F	1.134602	0.573629	-0.499052
H164	H	0.330578	1.232130	0.494862
F165	F	0.405864	0.826558	0.528828
H166	H	0.417776	1.089812	0.509264
