data_functionalizedCrystal
_audit_creation_method	'MofGen! by Chris Wilmer'
_symmetry_space_group_name_H-M	'P1'
_symmetry_Int_Tables_number	1
_symmetry_cell_setting	triclinic
loop_
_symmetry_equiv_pos_as_xyz
  x,y,z
_cell_length_a	20.016444
_cell_length_b	23.196402
_cell_length_c	23.196401
_cell_angle_alpha	60.008822
_cell_angle_beta	90.014557
_cell_angle_gamma	60.002980
loop_
_atom_site_label
_atom_site_type_symbol
_atom_site_fract_x
_atom_site_fract_y
_atom_site_fract_z
Zr1	Zr	0.643579	0.631025	-0.075628
O2	O	0.536885	0.751288	-0.167674
O3	O	0.676284	0.510761	-0.047415
O4	O	0.676255	0.631028	-0.167680
O5	O	0.536941	0.631019	0.047462
O6	O	0.786194	0.631033	-0.167680
O7	O	0.536915	0.631021	-0.047409
O8	O	0.786247	0.415897	0.047453
O9	O	0.536888	0.846155	-0.167670
O10	O	0.772282	0.560232	-0.035378
O11	O	0.690255	0.560227	0.035424
O12	O	0.690220	0.701826	-0.106173
O13	O	0.608193	0.701822	-0.035371
Zr14	Zr	0.818963	0.631030	0.075681
Zr15	Zr	0.818921	0.631033	-0.075628
Zr16	Zr	0.643621	0.631023	0.075681
Zr17	Zr	0.643584	0.782328	-0.075622
Zr18	Zr	0.818958	0.479728	0.075674
O19	O	0.786258	0.751295	0.047467
O20	O	0.786198	0.751298	-0.167675
O21	O	0.536945	0.751284	0.047467
O22	O	0.925657	0.510768	0.167727
O23	O	0.925597	0.510771	-0.047415
O24	O	0.676344	0.510758	0.167727
O25	O	0.925601	0.631037	-0.047410
O26	O	0.786287	0.631028	0.167732
O27	O	0.676348	0.631023	0.167732
O28	O	0.925627	0.631035	0.047462
O29	O	0.676261	0.846161	-0.167671
O30	O	0.786281	0.415895	0.167723
O31	O	0.925654	0.415901	0.167723
O32	O	0.925620	0.415903	0.047453
O33	O	0.536922	0.846153	-0.047400
O34	O	0.676295	0.846159	-0.047400
O35	O	0.772322	0.560230	0.106225
O36	O	0.854349	0.560234	0.035424
O37	O	0.772287	0.701829	-0.035371
O38	O	0.690260	0.701824	0.035430
C39	C	0.731265	0.441772	0.000018
C40	C	0.731263	0.377540	0.000015
C41	C	0.511946	0.631019	0.000027
C42	C	0.437509	0.631016	0.000027
C43	C	0.774075	0.347372	-0.036945
C44	C	0.774083	0.287011	-0.036939
C45	C	0.731263	0.256832	0.000017
C46	C	0.688449	0.287004	0.036986
C47	C	0.688449	0.347358	0.036985
C48	C	0.659524	0.194799	-0.005257
C49	C	0.659522	0.134450	-0.005261
C50	C	0.731264	0.070677	0.000024
C51	C	0.803008	0.067268	0.005300
C52	C	0.803008	0.127622	0.005299
C53	C	0.731258	0.191387	0.000023
C54	C	0.774088	-0.024942	-0.036931
C55	C	0.774098	-0.085308	-0.036921
C56	C	0.688457	-0.085308	0.036999
C57	C	0.688455	-0.024949	0.036993
C58	C	0.731268	0.005233	0.000024
C59	C	0.309077	0.557114	0.036983
C60	C	0.239132	0.557118	0.036984
C61	C	0.153467	0.704947	-0.036931
C62	C	0.223411	0.704943	-0.036928
C63	C	0.301216	0.631024	0.000027
C64	C	0.161326	0.631032	0.000026
C65	C	0.085488	0.631036	0.000027
C66	C	0.377059	0.631020	0.000026
C67	C	0.950596	0.631037	0.000026
C68	C	1.025033	0.631040	0.000026
C69	C	0.731219	0.631031	-0.189238
C70	C	0.731201	0.631032	-0.253473
C71	C	0.731277	0.820284	0.000034
C72	C	0.731279	0.884516	0.000037
C73	C	0.688369	0.704940	-0.320600
C74	C	0.688390	0.704942	-0.380955
C75	C	0.731231	0.631030	-0.374179
C76	C	0.774072	0.557111	-0.307039
C77	C	0.774057	0.557112	-0.246686
C78	C	0.725146	0.574402	-0.441499
C79	C	0.725155	0.574404	-0.501852
C80	C	0.731283	0.631024	-0.560327
C81	C	0.737385	0.687655	-0.558447
C82	C	0.737370	0.687656	-0.498094
C83	C	0.731253	0.631020	-0.439618
C84	C	0.688472	0.704939	-0.692901
C85	C	0.688499	0.704937	-0.753256
C86	C	0.774175	0.557104	-0.679338
C87	C	0.774154	0.557108	-0.618985
C88	C	0.731298	0.631028	-0.625771
C89	C	0.731323	0.631025	0.189291
C90	C	0.731341	0.631024	0.253525
C91	C	0.950590	0.441781	0.000018
C92	C	1.025025	0.377552	0.000015
C93	C	0.731317	0.441769	0.189283
C94	C	0.731333	0.377536	0.253514
C95	C	0.950643	0.441778	0.189282
C96	C	1.025096	0.377548	0.253514
C97	C	0.511899	0.820278	-0.189230
C98	C	0.437446	0.884508	-0.253462
C99	C	0.511952	0.820275	0.000035
C100	C	0.437517	0.884504	0.000037
C101	C	0.731225	0.820287	-0.189230
C102	C	0.731209	0.884520	-0.253462
C103	C	1.017143	0.347388	-0.036950
C104	C	1.087076	0.287047	-0.036967
C105	C	1.164890	0.256866	-0.000014
C106	C	1.172771	0.287036	0.036952
C107	C	1.102839	0.347380	0.036965
C108	C	0.774178	0.347373	0.320642
C109	C	0.774190	0.287028	0.381001
C110	C	0.731361	0.256843	0.374230
C111	C	0.688510	0.287012	0.307095
C112	C	0.688494	0.347360	0.246738
C113	C	1.102884	0.347387	0.246720
C114	C	1.172847	0.287045	0.307067
C115	C	1.165020	0.256860	0.374207
C116	C	1.087223	0.287027	0.380999
C117	C	1.017262	0.347372	0.320653
C118	C	0.359658	0.914676	-0.246668
C119	C	0.289695	0.975037	-0.307015
C120	C	0.297522	1.005225	-0.374154
C121	C	0.375319	0.975054	-0.380947
C122	C	0.445280	0.914698	-0.320601
C123	C	0.445399	0.914674	0.036996
C124	C	0.375466	0.975032	0.036997
C125	C	0.297652	1.005215	0.000041
C126	C	0.289771	0.975042	-0.036922
C127	C	0.359703	0.914689	-0.036926
C128	C	0.774046	0.914686	-0.246668
C129	C	0.774048	0.975031	-0.307015
C130	C	0.731206	1.005214	-0.374155
C131	C	0.688367	0.975042	-0.380947
C132	C	0.688371	0.914694	-0.320601
H133	H	0.808938	0.371942	-0.067045
C134	C	1.258416	0.253866	0.299580
N135	N	1.322864	0.228874	0.293938
C136	C	0.821340	0.253845	0.454842
N137	N	0.856856	0.228851	0.510458
C138	C	0.204167	1.008241	-0.077559
N139	N	0.139688	1.033242	-0.108159
H140	H	1.221993	0.207723	0.423339
H141	H	0.226356	0.999591	-0.301470
C142	C	1.078627	0.253808	0.454860
N143	N	1.072154	0.228781	0.510494
C144	C	0.821178	0.253821	-0.077602
N145	N	0.856650	0.228826	-0.108230
H146	H	0.245540	0.496933	0.067078
H147	H	1.109273	0.371955	0.192057
C148	C	0.351028	0.881486	-0.172819
N149	N	0.344521	0.856495	-0.117198
C150	C	0.881927	0.123866	0.011110
N151	N	0.941371	0.121033	0.015491
H152	H	0.508753	0.890104	0.067094
H153	H	0.808933	0.890120	-0.192005
H154	H	1.080643	0.262490	-0.067069
H155	H	1.221827	0.207729	-0.000029
H156	H	0.731381	0.207703	0.423382
H157	H	0.953925	0.371921	0.326195
C158	C	0.394661	0.475802	0.077641
N159	N	0.459122	0.414554	0.108268
C160	C	0.718438	0.512111	-0.503915
N161	N	0.713379	0.465191	-0.505466
C162	C	0.067877	0.786254	-0.077589
N163	N	0.003411	0.847495	-0.108217
H164	H	0.240549	1.054370	-0.423286
H165	H	0.653640	0.262426	0.301592
C166	C	0.641368	0.380524	0.172898
N167	N	0.605872	0.405499	0.117283
C168	C	0.383915	1.008262	-0.454808
N169	N	0.390388	1.033271	-0.510441
C170	C	0.530846	0.881511	-0.328086
N171	N	0.595294	0.856515	-0.333729
C172	C	0.384154	1.008204	0.077667
N173	N	0.390699	1.033186	0.108302
H174	H	0.353274	0.890127	-0.067020
H175	H	1.236137	0.262454	0.067038
H176	H	0.240715	1.054358	0.000050
C177	C	0.641346	0.253807	0.077637
N178	N	0.605867	0.228802	0.108257
H179	H	0.861430	0.015337	0.009613
H180	H	0.653484	0.890139	-0.326142
H181	H	0.808931	0.999591	-0.301471
H182	H	0.731209	1.054354	-0.423287
C183	C	0.641278	1.008223	-0.454808
N184	N	0.605820	1.033209	-0.510442
C185	C	1.111524	0.380546	0.077640
N186	N	1.118071	0.405522	0.108280
H187	H	0.808953	-0.000370	-0.067032
H188	H	0.217004	0.765133	-0.067021
C189	C	0.821292	0.380569	0.328108
N190	N	0.856776	0.405574	0.333737
H191	H	0.808966	-0.109875	-0.067015
H192	H	0.653589	-0.000383	0.067088
C193	C	0.580605	0.138201	-0.011056
N194	N	0.521164	0.141026	-0.015417
C195	C	0.641355	-0.118503	0.077653
N196	N	0.605879	-0.143509	0.108276
H197	H	0.809058	0.496924	-0.673819
H198	H	0.601094	0.246734	-0.009576
H199	H	0.653577	0.765128	-0.698427
H200	H	0.653585	0.371921	0.067082
H201	H	0.653476	0.765132	-0.326132
C202	C	0.641270	0.786250	-0.454807
N203	N	0.605778	0.847492	-0.510430
H204	H	0.742340	0.733766	-0.496566
C205	C	0.744129	0.749940	-0.622766
N206	N	0.749208	0.796852	-0.671213
H207	H	0.653623	0.765124	-0.807915
H208	H	0.809028	0.496924	-0.564325
H209	H	0.953789	0.371961	-0.067050
H210	H	0.720150	0.528295	-0.393890
H211	H	0.808955	0.496932	-0.301526
H212	H	0.808936	0.496925	-0.192026
