data_functionalizedCrystal
_audit_creation_method	'MofGen! by Chris Wilmer'
_symmetry_space_group_name_H-M	'P1'
_symmetry_Int_Tables_number	1
_symmetry_cell_setting	triclinic
loop_
_symmetry_equiv_pos_as_xyz
  x,y,z
_cell_length_a	6.817900
_cell_length_b	10.943632
_cell_length_c	23.753023
_cell_angle_alpha	95.045146
_cell_angle_beta	100.067528
_cell_angle_gamma	108.838880
loop_
_atom_site_label
_atom_site_type_symbol
_atom_site_fract_x
_atom_site_fract_y
_atom_site_fract_z
V1	V	-4.016362	-0.180260	-0.178374
O2	O	-3.975950	0.006985	-0.174993
O3	O	-3.994998	-0.355812	-0.177141
O4	O	-3.951085	-0.178223	-0.256176
O5	O	-4.020166	-0.171833	-0.095411
V6	V	-4.498673	-0.157776	-0.168453
O7	O	-4.280278	-0.229580	-0.200138
O8	O	-4.684955	-0.108457	-0.146689
O9	O	-4.296831	0.017775	-0.169686
O10	O	-4.656482	-0.345021	-0.171834
O11	O	-4.612266	-0.166203	-0.251416
O12	O	-4.340743	-0.159813	-0.090651
C13	C	-3.847121	-0.398585	-0.174323
C14	C	-3.910828	-0.542105	-0.173833
C15	C	-3.791106	-0.172051	-0.275140
C16	C	-3.819198	-0.171547	-0.338743
C17	C	-3.757485	-0.619228	-0.170575
C18	C	-3.861990	-0.691453	-0.124388
C19	C	-3.919861	-0.725611	-0.219153
C20	C	-4.014470	-0.612425	-0.127614
C21	C	-4.072337	-0.646591	-0.222421
C22	C	-4.176956	-0.718778	-0.176225
C23	C	-4.050231	-0.286887	-0.741324
C24	C	-4.076664	-0.286434	-0.801088
O25	O	-4.138506	-0.386814	-0.838940
N26	N	-4.033310	-0.167897	-0.822815
C27	C	-3.963537	-0.049806	-0.784775
O28	O	-3.929090	0.051060	-0.808743
C29	C	-3.937120	-0.050261	-0.725013
C30	C	-3.980459	-0.168805	-0.703289
C31	C	-4.093568	-0.405421	-0.719600
C32	C	-4.067133	-0.405873	-0.659840
C33	C	-3.997361	-0.287792	-0.621805
C34	C	-3.954024	-0.169258	-0.643530
C35	C	-3.867363	0.067827	-0.686974
C36	C	-3.840950	0.067362	-0.627209
C37	C	-3.884289	-0.051182	-0.605485
C38	C	-3.857816	-0.051628	-0.545735
N39	N	-3.901171	-0.170165	-0.524008
C40	C	-3.970943	-0.288247	-0.562043
C41	C	-4.019024	-0.048860	-0.910280
C42	C	-4.045426	-0.048404	-0.970041
C43	C	-4.158555	-0.285032	-0.986349
C44	C	-4.132138	-0.285486	-0.926587
C45	C	-4.062379	-0.167397	-0.888553
C46	C	-3.915421	-0.289188	-0.436543
C47	C	-3.888970	-0.289629	-0.376778
C48	C	-3.775854	-0.053002	-0.360474
C49	C	-3.802292	-0.052560	-0.420234
C50	C	-3.872087	-0.170663	-0.458268
O51	O	-3.795990	0.048700	-0.507848
O52	O	-4.005406	-0.389097	-0.538067
C53	C	-4.108050	0.060541	-0.172502
C54	C	-4.023581	0.204061	-0.172996
C55	C	-4.164066	-0.165989	-0.071685
C56	C	-4.115211	-0.166487	-0.008081
H57	H	-3.579530	-0.575722	-0.168132
H58	H	-3.972249	-0.385359	-0.467504
O59	O	-4.061798	-0.553923	-0.081460
C60	C	-4.281995	-0.605876	-0.084328
H61	H	-4.368501	-0.648799	-0.131025
H62	H	-4.339453	-0.524974	-0.068273
H63	H	-4.316088	-0.685863	-0.056005
H64	H	-4.160525	-0.626179	-0.263874
O65	O	-3.756604	-0.715952	-0.074997
C66	C	-3.636031	-0.792710	-0.089182
H67	H	-3.706868	-0.847766	-0.135130
H68	H	-3.638353	-0.865650	-0.057648
H69	H	-3.465378	-0.726784	-0.086239
O70	O	-3.707723	0.061745	-0.323540
C71	C	-3.506419	0.140010	-0.330424
H72	H	-3.425575	0.075221	-0.349695
H73	H	-3.405203	0.195436	-0.286492
H74	H	-3.525696	0.212659	-0.360649
O75	O	-3.873165	-0.784347	-0.265363
C76	C	-3.982085	-0.760220	-0.316947
H77	H	-4.126379	-0.736630	-0.308445
H78	H	-4.036092	-0.850592	-0.351371
H79	H	-3.871862	-0.673930	-0.332738
O80	O	-4.389298	-0.770263	-0.179136
C81	C	-4.500146	-0.746084	-0.230399
H82	H	-4.392137	-0.658286	-0.245844
H83	H	-4.645962	-0.724839	-0.221591
H84	H	-4.551975	-0.835572	-0.265213
O85	O	-3.931190	-0.404905	-0.355773
C86	C	-3.998357	-0.509022	-0.402162
H87	H	-4.064070	-0.476278	-0.443377
H88	H	-4.127403	-0.595376	-0.392142
H89	H	-3.857919	-0.539606	-0.408479
H90	H	-4.150390	-0.501583	-0.750563
O91	O	-3.951485	0.065937	-0.873397
C92	C	-4.096933	0.131861	-0.885798
H93	H	-4.190014	0.096484	-0.932428
H94	H	-4.007096	0.241491	-0.879769
H95	H	-4.211300	0.110918	-0.855226
O96	O	-4.109695	-0.521156	-0.638844
C97	C	-4.177037	-0.625270	-0.685241
H98	H	-4.242385	-0.592409	-0.726466
H99	H	-4.306406	-0.711498	-0.675259
H100	H	-4.036780	-0.656091	-0.691516
H101	H	-3.767012	0.043968	-0.437923
O102	O	-3.824948	0.182959	-0.708092
C103	C	-3.663504	0.196466	-0.739423
H104	H	-3.566434	0.133495	-0.724117
H105	H	-3.555603	0.303180	-0.731954
H106	H	-3.737922	0.163647	-0.787532
O107	O	-4.174219	-0.400750	-0.905582
C108	C	-4.241287	-0.504859	-0.951972
H109	H	-4.307129	-0.472153	-0.993182
H110	H	-4.370208	-0.591271	-0.941944
H111	H	-4.100763	-0.535338	-0.958301
O112	O	-3.773075	0.182199	-0.590342
C113	C	-3.740550	0.286911	-0.622338
H114	H	-3.712595	0.254792	-0.666320
H115	H	-3.596169	0.372979	-0.597822
H116	H	-3.886580	0.317636	-0.628746
H117	H	-4.215373	-0.381180	-1.017329
O118	O	-4.003640	0.066658	-0.991212
C119	C	-4.188932	0.067876	-1.028041
H120	H	-4.299804	-0.036825	-1.045000
H121	H	-4.144584	0.119663	-1.065990
H122	H	-4.272238	0.121775	-1.002914
