data_functionalizedCrystal
_audit_creation_method	'MofGen! by Chris Wilmer'
_symmetry_space_group_name_H-M	'P1'
_symmetry_Int_Tables_number	1
_symmetry_cell_setting	triclinic
loop_
_symmetry_equiv_pos_as_xyz
  x,y,z
_cell_length_a	20.875641
_cell_length_b	20.875620
_cell_length_c	14.560438
_cell_angle_alpha	92.970373
_cell_angle_beta	57.589514
_cell_angle_gamma	64.261640
loop_
_atom_site_label
_atom_site_type_symbol
_atom_site_fract_x
_atom_site_fract_y
_atom_site_fract_z
Zr1	Zr	0.702122	0.643703	-0.109573
O2	O	0.835939	0.546196	-0.270496
O3	O	0.568303	0.670189	-0.055620
O4	O	0.702122	0.675103	-0.253887
O5	O	0.702119	0.541279	0.078911
O6	O	0.702124	0.780661	-0.246043
O7	O	0.702120	0.541281	-0.072229
O8	O	0.462746	0.771871	0.108621
O9	O	0.941497	0.550070	-0.275753
O10	O	0.623346	0.764376	-0.032339
O11	O	0.623345	0.685598	0.074601
O12	O	0.780900	0.691384	-0.158833
O13	O	0.780898	0.612605	-0.051894
Zr14	Zr	0.702124	0.812054	0.143988
Zr15	Zr	0.702125	0.812057	-0.097062
Zr16	Zr	0.702121	0.643700	0.131477
Zr17	Zr	0.870475	0.649882	-0.117957
Zr18	Zr	0.533770	0.805874	0.152372
O19	O	0.835943	0.785568	0.090035
O20	O	0.835943	0.785573	-0.252707
O21	O	0.835938	0.546191	0.072246
O22	O	0.568307	0.909561	0.304911
O23	O	0.568307	0.909566	-0.037831
O24	O	0.568303	0.670184	0.287122
O25	O	0.702126	0.914477	-0.044496
O26	O	0.702123	0.780654	0.288302
O27	O	0.702122	0.675095	0.280458
O28	O	0.702126	0.914475	0.106644
O29	O	0.941500	0.683889	-0.265809
O30	O	0.462746	0.771868	0.300224
O31	O	0.462748	0.905687	0.310168
O32	O	0.462749	0.905690	0.118565
O33	O	0.941497	0.550067	-0.084150
O34	O	0.941500	0.683886	-0.074206
O35	O	0.623346	0.764373	0.193248
O36	O	0.623348	0.843152	0.086309
O37	O	0.780901	0.770159	-0.040186
O38	O	0.780899	0.691380	0.066754
C39	C	0.491538	0.720149	0.027695
C40	C	0.420067	0.717526	0.031255
C41	C	0.702119	0.517294	0.001559
C42	C	0.702118	0.445823	-0.003752
C43	C	0.702123	0.727883	-0.284309
C44	C	0.702123	0.727884	-0.386641
C45	C	0.386491	0.757413	-0.022895
C46	C	0.319332	0.754951	-0.019539
C47	C	0.285755	0.712596	0.037959
C48	C	0.319334	0.672707	0.092116
C49	C	0.386487	0.675175	0.088767
C50	C	0.084911	0.700810	0.053968
C51	C	0.017755	0.698343	0.057310
C52	C	0.017756	0.780588	-0.054344
C53	C	0.084915	0.783048	-0.057694
C54	C	0.118484	0.743163	-0.003532
N55	N	0.217110	0.710075	0.041387
N56	N	0.187124	0.745689	-0.006954
C57	C	0.912708	0.735607	0.006720
C58	C	0.984179	0.738231	0.003160
C59	C	0.702130	0.043510	-0.042603
C60	C	0.702133	0.110664	-0.037612
C61	C	0.702127	0.144242	0.048155
C62	C	0.702128	0.110660	0.128930
C63	C	0.702132	0.043505	0.123933
C64	C	0.702122	0.345085	0.072025
C65	C	0.702116	0.412246	0.077018
C66	C	0.702122	0.412245	-0.089526
C67	C	0.702120	0.345091	-0.094511
C68	C	0.702126	0.311512	-0.013741
N69	N	0.702127	0.212885	0.053261
N70	N	0.702132	0.242868	-0.018853
C71	C	0.702127	0.938463	0.032856
C72	C	0.702128	1.009934	0.038167
C73	C	0.702128	0.786034	-0.430405
C74	C	0.702125	0.786030	-0.526554
C75	C	0.702115	0.669720	-0.535172
C76	C	0.702112	0.669727	-0.439019
C77	C	0.702138	0.853182	-0.425433
C78	C	0.702134	0.853179	-0.521582
C79	C	0.702122	0.727874	0.318725
C80	C	0.702122	0.727873	0.421057
C81	C	0.491542	0.930734	0.043344
C82	C	0.420072	0.999582	0.052214
C83	C	0.491537	0.720145	0.329212
C84	C	0.420067	0.717521	0.435104
C85	C	0.491541	0.930730	0.344861
C86	C	0.420072	0.999576	0.456064
C87	C	0.912705	0.525027	-0.310446
C88	C	0.984174	0.456181	-0.421648
C89	C	0.912704	0.525023	-0.008929
C90	C	0.984173	0.456175	-0.017799
C91	C	0.912708	0.735612	-0.294797
C92	C	0.984179	0.738236	-0.400689
C93	C	0.386509	0.990793	-0.005563
C94	C	0.319365	1.055476	0.002748
C95	C	0.285781	1.128947	0.068844
C96	C	0.319352	1.137735	0.126623
C97	C	0.386499	1.073052	0.118304
C98	C	0.386504	0.757408	0.546775
C99	C	0.319359	0.754939	0.646279
C100	C	0.285773	0.712587	0.634111
C101	C	0.319343	0.672695	0.522429
C102	C	0.386491	0.675159	0.422926
C103	C	0.386510	1.073035	0.452465
C104	C	0.319366	1.137730	0.556942
C105	C	0.285781	1.128964	0.665017
C106	C	0.319349	1.055497	0.668613
C107	C	0.386496	0.990804	0.564137
C108	C	1.017744	0.382722	-0.418050
C109	C	1.084909	0.318028	-0.522528
C110	C	1.118498	0.326794	-0.630604
C111	C	1.084925	0.400261	-0.634200
C112	C	1.017766	0.464954	-0.529723
C113	C	1.017744	0.464964	0.039968
C114	C	1.084906	0.400281	0.031629
C115	C	1.118492	0.326811	-0.034471
C116	C	1.084919	0.318023	-0.092245
C117	C	1.017762	0.382705	-0.083912
C118	C	1.017743	0.780596	-0.388483
C119	C	1.084889	0.783077	-0.487969
C120	C	1.118474	0.743194	-0.599659
C121	C	1.084903	0.700833	-0.611862
C122	C	1.017754	0.698356	-0.512377
H123	H	0.413829	0.791899	-0.069722
Br124	Br	0.432074	0.891090	-0.095277
H125	H	0.702119	0.439590	-0.155286
H126	H	1.112258	0.668361	-0.702814
H127	H	1.112230	0.407451	0.078681
H128	H	0.112252	0.817537	-0.104513
H129	H	0.292041	1.048306	-0.044303
H130	H	1.112275	0.258195	-0.146062
Br131	Br	0.702127	0.299519	0.181640
H132	H	1.112215	0.817571	-0.478010
H133	H	0.231105	1.181610	0.075609
Br134	Br	0.432029	0.621023	0.271376
Br135	Br	1.130456	0.218332	-0.517620
Br136	Br	0.432065	0.814896	0.563321
Br137	Br	0.702096	0.590798	-0.606257
H138	H	0.990433	0.663859	-0.522332
H139	H	-0.009583	0.813062	-0.098438
Br140	Br	0.273761	1.237451	0.216324
H141	H	1.173151	0.745216	-0.680657
Br142	Br	0.432036	1.084993	0.196733
Br143	Br	0.130456	0.646686	0.127483
H144	H	0.292035	0.787427	0.737207
Br145	Br	-0.027809	0.640853	0.135341
H146	H	0.231097	0.710586	0.715143
Br147	Br	0.273750	0.615240	0.170175
Br148	Br	0.702140	0.156232	-0.147234
H149	H	0.291994	0.787430	-0.063631
H150	H	0.291994	1.048370	0.756622
H151	H	0.413826	0.642692	0.132858
H152	H	0.292041	1.197545	0.553993
Br153	Br	0.972181	0.564667	0.129678
H154	H	0.413845	1.080188	0.364474
Br155	Br	0.702128	-0.002049	-0.159000
Br156	Br	0.702123	0.299522	-0.210906
Br157	Br	1.209634	0.239035	-0.045767
H158	H	0.990400	0.375569	-0.330059
H159	H	0.765277	0.849703	-0.596460
Br160	Br	0.596911	0.944913	-0.294266
H161	H	0.291987	0.638212	0.512539
H162	H	0.231105	1.181647	0.750080
H163	H	0.990431	0.375538	-0.130951
Br164	Br	0.702103	0.457816	0.193432
Br165	Br	0.432033	0.891110	0.569043
H166	H	1.112281	0.407390	-0.722207
Br167	Br	0.972180	0.834730	-0.236915
H168	H	0.767282	0.843839	-0.446365
H169	H	0.990434	0.524766	-0.532666
Br170	Br	0.702131	0.156223	0.245324
Br171	Br	0.702138	-0.002068	0.233548
Br172	Br	0.702082	0.590820	-0.379606
H173	H	0.636991	0.904199	-0.497558
H174	H	1.173182	0.274111	-0.715667
