data_functionalizedCrystal
_audit_creation_method	'MofGen! by Chris Wilmer'
_symmetry_space_group_name_H-M	'P1'
_symmetry_Int_Tables_number	1
_symmetry_cell_setting	triclinic
loop_
_symmetry_equiv_pos_as_xyz
  x,y,z
_cell_length_a	13.185408
_cell_length_b	23.532407
_cell_length_c	12.377033
_cell_angle_alpha	78.786792
_cell_angle_beta	97.402812
_cell_angle_gamma	67.411089
loop_
_atom_site_label
_atom_site_type_symbol
_atom_site_fract_x
_atom_site_fract_y
_atom_site_fract_z
O1	O	1.427536	-0.134488	-0.093889
O2	O	1.109406	-0.076660	-0.093920
O3	O	1.278069	-0.189951	-0.093883
O4	O	1.258873	-0.021197	-0.093926
O5	O	1.320188	-0.218233	0.094122
O6	O	1.151524	-0.104942	0.094085
O7	O	1.469655	-0.162769	0.094116
Zn8	Zn	1.317277	-0.138346	0.123951
Zn9	Zn	1.261784	-0.101084	-0.123754
O10	O	1.300992	-0.049479	0.094079
C11	C	1.089772	-0.084939	0.000079
C12	C	0.968520	-0.067477	0.000068
C13	C	0.897973	-0.005308	0.000049
C14	C	0.784054	0.011098	0.000056
C15	C	0.740669	-0.034663	0.000071
C16	C	0.811215	-0.096832	0.000081
C17	C	0.925147	-0.113241	0.000084
C18	C	0.767844	-0.142596	0.000105
C19	C	0.838390	-0.204765	0.000116
C20	C	0.952310	-0.221171	0.000118
C21	C	0.995695	-0.175410	0.000102
C22	C	0.653911	-0.126187	0.000102
C23	C	0.681086	-0.234120	0.000137
C24	C	0.795005	-0.250526	0.000131
C25	C	1.298640	-0.225235	0.000123
C26	C	1.297173	-0.288232	0.000131
C27	C	1.387755	-0.700945	0.000078
C28	C	1.386388	-0.760139	0.000069
O29	O	1.470361	-0.809502	0.000036
N30	N	1.286121	-0.767692	0.000060
C31	C	1.187211	-0.716045	0.000049
O32	O	1.101800	-0.727905	0.000039
C33	C	1.188577	-0.656852	0.000049
C34	C	1.288853	-0.649305	0.000070
C35	C	1.488023	-0.693396	0.000097
C36	C	1.489389	-0.634207	0.000108
C37	C	1.390488	-0.582566	0.000100
C38	C	1.290220	-0.590115	0.000081
C39	C	1.089666	-0.605205	0.000029
C40	C	1.091041	-0.546009	0.000029
C41	C	1.191317	-0.538462	0.000050
C42	C	1.192685	-0.479285	0.000083
N43	N	1.292952	-0.471732	0.000092
C44	C	1.391854	-0.523372	0.000100
C45	C	1.184350	-0.840357	0.000045
C46	C	1.182985	-0.899551	0.000053
C47	C	1.382162	-0.943640	0.000071
C48	C	1.383528	-0.884447	0.000072
C49	C	1.284617	-0.832804	0.000054
C50	C	1.394716	-0.399069	0.000124
C51	C	1.396075	-0.339873	0.000140
C52	C	1.196897	-0.295788	0.000115
C53	C	1.195539	-0.354979	0.000105
C54	C	1.294456	-0.406620	0.000106
O55	O	1.108755	-0.429893	0.000112
O56	O	1.477247	-0.511500	0.000095
C57	C	1.489288	-0.154491	0.000115
C58	C	1.610538	-0.171951	0.000119
C59	C	1.280420	-0.014194	0.000071
C60	C	1.281885	0.048804	0.000055
N61	N	1.355158	-0.163778	0.293003
N62	N	1.223912	-0.075657	-0.292806
C63	C	1.135946	-0.016600	0.648024
C64	C	1.109412	0.001208	0.529689
C65	C	1.170847	-0.040037	0.470511
C66	C	1.258819	-0.099093	0.529681
C67	C	1.285350	-0.116905	0.648028
C68	C	1.320250	-0.140342	0.470515
C69	C	1.408223	-0.199398	0.529685
C70	C	1.434750	-0.217207	0.648020
C71	C	1.373316	-0.175962	0.707198
C72	C	1.293719	-0.122530	0.352168
C73	C	1.443123	-0.222835	0.352172
C74	C	1.469657	-0.240643	0.470508
H75	H	1.009750	-0.271795	0.000140
H76	H	1.493147	-0.256421	0.303991
H77	H	1.101334	-0.905691	0.000056
Br78	Br	1.050103	-0.770276	0.000031
H79	H	0.726623	0.061716	0.000047
H80	H	1.010493	-0.503961	0.000013
H81	H	1.149239	-0.025535	0.374157
Br82	Br	1.589047	-0.320789	0.550820
H83	H	1.088457	-0.188765	0.000101
H84	H	1.037785	0.049290	0.481517
Br85	Br	1.059455	-0.365227	0.000104
H86	H	1.085929	0.016974	0.696214
Br87	Br	1.625478	-0.623970	0.000104
H88	H	0.596484	-0.075569	0.000096
Br89	Br	1.519621	-0.874212	0.000102
Br90	Br	0.622220	-0.296230	0.000170
Br91	Br	0.586061	-0.012397	0.000077
H92	H	0.933310	0.031943	0.000045
Br93	Br	1.409337	-0.200130	0.867803
H94	H	0.852459	-0.301145	0.000139
Br95	Br	1.532173	-0.329636	0.000169
Br96	Br	0.953567	-0.615430	-0.000003
H97	H	1.475263	-0.441109	0.000120
Br98	Br	1.062680	-0.225695	0.000104
Br99	Br	1.622265	-0.763472	0.000108
Br100	Br	1.174331	-0.042386	0.271881
H101	H	1.462692	-0.985697	0.000074
H102	H	1.506374	-0.265297	0.696196
