data_functionalizedCrystal
_audit_creation_method	'MofGen! by Chris Wilmer'
_symmetry_space_group_name_H-M	'P1'
_symmetry_Int_Tables_number	1
_symmetry_cell_setting	triclinic
loop_
_symmetry_equiv_pos_as_xyz
  x,y,z
_cell_length_a	15.995292
_cell_length_b	15.995300
_cell_length_c	13.596369
_cell_angle_alpha	89.998558
_cell_angle_beta	89.993500
_cell_angle_gamma	83.470212
loop_
_atom_site_label
_atom_site_type_symbol
_atom_site_fract_x
_atom_site_fract_y
_atom_site_fract_z
O1	O	1.110997	0.107699	-0.081808
O2	O	1.444331	0.441032	0.251525
O3	O	1.777664	0.774365	0.584859
O4	O	0.867213	0.121077	-0.081803
O5	O	1.200546	0.454411	0.251530
O6	O	1.533880	0.787744	0.584864
O7	O	0.995791	-0.007504	-0.081810
O8	O	1.329124	0.325829	0.251523
O9	O	1.662458	0.659163	0.584856
O10	O	0.982419	0.236280	-0.081800
O11	O	1.315752	0.569613	0.251533
O12	O	1.649086	0.902947	0.584866
O13	O	0.995778	-0.007511	0.081772
O14	O	1.329112	0.325823	0.415106
O15	O	1.662445	0.659156	0.748439
O16	O	0.867200	0.121071	0.081780
O17	O	1.200533	0.454404	0.415113
O18	O	1.533867	0.787737	0.748447
O19	O	1.110984	0.107692	0.081775
O20	O	1.444318	0.441025	0.415108
O21	O	1.777651	0.774359	0.748442
Zn22	Zn	0.989090	0.114380	0.107750
Zn23	Zn	1.322424	0.447714	0.441083
Zn24	Zn	1.655757	0.781047	0.774416
Zn25	Zn	0.989107	0.114389	-0.107778
Zn26	Zn	1.322440	0.447722	0.225556
Zn27	Zn	1.655774	0.781056	0.558889
O28	O	0.982406	0.236273	0.081783
O29	O	1.315740	0.569607	0.415116
O30	O	1.649073	0.902940	0.748449
C31	C	0.836011	0.120530	-0.000011
C32	C	1.169344	0.453863	0.333322
C33	C	1.502678	0.787196	0.666656
C34	C	0.743058	0.118897	-0.000009
C35	C	1.076392	0.452230	0.333324
C36	C	1.409725	0.785564	0.666657
C37	C	0.995239	-0.038703	-0.000022
C38	C	1.328573	0.294631	0.333311
C39	C	1.661906	0.627964	0.666644
C40	C	0.993604	-0.131655	-0.000032
C41	C	1.326938	0.201678	0.333301
C42	C	1.660271	0.535012	0.666634
C43	C	0.990585	-0.301837	-0.000022
C44	C	1.323918	0.031496	0.333311
C45	C	1.657251	0.364829	0.666644
C46	C	1.082135	-0.349322	-0.000026
C47	C	1.415468	-0.015989	0.333307
C48	C	1.748802	0.317344	0.666640
C49	C	1.080465	-0.446010	0.000349
C50	C	1.413798	-0.112676	0.333682
C51	C	1.747131	0.220657	0.667015
C52	C	0.987613	-0.469393	-0.000014
C53	C	1.320946	-0.136060	0.333319
C54	C	1.654279	0.197273	0.666653
C55	C	0.942184	-0.428253	0.093216
C56	C	1.275517	-0.094920	0.426550
C57	C	1.608851	0.238413	0.759883
C58	C	0.944501	-0.331620	0.093291
C59	C	1.277834	0.001713	0.426624
C60	C	1.611167	0.335046	0.759957
C61	C	0.943160	-0.331337	-0.092740
C62	C	1.276493	0.001997	0.240593
C63	C	1.609826	0.335330	0.573926
C64	C	0.943168	-0.428281	-0.093962
C65	C	1.276502	-0.094948	0.239372
C66	C	1.609835	0.238386	0.572705
C67	C	0.985928	-0.564088	-0.000006
C68	C	1.319262	-0.230755	0.333327
C69	C	1.652595	0.102578	0.666661
C70	C	0.992266	-0.207142	-0.000024
C71	C	1.325600	0.126191	0.333309
C72	C	1.658933	0.459525	0.666643
C73	C	0.405321	0.112896	-0.000021
C74	C	0.738654	0.446229	0.333313
C75	C	1.071988	0.779562	0.666646
C76	C	0.428617	0.205702	-0.000382
C77	C	0.761950	0.539036	0.332951
C78	C	1.095283	0.872369	0.666284
C79	C	0.525292	0.207466	-0.000009
C80	C	0.858625	0.540799	0.333324
C81	C	1.191959	0.874133	0.666657
C82	C	0.572876	0.115874	-0.000016
C83	C	0.906210	0.449207	0.333318
C84	C	1.239543	0.782540	0.666651
C85	C	0.543776	0.069471	0.093393
C86	C	0.877109	0.402804	0.426726
C87	C	1.210442	0.736138	0.760060
C88	C	0.446985	0.068354	0.093467
C89	C	0.780319	0.401687	0.426800
C90	C	1.113652	0.735020	0.760134
C91	C	0.447145	0.066466	-0.092558
C92	C	0.780478	0.399800	0.240776
C93	C	1.113811	0.733133	0.574109
C94	C	0.543637	0.069905	-0.093788
C95	C	0.876970	0.403239	0.239546
C96	C	1.210303	0.736572	0.572879
C97	C	0.667572	0.117552	-0.000010
C98	C	1.000906	0.450885	0.333324
C99	C	1.334239	0.784218	0.666657
C100	C	0.310626	0.111215	-0.000020
C101	C	0.643959	0.444548	0.333313
C102	C	0.977292	0.777882	0.666646
C103	C	1.142186	0.108240	-0.000019
C104	C	1.475520	0.441573	0.333314
C105	C	1.808853	0.774906	0.666648
C106	C	1.235139	0.109872	-0.000027
C107	C	1.568472	0.443206	0.333306
C108	C	1.901806	0.776539	0.666640
C109	C	0.982958	0.267472	-0.000008
C110	C	1.316291	0.600805	0.333326
C111	C	1.649625	0.934139	0.666659
C112	C	0.984593	0.360424	-0.000004
C113	C	1.317927	0.693758	0.333329
C114	C	1.651260	1.027091	0.666662
N115	N	0.989085	0.114374	0.254842
N116	N	1.322418	0.447707	0.588175
N117	N	1.655752	0.781040	0.921508
N118	N	0.989119	0.114389	-0.254870
N119	N	1.322452	0.447722	0.078464
N120	N	1.655786	0.781056	0.411797
C121	C	0.989106	0.114390	0.656133
C122	C	1.322439	0.447723	0.989466
C123	C	1.655773	0.781057	1.322799
C124	C	0.989098	0.114388	0.544481
C125	C	1.322431	0.447722	0.877815
C126	C	1.655764	0.781055	1.211148
C127	C	0.989096	0.114382	0.455491
C128	C	1.322429	0.447716	0.788824
C129	C	1.655763	0.781049	1.122157
C130	C	0.989087	0.114379	0.343832
C131	C	1.322420	0.447713	0.677166
C132	C	1.655753	0.781046	1.010499
H133	H	1.116161	-0.474479	-0.066467
H134	H	1.449494	-0.141146	0.266867
H135	H	1.782828	0.192188	0.600200
H136	H	0.432447	0.000307	0.097706
H137	H	0.765780	0.333641	0.431039
H138	H	1.099114	0.666974	0.764372
H139	H	0.973347	-0.456615	0.162859
H140	H	1.306680	-0.123282	0.496192
H141	H	1.640013	0.210052	0.829525
Br142	Br	0.828468	-0.451724	0.098566
Br143	Br	1.161801	-0.118390	0.431900
Br144	Br	1.495134	0.214943	0.765233
H145	H	0.977229	-0.313310	0.163245
H146	H	1.310563	0.020024	0.496578
H147	H	1.643896	0.353357	0.829912
H148	H	0.877274	-0.299333	0.097271
H149	H	1.210607	0.034000	0.430604
H150	H	1.543941	0.367333	0.763938
H151	H	0.875657	-0.299552	-0.093628
H152	H	1.208991	0.033782	0.239706
H153	H	1.542324	0.367115	0.573039
Br154	Br	0.399941	0.114826	-0.210562
Br155	Br	0.733274	0.448160	0.122771
Br156	Br	1.066607	0.781493	0.456105
H157	H	0.576619	0.003053	-0.099434
H158	H	0.909953	0.336386	0.233899
H159	H	1.243286	0.669719	0.567232
H160	H	0.973305	-0.310839	-0.163427
H161	H	1.306638	0.022494	0.169907
H162	H	1.639971	0.355828	0.503240
H163	H	0.400619	0.241477	-0.067370
H164	H	0.733953	0.574810	0.265963
H165	H	1.067286	0.908143	0.599297
H166	H	0.543683	0.244020	0.067067
H167	H	0.877017	0.577354	0.400400
H168	H	1.210350	0.910687	0.733733
Br169	Br	0.998457	-0.473858	-0.208926
Br170	Br	1.331790	-0.140524	0.124407
Br171	Br	1.665123	0.192809	0.457740
H172	H	0.575656	0.002071	0.096862
H173	H	0.908989	0.335404	0.430195
H174	H	1.242322	0.668738	0.763528
H175	H	0.544317	0.243802	-0.066970
H176	H	0.877650	0.577135	0.266363
H177	H	1.210984	0.910469	0.599696
H178	H	0.562206	0.103692	-0.162891
H179	H	0.895539	0.437025	0.170442
H180	H	1.228872	0.770358	0.503776
Br181	Br	0.380229	0.264996	0.110641
Br182	Br	0.713562	0.598330	0.443974
Br183	Br	1.046895	0.931663	0.777307
H184	H	1.118927	-0.330849	-0.066882
H185	H	1.452260	0.002485	0.266452
H186	H	1.785593	0.335818	0.599785
H187	H	0.563823	0.101689	0.162912
H188	H	0.897157	0.435022	0.496245
H189	H	1.230490	0.768356	0.829579
Br190	Br	0.830374	-0.453922	-0.103884
Br191	Br	1.163707	-0.120589	0.229450
Br192	Br	1.497041	0.212744	0.562783
H193	H	0.420157	0.100485	0.163296
H194	H	0.753490	0.433818	0.496630
H195	H	1.086824	0.767151	0.829963
Br196	Br	0.423851	-0.047393	-0.093615
Br197	Br	0.757184	0.285941	0.239718
Br198	Br	1.090518	0.619274	0.573052
H199	H	1.118398	-0.329664	0.066679
H200	H	1.451732	0.003669	0.400012
H201	H	1.785065	0.337002	0.733346
H202	H	1.115996	-0.473867	0.067569
H203	H	1.449329	-0.140533	0.400902
H204	H	1.782662	0.192800	0.734236
