data_functionalizedCrystal
_audit_creation_method	'MofGen! by Chris Wilmer'
_symmetry_space_group_name_H-M	'P1'
_symmetry_Int_Tables_number	1
_symmetry_cell_setting	triclinic
loop_
_symmetry_equiv_pos_as_xyz
  x,y,z
_cell_length_a	29.839134
_cell_length_b	13.897448
_cell_length_c	29.839104
_cell_angle_alpha	90.126714
_cell_angle_beta	89.911109
_cell_angle_gamma	89.989562
loop_
_atom_site_label
_atom_site_type_symbol
_atom_site_fract_x
_atom_site_fract_y
_atom_site_fract_z
Zn1	Zn	0.687080	0.383255	-0.254168
Zn2	Zn	0.686959	0.544847	-0.179044
Zn3	Zn	0.611878	0.383548	-0.179034
Zn4	Zn	0.611942	0.544490	-0.254130
O5	O	0.649465	0.464035	-0.216594
O6	O	0.749931	0.404718	-0.244223
O7	O	0.676922	0.523723	-0.116175
O8	O	0.621878	0.248527	-0.189013
O9	O	0.749842	0.523439	-0.189029
O10	O	0.677129	0.248312	-0.244214
O11	O	0.621761	0.405217	-0.116168
O12	O	0.549020	0.404870	-0.188976
O13	O	0.621987	0.522829	-0.317002
O14	O	0.549066	0.523113	-0.244148
O15	O	0.677190	0.404371	-0.317031
O16	O	0.676983	0.679782	-0.188992
O17	O	0.621869	0.679519	-0.244157
C18	C	0.532742	0.463985	-0.216557
C19	C	0.482808	0.463987	-0.216552
C20	C	0.126184	0.402374	-0.187925
C21	C	0.313857	0.402347	-0.187897
O22	O	0.338090	0.349880	-0.163516
N23	N	0.337363	0.464002	-0.216574
C24	C	0.313947	0.525664	-0.245262
O25	O	0.338247	0.578098	-0.269656
C26	C	0.126275	0.525686	-0.245291
C27	C	0.102772	0.464033	-0.216609
C28	C	0.102681	0.340726	-0.159245
C29	C	0.055765	0.340737	-0.159251
C30	C	0.032353	0.402396	-0.187935
C31	C	0.055856	0.464044	-0.216615
C32	C	0.102861	0.587342	-0.273981
C33	C	0.055940	0.587340	-0.273987
C34	C	0.032436	0.525688	-0.245305
C35	C	-0.014471	0.525715	-0.245305
N36	N	-0.037977	0.464060	-0.216628
C37	C	-0.014565	0.402400	-0.187943
C38	C	0.412478	0.525650	-0.245244
C39	C	0.459396	0.525646	-0.245236
C40	C	0.459302	0.402327	-0.187872
C41	C	0.412383	0.402337	-0.187878
C42	C	0.388972	0.463995	-0.216567
C43	C	-0.113091	0.402429	-0.187956
C44	C	-0.160010	0.402448	-0.187963
C45	C	-0.159913	0.525763	-0.245329
C46	C	-0.112997	0.525748	-0.245321
C47	C	-0.089587	0.464073	-0.216633
O48	O	-0.038733	0.578146	-0.269677
O49	O	-0.038872	0.349959	-0.163560
C50	C	0.173099	0.402363	-0.187919
C51	C	0.196603	0.464011	-0.216599
C52	C	0.173191	0.525670	-0.245283
C53	C	0.243521	0.464007	-0.216591
C54	C	0.266933	0.402348	-0.187906
C55	C	0.243427	0.340693	-0.159229
C56	C	0.196512	0.340704	-0.159235
C57	C	0.196696	0.587325	-0.273960
C58	C	0.243612	0.587310	-0.273952
C59	C	0.267024	0.525651	-0.245267
C60	C	0.649432	0.714649	-0.216581
C61	C	0.649459	0.821863	-0.216591
C62	C	0.649609	0.463528	-0.333773
C63	C	0.649671	0.463311	-0.383708
C64	C	0.766643	0.464086	-0.216632
C65	C	0.816578	0.464108	-0.216648
C66	C	0.649510	0.212442	-0.216617
C67	C	0.649529	0.105228	-0.216627
C68	C	0.649506	1.018158	-0.216619
C69	C	0.649479	0.908926	-0.216604
C70	C	0.649347	0.464471	-0.099871
C71	C	0.649373	0.464415	-0.049937
C72	C	0.678468	0.525070	0.306668
C73	C	0.678381	0.525382	0.118995
O74	O	0.702983	0.577484	0.094746
N75	N	0.649443	0.464171	0.095508
C76	C	0.620526	0.402873	0.118942
O77	O	0.595914	0.350809	0.094659
C78	C	0.620616	0.402557	0.306614
C79	C	0.649553	0.463779	0.330099
C80	C	0.707403	0.586286	0.330153
C81	C	0.707423	0.586212	0.377068
C82	C	0.678508	0.524921	0.400499
C83	C	0.649573	0.463704	0.377014
C84	C	0.591702	0.341255	0.330047
C85	C	0.591728	0.341180	0.376968
C86	C	0.620665	0.402402	0.400453
C87	C	0.620677	0.402339	0.447360
N88	N	0.649616	0.463550	0.470847
C89	C	0.678531	0.524841	0.447417
C90	C	0.620480	0.403044	0.020412
C91	C	0.620457	0.403124	-0.026506
C92	C	0.678313	0.525632	-0.026450
C93	C	0.678333	0.525556	0.020469
C94	C	0.649419	0.464255	0.043899
C95	C	0.678570	0.524680	0.545942
C96	C	0.678586	0.524602	0.592862
C97	C	0.620732	0.402092	0.592801
C98	C	0.620714	0.402172	0.545886
C99	C	0.649637	0.463469	0.522457
O100	O	0.596092	0.350256	0.471638
O101	O	0.703147	0.576881	0.471708
C102	C	0.678448	0.525145	0.259753
C103	C	0.649513	0.463929	0.236268
C104	C	0.620598	0.402638	0.259699
C105	C	0.649490	0.464009	0.189350
C106	C	0.678405	0.525300	0.165920
C107	C	0.707344	0.586511	0.189407
C108	C	0.707363	0.586436	0.236322
C109	C	0.591660	0.341427	0.236211
C110	C	0.591642	0.341507	0.189296
C111	C	0.620557	0.402798	0.165865
H112	H	0.393250	0.352131	-0.164524
C113	C	0.739106	0.654028	0.163624
N114	N	0.763013	0.704911	0.144203
H115	H	0.478528	0.575860	-0.268587
H116	H	0.478372	0.352123	-0.164515
H117	H	0.702151	0.574458	0.611981
H118	H	-0.094036	0.352203	-0.164598
C119	C	0.710383	0.592115	0.520178
N120	N	0.734343	0.642914	0.500772
H121	H	0.393421	0.575863	-0.268607
C122	C	-0.185675	0.593582	-0.276881
N123	N	-0.205080	0.644659	-0.300650
H124	H	0.730928	0.636287	0.255439
H125	H	0.121989	0.637546	-0.297337
C126	C	0.030190	0.655174	-0.305546
N127	N	0.010796	0.706270	-0.329315
H128	H	0.121738	0.290510	-0.135887
C129	C	0.710172	0.592891	0.046298
N130	N	0.734156	0.643606	0.065750
H131	H	0.730985	0.636068	0.396185
C132	C	0.559917	0.273745	0.402738
N133	N	0.535956	0.222957	0.422147
H134	H	0.701858	0.575534	-0.045535
C135	C	0.588622	0.335781	-0.052334
N136	N	0.564645	0.285050	-0.071786
C137	C	0.739213	0.653722	0.304386
N138	N	0.763171	0.704525	0.284982
C139	C	0.559874	0.273894	0.304224
N140	N	0.535901	0.223148	0.284775
H141	H	-0.093860	0.575957	-0.268672
C142	C	0.269460	0.655140	-0.305506
N143	N	0.288927	0.706222	-0.329274
H144	H	0.177639	0.637536	-0.297320
H145	H	0.596933	0.353124	0.039484
C146	C	0.559808	0.274151	0.163468
N147	N	0.535835	0.223411	0.144016
H148	H	0.568114	0.291514	0.255284
C149	C	0.170664	0.272873	-0.127686
N150	N	0.151199	0.221776	-0.103923
C151	C	0.588879	0.334833	0.520052
N152	N	0.564903	0.284106	0.500597
C153	C	-0.185861	0.334618	-0.156412
N154	N	-0.205330	0.283527	-0.132649
H155	H	0.036633	0.290534	-0.135895
H156	H	0.597189	0.352193	0.611887
H157	H	0.262497	0.290491	-0.135872
