data_functionalizedCrystal
_audit_creation_method	'MofGen! by Chris Wilmer'
_symmetry_space_group_name_H-M	'P1'
_symmetry_Int_Tables_number	1
_symmetry_cell_setting	triclinic
loop_
_symmetry_equiv_pos_as_xyz
  x,y,z
_cell_length_a	10.723023
_cell_length_b	10.967829
_cell_length_c	9.798715
_cell_angle_alpha	77.868973
_cell_angle_beta	89.996449
_cell_angle_gamma	84.591547
loop_
_atom_site_label
_atom_site_type_symbol
_atom_site_fract_x
_atom_site_fract_y
_atom_site_fract_z
O1	O	1.657190	0.175021	-0.154646
O2	O	1.294038	0.191776	-0.158589
O3	O	1.483988	0.001821	-0.113908
O4	O	1.467239	0.364977	-0.199327
O5	O	1.483974	0.001820	0.113074
O6	O	1.294024	0.191775	0.068393
O7	O	1.657176	0.175021	0.072337
Zn8	Zn	1.475597	0.183398	0.106403
Zn9	Zn	1.475616	0.183399	-0.192656
O10	O	1.467225	0.364976	0.027656
C11	C	1.247531	0.190557	-0.044812
C12	C	1.108977	0.186909	-0.043955
C13	C	1.482761	-0.044680	0.010517
C14	C	1.479112	-0.183235	0.043099
C15	C	0.904001	0.181513	0.074892
C16	C	1.047204	0.185283	0.074010
C17	C	1.477493	-0.245001	-0.059961
C18	C	1.473721	-0.388205	-0.026289
C19	C	1.703683	0.176240	-0.041444
C20	C	1.842237	0.179888	-0.042309
C21	C	1.468452	0.411476	-0.096773
C22	C	1.472101	0.550032	-0.129363
N23	N	1.475594	0.183397	0.310503
N24	N	1.475630	0.183390	-0.396753
C25	C	1.555349	0.103289	0.397123
C26	C	1.555369	0.103284	0.554287
H27	H	0.850862	0.180121	0.175885
H28	H	1.623655	0.034705	0.628703
Cl29	Cl	0.924267	0.182057	-0.198247
H30	H	1.473492	-0.396835	-0.242533
H31	H	1.055869	0.185508	-0.144299
Cl32	Cl	1.476932	-0.265264	0.217816
Cl33	Cl	1.370206	0.289294	0.488363
Cl34	Cl	1.660468	-0.002882	0.332058
H35	H	1.407322	0.251973	0.352697
H36	H	1.472307	-0.441338	0.086879
Cl37	Cl	1.129205	0.187432	0.228937
H38	H	1.478893	-0.191862	-0.173122
