data_functionalizedCrystal
_audit_creation_method	'MofGen! by Chris Wilmer'
_symmetry_space_group_name_H-M	'P1'
_symmetry_Int_Tables_number	1
_symmetry_cell_setting	triclinic
loop_
_symmetry_equiv_pos_as_xyz
  x,y,z
_cell_length_a	23.532355
_cell_length_b	22.010155
_cell_length_c	19.188930
_cell_angle_alpha	89.990358
_cell_angle_beta	97.013860
_cell_angle_gamma	90.009876
loop_
_atom_site_label
_atom_site_type_symbol
_atom_site_fract_x
_atom_site_fract_y
_atom_site_fract_z
O1	O	0.755468	0.050449	-0.084582
O2	O	0.589626	0.050470	-0.096884
O3	O	0.677333	0.050447	0.010939
O4	O	0.667761	0.050472	-0.192405
O5	O	0.677306	-0.050603	0.010939
O6	O	0.589600	-0.050581	-0.096884
O7	O	0.755441	-0.050601	-0.084582
Cu8	Cu	0.672518	-0.059818	-0.090733
Cu9	Cu	0.672549	0.059686	-0.090733
O10	O	0.667735	-0.050579	-0.192405
C11	C	0.568396	-0.000053	-0.096576
C12	C	0.505175	-0.000046	-0.095652
N13	N	0.672500	-0.143870	-0.090733
C14	C	0.113135	-0.055155	-0.089843
C15	C	0.053733	-0.055157	-0.088963
O16	O	0.023002	-0.102002	-0.088485
N17	N	0.024038	-0.000075	-0.088527
C18	C	0.053748	0.055013	-0.088964
O19	O	0.023036	0.101865	-0.088511
C20	C	0.113149	0.055015	-0.089838
C21	C	0.142840	-0.000071	-0.090281
C22	C	0.142826	-0.110236	-0.090285
C23	C	0.202223	-0.110233	-0.091166
C24	C	0.231929	-0.055149	-0.091605
C25	C	0.202237	-0.000068	-0.091162
C26	C	0.142859	0.110103	-0.090270
C27	C	0.202264	0.110100	-0.091144
C28	C	0.231955	0.055014	-0.091587
C29	C	0.291340	0.055019	-0.092481
N30	N	0.321035	-0.000063	-0.092918
C31	C	0.291330	-0.055148	-0.092479
C32	C	-0.070997	0.055005	-0.087126
C33	C	-0.130397	0.055004	-0.086256
C34	C	-0.130408	-0.055167	-0.086255
C35	C	-0.071007	-0.055165	-0.087129
C36	C	-0.041302	-0.000077	-0.087562
C37	C	0.416068	-0.055138	-0.094330
C38	C	0.475470	-0.055130	-0.095213
C39	C	0.475476	0.055040	-0.095211
C40	C	0.416078	0.055033	-0.094331
C41	C	0.386376	-0.000061	-0.093888
O42	O	0.322110	0.101840	-0.092958
O43	O	0.322050	-0.101991	-0.092922
C44	C	0.706985	-0.563649	-0.132850
C45	C	0.706992	-0.627256	-0.132848
O46	O	0.736292	-0.660147	-0.168653
N47	N	0.672561	-0.659077	-0.090725
C48	C	0.638125	-0.627287	-0.048596
O49	O	0.608839	-0.660194	-0.012766
C50	C	0.638121	-0.563681	-0.048594
C51	C	0.672551	-0.531863	-0.090725
C52	C	0.741412	-0.531831	-0.174977
C53	C	0.741405	-0.468228	-0.174979
C54	C	0.706970	-0.436442	-0.132855
C55	C	0.672543	-0.468260	-0.090728
C56	C	0.603689	-0.531892	-0.006462
C57	C	0.603689	-0.468282	-0.006463
C58	C	0.638118	-0.436464	-0.048594
C59	C	0.638101	-0.372871	-0.048606
N60	N	0.672532	-0.341050	-0.090729
C61	C	0.706967	-0.372836	-0.132853
C62	C	0.638135	-0.760865	-0.048601
C63	C	0.638134	-0.824470	-0.048606
C64	C	0.707003	-0.824435	-0.132857
C65	C	0.707000	-0.760828	-0.132856
C66	C	0.672566	-0.729044	-0.090724
C67	C	0.706948	-0.239264	-0.132856
C68	C	0.706935	-0.175656	-0.132857
C69	C	0.638069	-0.175697	-0.048603
C70	C	0.638079	-0.239300	-0.048605
C71	C	0.672523	-0.271082	-0.090733
O72	O	0.608818	-0.339940	-0.012817
O73	O	0.736253	-0.339921	-0.168670
C74	C	0.776672	-0.000077	-0.084890
C75	C	0.839892	-0.000080	-0.085814
C76	C	0.677010	-0.000080	0.036949
C77	C	0.676079	-0.000085	0.114450
N78	N	0.672572	0.143739	-0.090728
C79	C	0.668058	-0.000050	-0.218415
C80	C	0.668988	-0.000041	-0.295916
C81	C	0.727543	-0.000094	0.159550
C82	C	0.726668	-0.000084	0.232371
C83	C	0.674328	-0.000078	0.260089
C84	C	0.622858	-0.000065	0.214979
C85	C	0.623733	-0.000069	0.142160
N86	N	0.634311	-0.034462	0.367957
N87	N	0.633483	-0.034460	0.437133
C88	C	0.671687	-0.000065	0.479488
N89	N	0.710759	0.034320	0.450056
N90	N	0.711589	0.034315	0.380874
C91	C	0.673373	-0.000073	0.339048
C92	C	0.722206	-0.000063	0.603549
C93	C	0.721329	-0.000049	0.676371
C94	C	0.617517	-0.000036	0.658977
C95	C	0.618395	-0.000043	0.586157
C96	C	0.670741	-0.000060	0.558448
H97	H	0.391890	-0.100000	-0.093975
H98	H	0.499641	-0.099990	-0.095577
O99	O	0.740419	-0.270038	-0.173846
C100	C	0.808746	-0.263272	-0.257386
C101	C	0.770861	-0.228347	-0.211008
H102	H	0.833377	-0.229580	-0.287432
H103	H	0.780668	-0.293037	-0.296176
H104	H	0.840270	-0.293063	-0.222839
H105	H	0.739332	-0.198523	-0.245499
H106	H	0.798974	-0.198621	-0.172213
H107	H	0.735041	-0.850326	-0.167158
O108	O	0.231075	-0.163728	-0.091710
C109	C	0.291550	-0.227657	-0.153159
C110	C	0.258894	-0.167057	-0.152644
H111	H	0.314059	-0.230363	-0.202411
H112	H	0.260129	-0.267048	-0.152736
H113	H	0.324671	-0.230406	-0.104674
H114	H	0.225772	-0.164248	-0.201120
H115	H	0.290349	-0.127695	-0.153031
O116	O	-0.159279	-0.108663	-0.085694
C117	C	-0.219772	-0.172581	-0.024211
C118	C	-0.187090	-0.111986	-0.024752
H119	H	-0.242275	-0.175283	0.025048
H120	H	-0.188369	-0.211977	-0.024627
H121	H	-0.252900	-0.175326	-0.072689
H122	H	-0.153962	-0.109183	0.023717
H123	H	-0.218528	-0.072619	-0.024373
O124	O	0.113965	-0.163735	-0.089734
C125	C	0.053485	-0.227689	-0.028276
C126	C	0.086148	-0.167081	-0.028799
H127	H	0.030977	-0.230409	0.020978
H128	H	0.084900	-0.267073	-0.028695
H129	H	0.020362	-0.230436	-0.076759
H130	H	0.119271	-0.164275	0.019676
H131	H	0.054698	-0.127726	-0.028416
H132	H	0.226447	0.154960	-0.091496
O133	O	0.568365	0.000039	0.542414
C134	C	0.479935	0.052417	0.505229
C135	C	0.536570	0.052390	0.554818
H136	H	0.454218	0.094745	0.515229
H137	H	0.454118	0.010160	0.515276
H138	H	0.489564	0.052383	0.448428
H139	H	0.526993	0.052445	0.611636
H140	H	0.562371	0.094643	0.544710
H141	H	0.769456	-0.557704	-0.209280
H142	H	0.610032	-0.149806	-0.014308
H143	H	-0.046837	-0.100021	-0.087491
H144	H	0.763239	-0.000053	0.713092
O145	O	0.776699	-0.000015	0.276122
C146	C	0.865159	0.052331	0.313298
C147	C	0.808529	0.052322	0.263702
H148	H	0.890904	0.094648	0.303285
H149	H	0.890952	0.010063	0.303272
H150	H	0.855525	0.052305	0.370097
H151	H	0.818111	0.052369	0.206886
H152	H	0.782753	0.094586	0.273790
H153	H	0.118694	0.154960	-0.089908
O154	O	-0.159145	0.108569	-0.085805
C155	C	-0.152853	0.217843	-0.085943
C156	C	-0.120228	0.157223	-0.086443
H157	H	-0.121404	0.257195	-0.086474
H158	H	-0.175306	0.220636	-0.036650
H159	H	-0.186016	0.220571	-0.134388
H160	H	-0.087038	0.154453	-0.038031
H161	H	-0.097814	0.154455	-0.135767
H162	H	0.581824	-0.000061	0.105438
O163	O	0.774883	-0.437255	-0.215802
C164	C	0.851791	-0.365454	-0.219343
C165	C	0.813905	-0.400478	-0.173029
H166	H	0.883357	-0.335721	-0.184778
H167	H	0.823715	-0.335637	-0.258075
H168	H	0.876375	-0.399115	-0.249465
H169	H	0.789315	-0.366860	-0.142861
H170	H	0.842011	-0.430304	-0.134340
H171	H	0.735035	-0.734927	-0.167163
H172	H	0.770166	-0.000106	0.136994
O173	O	0.566723	-0.000053	0.686009
C174	C	0.519365	0.000005	0.790483
C175	C	0.576931	0.000006	0.759959
H176	H	0.527599	0.000065	0.850274
H177	H	0.493920	-0.042291	0.771940
H178	H	0.493956	0.042288	0.771823
H179	H	0.602387	-0.042249	0.778605
H180	H	0.602333	0.042329	0.778498
O181	O	0.572000	0.000049	0.241867
C182	C	0.483008	0.052398	0.249241
C183	C	0.540591	0.052347	0.218758
H184	H	0.457592	0.094670	0.230558
H185	H	0.491188	0.052436	0.309037
H186	H	0.457595	0.010093	0.230656
H187	H	0.566033	0.094645	0.237290
H188	H	0.532370	0.052277	0.158965
O189	O	-0.042092	0.108483	-0.087652
C190	C	0.018334	0.172454	-0.149167
C191	C	-0.014359	0.111865	-0.148651
H192	H	0.040755	0.175214	-0.198487
H193	H	0.051517	0.175220	-0.100743
H194	H	-0.013105	0.211808	-0.148672
H195	H	0.017036	0.072477	-0.149170
H196	H	-0.047550	0.109152	-0.197071
H197	H	0.764829	-0.000073	0.580987
H198	H	0.391901	0.099889	-0.093982
H199	H	0.610092	-0.850371	-0.014307
O200	O	0.504300	0.108561	-0.095762
C201	C	0.515872	0.202747	-0.156500
C202	C	0.483190	0.142152	-0.155975
H203	H	0.498809	0.229928	-0.205169
H204	H	0.563428	0.193314	-0.157248
H205	H	0.509549	0.229879	-0.107434
H206	H	0.489466	0.114990	-0.205032
H207	H	0.435646	0.151627	-0.155191
O208	O	0.604624	-0.730086	-0.007661
C209	C	0.536339	-0.736848	0.075931
C210	C	0.574251	-0.771776	0.029588
H211	H	0.511782	-0.770539	0.106070
H212	H	0.504758	-0.707090	0.041420
H213	H	0.564447	-0.707051	0.114650
H214	H	0.546189	-0.801606	-0.009138
H215	H	0.605836	-0.801496	0.064143
H216	H	0.575649	-0.442406	0.027847
H217	H	0.734971	-0.149752	-0.167168
O218	O	0.570233	-0.562698	0.034533
C219	C	0.501912	-0.556001	0.118082
C220	C	0.539784	-0.521038	0.071698
H221	H	0.477275	-0.522334	0.148131
H222	H	0.529999	-0.585759	0.156871
H223	H	0.470393	-0.585802	0.083540
H224	H	0.571308	-0.491204	0.106184
H225	H	0.511661	-0.491319	0.032904
H226	H	0.610037	-0.265207	-0.014307
