data_functionalizedCrystal
_audit_creation_method	'MofGen! by Chris Wilmer'
_symmetry_space_group_name_H-M	'P1'
_symmetry_Int_Tables_number	1
_symmetry_cell_setting	triclinic
loop_
_symmetry_equiv_pos_as_xyz
  x,y,z
_cell_length_a	10.065875
_cell_length_b	11.026623
_cell_length_c	10.908937
_cell_angle_alpha	95.663670
_cell_angle_beta	96.607309
_cell_angle_gamma	100.697799
loop_
_atom_site_label
_atom_site_type_symbol
_atom_site_fract_x
_atom_site_fract_y
_atom_site_fract_z
O1	O	-0.113492	-1.527088	0.499654
O2	O	-0.113494	-1.185589	0.441150
O3	O	-0.113489	-1.401606	0.293937
O4	O	-0.113498	-1.311071	0.646867
O5	O	0.113499	-1.360385	0.322152
O6	O	0.113494	-1.144368	0.469366
O7	O	0.113495	-1.485868	0.527870
Zn8	Zn	0.149534	-1.308573	0.503098
Zn9	Zn	-0.149532	-1.362883	0.465922
O10	O	0.113490	-1.269851	0.675083
C11	C	-0.000000	-1.121946	0.444465
C12	C	-0.000001	-0.993724	0.412292
N13	N	0.353638	-1.271517	0.528470
C14	C	-0.000004	-0.901993	0.501125
C15	C	-0.000005	-0.769469	0.467874
N16	N	-0.353637	-1.399951	0.440542
C17	C	0.421419	-1.349984	0.474741
C18	C	0.578586	-1.321472	0.494280
C19	C	0.000003	-1.389457	0.262159
C20	C	-0.000002	-1.414655	0.125432
C21	C	-0.000001	-0.549512	0.524553
C22	C	-0.000008	-0.677736	0.556721
C23	C	-0.000007	-1.348746	-0.086147
C24	C	-0.000004	-1.322700	0.055167
C25	C	-0.000005	-1.282000	0.706860
C26	C	-0.000009	-1.256804	0.843587
H27	H	0.000001	-0.921568	0.601796
C28	C	0.116677	-1.043242	-0.118800
C29	C	-0.000008	-1.124506	-0.096404
H30	H	0.116678	-0.961568	-0.081748
H31	H	0.116663	-1.043390	-0.205884
H32	H	0.195825	-1.069648	-0.083936
H33	H	-0.079156	-1.098105	-0.131276
H34	H	-0.000006	-1.124354	-0.009303
C35	C	-0.116692	-0.921420	0.237961
C36	C	-0.000004	-0.967316	0.276384
H37	H	-0.116695	-0.905128	0.154052
H38	H	-0.116680	-0.846701	0.289379
H39	H	-0.195837	-0.981317	0.244374
H40	H	0.079142	-0.907414	0.269979
H41	H	-0.000003	-1.042044	0.224951
C42	C	0.377060	-1.468442	0.272401
C43	C	0.342659	-1.469174	0.393134
H44	H	0.328421	-1.542024	0.222027
H45	H	0.472332	-1.464951	0.274805
H46	H	0.353734	-1.397862	0.238484
H47	H	0.365994	-1.539749	0.427054
H48	H	0.247365	-1.472677	0.390734
C49	C	-0.000058	-0.830319	0.699266
C50	C	-0.000044	-0.704145	0.692630
H51	H	-0.000097	-0.846623	0.783167
H52	H	0.079105	-0.850579	0.669437
H53	H	-0.079207	-0.879322	0.649706
H54	H	0.079111	-0.655142	0.742183
H55	H	-0.079214	-0.683872	0.722474
C56	C	0.397910	-1.153091	0.730813
C57	C	0.432356	-1.152324	0.610096
H58	H	0.446499	-1.079499	0.781201
H59	H	0.421253	-1.223652	0.764728
H60	H	0.302615	-1.156620	0.728375
H61	H	0.527649	-1.148804	0.612533
H62	H	0.409021	-1.081743	0.576173
C63	C	-0.116695	-0.697171	0.293537
C64	C	-0.000007	-0.743067	0.331960
H65	H	-0.116699	-0.680879	0.209628
H66	H	-0.116684	-0.622453	0.344955
H67	H	-0.195841	-0.757069	0.299950
H68	H	0.079139	-0.683165	0.325555
H69	H	-0.000007	-0.817795	0.280527
C70	C	-0.000014	-1.481238	-0.274532
C71	C	-0.000010	-1.481044	-0.146155
H72	H	-0.000024	-1.562918	-0.311574
H73	H	0.079137	-1.426105	-0.289708
H74	H	-0.079175	-1.454840	-0.309379
H75	H	0.079157	-1.507433	-0.111306
H76	H	-0.079169	-1.536195	-0.130970
C77	C	0.622896	-1.098263	0.525882
C78	C	0.657306	-1.202274	0.575907
H79	H	0.671503	-1.024678	0.576271
H80	H	0.527617	-1.101791	0.523472
H81	H	0.646254	-1.097771	0.443981
H82	H	0.633938	-1.202771	0.657805
H83	H	0.752606	-1.198745	0.578331
H84	H	0.000006	-1.224695	0.099625
C85	C	0.602461	-1.518176	0.238157
C86	C	0.567815	-1.519140	0.358794
H87	H	0.554012	-1.591752	0.187657
H88	H	0.697774	-1.514530	0.240710
H89	H	0.579071	-1.447599	0.204281
H90	H	0.591215	-1.589712	0.392674
H91	H	0.472482	-1.522797	0.356245
C92	C	0.116686	-1.585844	0.116825
C93	C	-0.000001	-1.546959	0.065428
H94	H	0.116687	-1.667518	0.079773
H95	H	0.116675	-1.585701	0.203906
H96	H	0.195832	-1.530692	0.101632
H97	H	-0.079148	-1.602105	0.080629
H98	H	-0.000003	-1.547111	-0.021674
