data_functionalizedCrystal
_audit_creation_method	'MofGen! by Chris Wilmer'
_symmetry_space_group_name_H-M	'P1'
_symmetry_Int_Tables_number	1
_symmetry_cell_setting	triclinic
loop_
_symmetry_equiv_pos_as_xyz
  x,y,z
_cell_length_a	16.120490
_cell_length_b	16.120484
_cell_length_c	16.959447
_cell_angle_alpha	87.133462
_cell_angle_beta	92.911175
_cell_angle_gamma	90.164100
loop_
_atom_site_label
_atom_site_type_symbol
_atom_site_fract_x
_atom_site_fract_y
_atom_site_fract_z
Zn1	Zn	1.254434	-0.395652	0.526139
Zn2	Zn	1.247287	-0.534717	0.400296
Zn3	Zn	1.115384	-0.388618	0.386963
Zn4	Zn	1.108286	-0.527597	0.525419
O5	O	1.181348	-0.461646	0.459704
O6	O	1.369851	-0.420023	0.515327
O7	O	1.229770	-0.515372	0.287917
O8	O	1.139791	-0.273188	0.400146
O9	O	1.364601	-0.522193	0.422871
O10	O	1.241951	-0.278356	0.502398
O11	O	1.132861	-0.408034	0.278121
O12	O	0.998078	-0.401130	0.399448
O13	O	1.127694	-0.510058	0.636125
O14	O	0.992863	-0.503237	0.501171
O15	O	1.235068	-0.413118	0.636654
O16	O	1.222887	-0.650135	0.422172
O17	O	1.120763	-0.644904	0.514100
C18	C	0.965298	-0.450648	0.448785
C19	C	0.872870	-0.445963	0.444133
C20	C	0.659897	-0.485940	0.483834
C21	C	0.703647	-0.437418	0.435639
C22	C	0.797811	-0.442174	0.440367
C23	C	0.565724	-0.481185	0.479108
C24	C	1.170302	-0.677692	0.469523
C25	C	1.165652	-0.770121	0.473754
C26	C	1.157168	-0.939352	0.481495
C27	C	1.205677	-0.983107	0.437934
C28	C	1.200956	-1.077272	0.442241
C29	C	1.161888	-0.845178	0.477189
C30	C	1.398242	-0.472687	0.470667
C31	C	1.490669	-0.477392	0.475338
C32	C	1.181386	-0.461579	0.665871
C33	C	1.181402	-0.461550	0.753727
C34	C	1.192460	-0.244757	0.449865
C35	C	1.197195	-0.152332	0.445672
C36	C	1.181361	-0.461655	0.254339
C37	C	1.181518	-0.461457	0.166481
C38	C	1.125601	-0.511939	1.124931
C39	C	1.237411	-0.410996	1.125477
C40	C	1.237388	-0.411012	1.042931
C41	C	1.181472	-0.461494	1.001381
C42	C	1.125578	-0.511959	1.042377
C43	C	1.293286	-0.360554	1.001929
C44	C	1.293266	-0.360569	0.919377
C45	C	1.237345	-0.411047	0.877826
C46	C	1.181449	-0.461514	0.918827
C47	C	1.125532	-0.511996	0.877277
C48	C	1.069631	-0.562458	0.918277
C49	C	1.069657	-0.562437	1.000825
C50	C	1.237319	-0.411068	0.795277
C51	C	1.125509	-0.512015	0.794723
H52	H	1.250751	-0.949846	0.397404
H53	H	0.670383	-0.392305	0.390828
H54	H	0.693159	-0.531050	0.528642
H55	H	1.112097	-0.972610	0.522020
H56	H	1.079967	-0.553117	0.760898
H57	H	1.338815	-0.319460	1.035765
H58	H	1.338783	-0.319478	0.886003
H59	H	1.024108	-0.603565	0.884436
H60	H	1.024148	-0.603524	1.034215
H61	H	1.282835	-0.369985	0.761899
H62	H	1.080086	-0.553022	1.158316
H63	H	1.282940	-0.369900	1.159312
