data_functionalizedCrystal
_audit_creation_method	'MofGen! by Chris Wilmer'
_symmetry_space_group_name_H-M	'P1'
_symmetry_Int_Tables_number	1
_symmetry_cell_setting	triclinic
loop_
_symmetry_equiv_pos_as_xyz
  x,y,z
_cell_length_a	11.792254
_cell_length_b	11.792241
_cell_length_c	10.268362
_cell_angle_alpha	89.998512
_cell_angle_beta	89.995423
_cell_angle_gamma	84.196007
loop_
_atom_site_label
_atom_site_type_symbol
_atom_site_fract_x
_atom_site_fract_y
_atom_site_fract_z
O1	O	1.506901	0.155631	-0.108300
O2	O	1.840234	0.488964	0.225034
O3	O	2.173568	0.822297	0.558367
O4	O	1.176562	0.171649	-0.108303
O5	O	1.509895	0.504982	0.225031
O6	O	1.843228	0.838315	0.558364
O7	O	1.349748	-0.001531	-0.108292
O8	O	1.683081	0.331803	0.225041
O9	O	2.016414	0.665136	0.558375
O10	O	1.333715	0.328810	-0.108310
O11	O	1.667048	0.662143	0.225023
O12	O	2.000382	0.995476	0.558356
O13	O	1.349731	-0.001525	0.108309
O14	O	1.683064	0.331809	0.441642
O15	O	2.016398	0.665142	0.774975
O16	O	1.176545	0.171654	0.108298
O17	O	1.509878	0.504988	0.441631
O18	O	1.843212	0.838321	0.774965
O19	O	1.506884	0.155637	0.108301
O20	O	1.840218	0.488970	0.441634
O21	O	2.173551	0.822303	0.774968
Cu22	Cu	1.341713	0.163646	0.128077
Cu23	Cu	1.675047	0.496979	0.461410
Cu24	Cu	2.008380	0.830313	0.794744
Cu25	Cu	1.341733	0.163639	-0.128079
Cu26	Cu	1.675066	0.496972	0.205255
Cu27	Cu	2.008400	0.830306	0.538588
O28	O	1.333698	0.328816	0.108290
O29	O	1.667032	0.662149	0.441624
O30	O	2.000365	0.995482	0.774957
C31	C	1.134263	0.170642	-0.000003
C32	C	1.467596	0.503976	0.333331
C33	C	1.800929	0.837309	0.666664
C34	C	1.008250	0.167622	-0.000003
C35	C	1.341583	0.500956	0.333330
C36	C	1.674916	0.834289	0.666663
C37	C	0.905913	0.165168	-0.000009
C38	C	1.239247	0.498502	0.333324
C39	C	1.572580	0.831835	0.666658
C40	C	0.777527	0.162100	-0.000010
C41	C	1.110860	0.495433	0.333324
C42	C	1.444193	0.828767	0.666657
C43	C	1.348732	-0.043819	0.000008
C44	C	1.682066	0.289515	0.333341
C45	C	2.015399	0.622848	0.666675
C46	C	1.345718	-0.169832	0.000007
C47	C	1.679051	0.163501	0.333340
C48	C	2.012385	0.496834	0.666673
C49	C	1.340175	-0.400545	-0.000015
C50	C	1.673508	-0.067212	0.333318
C51	C	2.006842	0.266122	0.666652
C52	C	1.343255	-0.272160	-0.000003
C53	C	1.676588	0.061174	0.333330
C54	C	2.009921	0.394507	0.666663
C55	C	1.549183	0.156643	-0.000002
C56	C	1.882517	0.489976	0.333331
C57	C	2.215850	0.823309	0.666665
C58	C	1.675196	0.159663	-0.000010
C59	C	2.008530	0.492996	0.333324
C60	C	2.341863	0.826329	0.666657
C61	C	1.334714	0.371104	-0.000012
C62	C	1.668047	0.704437	0.333321
C63	C	2.001380	1.037770	0.666654
C64	C	1.337728	0.497118	-0.000020
C65	C	1.671061	0.830451	0.333314
C66	C	2.004395	1.163784	0.666647
N67	N	1.341708	0.163650	0.308243
N68	N	1.675041	0.496984	0.641576
N69	N	2.008374	0.830317	0.974909
N70	N	1.341747	0.163626	-0.308244
N71	N	1.675081	0.496959	0.025089
N72	N	2.008414	0.830293	0.358422
C73	C	1.341716	0.163651	0.426085
C74	C	1.675049	0.496984	0.759418
C75	C	2.008383	0.830318	1.092752
C76	C	1.341730	0.163641	0.573923
C77	C	1.675063	0.496974	0.907256
C78	C	2.008397	0.830307	1.240590
