data_functionalizedCrystal
_audit_creation_method	'MofGen! by Chris Wilmer'
_symmetry_space_group_name_H-M	'P1'
_symmetry_Int_Tables_number	1
_symmetry_cell_setting	triclinic
loop_
_symmetry_equiv_pos_as_xyz
  x,y,z
_cell_length_a	21.295418
_cell_length_b	12.827893
_cell_length_c	12.827879
_cell_angle_alpha	89.942478
_cell_angle_beta	89.937048
_cell_angle_gamma	90.019326
loop_
_atom_site_label
_atom_site_type_symbol
_atom_site_fract_x
_atom_site_fract_y
_atom_site_fract_z
Zn1	Zn	0.962593	-0.415206	-0.591475
Zn2	Zn	0.962510	-0.590082	-0.416749
Zn3	Zn	0.857281	-0.415404	-0.416683
Zn4	Zn	0.857336	-0.589954	-0.591385
O5	O	0.909930	-0.502661	-0.504073
O6	O	1.050672	-0.438374	-0.568362
O7	O	0.948494	-0.567047	-0.270504
O8	O	0.871263	-0.269142	-0.439880
O9	O	1.050611	-0.566855	-0.439992
O10	O	0.948636	-0.268996	-0.568298
O11	O	0.871182	-0.438712	-0.270456
O12	O	0.769199	-0.438588	-0.439793
O13	O	0.871356	-0.566636	-0.737633
O14	O	0.769239	-0.566829	-0.568145
O15	O	0.948688	-0.438250	-0.737699
O16	O	0.948546	-0.736301	-0.439905
O17	O	0.871275	-0.736207	-0.568209
C18	C	0.746378	-0.502717	-0.503953
C19	C	0.676410	-0.502765	-0.503926
C20	C	0.909925	-0.774171	-0.504077
C21	C	0.909980	-0.890324	-0.504114
C22	C	0.910037	-0.502407	-0.776644
C23	C	0.910083	-0.502298	-0.892797
C24	C	0.643581	-0.569629	-0.570659
C25	C	0.577838	-0.569603	-0.570706
C26	C	0.544928	-0.502725	-0.504001
C27	C	0.577765	-0.435848	-0.437263
C28	C	0.643506	-0.435868	-0.437226
N29	N	0.441631	-0.494623	-0.412599
N30	N	0.379180	-0.494610	-0.412637
C31	C	0.346853	-0.502658	-0.504112
N32	N	0.379337	-0.510740	-0.595548
N33	N	0.441795	-0.510758	-0.595509
C34	C	0.473642	-0.502695	-0.504035
C35	C	0.242738	-0.569497	-0.570902
C36	C	0.176995	-0.569464	-0.570950
C37	C	0.176923	-0.435714	-0.437498
C38	C	0.242665	-0.435742	-0.437459
C39	C	0.275569	-0.502639	-0.504159
C40	C	1.074120	-0.502607	-0.504194
C41	C	1.144089	-0.502584	-0.504246
C42	C	0.909953	-0.230091	-0.504092
C43	C	0.909962	-0.113938	-0.504100
C44	C	0.871684	-0.062226	-0.440565
C45	C	0.871693	0.057825	-0.440571
C46	C	0.909859	-0.502840	-0.232563
C47	C	0.909936	-0.502654	-0.116410
C48	C	0.871520	-0.439346	0.055394
C49	C	0.871441	-0.439537	-0.064656
H50	H	0.670367	-0.624100	-0.624973
H51	H	0.670236	-0.381417	-0.382883
F52	F	0.542892	-0.640771	-0.641736
H53	H	0.550965	-0.381393	-0.382954
F54	F	0.952804	-0.055643	-0.575212
H55	H	0.838562	-0.385314	0.099915
F56	F	0.828289	-0.369084	-0.122887
F57	F	0.953158	-0.572936	0.049016
F58	F	0.277759	-0.640689	-0.641894
F59	F	0.142055	-0.640628	-0.641987
H60	H	0.150127	-0.381256	-0.383191
F61	F	0.277606	-0.364578	-0.366429
H62	H	0.838904	-0.106829	-0.386168
F63	F	0.828861	0.115949	-0.369465
F64	F	0.952821	0.051558	-0.575212
H65	H	0.942955	-0.556548	-0.071862
