data_functionalizedCrystal
_audit_creation_method	'MofGen! by Chris Wilmer'
_symmetry_space_group_name_H-M	'P1'
_symmetry_Int_Tables_number	1
_symmetry_cell_setting	triclinic
loop_
_symmetry_equiv_pos_as_xyz
  x,y,z
_cell_length_a	16.959455
_cell_length_b	16.959454
_cell_length_c	16.959447
_cell_angle_alpha	89.973264
_cell_angle_beta	89.976354
_cell_angle_gamma	90.015068
loop_
_atom_site_label
_atom_site_type_symbol
_atom_site_fract_x
_atom_site_fract_y
_atom_site_fract_z
Zn1	Zn	-1.208384	0.314771	0.447125
Zn2	Zn	-1.208306	0.446964	0.314955
Zn3	Zn	-1.076212	0.314792	0.314941
Zn4	Zn	-1.076177	0.446900	0.447072
O5	O	-1.142270	0.380857	0.381023
O6	O	-1.318984	0.332325	0.429620
O7	O	-1.190766	0.429466	0.204342
O8	O	-1.093792	0.204178	0.332492
O9	O	-1.318927	0.429446	0.332515
O10	O	-1.190898	0.204163	0.429607
O11	O	-1.093717	0.332360	0.204332
O12	O	-0.965597	0.332298	0.332440
O13	O	-1.093732	0.429338	0.557690
O14	O	-0.965571	0.429358	0.429516
O15	O	-1.190864	0.332264	0.557729
O16	O	-1.190732	0.557566	0.332464
O17	O	-1.093657	0.557520	0.429530
C18	C	-0.936904	0.380824	0.380972
C19	C	-0.849047	0.380829	0.380968
C20	C	-0.477531	0.431354	0.330397
C21	C	-0.477612	0.330378	0.431670
C22	C	-0.560158	0.330368	0.431655
C23	C	-0.601394	0.380853	0.381012
C24	C	-0.560085	0.431347	0.330382
C25	C	-0.601473	0.279880	0.482289
C26	C	-0.684024	0.279868	0.482277
C27	C	-0.725262	0.330350	0.431629
C28	C	-0.683948	0.380846	0.380997
C29	C	-0.725184	0.431330	0.330354
C30	C	-0.683871	0.481823	0.279717
C31	C	-0.601323	0.481829	0.279734
C32	C	-0.807811	0.330344	0.431612
C33	C	-0.807738	0.431323	0.330339
C34	C	-1.142204	0.586223	0.381010
C35	C	-1.142248	0.674080	0.381030
C36	C	-1.142303	0.380791	0.587191
C37	C	-1.142317	0.380764	0.675048
C38	C	-0.348438	0.380882	0.381061
C39	C	-0.436295	0.380870	0.381040
C40	C	-1.142358	0.174689	0.381054
C41	C	-1.142395	0.086832	0.381067
C42	C	-1.091796	1.045561	0.431560
C43	C	-1.192964	1.045550	0.330567
C44	C	-1.192936	0.963004	0.330560
C45	C	-1.142337	0.921733	0.381052
C46	C	-1.091765	0.963007	0.431552
C47	C	-1.243501	0.921723	0.280055
C48	C	-1.243475	0.839172	0.280045
C49	C	-1.192879	0.797899	0.330542
C50	C	-1.142306	0.839179	0.381045
C51	C	-1.091707	0.797908	0.431538
C52	C	-1.041138	0.839186	0.482045
C53	C	-1.041170	0.921735	0.482050
C54	C	-1.192847	0.715351	0.330538
C55	C	-1.091676	0.715354	0.431530
C56	C	-1.142283	0.380865	0.175657
C57	C	-1.142422	0.380670	0.087801
C58	C	-1.091839	0.431222	1.046506
C59	C	-1.192983	0.330138	1.046542
C60	C	-1.192962	0.330155	0.963996
C61	C	-1.142380	0.380707	0.922701
C62	C	-1.091818	0.431242	0.963952
C63	C	-1.243529	0.279626	0.922738
C64	C	-1.243510	0.279641	0.840187
C65	C	-1.192923	0.330190	0.798891
C66	C	-1.142359	0.380727	0.840148
C67	C	-1.091776	0.431279	0.798853
C68	C	-1.041207	0.481813	0.840108
C69	C	-1.041231	0.481791	0.922656
C70	C	-1.192899	0.330211	0.716343
C71	C	-1.091755	0.431299	0.716299
H72	H	-0.444032	0.289280	0.472906
H73	H	-1.234016	0.681746	0.289411
O74	O	-0.557001	0.225424	0.536903
H75	H	-0.492660	0.233903	0.528395
O76	O	-0.986638	0.536325	0.795567
H77	H	-1.000162	0.598364	0.811391
H78	H	-0.999936	0.805574	0.523153
H79	H	-1.000063	0.522935	0.956253
H80	H	-0.443890	0.472462	0.289168
O81	O	-1.037180	0.485806	0.671760
H82	H	-1.002020	0.520935	0.714317
O83	O	-1.247541	1.090049	0.276105
H84	H	-1.309558	1.074146	0.289731
H85	H	-1.234170	0.288985	1.080169
H86	H	-1.050665	0.472363	1.080099
H87	H	-0.841306	0.472432	0.289096
H88	H	-1.284715	0.238474	0.956367
H89	H	-1.284686	0.238493	0.806605
O90	O	-0.728583	0.225400	0.536876
H91	H	-0.686039	0.190291	0.572087
H92	H	-1.234074	0.289070	0.682757
O93	O	-0.852369	0.275886	0.486215
H94	H	-0.836558	0.289518	0.548231
O95	O	-0.728352	0.536268	0.225091
H96	H	-0.765978	0.576520	0.260394
O97	O	-0.556767	0.536288	0.225125
H98	H	-0.492438	0.527816	0.233650
H99	H	-1.050475	0.681756	0.472651
O100	O	-1.298102	0.966232	0.225625
H101	H	-1.289644	1.030568	0.234134
O102	O	-0.986614	0.966253	0.536507
H103	H	-0.995127	1.030588	0.528017
H104	H	-1.050626	1.079173	0.472684
O105	O	-1.298023	0.794651	0.225582
H106	H	-1.333216	0.837219	0.190479
