data_functionalizedCrystal
_audit_creation_method	'MofGen! by Chris Wilmer'
_symmetry_space_group_name_H-M	'P1'
_symmetry_Int_Tables_number	1
_symmetry_cell_setting	triclinic
loop_
_symmetry_equiv_pos_as_xyz
  x,y,z
_cell_length_a	12.759401
_cell_length_b	19.120786
_cell_length_c	12.759393
_cell_angle_alpha	92.477119
_cell_angle_beta	90.018496
_cell_angle_gamma	92.465417
loop_
_atom_site_label
_atom_site_type_symbol
_atom_site_fract_x
_atom_site_fract_y
_atom_site_fract_z
Zn1	Zn	1.588335	-0.279587	0.576097
Zn2	Zn	1.580700	-0.397064	0.392903
Zn3	Zn	1.412635	-0.279624	0.400435
Zn4	Zn	1.405099	-0.397010	0.568548
O5	O	1.496692	-0.338321	0.484496
O6	O	1.734343	-0.295178	0.551804
O7	O	1.558364	-0.381523	0.246879
O8	O	1.442291	-0.181328	0.430048
O9	O	1.728733	-0.381488	0.417212
O10	O	1.571377	-0.181301	0.559107
O11	O	1.434887	-0.295241	0.252412
O12	O	1.264615	-0.295188	0.422728
O13	O	1.429448	-0.381396	0.716573
O14	O	1.259078	-0.381431	0.546240
O15	O	1.564070	-0.295126	0.722120
O16	O	1.551057	-0.495348	0.409892
O17	O	1.422044	-0.495308	0.538937
C18	C	1.223726	-0.338308	0.484482
C19	C	1.106948	-0.338320	0.484500
C20	C	1.049227	-0.383298	0.548698
C21	C	0.939502	-0.383307	0.548708
C22	C	0.945231	-0.293357	0.420316
C23	C	1.054953	-0.293345	0.420312
C24	C	1.045918	-0.435233	0.622821
C25	C	0.936193	-0.435242	0.622832
C26	C	1.484933	-0.520814	0.472801
C27	C	1.479998	-0.598885	0.467833
C28	C	1.544838	-0.635488	0.532747
C29	C	1.540197	-0.708844	0.528081
C30	C	1.470721	-0.745595	0.458494
C31	C	1.405874	-0.708987	0.393577
C32	C	1.410510	-0.635632	0.398249
C33	C	1.453358	-0.967082	0.441028
C34	C	1.448729	-1.040442	0.436358
C35	C	1.583052	-1.040294	0.570864
C36	C	1.587686	-0.966938	0.575526
C37	C	1.522835	-0.930336	0.510612
C38	C	1.465978	-0.820577	0.453721
C39	C	1.527574	-0.855356	0.515392
C40	C	1.770725	-0.338335	0.484510
C41	C	1.887501	-0.338341	0.484516
C42	C	1.496770	-0.338251	0.758534
C43	C	1.496804	-0.338220	0.875312
C44	C	1.508526	-0.155117	0.496260
C45	C	1.513569	-0.077046	0.501273
C46	C	1.496678	-0.338341	0.211527
C47	C	1.496861	-0.338174	0.094762
C48	C	1.566911	-0.293295	0.933065
C49	C	1.566938	-0.293270	1.042790
C50	C	1.426746	-0.383101	1.037002
C51	C	1.426715	-0.383122	0.927278
C52	C	1.647853	-0.241434	0.936407
C53	C	1.647879	-0.241409	1.046133
H54	H	0.903440	-0.415824	0.701425
O55	O	1.358715	-0.426817	1.087361
C56	C	1.300044	-0.546287	1.113291
C57	C	1.377133	-0.496855	1.056175
H58	H	1.314922	-0.602923	1.088116
H59	H	1.216100	-0.534009	1.092479
H60	H	1.312089	-0.538518	1.201632
H61	H	1.365184	-0.504596	0.967823
H62	H	1.461050	-0.509145	1.077074
H63	H	1.601418	-0.605570	0.589408
O64	O	1.398553	-0.856199	0.385977
C65	C	1.346277	-0.878803	0.205777
C66	C	1.422691	-0.838404	0.282379
H67	H	1.365779	-0.864441	0.122000
H68	H	1.262442	-0.864407	0.224976
H69	H	1.354086	-0.937515	0.213648
H70	H	1.414976	-0.779682	0.274549
H71	H	1.506495	-0.852858	0.263158
H72	H	1.369623	-0.419702	0.880261
H73	H	0.902912	-0.489628	0.597420
H74	H	1.629571	-0.187038	0.910131
H75	H	1.400556	-0.937287	0.388171
H76	H	1.723875	-0.260935	0.901124
H77	H	1.101947	-0.256715	0.368043
H78	H	1.392148	-1.070363	0.379691
O79	O	1.617137	-0.179693	1.090536
C80	C	1.559191	-0.063786	1.061573
C81	C	1.594014	-0.133632	1.011148
H82	H	1.540466	-0.026532	0.997411
H83	H	1.624978	-0.039332	1.113402
H84	H	1.486272	-0.073807	1.111248
H85	H	1.666911	-0.123671	0.961422
H86	H	1.528165	-0.158064	0.959380
H87	H	1.593005	-0.738643	0.580933
O88	O	1.655207	-0.931349	0.643211
C89	C	1.788007	-0.938946	0.776069
C90	C	1.711562	-0.979338	0.699489
H91	H	1.833607	-0.977728	0.821574
H92	H	1.741972	-0.904619	0.833222
H93	H	1.845090	-0.904581	0.730040
H94	H	1.654462	-1.013742	0.745431
H95	H	1.757665	-1.013621	0.642336
H96	H	1.728316	-0.255978	1.074979
H97	H	1.357710	-0.605830	0.345390
H98	H	1.635848	-1.070104	0.623714
H99	H	1.584137	-0.825431	0.572054
O100	O	0.894670	-0.249776	0.357838
C101	C	0.771308	-0.240227	0.216672
C102	C	0.828510	-0.289662	0.287346
H103	H	0.717788	-0.272454	0.159676
H104	H	0.831369	-0.208093	0.170708
H105	H	0.722362	-0.203527	0.267371
H106	H	0.877455	-0.326405	0.236726
H107	H	0.768395	-0.321747	0.333316
O108	O	1.082424	-0.417883	0.721091
C109	C	1.038696	-0.386374	0.900179
C110	C	0.997213	-0.405998	0.788939
H111	H	0.969823	-0.376775	0.955070
H112	H	1.091477	-0.336803	0.898236
H113	H	1.085511	-0.431072	0.929600
H114	H	0.950352	-0.361346	0.759451
H115	H	0.944488	-0.455592	0.790947
H116	H	1.076622	-0.486880	0.590233
H117	H	1.349301	-0.738915	0.336922
