data_functionalizedCrystal
_audit_creation_method	'MofGen! by Chris Wilmer'
_symmetry_space_group_name_H-M	'P1'
_symmetry_Int_Tables_number	1
_symmetry_cell_setting	triclinic
loop_
_symmetry_equiv_pos_as_xyz
  x,y,z
_cell_length_a	11.792241
_cell_length_b	10.723024
_cell_length_c	9.798715
_cell_angle_alpha	90.001978
_cell_angle_beta	89.999488
_cell_angle_gamma	84.330643
loop_
_atom_site_label
_atom_site_type_symbol
_atom_site_fract_x
_atom_site_fract_y
_atom_site_fract_z
O1	O	-1.507282	-0.171036	-0.113355
O2	O	-1.176980	-0.188663	-0.113386
O3	O	-1.349750	0.001747	-0.113365
O4	O	-1.334512	-0.361446	-0.113376
O5	O	-1.349737	0.001747	0.113618
O6	O	-1.176967	-0.188663	0.113596
O7	O	-1.507269	-0.171035	0.113627
Zn8	Zn	-1.342116	-0.179849	0.149650
Zn9	Zn	-1.342133	-0.179850	-0.149409
O10	O	-1.334499	-0.361445	0.113606
C11	C	-1.134680	-0.187556	0.000101
C12	C	-1.008659	-0.184242	0.000089
C13	C	-1.348634	0.048244	0.000125
C14	C	-1.345317	0.186789	0.000120
C15	C	-1.549569	-0.172143	0.000137
C16	C	-1.675590	-0.175457	0.000140
C17	C	-0.777933	-0.178147	0.000128
C18	C	-0.906326	-0.181533	0.000107
C19	C	-1.335614	-0.407942	0.000114
C20	C	-1.338932	-0.546488	0.000110
N21	N	-1.342112	-0.179848	0.353750
C22	C	-1.441990	0.262028	0.000127
C23	C	-1.438563	0.405222	0.000122
N24	N	-1.342145	-0.179841	-0.353508
C25	C	-1.414654	-0.099549	0.421536
C26	C	-1.414672	-0.099544	0.578698
H27	H	-1.521323	0.469873	0.000134
H28	H	-1.280040	-0.248597	0.588207
H29	H	-1.476743	-0.030799	0.363221
H30	H	-1.260014	0.228386	0.000103
C31	C	-1.618980	0.245868	0.116815
C32	C	-1.557156	0.205896	0.000133
H33	H	-1.690084	0.211223	0.116809
H34	H	-1.577028	0.218758	0.195952
H35	H	-1.631772	0.334734	0.116803
H36	H	-1.544356	0.117030	0.000150
H37	H	-1.599117	0.232999	-0.079025
H38	H	-1.280016	-0.248588	0.412066
C39	C	-1.222775	0.290541	-0.116586
C40	C	-1.227195	0.366255	0.000096
H41	H	-1.153789	0.236672	-0.116596
H42	H	-1.285716	0.241686	-0.116565
H43	H	-1.225801	0.341921	-0.195732
H44	H	-1.224177	0.314875	0.079242
H45	H	-1.164237	0.415114	0.000087
C46	C	-1.479084	0.116097	0.622945
C47	C	-1.498516	-0.006728	0.657380
H48	H	-1.530852	0.173398	0.671517
H49	H	-1.403167	0.129941	0.646313
H50	H	-1.490074	0.128256	0.527649
H51	H	-1.487517	-0.018889	0.752675
H52	H	-1.574451	-0.020576	0.634021
