data_functionalizedCrystal
_audit_creation_method	'MofGen! by Chris Wilmer'
_symmetry_space_group_name_H-M	'P1'
_symmetry_Int_Tables_number	1
_symmetry_cell_setting	triclinic
loop_
_symmetry_equiv_pos_as_xyz
  x,y,z
_cell_length_a	16.109302
_cell_length_b	10.723023
_cell_length_c	15.186229
_cell_angle_alpha	89.997261
_cell_angle_beta	89.994701
_cell_angle_gamma	83.964664
loop_
_atom_site_label
_atom_site_type_symbol
_atom_site_fract_x
_atom_site_fract_y
_atom_site_fract_z
O1	O	1.104074	0.160395	-0.073266
O2	O	1.604074	0.660395	0.426734
O3	O	0.862129	0.180354	-0.073259
O4	O	1.362129	0.680354	0.426741
O5	O	0.988683	-0.011275	-0.073259
O6	O	1.488683	0.488725	0.426741
O7	O	0.977520	0.352025	-0.073266
O8	O	1.477520	0.852025	0.426734
O9	O	0.988674	-0.011278	0.073198
O10	O	1.488674	0.488722	0.573198
O11	O	0.862121	0.180352	0.073198
O12	O	1.362121	0.680352	0.573198
O13	O	1.104065	0.160392	0.073191
O14	O	1.604065	0.660392	0.573191
Zn15	Zn	0.983092	0.170372	0.096448
Zn16	Zn	1.483092	0.670372	0.596448
Zn17	Zn	0.983103	0.170375	-0.096516
Zn18	Zn	1.483103	0.670375	0.403484
O19	O	0.977512	0.352022	0.073191
O20	O	1.477512	0.852022	0.573191
C21	C	0.831145	0.179545	-0.000030
C22	C	1.331145	0.679545	0.499970
C23	C	0.738836	0.177120	-0.000027
C24	C	1.238836	0.677120	0.499973
C25	C	0.526457	0.171513	0.079798
C26	C	1.026457	0.671513	0.579798
C27	C	0.439724	0.169221	0.079795
C28	C	0.939724	0.669221	0.579795
C29	C	0.439744	0.169231	-0.079880
C30	C	0.939744	0.669231	0.420120
C31	C	0.526476	0.171513	-0.079876
C32	C	1.026476	0.671513	0.420124
C33	C	0.569830	0.172660	-0.000034
C34	C	1.069830	0.672660	0.499966
C35	C	0.396364	0.168087	-0.000041
C36	C	0.896364	0.668087	0.499959
C37	C	0.302324	0.165602	-0.000045
C38	C	0.802324	0.665602	0.499955
C39	C	0.663877	0.175143	-0.000030
C40	C	1.163877	0.675143	0.499970
C41	C	0.987866	-0.057766	-0.000031
C42	C	1.487866	0.442234	0.499969
C43	C	0.985436	-0.196288	-0.000034
C44	C	1.485436	0.303712	0.499966
C45	C	0.984357	-0.258038	-0.075905
C46	C	1.484357	0.241962	0.424095
C47	C	0.981846	-0.401208	-0.075909
C48	C	1.481846	0.098792	0.424091
C49	C	1.135049	0.161202	-0.000040
C50	C	1.635049	0.661202	0.499960
C51	C	1.227359	0.163627	-0.000049
C52	C	1.727359	0.663627	0.499951
C53	C	0.978328	0.398512	-0.000038
C54	C	1.478328	0.898512	0.499962
C55	C	0.980758	0.537035	-0.000041
C56	C	1.480758	1.037035	0.499959
N57	N	0.983090	0.170368	0.228141
N58	N	1.483090	0.670368	0.728141
N59	N	0.983111	0.170369	-0.228209
N60	N	1.483111	0.670369	0.271791
C61	C	1.039147	0.085543	0.453863
C62	C	1.539147	0.585543	0.953863
C63	C	1.039150	0.085540	0.546053
C64	C	1.539150	0.585540	1.046053
C65	C	0.927048	0.255198	0.546062
C66	C	1.427048	0.755198	1.046062
C67	C	0.927042	0.255194	0.453874
C68	C	1.427042	0.755194	0.953874
C69	C	0.983096	0.170368	0.407777
C70	C	1.483096	0.670368	0.907777
C71	C	0.983105	0.170369	0.592155
C72	C	1.483105	0.670369	1.092155
C73	C	0.983107	0.170366	0.692111
C74	C	1.483107	0.670366	1.192111
C75	C	0.983093	0.170369	0.307815
C76	C	1.483093	0.670369	0.807815
H77	H	0.561754	0.172447	0.144811
H78	H	1.061754	0.672447	0.644811
Cl79	Cl	0.856586	0.361836	0.604017
Cl80	Cl	1.356586	0.861836	1.104017
H81	H	0.981690	-0.409871	0.064917
H82	H	1.481690	0.090129	0.564917
H83	H	0.985289	-0.204911	-0.140857
H84	H	1.485289	0.295089	0.359143
Cl85	Cl	0.581007	0.172946	-0.180246
Cl86	Cl	1.081007	0.672946	0.319754
Cl87	Cl	0.385201	0.167781	0.180162
Cl88	Cl	0.885201	0.667781	0.680162
Cl89	Cl	0.385238	0.167758	-0.180247
Cl90	Cl	0.885238	0.667758	0.319753
Cl91	Cl	1.109612	-0.021100	0.395917
Cl92	Cl	1.609612	0.478900	0.895917
Cl93	Cl	0.983985	-0.278299	0.100252
Cl94	Cl	1.483985	0.221701	0.600252
Cl95	Cl	0.980420	-0.483189	-0.176201
Cl96	Cl	1.480420	0.016811	0.323799
Cl97	Cl	0.856568	0.361833	0.395932
Cl98	Cl	1.356568	0.861833	0.895932
H99	H	1.084791	0.016467	0.583574
H100	H	1.584791	0.516467	1.083574
