data_functionalizedCrystal
_audit_creation_method	'MofGen! by Chris Wilmer'
_symmetry_space_group_name_H-M	'P1'
_symmetry_Int_Tables_number	1
_symmetry_cell_setting	triclinic
loop_
_symmetry_equiv_pos_as_xyz
  x,y,z
_cell_length_a	14.853558
_cell_length_b	19.188924
_cell_length_c	13.930277
_cell_angle_alpha	89.993371
_cell_angle_beta	89.993309
_cell_angle_gamma	83.386549
loop_
_atom_site_label
_atom_site_type_symbol
_atom_site_fract_x
_atom_site_fract_y
_atom_site_fract_z
O1	O	1.195864	0.091124	-0.079824
O2	O	0.933343	0.101990	-0.079829
O3	O	1.072182	-0.005074	-0.079815
O4	O	1.057024	0.198188	-0.079838
O5	O	1.072163	-0.005076	0.079847
O6	O	0.933323	0.101988	0.079833
O7	O	1.195845	0.091122	0.079838
Zn8	Zn	1.064581	0.096555	0.105185
Zn9	Zn	1.064606	0.096558	-0.105176
O10	O	1.057005	0.198186	0.079824
C11	C	0.899747	0.101498	0.000002
C12	C	0.799671	0.100026	0.000000
C13	C	0.752665	0.099337	-0.087035
C14	C	0.752643	0.099326	0.087034
C15	C	0.658617	0.097940	0.087036
C16	C	0.611611	0.097251	0.000001
C17	C	0.658631	0.097948	-0.087036
C18	C	0.611591	0.097235	0.174072
C19	C	0.517559	0.095847	0.174077
C20	C	0.470551	0.095163	0.087041
C21	C	0.517577	0.095862	0.000000
C22	C	0.470571	0.095173	-0.087035
C23	C	0.517594	0.095876	-0.174077
C24	C	0.611622	0.097264	-0.174072
C25	C	0.376522	0.093775	0.087036
C26	C	0.376536	0.093784	-0.087036
C27	C	1.071683	-0.031087	0.000017
C28	C	1.070212	-0.108597	0.000020
C29	C	1.069537	-0.144997	-0.087012
C30	C	1.068142	-0.217824	-0.087020
C31	C	1.067442	-0.254251	0.000010
C32	C	1.068113	-0.217842	0.087053
C33	C	1.069498	-0.145015	0.087058
N34	N	1.116562	-0.373752	0.064785
N35	N	1.115248	-0.442935	0.064774
C36	C	1.063266	-0.473674	0.000001
N37	N	1.012659	-0.432617	-0.064777
N38	N	1.013977	-0.363429	-0.064769
C39	C	1.065939	-0.333219	0.000014
C40	C	1.061077	-0.589041	-0.087045
C41	C	1.059677	-0.661869	-0.087049
C42	C	1.059656	-0.661886	0.087027
C43	C	1.061047	-0.589058	0.087028
C44	C	1.061762	-0.552641	-0.000011
C45	C	1.229440	0.091614	0.000006
C46	C	1.329516	0.093086	0.000001
C47	C	1.057504	0.224200	-0.000010
C48	C	1.058975	0.301709	-0.000019
N49	N	1.064570	0.096552	0.248752
N50	N	1.064624	0.096555	-0.248742
C51	C	1.003126	0.143947	0.701015
C52	C	1.126112	0.049163	0.700996
C53	C	1.126101	0.049161	0.600501
C54	C	1.064603	0.096553	0.550257
C55	C	1.003115	0.143947	0.600510
C56	C	1.187594	0.001772	0.550241
C57	C	1.187586	0.001768	0.449739
C58	C	1.126083	0.049158	0.399494
C59	C	1.064592	0.096554	0.449752
C60	C	1.003094	0.143946	0.399509
C61	C	0.941598	0.191339	0.449766
C62	C	0.941612	0.191337	0.550264
C63	C	1.126069	0.049160	0.298995
C64	C	1.003083	0.143947	0.299004
H65	H	0.649871	0.097789	0.244931
C66	C	0.804346	0.100121	0.182768
N67	N	0.843290	0.100735	0.254878
C68	C	1.193710	-0.002969	0.243717
N69	N	1.244660	-0.042236	0.202083
H70	H	1.061605	-0.559422	0.157899
C71	C	0.663356	0.098029	-0.269809
N72	N	0.702327	0.098601	-0.341918
C73	C	0.873968	0.243461	0.605554
N74	N	0.823018	0.282720	0.647202
H75	H	0.953000	0.182537	0.258102
C76	C	0.465876	0.095116	-0.269812
N77	N	0.426918	0.094543	-0.341918
C78	C	0.324802	0.093000	0.182776
N79	N	0.285846	0.092418	0.254892
C80	C	1.070247	-0.104974	0.182804
N81	N	1.070814	-0.074815	0.254922
H82	H	0.479281	0.095274	0.244951
C83	C	1.061849	-0.548978	-0.182788
N84	N	1.062428	-0.518804	-0.254903
C85	C	0.873952	0.243469	0.394485
N86	N	0.823003	0.282732	0.352843
H87	H	1.059122	-0.691504	-0.157924
C88	C	1.070314	-0.104941	-0.182758
N89	N	1.070897	-0.074769	-0.254874
C90	C	1.058886	-0.701951	0.182761
N91	N	1.058304	-0.732131	0.254870
H92	H	0.953054	0.182532	0.741936
H93	H	1.176186	0.010581	0.741908
C94	C	1.067393	-0.257872	-0.182765
N95	N	1.066828	-0.288033	-0.254881
H96	H	1.067540	-0.247504	0.157913
H97	H	1.237668	-0.036810	0.591152
C98	C	1.255225	-0.050370	0.394466
N99	N	1.306168	-0.089643	0.352833
H100	H	0.338270	0.093227	-0.157912
H101	H	0.790955	0.099913	-0.157902
