data_functionalizedCrystal
_audit_creation_method	'MofGen! by Chris Wilmer'
_symmetry_space_group_name_H-M	'P1'
_symmetry_Int_Tables_number	1
_symmetry_cell_setting	triclinic
loop_
_symmetry_equiv_pos_as_xyz
  x,y,z
_cell_length_a	12.645331
_cell_length_b	18.050589
_cell_length_c	12.645324
_cell_angle_alpha	89.967661
_cell_angle_beta	89.981704
_cell_angle_gamma	90.028631
loop_
_atom_site_label
_atom_site_type_symbol
_atom_site_fract_x
_atom_site_fract_y
_atom_site_fract_z
Zn1	Zn	1.620657	-0.295595	-0.599310
Zn2	Zn	2.120657	0.204405	-0.099310
Zn3	Zn	1.620505	-0.419809	-0.422048
Zn4	Zn	2.120505	0.080191	0.077952
Zn5	Zn	1.443370	-0.295638	-0.422069
Zn6	Zn	1.943370	0.204362	0.077931
Zn7	Zn	1.443320	-0.419749	-0.599278
Zn8	Zn	1.943320	0.080251	-0.099278
O9	O	1.531963	-0.357698	-0.510676
O10	O	2.031963	0.142302	-0.010676
O11	O	1.768984	-0.312079	-0.575801
O12	O	2.268984	0.187921	-0.075801
O13	O	1.596965	-0.403381	-0.273704
O14	O	2.096965	0.096619	0.226296
O15	O	1.466972	-0.191708	-0.445602
O16	O	1.966972	0.308292	0.054398
O17	O	1.768872	-0.403339	-0.445567
O18	O	2.268872	0.096661	0.054433
O19	O	1.597224	-0.191676	-0.575821
O20	O	2.097224	0.308324	-0.075821
O21	O	1.466825	-0.312153	-0.273719
O22	O	1.966825	0.187847	0.226281
O23	O	1.295016	-0.312094	-0.445571
O24	O	1.795016	0.187906	0.054429
O25	O	1.466887	-0.403236	-0.747630
O26	O	1.966887	0.096764	-0.247630
O27	O	1.294980	-0.403278	-0.575766
O28	O	1.794980	0.096722	-0.075766
O29	O	1.597175	-0.312021	-0.747653
O30	O	2.097175	0.187979	-0.247653
O31	O	1.596917	-0.523725	-0.445536
O32	O	2.096917	-0.023725	0.054464
O33	O	1.466740	-0.523681	-0.575746
O34	O	1.966740	-0.023681	-0.075746
C35	C	1.256533	-0.357685	-0.510668
C36	C	1.756533	0.142315	-0.010668
C37	C	1.138703	-0.357697	-0.510690
C38	C	1.638703	0.142303	-0.010690
C39	C	1.093834	-0.415159	-0.592476
C40	C	1.593834	0.084841	-0.092476
C41	C	0.971274	-0.415395	-0.592233
C42	C	1.471274	0.084605	-0.092233
C43	C	0.970744	-0.378610	-0.398833
C44	C	1.470744	0.121390	0.101167
C45	C	1.093342	-0.379016	-0.399306
C46	C	1.593342	0.120984	0.100694
C47	C	1.093578	-0.279201	-0.539783
C48	C	1.593578	0.220799	-0.039783
C49	C	0.970972	-0.279635	-0.542246
C50	C	1.470972	0.220365	-0.042246
C51	C	1.531835	-0.550650	-0.510659
C52	C	2.031835	-0.050650	-0.010659
C53	C	1.531877	-0.633196	-0.510687
C54	C	2.031877	-0.133196	-0.010687
C55	C	1.461157	-0.832649	-0.581470
C56	C	1.961157	-0.332649	-0.081470
C57	C	1.435310	-0.882100	-0.484738
C58	C	1.935310	-0.382100	0.015262
C59	C	1.531981	-0.784326	-0.510701
C60	C	2.031981	-0.284326	-0.010701
C61	C	1.557881	-0.881957	-0.607444
C62	C	2.057881	-0.381957	-0.107444
C63	C	1.532080	-0.930311	-0.510722
C64	C	2.032080	-0.430311	-0.010722
C65	C	1.506084	-0.832689	-0.413917
C66	C	2.006084	-0.332689	0.086083
C67	C	1.628699	-0.832542	-0.536689
C68	C	2.128699	-0.332542	-0.036689
C69	C	1.602889	-0.881971	-0.439889
C70	C	2.102889	-0.381971	0.060111
C71	C	1.531922	-0.700228	-0.510689
C72	C	2.031922	-0.200228	-0.010689
C73	C	1.532140	-1.014407	-0.510723
C74	C	2.032140	-0.514407	-0.010723
C75	C	1.808468	-0.357711	-0.510685
C76	C	2.308468	0.142289	-0.010685
C77	C	1.926298	-0.357717	-0.510689
C78	C	2.426298	0.142283	-0.010689
C79	C	1.532043	-0.357617	-0.787182
C80	C	2.032043	0.142383	-0.287182
C81	C	1.532076	-0.357582	-0.905012
C82	C	2.032076	0.142418	-0.405012
C83	C	1.532120	-0.163992	-0.510717
C84	C	2.032120	0.336008	-0.010717
C85	C	1.532187	-0.081446	-0.510735
C86	C	2.032187	0.418554	-0.010735
C87	C	1.614360	-0.300365	-1.072591
C88	C	2.114360	0.199635	-0.572591
C89	C	1.614096	-0.300159	-0.950031
C90	C	2.114096	0.199841	-0.450031
C91	C	1.420400	-0.336316	-0.949499
C92	C	1.920400	0.163684	-0.449499
C93	C	1.420900	-0.335881	-1.072098
C94	C	1.920900	0.164119	-0.572098
C95	C	1.560563	-0.436150	-1.072206
C96	C	2.060563	0.063850	-0.572206
C97	C	1.563007	-0.435755	-0.949601
C98	C	2.063007	0.064245	-0.449601
C99	C	1.531945	-0.357724	-0.235247
C100	C	2.031945	0.142276	0.264753
C101	C	1.532116	-0.357550	-0.117417
C102	C	2.032116	0.142450	0.382583
H103	H	0.939999	-0.435356	-0.373824
H104	H	1.439999	0.064644	0.126176
O105	O	1.589146	-0.223033	-0.911199
O106	O	2.089146	0.276967	-0.411199
H107	H	1.588882	-0.222614	-0.823427
H108	H	2.088882	0.277386	-0.323427
O109	O	0.932366	-0.492448	-0.566653
O110	O	1.432366	0.007552	-0.066653
H111	H	0.883652	-0.513420	-0.633229
H112	H	1.383652	-0.013420	-0.133229
H113	H	1.124539	-0.260113	-0.619974
H114	H	1.624539	0.239887	-0.119974
O115	O	1.327025	-0.910931	-0.455618
O116	O	1.827025	-0.410931	0.044382
H117	H	1.328257	-0.972415	-0.455145
H118	H	1.828257	-0.472415	0.044855
H119	H	1.579747	-0.903598	-0.689250
H120	H	2.079747	-0.403598	-0.189250
O121	O	1.387866	-0.261052	-0.908869
O122	O	1.887866	0.238948	-0.408869
H123	H	1.451048	-0.238672	-0.857004
H124	H	1.951048	0.261328	-0.357004
H125	H	1.484123	-0.811137	-0.332088
H126	H	1.984123	-0.311137	0.167912
O127	O	1.723790	-0.317783	-0.910176
O128	O	2.223790	0.182217	-0.410176
H129	H	1.777506	-0.326528	-0.978469
H130	H	2.277506	0.173472	-0.478469
O131	O	1.134574	-0.491769	-0.567213
O132	O	1.634574	0.008231	-0.067213
H133	H	1.180155	-0.513241	-0.635664
H134	H	1.680155	-0.013241	-0.135664
H135	H	1.396784	-0.278425	-1.100710
H136	H	1.896784	0.221575	-0.600710
H137	H	1.662825	-0.903490	-0.379982
H138	H	2.162825	-0.403490	0.120018
O139	O	1.737077	-0.803849	-0.565713
O140	O	2.237077	-0.303849	-0.065713
H141	H	1.758404	-0.823605	-0.646040
H142	H	2.258404	-0.323605	-0.146040
O143	O	1.131173	-0.455007	-0.366744
O144	O	1.631173	0.044993	0.133256
H145	H	1.061903	-0.491121	-0.350813
H146	H	1.561903	0.008879	0.149187
H147	H	1.697445	-0.313516	-1.102077
H148	H	2.197445	0.186484	-0.602077
O149	O	1.381712	-0.803954	-0.660634
O150	O	1.881712	-0.303954	-0.160634
H151	H	1.382906	-0.742469	-0.660452
H152	H	1.882906	-0.242469	-0.160452
O153	O	1.132672	-0.325972	-0.315797
O154	O	1.632672	0.174028	0.184203
H155	H	1.064123	-0.300149	-0.275247
H156	H	1.564123	0.199851	0.224753
O157	O	1.336965	-0.388642	-1.111390
O158	O	1.836965	0.111358	-0.611390
H159	H	1.296192	-0.414349	-1.042822
H160	H	1.796192	0.085651	-0.542822
H161	H	0.941225	-0.402360	-0.675159
H162	H	1.441225	0.097640	-0.175159
H163	H	1.595769	-0.242462	-1.103417
H164	H	2.095769	0.257538	-0.603417
H165	H	1.507457	-0.480654	-0.918952
H166	H	2.007457	0.019346	-0.418952
H167	H	1.357455	-0.376686	-0.920337
H168	H	1.857455	0.123314	-0.420337
O169	O	1.666592	-0.461772	-1.113153
O170	O	2.166592	0.038228	-0.613153
H171	H	1.700199	-0.418765	-1.166191
H172	H	2.200199	0.081235	-0.666191
O173	O	1.481218	-0.492594	-1.110592
O174	O	1.981218	0.007406	-0.610592
H175	H	1.522683	-0.536109	-1.156659
H176	H	2.022683	-0.036109	-0.656659
O177	O	1.671872	-0.457004	-0.911097
O178	O	2.171872	0.042996	-0.411097
H179	H	1.703823	-0.412084	-0.860407
H180	H	2.203823	0.087916	-0.360407
H181	H	1.123356	-0.402274	-0.675660
H182	H	1.623356	0.097726	-0.175660
O183	O	0.932477	-0.258748	-0.651277
O184	O	1.432477	0.241252	-0.151277
H185	H	0.960056	-0.300608	-0.709318
H186	H	1.460056	0.199392	-0.209318
O187	O	0.932167	-0.324874	-0.315893
O188	O	1.432167	0.175126	0.184107
H189	H	0.844464	-0.326243	-0.312862
H190	H	1.344464	0.173757	0.187138
O191	O	0.930453	-0.219928	-0.469145
O192	O	1.430453	0.280072	0.030855
H193	H	0.877609	-0.245086	-0.408907
H194	H	1.377609	0.254914	0.091093
O195	O	1.132022	-0.222489	-0.460902
O196	O	1.632022	0.277511	0.039098
H197	H	1.183021	-0.250027	-0.401261
H198	H	1.683021	0.249973	0.098739
