data_functionalizedCrystal
_audit_creation_method	'MofGen! by Chris Wilmer'
_symmetry_space_group_name_H-M	'P1'
_symmetry_Int_Tables_number	1
_symmetry_cell_setting	triclinic
loop_
_symmetry_equiv_pos_as_xyz
  x,y,z
_cell_length_a	19.077105
_cell_length_b	12.759394
_cell_length_c	19.076919
_cell_angle_alpha	92.274121
_cell_angle_beta	90.076224
_cell_angle_gamma	87.711291
loop_
_atom_site_label
_atom_site_type_symbol
_atom_site_fract_x
_atom_site_fract_y
_atom_site_fract_z
Zn1	Zn	1.058327	-0.508276	-0.440432
Zn2	Zn	1.062986	-0.677203	-0.322930
Zn3	Zn	0.945543	-0.494202	-0.318225
Zn4	Zn	0.940807	-0.676569	-0.435682
O5	O	1.001916	-0.589062	-0.379317
O6	O	1.157277	-0.536840	-0.428802
O7	O	1.051338	-0.647302	-0.223974
O8	O	0.960536	-0.349050	-0.334454
O9	O	1.160700	-0.660950	-0.342473
O10	O	1.043398	-0.359391	-0.424239
O11	O	0.965054	-0.512852	-0.220517
O12	O	0.846582	-0.512238	-0.329849
O13	O	0.952465	-0.659870	-0.534644
O14	O	0.843103	-0.646222	-0.416144
O15	O	1.038806	-0.536225	-0.538133
O16	O	1.046746	-0.824137	-0.337868
O17	O	0.956982	-0.823671	-0.420707
C18	C	0.819346	-0.577635	-0.371971
C19	C	0.741242	-0.572772	-0.368845
C20	C	0.702757	-0.640344	-0.412235
C21	C	0.629370	-0.635761	-0.409302
C22	C	0.594467	-0.563612	-0.362974
C23	C	0.632957	-0.496033	-0.319582
C24	C	0.706343	-0.500611	-0.322520
C25	C	0.375178	-0.542424	-0.349381
C26	C	0.301786	-0.537853	-0.346444
C27	C	0.298204	-0.677581	-0.436166
C28	C	0.371592	-0.682157	-0.439096
C29	C	0.410075	-0.614574	-0.395707
N30	N	0.519453	-0.558928	-0.359972
N31	N	0.485088	-0.619253	-0.398713
C32	C	1.001874	-0.862026	-0.379298
C33	C	1.001920	-0.978807	-0.379316
C34	C	1.095456	-0.979246	-0.293126
C35	C	1.142242	-1.034328	-0.250040
C36	C	1.142282	-1.144054	-0.250061
C37	C	1.095533	-1.198699	-0.293174
C38	C	1.048747	-1.143617	-0.336260
C39	C	1.048710	-1.033889	-0.336233
C40	C	0.955216	-1.143178	-0.422453
C41	C	0.955171	-1.033453	-0.422429
C42	C	0.908467	-1.197824	-0.465566
C43	C	0.861676	-1.142741	-0.508649
C44	C	0.861637	-1.033009	-0.508626
C45	C	0.908385	-0.978370	-0.465515
C46	C	1.185198	-0.600535	-0.386692
C47	C	1.263302	-0.605424	-0.389835
C48	C	0.994587	-0.599547	-0.562597
C49	C	0.991465	-0.604015	-0.640701
C50	C	1.001976	-0.315035	-0.379352
C51	C	1.002002	-0.198260	-0.379367
C52	C	1.034948	-0.541742	-0.679212
C53	C	1.032006	-0.545935	-0.752598
C54	C	0.985582	-0.612408	-0.787471
C55	C	0.942093	-0.674683	-0.748955
C56	C	0.945033	-0.670484	-0.675570
C57	C	0.971966	-0.631866	-1.006753
C58	C	0.969031	-0.636063	-1.080143
C59	C	1.058943	-0.507313	-1.083780
C60	C	1.061881	-0.503124	-1.010394
C61	C	1.018390	-0.565395	-0.971884
N62	N	0.982574	-0.616698	-0.862484
N63	N	1.021395	-0.561098	-0.896873
C64	C	1.009256	-0.578545	-0.196751
C65	C	1.012515	-0.573790	-0.118654
H66	H	0.400005	-0.740911	-0.476820
H67	H	0.266864	-0.732601	-0.471492
H68	H	1.180306	-0.989826	-0.214939
C69	C	0.908580	-1.316967	-0.465727
C70	C	0.923816	-1.358147	-0.533362
C71	C	0.923934	-1.467897	-0.533535
H72	H	0.863760	-1.338461	-0.451771
H73	H	0.943157	-1.341990	-0.433925
H74	H	0.889240	-1.333133	-0.565153
H75	H	0.968635	-1.336683	-0.547330
H76	H	0.958511	-1.492921	-0.501734
H77	H	0.879113	-1.489380	-0.519577
H78	H	0.934277	-1.495852	-0.579423
C79	C	0.924824	-0.699652	-0.964997
C80	C	0.939390	-0.805583	-0.983436
C81	C	0.895975	-0.868058	-0.944979
H82	H	0.877114	-0.682130	-0.975105
H83	H	0.933215	-0.687708	-0.916288
H84	H	0.930993	-0.817522	-1.032134
H85	H	0.987092	-0.823138	-0.973325
H86	H	0.904366	-0.856114	-0.896270
H87	H	0.848267	-0.850526	-0.955090
H88	H	0.905856	-0.939939	-0.957479
H89	H	1.067416	-0.495228	-0.783950
C90	C	0.264018	-0.459403	-0.296123
C91	C	0.313426	-0.401176	-0.258766
C92	C	0.278660	-0.328896	-0.212412
H93	H	0.236607	-0.495861	-0.264250
H94	H	0.234338	-0.413394	-0.321898
H95	H	0.343094	-0.447178	-0.232992
H96	H	0.340840	-0.364696	-0.290620
H97	H	0.248979	-0.282887	-0.238187
H98	H	0.251249	-0.365363	-0.180544
H99	H	0.312177	-0.289374	-0.187064
H100	H	0.904292	-0.728803	-0.777355
H101	H	1.099686	-0.448998	-0.982005
H102	H	0.908353	-0.889026	-0.465488
H103	H	1.072754	-0.487616	-0.650823
H104	H	0.823541	-0.988168	-0.543715
H105	H	0.909617	-0.721182	-0.644215
C106	C	1.095664	-1.317828	-0.293077
C107	C	1.146635	-1.354370	-0.246109
C108	C	1.146769	-1.464105	-0.245995
H109	H	1.106004	-1.346082	-0.338884
H110	H	1.050838	-1.339225	-0.279039
H111	H	1.191451	-1.332983	-0.260150
H112	H	1.136306	-1.326145	-0.200294
H113	H	1.101942	-1.485502	-0.231957
H114	H	1.157107	-1.492348	-0.291805
H115	H	1.181347	-1.488911	-0.214123
C116	C	1.106272	-0.439834	-1.125559
C117	C	1.176508	-0.466056	-1.110522
C118	C	1.220127	-0.403919	-1.149002
H119	H	1.096575	-0.367883	-1.113160
H120	H	1.097921	-0.451863	-1.174268
H121	H	1.184855	-0.454018	-1.061824
H122	H	1.186226	-0.537995	-1.122924
H123	H	1.211776	-0.415949	-1.197710
H124	H	1.210424	-0.331972	-1.136599
H125	H	1.267787	-0.421709	-1.138809
C126	C	0.918735	-0.708364	-1.118053
C127	C	0.956817	-0.780624	-1.161765
C128	C	0.910511	-0.847245	-1.196694
H129	H	0.886972	-0.668007	-1.145510
H130	H	0.893260	-0.744912	-1.084635
H131	H	0.982279	-0.744078	-1.195180
H132	H	0.988577	-0.821004	-1.134327
H133	H	0.885037	-0.883794	-1.163275
H134	H	0.878751	-0.806880	-1.224147
H135	H	0.936344	-0.896287	-1.226352
H136	H	0.406502	-0.487401	-0.314044
C137	C	0.811009	-1.202028	-0.555575
C138	C	0.823480	-1.180217	-0.625719
C139	C	0.776824	-1.234828	-0.668968
H140	H	0.764179	-1.180628	-0.543446
H141	H	0.817742	-1.275278	-0.549467
H142	H	0.816741	-1.106983	-0.631823
H143	H	0.870301	-1.201620	-0.637870
H144	H	0.783557	-1.308078	-0.662860
H145	H	0.729997	-1.213423	-0.656832
H146	H	0.785283	-1.220044	-0.716566
H147	H	0.731170	-0.699099	-0.449959
H148	H	0.604533	-0.437283	-0.281863
H149	H	0.737676	-0.445582	-0.287190
H150	H	1.095419	-0.889901	-0.293096
C151	C	0.587713	-0.709264	-0.456434
C152	C	0.633987	-0.773458	-0.497614
C153	C	0.595639	-0.841198	-0.541033
H154	H	0.557863	-0.669250	-0.486019
H155	H	0.560168	-0.751702	-0.428362
H156	H	0.661520	-0.731025	-0.525683
H157	H	0.663838	-0.813495	-0.468047
H158	H	0.568094	-0.883636	-0.512961
H159	H	0.565790	-0.801175	-0.570613
H160	H	0.627030	-0.884768	-0.568974
H161	H	1.180383	-1.188902	-0.214980
