data_functionalizedCrystal
_audit_creation_method	'MofGen! by Chris Wilmer'
_symmetry_space_group_name_H-M	'P1'
_symmetry_Int_Tables_number	1
_symmetry_cell_setting	triclinic
loop_
_symmetry_equiv_pos_as_xyz
  x,y,z
_cell_length_a	14.044220
_cell_length_b	9.065218
_cell_length_c	13.101039
_cell_angle_alpha	93.407648
_cell_angle_beta	86.332523
_cell_angle_gamma	89.102381
loop_
_atom_site_label
_atom_site_type_symbol
_atom_site_fract_x
_atom_site_fract_y
_atom_site_fract_z
O1	O	0.133974	1.983258	0.085221
O2	O	0.145387	1.555238	0.085222
O3	O	0.001642	1.762822	0.085211
O4	O	0.277720	1.775673	0.085232
O5	O	0.011972	1.747931	-0.085218
O6	O	0.155718	1.540346	-0.085207
O7	O	0.144305	1.968366	-0.085208
Zn8	Zn	0.151652	1.751992	-0.112267
Zn9	Zn	0.138040	1.771612	0.112281
O10	O	0.288051	1.760782	-0.085197
C11	C	0.149456	1.492684	0.000008
C12	C	0.146176	1.328478	0.000008
C13	C	-0.028556	1.749752	-0.000004
C14	C	-0.133926	1.732975	-0.000005
C15	C	-0.326851	1.702304	0.000010
C16	C	-0.383463	1.821294	0.000013
C17	C	-0.490813	1.804228	0.000021
C18	C	-0.219491	1.719368	0.000002
C19	C	0.318248	1.773852	0.000020
C20	C	0.423617	1.790630	0.000028
C21	C	0.140236	2.030920	0.000008
C22	C	0.143516	2.195127	0.000015
N23	N	0.160941	1.738612	-0.265515
C24	C	0.173587	1.720410	-0.474556
C25	C	0.116101	1.803201	-0.525436
C26	C	0.123137	1.793073	-0.641754
C27	C	0.166552	1.730536	-0.358228
N28	N	0.128744	1.785003	0.265529
H29	H	-0.351311	1.935987	0.000081
C30	C	0.042483	1.909251	-0.466270
N31	N	-0.012959	1.989134	-0.421701
H32	H	0.228085	1.641930	-0.518349
C33	C	-0.370290	1.547376	-0.000003
N34	N	-0.403018	1.430684	-0.000021
