data_functionalizedCrystal
_audit_creation_method	'MofGen! by Chris Wilmer'
_symmetry_space_group_name_H-M	'P1'
_symmetry_Int_Tables_number	1
_symmetry_cell_setting	triclinic
loop_
_symmetry_equiv_pos_as_xyz
  x,y,z
_cell_length_a	14.519731
_cell_length_b	12.996460
_cell_length_c	12.811415
_cell_angle_alpha	95.436997
_cell_angle_beta	83.866903
_cell_angle_gamma	90.005673
loop_
_atom_site_label
_atom_site_type_symbol
_atom_site_fract_x
_atom_site_fract_y
_atom_site_fract_z
O1	O	1.224186	0.098416	0.137698
O2	O	1.724186	0.598416	0.637698
O3	O	0.955751	0.099927	0.153878
O4	O	1.455751	0.599927	0.653878
O5	O	1.096721	0.084911	-0.006992
O6	O	1.596721	0.584911	0.493008
O7	O	1.083216	0.113432	0.298568
O8	O	1.583216	0.613432	0.798568
O9	O	1.096706	-0.086224	-0.007001
O10	O	1.596706	0.413776	0.492999
O11	O	0.955736	-0.071208	0.153869
O12	O	1.455736	0.428792	0.653869
O13	O	1.224171	-0.072719	0.137689
O14	O	1.724171	0.427281	0.637689
Cu15	Cu	1.089952	-0.087589	0.145778
Cu16	Cu	1.589952	0.412411	0.645778
Cu17	Cu	1.089970	0.114797	0.145789
Cu18	Cu	1.589970	0.614797	0.645789
O19	O	1.083201	-0.057702	0.298559
O20	O	1.583201	0.442298	0.798559
C21	C	0.921382	0.014289	0.153115
C22	C	1.421382	0.514289	0.653115
C23	C	0.818996	0.014078	0.150843
C24	C	1.318996	0.514078	0.650843
C25	C	0.735848	0.013909	0.148997
C26	C	1.235848	0.513909	0.648997
C27	C	0.631533	0.013695	0.146691
C28	C	1.131533	0.513695	0.646691
C29	C	0.548390	0.013524	0.144860
C30	C	1.048390	0.513524	0.644860
C31	C	0.444069	0.013311	0.142554
C32	C	0.944069	0.513311	0.642554
N33	N	1.089947	-0.229937	0.145770
N34	N	1.589947	0.270063	0.645770
C35	C	1.089968	-0.649749	0.145790
C36	C	1.589968	-0.149749	0.645790
C37	C	1.089960	-0.532945	0.145788
C38	C	1.589960	-0.032945	0.645788
C39	C	1.089958	-0.439847	0.145781
C40	C	1.589958	0.060153	0.645781
C41	C	1.089948	-0.323035	0.145777
C42	C	1.589948	0.176965	0.645777
C43	C	1.258540	0.012921	0.138452
C44	C	1.758540	0.512921	0.638452
C45	C	1.360926	0.013140	0.140723
C46	C	1.860926	0.513140	0.640723
C47	C	1.095957	-0.004305	-0.046102
C48	C	1.595957	0.495695	0.453898
C49	C	1.093690	-0.015175	-0.162625
C50	C	1.593690	0.484825	0.337375
N51	N	1.089983	0.257144	0.145788
N52	N	1.589983	0.757144	0.645788
C53	C	1.089429	0.150992	-0.381563
C54	C	1.589429	0.650992	0.118437
C55	C	1.087299	0.140784	-0.491047
C56	C	1.587299	0.640784	0.008953
C57	C	1.087293	-0.045798	-0.491078
C58	C	1.587293	0.454202	0.008922
C59	C	1.089423	-0.035590	-0.381594
C60	C	1.589423	0.464410	0.118406
C61	C	1.090492	0.062808	-0.326841
C62	C	1.590492	0.562808	0.173159
C63	C	1.092629	0.073016	-0.217356
C64	C	1.592629	0.573016	0.282644
C65	C	1.092616	-0.113566	-0.217388
C66	C	1.592616	0.386434	0.282612
C67	C	1.090486	-0.123774	-0.326871
C68	C	1.590486	0.376226	0.173129
C69	C	1.083965	0.031515	0.337669
C70	C	1.583965	0.531515	0.837669
C71	C	1.086232	0.042392	0.454192
C72	C	1.586232	0.542392	0.954192
H73	H	1.093503	0.153137	-0.172778
H74	H	1.593503	0.653137	0.327222
Cl75	Cl	1.093962	-0.224432	-0.148589
Cl76	Cl	1.593962	0.275568	0.351411
Cl77	Cl	1.089134	-0.247468	-0.395713
Cl78	Cl	1.589134	0.252532	0.104287
H79	H	1.090308	0.231112	-0.336983
H80	H	1.590308	0.731112	0.163017
Cl81	Cl	1.085921	-0.169488	-0.559924
Cl82	Cl	1.585921	0.330512	-0.059924
Cl83	Cl	1.085960	0.251649	-0.559837
Cl84	Cl	1.585960	0.751649	-0.059837
