data_functionalizedCrystal
_audit_creation_method	'MofGen! by Chris Wilmer'
_symmetry_space_group_name_H-M	'P1'
_symmetry_Int_Tables_number	1
_symmetry_cell_setting	triclinic
loop_
_symmetry_equiv_pos_as_xyz
  x,y,z
_cell_length_a	10.540539
_cell_length_b	10.540539
_cell_length_c	15.021413
_cell_angle_alpha	90.004450
_cell_angle_beta	90.005181
_cell_angle_gamma	95.474508
loop_
_atom_site_label
_atom_site_type_symbol
_atom_site_fract_x
_atom_site_fract_y
_atom_site_fract_z
O1	O	1.685894	-0.178887	0.073986
O2	O	1.316481	-0.195743	0.073996
O3	O	1.509615	-0.002608	0.073989
O4	O	1.492759	-0.372021	0.073992
O5	O	1.509585	-0.002629	-0.074075
O6	O	1.316451	-0.195764	-0.074068
O7	O	1.685864	-0.178908	-0.074079
Zn8	Zn	1.501153	-0.187339	-0.097582
Zn9	Zn	1.501192	-0.187311	0.097499
O10	O	1.492730	-0.372042	-0.074072
C11	C	1.269163	-0.194489	-0.000035
C12	C	1.128215	-0.190707	-0.000030
C13	C	0.944788	-0.045790	-0.000377
C14	C	1.091406	-0.049624	-0.000034
C15	C	1.066559	-0.258590	0.084519
C16	C	0.920015	-0.253775	0.084580
C17	C	0.919492	-0.256670	-0.083796
C18	C	1.066474	-0.257969	-0.084905
C19	C	1.733182	-0.180161	-0.000046
C20	C	1.874130	-0.183943	-0.000044
C21	C	1.508336	0.044684	-0.000041
C22	C	1.504554	0.185632	-0.000036
C23	C	1.494008	-0.419335	-0.000040
C24	C	1.497790	-0.560283	-0.000039
N25	N	1.501135	-0.187357	-0.230719
C26	C	1.359637	0.369059	0.000300
C27	C	1.363471	0.222441	-0.000033
C28	C	1.572433	0.247278	-0.084590
C29	C	1.567618	0.393822	-0.084661
C30	C	1.570521	0.394365	0.083716
C31	C	1.571821	0.247383	0.084833
C32	C	1.412583	-0.277373	-0.529731
C33	C	1.385865	-0.162782	-0.470372
C34	C	1.501191	-0.187305	-0.587756
C35	C	1.527821	-0.301919	-0.470374
C36	C	1.501160	-0.187337	-0.412332
C37	C	1.474415	-0.072655	-0.529704
C38	C	1.616422	-0.211869	-0.529710
C39	C	1.589752	-0.097194	-0.470378
C40	C	1.501205	-0.187289	-0.688814
C41	C	1.501147	-0.187341	-0.311277
N42	N	1.501219	-0.187283	0.230637
H43	H	0.891817	-0.203586	0.147781
N44	N	1.117779	-0.195741	-0.163385
N45	N	1.080862	-0.234892	-0.238452
H46	H	1.117086	-0.190930	-0.293878
N47	N	1.556118	-0.423481	-0.437666
N48	N	1.561561	-0.442656	-0.355698
H49	H	1.581538	-0.528511	-0.332599
H50	H	1.134008	0.003790	-0.060643
H51	H	1.337612	-0.353440	-0.555792
H52	H	1.090699	-0.360829	-0.090009
N53	N	1.738650	-0.237981	-0.562427
N54	N	1.782082	-0.340900	-0.543453
H55	H	1.868406	-0.359356	-0.566559
H56	H	0.872265	-0.358573	-0.084367
N57	N	1.504633	0.429217	-0.163932
N58	N	1.489688	0.543641	-0.178314
H59	H	1.445200	0.568635	-0.234300
N60	N	1.700850	0.216969	0.091239
N61	N	1.745534	0.148992	0.033095
H62	H	1.836664	0.127506	0.037614
H63	H	1.669083	0.441790	-0.088500
H64	H	0.916190	0.009937	-0.061012
H65	H	1.310059	0.179846	0.060579
N66	N	1.702398	0.219207	-0.088536
N67	N	1.728294	0.106047	-0.092264
H68	H	1.820081	0.086216	-0.095049
H69	H	1.288405	-0.142015	-0.444302
N70	N	1.289751	0.404944	0.076375
N71	N	1.340940	0.483018	0.131230
H72	H	1.291584	0.508367	0.184962
N73	N	1.445996	0.048943	-0.562267
N74	N	1.441377	0.068566	-0.644216
H75	H	1.421300	0.154441	-0.667217
N76	N	1.683738	-0.001550	-0.437897
N77	N	1.676526	0.112927	-0.457091
H78	H	1.742899	0.180480	-0.434151
H79	H	1.525256	0.204669	-0.147509
H80	H	0.872046	-0.355240	0.088419
H81	H	0.914593	0.009718	0.059919
N82	N	1.289999	0.406952	-0.075336
N83	N	1.341675	0.485770	-0.129489
H84	H	1.292497	0.512536	-0.182909
H85	H	1.133164	0.004184	0.060678
N86	N	1.119988	-0.199390	0.163450
N87	N	1.049684	-0.150254	0.218014
H88	H	1.087423	-0.108433	0.273755
H89	H	1.088912	-0.362198	0.087665
H90	H	0.887933	-0.211021	-0.147884
H91	H	1.309660	0.180676	-0.060743
H92	H	1.524872	0.425927	0.147802
H93	H	1.672425	0.441591	0.084281
N94	N	1.509587	0.196039	0.163300
N95	N	1.416040	0.114268	0.156811
H96	H	1.372083	0.077999	0.212227
