data_functionalizedCrystal
_audit_creation_method	'MofGen! by Chris Wilmer'
_symmetry_space_group_name_H-M	'P1'
_symmetry_Int_Tables_number	1
_symmetry_cell_setting	triclinic
loop_
_symmetry_equiv_pos_as_xyz
  x,y,z
_cell_length_a	13.033293
_cell_length_b	16.959454
_cell_length_c	13.033109
_cell_angle_alpha	82.842641
_cell_angle_beta	74.800007
_cell_angle_gamma	82.806975
loop_
_atom_site_label
_atom_site_type_symbol
_atom_site_fract_x
_atom_site_fract_y
_atom_site_fract_z
Zn1	Zn	1.700258	0.229031	-0.807192
Zn2	Zn	1.677574	0.346340	-0.629571
Zn3	Zn	1.500062	0.229046	-0.606995
Zn4	Zn	1.522570	0.376048	-0.784547
O5	O	1.600116	0.295116	-0.707076
O6	O	1.845901	0.232153	-0.802556
O7	O	1.635114	0.318353	-0.477935
O8	O	1.526692	0.118428	-0.633580
O9	O	1.829236	0.318339	-0.672059
O10	O	1.673775	0.118418	-0.780664
O11	O	1.504696	0.232178	-0.461348
O12	O	1.354395	0.260985	-0.611622
O13	O	1.565054	0.368973	-0.936192
O14	O	1.370932	0.368987	-0.742068
O15	O	1.695600	0.260960	-0.952829
O16	O	1.656939	0.460896	-0.650100
O17	O	1.543058	0.482722	-0.763960
C18	C	1.324120	0.318212	-0.671938
C19	C	1.206051	0.328114	-0.656931
C20	C	1.161670	0.289968	-0.714908
C21	C	1.039639	0.300201	-0.699399
C22	C	1.600012	0.500490	-0.707050
C23	C	1.600069	0.588344	-0.707086
C24	C	1.540873	0.971206	-0.766377
C25	C	1.659583	0.948417	-0.647939
C26	C	1.659550	0.865873	-0.647924
C27	C	1.600176	0.835992	-0.707135
C28	C	1.540836	0.888654	-0.766361
C29	C	1.718881	0.813205	-0.588690
C30	C	1.718849	0.730655	-0.588671
C31	C	1.659481	0.700772	-0.647888
C32	C	1.600139	0.753440	-0.707118
C33	C	1.540765	0.723559	-0.766329
C34	C	1.481429	0.776225	-0.825566
C35	C	1.481468	0.858771	-0.825579
C36	C	1.659442	0.618226	-0.647875
C37	C	1.540728	0.641007	-0.766313
C38	C	1.877190	0.271930	-0.742352
C39	C	1.995262	0.262050	-0.757384
C40	C	1.600237	1.088942	-0.707133
C41	C	1.600247	1.001087	-0.707167
C42	C	1.635368	0.318279	-0.984129
C43	C	1.650390	0.328150	-1.102193
C44	C	1.592560	0.289912	-1.146622
C45	C	1.608085	0.300113	-1.268647
C46	C	1.565062	0.271981	-0.431109
C47	C	1.550246	0.261871	-0.313072
H48	H	1.153704	0.368346	-0.595812
O49	O	1.477538	0.213807	-1.250542
C50	C	1.395693	0.159884	-1.071896
C51	C	1.478087	0.214323	-1.142588
H52	H	1.396093	0.160296	-0.984600
H53	H	1.417127	0.096365	-1.095954
H54	H	1.312796	0.182735	-1.082804
H55	H	1.561012	0.191544	-1.131716
H56	H	1.456561	0.277833	-1.118514
H57	H	1.433158	0.901659	-0.873805
O58	O	1.423922	0.747154	-0.883214
C59	C	1.427722	0.667071	-1.024696
C60	C	1.492976	0.699961	-0.959512
H61	H	1.483522	0.628896	-1.086383
H62	H	1.385347	0.718855	-1.067121
H63	H	1.365965	0.629068	-0.968778
H64	H	1.554787	0.737954	-1.015356
H65	H	1.535276	0.648141	-0.917073
H66	H	1.492383	0.616684	-0.814534
H67	H	1.492566	1.014090	-0.814610
O68	O	1.717188	0.977575	-0.590475
C69	C	1.769695	1.094647	-0.537852
C70	C	1.704454	1.061731	-0.603027
H71	H	1.759404	1.162691	-0.547960
H72	H	1.857748	1.072839	-0.567431
H73	H	1.740168	1.072771	-0.449844
H74	H	1.733888	1.083593	-0.691048
H75	H	1.616412	1.083533	-0.573360
O76	O	1.680860	0.348120	-1.331188
C77	C	1.762612	0.402115	-1.509824
C78	C	1.680175	0.347713	-1.439123
H79	H	1.762070	0.401817	-1.597101
H80	H	1.845562	0.379259	-1.499066
H81	H	1.741179	0.465595	-1.485625
H82	H	1.701509	0.284219	-1.463276
H83	H	1.597249	0.370635	-1.449889
O84	O	1.057856	0.214106	-0.830293
C85	C	1.236545	0.160130	-0.912149
C86	C	1.165787	0.214463	-0.829563
H87	H	1.323819	0.160388	-0.911571
H88	H	1.225786	0.183076	-0.995057
H89	H	1.212397	0.096650	-0.890904
H90	H	1.189890	0.277957	-0.850709
H91	H	1.176554	0.191451	-0.746679
O92	O	1.723161	0.376154	-1.164737
C93	C	1.804914	0.430148	-1.343373
C94	C	1.722477	0.375746	-1.272673
H95	H	1.804372	0.429850	-1.430651
H96	H	1.887863	0.407293	-1.332616
H97	H	1.783480	0.493629	-1.319175
H98	H	1.743810	0.312252	-1.296826
H99	H	1.639550	0.398668	-1.283438
H100	H	1.767211	0.837541	-0.540474
O101	O	1.776590	0.679610	-0.531118
C102	C	1.894295	0.665725	-0.413601
C103	C	1.828968	0.723624	-0.478745
H104	H	1.936642	0.701288	-0.371222
H105	H	1.956061	0.626490	-0.469435
H106	H	1.838476	0.626527	-0.351853
H107	H	1.884704	0.762874	-0.540497
H108	H	1.767191	0.762804	-0.422844
H109	H	1.707748	0.575349	-0.599640
H110	H	1.214016	0.249731	-0.776022
H111	H	1.531551	0.249628	-1.094321
H112	H	0.987296	0.340436	-0.638275
