data_functionalizedCrystal
_audit_creation_method	'MofGen! by Chris Wilmer'
_symmetry_space_group_name_H-M	'P1'
_symmetry_Int_Tables_number	1
_symmetry_cell_setting	triclinic
loop_
_symmetry_equiv_pos_as_xyz
  x,y,z
_cell_length_a	16.992694
_cell_length_b	16.992695
_cell_length_c	9.730223
_cell_angle_alpha	89.995534
_cell_angle_beta	90.001901
_cell_angle_gamma	90.668223
loop_
_atom_site_label
_atom_site_type_symbol
_atom_site_fract_x
_atom_site_fract_y
_atom_site_fract_z
O1	O	1.050850	0.166916	-0.114119
O2	O	0.822450	0.165085	-0.114159
O3	O	0.935734	0.051800	-0.114128
O4	O	0.937565	0.280200	-0.114150
O5	O	0.935725	0.051797	0.114452
O6	O	0.822441	0.165082	0.114421
O7	O	1.050841	0.166913	0.114461
Zn8	Zn	0.936639	0.165997	0.150733
Zn9	Zn	0.936651	0.166001	-0.150431
O10	O	0.937556	0.280197	0.114430
C11	C	0.793085	0.162727	0.000125
C12	C	0.705600	0.155699	0.000110
C13	C	0.933374	0.022439	0.000161
C14	C	0.926345	-0.065046	0.000159
C15	C	0.659610	0.223517	0.000105
C16	C	0.577409	0.216908	0.000125
C17	C	0.541201	0.142480	0.000140
C18	C	0.587198	0.074657	0.000149
C19	C	0.669397	0.081267	0.000139
C20	C	0.295886	0.115086	0.000179
C21	C	0.213681	0.108481	0.000185
C22	C	0.203898	0.250732	0.000163
C23	C	0.286099	0.257336	0.000145
C24	C	0.332089	0.189512	0.000161
N25	N	0.457178	0.135723	0.000155
N26	N	0.416110	0.196270	0.000155
C27	C	0.994163	-0.111037	0.000173
C28	C	0.987554	-0.193238	0.000159
C29	C	0.913127	-0.229446	0.000141
C30	C	0.845303	-0.183449	0.000123
C31	C	0.851913	-0.101250	0.000128
C32	C	0.885732	-0.474760	0.000117
C33	C	0.879127	-0.556966	0.000117
C34	C	1.021379	-0.566749	0.000150
C35	C	1.027982	-0.484547	0.000162
C36	C	0.960159	-0.438558	0.000137
N37	N	0.906369	-0.313468	0.000131
N38	N	0.966917	-0.354537	0.000138
C39	C	1.080205	0.169270	0.000173
C40	C	1.167690	0.176299	0.000179
C41	C	0.939917	0.309559	0.000138
C42	C	0.946945	0.397044	0.000130
N43	N	0.936637	0.165994	0.356269
C44	C	0.986818	0.115855	0.428209
C45	C	0.986826	0.115856	0.572092
C46	C	0.886468	0.216141	0.572083
C47	C	0.886457	0.216136	0.428202
N48	N	0.936655	0.166000	0.644032
H49	H	0.689084	0.284124	0.000092
H50	H	0.796688	-0.063804	0.000116
H51	H	0.539966	0.272133	0.000119
F52	F	0.175147	0.029261	0.000225
H53	H	0.818517	-0.586443	0.000124
H54	H	0.845590	0.256965	0.369625
F55	F	0.813548	-0.425825	0.000087
H56	H	0.315574	0.317942	0.000116
F57	F	1.040222	0.062488	0.351658
F58	F	1.040234	0.062490	0.648651
H59	H	1.042779	-0.230680	0.000173
H60	H	0.784703	-0.212936	0.000100
F61	F	1.107198	-0.446018	0.000146
H62	H	1.076596	-0.604202	0.000167
H63	H	0.845613	0.256967	0.630665
H64	H	0.166444	0.305950	0.000152
H65	H	0.557710	0.014056	0.000181
F66	F	0.718344	0.009085	0.000150
F67	F	0.344822	0.042901	0.000196
H68	H	1.054770	-0.081563	0.000196
