data_functionalizedCrystal
_audit_creation_method	'MofGen! by Chris Wilmer'
_symmetry_space_group_name_H-M	'P1'
_symmetry_Int_Tables_number	1
_symmetry_cell_setting	triclinic
loop_
_symmetry_equiv_pos_as_xyz
  x,y,z
_cell_length_a	16.109302
_cell_length_b	10.654550
_cell_length_c	14.586319
_cell_angle_alpha	89.996358
_cell_angle_beta	89.994552
_cell_angle_gamma	83.973356
loop_
_atom_site_label
_atom_site_type_symbol
_atom_site_fract_x
_atom_site_fract_y
_atom_site_fract_z
O1	O	1.104090	0.161423	-0.076281
O2	O	0.862148	0.181511	-0.076274
O3	O	0.988682	-0.011348	-0.076272
O4	O	0.977556	0.354282	-0.076283
O5	O	0.988673	-0.011350	0.076209
O6	O	0.862139	0.181508	0.076207
O7	O	1.104081	0.161420	0.076200
Cu8	Cu	0.983109	0.171464	0.090126
Cu9	Cu	0.983120	0.171467	-0.090200
O10	O	0.977547	0.354279	0.076198
C11	C	0.831164	0.180695	-0.000033
C12	C	0.738854	0.178255	-0.000030
C13	C	0.526474	0.172612	0.083079
C14	C	0.439741	0.170306	0.083075
C15	C	0.439761	0.170316	-0.083168
C16	C	0.526494	0.172613	-0.083163
C17	C	0.569848	0.173767	-0.000038
C18	C	0.396381	0.169164	-0.000045
C19	C	0.302341	0.166664	-0.000049
C20	C	0.663895	0.176265	-0.000033
C21	C	0.987860	-0.058136	-0.000032
C22	C	0.985416	-0.197546	-0.000033
C23	C	1.059917	-0.278042	-0.000036
C24	C	1.057616	-0.409032	-0.000047
C25	C	0.906306	-0.379016	-0.000049
C26	C	0.908608	-0.248029	-0.000045
C27	C	1.145364	-0.606066	-0.053476
C28	C	1.219869	-0.686567	-0.053463
C29	C	1.287407	-0.657312	-0.000029
C30	C	1.280443	-0.547558	0.053413
C31	C	1.205936	-0.467063	0.053408
C32	C	1.138401	-0.496317	-0.000047
C33	C	0.820866	-0.050994	0.053391
C34	C	0.746358	0.029503	0.053393
C35	C	0.678813	0.000252	-0.000035
C36	C	0.685769	-0.109504	-0.053463
C37	C	0.760277	-0.190001	-0.053465
C38	C	0.827822	-0.160741	-0.000039
C39	C	1.135065	0.162236	-0.000044
C40	C	1.227375	0.164676	-0.000053
C41	C	0.978369	0.401067	-0.000044
C42	C	0.980813	0.540477	-0.000049
N43	N	0.983108	0.171461	0.216958
N44	N	0.983128	0.171460	-0.217032
C45	C	1.039156	0.086092	0.451965
C46	C	1.039158	0.086089	0.547946
C47	C	0.927074	0.256834	0.547954
C48	C	0.927068	0.256830	0.451974
C49	C	0.983114	0.171460	0.403982
C50	C	0.983122	0.171461	0.595943
C51	C	0.983124	0.171458	0.700010
C52	C	0.983111	0.171461	0.299909
H53	H	0.561810	0.173550	-0.150851
Cl54	Cl	0.737606	0.167465	0.120584
Cl55	Cl	0.856622	0.364155	0.608291
H56	H	1.225534	-0.775927	-0.096982
Cl57	Cl	1.197176	-0.329098	0.120588
H58	H	0.561771	0.173552	0.150765
Cl59	Cl	1.156476	-0.214582	-0.000024
Cl60	Cl	0.385218	0.168856	0.187569
Cl61	Cl	0.385255	0.168834	-0.187663
H62	H	0.630761	-0.133338	-0.096950
Cl63	Cl	1.365351	-0.510795	0.120597
H64	H	1.348070	-0.722865	-0.000020
H65	H	1.084792	0.016573	0.587011
Cl66	Cl	0.905783	-0.014209	0.120558
Cl67	Cl	0.856605	0.364152	0.391647
H68	H	1.090377	-0.629888	-0.096999
H69	H	0.843771	-0.420136	-0.000057
Cl70	Cl	0.769021	-0.327983	-0.120634
H71	H	0.618142	0.065796	-0.000017
H72	H	1.084791	0.016577	0.412892
