data_functionalizedCrystal
_audit_creation_method	'MofGen! by Chris Wilmer'
_symmetry_space_group_name_H-M	'P1'
_symmetry_Int_Tables_number	1
_symmetry_cell_setting	triclinic
loop_
_symmetry_equiv_pos_as_xyz
  x,y,z
_cell_length_a	13.897449
_cell_length_b	21.295412
_cell_length_c	13.897448
_cell_angle_alpha	89.975155
_cell_angle_beta	90.018519
_cell_angle_gamma	89.975000
loop_
_atom_site_label
_atom_site_type_symbol
_atom_site_fract_x
_atom_site_fract_y
_atom_site_fract_z
Zn1	Zn	1.474718	-0.355962	-0.384018
Zn2	Zn	1.474607	-0.250698	-0.545323
Zn3	Zn	1.313403	-0.250704	-0.384046
Zn4	Zn	1.313389	-0.355927	-0.545275
O5	O	1.394029	-0.303323	-0.464665
O6	O	1.609685	-0.342010	-0.405423
O7	O	1.453183	-0.162609	-0.523962
O8	O	1.334853	-0.264684	-0.249061
O9	O	1.609604	-0.264673	-0.523934
O10	O	1.453371	-0.342016	-0.249040
O11	O	1.334746	-0.162614	-0.405472
O12	O	1.178419	-0.264650	-0.405425
O13	O	1.334830	-0.444021	-0.523851
O14	O	1.178409	-0.341957	-0.523879
O15	O	1.453358	-0.444047	-0.405377
O16	O	1.453169	-0.264640	-0.680298
O17	O	1.334723	-0.341951	-0.680263
C18	C	1.143415	-0.303301	-0.464651
C19	C	1.036201	-0.303306	-0.464667
C20	C	1.394105	-0.467513	-0.464605
C21	C	1.394137	-0.537481	-0.464580
C22	C	0.949131	-0.303317	-0.464671
C23	C	0.839899	-0.303336	-0.464677
C24	C	1.332483	-0.570340	-0.402875
C25	C	1.332480	-0.636083	-0.402857
C26	C	1.394147	-0.668964	-0.464534
C27	C	1.455805	-0.636097	-0.526250
C28	C	1.455800	-0.570355	-0.526273
N29	N	1.478587	-0.772204	-0.471899
N30	N	1.478589	-0.834655	-0.471872
C31	C	1.394165	-0.867039	-0.464470
N32	N	1.309737	-0.834611	-0.457077
N33	N	1.309736	-0.772154	-0.457100
C34	C	1.394159	-0.740249	-0.464516
C35	C	1.332503	-0.971183	-0.402742
C36	C	1.332497	-1.036927	-0.402731
C37	C	1.455831	-1.036940	-0.526119
C38	C	1.455828	-0.971197	-0.526135
C39	C	1.394165	-0.938323	-0.464442
C40	C	1.645622	-0.303345	-0.464681
C41	C	1.752836	-0.303355	-0.464688
C42	C	1.393959	-0.303305	-0.715280
C43	C	1.394017	-0.303318	-0.822494
C44	C	1.394009	-0.139771	-0.464656
C45	C	1.394164	-0.069803	-0.464409
C46	C	1.394118	-0.303357	-1.018789
C47	C	1.394059	-0.303337	-0.909556
C48	C	1.394126	-0.303355	-0.213072
C49	C	1.394167	-0.303368	-0.105858
H50	H	1.282269	-0.543578	-0.352643
N51	N	1.265984	-0.935722	-0.336219
H52	H	1.275340	-0.889089	-0.345591
H53	H	1.281020	-0.947229	-0.267326
H54	H	1.282285	-1.063680	-0.352487
H55	H	1.282276	-0.662842	-0.352605
H56	H	1.506015	-0.662873	-0.576468
N57	N	1.522347	-1.072397	-0.592639
H58	H	1.561408	-1.041601	-0.631731
H59	H	1.483066	-1.099656	-0.637267
H60	H	1.506035	-0.944443	-0.576379
N61	N	1.522299	-0.534911	-0.592830
H62	H	1.561364	-0.565714	-0.631903
H63	H	1.566954	-0.507652	-0.553578
