data_functionalizedCrystal
_audit_creation_method	'MofGen! by Chris Wilmer'
_symmetry_space_group_name_H-M	'P1'
_symmetry_Int_Tables_number	1
_symmetry_cell_setting	triclinic
loop_
_symmetry_equiv_pos_as_xyz
  x,y,z
_cell_length_a	16.120530
_cell_length_b	25.639239
_cell_length_c	16.120256
_cell_angle_alpha	87.129551
_cell_angle_beta	89.871735
_cell_angle_gamma	87.134054
loop_
_atom_site_label
_atom_site_type_symbol
_atom_site_fract_x
_atom_site_fract_y
_atom_site_fract_z
Zn1	Zn	1.247329	-0.264893	0.534538
Zn2	Zn	1.254246	-0.348122	0.395471
Zn3	Zn	1.115324	-0.256055	0.388456
Zn4	Zn	1.108202	-0.347643	0.527441
O5	O	1.181275	-0.304178	0.461477
O6	O	1.364612	-0.279833	0.521996
O7	O	1.241692	-0.332411	0.278175
O8	O	1.132920	-0.184066	0.407869
O9	O	1.369693	-0.340981	0.419824
O10	O	1.229905	-0.190559	0.515195
O11	O	1.139627	-0.264770	0.273021
O12	O	0.998014	-0.264306	0.400987
O13	O	1.120783	-0.340164	0.644748
O14	O	0.992782	-0.331595	0.503098
O15	O	1.222999	-0.279368	0.649962
O16	O	1.234787	-0.421220	0.412942
O17	O	1.127489	-0.420868	0.509900
C18	C	0.965226	-0.296940	0.450512
C19	C	0.872798	-0.293856	0.445841
C20	C	0.703571	-0.288214	0.437320
C21	C	0.659817	-0.320183	0.485694
C22	C	0.565653	-0.317044	0.480953
C23	C	0.797744	-0.291352	0.442060
C24	C	1.181137	-0.440015	0.461431
C25	C	1.181153	-0.498130	0.461444
C26	C	1.237279	-0.858676	0.411088
C27	C	1.237311	-0.913282	0.411101
O28	O	1.284888	-0.941668	0.368238
N29	N	1.181419	-0.940424	0.461539
C30	C	1.125497	-0.912958	0.511974
O31	O	1.077959	-0.941059	0.554877
C32	C	1.125470	-0.858354	0.511965
C33	C	1.181360	-0.831214	0.461517
C34	C	1.293166	-0.831536	0.360646
C35	C	1.293133	-0.776934	0.360632
C36	C	1.237213	-0.749472	0.411061
C37	C	1.181327	-0.776612	0.461504
C38	C	1.069552	-0.830889	0.562404
C39	C	1.069530	-0.776281	0.562391
C40	C	1.125421	-0.749141	0.511943
C41	C	1.125375	-0.694548	0.511919
N42	N	1.181267	-0.667405	0.461481
C43	C	1.237186	-0.694868	0.411052
C44	C	1.125559	-1.027631	0.511990
C45	C	1.125581	-1.082234	0.511995
C46	C	1.237396	-1.082554	0.411123
C47	C	1.237369	-1.027950	0.411114
C48	C	1.181451	-1.000489	0.461552
C49	C	1.237112	-0.580199	0.411026
C50	C	1.237072	-0.525592	0.411015
C51	C	1.125260	-0.525277	0.511889
C52	C	1.125297	-0.579879	0.511898
C53	C	1.181230	-0.607339	0.461464
O54	O	1.077824	-0.666127	0.554763
O55	O	1.284723	-0.666761	0.368164
C56	C	1.398168	-0.311446	0.472484
C57	C	1.490595	-0.314543	0.477175
C58	C	1.170325	-0.310699	0.678371
C59	C	1.165659	-0.313477	0.770798
C60	C	1.181435	-0.167813	0.461541
C61	C	1.181504	-0.109701	0.461569
C62	C	1.192230	-0.297647	0.245428
C63	C	1.197058	-0.294727	0.153010
C64	C	1.205608	-0.289675	0.983785
C65	C	1.157112	-0.318528	0.940018
C66	C	1.161869	-0.315717	0.845855
C67	C	1.200852	-0.292485	1.077956
H68	H	1.282585	-0.503497	0.369931
H69	H	0.693076	-0.349910	0.530669
O70	O	0.663771	-0.252799	0.383686
C71	C	0.577251	-0.257508	0.390846
H72	H	0.564096	-0.298313	0.417388
H73	H	0.550401	-0.227067	0.434001
C74	C	0.552939	-0.198533	0.271918
C75	C	0.536782	-0.248652	0.304511
H76	H	0.527974	-0.193068	0.218665
H77	H	0.611229	-0.195358	0.267096
H78	H	0.530564	-0.173171	0.307889
H79	H	0.559166	-0.274013	0.268547
H80	H	0.478495	-0.251831	0.309326
H81	H	1.282660	-0.602551	0.369960
O82	O	1.071315	-1.108674	0.560918
C83	C	1.083341	-1.162761	0.550141
H84	H	1.113867	-1.169206	0.487377
H85	H	1.125100	-1.181178	0.601752
C86	C	0.961337	-1.180340	0.630526
C87	C	0.998824	-1.188257	0.553434
H88	H	0.909204	-1.196068	0.632560
H89	H	0.953237	-1.143901	0.637789
H90	H	0.996145	-1.195687	0.673526
H91	H	0.964021	-1.172904	0.510436
H92	H	1.006916	-1.224694	0.546163
O93	O	1.347513	-0.750658	0.311613
C94	C	1.396858	-0.786614	0.267100
H95	H	1.397994	-0.826647	0.301320
H96	H	1.369658	-0.789539	0.202376
C97	C	1.484570	-0.718696	0.217656
C98	C	1.485972	-0.767863	0.259689
H99	H	1.539539	-0.707129	0.213081
H100	H	1.451324	-0.694470	0.247643
H101	H	1.461899	-0.721139	0.163723
H102	H	1.508632	-0.765417	0.313624
H103	H	1.519224	-0.792088	0.229711
O104	O	1.347618	-0.858223	0.311805
C105	C	1.398904	-0.892973	0.361948
H106	H	1.400598	-0.878645	0.427708
H107	H	1.373127	-0.933613	0.363459
C108	C	1.485378	-0.912987	0.245083
C109	C	1.487465	-0.895387	0.325848
H110	H	1.540006	-0.914478	0.222814
H111	H	1.450824	-0.889577	0.211299
H112	H	1.463893	-0.946852	0.246353
H113	H	1.508939	-0.861520	0.324576
H114	H	1.522024	-0.918791	0.359631
H115	H	1.023996	-0.753925	0.603466
O116	O	1.070974	-0.606166	0.560976
C117	C	1.021595	-0.570214	0.605464
H118	H	1.055479	-0.532491	0.610080
H119	H	0.959999	-0.561432	0.571759
C120	C	0.963474	-0.640094	0.687685
C121	C	1.005094	-0.593764	0.693361
H122	H	0.953291	-0.654621	0.741903
H123	H	0.996738	-0.664316	0.657711
H124	H	0.912148	-0.632769	0.659594
H125	H	1.056423	-0.601090	0.721442
H126	H	0.971837	-0.569543	0.723342
H127	H	1.079729	-0.502909	0.552946
O128	O	1.291745	-1.109323	0.362275
C129	C	1.279795	-1.163338	0.373125
H130	H	1.249194	-1.171792	0.435860
H131	H	1.238132	-1.175942	0.321483
C132	C	1.401940	-1.183509	0.292940
C133	C	1.364362	-1.193894	0.369995
H134	H	1.454104	-1.202359	0.291006
H135	H	1.409990	-1.147118	0.285627
H136	H	1.367213	-1.194013	0.249913
H137	H	1.399085	-1.183384	0.413019
H138	H	1.356320	-1.230284	0.377315
H139	H	1.112016	-0.345337	0.973266
O140	O	1.071148	-1.001036	0.561003
C141	C	1.021842	-1.036708	0.605533
H142	H	1.020739	-1.074520	0.571327
H143	H	1.049054	-1.045400	0.670257
C144	C	0.934070	-0.966412	0.654963
C145	C	0.932709	-1.012852	0.612947
H146	H	0.879089	-0.951696	0.659541
H147	H	0.967290	-0.942379	0.624966
H148	H	0.956750	-0.973662	0.708896
H149	H	0.910038	-1.005600	0.559012
H150	H	0.899483	-1.036883	0.642936
H151	H	1.282880	-1.005856	0.370036
O152	O	1.015232	-0.857165	0.611489
C153	C	0.965868	-0.821205	0.655979
H154	H	0.999767	-0.783487	0.660591
H155	H	0.904272	-0.812415	0.622277
C156	C	0.907727	-0.891075	0.738206
C157	C	0.949365	-0.844751	0.743878
H158	H	0.897543	-0.905599	0.792425
H159	H	0.940982	-0.915302	0.708231
H160	H	0.856402	-0.883743	0.710118
H161	H	1.000694	-0.852084	0.771956
H162	H	0.916119	-0.820526	0.773860
H163	H	1.250696	-0.262865	0.950539
