data_functionalizedCrystal
_audit_creation_method	'MofGen! by Chris Wilmer'
_symmetry_space_group_name_H-M	'P1'
_symmetry_Int_Tables_number	1
_symmetry_cell_setting	triclinic
loop_
_symmetry_equiv_pos_as_xyz
  x,y,z
_cell_length_a	17.639044
_cell_length_b	17.637015
_cell_length_c	17.640968
_cell_angle_alpha	109.664735
_cell_angle_beta	92.161917
_cell_angle_gamma	92.205003
loop_
_atom_site_label
_atom_site_type_symbol
_atom_site_fract_x
_atom_site_fract_y
_atom_site_fract_z
Zn1	Zn	1.126269	-0.519356	0.113654
Zn2	Zn	1.626269	-0.019356	0.613654
Zn3	Zn	1.065408	-0.669685	-0.036627
Zn4	Zn	1.565408	-0.169685	0.463373
Zn5	Zn	0.976008	-0.509182	0.013985
Zn6	Zn	1.476008	-0.009182	0.513985
Zn7	Zn	0.975978	-0.619107	0.123871
Zn8	Zn	1.475978	-0.119107	0.623871
O9	O	1.035916	-0.579333	0.053721
O10	O	1.535916	-0.079333	0.553721
O11	O	1.218507	-0.564723	0.068262
O12	O	1.718507	-0.064723	0.568262
O13	O	1.028091	-0.665303	-0.138794
O14	O	1.528091	-0.165303	0.361206
O15	O	1.021423	-0.401615	0.044111
O16	O	1.521423	0.098385	0.544111
O17	O	1.173793	-0.675169	-0.042149
O18	O	1.673793	-0.175169	0.457851
O19	O	1.131819	-0.409090	0.117338
O20	O	1.631819	0.090910	0.617338
O21	O	0.962409	-0.547382	-0.101610
O22	O	1.462409	-0.047382	0.398390
O23	O	0.875692	-0.498339	0.054018
O24	O	1.375692	0.001661	0.554018
O25	O	1.021372	-0.588966	0.231396
O26	O	1.521372	-0.088966	0.731396
O27	O	0.875670	-0.579101	0.134751
O28	O	1.375670	-0.079101	0.634751
O29	O	1.131790	-0.515680	0.223890
O30	O	1.631790	-0.015680	0.723890
O31	O	1.028062	-0.771893	-0.032242
O32	O	1.528062	-0.271893	0.467758
O33	O	0.962358	-0.734734	0.085675
O34	O	1.462358	-0.234734	0.585675
C35	C	0.849672	-0.532128	0.100986
C36	C	1.349672	-0.032128	0.600986
C37	C	0.769996	-0.511950	0.121221
C38	C	1.269996	-0.011950	0.621221
C39	C	0.680972	-0.426076	0.207287
C40	C	1.180972	0.073924	0.707287
C41	C	0.755838	-0.445043	0.188266
C42	C	1.255838	0.054957	0.688266
C43	C	0.709287	-0.559913	0.073169
C44	C	1.209287	-0.059913	0.573169
C45	C	0.634417	-0.540952	0.092178
C46	C	1.134417	-0.040952	0.592178
C47	C	0.620266	-0.474033	0.159239
C48	C	1.120266	0.025967	0.659239
C49	C	0.573710	-0.588910	0.044129
C50	C	1.073710	-0.088910	0.544129
C51	C	0.498846	-0.569953	0.063140
C52	C	0.998846	-0.069953	0.563140
C53	C	0.484689	-0.503039	0.130199
C54	C	0.984689	-0.003039	0.630199
C55	C	0.545402	-0.455077	0.178249
C56	C	1.045402	0.044923	0.678249
C57	C	0.587862	-0.655832	-0.022927
C58	C	1.087862	-0.155832	0.477073
C59	C	0.527156	-0.703790	-0.070976
C60	C	1.027156	-0.203790	0.429024
C61	C	0.452290	-0.684830	-0.051969
C62	C	0.952290	-0.184830	0.448031
C63	C	0.438133	-0.617916	0.015090
C64	C	0.938133	-0.117916	0.515090
C65	C	0.391577	-0.732793	-0.100020
C66	C	0.891577	-0.232793	0.399980
C67	C	0.316713	-0.713836	-0.081009
C68	C	0.816713	-0.213836	0.418991
C69	C	0.363269	-0.598959	0.034100
C70	C	0.863269	-0.098959	0.534100
C71	C	0.988626	-0.781557	0.022345
C72	C	1.488626	-0.281557	0.522345
C73	C	0.968467	-0.868082	0.008932
C74	C	1.468467	-0.368082	0.508932
C75	C	0.882595	-0.986226	-0.048156
C76	C	1.382595	-0.486226	0.451844
C77	C	0.901544	-0.904923	-0.035547
C78	C	1.401544	-0.404923	0.464453
C79	C	1.016470	-0.912537	0.040817
C80	C	1.516470	-0.412537	0.540817
C81	C	0.997532	-0.993843	0.028212
C82	C	1.497532	-0.493843	0.528212
C83	C	0.930594	-1.030681	-0.016274
C84	C	1.430594	-0.530681	0.483726
C85	C	1.045531	-1.038298	0.060093
C86	C	1.545531	-0.538298	0.560093
C87	C	1.026593	-1.119596	0.047492
C88	C	1.526593	-0.619596	0.547492
C89	C	0.959656	-1.156439	0.003010
C90	C	1.459656	-0.656439	0.503010
C91	C	0.911655	-1.111979	-0.028875
C92	C	1.411655	-0.611979	0.471125
C93	C	1.112467	-1.001458	0.104584
C94	C	1.612467	-0.501458	0.604584
C95	C	1.160466	-1.045913	0.136466
C96	C	1.660466	-0.545913	0.636466
C97	C	1.141530	-1.127214	0.123860
C98	C	1.641530	-0.627214	0.623860
C99	C	1.074594	-1.164057	0.079378
C100	C	1.574594	-0.664057	0.579378
C101	C	1.189531	-1.171674	0.155746
C102	C	1.689531	-0.671674	0.655746
C103	C	1.170593	-1.252972	0.143145
C104	C	1.670593	-0.752972	0.643145
C105	C	1.055655	-1.245355	0.066777
C106	C	1.555655	-0.745355	0.566777
C107	C	1.222887	-0.626722	0.006271
C108	C	1.722887	-0.126722	0.506271
C109	C	1.302563	-0.646917	-0.013949
C110	C	1.802563	-0.146917	0.486051
C111	C	1.083367	-0.547816	0.256664
C112	C	1.583367	-0.047816	0.756664
C113	C	1.103588	-0.534385	0.343146
C114	C	1.603588	-0.034385	0.843146
C115	C	1.083413	-0.376321	0.085231
C116	C	1.583413	0.123679	0.585231
C117	C	1.103654	-0.289810	0.098658
C118	C	1.603654	0.210190	0.598658
C119	C	0.988703	-0.610681	-0.148435
C120	C	1.488703	-0.110681	0.351565
C121	C	0.968673	-0.623928	-0.234918
C122	C	1.468673	-0.123928	0.265082
C123	C	0.882674	-0.681010	0.647108
C124	C	1.382674	-0.181010	1.147108
C125	C	0.901692	-0.668384	0.728369
C126	C	1.401692	-0.168384	1.228369
C127	C	1.016660	-0.592077	0.720543
C128	C	1.516660	-0.092077	1.220543
C129	C	0.997650	-0.604693	0.639281
C130	C	1.497650	-0.104693	1.139281
C131	C	0.930656	-0.649161	0.602570
C132	C	1.430656	-0.149161	1.102570
C133	C	1.045632	-0.572844	0.594742
C134	C	1.545632	-0.072844	1.094742
C135	C	1.026625	-0.585464	0.513486
C136	C	1.526625	-0.085464	1.013486
C137	C	0.959636	-0.629932	0.476768
C138	C	1.459636	-0.129932	0.976768
C139	C	0.911649	-0.661780	0.521313
C140	C	1.411649	-0.161780	1.021313
C141	C	1.112629	-0.528382	0.631453
C142	C	1.612629	-0.028382	1.131453
C143	C	1.160611	-0.496533	0.586915
C144	C	1.660611	0.003467	1.086915
C145	C	1.141602	-0.509147	0.505659
C146	C	1.641602	-0.009147	1.005659
C147	C	1.074612	-0.553615	0.468941
C148	C	1.574612	-0.053615	0.968941
C149	C	1.189588	-0.477298	0.461114
C150	C	1.689588	0.022702	0.961114
C151	C	1.170581	-0.489917	0.379857
C152	C	1.670581	0.010083	0.879857
C153	C	1.055605	-0.566234	0.387685
C154	C	1.555605	-0.066234	0.887685
H155	H	0.267283	-0.752889	-0.120134
H156	H	0.767283	-0.252889	0.379866
Cl157	Cl	0.345474	-0.514822	0.118397
Cl158	Cl	0.845474	-0.014822	0.618397
H159	H	1.070971	-0.882534	0.077041
H160	H	1.570971	-0.382534	0.577041
H161	H	0.805266	-0.405983	0.227396
H162	H	1.305266	0.094017	0.727396
Cl163	Cl	0.390573	-0.479207	0.154100
Cl164	Cl	0.890573	0.020793	0.654100
Cl165	Cl	0.935742	-0.645802	0.374615
Cl166	Cl	1.435742	-0.145802	0.874615
Cl167	Cl	1.273671	-1.125350	0.211683
Cl168	Cl	1.773671	-0.625350	0.711683
H169	H	0.862451	-0.868730	-0.061512
H170	H	1.362451	-0.368730	0.438488
H171	H	0.720820	-0.614399	0.018570
H172	H	1.220820	-0.114399	0.518570
H173	H	1.128103	-0.518111	0.697617
H174	H	1.628103	-0.018111	1.197617
H175	H	1.127885	-0.935260	0.114840
H176	H	1.627885	-0.435260	0.614840
Cl177	Cl	1.230936	-1.308864	0.183221
Cl178	Cl	1.730936	-0.808864	0.683221
Cl179	Cl	0.798447	-0.736905	0.600953
Cl180	Cl	1.298447	-0.236905	1.100953
H181	H	0.944234	-1.222636	-0.007242
H182	H	1.444234	-0.722636	0.492758
H183	H	1.244138	-0.441099	0.491014
H184	H	1.744138	0.058901	0.991014
H185	H	1.215159	-0.460330	0.616816
H186	H	1.715159	0.039670	1.116816
Cl187	Cl	0.681979	-0.679665	-0.046824
Cl188	Cl	1.181979	-0.179665	0.453176
H189	H	0.538689	-0.758277	-0.125575
H190	H	1.038689	-0.258277	0.374425
H191	H	1.214966	-1.015909	0.172689
H192	H	1.714966	-0.515909	0.672689
H193	H	0.857083	-0.697968	0.491428
H194	H	1.357083	-0.197968	0.991428
H195	H	1.209653	-0.463982	0.343593
H196	H	1.709653	0.036018	0.843593
Cl197	Cl	0.798448	-1.032546	-0.104094
Cl198	Cl	1.298448	-0.532546	0.395906
H199	H	1.001039	-0.602421	0.357800
H200	H	1.501039	-0.102421	0.857800
H201	H	1.071208	-0.555874	0.750444
H202	H	1.571208	-0.055874	1.250444
Cl203	Cl	0.527607	-0.370940	0.262546
Cl204	Cl	1.027607	0.129060	0.762546
Cl205	Cl	0.663178	-0.341938	0.291584
Cl206	Cl	1.163178	0.158062	0.791584
Cl207	Cl	0.841361	-0.708424	0.784360
Cl208	Cl	1.341361	-0.208424	1.284360
Cl209	Cl	0.409378	-0.816922	-0.184314
Cl210	Cl	0.909378	-0.316922	0.315686
H211	H	1.001150	-1.275352	0.030547
H212	H	1.501150	-0.775352	0.530547
H213	H	0.857150	-1.141976	-0.065106
H214	H	1.357150	-0.641976	0.434894
