data_functionalizedCrystal
_audit_creation_method	'MofGen! by Chris Wilmer'
_symmetry_space_group_name_H-M	'P1'
_symmetry_Int_Tables_number	1
_symmetry_cell_setting	triclinic
loop_
_symmetry_equiv_pos_as_xyz
  x,y,z
_cell_length_a	14.971486
_cell_length_b	11.026607
_cell_length_c	13.448316
_cell_angle_alpha	89.996104
_cell_angle_beta	89.998199
_cell_angle_gamma	96.100073
loop_
_atom_site_label
_atom_site_type_symbol
_atom_site_fract_x
_atom_site_fract_y
_atom_site_fract_z
O1	O	1.212292	0.158181	-0.082572
O2	O	0.954927	0.177123	-0.082599
O3	O	1.062279	-0.009032	-0.082584
O4	O	1.104940	0.344336	-0.082587
O5	O	1.062260	-0.009044	0.082800
O6	O	0.954908	0.177112	0.082785
O7	O	1.212273	0.158169	0.082812
Cu8	Cu	1.083589	0.167639	0.097899
Cu9	Cu	1.083611	0.167653	-0.097686
O10	O	1.104921	0.344324	0.082797
C11	C	0.921457	0.176270	0.000090
C12	C	0.821753	0.173732	0.000079
C13	C	0.782051	0.283093	0.000080
C14	C	0.688368	0.280700	0.000095
C15	C	0.634389	0.168945	0.000102
C16	C	0.674098	0.059576	0.000105
C17	C	0.767779	0.061969	0.000097
C18	C	0.478837	0.054594	0.000118
C19	C	0.385150	0.052200	0.000124
C20	C	0.399426	0.273325	0.000116
C21	C	0.493107	0.275718	0.000109
C22	C	0.532809	0.166348	0.000109
C23	C	1.054400	-0.054260	0.000106
C24	C	1.030939	-0.189008	0.000100
C25	C	1.095719	-0.262720	0.000105
C26	C	1.071472	-0.401989	0.000099
C27	C	1.245743	0.159022	0.000121
C28	C	1.345447	0.161561	0.000125
C29	C	1.112800	0.389552	0.000105
C30	C	1.136261	0.524300	0.000104
N31	N	1.083579	0.167629	0.235463
N32	N	1.083626	0.167654	-0.235251
C33	C	1.131139	0.085233	0.287510
C34	C	1.131145	0.085232	0.391614
C35	C	1.083595	0.167634	0.443668
C36	C	1.036029	0.250033	0.391614
C37	C	1.036019	0.250028	0.287513
C38	C	1.036055	0.250042	0.608594
C39	C	1.036066	0.250049	0.712703
C40	C	1.131181	0.085246	0.712695
C41	C	1.131171	0.085241	0.608594
C42	C	1.083606	0.167642	0.556547
H43	H	0.511159	-0.034467	0.000120
H44	H	0.997308	0.317122	0.434003
H45	H	0.997290	0.317121	0.245137
C46	C	0.645146	0.399347	-0.000071
C47	C	0.591759	0.404416	-0.085140
C48	C	0.551923	0.513694	-0.085321
H49	H	0.690617	0.466343	-0.000135
H50	H	0.608850	0.403030	0.057575
H51	H	0.628053	0.400745	-0.142771
H52	H	0.546273	0.337446	-0.085094
H53	H	0.515627	0.517377	-0.027675
H54	H	0.597400	0.580681	-0.085383
H55	H	0.515689	0.517143	-0.143035
C56	C	1.234171	-0.422460	-0.000088
C57	C	1.276624	-0.461801	-0.085182
C58	C	1.366813	-0.412770	-0.085399
H59	H	1.263224	-0.449026	0.057521
H60	H	1.237500	-0.335936	-0.000140
H61	H	1.273301	-0.548306	-0.085121
H62	H	1.247598	-0.435237	-0.142804
H63	H	1.370141	-0.326246	-0.085451
H64	H	1.395857	-0.439339	-0.027787
H65	H	1.395626	-0.439446	-0.143138
C66	C	0.840498	0.404554	0.000122
C67	C	0.785672	0.499814	0.000153
C68	C	0.839479	0.611723	0.000208
H69	H	0.877353	0.410264	-0.057538
H70	H	0.877327	0.410146	0.057815
H71	H	0.748859	0.494225	-0.057534
H72	H	0.748818	0.494144	0.057809
H73	H	0.876308	0.617315	0.057902
H74	H	0.876331	0.617420	-0.057453
H75	H	0.802288	0.676370	0.000239
C76	C	0.932997	-0.242092	0.000036
C77	C	0.877932	-0.147098	0.000008
C78	C	0.787701	-0.195947	-0.000065
H79	H	0.921018	-0.290892	0.057689
H80	H	0.921117	-0.290854	-0.057664
H81	H	0.889807	-0.098356	0.057702
H82	H	0.889882	-0.098290	-0.057641
H83	H	0.775822	-0.244710	-0.057766
H84	H	0.775732	-0.244747	0.057589
H85	H	0.750329	-0.131502	-0.000094
C86	C	0.326696	-0.069256	0.000185
C87	C	0.381513	-0.164526	0.000217
C88	C	0.327697	-0.276429	0.000284
H89	H	0.289840	-0.074957	-0.057471
H90	H	0.289868	-0.074847	0.057882
H91	H	0.418325	-0.158939	-0.057474
H92	H	0.418368	-0.158866	0.057869
H93	H	0.290870	-0.282019	0.057981
H94	H	0.290844	-0.282116	-0.057373
H95	H	0.364883	-0.341082	0.000315
C96	C	0.615649	-0.061884	0.000159
C97	C	0.670474	-0.157146	0.000182
C98	C	0.616665	-0.269054	0.000241
H99	H	0.578794	-0.067582	-0.057498
H100	H	0.578822	-0.067486	0.057856
H101	H	0.707286	-0.151547	-0.057509
H102	H	0.707328	-0.151489	0.057835
H103	H	0.579837	-0.274656	0.057938
H104	H	0.579812	-0.274739	-0.057417
H105	H	0.653855	-0.333703	0.000266
H106	H	0.998057	-0.441982	0.000085
C107	C	1.182785	-0.004370	0.231179
C108	C	1.224416	-0.076550	0.299046
C109	C	1.271988	-0.159122	0.247193
H110	H	1.227118	0.039232	0.190554
H111	H	1.142472	-0.055040	0.190601
H112	H	1.264725	-0.025887	0.339607
H113	H	1.180102	-0.120179	0.339672
H114	H	1.231675	-0.209792	0.206615
H115	H	1.316316	-0.115510	0.206571
H116	H	1.300233	-0.208114	0.293233
H117	H	1.169895	0.018149	0.566211
C118	C	1.182623	-0.004364	0.448168
C119	C	1.123012	-0.078809	0.507926
C120	C	1.170403	-0.161375	0.560024
H121	H	1.226901	0.039243	0.488850
H122	H	1.210919	-0.053501	0.402283
H123	H	1.094731	-0.029679	0.553805
H124	H	1.078733	-0.122444	0.467268
H125	H	1.198698	-0.210512	0.514139
H126	H	1.214679	-0.117757	0.600700
H127	H	1.129963	-0.211903	0.600568
H128	H	0.537055	0.366719	0.000093
H129	H	1.169129	-0.222722	0.000119
H130	H	0.800103	-0.027084	0.000096
H131	H	0.367096	0.362378	0.000120
C132	C	0.984568	0.339566	0.551955
C133	C	1.044184	0.413950	0.492157
C134	C	0.996791	0.496424	0.439956
H135	H	0.956245	0.388765	0.597749
H136	H	0.940308	0.295849	0.511297
H137	H	1.088428	0.457664	0.532811
H138	H	1.072509	0.364785	0.446345
H139	H	0.952530	0.452707	0.399298
H140	H	0.968470	0.545614	0.485757
H141	H	1.037231	0.546895	0.399370
H142	H	1.169909	0.018152	0.755078
H143	H	0.997345	0.317148	0.755080
