data_functionalizedCrystal
_audit_creation_method	'MofGen! by Chris Wilmer'
_symmetry_space_group_name_H-M	'P1'
_symmetry_Int_Tables_number	1
_symmetry_cell_setting	triclinic
loop_
_symmetry_equiv_pos_as_xyz
  x,y,z
_cell_length_a	16.109293
_cell_length_b	27.732048
_cell_length_c	14.586319
_cell_angle_alpha	89.991275
_cell_angle_beta	90.006918
_cell_angle_gamma	96.949538
loop_
_atom_site_label
_atom_site_type_symbol
_atom_site_fract_x
_atom_site_fract_y
_atom_site_fract_z
O1	O	-1.102366	0.062112	-0.076323
O2	O	-0.860207	0.069848	-0.076310
O3	O	-0.988807	-0.004385	-0.076299
O4	O	-0.973766	0.136345	-0.076333
O5	O	-0.988799	-0.004387	0.076181
O6	O	-0.860198	0.069847	0.076171
O7	O	-1.102357	0.062111	0.076158
Cu8	Cu	-0.981277	0.065979	0.090087
Cu9	Cu	-0.981287	0.065980	-0.090239
O10	O	-0.973757	0.136344	0.076147
C11	C	-0.829232	0.069535	-0.000068
C12	C	-0.736948	0.068597	-0.000062
C13	C	-0.988487	-0.022394	-0.000056
C14	C	-0.987537	-0.076053	-0.000049
C15	C	-0.524628	0.066429	0.083053
C16	C	-0.437918	0.065543	0.083052
C17	C	-0.437938	0.065546	-0.083191
C18	C	-0.524647	0.066429	-0.083189
C19	C	-0.567989	0.066873	-0.000065
C20	C	-0.394571	0.065104	-0.000067
C21	C	-0.300557	0.064143	-0.000068
C22	C	-0.662009	0.067833	-0.000063
C23	C	-1.057545	-0.414576	-0.000100
C24	C	-1.054018	-0.616251	-0.000112
O25	O	-1.118036	-0.647239	-0.000156
N26	N	-0.977763	-0.635692	-0.000107
C27	C	-0.902385	-0.604712	-0.000105
O28	O	-0.837445	-0.625876	-0.000111
C29	C	-0.905913	-0.403038	-0.000099
C30	C	-0.982173	-0.383600	-0.000095
C31	C	-1.133799	-0.395137	-0.000096
C32	C	-1.134680	-0.344721	-0.000088
C33	C	-1.059307	-0.313745	-0.000083
C34	C	-0.983054	-0.333184	-0.000087
C35	C	-0.830536	-0.372059	-0.000104
C36	C	-0.831425	-0.321638	-0.000105
C37	C	-0.907685	-0.302199	-0.000100
C38	C	-0.908563	-0.251792	-0.000074
N39	N	-0.984817	-0.232351	-0.000079
C40	C	-1.060190	-0.263327	-0.000083
C41	C	-0.900538	-0.710594	-0.000107
C42	C	-0.899655	-0.761012	-0.000106
C43	C	-1.051288	-0.772547	-0.000115
C44	C	-1.052170	-0.722128	-0.000109
C45	C	-0.976792	-0.691152	-0.000112
C46	C	-1.062034	-0.157450	-0.000066
C47	C	-1.062909	-0.107029	-0.000054
C48	C	-0.911276	-0.095499	-0.000050
C49	C	-0.910401	-0.145915	-0.000057
C50	C	-0.985787	-0.176890	-0.000068
O51	O	-0.844579	-0.220775	-0.000041
O52	O	-1.125120	-0.242154	-0.000098
C53	C	-1.056664	-0.464992	-0.000108
C54	C	-0.980411	-0.484431	-0.000111
C55	C	-0.905038	-0.453455	-0.000106
C56	C	-0.979528	-0.534849	-0.000111
C57	C	-1.054901	-0.565826	-0.000116
C58	C	-1.131155	-0.546384	-0.000121
C59	C	-1.132036	-0.495968	-0.000113
C60	C	-0.828784	-0.472896	-0.000101
C61	C	-0.827909	-0.523312	-0.000109
C62	C	-0.903281	-0.554289	-0.000113
C63	C	-0.133331	0.062429	-0.000079
C64	C	-0.225612	0.063380	-0.000070
C65	C	-0.974077	0.154353	-0.000098
C66	C	-0.975028	0.208012	-0.000111
N67	N	-0.981276	0.065978	0.216919
N68	N	-0.981295	0.065977	-0.217071
C69	C	-1.038238	0.033118	0.451930
C70	C	-1.038241	0.033117	0.547911
C71	C	-0.924326	0.098839	0.547911
C72	C	-0.924321	0.098837	0.451932
C73	C	-0.981281	0.065977	0.403944
C74	C	-0.981289	0.065978	0.595904
C75	C	-0.981292	0.065977	0.699971
C76	C	-0.981278	0.065978	0.299870
H77	H	-0.402618	0.065182	0.150735
O78	O	-1.143341	-0.190856	-0.000064
H79	H	-1.196506	-0.168861	-0.000049
O80	O	-0.748281	-0.393015	-0.000116
H81	H	-0.744231	-0.415712	0.062033
H82	H	-0.877936	0.125595	0.412859
O83	O	-0.571428	0.066906	-0.172840
H84	H	-0.546968	0.099665	-0.212704
O85	O	-0.571372	0.066908	0.172708
H86	H	-0.618718	0.034388	0.176694
H87	H	-0.402639	0.065186	-0.150868
O88	O	-1.145163	-0.086062	-0.000063
H89	H	-1.197423	-0.116076	-0.000082
O90	O	-0.750124	-0.288227	-0.000097
H91	H	-0.696954	-0.310218	-0.000091
O92	O	-1.216931	-0.323758	-0.000110
H93	H	-1.269186	-0.353774	-0.000130
H94	H	-1.195179	-0.420354	-0.000103
O95	O	-0.862901	0.134285	0.599668
H96	H	-0.872480	0.128770	0.674471
H97	H	-1.114267	-0.706305	-0.000106
O98	O	-1.132587	-0.805961	-0.000121
H99	H	-1.135808	-0.829198	-0.062276
O100	O	-0.817405	-0.781976	-0.000099
H101	H	-0.765147	-0.751961	-0.000104
H102	H	-0.839153	-0.685377	-0.000109
O103	O	-0.828153	-0.166886	-0.000059
H104	H	-0.775891	-0.136874	-0.000058
H105	H	-0.765805	-0.539134	-0.000104
H106	H	-0.849910	-0.070269	-0.000043
H107	H	-1.194135	-0.480146	-0.000109
H108	H	-0.767405	-0.447680	-0.000100
O109	O	-1.212453	-0.579799	-0.000121
H110	H	-1.215679	-0.603036	-0.062276
O111	O	-1.099661	-0.002327	0.400167
H112	H	-1.139261	-0.025180	0.449664
O113	O	-1.099683	-0.002318	0.599672
H114	H	-1.139293	-0.025162	0.550174
