data_functionalizedCrystal
_audit_creation_method	'MofGen! by Chris Wilmer'
_symmetry_space_group_name_H-M	'P1'
_symmetry_Int_Tables_number	1
_symmetry_cell_setting	triclinic
loop_
_symmetry_equiv_pos_as_xyz
  x,y,z
_cell_length_a	27.732048
_cell_length_b	10.723024
_cell_length_c	9.798715
_cell_angle_alpha	89.994833
_cell_angle_beta	89.995044
_cell_angle_gamma	96.444738
loop_
_atom_site_label
_atom_site_type_symbol
_atom_site_fract_x
_atom_site_fract_y
_atom_site_fract_z
O1	O	0.641846	-0.148469	0.113312
O2	O	0.501193	-0.171043	0.113353
O3	O	0.574764	0.021955	0.113327
O4	O	0.568275	-0.341466	0.113339
O5	O	0.574763	0.021968	-0.113656
O6	O	0.501192	-0.171029	-0.113629
O7	O	0.641846	-0.148455	-0.113670
Zn8	Zn	0.571519	-0.159740	-0.149688
Zn9	Zn	0.571520	-0.159758	0.149371
O10	O	0.568275	-0.341453	-0.113644
C11	C	0.483183	-0.170562	-0.000133
C12	C	0.429519	-0.169135	-0.000117
N13	N	0.571522	-0.159727	-0.353788
C14	C	0.574291	0.068442	-0.000163
C15	C	0.572879	0.206937	-0.000158
C16	C	0.091356	-0.274201	-0.000173
C17	C	-0.110336	-0.268907	-0.000185
O18	O	-0.140995	-0.364983	-0.000241
N19	N	-0.130171	-0.154468	-0.000187
C20	C	-0.099578	-0.041344	-0.000194
O21	O	-0.121077	0.056116	-0.000209
C22	C	0.102113	-0.046639	-0.000191
C23	C	0.121945	-0.161086	-0.000176
C24	C	0.111188	-0.388639	-0.000159
C25	C	0.161608	-0.389961	-0.000149
C26	C	0.192197	-0.276846	-0.000152
C27	C	0.172365	-0.162408	-0.000166
C28	C	0.132704	0.066484	-0.000208
C29	C	0.183130	0.065150	-0.000211
C30	C	0.202961	-0.049297	-0.000196
C31	C	0.253373	-0.050615	-0.000158
N32	N	0.273208	-0.165055	-0.000157
C33	C	0.242619	-0.278170	-0.000154
C34	C	-0.205470	-0.038571	-0.000193
C35	C	-0.255892	-0.037247	-0.000191
C36	C	-0.266647	-0.264811	-0.000185
C37	C	-0.216223	-0.266134	-0.000177
C38	C	-0.185635	-0.153011	-0.000191
C39	C	0.348506	-0.280938	-0.000130
C40	C	0.398931	-0.282251	-0.000114
C41	C	0.409681	-0.054687	-0.000127
C42	C	0.359260	-0.053374	-0.000136
C43	C	0.328673	-0.166510	-0.000143
O44	O	0.284061	0.045409	-0.000118
O45	O	0.264127	-0.375615	-0.000169
C46	C	0.040936	-0.272879	-0.000184
C47	C	0.021104	-0.158441	-0.000197
C48	C	0.051692	-0.045326	-0.000200
C49	C	-0.029318	-0.157117	-0.000195
C50	C	-0.059907	-0.270232	-0.000192
C51	C	-0.040072	-0.384672	-0.000191
C52	C	0.010348	-0.385994	-0.000180
C53	C	0.031858	0.069114	-0.000202
C54	C	-0.018563	0.070427	-0.000211
C55	C	-0.049151	-0.042689	-0.000208
C56	C	0.659856	-0.148936	-0.000181
C57	C	0.713519	-0.150363	-0.000188
C58	C	0.568747	-0.387939	-0.000151
C59	C	0.570160	-0.526435	-0.000147
C60	C	0.614045	0.283624	-0.000168
C61	C	0.612586	0.426767	-0.000162
N62	N	0.571520	-0.159761	0.353471
C63	C	0.602540	-0.078684	0.578391
C64	C	0.602539	-0.078701	0.421229
H65	H	0.415074	-0.375451	-0.000101
H66	H	0.536554	0.247256	-0.000138
O67	O	0.634200	0.004251	0.351808
C68	C	0.626030	0.127729	0.386571
H69	H	0.607441	0.127437	0.490358
H70	H	0.662195	0.189670	0.391288
H71	H	0.601849	0.165929	0.306179
H72	H	0.629095	-0.009282	0.636676
O73	O	0.439349	0.055271	-0.000311
C74	C	0.430315	0.124801	-0.117894
H75	H	0.392177	0.093419	-0.157085
H76	H	0.433514	0.228935	-0.091468
H77	H	0.457951	0.108275	-0.200207
O78	O	0.654586	0.505541	-0.000110
C79	C	0.643779	0.630924	-0.000139
H80	H	0.605791	0.635056	0.042842
H81	H	0.671338	0.690496	0.065755
H82	H	0.645470	0.668609	-0.109033
O83	O	0.657352	0.235385	0.000001
C84	C	0.660718	0.161046	0.117572
H85	H	0.622719	0.128026	0.156776
H86	H	0.680219	0.076114	0.091127
H87	H	0.681938	0.218884	0.199884
O88	O	0.528080	0.395100	0.000046
C89	C	0.500991	0.417206	0.117631
H90	H	0.512486	0.516178	0.156823
H91	H	0.460709	0.407148	0.091207
H92	H	0.507872	0.346170	0.199942
H93	H	0.544965	-0.229153	0.411785
O94	O	0.539818	-0.242350	0.576537
C95	C	0.509856	-0.175829	0.493904
H96	H	0.528858	-0.077903	0.472614
H97	H	0.502378	-0.227940	0.393380
H98	H	0.474103	-0.167854	0.548897
H99	H	0.343113	0.039818	-0.000129
H100	H	0.323607	-0.373065	-0.000140
H101	H	0.086288	-0.480756	-0.000162
O102	O	0.180789	-0.501246	-0.000211
C103	C	0.142971	-0.600786	-0.000181
H104	H	0.108609	-0.566464	-0.043148
H105	H	0.153774	-0.680743	-0.066086
H106	H	0.135949	-0.635644	0.108712
H107	H	-0.200080	-0.359327	-0.000172
O108	O	-0.296344	-0.374728	0.000053
C109	C	-0.287297	-0.444311	0.117584
H110	H	-0.270289	-0.378123	0.199759
H111	H	-0.322900	-0.495048	0.157034
H112	H	-0.261385	-0.516029	0.091000
H113	H	-0.064986	-0.476775	-0.000183
O114	O	-0.275074	0.074037	-0.000250
C115	C	-0.237257	0.173582	-0.000221
H116	H	-0.202892	0.139273	-0.043191
H117	H	-0.248058	0.253549	-0.066125
H118	H	-0.230243	0.208420	0.108672
H119	H	0.116567	0.159679	-0.000222
O120	O	-0.175711	0.071245	-0.000011
C121	C	-0.146237	0.077301	0.117565
H122	H	-0.143346	-0.021687	0.156751
H123	H	-0.108505	0.124549	0.091131
H124	H	-0.163024	0.133937	0.199884
H125	H	0.026490	-0.479189	-0.000170
O126	O	0.212823	0.175074	0.000024
C127	C	0.203756	0.244623	0.117556
H128	H	0.186745	0.178408	0.199722
H129	H	0.239353	0.295368	0.157019
H130	H	0.177841	0.316333	0.090967
H131	H	-0.034704	0.163630	-0.000212
H132	H	0.056759	0.161228	-0.000208
