data_functionalizedCrystal
_audit_creation_method	'MofGen! by Chris Wilmer'
_symmetry_space_group_name_H-M	'P1'
_symmetry_Int_Tables_number	1
_symmetry_cell_setting	triclinic
loop_
_symmetry_equiv_pos_as_xyz
  x,y,z
_cell_length_a	13.897449
_cell_length_b	19.077356
_cell_length_c	19.076919
_cell_angle_alpha	90.107245
_cell_angle_beta	87.717932
_cell_angle_gamma	92.300597
loop_
_atom_site_label
_atom_site_type_symbol
_atom_site_fract_x
_atom_site_fract_y
_atom_site_fract_z
Zn1	Zn	1.437234	-0.295705	0.386105
Zn2	Zn	1.437704	-0.408494	0.263901
Zn3	Zn	1.282662	-0.291007	0.268614
Zn4	Zn	1.269743	-0.413179	0.381372
O5	O	1.356836	-0.352096	0.324998
O6	O	1.572277	-0.310672	0.369903
O7	O	1.422740	-0.388983	0.166194
O8	O	1.308376	-0.193298	0.288153
O9	O	1.572622	-0.393538	0.280121
O10	O	1.421939	-0.196749	0.374473
O11	O	1.308832	-0.302665	0.169657
O12	O	1.145967	-0.307207	0.283563
O13	O	1.286358	-0.401522	0.480332
O14	O	1.136476	-0.396967	0.366405
O15	O	1.409412	-0.315215	0.483809
O16	O	1.410214	-0.507448	0.275530
O17	O	1.286814	-0.510890	0.361835
C18	C	1.106223	-0.352086	0.324982
C19	C	0.999008	-0.352099	0.324992
C20	C	1.366546	-0.168814	0.332367
C21	C	1.370684	-0.090710	0.335507
C22	C	1.347188	-0.534666	0.317673
C23	C	1.343148	-0.612771	0.314563
C24	C	0.802711	-0.352103	0.325010
C25	C	0.911945	-0.352099	0.324998
C26	C	1.608427	-0.352107	0.325014
C27	C	1.715640	-0.352111	0.325021
C28	C	1.346392	-0.359415	0.508280
C29	C	1.341941	-0.362534	0.586384
C30	C	1.313506	-0.052219	0.292042
C31	C	1.317392	0.021168	0.295000
C32	C	1.378462	0.056061	0.341420
C33	C	1.435643	0.017565	0.384890
C34	C	1.431751	-0.055821	0.381935
C35	C	1.396437	0.275347	0.355079
C36	C	1.400326	0.348738	0.358028
C37	C	1.282074	0.352336	0.268139
C38	C	1.278192	0.278949	0.265185
C39	C	1.335368	0.240458	0.308658
N40	N	1.382438	0.131074	0.344442
N41	N	1.331387	0.165447	0.305638
C42	C	1.367297	-0.344755	0.142431
C43	C	1.371945	-0.341438	0.064336
C44	C	1.403915	-0.319065	0.624889
C45	C	1.399721	-0.321993	0.698276
C46	C	1.333558	-0.368393	0.733156
C47	C	1.271578	-0.411864	0.694646
C48	C	1.275767	-0.408932	0.621260
C49	C	1.314154	-0.381977	0.952440
C50	C	1.309971	-0.384907	1.025831
C51	C	1.438114	-0.295035	1.029456
C52	C	1.442302	-0.292110	0.956069
C53	C	1.380318	-0.335578	0.917565
N54	N	1.329272	-0.371389	0.808169
N55	N	1.384600	-0.332578	0.842554
H56	H	1.263779	-0.080624	0.254239
O57	O	1.247277	-0.428860	0.910940
H58	H	1.290427	-0.463289	0.876061
H59	H	1.496181	-0.254328	0.927674
H60	H	1.270832	0.052507	0.259607
H61	H	1.225292	-0.444321	0.589910
H62	H	1.488576	-0.259645	1.060814
H63	H	1.443005	0.244017	0.390469
H64	H	1.217703	-0.449641	0.723051
O65	O	1.220404	0.393855	0.221259
H66	H	1.239350	0.381977	0.165543
H67	H	1.485364	0.045979	0.422690
O68	O	1.212322	0.241314	0.215118
H69	H	1.136676	0.254917	0.227735
O70	O	1.466187	0.386378	0.408105
H71	H	1.505284	0.347284	0.437845
H72	H	1.478304	-0.087160	0.417335
O73	O	1.475277	-0.269019	0.587268
H74	H	1.517659	-0.239280	0.626376
H75	H	1.450189	-0.286598	0.729623
O76	O	1.238601	-0.434950	1.063457
H77	H	1.196195	-0.464679	1.024355
