data_functionalizedCrystal
_audit_creation_method	'MofGen! by Chris Wilmer'
_symmetry_space_group_name_H-M	'P1'
_symmetry_Int_Tables_number	1
_symmetry_cell_setting	triclinic
loop_
_symmetry_equiv_pos_as_xyz
  x,y,z
_cell_length_a	14.519709
_cell_length_b	14.853567
_cell_length_c	13.596369
_cell_angle_alpha	89.996212
_cell_angle_beta	89.999340
_cell_angle_gamma	96.342463
loop_
_atom_site_label
_atom_site_type_symbol
_atom_site_fract_x
_atom_site_fract_y
_atom_site_fract_z
O1	O	1.223823	-0.118173	-0.081655
O2	O	0.955340	-0.132090	-0.081684
O3	O	1.096753	0.006096	-0.081672
O4	O	1.082410	-0.256358	-0.081667
O5	O	1.096734	0.006087	0.081911
O6	O	0.955322	-0.132099	0.081899
O7	O	1.223804	-0.118181	0.081928
Zn8	Zn	1.089560	-0.125141	0.107886
Zn9	Zn	1.089584	-0.125130	-0.107642
O10	O	1.082391	-0.256367	0.081916
C11	C	0.920971	-0.131446	0.000104
C12	C	0.818591	-0.129502	0.000092
N13	N	1.089550	-0.125149	0.254978
C14	C	1.096094	0.039680	0.000117
C15	C	1.094146	0.139765	0.000108
C16	C	0.443698	-0.122347	0.000137
C17	C	0.548005	-0.124334	0.000124
C18	C	0.631141	-0.125924	0.000114
C19	C	0.735455	-0.127912	0.000103
C20	C	1.258173	-0.118826	0.000138
C21	C	1.360553	-0.120769	0.000143
C22	C	1.083050	-0.289952	0.000125
C23	C	1.084998	-0.390036	0.000127
C24	C	1.001911	0.552334	0.000117
C25	C	1.169913	0.573550	0.000135
C26	C	1.171744	0.479516	0.000130
C27	C	1.088658	0.421886	0.000119
C28	C	1.003740	0.458291	0.000114
C29	C	1.256661	0.443104	0.000144
C30	C	1.258495	0.349064	0.000140
C31	C	1.175408	0.291432	0.000122
C32	C	1.090486	0.327843	0.000116
C33	C	1.007400	0.270213	0.000106
C34	C	0.922478	0.306621	0.000093
C35	C	0.920653	0.400660	0.000097
C36	C	1.177233	0.197394	0.000119
C37	C	1.009229	0.176170	0.000103
C38	C	1.089554	-0.125151	0.343976
C39	C	1.089562	-0.125146	0.455627
C40	C	1.089574	-0.125136	0.544618
C41	C	1.089584	-0.125132	0.656276
N42	N	1.089595	-0.125122	0.745267
H43	H	0.941568	0.129253	0.000091
H44	H	1.327644	0.319429	0.000149
N45	N	0.915161	0.589504	0.000123
N46	N	0.840987	0.538035	0.000123
H47	H	0.779718	0.564285	0.000131
N48	N	1.263975	0.160218	0.000147
N49	N	1.338152	0.211683	0.000170
H50	H	1.399419	0.185429	0.000191
N51	N	0.837618	0.247737	0.000095
N52	N	0.839272	0.163778	0.000104
H53	H	0.779342	0.122187	0.000107
H54	H	0.851513	0.430312	0.000087
N55	N	1.254771	0.632426	0.000157
N56	N	1.253125	0.716386	0.000166
H57	H	1.313059	0.757972	0.000180
N58	N	1.341517	0.501981	0.000163
N59	N	1.339868	0.585941	0.000160
H60	H	1.399801	0.627529	0.000172
