data_functionalizedCrystal
_audit_creation_method	'MofGen! by Chris Wilmer'
_symmetry_space_group_name_H-M	'P1'
_symmetry_Int_Tables_number	1
_symmetry_cell_setting	triclinic
loop_
_symmetry_equiv_pos_as_xyz
  x,y,z
_cell_length_a	16.120530
_cell_length_b	15.297510
_cell_length_c	15.298431
_cell_angle_alpha	91.662882
_cell_angle_beta	96.298350
_cell_angle_gamma	82.668652
loop_
_atom_site_label
_atom_site_type_symbol
_atom_site_fract_x
_atom_site_fract_y
_atom_site_fract_z
Zn1	Zn	1.124458	0.312606	-0.625760
Zn2	Zn	1.116344	0.484099	-0.504100
Zn3	Zn	1.006400	0.332784	-0.471934
Zn4	Zn	0.960315	0.451807	-0.640778
O5	O	1.051879	0.395324	-0.560643
O6	O	1.238089	0.340425	-0.616798
O7	O	1.117651	0.485985	-0.378256
O8	O	1.044743	0.208525	-0.472592
O9	O	1.232127	0.466419	-0.527415
O10	O	1.131480	0.193701	-0.585608
O11	O	1.036875	0.374815	-0.354623
O12	O	0.885580	0.343503	-0.487155
O13	O	0.966198	0.411383	-0.760363
O14	O	0.851721	0.430949	-0.611204
O15	O	1.086793	0.309113	-0.749330
O16	O	1.072964	0.601397	-0.541977
O17	O	0.958330	0.577672	-0.642394
C18	C	0.838908	0.385912	-0.547319
C19	C	0.747792	0.381902	-0.541643
C20	C	1.009786	0.621057	-0.597326
C21	C	0.991849	0.717625	-0.613053
C22	C	0.923700	0.750673	-0.672689
C23	C	0.906850	0.841402	-0.687474
C24	C	0.958152	0.899091	-0.642629
C25	C	1.026306	0.866042	-0.582997
C26	C	1.043153	0.775305	-0.568206
C27	C	1.077605	0.923723	-0.538146
C28	C	1.145759	0.890675	-0.478513
C29	C	1.162604	0.799946	-0.463725
C30	C	1.111302	0.742257	-0.508570
C31	C	1.060758	1.014460	-0.552937
C32	C	1.180212	1.039093	-0.448454
C33	C	1.197061	0.948364	-0.433669
C34	C	0.580962	0.374561	-0.531284
C35	C	0.523617	0.416140	-0.590076
C36	C	0.430787	0.412055	-0.584312
C37	C	0.673801	0.378645	-0.537047
C38	C	1.265682	0.404773	-0.574020
C39	C	1.356792	0.408800	-0.579720
C40	C	1.094129	1.168708	-0.523821
C41	C	1.112063	1.072141	-0.508089
C42	C	1.022260	0.354395	-0.787252
C43	C	1.009638	0.336954	-0.883819
C44	C	0.961652	0.270876	-0.916874
C45	C	0.949782	0.254490	-1.007603
C46	C	0.985903	0.304175	-1.065285
C47	C	1.033895	0.370249	-1.032229
C48	C	1.045761	0.386642	-0.941492
C49	C	1.070012	0.419941	-1.089902
C50	C	1.118004	0.486015	-1.056846
C51	C	1.129868	0.502405	-0.966117
C52	C	1.093747	0.452720	-0.908436
C53	C	1.058146	0.403548	-1.180640
C54	C	1.142255	0.519314	-1.205257
C55	C	1.154125	0.535700	-1.114528
C56	C	1.081442	0.436033	-0.334909
C57	C	1.094269	0.453236	-0.238313
H58	H	1.005269	1.041358	-0.601494
H59	H	0.881932	0.703698	-0.709191
C60	C	1.005362	0.330861	-1.216990
N61	N	0.965605	0.276107	-1.244367
H62	H	1.221986	1.086064	-0.411937
H63	H	1.125020	0.668377	-0.496538
H64	H	1.252553	0.921444	-0.385115
H65	H	0.560339	0.335900	-0.476627
C66	C	0.939618	0.998894	-0.658899
N67	N	0.925657	1.074069	-0.671159
C68	C	1.106801	0.470742	-0.808627
N69	N	1.116631	0.484315	-0.733449
C70	C	0.551477	0.468382	-0.663916
N71	N	0.572465	0.507733	-0.719528
C72	C	0.897002	0.181801	-1.043958
N73	N	0.857249	0.127045	-1.071339
C74	C	1.237559	0.763599	-0.398107
N75	N	1.294013	0.736224	-0.348678
H76	H	0.976236	0.290828	-1.139160
C77	C	1.182686	0.575067	-0.929756
N78	N	1.222482	0.629787	-0.902370
C79	C	0.831883	0.877748	-0.753068
N80	N	0.775415	0.905124	-0.802477
C81	C	1.181972	0.573987	-1.268705
N82	N	1.211875	0.615171	-1.316500
H83	H	0.932242	0.230435	-0.869904
C84	C	1.206910	0.608386	-1.078154
N85	N	1.246666	0.663134	-1.050756
