data_functionalizedCrystal
_audit_creation_method	'MofGen! by Chris Wilmer'
_symmetry_space_group_name_H-M	'P1'
_symmetry_Int_Tables_number	1
_symmetry_cell_setting	triclinic
loop_
_symmetry_equiv_pos_as_xyz
  x,y,z
_cell_length_a	11.792241
_cell_length_b	19.288864
_cell_length_c	17.766277
_cell_angle_alpha	89.971843
_cell_angle_beta	89.991519
_cell_angle_gamma	83.664832
loop_
_atom_site_label
_atom_site_type_symbol
_atom_site_fract_x
_atom_site_fract_y
_atom_site_fract_z
O1	O	1.505473	0.095201	-0.062619
O2	O	1.174983	0.105012	-0.062627
O3	O	1.349777	-0.000970	-0.062576
O4	O	1.330678	0.201183	-0.062670
O5	O	1.349747	-0.000975	0.062612
O6	O	1.174952	0.105007	0.062561
O7	O	1.505442	0.095195	0.062570
Cu8	Cu	1.340194	0.100100	0.073996
Cu9	Cu	1.340230	0.100107	-0.074054
O10	O	1.330647	0.201177	0.062519
C11	C	1.132686	0.104393	-0.000034
C12	C	1.006700	0.102548	-0.000034
C13	C	1.547739	0.095814	-0.000026
C14	C	1.673725	0.097659	-0.000030
C15	C	1.904385	0.101051	-0.000031
C16	C	1.776029	0.099166	-0.000030
C17	C	1.349147	-0.026852	0.000028
C18	C	1.347303	-0.103966	0.000059
C19	C	1.331277	0.227060	-0.000088
C20	C	1.333122	0.304174	-0.000123
N21	N	1.340177	0.100095	0.178127
C22	C	1.230561	0.348287	-0.000111
C23	C	1.232294	0.420744	-0.000094
C24	C	1.336594	0.449084	-0.000074
C25	C	1.439169	0.404961	-0.000091
C26	C	1.437433	0.332506	-0.000115
C27	C	1.418575	0.557798	0.043827
C28	C	1.420307	0.630253	0.043856
C29	C	1.341953	0.672560	-0.000002
C30	C	1.261848	0.642407	-0.043879
C31	C	1.260112	0.569951	-0.043904
C32	C	1.338488	0.527649	-0.000048
C33	C	1.241264	0.795241	0.000028
C34	C	1.243001	0.867699	0.000041
C35	C	1.449880	0.851914	0.000051
C36	C	1.448139	0.779457	0.000031
C37	C	1.343828	0.751125	0.000023
N38	N	1.340257	0.100107	-0.178184
C39	C	1.417601	0.053190	0.217536
C40	C	1.417608	0.053187	0.296338
C41	C	1.340201	0.100101	0.335727
C42	C	1.262763	0.147010	0.296308
C43	C	1.262751	0.147007	0.217508
C44	C	1.325007	0.163302	0.460536
C45	C	1.325027	0.163306	0.539335
C46	C	1.340231	0.100110	0.578773
C47	C	1.355440	0.036907	0.539404
C48	C	1.355428	0.036904	0.460604
C49	C	1.340205	0.100109	0.421173
C50	C	1.417667	0.053197	0.703629
C51	C	1.417665	0.053193	0.782432
C52	C	1.262826	0.147022	0.782401
C53	C	1.262822	0.147020	0.703599
C54	C	1.340248	0.100108	0.664218
H55	H	1.145622	0.325225	-0.000124
H56	H	1.480643	0.014990	0.185474
H57	H	1.531656	0.743539	0.000026
H58	H	1.534803	0.874987	0.000013
H59	H	1.480657	0.014989	0.328431
H60	H	1.199735	0.185207	0.328383
H61	H	1.367808	-0.014558	0.428552
H62	H	1.159480	0.903616	0.000046
H63	H	1.199780	0.185218	0.671510
H64	H	1.485528	0.654798	0.079587
H65	H	1.312650	0.214770	0.571383
H66	H	1.156327	0.772172	0.000026
H67	H	1.520954	0.296588	-0.000126
H68	H	1.367820	-0.014554	0.571513
H69	H	1.312606	0.214768	0.428431
H70	H	1.198039	0.676853	-0.079587
H71	H	1.148773	0.456669	-0.000082
H72	H	1.480709	0.014996	0.671563
H73	H	1.199701	0.185204	0.185420
H74	H	1.194890	0.545403	-0.079631
H75	H	1.482389	0.523356	0.079540
H76	H	1.524091	0.428040	-0.000089
H77	H	1.480710	0.014993	0.814520
H78	H	1.199795	0.185218	0.814471
