data_functionalizedCrystal
_audit_creation_method	'MofGen! by Chris Wilmer'
_symmetry_space_group_name_H-M	'P1'
_symmetry_Int_Tables_number	1
_symmetry_cell_setting	triclinic
loop_
_symmetry_equiv_pos_as_xyz
  x,y,z
_cell_length_a	27.732048
_cell_length_b	26.809956
_cell_length_c	27.732048
_cell_angle_alpha	90.000636
_cell_angle_beta	82.642655
_cell_angle_gamma	90.003258
loop_
_atom_site_label
_atom_site_type_symbol
_atom_site_fract_x
_atom_site_fract_y
_atom_site_fract_z
O1	O	0.640931	0.041421	0.057510
O2	O	0.500138	0.041436	0.066256
O3	O	0.574907	0.041419	-0.008514
O4	O	0.566162	0.041439	0.132280
O5	O	0.574893	-0.041541	-0.008502
O6	O	0.500123	-0.041523	0.066267
O7	O	0.640917	-0.041539	0.057522
Zn8	Zn	0.570518	-0.054702	0.061896
Zn9	Zn	0.570536	0.054600	0.061881
O10	O	0.566147	-0.041521	0.132291
C11	C	0.482124	-0.000041	0.066078
C12	C	0.428469	-0.000036	0.065525
N13	N	0.570509	-0.129298	0.061906
C14	C	0.089654	-0.000051	0.106229
C15	C	-0.112006	-0.000056	0.104178
O16	O	-0.143262	-0.000073	0.141398
N17	N	-0.131130	-0.000062	0.059843
C18	C	-0.099835	-0.000069	0.016017
O19	O	-0.120728	-0.000079	-0.021740
C20	C	0.101824	-0.000068	0.018068
C21	C	0.120944	-0.000057	0.062407
C22	C	0.108775	-0.000042	0.150563
C23	C	0.159187	-0.000038	0.151076
C24	C	0.190477	-0.000044	0.107253
C25	C	0.171356	-0.000054	0.062919
C26	C	0.133117	-0.000079	-0.025757
C27	C	0.183535	-0.000080	-0.025240
C28	C	0.202655	-0.000069	0.019098
C29	C	0.253059	-0.000056	0.019609
N30	N	0.272183	-0.000050	0.063944
C31	C	0.240892	-0.000044	0.107766
C32	C	-0.205709	-0.000069	0.014943
C33	C	-0.256124	-0.000068	0.014430
C34	C	-0.268291	-0.000056	0.102591
C35	C	-0.217876	-0.000053	0.103104
C36	C	-0.186585	-0.000063	0.059278
C37	C	0.346761	-0.000036	0.108839
C38	C	0.397178	-0.000030	0.109347
C39	C	0.409341	-0.000044	0.021186
C40	C	0.358929	-0.000048	0.020678
C41	C	0.327639	-0.000045	0.064508
O42	O	0.284343	-0.000045	-0.017592
O43	O	0.261794	-0.000045	0.145518
C44	C	0.039242	-0.000055	0.105716
C45	C	0.020120	-0.000065	0.061382
C46	C	0.051411	-0.000071	0.017560
C47	C	-0.030294	-0.000065	0.060869
C48	C	-0.061585	-0.000059	0.104691
C49	C	-0.042461	-0.000053	0.149026
C50	C	0.007951	-0.000049	0.149539
C51	C	0.032287	-0.000077	-0.026775
C52	C	-0.018125	-0.000080	-0.027284
C53	C	-0.049416	-0.000074	0.016538
C54	C	0.603640	-0.473932	0.028781
C55	C	0.603652	-0.682810	0.028774
O56	O	0.631801	-0.709820	0.000613
N57	N	0.570539	-0.708925	0.061870
C58	C	0.537419	-0.682818	0.094969
O59	O	0.509252	-0.709824	0.123116
C60	C	0.537406	-0.473941	0.094974
C61	C	0.570524	-0.447829	0.061878
C62	C	0.636755	-0.447819	-0.004312
C63	C	0.636754	-0.395603	-0.004308
C64	C	0.603637	-0.369500	0.028789
C65	C	0.570522	-0.395612	0.061882
C66	C	0.504284	-0.447835	0.128070
C67	C	0.504283	-0.395613	0.128067
C68	C	0.537401	-0.369500	0.094972
C69	C	0.537405	-0.317293	0.094983
N70	N	0.570517	-0.291177	0.061887
C71	C	0.603633	-0.317281	0.028790
C72	C	0.537429	-0.792481	0.094965
C73	C	0.537433	-0.844700	0.094964
C74	C	0.603665	-0.844689	0.028768
C75	C	0.603663	-0.792469	0.028772
C76	C	0.570542	-0.766366	0.061868
C77	C	0.603628	-0.207623	0.028801
C78	C	0.603625	-0.155402	0.028809
C79	C	0.537392	-0.155418	0.095003
C80	C	0.537396	-0.207635	0.094997
C81	C	0.570516	-0.233735	0.061892
O82	O	0.509266	-0.290250	0.123126
O83	O	0.631789	-0.290266	0.000640
C84	C	0.603642	-0.526149	0.028777
C85	C	0.570527	-0.552261	0.061870
C86	C	0.537410	-0.526158	0.094968
C87	C	0.570531	-0.604480	0.061870
C88	C	0.603647	-0.630584	0.028773
C89	C	0.636759	-0.604468	-0.004324
C90	C	0.636758	-0.552252	-0.004320
C91	C	0.504298	-0.552273	0.128064
C92	C	0.504303	-0.604489	0.128058
C93	C	0.537419	-0.630593	0.094961
C94	C	0.658931	-0.000060	0.057699
C95	C	0.712586	-0.000062	0.058252
C96	C	0.574716	-0.000062	-0.026515
C97	C	0.574164	-0.000066	-0.080170
N98	N	0.570549	0.129196	0.061867
C99	C	0.614867	-0.000045	-0.418985
C100	C	0.612816	-0.000038	-0.620645
O101	O	0.650037	-0.000021	-0.651900
N102	N	0.568481	-0.000034	-0.639768
C103	C	0.524656	-0.000028	-0.608474
O104	O	0.486899	-0.000019	-0.629367
C105	C	0.526707	-0.000031	-0.406815
C106	C	0.571045	-0.000041	-0.387694
C107	C	0.659202	-0.000054	-0.399864
C108	C	0.659714	-0.000059	-0.349452
C109	C	0.615892	-0.000054	-0.318161
C110	C	0.571557	-0.000045	-0.337282
C111	C	0.482882	-0.000022	-0.375521
C112	C	0.483399	-0.000021	-0.325104
C113	C	0.527737	-0.000031	-0.305983
C114	C	0.528247	-0.000045	-0.255580
N115	N	0.572583	-0.000050	-0.236456
C116	C	0.616405	-0.000054	-0.267747
C117	C	0.523582	-0.000027	-0.714348
C118	C	0.523069	-0.000027	-0.764762
C119	C	0.611230	-0.000036	-0.776930
C120	C	0.611742	-0.000040	-0.726514
C121	C	0.567917	-0.000031	-0.695224
C122	C	0.617477	-0.000064	-0.161878
C123	C	0.617986	-0.000071	-0.111461
C124	C	0.529825	-0.000059	-0.099298
C125	C	0.529316	-0.000055	-0.149710
C126	C	0.573147	-0.000056	-0.180999
O127	O	0.491047	-0.000057	-0.224296
O128	O	0.654156	-0.000053	-0.246844
C129	C	0.614355	-0.000041	-0.469397
C130	C	0.570021	-0.000032	-0.488518
C131	C	0.526198	-0.000027	-0.457228
C132	C	0.569508	-0.000032	-0.538933
C133	C	0.613330	-0.000036	-0.570223
C134	C	0.657665	-0.000041	-0.551100
C135	C	0.658177	-0.000045	-0.500688
C136	C	0.481863	-0.000023	-0.476351
C137	C	0.481355	-0.000019	-0.526764
C138	C	0.525177	-0.000023	-0.558054
C139	C	0.566338	-0.000039	0.150292
C140	C	0.566891	-0.000031	0.203947
H141	H	0.412743	-0.000021	0.145454
H142	H	0.083302	-0.000038	0.186251
H143	H	0.057760	-0.000083	-0.062462
H144	H	0.694282	-0.000053	-0.485125
C145	C	0.501009	-0.873421	0.131373
H146	H	0.505753	-0.908260	0.126638
H147	H	0.468789	-0.864865	0.126345
H148	H	0.506019	-0.864860	0.163599
C149	C	0.673178	-0.366886	-0.040719
H150	H	0.692895	-0.389917	-0.060431
H151	H	0.693171	-0.346511	-0.023474
H152	H	0.655936	-0.346520	-0.060724
C153	C	0.673186	-0.633187	-0.040732
H154	H	0.692912	-0.610159	-0.060443
H155	H	0.655946	-0.653558	-0.060732
H156	H	0.693177	-0.653556	-0.023478
C157	C	0.500998	-0.763775	0.131378
H158	H	0.481284	-0.786811	0.151089
H159	H	0.481002	-0.743406	0.114133
H160	H	0.518236	-0.743404	0.151384
H161	H	0.663722	-0.469068	-0.031266
C162	C	0.659433	-0.000034	-0.811355
H163	H	0.652773	-0.000027	-0.844117
H164	H	0.677632	-0.028961	-0.805600
H165	H	0.677626	0.028902	-0.805593
H166	H	0.630597	-0.228868	0.001843
H167	H	0.693347	-0.000047	-0.576585
C168	C	0.434109	-0.000007	-0.396543
H169	H	0.408089	0.000002	-0.370681
H170	H	0.432063	-0.028934	-0.415958
H171	H	0.432083	0.028929	-0.415953
H172	H	0.630630	-0.771211	0.001822
H173	H	-0.067947	-0.000046	0.184708
H174	H	0.510430	-0.134157	0.121952
C175	C	0.180213	-0.000036	0.199848
H176	H	0.154352	-0.000039	0.225869
H177	H	0.199630	0.028892	0.201885
H178	H	0.199622	-0.028971	0.201883
H179	H	0.630595	-0.134142	0.001859
H180	H	0.321291	-0.000035	0.144530
H181	H	0.694889	-0.000056	-0.425336
C182	C	0.432579	-0.000007	-0.547791
H183	H	0.406556	0.000001	-0.521931
H184	H	0.430535	-0.028932	-0.567208
H185	H	0.430554	0.028931	-0.567199
C186	C	0.467858	-0.476548	0.164480
H187	H	0.448136	-0.453516	0.184185
H188	H	0.485095	-0.496915	0.184484
H189	H	0.447863	-0.496921	0.147231
H190	H	-0.202311	-0.000047	0.139207
C191	C	0.467851	-0.366903	0.164477
H192	H	0.448133	-0.389937	0.184187
H193	H	0.447860	-0.346532	0.147229
H194	H	0.485089	-0.346534	0.184485
C195	C	0.500950	-0.236360	0.131382
H196	H	0.481220	-0.213332	0.151086
H197	H	0.518162	-0.256745	0.151392
H198	H	0.480966	-0.256715	0.114104
C199	C	-0.277154	-0.000071	-0.034340
H200	H	-0.311660	-0.000065	-0.028374
H201	H	-0.266392	-0.029002	-0.052365
H202	H	-0.266386	0.028861	-0.052368
C203	C	0.337894	-0.000054	-0.028092
H204	H	0.363752	-0.000058	-0.054117
H205	H	0.318478	0.028872	-0.030130
H206	H	0.318484	-0.028991	-0.030121
C207	C	-0.302715	-0.000052	0.150796
H208	H	-0.284110	-0.000047	0.177277
H209	H	-0.322636	-0.028982	0.152426
H210	H	-0.322632	0.028882	0.152424
H211	H	0.486964	-0.000028	-0.780325
C212	C	0.467872	-0.633210	0.164465
H213	H	0.472614	-0.668049	0.159728
H214	H	0.435654	-0.624651	0.159435
H215	H	0.472880	-0.624653	0.196693
H216	H	-0.180236	-0.000077	-0.020747
C217	C	0.666759	-0.000079	-0.090431
H218	H	0.692784	-0.000075	-0.116290
H219	H	0.668790	-0.029009	-0.071019
H220	H	0.668797	0.028854	-0.071016
C221	C	0.673184	-0.523535	-0.040728
H222	H	0.692902	-0.546566	-0.060440
H223	H	0.693177	-0.503161	-0.023482
H224	H	0.655945	-0.503168	-0.060734
H225	H	0.477330	-0.531024	0.155015
H226	H	0.487892	-0.000020	-0.688875
H227	H	0.630630	-0.865951	0.001820
H228	H	0.653168	-0.000063	-0.187348
C229	C	0.112095	-0.000097	-0.074529
H230	H	0.137958	-0.000108	-0.100550
H231	H	0.092682	0.028829	-0.076576
H232	H	0.092684	-0.029034	-0.076555
H233	H	0.209009	-0.000089	-0.060929
C234	C	0.708486	-0.000060	-0.328425
H235	H	0.734508	-0.000056	-0.354287
H236	H	0.710522	-0.028988	-0.309011
H237	H	0.710523	0.028875	-0.309014
C238	C	0.660513	-0.000046	-0.705486
H239	H	0.686536	-0.000046	-0.731346
H240	H	0.662544	-0.028974	-0.686071
H241	H	0.662552	0.028889	-0.686075
C242	C	0.435190	-0.000014	-0.290688
H243	H	0.408713	-0.000012	-0.309299
H244	H	0.433561	0.028914	-0.270765
H245	H	0.433550	-0.028949	-0.270770
C246	C	0.443767	-0.000055	-0.027014
H247	H	0.476529	-0.000057	-0.020355
H248	H	0.438011	0.028869	-0.045220
H249	H	0.438004	-0.028994	-0.045201
H250	H	0.023514	-0.000042	0.185643
H251	H	-0.033688	-0.000085	-0.063392
C252	C	0.480546	-0.000043	-0.170744
H253	H	0.454521	-0.000038	-0.144886
H254	H	0.478504	-0.028967	-0.190164
H255	H	0.478523	0.028896	-0.190151
H256	H	0.494146	-0.000057	-0.073812
H257	H	0.446177	-0.000018	-0.450879
