data_functionalizedCrystal
_audit_creation_method	'MofGen! by Chris Wilmer'
_symmetry_space_group_name_H-M	'P1'
_symmetry_Int_Tables_number	1
_symmetry_cell_setting	triclinic
loop_
_symmetry_equiv_pos_as_xyz
  x,y,z
_cell_length_a	18.050590
_cell_length_b	18.050589
_cell_length_c	12.759387
_cell_angle_alpha	89.968857
_cell_angle_beta	89.994473
_cell_angle_gamma	90.017386
loop_
_atom_site_label
_atom_site_type_symbol
_atom_site_fract_x
_atom_site_fract_y
_atom_site_fract_z
Zn1	Zn	1.135339	-0.295827	-0.593638
Zn2	Zn	1.135236	-0.420038	-0.417961
Zn3	Zn	1.011144	-0.295843	-0.418016
Zn4	Zn	1.011106	-0.419956	-0.593641
O5	O	1.073206	-0.357916	-0.505814
O6	O	1.239249	-0.312331	-0.570310
O7	O	1.118748	-0.403604	-0.270947
O8	O	1.027678	-0.191916	-0.441334
O9	O	1.239174	-0.403589	-0.441241
O10	O	1.118923	-0.191904	-0.570363
O11	O	1.027578	-0.312359	-0.270988
O12	O	0.907214	-0.312279	-0.441337
O13	O	1.027613	-0.403449	-0.740662
O14	O	0.907186	-0.403464	-0.570368
O15	O	1.118886	-0.312252	-0.740660
O16	O	1.118710	-0.523952	-0.441244
O17	O	1.027513	-0.523891	-0.570315
C18	C	0.880254	-0.357865	-0.505859
C19	C	0.797708	-0.357861	-0.505904
C20	C	0.598264	-0.407590	-0.575904
C21	C	0.548873	-0.339871	-0.601751
C22	C	0.646578	-0.357903	-0.505852
C23	C	0.548887	-0.425661	-0.480005
C24	C	0.500593	-0.357949	-0.505805
C25	C	0.598274	-0.290148	-0.531749
C26	C	0.598293	-0.375983	-0.409959
C27	C	0.548924	-0.308217	-0.435769
C28	C	0.730676	-0.357877	-0.505882
C29	C	0.416496	-0.357967	-0.505775
C30	C	1.073116	-0.550868	-0.505797
C31	C	1.073146	-0.633414	-0.505824
C32	C	1.023601	-0.832859	-0.575989
C33	C	1.005496	-0.882304	-0.480126
C34	C	1.073219	-0.784544	-0.505838
C35	C	1.091361	-0.882180	-0.601712
C36	C	1.073288	-0.930529	-0.505860
C37	C	1.055078	-0.832903	-0.409925
C38	C	1.140974	-0.832774	-0.531575
C39	C	1.122895	-0.882197	-0.435646
C40	C	1.073177	-0.700446	-0.505827
C41	C	1.073330	-1.014626	-0.505860
C42	C	1.266912	-0.357967	-0.505769
C43	C	1.349457	-0.357989	-0.505750
C44	C	1.073256	-0.357839	-0.779848
C45	C	1.073278	-0.357806	-0.896625
C46	C	1.073316	-0.164210	-0.505855
C47	C	1.073363	-0.081664	-0.505872
C48	C	0.978349	-0.262786	-0.896685
C49	C	0.930899	-0.215261	-0.951576
C50	C	0.930921	-0.215234	-1.061298
C51	C	0.978397	-0.262739	-1.116131
C52	C	1.025848	-0.310264	-1.061240
C53	C	1.025822	-0.310284	-0.951516
C54	C	1.120772	-0.405287	-1.061179
C55	C	1.120754	-0.405311	-0.951458
C56	C	1.168248	-0.452792	-1.116012
C57	C	1.215704	-0.500314	-1.061121
C58	C	1.215680	-0.500339	-0.951393
C59	C	1.168205	-0.452836	-0.896566
C60	C	1.073199	-0.357939	-0.232847
C61	C	1.073321	-0.357762	-0.116070
H62	H	0.527396	-0.266170	-0.376508
H63	H	0.619877	-0.232848	-0.553682
H64	H	1.168184	-0.452849	-0.807225
H65	H	0.619930	-0.449535	-0.635211
O66	O	0.973521	-0.807097	-0.646794
C67	C	0.935247	-0.803956	-0.827662
C68	C	0.992005	-0.833197	-0.747591
H69	H	0.950180	-0.825034	-0.909178
H70	H	0.877522	-0.824331	-0.805616
H71	H	0.936048	-0.740805	-0.827474
H72	H	0.991270	-0.896347	-0.747739
H73	H	1.049704	-0.812765	-0.769666
H74	H	0.948230	-0.904077	-0.458377
O75	O	1.036846	-0.807229	-0.313114
C76	C	1.068121	-0.803862	-0.129583
C77	C	1.088866	-0.832975	-0.239160
H78	H	1.110159	-0.824679	-0.069758
H79	H	1.068251	-0.740706	-0.130299
H80	H	1.010554	-0.824691	-0.107564
H81	H	1.146436	-0.812201	-0.261247
H82	H	1.088684	-0.896130	-0.238385
H83	H	0.978405	-0.262720	-1.205472
O84	O	0.624181	-0.394358	-0.313296
C85	C	0.627262	-0.485969	-0.175928
C86	C	0.597905	-0.465250	-0.285415
H87	H	0.606018	-0.543279	-0.153344
H88	H	0.690413	-0.486379	-0.177089
H89	H	0.607046	-0.443555	-0.116261
H90	H	0.618066	-0.507643	-0.345144
H91	H	0.534755	-0.464816	-0.284168
H92	H	1.164884	-0.903725	-0.376263
O93	O	1.261841	-0.546525	-1.114221
C94	C	1.356030	-0.640745	-1.102593
C95	C	1.303803	-0.588462	-1.042323
H96	H	1.389981	-0.674653	-1.044490
H97	H	1.321953	-0.679605	-1.153925
H98	H	1.394859	-0.606638	-1.153998
H99	H	1.264965	-0.622508	-0.990861
H100	H	1.337927	-0.549599	-0.991057
H101	H	1.254323	-0.539037	-0.906707
H102	H	1.106678	-0.903826	-0.682783
O103	O	1.209241	-0.806672	-0.557506
C104	C	1.285796	-0.699106	-0.585716
C105	C	1.208454	-0.728568	-0.556297
H106	H	1.285182	-0.635957	-0.584770
H107	H	1.328296	-0.720205	-0.526744
H108	H	1.301157	-0.719355	-0.667494
H109	H	1.193024	-0.708331	-0.474544
H110	H	1.166000	-0.707475	-0.615336
H111	H	0.527190	-0.482943	-0.458166
O112	O	0.978214	-0.262738	-0.790102
C113	C	0.926133	-0.210595	-0.632677
C114	C	0.926200	-0.210588	-0.753382
H115	H	0.884096	-0.168425	-0.602952
H116	H	0.910632	-0.268084	-0.602813
H117	H	0.983668	-0.195247	-0.602906
H118	H	0.868683	-0.225904	-0.783242
H119	H	0.941742	-0.153092	-0.783174
H120	H	0.527165	-0.324593	-0.682826
O121	O	0.884676	-0.169197	-0.898356
C122	C	0.758368	-0.133082	-0.864878
C123	C	0.810632	-0.185302	-0.925192
H124	H	0.698493	-0.146074	-0.886570
H125	H	0.766437	-0.141265	-0.777016
H126	H	0.771491	-0.073202	-0.886453
H127	H	0.797541	-0.245202	-0.903706
H128	H	0.802553	-0.177055	-1.013040
H129	H	0.892281	-0.176536	-1.105990
H130	H	1.168259	-0.452770	-1.205353
