data_functionalizedCrystal
_audit_creation_method	'MofGen! by Chris Wilmer'
_symmetry_space_group_name_H-M	'P1'
_symmetry_Int_Tables_number	1
_symmetry_cell_setting	triclinic
loop_
_symmetry_equiv_pos_as_xyz
  x,y,z
_cell_length_a	17.077404
_cell_length_b	17.640280
_cell_length_c	17.077396
_cell_angle_alpha	101.225604
_cell_angle_beta	90.019501
_cell_angle_gamma	78.800538
loop_
_atom_site_label
_atom_site_type_symbol
_atom_site_fract_x
_atom_site_fract_y
_atom_site_fract_z
Zn1	Zn	1.263288	-0.314659	0.380745
Zn2	Zn	1.289758	-0.446839	0.222973
Zn3	Zn	1.132026	-0.314687	0.249487
Zn4	Zn	1.158541	-0.446792	0.354206
O5	O	1.210903	-0.380744	0.301853
O6	O	1.376648	-0.332201	0.359827
O7	O	1.268815	-0.429340	0.116637
O8	O	1.127263	-0.204078	0.289102
O9	O	1.396095	-0.429313	0.243912
O10	O	1.223701	-0.204058	0.385536
O11	O	1.152930	-0.332248	0.136117
O12	O	1.025694	-0.332203	0.263368
O13	O	1.172456	-0.429233	0.467580
O14	O	1.045176	-0.429260	0.340305
O15	O	1.249413	-0.332155	0.487078
O16	O	1.294527	-0.557437	0.218179
O17	O	1.198122	-0.557403	0.314595
C18	C	1.006953	-0.380730	0.301834
C19	C	0.919705	-0.380743	0.301841
C20	C	1.252095	-0.586099	0.260647
C21	C	1.269789	-0.673950	0.243045
C22	C	0.888895	-0.431357	0.341806
C23	C	0.806915	-0.431359	0.341818
C24	C	0.755747	-0.380750	0.301860
C25	C	0.786562	-0.330130	0.261894
C26	C	0.868540	-0.330125	0.261887
C27	C	0.615696	-0.330146	0.261910
C28	C	0.533712	-0.330151	0.261915
C29	C	0.554070	-0.431379	0.341841
C30	C	0.636048	-0.431374	0.341834
C31	C	0.666858	-0.380755	0.301866
C32	C	1.076806	-0.962931	0.435857
C33	C	1.093434	-1.045481	0.419293
C34	C	1.193882	-1.045451	0.318996
C35	C	1.177265	-0.962900	0.335555
C36	C	1.118726	-0.921646	0.393986
C37	C	1.219185	-0.921615	0.293683
C38	C	1.202567	-0.839070	0.310238
C39	C	1.144029	-0.797811	0.368665
C40	C	1.102108	-0.839101	0.410541
C41	C	1.277721	-0.962870	0.235249
C42	C	1.319640	-0.921585	0.193377
C43	C	1.303026	-0.839039	0.209936
C44	C	1.244488	-0.797780	0.268362
C45	C	1.344947	-0.797748	0.168060
C46	C	1.328329	-0.715204	0.184615
C47	C	1.227870	-0.715235	0.284917
C48	C	1.415651	-0.380759	0.301872
C49	C	1.502902	-0.380765	0.301880
C50	C	1.210939	-0.380686	0.506609
C51	C	1.210954	-0.380661	0.593864
C52	C	1.169572	-0.174588	0.343237
C53	C	1.151959	-0.086736	0.360872
C54	C	1.210901	-0.380745	0.097905
C55	C	1.210993	-0.380547	0.010695
C56	C	1.251027	-0.330109	0.645009
C57	C	1.251031	-0.330082	0.726995
C58	C	1.210967	-0.380613	0.757833
C59	C	1.170889	-0.431168	0.706682
C60	C	1.170881	-0.431190	0.624699
C61	C	1.170911	-0.431120	0.877562
C62	C	1.170921	-0.431100	0.959550
C63	C	1.251062	-0.330013	0.979858
C64	C	1.251053	-0.330035	0.897874
C65	C	1.210977	-0.380591	0.846729
H66	H	0.781834	-0.472574	0.374361
H67	H	1.130494	-0.730598	0.382137
H68	H	1.054445	-0.805511	0.458127
H69	H	0.744895	-0.288920	0.229364
O70	O	1.132099	-0.480337	0.736655
C71	C	1.142933	-0.586991	0.807834
C72	C	1.186964	-0.531367	0.773915
H73	H	1.187269	-0.628252	0.837981
H74	H	1.114314	-0.623184	0.757219
H75	H	1.094599	-0.550673	0.853465
H76	H	1.235333	-0.567624	0.728295
H77	H	1.215528	-0.495172	0.824572
O78	O	1.132077	-0.480337	0.574915
C79	C	1.142918	-0.587098	0.460951
C80	C	1.186961	-0.531478	0.517261
H81	H	1.187276	-0.628470	0.414334
H82	H	1.094617	-0.550859	0.429784
H83	H	1.114259	-0.623179	0.497088
H84	H	1.215669	-0.495384	0.481183
H85	H	1.235220	-0.567762	0.548430
H86	H	1.241543	-1.079051	0.271419
H87	H	1.367301	-0.955185	0.145800
O88	O	0.645611	-0.281064	0.222952
C89	C	0.662869	-0.242513	0.097220
C90	C	0.628964	-0.298149	0.141242
H91	H	0.649408	-0.256294	0.031153
H92	H	0.730259	-0.251208	0.104010
H93	H	0.633989	-0.178801	0.123926
H94	H	0.657782	-0.361882	0.114565
H95	H	0.561571	-0.289385	0.134455
H96	H	0.528981	-0.472593	0.374387
O97	O	1.401807	-0.837705	0.111251
C98	C	1.499727	-0.828965	0.013542
C99	C	1.435341	-0.783619	0.077846
H100	H	1.526870	-0.785257	-0.013472
H101	H	1.471531	-0.867631	-0.035345
H102	H	1.548490	-0.867589	0.041884
H103	H	1.386559	-0.744953	0.049575
H104	H	1.463596	-0.745003	0.126725
O105	O	0.898347	-0.280938	0.222990
C106	C	0.869503	-0.180508	0.143748
C107	C	0.835646	-0.236187	0.187750
H108	H	0.818824	-0.144301	0.115259
H109	H	0.915105	-0.216705	0.095326
H110	H	0.899646	-0.139256	0.188139
H111	H	0.805463	-0.277450	0.143421
H112	H	0.790084	-0.199941	0.236185
H113	H	0.492051	-0.288932	0.229389
O114	O	1.368929	-0.675057	0.143869
C115	C	1.360785	-0.581860	0.056627
C116	C	1.314712	-0.627292	0.102720
H117	H	1.316969	-0.543219	0.023361
H118	H	1.405460	-0.625486	0.011972
H119	H	1.394036	-0.543200	0.100478
H120	H	1.281413	-0.665954	0.058930
H121	H	1.270083	-0.583624	0.147387
O122	O	1.293941	-1.043054	0.219294
C123	C	1.337875	-1.161454	0.270834
C124	C	1.319548	-1.070648	0.289006
H125	H	1.358566	-1.183792	0.327189
H126	H	1.386946	-1.183888	0.221916
H127	H	1.281618	-1.183908	0.249952
H128	H	1.375759	-1.048126	0.309922
H129	H	1.270447	-1.048267	0.337897
O130	O	1.019902	-0.922972	0.492629
C131	C	0.922071	-0.931703	0.590431
C132	C	0.986472	-0.977054	0.526144
H133	H	0.895036	-0.975409	0.617558
H134	H	0.873223	-0.893123	0.562139
H135	H	0.950320	-0.892994	0.639230
H136	H	0.958294	-1.015806	0.477325
H137	H	1.035312	-1.015585	0.554495
H138	H	1.180207	-0.681645	0.332503
O139	O	1.289956	-0.280948	0.615192
C140	C	1.369480	-0.180710	0.643991
C141	C	1.325411	-0.236335	0.677862
H142	H	1.398171	-0.144639	0.694640
H143	H	1.325178	-0.139337	0.613931
H144	H	1.417767	-0.217023	0.598306
H145	H	1.277126	-0.200087	0.723576
H146	H	1.369762	-0.277711	0.707872
H147	H	1.059303	-1.079092	0.453404
O148	O	0.685637	-0.480562	0.380715
C149	C	0.697190	-0.581000	0.459951
C150	C	0.640939	-0.525324	0.415964
H151	H	0.661076	-0.617217	0.488447
H152	H	0.728305	-0.544799	0.508367
H153	H	0.743850	-0.622242	0.415549
H154	H	0.594234	-0.484070	0.460305
H155	H	0.609883	-0.561574	0.367537
H156	H	1.283664	-0.288919	0.768634
O157	O	1.289982	-0.280877	0.868052
C158	C	1.369511	-0.180642	0.896834
C159	C	1.325442	-0.236262	0.930715
H160	H	1.398205	-0.144569	0.947478
H161	H	1.325207	-0.139270	0.866774
H162	H	1.417794	-0.216959	0.851148
H163	H	1.277161	-0.200009	0.976431
H164	H	1.369795	-0.277636	0.960725
H165	H	0.930551	-0.472571	0.374341
O166	O	1.289911	-0.280917	1.029654
C167	C	1.325461	-0.236094	1.164952
C168	C	1.281420	-0.291720	1.108647
H169	H	1.318625	-0.244821	1.228827
H170	H	1.298887	-0.172351	1.161678
H171	H	1.391530	-0.249969	1.146020
H172	H	1.215347	-0.277916	1.127540
H173	H	1.308058	-0.355447	1.111928
O174	O	1.132058	-0.480286	0.989407
C175	C	1.120920	-0.614714	0.987557
C176	C	1.164987	-0.559103	0.953660
H177	H	1.147537	-0.678450	0.958682
H178	H	1.054838	-0.600890	0.974194
H179	H	1.127797	-0.605968	1.054941
H180	H	1.158174	-0.567819	0.886271
H181	H	1.231053	-0.572941	0.967085
O182	O	1.131878	-0.480124	0.827871
C183	C	1.028051	-0.490803	0.733123
C184	C	1.072169	-0.435212	0.789377
H185	H	0.979779	-0.454515	0.701973
H186	H	0.999366	-0.526901	0.769220
H187	H	1.072396	-0.532161	0.686484
H188	H	1.027876	-0.393806	0.836026
H189	H	1.100869	-0.399169	0.753227
