data_functionalizedCrystal
_audit_creation_method	'MofGen! by Chris Wilmer'
_symmetry_space_group_name_H-M	'P1'
_symmetry_Int_Tables_number	1
_symmetry_cell_setting	triclinic
loop_
_symmetry_equiv_pos_as_xyz
  x,y,z
_cell_length_a	12.759395
_cell_length_b	12.759394
_cell_length_c	13.034296
_cell_angle_alpha	97.209847
_cell_angle_beta	82.799873
_cell_angle_gamma	89.977667
loop_
_atom_site_label
_atom_site_type_symbol
_atom_site_fract_x
_atom_site_fract_y
_atom_site_fract_z
Zn1	Zn	1.681685	0.342772	-0.590810
Zn2	Zn	1.659228	0.540803	-0.416060
Zn3	Zn	1.483662	0.365135	-0.416083
Zn4	Zn	1.505946	0.518414	-0.590769
O5	O	1.582630	0.441781	-0.503431
O6	O	1.825728	0.369052	-0.567636
O7	O	1.617215	0.536230	-0.269823
O8	O	1.510003	0.215144	-0.439288
O9	O	1.809229	0.514545	-0.439248
O10	O	1.655489	0.198714	-0.567659
O11	O	1.488228	0.407168	-0.269840
O12	O	1.339596	0.385457	-0.439249
O13	O	1.547982	0.476385	-0.737015
O14	O	1.355968	0.498070	-0.567589
O15	O	1.677096	0.347341	-0.737044
O16	O	1.638822	0.684858	-0.439209
O17	O	1.526207	0.668408	-0.567567
C18	C	1.309661	0.441762	-0.503418
C19	C	1.192887	0.441776	-0.503437
C20	C	1.582527	0.714752	-0.503404
C21	C	1.582584	0.831526	-0.503427
C22	C	1.210075	0.290463	-0.637343
C23	C	1.163810	0.214819	-0.704305
C24	C	1.054090	0.214836	-0.704318
C25	C	0.990632	0.290504	-0.637360
C26	C	1.036897	0.366148	-0.570398
C27	C	1.146621	0.366125	-0.570395
C28	C	1.019708	0.517454	-0.436488
C29	C	1.129429	0.517443	-0.436479
C30	C	0.956250	0.593122	-0.369530
C31	C	1.002516	0.668773	-0.302573
C32	C	1.112243	0.668753	-0.302563
C33	C	1.175694	0.593088	-0.369518
C34	C	1.617530	0.406871	-0.776008
C35	C	1.632402	0.391995	-0.892164
C36	C	1.856665	0.441801	-0.503444
C37	C	1.973443	0.441810	-0.503450
C38	C	1.733991	0.814245	-0.637200
C39	C	1.809720	0.860465	-0.704092
C40	C	1.809768	0.970185	-0.704111
C41	C	1.734077	1.033687	-0.637232
C42	C	1.658348	0.987467	-0.570340
C43	C	1.658310	0.877745	-0.570326
C44	C	1.506938	1.004747	-0.436574
C45	C	1.506893	0.895028	-0.436548
C46	C	1.431248	1.068249	-0.369695
C47	C	1.355521	1.022030	-0.302796
C48	C	1.355477	0.912304	-0.302779
C49	C	1.431164	0.848808	-0.369656
C50	C	1.582726	1.167742	-0.503472
C51	C	1.582667	1.050966	-0.503466
C52	C	1.575149	0.449210	-0.943936
C53	C	1.590519	0.433836	-1.063989
C54	C	1.547927	0.476479	-0.231914
C55	C	1.533258	0.491060	-0.115758
H56	H	1.299415	0.290438	-0.637335
H57	H	1.431139	0.759469	-0.369645
N58	N	1.232262	0.133225	-0.776531
H59	H	1.211134	0.060189	-0.760450
H60	H	1.308764	0.144795	-0.766329
N61	N	1.670533	0.353872	-1.122991
H62	H	1.670173	0.354225	-1.200389
H63	H	1.651800	0.281253	-1.103982
H64	H	0.901292	0.290503	-0.637368
H65	H	1.514759	0.509581	-0.899380
N66	N	1.712392	0.312018	-0.951174
H67	H	1.748485	0.275944	-0.900130
H68	H	1.766752	0.349023	-0.996459
H69	H	1.016421	0.153234	-0.758838
H70	H	0.950840	0.730371	-0.248057
H71	H	0.866911	0.593128	-0.369543
H72	H	1.293896	1.073741	-0.248354
H73	H	1.472863	0.551435	-1.071208
N74	N	1.162133	0.750340	-0.230330
H75	H	1.145083	0.823376	-0.246421
H76	H	1.241255	0.738760	-0.240510
N77	N	1.294037	0.593086	-0.369527
H78	H	1.327213	0.533678	-0.422109
H79	H	1.311218	0.582865	-0.297842
N80	N	1.733951	0.695908	-0.637165
H81	H	1.793391	0.662694	-0.689676
H82	H	1.664270	0.667155	-0.656283
H83	H	1.871345	0.808752	-0.758546
N84	N	1.734136	1.152027	-0.637247
H85	H	1.723963	1.169274	-0.708924
H86	H	1.803796	1.180766	-0.618053
H87	H	1.431289	1.157587	-0.369719
N88	N	1.891432	1.020042	-0.776269
H89	H	1.939371	0.963170	-0.818638
H90	H	1.934662	1.070989	-0.733780
H91	H	1.293806	0.874678	-0.248312
