data_functionalizedCrystal
_audit_creation_method	'MofGen! by Chris Wilmer'
_symmetry_space_group_name_H-M	'P1'
_symmetry_Int_Tables_number	1
_symmetry_cell_setting	triclinic
loop_
_symmetry_equiv_pos_as_xyz
  x,y,z
_cell_length_a	17.640280
_cell_length_b	14.908783
_cell_length_c	14.908694
_cell_angle_alpha	83.203601
_cell_angle_beta	81.377015
_cell_angle_gamma	81.398086
loop_
_atom_site_label
_atom_site_type_symbol
_atom_site_fract_x
_atom_site_fract_y
_atom_site_fract_z
Zn1	Zn	-0.267317	1.471759	-0.533536
Zn2	Zn	0.232683	1.971759	-0.033536
Zn3	Zn	-0.389601	1.489627	-0.355528
Zn4	Zn	0.110399	1.989627	0.144472
Zn5	Zn	-0.267338	1.311660	-0.373436
Zn6	Zn	0.232662	1.811660	0.126564
Zn7	Zn	-0.403646	1.350120	-0.495040
Zn8	Zn	0.096354	1.850120	0.004960
O9	O	-0.331976	1.405792	-0.439385
O10	O	0.168024	1.905792	0.060615
O11	O	-0.277652	1.599515	-0.518539
O12	O	0.222348	2.099515	-0.018539
O13	O	-0.367514	1.457401	-0.232515
O14	O	0.132486	1.957401	0.267485
O15	O	-0.159113	1.309324	-0.418279
O16	O	0.340887	1.809324	0.081721
O17	O	-0.367494	1.612643	-0.387757
O18	O	0.132506	2.112643	0.112243
O19	O	-0.159098	1.426948	-0.535904
O20	O	0.340902	1.926948	-0.035904
O21	O	-0.277688	1.326650	-0.245673
O22	O	0.222312	1.826650	0.254327
O23	O	-0.291306	1.191376	-0.380951
O24	O	0.208694	1.691376	0.119049
O25	O	-0.391431	1.374874	-0.625535
O26	O	0.108569	1.874874	-0.125535
O27	O	-0.391451	1.219632	-0.470293
O28	O	0.108549	1.719632	0.029707
O29	O	-0.291270	1.464241	-0.653818
O30	O	0.208730	1.964241	-0.153818
O31	O	-0.499686	1.494695	-0.350429
O32	O	0.000314	1.994695	0.149571
O33	O	-0.510005	1.392200	-0.452928
O34	O	-0.010005	1.892200	0.047072
C35	C	-0.342905	1.172993	-0.423388
C36	C	0.157095	1.672993	0.076612
C37	C	-0.347601	1.073406	-0.416562
C38	C	0.152399	1.573406	0.083438
C39	C	-0.263015	0.872642	-0.540063
C40	C	0.236985	1.372642	-0.040063
C41	C	-0.267425	0.779071	-0.533653
C42	C	0.232575	1.279071	-0.033653
C43	C	-0.360824	0.792690	-0.397328
C44	C	0.139176	1.292690	0.102672
C45	C	-0.356415	0.886261	-0.403738
C46	C	0.143585	1.386261	0.096262
C47	C	-0.307510	0.926234	-0.475109
C48	C	0.192490	1.426234	0.024891
C49	C	-0.303105	1.019808	-0.481522
C50	C	0.196895	1.519808	0.018478
C51	C	-0.396500	1.033424	-0.345195
C52	C	0.103500	1.533424	0.154805
C53	C	-0.400909	0.939853	-0.338784
C54	C	0.099091	1.439853	0.161216
C55	C	-0.532906	1.449585	-0.395579
C56	C	-0.032906	1.949585	0.104421
C57	C	-0.618862	1.468405	-0.376874
C58	C	-0.118862	1.968405	0.123126
C59	C	-0.928557	1.263214	-0.581834
C60	C	-0.428557	1.763214	-0.081834
C61	C	-1.009325	1.280897	-0.564230
C62	C	-0.509325	1.780897	-0.064230
C63	C	-0.998517	1.387704	-0.457619
C64	C	-0.498517	1.887704	0.042381
C65	C	-0.917747	1.370033	-0.475218
C66	C	-0.417747	1.870033	0.024782
C67	C	-0.882773	1.307786	-0.537325
C68	C	-0.382773	1.807786	-0.037325
C69	C	-0.871963	1.414606	-0.430709
C70	C	-0.371963	1.914606	0.069291
C71	C	-0.791200	1.396932	-0.448303
C72	C	-0.291200	1.896932	0.051697
C73	C	-0.756220	1.334686	-0.510406
C74	C	-0.256220	1.834686	-0.010406
C75	C	-0.802010	1.290113	-0.554920
C76	C	-0.302010	1.790113	-0.054920
C77	C	-0.906938	1.476847	-0.368597
C78	C	-0.406938	1.976847	0.131403
C79	C	-0.861154	1.521420	-0.324088
C80	C	-0.361154	2.021420	0.175912
C81	C	-0.780389	1.503752	-0.341686
C82	C	-0.280389	2.003752	0.158314
C83	C	-0.745410	1.441506	-0.403789
C84	C	-0.245410	1.941506	0.096211
C85	C	-0.734599	1.548325	-0.297173
C86	C	-0.234599	2.048325	0.202827
C87	C	-0.653836	1.530651	-0.314767
C88	C	-0.153836	2.030651	0.185233
C89	C	-0.664646	1.423832	-0.421383
C90	C	-0.164646	1.923832	0.078617
C91	C	-0.130260	1.361852	-0.483383
C92	C	0.369740	1.861852	0.016617
C93	C	-0.044301	1.343128	-0.502133
C94	C	0.455699	1.843128	-0.002133
C95	C	-0.342915	1.421855	-0.673097
C96	C	0.157085	1.921855	-0.173097
C97	C	-0.347577	1.428700	-0.772691
C98	C	0.152423	1.928700	-0.272691
C99	C	-0.321004	1.639499	-0.455445
C100	C	0.178996	2.139499	0.044555
C101	C	-0.316328	1.739092	-0.462288
C102	C	0.183672	2.239092	0.037712
C103	C	-0.262803	1.305390	-0.973539
C104	C	0.237197	1.805390	-0.473539
C105	C	-0.267181	1.311818	-1.067117
C106	C	0.232819	1.811818	-0.567117
C107	C	-0.360713	1.447979	-1.053425
C108	C	0.139287	1.947979	-0.553425
C109	C	-0.356335	1.441551	-0.959847
C110	C	0.143665	1.941551	-0.459847
C111	C	-0.307378	1.370255	-0.919908
C112	C	0.192622	1.870255	-0.419908
C113	C	-0.302997	1.363832	-0.826330
C114	C	0.197003	1.863832	-0.326330
C115	C	-0.396533	1.499988	-0.812639
C116	C	0.103467	1.999988	-0.312639
C117	C	-0.400910	1.506416	-0.906217
C118	C	0.099090	2.006416	-0.406217
C119	C	-0.321021	1.389830	-0.206598
C120	C	0.178979	1.889830	0.293402
C121	C	-0.316133	1.383111	-0.107064
C122	C	0.183867	1.883111	0.392936
H123	H	-0.231191	0.735439	-0.586543
H124	H	0.268809	1.235439	-0.086543
H125	H	-0.889640	1.572099	-0.273517
H126	H	-0.389640	2.072099	0.226483
O127	O	-0.890832	1.196076	-0.648825
O128	O	-0.390832	1.696076	-0.148825
H129	H	-0.854258	1.231222	-0.705224
H130	H	-0.354258	1.731222	-0.205224
H131	H	-0.223199	0.905189	-0.598179
H132	H	0.276801	1.405189	-0.098179
O133	O	-0.626916	1.356701	-0.488379
O134	O	-0.126916	1.856701	0.011621
H135	H	-0.590415	1.300349	-0.453115
H136	H	-0.090415	1.800349	0.046885
H137	H	-0.432737	1.077071	-0.292310
H138	H	0.067263	1.577071	0.207690
H139	H	-0.263285	1.052352	-0.539637
H140	H	0.236715	1.552352	-0.039637
O141	O	-0.772322	1.615479	-0.230206
O142	O	-0.272322	2.115479	0.269794
H143	H	-0.836174	1.620289	-0.225458
H144	H	-0.336174	2.120289	0.274542
O145	O	-0.453650	0.896733	-0.261807
O146	O	0.046350	1.396733	0.238193
H147	H	-0.514233	0.928985	-0.265053
H148	H	-0.014233	1.428985	0.234947
O149	O	-0.444602	1.569964	-0.754792
O150	O	0.055398	2.069964	-0.254792
H151	H	-0.479369	1.620625	-0.798292
H152	H	0.020631	2.120625	-0.298292
H153	H	-0.400631	0.760125	-0.339213
H154	H	0.099369	1.260125	0.160787
H155	H	-0.690457	1.320291	-0.524723
H156	H	-0.190457	1.820291	-0.024723
O157	O	-0.764278	1.222975	-0.621907
O158	O	-0.264278	1.722975	-0.121907
H159	H	-0.809681	1.194944	-0.649903
H160	H	-0.309681	1.694944	-0.149903
H161	H	-0.616558	1.566946	-0.278522
H162	H	-0.116558	2.066946	0.221478
O163	O	-0.413517	1.524870	-1.096508
O164	O	0.086483	2.024870	-0.596508
H165	H	-0.409069	1.518439	-1.170589
H166	H	0.090931	2.018439	-0.670589
H167	H	-1.046600	1.244608	-0.600491
H168	H	-0.546600	1.744608	-0.100491
O169	O	-0.453710	1.583315	-0.949295
O170	O	0.046290	2.083315	-0.449295
H171	H	-0.449262	1.576892	-1.023378
H172	H	0.050738	2.076892	-0.523378
O173	O	-0.209995	1.228506	-0.930454
O174	O	0.290005	1.728506	-0.430454
H175	H	-0.227399	1.162302	-0.940677
H176	H	0.272601	1.662302	-0.440677
O177	O	-1.036252	1.454859	-0.390658
O178	O	-0.536252	1.954859	0.109342
H179	H	-1.072843	1.419737	-0.334259
H180	H	-0.572843	1.919737	0.165741
O181	O	-0.994047	1.495915	-0.349610
O182	O	-0.494047	1.995915	0.150390
H183	H	-1.017637	1.523284	-0.413810
H184	H	-0.517637	2.023284	0.086190
O185	O	-0.250194	1.286940	-0.783246
O186	O	0.249806	1.786940	-0.283246
H187	H	-0.219939	1.242912	-0.836263
H188	H	0.280061	1.742912	-0.336263
O189	O	-0.219099	1.241864	-1.124968
O190	O	0.280901	1.741864	-0.624968
H191	H	-0.184317	1.191215	-1.081472
H192	H	0.315683	1.691215	-0.581472
