data_functionalizedCrystal
_audit_creation_method	'MofGen! by Chris Wilmer'
_symmetry_space_group_name_H-M	'P1'
_symmetry_Int_Tables_number	1
_symmetry_cell_setting	triclinic
loop_
_symmetry_equiv_pos_as_xyz
  x,y,z
_cell_length_a	17.077402
_cell_length_b	12.759401
_cell_length_c	12.759393
_cell_angle_alpha	90.020566
_cell_angle_beta	89.965312
_cell_angle_gamma	89.978908
loop_
_atom_site_label
_atom_site_type_symbol
_atom_site_fract_x
_atom_site_fract_y
_atom_site_fract_z
Zn1	Zn	-0.312508	-1.606207	-0.593979
Zn2	Zn	-0.443794	-1.606073	-0.418286
Zn3	Zn	-0.312542	-1.430505	-0.418315
Zn4	Zn	-0.443731	-1.430472	-0.593925
O5	O	-0.378144	-1.518314	-0.506126
O6	O	-0.329935	-1.753210	-0.570684
O7	O	-0.426423	-1.582741	-0.271269
O8	O	-0.202690	-1.453882	-0.441652
O9	O	-0.426390	-1.753111	-0.441603
O10	O	-0.202665	-1.582969	-0.570712
O11	O	-0.329993	-1.453753	-0.271290
O12	O	-0.329933	-1.283480	-0.441600
O13	O	-0.426284	-1.453826	-0.740953
O14	O	-0.426317	-1.283456	-0.570619
O15	O	-0.329874	-1.582937	-0.740993
O16	O	-0.553632	-1.582709	-0.441550
O17	O	-0.553587	-1.453696	-0.570591
C18	C	-0.378122	-1.245347	-0.506107
C19	C	-0.378132	-1.128570	-0.506124
C20	C	-0.327997	-1.073760	-0.573439
C21	C	-0.328002	-0.964036	-0.573444
C22	C	-0.428284	-0.963942	-0.438816
C23	C	-0.428274	-1.073664	-0.438807
C24	C	-0.582092	-1.518213	-0.506084
C25	C	-0.669341	-1.518265	-0.506102
C26	C	-0.710329	-1.585511	-0.438982
C27	C	-0.792310	-1.585562	-0.439009
C28	C	-0.833301	-1.518362	-0.506151
C29	C	-0.792307	-1.451114	-0.573277
C30	C	-0.710328	-1.451068	-0.573255
C31	C	-0.963177	-1.451211	-0.573317
C32	C	-1.045162	-1.451255	-0.573339
C33	C	-1.045159	-1.585705	-0.439071
C34	C	-0.963180	-1.585660	-0.439049
C35	C	-0.922192	-1.518410	-0.506175
C36	C	-0.173399	-1.518445	-0.506191
C37	C	-0.086150	-1.518500	-0.506219
C38	C	-0.378068	-1.518393	-0.780160
C39	C	-0.378036	-1.518426	-0.896937
C40	C	-0.378158	-0.792347	-0.506142
C41	C	-0.378146	-0.909124	-0.506139
C42	C	-0.327828	-1.585660	-0.951821
C43	C	-0.327794	-1.585677	-1.061545
C44	C	-0.428184	-1.451226	-1.061491
C45	C	-0.428213	-1.451203	-0.951769
C46	C	-0.378162	-1.518296	-0.233159
C47	C	-0.377973	-1.518466	-0.116383
H48	H	-0.287175	-0.919415	-0.628257
O49	O	-0.477078	-0.910555	-0.373586
C50	C	-0.527823	-0.847080	-0.433286
H51	H	-0.532743	-0.880184	-0.516017
H52	H	-0.588200	-0.845797	-0.395142
H53	H	-0.503564	-0.763934	-0.436973
O54	O	-0.476878	-1.385778	-0.898400
C55	C	-0.432196	-1.317957	-0.834918
H56	H	-0.370363	-1.311515	-0.868007
H57	H	-0.460578	-1.237085	-0.833647
H58	H	-0.429514	-1.350429	-0.751769
O59	O	-0.832210	-1.385981	-0.638551
C60	C	-0.879542	-1.445787	-0.706489
H61	H	-0.891799	-1.525433	-0.669509
H62	H	-0.937207	-1.403017	-0.720544
H63	H	-0.847897	-1.457272	-0.784351
O64	O	-0.279214	-1.126935	-0.638858
C65	C	-0.234979	-1.055023	-0.698290
H66	H	-0.232228	-0.976793	-0.655268
H67	H	-0.173139	-1.086751	-0.709647
H68	H	-0.263798	-1.043377	-0.778014
H69	H	-0.286968	-1.640394	-0.907180
O70	O	-0.477092	-1.126866	-0.373526
C71	C	-0.555351	-1.100023	-0.396280
H72	H	-0.559395	-1.069895	-0.480204
H73	H	-0.594115	-1.172166	-0.387130
H74	H	-0.575826	-1.036305	-0.339906
H75	H	-0.469038	-1.396497	-1.106148
O76	O	-0.670635	-1.650887	-0.373723
C77	C	-0.724396	-1.710232	-0.314470
H78	H	-0.782805	-1.713880	-0.357525
H79	H	-0.700669	-1.793002	-0.303326
H80	H	-0.733188	-1.671803	-0.234647
O81	O	-0.670631	-1.385650	-0.638492
C82	C	-0.724388	-1.326366	-0.697779
H83	H	-0.782851	-1.322773	-0.654755
H84	H	-0.700739	-1.243573	-0.708919
H85	H	-0.733041	-1.364812	-0.777603
H86	H	-0.825679	-1.640320	-0.384353
H87	H	-0.929805	-1.640374	-0.384372
O88	O	-1.085014	-1.385869	-0.638415
C89	C	-1.132522	-1.318079	-0.578560
H90	H	-1.107869	-1.311609	-0.495802
H91	H	-1.133477	-1.237210	-0.616497
H92	H	-1.194636	-1.350598	-0.574980
O93	O	-1.085091	-1.651113	-0.374077
C94	C	-1.166237	-1.636792	-0.388535
H95	H	-1.177378	-1.602203	-0.469533
H96	H	-1.197305	-1.715558	-0.381673
H97	H	-1.189646	-1.581036	-0.326092
O98	O	-0.923481	-1.385792	-0.638562
C99	C	-0.977238	-1.326507	-0.697848
H100	H	-1.035702	-1.322917	-0.654826
H101	H	-0.953591	-1.243713	-0.708984
H102	H	-0.985889	-1.364950	-0.777674
O103	O	-0.278998	-1.651089	-1.114697
C104	C	-0.234706	-1.710392	-1.042768
H105	H	-0.266882	-1.713992	-0.964546
H106	H	-0.226333	-1.793182	-1.074486
H107	H	-0.175087	-1.671960	-1.031108
