data_functionalizedCrystal
_audit_creation_method	'MofGen! by Chris Wilmer'
_symmetry_space_group_name_H-M	'P1'
_symmetry_Int_Tables_number	1
_symmetry_cell_setting	triclinic
loop_
_symmetry_equiv_pos_as_xyz
  x,y,z
_cell_length_a	13.339071
_cell_length_b	17.038272
_cell_length_c	11.804366
_cell_angle_alpha	77.300309
_cell_angle_beta	105.124363
_cell_angle_gamma	103.370417
loop_
_atom_site_label
_atom_site_type_symbol
_atom_site_fract_x
_atom_site_fract_y
_atom_site_fract_z
O1	O	1.396105	0.387849	0.099056
O2	O	1.097066	0.335423	0.099053
O3	O	1.244806	0.247436	0.099045
O4	O	1.248365	0.475837	0.099064
O5	O	1.205908	0.270567	-0.099009
O6	O	1.058168	0.358554	-0.099001
O7	O	1.357207	0.410980	-0.098998
Cu8	Cu	1.204136	0.386879	-0.117083
Cu9	Cu	1.250137	0.359524	0.117138
O10	O	1.209467	0.498967	-0.098990
C11	C	1.039165	0.338133	0.000025
C12	C	0.924591	0.311736	0.000024
C13	C	0.876807	0.229419	0.000012
C14	C	0.769160	0.204615	0.000017
C15	C	0.709286	0.262125	0.000022
C16	C	0.757069	0.344445	0.000025
C17	C	0.864728	0.369251	0.000030
C18	C	0.697207	0.401957	0.000040
C19	C	0.744989	0.484277	0.000043
C20	C	0.852638	0.509078	0.000047
C21	C	0.912512	0.451567	0.000042
C22	C	0.589548	0.377151	0.000035
C23	C	0.577468	0.516983	0.000053
C24	C	0.685115	0.541787	0.000049
C25	C	1.222124	0.229171	0.000018
C26	C	1.212479	0.140284	0.000018
C27	C	1.301036	0.109398	0.000018
C28	C	1.291969	0.025877	0.000029
C29	C	1.194343	-0.026756	0.000032
C30	C	1.105780	0.004134	0.000036
C31	C	1.114850	0.087653	0.000033
C32	C	1.162303	-0.279473	0.000048
C33	C	1.153239	-0.362996	0.000047
C34	C	1.339430	-0.341248	0.000043
C35	C	1.348489	-0.257728	0.000033
C36	C	1.259928	-0.226846	0.000043
C37	C	1.185072	-0.112128	0.000040
C38	C	1.269201	-0.141476	0.000044
C39	C	1.415108	0.408270	0.000032
C40	C	1.529684	0.434666	0.000042
C41	C	1.232149	0.517232	0.000040
C42	C	1.241796	0.606118	0.000047
N43	N	1.171788	0.406120	-0.281822
C44	C	1.094113	0.452340	-0.344164
C45	C	1.069653	0.466908	-0.468825
C46	C	1.122861	0.435252	-0.531155
C47	C	1.200532	0.389026	-0.468813
C48	C	1.225000	0.374461	-0.344141
C49	C	1.253748	0.357373	-0.531132
C50	C	1.331420	0.311147	-0.468790
C51	C	1.355884	0.296584	-0.344129
C52	C	1.302676	0.328241	-0.281799
C53	C	1.229280	0.371937	-0.655804
C54	C	1.360168	0.294058	-0.655781
C55	C	1.384628	0.279490	-0.531120
N56	N	1.282492	0.340279	0.281877
H57	H	0.925567	0.182602	0.000016
Cl58	Cl	1.403303	-0.012946	0.000026
H59	H	1.105583	-0.154990	0.000040
Cl60	Cl	1.003517	0.126480	0.000038
Cl61	Cl	0.502207	0.589287	0.000066
Cl62	Cl	1.027240	0.492141	-0.265805
Cl63	Cl	1.047871	0.482732	0.000164
Cl64	Cl	1.050968	-0.240661	0.000064
H65	H	1.419137	0.258952	-0.293370
Cl66	Cl	1.333423	0.309921	-0.125076
Cl67	Cl	1.482271	0.221379	-0.452735
H68	H	1.380532	0.152248	0.000009
Cl69	Cl	1.471232	-0.191571	0.000068
Cl70	Cl	0.983052	-0.062035	0.000054
H71	H	1.348693	-0.098622	0.000068
Cl72	Cl	1.427066	0.254263	-0.734132
Cl73	Cl	1.131639	0.430047	-0.734161
H74	H	0.891543	0.576106	0.000067
Cl75	Cl	0.529490	0.273668	0.000029
Cl76	Cl	1.092107	0.453564	-0.687873
H77	H	0.621635	0.241925	0.000025
H78	H	1.006415	0.504546	-0.519579
H79	H	0.724035	0.608813	0.000052
Cl80	Cl	0.709103	0.101129	0.000041
Cl81	Cl	1.030499	-0.429163	0.000044
H82	H	1.411531	-0.366402	0.000037
