data_functionalizedCrystal
_audit_creation_method	'MofGen! by Chris Wilmer'
_symmetry_space_group_name_H-M	'P1'
_symmetry_Int_Tables_number	1
_symmetry_cell_setting	triclinic
loop_
_symmetry_equiv_pos_as_xyz
  x,y,z
_cell_length_a	25.639239
_cell_length_b	25.639242
_cell_length_c	25.639233
_cell_angle_alpha	90.023283
_cell_angle_beta	89.981253
_cell_angle_gamma	89.966656
loop_
_atom_site_label
_atom_site_type_symbol
_atom_site_fract_x
_atom_site_fract_y
_atom_site_fract_z
Zn1	Zn	-0.208289	-0.799225	-0.295758
Zn2	Zn	-0.295708	-0.799149	-0.208322
Zn3	Zn	-0.208280	-0.711801	-0.208320
Zn4	Zn	-0.295687	-0.711746	-0.295710
O5	O	-0.251991	-0.755480	-0.252028
O6	O	-0.219898	-0.872380	-0.284180
O7	O	-0.284115	-0.787553	-0.135157
O8	O	-0.135116	-0.723453	-0.219938
O9	O	-0.284124	-0.872324	-0.219941
O10	O	-0.135122	-0.787683	-0.284178
O11	O	-0.219882	-0.723379	-0.135155
O12	O	-0.219862	-0.638629	-0.219892
O13	O	-0.284089	-0.723360	-0.368882
O14	O	-0.284080	-0.638589	-0.284097
O15	O	-0.219878	-0.787630	-0.368917
O16	O	-0.368870	-0.787499	-0.219895
O17	O	-0.368855	-0.723286	-0.284099
C18	C	-0.251968	-0.619638	-0.251990
C19	C	-0.251971	-0.561524	-0.251986
C20	C	-0.218495	-0.310343	-0.218641
C21	C	-0.218490	-0.364947	-0.218636
O22	O	-0.189998	-0.393194	-0.190262
N23	N	-0.251977	-0.392250	-0.252007
C24	C	-0.285466	-0.364946	-0.285389
O25	O	-0.313948	-0.393183	-0.313774
C26	C	-0.285468	-0.310342	-0.285397
C27	C	-0.251983	-0.283042	-0.252019
C28	C	-0.185013	-0.283042	-0.185266
C29	C	-0.185018	-0.228442	-0.185271
C30	C	-0.218506	-0.201141	-0.218650
C31	C	-0.251988	-0.228442	-0.252024
C32	C	-0.318954	-0.283039	-0.318781
C33	C	-0.318953	-0.228432	-0.318786
C34	C	-0.285468	-0.201132	-0.285409
C35	C	-0.285482	-0.146541	-0.285407
N36	N	-0.251995	-0.119238	-0.252035
C37	C	-0.218508	-0.146538	-0.218657
C38	C	-0.285460	-0.479616	-0.285372
C39	C	-0.285461	-0.534219	-0.285363
C40	C	-0.218485	-0.534216	-0.218609
C41	C	-0.218486	-0.479613	-0.218617
C42	C	-0.251973	-0.452313	-0.252001
C43	C	-0.218522	-0.031873	-0.218668
C44	C	-0.218532	0.022732	-0.218674
C45	C	-0.285506	0.022725	-0.285429
C46	C	-0.285498	-0.031876	-0.285422
C47	C	-0.252002	-0.059173	-0.252039
O48	O	-0.313958	-0.118259	-0.313767
O49	O	-0.190025	-0.118294	-0.190282
C50	C	-0.387833	-0.755392	-0.252004
C51	C	-0.445947	-0.755403	-0.252011
C52	C	-0.806306	-0.789004	-0.218654
C53	C	-0.860910	-0.789024	-0.218661
O54	O	-0.889143	-0.817502	-0.190273
N55	N	-0.888230	-0.755572	-0.252062
C56	C	-0.860943	-0.722102	-0.285463
O57	O	-0.889194	-0.693651	-0.313874
C58	C	-0.806339	-0.722085	-0.285458
C59	C	-0.779022	-0.755535	-0.252051
C60	C	-0.778989	-0.822452	-0.185249
C61	C	-0.724388	-0.822431	-0.185242
C62	C	-0.697105	-0.788962	-0.218639
C63	C	-0.724422	-0.755514	-0.252043
C64	C	-0.779053	-0.688617	-0.318861
C65	C	-0.724446	-0.688603	-0.318853
C66	C	-0.697129	-0.722053	-0.285446
C67	C	-0.642538	-0.722024	-0.285432
N68	N	-0.615218	-0.755475	-0.252031
C69	C	-0.642501	-0.788944	-0.218634
C70	C	-0.975613	-0.722141	-0.285471
C71	C	-1.030215	-0.722155	-0.285473
C72	C	-1.030179	-0.789078	-0.218672
C73	C	-0.975576	-0.789061	-0.218667
C74	C	-0.948293	-0.755593	-0.252069
C75	C	-0.527836	-0.788897	-0.218620
C76	C	-0.473231	-0.788872	-0.218614
C77	C	-0.473272	-0.721951	-0.285417
C78	C	-0.527873	-0.721974	-0.285422
C79	C	-0.555153	-0.755452	-0.252021
O80	O	-0.614270	-0.693562	-0.313807
O81	O	-0.614243	-0.817396	-0.190232
C82	C	-0.115618	-0.755583	-0.252063
C83	C	-0.057504	-0.755627	-0.252078
C84	C	-0.251982	-0.755497	-0.388401
C85	C	-0.251978	-0.755504	-0.446515
C86	C	-0.252013	0.108147	-0.252059
C87	C	-0.252020	0.050033	-0.252053
C88	C	-0.218444	-0.789012	-0.806902
C89	C	-0.218429	-0.789019	-0.861506
O90	O	-0.189979	-0.817466	-0.889763
N91	N	-0.251855	-0.755562	-0.888797
C92	C	-0.285294	-0.722093	-0.861482
O93	O	-0.313724	-0.693636	-0.889709
C94	C	-0.285305	-0.722084	-0.806878
C95	C	-0.251881	-0.755547	-0.779590
C96	C	-0.185022	-0.822472	-0.779613
C97	C	-0.185037	-0.822466	-0.725013
C98	C	-0.218474	-0.789000	-0.697701
C99	C	-0.251896	-0.755541	-0.724989
C100	C	-0.318741	-0.688613	-0.779563
C101	C	-0.318749	-0.688607	-0.724956
C102	C	-0.285325	-0.722069	-0.697668
C103	C	-0.285349	-0.722070	-0.643077
N104	N	-0.251923	-0.755526	-0.615785
C105	C	-0.218486	-0.788992	-0.643097
C106	C	-0.285267	-0.722113	-0.976152
C107	C	-0.285258	-0.722124	-1.030755
C108	C	-0.218393	-0.789049	-1.030775
C109	C	-0.218404	-0.789041	-0.976172
C110	C	-0.251841	-0.755570	-0.948861
C111	C	-0.218521	-0.788977	-0.528432
C112	C	-0.218540	-0.788970	-0.473827
C113	C	-0.285404	-0.722043	-0.473811
C114	C	-0.285386	-0.722052	-0.528411
C115	C	-0.251940	-0.755521	-0.555721
O116	O	-0.313783	-0.693635	-0.614785
O117	O	-0.190056	-0.817439	-0.614863
C118	C	-0.251962	-0.755494	-0.116185
C119	C	-0.251819	-0.755588	-0.058071
H120	H	-0.191218	-0.457388	-0.191440
Br121	Br	-0.173087	0.059779	-0.173372
H122	H	-0.312482	-0.694881	-1.052968
Br123	Br	-0.564947	-0.676565	-0.330748
Br124	Br	-1.067282	-0.676749	-0.330806
H125	H	-0.345959	-0.661364	-0.801772
H126	H	-0.345973	-0.661345	-0.702723
Br127	Br	-0.330780	-0.676627	-0.436734
H128	H	-0.801197	-0.849709	-0.158054
H129	H	-0.312608	-0.694809	-0.550631
H130	H	-0.312773	0.044963	-0.312603
Br131	Br	-0.938592	-0.676712	-0.330803
Br132	Br	-0.173041	-0.834456	-0.939143
H133	H	-0.191243	-0.054092	-0.191488
Br134	Br	-0.139567	-0.191400	-0.139976
H135	H	-0.191216	-0.556454	-0.191432
Br136	Br	-0.330916	-0.571262	-0.330653
Br137	Br	-0.139556	-0.320082	-0.139962
H138	H	-0.312733	-0.457393	-0.312556
Br139	Br	-0.938509	-0.834459	-0.173326
H140	H	-0.550042	-0.816159	-0.191424
H141	H	-0.450991	-0.816111	-0.191408
Br142	Br	-0.816112	-0.643223	-0.364208
H143	H	-1.052404	-0.816333	-0.191480
H144	H	-0.191284	-0.816229	-0.550661
Br145	Br	-0.687324	-0.867838	-0.139908
H146	H	-0.191165	-0.816298	-1.053023
Br147	Br	-0.687422	-0.643181	-0.364190
H148	H	-0.346222	-0.305258	-0.345960
Br149	Br	-0.364400	-0.191386	-0.364098
H150	H	-0.451049	-0.694699	-0.312607
H151	H	-0.191322	-0.816221	-0.451611
Br152	Br	-0.330949	-0.068927	-0.330713
H153	H	-0.157818	-0.849714	-0.702799
H154	H	-0.157790	-0.849723	-0.801845
H155	H	-0.312498	-0.694857	-0.953919
