data_functionalizedCrystal
_audit_creation_method	'MofGen! by Chris Wilmer'
_symmetry_space_group_name_H-M	'P1'
_symmetry_Int_Tables_number	1
_symmetry_cell_setting	triclinic
loop_
_symmetry_equiv_pos_as_xyz
  x,y,z
_cell_length_a	10.654550
_cell_length_b	23.532407
_cell_length_c	9.730223
_cell_angle_alpha	89.994043
_cell_angle_beta	89.996251
_cell_angle_gamma	83.666790
loop_
_atom_site_label
_atom_site_type_symbol
_atom_site_fract_x
_atom_site_fract_y
_atom_site_fract_z
O1	O	1.665300	0.079982	-0.114418
O2	O	1.299580	0.087603	-0.114398
O3	O	1.493468	0.000933	-0.114384
O4	O	1.471412	0.166652	-0.114433
O5	O	1.493466	0.000935	0.114196
O6	O	1.299578	0.087605	0.114182
O7	O	1.665298	0.079985	0.114161
Zn8	Zn	1.482437	0.083795	0.150464
Zn9	Zn	1.482440	0.083792	-0.150700
O10	O	1.471409	0.166655	0.114147
C11	C	1.252799	0.087044	-0.000105
C12	C	1.113408	0.085370	-0.000096
C13	C	1.032306	0.136400	-0.000131
C14	C	0.901335	0.134824	-0.000154
C15	C	0.932582	0.031183	-0.000113
C16	C	1.063550	0.032760	-0.000080
C17	C	1.014265	0.196236	-0.000161
C18	C	0.883294	0.194660	-0.000184
C19	C	1.492905	-0.020286	-0.000090
C20	C	1.491217	-0.083514	-0.000079
C21	C	1.595364	-0.481938	-0.000161
C22	C	1.593795	-0.541349	-0.000171
O23	O	1.690341	-0.577464	-0.000227
N24	N	1.478529	-0.564726	-0.000164
C25	C	1.364824	-0.528689	-0.000160
O26	O	1.266636	-0.554029	-0.000156
C27	C	1.366394	-0.469280	-0.000159
C28	C	1.481668	-0.445906	-0.000153
C29	C	1.710629	-0.458564	-0.000156
C30	C	1.712197	-0.399158	-0.000143
C31	C	1.598500	-0.363126	-0.000135
C32	C	1.483236	-0.386500	-0.000140
C33	C	1.252690	-0.433244	-0.000165
C34	C	1.254270	-0.373832	-0.000166
C35	C	1.369544	-0.350458	-0.000159
C36	C	1.371107	-0.291061	-0.000119
N37	N	1.486374	-0.267684	-0.000126
C38	C	1.600070	-0.303716	-0.000134
C39	C	1.361535	-0.653453	-0.000163
C40	C	1.359964	-0.712861	-0.000154
C41	C	1.588936	-0.725517	-0.000168
C42	C	1.590506	-0.666108	-0.000167
C43	C	1.476802	-0.630076	-0.000171
C44	C	1.603355	-0.178958	-0.000106
C45	C	1.604913	-0.119546	-0.000087
C46	C	1.375942	-0.106896	-0.000081
C47	C	1.374383	-0.166303	-0.000092
C48	C	1.488100	-0.202333	-0.000109
O49	O	1.274613	-0.254911	-0.000068
O50	O	1.698241	-0.278369	-0.000157
C51	C	1.712079	0.080543	-0.000135
C52	C	1.851469	0.082217	-0.000152
C53	C	1.471972	0.187873	-0.000149
C54	C	1.473661	0.251101	-0.000169
N55	N	1.482444	0.083797	0.356000
N56	N	1.482443	0.083786	-0.356237
C57	C	1.568320	0.045432	0.427932
C58	C	1.568317	0.045425	0.571815
C59	C	1.396559	0.122152	0.571821
C60	C	1.396557	0.122156	0.427941
C61	C	1.667486	0.001136	0.427930
C62	C	1.667483	0.001129	0.571813
H63	H	1.698787	-0.100519	-0.000079
C64	C	1.303258	0.163708	0.650110
C65	C	1.226798	0.133043	0.732741
C66	C	1.140846	0.171306	0.804890
H67	H	1.251991	0.186574	0.586819
H68	H	1.348094	0.187595	0.706316
H69	H	1.181965	0.109166	0.676540
H70	H	1.278030	0.110179	0.796057
H71	H	1.185682	0.195192	0.861096
H72	H	1.089587	0.194169	0.741590
H73	H	1.088965	0.150505	0.860973
C74	C	1.795632	0.014220	0.624072
C75	C	1.780549	0.063981	0.703988
C76	C	1.898563	0.076053	0.752164
H77	H	1.849177	0.019689	0.548261
H78	H	1.832365	-0.016813	0.678379
H79	H	1.743834	0.095007	0.649684
H80	H	1.727026	0.058525	0.779819
H81	H	1.935296	0.045020	0.806471
H82	H	1.952099	0.081519	0.676344
H83	H	1.888344	0.109814	0.806402
H84	H	1.326620	0.153390	0.369375
H85	H	0.840848	0.217205	-0.095859
H86	H	1.638281	-0.040234	0.616443
H87	H	1.647430	-0.042635	0.388891
H88	H	1.695954	-0.208288	-0.000125
C89	C	1.052356	0.227341	0.127552
C90	C	1.017070	0.198494	0.244824
C91	C	1.052155	0.227125	0.362494
H92	H	1.011223	0.265267	0.127731
H93	H	1.141238	0.228397	0.127653
H94	H	0.928205	0.197445	0.244723
H95	H	1.058199	0.160570	0.244690
H96	H	1.141037	0.228180	0.362596
H97	H	1.011020	0.265049	0.362659
H98	H	1.028230	0.207553	0.442077
H99	H	1.129581	-0.008793	-0.000032
H100	H	1.684372	-0.647081	-0.000163
H101	H	1.806065	-0.380133	-0.000143
C102	C	1.252411	-0.067835	-0.000297
C103	C	1.182958	-0.078468	-0.117886
C104	C	1.069149	-0.042499	-0.118136
H105	H	1.269688	-0.029088	-0.000367
H106	H	1.205029	-0.074978	0.079368
H107	H	1.230330	-0.071321	-0.197530
H108	H	1.165647	-0.117208	-0.117841
H109	H	1.021767	-0.049642	-0.038471
H110	H	1.086438	-0.003755	-0.118202
H111	H	1.022006	-0.049713	-0.197912
C112	C	0.821594	0.218651	0.131487
C113	C	0.760464	0.176307	0.196502
C114	C	0.703632	0.198378	0.317814
H115	H	0.761739	0.250394	0.110247
H116	H	0.884378	0.230596	0.190933
H117	H	0.697687	0.164370	0.137070
H118	H	0.820293	0.144561	0.217777
H119	H	0.766416	0.210322	0.377260
H120	H	0.643783	0.230120	0.296561
H121	H	0.662159	0.169649	0.361949
C122	C	1.788469	0.019730	0.368615
C123	C	1.802609	0.075219	0.413299
C124	C	1.914051	0.092368	0.358713
H125	H	1.784449	0.019152	0.271109
H126	H	1.858502	-0.005698	0.398807
H127	H	1.732594	0.100639	0.383099
H128	H	1.806652	0.075811	0.510798
H129	H	1.984084	0.066941	0.388905
H130	H	1.910020	0.091788	0.261209
H131	H	1.923666	0.130017	0.389033
H132	H	1.803219	-0.487896	-0.000167
H133	H	1.049317	0.215288	-0.098854
C134	C	1.237940	-0.614431	-0.000075
C135	C	1.136670	-0.647625	-0.000031
C136	C	1.022798	-0.611701	0.000066
H137	H	1.233602	-0.590975	-0.079762
H138	H	1.233720	-0.591005	0.079671
H139	H	1.140888	-0.671041	-0.079769
H140	H	1.140967	-0.671080	0.079649
H141	H	1.018578	-0.588276	0.079812
H142	H	1.018473	-0.588247	-0.079622
H143	H	0.954073	-0.634218	0.000108
H144	H	1.266096	-0.731887	-0.000135
C145	C	0.878518	-0.025951	0.000176
C146	C	0.919748	-0.056823	0.117810
C147	C	0.869960	-0.109455	0.118129
H148	H	0.906388	-0.047054	-0.079430
H149	H	0.788898	-0.019607	0.000228
H150	H	1.009349	-0.063169	0.117745
H151	H	0.891880	-0.035737	0.197435
H152	H	0.780339	-0.103111	0.118181
H153	H	0.897833	-0.130553	0.038518
H154	H	0.897917	-0.130406	0.197948
C155	C	1.127491	-0.458577	-0.000467
C156	C	1.058845	-0.440303	-0.118089
C157	C	0.943505	-0.463631	-0.118426
H158	H	1.080551	-0.446257	0.079147
H159	H	1.142762	-0.499123	-0.000547
H160	H	1.043570	-0.399766	-0.117996
H161	H	1.105747	-0.452622	-0.197721
H162	H	0.958776	-0.504177	-0.118506
H163	H	0.896576	-0.451309	-0.038807
H164	H	0.896919	-0.451240	-0.198236
C165	C	1.130853	-0.334684	-0.000448
C166	C	1.125052	-0.300209	-0.118059
C167	C	1.011376	-0.264146	-0.118372
H168	H	1.126576	-0.311197	0.079173
H169	H	1.061947	-0.357097	-0.000527
H170	H	1.193940	-0.277798	-0.117968
H171	H	1.129308	-0.323680	-0.197699
H172	H	0.942469	-0.286559	-0.118451
H173	H	1.007108	-0.240664	-0.038746
H174	H	1.007419	-0.240755	-0.198175
H175	H	1.681514	-0.754865	-0.000180
C176	C	1.249265	-0.191714	0.000195
C177	C	1.241651	-0.225452	0.117798
C178	C	1.126402	-0.248857	0.118105
H179	H	1.243768	-0.214656	-0.079432
H180	H	1.181744	-0.161757	0.000282
H181	H	1.309154	-0.255404	0.117699
H182	H	1.247126	-0.202522	0.197444
H183	H	1.058880	-0.218901	0.118191
H184	H	1.120915	-0.271797	0.038473
H185	H	1.121215	-0.271747	0.197902
