data_functionalizedCrystal
_audit_creation_method	'MofGen! by Chris Wilmer'
_symmetry_space_group_name_H-M	'P1'
_symmetry_Int_Tables_number	1
_symmetry_cell_setting	triclinic
loop_
_symmetry_equiv_pos_as_xyz
  x,y,z
_cell_length_a	12.827893
_cell_length_b	12.827892
_cell_length_c	12.827885
_cell_angle_alpha	90.029786
_cell_angle_beta	90.019272
_cell_angle_gamma	90.015362
loop_
_atom_site_label
_atom_site_type_symbol
_atom_site_fract_x
_atom_site_fract_y
_atom_site_fract_z
Zn1	Zn	-1.597670	0.415983	-0.590849
Zn2	Zn	-1.097670	0.915983	-0.090849
Zn3	Zn	-1.597564	0.590761	-0.416109
Zn4	Zn	-1.097564	1.090761	0.083891
Zn5	Zn	-1.422911	0.416034	-0.416122
Zn6	Zn	-0.922911	0.916034	0.083878
Zn7	Zn	-1.422896	0.590683	-0.590809
Zn8	Zn	-0.922896	1.090683	-0.090809
O9	O	-1.510260	0.503365	-0.503472
O10	O	-1.010260	1.003365	-0.003472
O11	O	-1.743892	0.439179	-0.567680
O12	O	-1.243892	0.939179	-0.067680
O13	O	-1.574357	0.567637	-0.269875
O14	O	-1.074357	1.067637	0.230125
O15	O	-1.446144	0.269791	-0.439322
O16	O	-0.946144	0.769791	0.060678
O17	O	-1.743814	0.567587	-0.439300
O18	O	-1.243814	1.067587	0.060700
O19	O	-1.574538	0.269754	-0.567693
O20	O	-1.074538	0.769754	-0.067693
O21	O	-1.446041	0.439266	-0.269884
O22	O	-0.946041	0.939266	0.230116
O23	O	-1.276673	0.439190	-0.439284
O24	O	-0.776673	0.939190	0.060716
O25	O	-1.446118	0.567455	-0.737050
O26	O	-0.946118	1.067455	-0.237050
O27	O	-1.276662	0.567504	-0.567625
O28	O	-0.776662	1.067504	-0.067625
O29	O	-1.574524	0.439104	-0.737080
O30	O	-1.074524	0.939104	-0.237080
O31	O	-1.574343	0.736986	-0.439261
O32	O	-1.074343	1.236986	0.060739
O33	O	-1.446016	0.736929	-0.567612
O34	O	-0.946016	1.236929	-0.067612
C35	C	-1.238750	0.503345	-0.503452
C36	C	-0.738750	1.003345	-0.003452
C37	C	-1.122597	0.503362	-0.503469
C38	C	-0.622597	1.003362	-0.003469
C39	C	-1.510195	0.774875	-0.503454
C40	C	-1.010195	1.274875	-0.003454
C41	C	-1.510262	0.891028	-0.503481
C42	C	-1.010262	1.391028	-0.003481
C43	C	-1.510331	0.503265	-0.776043
C44	C	-1.010331	1.003265	-0.276043
C45	C	-1.510362	0.503222	-0.892196
C46	C	-1.010362	1.003222	-0.392196
C47	C	-1.782830	0.503386	-0.503493
C48	C	-1.282830	1.003386	-0.003493
C49	C	-1.898983	0.503395	-0.503502
C50	C	-1.398983	1.003395	-0.003502
C51	C	-1.070835	0.566954	-0.566878
C52	C	-0.570835	1.066954	-0.066878
C53	C	-0.950784	0.566973	-0.566896
C54	C	-0.450784	1.066973	-0.066896
C55	C	-1.510354	0.230795	-0.503514
C56	C	-1.010354	0.730795	-0.003514
C57	C	-1.510394	0.114642	-0.503531
C58	C	-1.010394	0.614642	-0.003531
C59	C	-1.573838	0.942807	-0.440039
C60	C	-1.073838	1.442807	0.059961
C61	C	-1.573910	1.062857	-0.440066
C62	C	-1.073910	1.562857	0.059934
C63	C	-1.573907	0.439697	-0.943995
C64	C	-1.073907	0.939697	-0.443995
C65	C	-1.573940	0.439652	-1.064045
C66	C	-1.073940	0.939652	-0.564045
C67	C	-1.510249	0.503390	-0.231962
C68	C	-1.010249	1.003390	0.268038
C69	C	-1.510422	0.503138	-0.115810
C70	C	-1.010422	1.003138	0.384190
H71	H	-1.115396	0.621381	-0.621155
H72	H	-0.615396	1.121381	-0.121155
Br73	Br	-0.973163	0.412651	-0.413002
Br74	Br	-0.473163	0.912651	0.086998
H75	H	-0.906270	0.621420	-0.621181
H76	H	-0.406270	1.121420	-0.121181
Br77	Br	-1.664485	0.868569	-0.349482
Br78	Br	-1.164485	1.368569	0.150518
Br79	Br	-1.664627	1.137066	-0.349523
Br80	Br	-1.164627	1.637066	0.150477
H81	H	-1.078036	0.448927	-0.449199
H82	H	-0.578036	0.948927	0.050801
H83	H	-1.455975	0.557567	-0.936725
H84	H	-0.955975	1.057567	-0.436725
Br85	Br	-1.419657	1.040440	-0.594059
Br86	Br	-0.919657	1.540440	-0.094059
H87	H	-1.455890	0.935576	-0.557819
H88	H	-0.955890	1.435576	-0.057819
H89	H	-1.628283	0.385342	-0.899465
H90	H	-1.128283	0.885342	-0.399465
Br91	Br	-1.664632	0.349008	-1.138284
Br92	Br	-1.164632	0.849008	-0.638284
Br93	Br	-1.419745	0.593802	-1.041578
Br94	Br	-0.919745	1.093802	-0.541578
