data_functionalizedCrystal
_audit_creation_method	'MofGen! by Chris Wilmer'
_symmetry_space_group_name_H-M	'P1'
_symmetry_Int_Tables_number	1
_symmetry_cell_setting	triclinic
loop_
_symmetry_equiv_pos_as_xyz
  x,y,z
_cell_length_a	42.784839
_cell_length_b	42.784841
_cell_length_c	42.784893
_cell_angle_alpha	59.997391
_cell_angle_beta	90.001578
_cell_angle_gamma	119.999863
loop_
_atom_site_label
_atom_site_type_symbol
_atom_site_fract_x
_atom_site_fract_y
_atom_site_fract_z
O1	O	0.266395	-0.223712	0.009300
O2	O	0.220944	-0.159709	-0.009253
O3	O	0.220942	-0.223711	0.054750
O4	O	0.266397	-0.159710	-0.054703
O5	O	0.168958	-0.275695	0.054750
O6	O	0.168960	-0.211692	-0.009253
O7	O	0.214411	-0.275696	0.009300
Cu8	Cu	0.186939	-0.248441	0.000023
Cu9	Cu	0.248416	-0.186964	0.000024
O10	O	0.214413	-0.211693	-0.054703
C11	C	0.079133	0.005334	-0.028113
C12	C	0.041517	-0.013385	-0.028376
C13	C	0.079134	-0.051262	-0.028116
C14	C	0.041518	-0.069896	-0.028379
C15	C	0.022535	-0.051264	-0.028112
C16	C	0.098031	-0.013383	-0.028379
C17	C	0.170812	0.131572	-0.017864
C18	C	0.188751	0.167325	-0.014965
C19	C	0.169411	0.185259	-0.013509
C20	C	0.188858	0.224021	-0.010359
C21	C	0.132130	0.167439	-0.014954
C22	C	0.114196	0.131692	-0.017857
C23	C	0.133538	0.113758	-0.019312
C24	C	-0.113954	-0.096077	-0.017859
C25	C	-0.152606	-0.116789	-0.014961
C26	C	-0.171997	-0.155518	-0.013506
C27	C	-0.213906	-0.177983	-0.010358
C28	C	-0.152730	-0.173531	-0.014954
C29	C	-0.114078	-0.152815	-0.017859
C30	C	-0.094692	-0.114086	-0.019310
C31	C	0.170816	-0.096066	-0.017877
C32	C	0.188755	-0.116780	-0.014977
C33	C	0.169415	-0.155509	-0.013524
C34	C	0.188864	-0.177971	-0.010378
C35	C	0.132137	-0.173524	-0.014967
C36	C	0.114199	-0.152810	-0.017865
C37	C	0.133544	-0.114078	-0.019324
C38	C	0.114086	0.074994	-0.022457
C39	C	0.098582	0.044095	-0.024965
C40	C	0.098584	-0.073721	-0.024972
C41	C	0.114089	-0.091622	-0.022466
C42	C	-0.019375	-0.073726	-0.024964
C43	C	-0.052781	-0.091629	-0.022456
O44	O	-0.337178	-0.275710	0.009322
O45	O	-0.227725	-0.211707	-0.009228
O46	O	-0.291723	-0.275712	0.054774
O47	O	-0.273180	-0.211705	-0.054680
O48	O	-0.291724	-0.223730	0.054777
O49	O	-0.227727	-0.159725	-0.009225
O50	O	-0.337179	-0.223728	0.009325
Cu51	Cu	-0.282453	-0.186980	0.000050
Cu52	Cu	-0.282452	-0.248455	0.000046
O53	O	-0.273181	-0.159723	-0.054677
C54	C	0.356218	-0.051012	-0.361563
C55	C	0.393833	-0.013131	-0.380461
C56	C	0.356218	-0.051011	-0.304965
C57	C	0.393834	-0.013131	-0.323949
C58	C	0.412817	0.005587	-0.361564
C59	C	0.337321	-0.069644	-0.323947
C60	C	0.264537	-0.152939	-0.396122
C61	C	0.246597	-0.173776	-0.413935
C62	C	0.265937	-0.155891	-0.451211
C63	C	0.246489	-0.178487	-0.470525
C64	C	0.303217	-0.117165	-0.470672
C65	C	0.321153	-0.096327	-0.452860
C66	C	0.301811	-0.114216	-0.415583
C67	C	0.549304	0.131828	-0.453245
C68	C	0.587956	0.167582	-0.471186
C69	C	0.607347	0.185518	-0.451848
C70	C	0.649257	0.224280	-0.471294
C71	C	0.588082	0.167698	-0.414568
C72	C	0.549430	0.131950	-0.396630
C73	C	0.530043	0.114015	-0.415973
C74	C	0.264539	-0.152937	-0.168476
C75	C	0.246601	-0.173777	-0.129822
C76	C	0.265941	-0.155892	-0.110433
C77	C	0.246494	-0.178487	-0.068522
C78	C	0.303220	-0.117169	-0.129698
C79	C	0.321156	-0.096331	-0.168350
C80	C	0.301811	-0.114217	-0.187737
C81	C	0.321264	-0.091619	-0.396270
C82	C	0.336768	-0.073608	-0.380876
C83	C	0.336769	-0.073607	-0.263055
C84	C	0.321265	-0.091618	-0.229649
C85	C	0.454726	0.044350	-0.381014
C86	C	0.488132	0.075249	-0.396518
C87	C	0.412565	-0.384405	0.028194
C88	C	0.393582	-0.422286	0.028459
C89	C	0.355967	-0.384403	0.028191
C90	C	0.337070	-0.422284	0.028456
C91	C	0.355967	-0.441004	0.028193
C92	C	0.393582	-0.365771	0.028456
C93	C	0.549051	-0.282481	0.017949
C94	C	0.587702	-0.261644	0.015053
C95	C	0.607091	-0.279531	0.013601
C96	C	0.649002	-0.256936	0.010454
C97	C	0.587826	-0.318258	0.015048
C98	C	0.549176	-0.339095	0.017949
C99	C	0.529788	-0.321205	0.019400
C100	C	0.321405	-0.567246	0.017951
C101	C	0.303590	-0.603001	0.015055
C102	C	0.266317	-0.620936	0.013598
C103	C	0.247000	-0.659699	0.010452
C104	C	0.246857	-0.603115	0.015042
C105	C	0.264668	-0.567367	0.017945
C106	C	0.301946	-0.549432	0.019397
C107	C	0.321408	-0.282473	0.017937
C108	C	0.303596	-0.261631	0.015032
C109	C	0.266321	-0.279516	0.013577
C110	C	0.247007	-0.256919	0.010426
C111	C	0.246862	-0.318239	0.015022
C112	C	0.264676	-0.339078	0.017925
C113	C	0.301949	-0.321193	0.019385
C114	C	0.487880	-0.343800	0.022542
C115	C	0.454474	-0.361810	0.025048
C116	C	0.336655	-0.361806	0.025042
C117	C	0.321260	-0.343794	0.022533
C118	C	0.336653	-0.479767	0.025048
C119	C	0.321258	-0.510666	0.022541
O120	O	0.214405	0.327611	0.009323
O121	O	0.168952	0.236709	-0.009227
O122	O	0.168954	0.236703	0.054775
O123	O	0.214403	0.327616	-0.054679
O124	O	0.220939	0.236705	0.054772
O125	O	0.220937	0.236710	-0.009230
O126	O	0.266390	0.327612	0.009320
Cu127	Cu	0.248410	0.282162	0.000045
Cu128	Cu	0.186932	0.282160	0.000049
O129	O	0.266388	0.327618	-0.054682
O130	O	0.772529	0.327875	-0.496844
O131	O	0.663077	0.236970	-0.451389
O132	O	0.727075	0.236968	-0.451387
O133	O	0.708531	0.327878	-0.496846
O134	O	0.727074	0.236967	-0.503371
O135	O	0.663076	0.236969	-0.503373
O136	O	0.772528	0.327874	-0.548828
Cu137	Cu	0.717802	0.282421	-0.530847
Cu138	Cu	0.717803	0.282423	-0.469370
O139	O	0.708530	0.327876	-0.548830
O140	O	0.220941	-0.223712	-0.548571
O141	O	0.266394	-0.159712	-0.503120
O142	O	0.266393	-0.223714	-0.503116
O143	O	0.220943	-0.159710	-0.548575
O144	O	0.214408	-0.275699	-0.451132
O145	O	0.214410	-0.211697	-0.451135
O146	O	0.168957	-0.275697	-0.496587
Cu147	Cu	0.186937	-0.248443	-0.469114
Cu148	Cu	0.248414	-0.186966	-0.530592
O149	O	0.168958	-0.211695	-0.496590
C150	C	0.022781	-0.440750	0.361611
C151	C	0.041764	-0.422031	0.380508
C152	C	0.079380	-0.384151	0.305012
C153	C	0.098277	-0.365518	0.323995
C154	C	0.079380	-0.384151	0.361610
C155	C	0.041764	-0.422031	0.323995
C156	C	-0.113706	-0.566990	0.396173
C157	C	-0.152358	-0.602744	0.413988
C158	C	-0.171748	-0.620680	0.451263
C159	C	-0.213659	-0.659442	0.470579
C160	C	-0.152482	-0.602860	0.470724
C161	C	-0.113832	-0.567112	0.452911
C162	C	-0.094444	-0.549177	0.415634
C163	C	0.113941	-0.339343	0.453288
C164	C	0.131756	-0.318631	0.471228
C165	C	0.169030	-0.279901	0.451889
C166	C	0.188347	-0.257437	0.471334
C167	C	0.188490	-0.261887	0.414609
C168	C	0.170679	-0.282602	0.396672
C169	C	0.133400	-0.321331	0.416016
C170	C	0.113942	-0.339342	0.168524
C171	C	0.131755	-0.318627	0.129870
C172	C	0.169030	-0.279897	0.110480
C173	C	0.188346	-0.257433	0.068569
C174	C	0.188489	-0.261882	0.129744
C175	C	0.170675	-0.282598	0.168396
C176	C	0.133401	-0.321331	0.187784
C177	C	-0.052535	-0.510411	0.396320
C178	C	-0.019128	-0.479512	0.380925
C179	C	0.098694	-0.361690	0.263102
C180	C	0.114089	-0.343788	0.229696
C181	C	0.098693	-0.361691	0.381059
C182	C	0.114088	-0.343788	0.396563
C183	C	-0.310591	-0.384430	0.361639
C184	C	-0.310854	-0.422310	0.380535
C185	C	-0.310592	-0.384426	0.305038
C186	C	-0.310855	-0.422306	0.324020
C187	C	-0.310589	-0.441026	0.361636
C188	C	-0.310856	-0.365795	0.324023
C189	C	-0.300345	-0.282509	0.396205
C190	C	-0.297448	-0.261674	0.414021
C191	C	-0.295992	-0.279561	0.451296
C192	C	-0.292844	-0.256968	0.470613
C193	C	-0.297437	-0.318288	0.470756
C194	C	-0.300339	-0.339123	0.452942
C195	C	-0.301793	-0.321232	0.415665
C196	C	-0.300337	-0.567268	0.453312
C197	C	-0.297439	-0.603023	0.471251
C198	C	-0.295983	-0.620956	0.451911
C199	C	-0.292835	-0.659719	0.471356
C200	C	-0.297430	-0.603135	0.414631
C201	C	-0.300335	-0.567387	0.396695
C202	C	-0.301786	-0.549454	0.416040
C203	C	-0.300351	-0.282493	0.168550
C204	C	-0.297450	-0.261650	0.129896
C205	C	-0.295996	-0.279534	0.110505
C206	C	-0.292849	-0.256936	0.068594
C207	C	-0.297439	-0.318257	0.129768
C208	C	-0.300338	-0.339097	0.168421
C209	C	-0.301797	-0.321213	0.187810
C210	C	-0.304937	-0.343826	0.396350
C211	C	-0.307444	-0.361836	0.380954
C212	C	-0.307447	-0.361827	0.263128
C213	C	-0.304941	-0.343814	0.229722
C214	C	-0.307441	-0.479789	0.381084
C215	C	-0.304933	-0.510688	0.396587
C216	C	-0.254315	0.005345	-0.361540
C217	C	-0.254051	-0.013372	-0.380438
C218	C	-0.254313	-0.051256	-0.304942
C219	C	-0.254048	-0.069887	-0.323926
C220	C	-0.254314	-0.051252	-0.361542
C221	C	-0.254049	-0.013376	-0.323924
C222	C	-0.264566	0.131583	-0.396098
C223	C	-0.267464	0.167338	-0.413911
C224	C	-0.268920	0.185274	-0.451187
C225	C	-0.272070	0.224037	-0.470501
C226	C	-0.267474	0.167457	-0.470649
C227	C	-0.264571	0.131709	-0.452837
C228	C	-0.263116	0.113772	-0.415560
C229	C	-0.264562	-0.096054	-0.453224
C230	C	-0.267460	-0.116764	-0.471165
C231	C	-0.268914	-0.155494	-0.451828
C232	C	-0.272061	-0.177956	-0.471275
C233	C	-0.267467	-0.173510	-0.414547
C234	C	-0.264563	-0.152797	-0.396609
C235	C	-0.263113	-0.114067	-0.415952
C236	C	-0.264555	-0.096071	-0.168452
C237	C	-0.267456	-0.116788	-0.129798
C238	C	-0.268909	-0.155518	-0.110409
C239	C	-0.272056	-0.177984	-0.068497
C240	C	-0.267465	-0.173531	-0.129674
C241	C	-0.264565	-0.152814	-0.168326
C242	C	-0.263107	-0.114081	-0.187714
C243	C	-0.259972	0.075006	-0.396247
C244	C	-0.257463	0.044107	-0.380853
C245	C	-0.257458	-0.073718	-0.263032
C246	C	-0.259964	-0.091622	-0.229625
C247	C	-0.257461	-0.073711	-0.380992
C248	C	-0.259968	-0.091612	-0.396497
C249	C	0.079132	-0.051321	0.361625
C250	C	0.041516	-0.069957	0.380523
C251	C	0.079132	0.005285	0.305030
C252	C	0.041516	-0.013438	0.324014
C253	C	0.022533	-0.051323	0.361628
C254	C	0.098030	-0.013436	0.324010
C255	C	0.170814	-0.096129	0.396177
C256	C	0.188754	-0.116842	0.413989
C257	C	0.169414	-0.155576	0.451263
C258	C	0.188862	-0.178041	0.470576
C259	C	0.132134	-0.173595	0.470725
C260	C	0.114198	-0.152878	0.452915
C261	C	0.133540	-0.114144	0.415639
C262	C	-0.113955	-0.153264	0.453309
C263	C	-0.152608	-0.174104	0.471250
C264	C	-0.171999	-0.156220	0.451914
C265	C	-0.213909	-0.178816	0.471360
C266	C	-0.152734	-0.117489	0.414635
C267	C	-0.114081	-0.096645	0.396697
C268	C	-0.094695	-0.114539	0.416038
C269	C	0.170812	0.131546	0.168543
C270	C	0.188751	0.167303	0.129890
C271	C	0.169411	0.185240	0.110502
C272	C	0.188858	0.224009	0.068592
C273	C	0.132131	0.167417	0.129768
C274	C	0.114194	0.131660	0.168419
C275	C	0.133540	0.113730	0.187805
C276	C	0.114087	-0.091686	0.396329
C277	C	0.098582	-0.073782	0.380936
C278	C	0.098581	0.044053	0.263121
C279	C	0.114086	0.074957	0.229715
C280	C	-0.019377	-0.073922	0.381078
C281	C	-0.052783	-0.091936	0.396583
O282	O	-0.273152	-0.211741	0.548658
O283	O	-0.291710	-0.275743	0.503207
O284	O	-0.227706	-0.211741	0.503199
O285	O	-0.337156	-0.275743	0.548666
O286	O	-0.227712	-0.159756	0.451217
O287	O	-0.291716	-0.223759	0.451225
O288	O	-0.273158	-0.159757	0.496675
Cu289	Cu	-0.282437	-0.187011	0.469204
Cu290	Cu	-0.282430	-0.248489	0.530679
O291	O	-0.337162	-0.223759	0.496684
C292	C	0.412565	0.615644	-0.361535
C293	C	0.393582	0.634278	-0.380430
C294	C	0.355966	0.559036	-0.304936
C295	C	0.337069	0.577757	-0.323917
C296	C	0.355966	0.615642	-0.361532
C297	C	0.393582	0.577758	-0.323921
C298	C	0.549053	0.660459	-0.396101
C299	C	0.587705	0.681174	-0.413917
C300	C	0.607095	0.719908	-0.451191
C301	C	0.649006	0.742375	-0.470507
C302	C	0.587829	0.737925	-0.470650
C303	C	0.549179	0.717207	-0.452836
C304	C	0.529791	0.678472	-0.415560
C305	C	0.321403	0.717577	-0.453201
C306	C	0.303588	0.738416	-0.471139
C307	C	0.266314	0.720530	-0.451799
C308	C	0.246997	0.743124	-0.471242
C309	C	0.246853	0.681799	-0.414520
C310	C	0.264665	0.660957	-0.396586
C311	C	0.301944	0.678853	-0.415931
C312	C	0.321404	0.432777	-0.168453
C313	C	0.303591	0.397020	-0.129800
C314	C	0.266315	0.379081	-0.110409
C315	C	0.247000	0.340312	-0.068498
C316	C	0.246856	0.396902	-0.129671
C317	C	0.264671	0.432659	-0.168322
C318	C	0.301945	0.450592	-0.187711
C319	C	0.487881	0.656012	-0.396246
C320	C	0.454475	0.638107	-0.380850
C321	C	0.336652	0.520268	-0.263028
C322	C	0.321257	0.489364	-0.229622
C323	C	0.336652	0.638240	-0.380978
C324	C	0.321256	0.656252	-0.396480
H325	H	0.128938	0.002286	-0.028807
C326	C	0.362411	-0.262794	0.019536
N327	N	0.393296	-0.247971	0.020739
H328	H	-0.168272	-0.617468	0.501074
C329	C	0.527979	0.112107	-0.474526
N330	N	0.511915	0.097253	-0.490553
H331	H	0.248823	0.447166	-0.184003
H332	H	-0.268641	-0.102125	-0.114112
C333	C	0.229755	0.186920	-0.013371
N334	N	0.260639	0.201677	-0.012168
H335	H	-0.301521	-0.552671	0.469066
C336	C	-0.311425	-0.443474	0.422288
N337	N	-0.311854	-0.459415	0.453734
H338	H	0.186565	0.116974	-0.019049
H339	H	0.351755	0.732150	-0.468955
H340	H	0.186521	-0.267927	0.184078
H341	H	-0.097924	-0.552391	0.365822
C342	C	-0.173797	-0.216710	0.512252
N343	N	-0.189758	-0.248803	0.543134
C344	C	-0.301950	-0.262816	0.189876
N345	N	-0.303152	-0.247995	0.205939
H346	H	0.248818	0.629422	-0.366235
C347	C	0.243260	-0.172617	-0.189800
N348	N	0.227235	-0.187439	-0.205861
H349	H	0.218842	-0.230354	0.398864
C350	C	0.205850	0.662120	-0.393246
N351	N	0.174967	0.647300	-0.377222
H352	H	-0.268648	-0.205068	-0.113885
C353	C	0.362406	-0.547526	0.019556
N354	N	0.393288	-0.532672	0.020764
H355	H	-0.301513	-0.370626	0.184102
C356	C	0.609145	0.187176	-0.512189
N357	N	0.625105	0.201932	-0.543073
H358	H	0.116387	0.182045	-0.013770
C359	C	-0.253469	-0.111063	-0.303338
N360	N	-0.253031	-0.142075	-0.287833
H361	H	0.026522	-0.437699	0.411415
C362	C	-0.311430	-0.324615	0.303434
N363	N	-0.311863	-0.293599	0.287927
H364	H	0.306414	-0.100124	-0.308708
H365	H	0.603870	0.182306	-0.398824
C366	C	-0.295834	-0.622864	0.393357
N367	N	-0.294629	-0.637723	0.377333
H368	H	0.216507	-0.617720	0.013858
H369	H	-0.301530	-0.267939	0.365853
H370	H	0.083843	0.117187	-0.019035
H371	H	0.318967	-0.102606	-0.113909
H372	H	0.351755	0.447376	-0.184238
H373	H	0.408826	-0.335288	0.028878
H374	H	0.083590	-0.370878	0.469041
C375	C	-0.174058	-0.216131	-0.013357
N376	N	-0.190124	-0.248220	-0.012152
C377	C	0.192095	-0.053463	-0.019476
N378	N	0.208120	-0.021376	-0.020679
H379	H	0.319436	0.769951	-0.501490
H380	H	-0.263389	-0.167483	-0.184010
C381	C	0.073189	0.112060	0.189609
N382	N	0.042304	0.097298	0.205570
H383	H	-0.253654	0.002270	-0.308674
H384	H	-0.098172	-0.064542	-0.019042
H385	H	0.083591	-0.370878	0.184307
H386	H	-0.098149	-0.552608	0.468758
C387	C	0.020929	-0.111137	0.422278
N388	N	0.005424	-0.142152	0.453726
C389	C	0.414422	0.008032	-0.422214
N390	N	0.429930	0.023972	-0.453662
H391	H	-0.168289	-0.102121	-0.013781
C392	C	0.229494	-0.219279	0.108415
N393	N	0.260378	-0.187191	0.092350
H394	H	-0.098394	-0.167482	-0.019041
C395	C	0.205594	-0.216372	-0.108634
N396	N	0.174707	-0.248454	-0.092676
H397	H	0.216511	-0.332801	0.013836
C398	C	-0.092631	-0.172944	0.474587
N399	N	-0.076568	-0.187766	0.490612
H400	H	0.248785	-0.167507	-0.365770
H401	H	0.128936	0.002231	0.308770
H402	H	0.186567	-0.064589	0.365827
C403	C	-0.092893	-0.054045	0.355692
N404	N	-0.076935	-0.021959	0.324806
H405	H	0.533269	-0.267911	0.019132
H406	H	-0.263370	-0.064534	-0.184235
H407	H	-0.263381	0.116983	-0.365746
H408	H	0.219104	0.181811	0.114206
H409	H	0.116383	0.182022	0.113979
C410	C	0.021176	-0.443196	0.303407
N411	N	0.005670	-0.459138	0.287901
C412	C	0.192078	-0.262770	0.355659
N413	N	0.208192	-0.247827	0.324763
H414	H	0.248822	-0.552861	0.019121
C415	C	0.295318	0.556594	-0.303324
N416	N	0.263873	0.540657	-0.287813
C417	C	0.243267	-0.381676	0.019519
N418	N	0.227141	-0.413762	0.020720
C419	C	-0.269064	-0.216112	-0.393275
N420	N	-0.270270	-0.248201	-0.377252
C421	C	-0.269060	0.186929	-0.392500
N422	N	-0.270264	0.201684	-0.376372
C423	C	0.192092	0.111821	0.189865
N424	N	0.208118	0.096962	0.205926
C425	C	0.205852	0.377170	-0.108340
N426	N	0.174968	0.362309	-0.092274
C427	C	0.110348	-0.338445	0.108683
N428	N	0.094224	-0.353375	0.092725
H429	H	0.219105	-0.102173	0.398138
C430	C	0.110862	-0.216203	0.511724
N431	N	0.094837	-0.248299	0.542605
C432	C	0.205593	-0.216375	-0.392525
N433	N	0.174709	-0.248462	-0.376398
C434	C	0.020925	-0.111082	-0.028942
N435	N	0.005413	-0.142106	-0.029361
C436	C	-0.295837	-0.337962	0.511758
N437	N	-0.294631	-0.352782	0.542642
H438	H	0.129182	-0.335033	0.308750
H439	H	-0.311286	-0.437972	0.308779
H440	H	-0.296273	-0.230120	0.114214
C441	C	0.608892	-0.219045	0.013457
N442	N	0.624852	-0.186957	0.012253
H443	H	-0.296257	-0.332820	0.113979
H444	H	0.115908	-0.333300	0.501580
H445	H	0.026279	0.002283	-0.028803
C446	C	0.110860	-0.216130	-0.013365
N447	N	0.094835	-0.248220	-0.012157
H448	H	0.351509	-0.064801	-0.184033
C449	C	0.229761	-0.096961	-0.013390
N450	N	0.260649	-0.082031	-0.012196
H451	H	-0.168522	-0.102924	0.398892
C452	C	-0.173548	-0.622338	0.392578
N453	N	-0.189508	-0.637094	0.376451
H454	H	0.083846	-0.167550	0.468764
C455	C	0.414172	0.675463	-0.422182
N456	N	0.429679	0.706484	-0.453628
C457	C	0.414173	0.556596	-0.303333
N458	N	0.429682	0.540657	-0.287826
H459	H	0.083848	-0.167478	-0.019045
C460	C	-0.269076	0.187188	-0.511650
N461	N	-0.270283	0.202049	-0.542533
H462	H	0.319440	0.382515	-0.114118
C463	C	0.527727	0.617845	-0.355103
N464	N	0.511663	0.585746	-0.324223
C465	C	0.414423	0.008034	-0.303360
N466	N	0.429930	0.023975	-0.287854
C467	C	-0.295854	-0.219075	0.392612
N468	N	-0.294652	-0.186988	0.376486
H469	H	0.408824	-0.437951	0.028886
H470	H	0.318959	-0.102604	-0.501022
H471	H	-0.301517	-0.370654	0.468788
H472	H	-0.263393	0.117204	-0.468685
C473	C	0.362159	-0.053732	-0.474267
N474	N	0.393046	-0.021650	-0.490391
C475	C	-0.295842	-0.622619	0.512255
N476	N	-0.294638	-0.637378	0.543140
H477	H	-0.301516	-0.552881	0.366343
C478	C	-0.253476	0.007795	-0.422192
N479	N	-0.253044	0.023736	-0.453640
H480	H	0.603389	0.666503	-0.398071
C481	C	0.528241	0.112354	-0.355626
N482	N	0.512281	0.097594	-0.324740
H483	H	0.306165	-0.437946	0.028878
H484	H	-0.263379	-0.064518	-0.468977
H485	H	-0.268640	-0.102094	-0.501518
H486	H	-0.263383	-0.167466	-0.366257
H487	H	0.319444	-0.230100	0.013853
H488	H	0.603615	-0.332819	0.013867
C489	C	0.020929	0.007731	0.303425
N490	N	0.005424	0.023676	0.287917
H491	H	0.533492	-0.370626	0.019128
C492	C	0.324998	-0.622599	0.013464
N493	N	0.341124	-0.637359	0.012266
C494	C	0.609159	0.780531	-0.511650
N495	N	0.625225	0.812624	-0.542532
C496	C	0.527990	0.737027	-0.474240
N497	N	0.512031	0.751956	-0.490362
