data_functionalizedCrystal
_audit_creation_method	'MofGen! by Chris Wilmer'
_symmetry_space_group_name_H-M	'P1'
_symmetry_Int_Tables_number	1
_symmetry_cell_setting	triclinic
loop_
_symmetry_equiv_pos_as_xyz
  x,y,z
_cell_length_a	10.489741
_cell_length_b	14.519709
_cell_length_c	13.596369
_cell_angle_alpha	90.006934
_cell_angle_beta	90.002617
_cell_angle_gamma	84.109659
loop_
_atom_site_label
_atom_site_type_symbol
_atom_site_fract_x
_atom_site_fract_y
_atom_site_fract_z
O1	O	-1.692699	-0.130116	-0.081733
O2	O	-1.321376	-0.142329	-0.081748
O3	O	-1.516882	-0.002038	-0.081731
O4	O	-1.497192	-0.270407	-0.081750
O5	O	-1.516863	-0.002030	0.081851
O6	O	-1.321356	-0.142322	0.081834
O7	O	-1.692679	-0.130108	0.081850
Zn8	Zn	-1.507015	-0.136214	0.107814
Zn9	Zn	-1.507040	-0.136224	-0.107713
O10	O	-1.497173	-0.270400	0.081833
C11	C	-1.273844	-0.141403	0.000041
C12	C	-1.132243	-0.138643	0.000035
C13	C	-1.740211	-0.131035	0.000058
C14	C	-1.881812	-0.133794	0.000057
C15	C	-1.515955	0.032331	0.000060
C16	C	-1.513205	0.134727	0.000061
C17	C	-1.065034	-0.049380	0.000051
C18	C	-0.972477	-0.091551	-0.080605
C19	C	-0.972491	-0.091565	0.080675
C20	C	-1.041551	-0.180851	-0.080687
C21	C	-1.041576	-0.180852	0.080665
C22	C	-0.949046	-0.223088	-0.000010
C23	C	-1.498100	-0.304768	0.000039
C24	C	-1.500850	-0.407165	0.000032
N25	N	-1.507006	-0.136206	0.254906
C26	C	-1.503082	0.509678	0.000035
C27	C	-1.505893	0.405355	0.000042
C28	C	-1.508143	0.322206	0.000048
C29	C	-1.510955	0.217876	0.000054
N30	N	-1.507059	-0.136224	-0.254805
C31	C	-1.507039	-0.136225	0.656197
C32	C	-1.507026	-0.136223	0.544546
C33	C	-1.507023	-0.136216	0.455555
C34	C	-1.507009	-0.136213	0.343897
H35	H	-1.115488	0.024000	-0.000045
C36	C	-0.748356	-0.318863	0.000738
C37	C	-0.881276	-0.322248	-0.000071
H38	H	-0.706518	-0.380080	0.000703
H39	H	-0.723661	-0.286927	-0.056008
H40	H	-0.724743	-0.287299	0.058078
H41	H	-0.904890	-0.353806	-0.057415
H42	H	-0.905980	-0.354198	0.056681
C43	C	-0.990257	0.050385	-0.172499
C44	C	-0.931135	-0.040571	-0.172648
H45	H	-0.964730	0.081861	-0.229317
H46	H	-1.080667	0.049486	-0.172867
H47	H	-0.965451	0.081498	-0.115216
H48	H	-0.955949	-0.071686	-0.229928
H49	H	-0.840705	-0.039676	-0.172290
C50	C	-1.215792	-0.233883	-0.172048
C51	C	-1.082637	-0.231795	-0.172850
H52	H	-1.241156	-0.265326	-0.228949
H53	H	-1.239985	-0.265378	-0.114854
H54	H	-1.256538	-0.172356	-0.171812
H55	H	-1.041891	-0.293322	-0.173078
H56	H	-1.058432	-0.200301	-0.230059
H57	H	-0.941899	-0.053776	0.148864
C58	C	-1.048508	-0.184912	0.257101
C59	C	-1.082968	-0.231790	0.172714
H60	H	-1.074074	-0.216352	0.313932
H61	H	-0.958272	-0.183042	0.258095
H62	H	-1.089828	-0.123554	0.256513
H63	H	-1.041640	-0.293147	0.173298
H64	H	-1.173221	-0.233670	0.171720
