data_functionalizedCrystal
_audit_creation_method	'MofGen! by Chris Wilmer'
_symmetry_space_group_name_H-M	'P1'
_symmetry_Int_Tables_number	1
_symmetry_cell_setting	triclinic
loop_
_symmetry_equiv_pos_as_xyz
  x,y,z
_cell_length_a	17.038272
_cell_length_b	17.038272
_cell_length_c	15.500227
_cell_angle_alpha	86.966746
_cell_angle_beta	86.952609
_cell_angle_gamma	88.888444
loop_
_atom_site_label
_atom_site_type_symbol
_atom_site_fract_x
_atom_site_fract_y
_atom_site_fract_z
O1	O	1.052164	-0.167136	-0.071911
O2	O	1.552164	0.332864	0.428089
O3	O	0.824352	-0.164427	-0.071920
O4	O	1.324352	0.335573	0.428080
O5	O	0.936904	-0.051876	-0.071909
O6	O	1.436904	0.448124	0.428091
O7	O	0.939612	-0.279687	-0.071922
O8	O	1.439612	0.220313	0.428078
O9	O	0.930072	-0.058677	0.071979
O10	O	1.430072	0.441323	0.571979
O11	O	0.817521	-0.171228	0.071968
O12	O	1.317521	0.328772	0.571968
O13	O	1.045332	-0.173937	0.071977
O14	O	1.545332	0.326063	0.571977
Cu15	Cu	0.930802	-0.173204	0.085111
Cu16	Cu	1.430802	0.326796	0.585111
Cu17	Cu	0.938882	-0.165160	-0.085054
Cu18	Cu	1.438882	0.334840	0.414946
O19	O	0.932780	-0.286488	0.071966
O20	O	1.432780	0.213512	0.571966
C21	C	0.791644	-0.165365	0.000023
C22	C	1.291644	0.334635	0.500023
C23	C	0.704360	-0.158017	0.000019
C24	C	1.204360	0.341983	0.500019
C25	C	0.931025	-0.025984	0.000035
C26	C	1.431025	0.474016	0.500035
C27	C	0.923677	0.061300	0.000034
C28	C	1.423677	0.561300	0.500034
C29	C	1.078040	-0.172999	0.000032
C30	C	1.578040	0.327001	0.500032
C31	C	1.165324	-0.180347	0.000030
C32	C	1.665324	0.319653	0.500030
C33	C	1.210933	-0.112883	0.000031
C34	C	1.710933	0.387117	0.500031
C35	C	1.292945	-0.119792	0.000034
C36	C	1.792945	0.380208	0.500034
C37	C	1.329346	-0.194165	0.000029
C38	C	1.829346	0.305835	0.500029
C39	C	1.283731	-0.261634	0.000031
C40	C	1.783731	0.238366	0.500031
C41	C	1.201720	-0.254725	0.000034
C42	C	1.701720	0.245275	0.500034
C43	C	1.576735	-0.218576	0.000024
C44	C	2.076735	0.281424	0.500024
C45	C	1.658751	-0.225480	0.000018
C46	C	2.158751	0.274520	0.500018
C47	C	1.667960	-0.083638	0.000023
C48	C	2.167960	0.416362	0.500023
C49	C	1.585947	-0.076734	0.000021
C50	C	2.085947	0.423266	0.500021
C51	C	1.540339	-0.144203	0.000027
C52	C	2.040339	0.355797	0.500027
C53	C	1.413176	-0.201229	0.000029
C54	C	1.913176	0.298771	0.500029
C55	C	1.456511	-0.137139	0.000033
C56	C	1.956511	0.362861	0.500033
C57	C	0.938659	-0.312380	0.000020
C58	C	1.438659	0.187620	0.500020
C59	C	0.946008	-0.399663	0.000015
C60	C	1.446008	0.100337	0.500015
N61	N	0.925125	-0.178861	0.204795
N62	N	1.425125	0.321139	0.704795
C63	C	0.991140	0.106909	0.000038
C64	C	1.491140	0.606909	0.500038
C65	C	0.984232	0.188921	0.000030
C66	C	1.484232	0.688921	0.500030
C67	C	0.909859	0.225323	0.000024
C68	C	1.409859	0.725323	0.500024
C69	C	0.842390	0.179708	0.000017
C70	C	1.342390	0.679708	0.500017
C71	C	0.849300	0.097697	0.000020
C72	C	1.349300	0.597697	0.500020
C73	C	0.885449	0.472711	0.000011
C74	C	1.385449	0.972711	0.500011
C75	C	0.878544	0.554728	0.000011
C76	C	1.378544	1.054728	0.500011
C77	C	1.020386	0.563936	0.000022
C78	C	1.520386	1.063936	0.500022
C79	C	1.027289	0.481923	0.000029
C80	C	1.527289	0.981923	0.500029
C81	C	0.959821	0.436315	0.000018
C82	C	1.459821	0.936315	0.500018
C83	C	0.902795	0.309152	0.000018
C84	C	1.402795	0.809152	0.500018
C85	C	0.966886	0.352488	0.000018
C86	C	1.466886	0.852488	0.500018
N87	N	0.944565	-0.159498	-0.204738
N88	N	1.444565	0.340502	0.295262
C89	C	0.972836	-0.131189	0.250076
C90	C	1.472836	0.368811	0.750076
C91	C	0.968551	-0.135475	0.340649
C92	C	1.468551	0.364525	0.840649
C93	C	0.916558	-0.187437	0.385938
C94	C	1.416558	0.312563	0.885938
C95	C	0.868842	-0.235111	0.340650
C96	C	1.368842	0.264889	0.840650
C97	C	0.873124	-0.230820	0.250080
C98	C	1.373124	0.269180	0.750080
C99	C	0.901131	-0.202881	0.659403
C100	C	1.401131	0.297119	1.159403
C101	C	0.896854	-0.207169	0.749980
C102	C	1.396854	0.292831	1.249980
C103	C	0.996562	-0.107532	0.749973
C104	C	1.496562	0.392468	1.249973
C105	C	1.000843	-0.103249	0.659400
C106	C	1.500843	0.396751	1.159400
C107	C	0.953124	-0.150920	0.614120
C108	C	1.453124	0.349080	1.114120
C109	C	0.912178	-0.191821	0.478518
C110	C	1.412178	0.308179	0.978518
C111	C	0.957501	-0.146531	0.521542
C112	C	1.457501	0.353469	1.021542
H113	H	1.181302	-0.052321	0.000029
H114	H	1.681302	0.447679	0.500029
H115	H	1.556315	-0.016172	0.000025
H116	H	2.056315	0.483828	0.500025
H117	H	0.826503	-0.277417	0.377530
H118	H	1.326503	0.222583	0.877530
H119	H	0.999831	-0.104220	0.484665
H120	H	1.499831	0.395780	0.984665
Br121	Br	1.708153	-0.326422	0.000010
Br122	Br	2.208153	0.173578	0.500010
H123	H	1.007400	-0.096656	0.377517
H124	H	1.507400	0.403344	0.877517
H125	H	1.164586	-0.309661	0.000036
H126	H	1.664586	0.190339	0.500036
Br127	Br	1.071409	-0.032731	0.597935
Br128	Br	1.571409	0.467269	1.097935
H129	H	1.539610	-0.273514	0.000025
H130	H	2.039610	0.226486	0.500025
H131	H	1.035412	-0.068719	0.786848
H132	H	1.535412	0.431281	1.286848
H133	H	1.027441	0.322847	0.000004
H134	H	1.527441	0.822847	0.500004
Br135	Br	0.793884	0.410826	-0.000009
Br136	Br	1.293884	0.910826	0.499991
H137	H	1.313375	-0.322191	0.000032
H138	H	1.813375	0.177809	0.500032
H139	H	0.842240	0.338799	0.000015
H140	H	1.342240	0.838799	0.500015
Br141	Br	0.836373	-0.267576	0.597957
Br142	Br	1.336373	0.232424	1.097957
Br143	Br	1.407108	-0.036208	0.000047
Br144	Br	1.907108	0.463792	0.500047
H145	H	1.330077	-0.064856	0.000038
H146	H	1.830077	0.435144	0.500038
H147	H	0.781834	0.209352	0.000007
H148	H	1.281834	0.709352	0.500007
Br149	Br	1.462585	-0.302162	0.000015
Br150	Br	1.962585	0.197838	0.500015
H151	H	0.854513	-0.249487	0.786851
H152	H	1.354513	0.250513	1.286851
H153	H	0.834271	-0.269639	0.213212
H154	H	1.334271	0.230361	0.713212
H155	H	1.015178	-0.088879	0.213208
H156	H	1.515178	0.411121	0.713208
Br157	Br	1.729860	0.007922	0.000020
Br158	Br	2.229860	0.507922	0.500020
Br159	Br	1.092080	0.057515	0.000059
Br160	Br	1.592080	0.557515	0.500059
Br161	Br	0.777602	0.604129	0.000012
Br162	Br	1.277602	1.104129	0.500012
H163	H	1.039168	0.226053	0.000034
H164	H	1.539168	0.726053	0.500034
Br165	Br	1.128229	0.432528	0.000009
Br166	Br	1.628229	0.932528	0.500009
H167	H	0.869845	-0.234132	0.515400
H168	H	1.369845	0.265868	1.015400
H169	H	1.075315	0.601078	0.000029
H170	H	1.575315	1.101078	0.500029
H171	H	0.794364	0.060563	0.000017
H172	H	1.294364	0.560563	0.500017
