data_functionalizedCrystal
_audit_creation_method	'MofGen! by Chris Wilmer'
_symmetry_space_group_name_H-M	'P1'
_symmetry_Int_Tables_number	1
_symmetry_cell_setting	triclinic
loop_
_symmetry_equiv_pos_as_xyz
  x,y,z
_cell_length_a	11.792254
_cell_length_b	12.503572
_cell_length_c	14.044220
_cell_angle_alpha	86.156832
_cell_angle_beta	91.306263
_cell_angle_gamma	86.456155
loop_
_atom_site_label
_atom_site_type_symbol
_atom_site_fract_x
_atom_site_fract_y
_atom_site_fract_z
O1	O	-1.525103	0.089354	0.124589
O2	O	-1.275103	0.339354	0.374589
O3	O	-1.025103	0.589354	0.624589
O4	O	-0.775103	0.839354	0.874589
O5	O	-1.196020	0.089350	0.137974
O6	O	-0.946020	0.339350	0.387974
O7	O	-0.696020	0.589350	0.637974
O8	O	-0.446020	0.839350	0.887974
O9	O	-1.355622	0.089342	-0.006728
O10	O	-1.105622	0.339342	0.243272
O11	O	-0.855622	0.589342	0.493272
O12	O	-0.605622	0.839342	0.743272
O13	O	-1.365502	0.089363	0.269291
O14	O	-1.115502	0.339363	0.519291
O15	O	-0.865502	0.589363	0.769291
O16	O	-0.615502	0.839363	1.019291
O17	O	-1.343620	-0.089300	0.004173
O18	O	-1.093620	0.160700	0.254173
O19	O	-0.843620	0.410700	0.504173
O20	O	-0.593620	0.660700	0.754173
O21	O	-1.184019	-0.089291	0.148874
O22	O	-0.934019	0.160709	0.398874
O23	O	-0.684019	0.410709	0.648874
O24	O	-0.434019	0.660709	0.898874
O25	O	-1.513102	-0.089287	0.135490
O26	O	-1.263102	0.160713	0.385490
O27	O	-1.013102	0.410713	0.635490
O28	O	-0.763102	0.660713	0.885490
Cu29	Cu	-1.347465	-0.105600	0.143177
Cu30	Cu	-1.097465	0.144400	0.393177
Cu31	Cu	-0.847465	0.394400	0.643177
Cu32	Cu	-0.597465	0.644400	0.893177
Cu33	Cu	-1.361658	0.105664	0.130286
Cu34	Cu	-1.111658	0.355664	0.380286
Cu35	Cu	-0.861658	0.605664	0.630286
Cu36	Cu	-0.611658	0.855664	0.880286
O37	O	-1.353501	-0.089278	0.280192
O38	O	-1.103501	0.160722	0.530192
O39	O	-0.853501	0.410722	0.780192
O40	O	-0.603501	0.660722	1.030192
C41	C	-1.147650	0.000029	0.142581
C42	C	-0.897650	0.250029	0.392581
C43	C	-0.647650	0.500029	0.642581
C44	C	-0.397650	0.750029	0.892581
C45	C	-1.021400	0.000027	0.140057
C46	C	-0.771400	0.250027	0.390057
C47	C	-0.521400	0.500027	0.640057
C48	C	-0.271400	0.750027	0.890057
C49	C	-0.918871	0.000029	0.138007
C50	C	-0.668871	0.250029	0.388007
C51	C	-0.418871	0.500029	0.638007
C52	C	-0.168871	0.750029	0.888007
C53	C	-0.790244	0.000027	0.135443
C54	C	-0.540244	0.250027	0.385443
C55	C	-0.290244	0.500027	0.635443
C56	C	-0.040244	0.750027	0.885443
N57	N	-1.337491	-0.254192	0.152244
N58	N	-1.087491	-0.004192	0.402244
N59	N	-0.837491	0.245808	0.652244
N60	N	-0.587491	0.495808	0.902244
C61	C	-1.322819	-0.473306	0.165589
C62	C	-1.072819	-0.223306	0.415589
C63	C	-0.822819	0.026694	0.665589
C64	C	-0.572819	0.276694	0.915589
C65	C	-1.386308	-0.526637	0.107870
C66	C	-1.136308	-0.276637	0.357870
C67	C	-0.886308	-0.026637	0.607870
C68	C	-0.636308	0.223363	0.857870
C69	C	-1.378145	-0.648560	0.115296
C70	C	-1.128145	-0.398560	0.365296
C71	C	-0.878145	-0.148560	0.615296
C72	C	-0.628145	0.101440	0.865296
C73	C	-1.330981	-0.351373	0.158165
C74	C	-1.080981	-0.101373	0.408165
C75	C	-0.830981	0.148627	0.658165
C76	C	-0.580981	0.398627	0.908165
C77	C	-0.561473	0.000032	0.130883
C78	C	-0.311473	0.250032	0.380883
C79	C	-0.061473	0.500032	0.630883
C80	C	0.188527	0.750032	0.880883
C81	C	-0.687722	0.000025	0.133407
C82	C	-0.437722	0.250025	0.383407
C83	C	-0.187722	0.500025	0.633407
C84	C	0.062278	0.750025	0.883407
C85	C	-1.345297	0.000021	-0.036615
C86	C	-1.095297	0.250021	0.213385
C87	C	-0.845297	0.500021	0.463385
C88	C	-0.595297	0.750021	0.713385
C89	C	-1.332398	0.000019	-0.141907
C90	C	-1.082398	0.250019	0.108093
C91	C	-0.832398	0.500019	0.358093
C92	C	-0.582398	0.750019	0.608093
N93	N	-1.371640	0.254255	0.121212
N94	N	-1.121640	0.504255	0.371212
N95	N	-0.871640	0.754255	0.621212
N96	N	-0.621640	1.004255	0.871212
C97	C	-1.308817	0.000034	-0.334691
C98	C	-1.058817	0.250034	-0.084691
C99	C	-0.808817	0.500034	0.165309
C100	C	-0.558817	0.750034	0.415309
C101	C	-1.400302	0.000039	-0.391851
C102	C	-1.150302	0.250039	-0.141851
C103	C	-0.900302	0.500039	0.108149
C104	C	-0.650302	0.750039	0.358149
C105	C	-1.387181	0.000047	-0.499123
C106	C	-1.137181	0.250047	-0.249123
C107	C	-0.887181	0.500047	0.000877
C108	C	-0.637181	0.750047	0.250877
C109	C	-1.321936	0.000026	-0.227409
C110	C	-1.071936	0.250026	0.022591
C111	C	-0.821936	0.500026	0.272591
C112	C	-0.571936	0.750026	0.522591
C113	C	-1.363826	0.000045	0.310078
C114	C	-1.113826	0.250045	0.560078
C115	C	-0.863826	0.500045	0.810078
C116	C	-0.613826	0.750045	1.060078
C117	C	-1.376726	0.000054	0.415370
C118	C	-1.126726	0.250054	0.665370
C119	C	-0.876726	0.500054	0.915370
C120	C	-0.626726	0.750054	1.165370
H121	H	-1.446795	-0.480727	0.052880
H122	H	-1.196795	-0.230727	0.302880
H123	H	-0.946795	0.019273	0.552880
H124	H	-0.696795	0.269273	0.802880
H125	H	-1.488483	0.000112	-0.360228
H126	H	-1.238483	0.250112	-0.110228
H127	H	-0.988483	0.500112	0.139772
H128	H	-0.738483	0.750112	0.389772
H129	H	-1.220647	0.000036	-0.366317
H130	H	-0.970647	0.250036	-0.116317
H131	H	-0.720647	0.500036	0.133683
H132	H	-0.470647	0.750036	0.383683
H133	H	-1.262338	-0.519211	0.220577
H134	H	-1.012338	-0.269211	0.470577
H135	H	-0.762338	-0.019211	0.720577
H136	H	-0.512338	0.230789	0.970577
