data_functionalizedCrystal
_audit_creation_method	'MofGen! by Chris Wilmer'
_symmetry_space_group_name_H-M	'P1'
_symmetry_Int_Tables_number	1
_symmetry_cell_setting	triclinic
loop_
_symmetry_equiv_pos_as_xyz
  x,y,z
_cell_length_a	18.101398
_cell_length_b	29.839131
_cell_length_c	18.101389
_cell_angle_alpha	90.028941
_cell_angle_beta	90.009745
_cell_angle_gamma	90.030787
loop_
_atom_site_label
_atom_site_type_symbol
_atom_site_fract_x
_atom_site_fract_y
_atom_site_fract_z
Zn1	Zn	1.132100	-0.178954	0.418496
Zn2	Zn	1.465433	0.154380	0.751830
Zn3	Zn	1.798766	0.487713	1.085163
Zn4	Zn	1.131987	-0.254070	0.294632
Zn5	Zn	1.465320	0.079263	0.627965
Zn6	Zn	1.798653	0.412596	0.961299
Zn7	Zn	1.008259	-0.178949	0.294689
Zn8	Zn	1.341592	0.154384	0.628022
Zn9	Zn	1.674925	0.487717	0.961356
Zn10	Zn	1.008200	-0.254052	0.418452
Zn11	Zn	1.341534	0.079282	0.751786
Zn12	Zn	1.674867	0.412615	1.085119
O13	O	1.070136	-0.216506	0.356567
O14	O	1.403470	0.116827	0.689901
O15	O	1.736803	0.450160	1.023234
O16	O	1.235718	-0.188928	0.402060
O17	O	1.569051	0.144406	0.735394
O18	O	1.902384	0.477739	1.068727
O19	O	1.115551	-0.244112	0.191007
O20	O	1.448884	0.089222	0.524340
O21	O	1.782218	0.422555	0.857673
O22	O	1.024758	-0.116083	0.311155
O23	O	1.358091	0.217250	0.644488
O24	O	1.691425	0.550584	0.977821
O25	O	1.235634	-0.244116	0.311058
O26	O	1.568968	0.089218	0.644391
O27	O	1.902301	0.422551	0.977724
O28	O	1.115744	-0.116086	0.402115
O29	O	1.449077	0.217247	0.735449
O30	O	1.782410	0.550581	1.068782
O31	O	1.024648	-0.188921	0.191049
O32	O	1.357982	0.144413	0.524382
O33	O	1.691315	0.477746	0.857715
O34	O	0.904618	-0.188902	0.311112
O35	O	1.237951	0.144431	0.644445
O36	O	1.571285	0.477764	0.977779
O37	O	1.024659	-0.244084	0.522091
O38	O	1.357992	0.089250	0.855424
O39	O	1.691326	0.422583	1.188758
O40	O	0.904575	-0.244079	0.402040
O41	O	1.237909	0.089254	0.735373
O42	O	1.571242	0.422587	1.068707
O43	O	1.115687	-0.188910	0.522123
O44	O	1.449020	0.144424	0.855457
O45	O	1.782354	0.477757	1.188790
O46	O	1.115494	-0.316935	0.311015
O47	O	1.448828	0.016398	0.644348
O48	O	1.782161	0.349732	0.977682
O49	O	1.024549	-0.316921	0.401985
O50	O	1.357883	0.016412	0.735318
O51	O	1.691216	0.349745	1.068652
C52	C	0.877726	-0.216489	0.356578
C53	C	1.211059	0.116845	0.689911
C54	C	1.544392	0.450178	1.023244
C55	C	0.795412	-0.216492	0.356600
C56	C	1.128745	0.116841	0.689933
C57	C	1.462078	0.450175	1.023266
C58	C	0.496321	-0.216518	0.356569
C59	C	0.829654	0.116815	0.689902
C60	C	1.162987	0.450148	1.023236
C61	C	0.527644	-0.251402	0.413496
C62	C	0.860977	0.081931	0.746829
C63	C	1.194310	0.415265	1.080163
C64	C	0.613262	-0.251293	0.413730
C65	C	0.946595	0.082040	0.747063
C66	C	1.279929	0.415374	1.080397
C67	C	0.644703	-0.216506	0.356584
C68	C	0.978037	0.116828	0.689918
C69	C	1.311370	0.450161	1.023251
C70	C	0.613654	-0.169189	0.377926
C71	C	0.946988	0.164144	0.711260
C72	C	1.280321	0.497478	1.044593
C73	C	0.528009	-0.169399	0.378331
C74	C	0.861343	0.163935	0.711664
C75	C	1.194676	0.497268	1.044998
C76	C	0.527867	-0.228534	0.278162
C77	C	0.861200	0.104799	0.611496
C78	C	1.194533	0.438133	0.944829
C79	C	0.613517	-0.229572	0.278581
C80	C	0.946850	0.103761	0.611914
C81	C	1.280183	0.437094	0.945248
C82	C	0.728563	-0.216496	0.356592
C83	C	1.061896	0.116838	0.689925
C84	C	1.395229	0.450171	1.023258
C85	C	0.412461	-0.216525	0.356563
C86	C	0.745795	0.116808	0.689897
C87	C	1.079128	0.450141	1.023230
C88	C	1.070023	-0.333229	0.356505
C89	C	1.403357	0.000104	0.689838
C90	C	1.736690	0.333438	1.023172
C91	C	1.070043	-0.383163	0.356503
C92	C	1.403376	-0.049830	0.689836
C93	C	1.736709	0.283503	1.023170
C94	C	1.117502	-0.692773	0.403998
C95	C	1.450835	-0.359440	0.737332
C96	C	1.784169	-0.026107	1.070665
C97	C	1.117582	-0.880446	0.404043
C98	C	1.450916	-0.547113	0.737376
C99	C	1.784249	-0.213780	1.070709
O100	O	1.157823	-0.904683	0.444378
O101	O	1.491157	-0.571350	0.777712
O102	O	1.824490	-0.238016	1.111045
N103	N	1.070262	-0.903948	0.356650
N104	N	1.403595	-0.570615	0.689983
N105	N	1.736929	-0.237282	1.023316
C106	C	1.022915	-0.880529	0.309245
C107	C	1.356248	-0.547196	0.642579
C108	C	1.689581	-0.213862	0.975912
O109	O	0.982662	-0.904825	0.268941
O110	O	1.315996	-0.571492	0.602275
O111	O	1.649329	-0.238158	0.935608
C112	C	1.022831	-0.692857	0.309205
C113	C	1.356165	-0.359524	0.642539
C114	C	1.689498	-0.026190	0.975872
C115	C	1.070160	-0.669357	0.356596
C116	C	1.403493	-0.336024	0.689930
C117	C	1.736827	-0.002691	1.023263
C118	C	1.164827	-0.669274	0.451386
C119	C	1.498160	-0.335941	0.784719
C120	C	1.831493	-0.002607	1.118052
C121	C	1.164809	-0.622358	0.451371
C122	C	1.498142	-0.289025	0.784705
C123	C	1.831475	0.044308	1.118038
C124	C	1.117467	-0.598943	0.403969
C125	C	1.450800	-0.265609	0.737303
C126	C	1.784133	0.067724	1.070636
C127	C	1.070142	-0.622442	0.356582
C128	C	1.403476	-0.289109	0.689915
C129	C	1.736809	0.044225	1.023248
C130	C	0.975481	-0.669439	0.261805
C131	C	1.308814	-0.336105	0.595139
C132	C	1.642147	-0.002772	0.928472
C133	C	0.975463	-0.622518	0.261801
C134	C	1.308796	-0.289184	0.595134
C135	C	1.642129	0.044149	0.928468
C136	C	1.022791	-0.599018	0.309192
C137	C	1.356125	-0.265685	0.642525
C138	C	1.689458	0.067649	0.975858
C139	C	1.022782	-0.552111	0.309165
C140	C	1.356116	-0.218777	0.642499
C141	C	1.689449	0.114556	0.975832
N142	N	1.070103	-0.528609	0.356558
N143	N	1.403436	-0.195275	0.689892
N144	N	1.736770	0.138058	1.023225
C145	C	1.117445	-0.552025	0.403960
C146	C	1.450778	-0.218691	0.737294
C147	C	1.784112	0.114642	1.070627
C148	C	1.022963	-0.979060	0.309269
C149	C	1.356296	-0.645726	0.642602
C150	C	1.689630	-0.312393	0.975936
C151	C	1.022985	-1.025978	0.309278
C152	C	1.356318	-0.692644	0.642611
C153	C	1.689651	-0.359311	0.975945
C154	C	1.117652	-1.025892	0.404076
C155	C	1.450985	-0.692558	0.737410
C156	C	1.784318	-0.359225	1.070743
C157	C	1.117633	-0.978973	0.404063
C158	C	1.450966	-0.645640	0.737396
C159	C	1.784300	-0.312306	1.070730
C160	C	1.070283	-0.955558	0.356662
C161	C	1.403617	-0.622224	0.689995
C162	C	1.736950	-0.288891	1.023329
C163	C	1.117405	-0.453499	0.403926
C164	C	1.450738	-0.120166	0.737259
C165	C	1.784071	0.213168	1.070593
C166	C	1.117385	-0.406579	0.403905
C167	C	1.450718	-0.073246	0.737238
C168	C	1.784052	0.260087	1.070572
C169	C	1.022716	-0.406669	0.309110
C170	C	1.356049	-0.073336	0.642443
C171	C	1.689382	0.259997	0.975777
C172	C	1.022738	-0.453585	0.309128
C173	C	1.356071	-0.120251	0.642461
C174	C	1.689404	0.213082	0.975794
C175	C	1.070085	-0.476998	0.356542
C176	C	1.403418	-0.143665	0.689875
C177	C	1.736751	0.189668	1.023208
O178	O	0.982557	-0.527845	0.268857
O179	O	1.315890	-0.194512	0.602190
O180	O	1.649223	0.138822	0.935523
O181	O	1.157680	-0.527721	0.444270
O182	O	1.491013	-0.194387	0.777604
O183	O	1.824347	0.138946	1.110937
C184	C	1.117520	-0.739689	0.404013
C185	C	1.450853	-0.406356	0.737346
C186	C	1.784187	-0.073022	1.070679
C187	C	1.070195	-0.763188	0.356625
C188	C	1.403529	-0.429855	0.689958
C189	C	1.736862	-0.096522	1.023292
C190	C	1.022853	-0.739772	0.309223
C191	C	1.356187	-0.406439	0.642556
C192	C	1.689520	-0.073106	0.975890
C193	C	1.070217	-0.810106	0.356634
C194	C	1.403550	-0.476773	0.689967
C195	C	1.736884	-0.143440	1.023301
C196	C	1.117559	-0.833522	0.404036
C197	C	1.450893	-0.500189	0.737369
C198	C	1.784226	-0.166856	1.070703
C199	C	1.164880	-0.810020	0.451429
C200	C	1.498213	-0.476687	0.784762
C201	C	1.831546	-0.143354	1.118096
C202	C	1.164862	-0.763105	0.451415
C203	C	1.498195	-0.429772	0.784748
C204	C	1.831529	-0.096438	1.118081
C205	C	0.975533	-0.763274	0.261830
C206	C	1.308866	-0.429941	0.595163
C207	C	1.642200	-0.096608	0.928497
C208	C	0.975555	-0.810190	0.261848
C209	C	1.308888	-0.476856	0.595181
C210	C	1.642222	-0.143523	0.928514
C211	C	1.022897	-0.833606	0.309250
C212	C	1.356231	-0.500272	0.642583
C213	C	1.689564	-0.166939	0.975916
C214	C	1.263298	-0.216524	0.356558
C215	C	1.596631	0.116809	0.689891
C216	C	1.929965	0.450142	1.023224
C217	C	1.345612	-0.216532	0.356553
C218	C	1.678946	0.116801	0.689887
C219	C	2.012279	0.450135	1.023220
C220	C	1.070179	-0.216495	0.549729
C221	C	1.403512	0.116838	0.883063
C222	C	1.736846	0.450172	1.216396
C223	C	1.070197	-0.216490	0.632044
C224	C	1.403531	0.116843	0.965377
C225	C	1.736864	0.450177	1.298710
C226	C	1.070270	-0.099328	0.356646
C227	C	1.403603	0.234005	0.689980
C228	C	1.736937	0.567339	1.023313
C229	C	1.070327	-0.049393	0.356680
C230	C	1.403660	0.283940	0.690013
C231	C	1.736993	0.617273	1.023347
C232	C	1.070136	-0.216485	0.164157
C233	C	1.403470	0.116848	0.497490
C234	C	1.736803	0.450181	0.830824
C235	C	1.070262	-0.216364	0.081843
C236	C	1.403595	0.116970	0.415177
C237	C	1.736928	0.450303	0.748510
C238	C	1.070241	-0.216406	0.931135
C239	C	1.403574	0.116927	1.264468
C240	C	1.736907	0.450261	1.597801
C241	C	1.012771	-0.251010	0.899789
C242	C	1.346104	0.082324	1.233123
C243	C	1.679438	0.415657	1.566456
C244	C	1.012926	-0.251170	0.814171
C245	C	1.346259	0.082163	1.147504
C246	C	1.679593	0.415497	1.480837
C247	C	1.070218	-0.216448	0.782752
C248	C	1.403552	0.116886	1.116085
C249	C	1.736885	0.450219	1.449419
C250	C	1.148242	-0.229302	0.813834
C251	C	1.481576	0.104031	1.147167
C252	C	1.814909	0.437364	1.480501
C253	C	1.147922	-0.229529	0.899479
C254	C	1.481255	0.103804	1.232812
C255	C	1.814589	0.437137	1.566146
C256	C	1.050365	-0.168871	0.899578
C257	C	1.383698	0.164463	1.232912
C258	C	1.717031	0.497796	1.566245
C259	C	1.048629	-0.169145	0.813928
C260	C	1.381962	0.164188	1.147261
C261	C	1.715295	0.497521	1.480594
C262	C	1.070211	-0.216471	0.698893
C263	C	1.403544	0.116863	1.032226
C264	C	1.736877	0.450196	1.365559
C265	C	1.070253	-0.216384	1.014994
C266	C	1.403587	0.116949	1.348328
C267	C	1.736920	0.450282	1.681661
H268	H	0.634919	-0.206009	0.233887
H269	H	0.968253	0.127325	0.567220
H270	H	1.301586	0.460658	0.900554
H271	H	0.507024	-0.286605	0.400268
H272	H	0.840358	0.046729	0.733601
H273	H	1.173691	0.380062	1.066934
H274	H	0.936980	-0.744213	0.223230
H275	H	1.270314	-0.410879	0.556564
H276	H	1.603647	-0.077546	0.889897
H277	H	0.506134	-0.243554	0.471254
H278	H	0.839468	0.089779	0.804587
H279	H	1.172801	0.423113	1.137920
H280	H	0.507291	-0.142477	0.338770
H281	H	0.840624	0.190857	0.672103
H282	H	1.173957	0.524190	1.005437
H283	H	1.087433	-0.141995	0.792542
H284	H	1.420766	0.191339	1.125875
H285	H	1.754100	0.524672	1.459209
H286	H	0.507611	-0.203125	0.235746
H287	H	0.840945	0.130209	0.569080
H288	H	1.174278	0.463542	0.902413
Br289	Br	1.221531	-0.188615	0.779922
Br290	Br	1.554864	0.144718	1.113256
Br291	Br	1.888198	0.478051	1.446589
H292	H	0.991210	-0.159451	0.793614
H293	H	1.324543	0.173882	1.126947
H294	H	1.657877	0.507215	1.460280
H295	H	0.936902	-0.603455	0.223202
H296	H	1.270236	-0.270122	0.556535
H297	H	1.603569	0.063212	0.889869
Br298	Br	0.916040	-0.237737	0.934119
Br299	Br	1.249374	0.095596	1.267452
Br300	Br	1.582707	0.428929	1.600785
Br301	Br	0.957183	-0.149352	0.935583
Br302	Br	1.290517	0.183982	1.268916
Br303	Br	1.623850	0.517315	1.602250
H304	H	1.026048	-0.286405	0.793674
H305	H	1.359381	0.046929	1.127008
H306	H	1.692714	0.380262	1.460341
Br307	Br	0.958763	-1.057864	0.244947
Br308	Br	1.292096	-0.724531	0.578280
Br309	Br	1.625429	-0.391197	0.911613
H310	H	1.025762	-0.286029	0.921301
H311	H	1.359095	0.047304	1.254634
H312	H	1.692429	0.380638	1.587967
Br313	Br	1.229098	-0.731220	0.515734
Br314	Br	1.562431	-0.397887	0.849068
Br315	Br	1.895764	-0.064553	1.182401
H316	H	0.984205	-0.472719	0.270532
H317	H	1.317538	-0.139386	0.603866
H318	H	1.650871	0.193948	0.937199
Br319	Br	0.494737	-0.152412	0.473866
Br320	Br	0.828070	0.180922	0.807199
Br321	Br	1.161404	0.514255	1.140533
H322	H	1.203346	-0.603228	0.489963
H323	H	1.536679	-0.269895	0.823296
H324	H	1.870012	0.063439	1.156630
Br325	Br	0.647443	-0.238044	0.510557
Br326	Br	0.980776	0.095289	0.843891
Br327	Br	1.314109	0.428623	1.177224
Br328	Br	1.120131	-0.125900	0.933365
Br329	Br	1.453465	0.207434	1.266698
Br330	Br	1.786798	0.540767	1.600031
Br331	Br	1.181624	-0.374690	0.468223
Br332	Br	1.514957	-0.041357	0.801556
Br333	Br	1.848291	0.291977	1.134890
Br334	Br	0.916493	-0.237759	0.779139
Br335	Br	1.249827	0.095575	1.112473
Br336	Br	1.583160	0.428908	1.445806
H337	H	1.155954	-0.472557	0.442540
H338	H	1.489287	-0.139223	0.775873
H339	H	1.822621	0.194110	1.109207
Br340	Br	0.647601	-0.124692	0.310980
Br341	Br	0.980934	0.208641	0.644313
Br342	Br	1.314267	0.541974	0.977647
H343	H	0.635120	-0.158813	0.434622
H344	H	0.968454	0.174521	0.767956
H345	H	1.301787	0.507854	1.101289
H346	H	0.984172	-0.387597	0.270513
H347	H	1.317506	-0.054263	0.603847
H348	H	1.650839	0.279070	0.937180
Br349	Br	1.176007	-0.287446	0.932766
Br350	Br	1.509340	0.045887	1.266099
Br351	Br	1.842673	0.379221	1.599432
Br352	Br	1.181867	-0.947086	0.468381
Br353	Br	1.515201	-0.613752	0.801714
Br354	Br	1.848534	-0.280419	1.135048
H355	H	0.634253	-0.286381	0.400352
H356	H	0.967586	0.046952	0.733686
H357	H	1.300920	0.380286	1.067019
Br358	Br	1.221663	-0.189317	0.934046
Br359	Br	1.554996	0.144016	1.267379
Br360	Br	1.888329	0.477350	1.600713
Br361	Br	0.491823	-0.285052	0.245832
Br362	Br	0.825156	0.048281	0.579165
Br363	Br	1.158489	0.381614	0.912498
H364	H	0.633816	-0.264390	0.262485
H365	H	0.967150	0.068943	0.595818
H366	H	1.300483	0.402277	0.929152
H367	H	1.165384	-0.263682	0.792377
H368	H	1.498717	0.069651	1.125710
H369	H	1.832051	0.402985	1.459044
Br370	Br	1.181902	-1.057679	0.468407
Br371	Br	1.515235	-0.724346	0.801740
Br372	Br	1.848569	-0.391013	1.135073
Br373	Br	0.958692	-0.947289	0.244936
Br374	Br	1.292026	-0.613955	0.578270
Br375	Br	1.625359	-0.280622	0.911603
Br376	Br	0.911243	-0.701319	0.197487
Br377	Br	1.244576	-0.367985	0.530820
Br378	Br	1.577909	-0.034652	0.864153
H379	H	1.203378	-0.688334	0.489991
H380	H	1.536711	-0.355001	0.823324
H381	H	1.870045	-0.021668	1.156657
H382	H	0.937015	-0.829319	0.223249
H383	H	1.270349	-0.495986	0.556583
H384	H	1.603682	-0.162652	0.889916
H385	H	1.203430	-0.829094	0.490023
H386	H	1.536763	-0.495760	0.823356
H387	H	1.870097	-0.162427	1.156690
