data_functionalizedCrystal
_audit_creation_method	'MofGen! by Chris Wilmer'
_symmetry_space_group_name_H-M	'P1'
_symmetry_Int_Tables_number	1
_symmetry_cell_setting	triclinic
loop_
_symmetry_equiv_pos_as_xyz
  x,y,z
_cell_length_a	23.096457
_cell_length_b	23.096457
_cell_length_c	23.196401
_cell_angle_alpha	60.007494
_cell_angle_beta	90.011648
_cell_angle_gamma	60.000612
loop_
_atom_site_label
_atom_site_type_symbol
_atom_site_fract_x
_atom_site_fract_y
_atom_site_fract_z
Zr1	Zr	0.557762	0.633748	-0.075665
O2	O	0.465295	0.754536	-0.167712
O3	O	0.586106	0.512961	-0.047449
O4	O	0.586081	0.633750	-0.167718
O5	O	0.465343	0.633745	0.047428
O6	O	0.681361	0.633752	-0.167721
O7	O	0.465321	0.633746	-0.047443
O8	O	0.681407	0.417682	0.047417
O9	O	0.465297	0.849815	-0.167710
O10	O	0.669304	0.562644	-0.035417
O11	O	0.598214	0.562641	0.035388
O12	O	0.598184	0.704855	-0.106213
O13	O	0.527094	0.704853	-0.035409
Zr14	Zr	0.709760	0.633749	0.075638
Zr15	Zr	0.709724	0.633751	-0.075671
Zr16	Zr	0.557799	0.633746	0.075644
Zr17	Zr	0.557766	0.785708	-0.075663
Zr18	Zr	0.709756	0.481789	0.075636
O19	O	0.681416	0.754536	0.047422
O20	O	0.681364	0.754539	-0.167719
O21	O	0.465346	0.754532	0.047430
O22	O	0.802227	0.512961	0.167685
O23	O	0.802176	0.512965	-0.047457
O24	O	0.586158	0.512958	0.167693
O25	O	0.802179	0.633752	-0.047455
O26	O	0.681442	0.633747	0.167691
O27	O	0.586161	0.633745	0.167694
O28	O	0.802202	0.633751	0.047416
O29	O	0.586086	0.849817	-0.167714
O30	O	0.681436	0.417680	0.167688
O31	O	0.802225	0.417682	0.167683
O32	O	0.802196	0.417684	0.047413
O33	O	0.465326	0.849813	-0.047440
O34	O	0.586115	0.849815	-0.047444
O35	O	0.669338	0.562642	0.106186
O36	O	0.740428	0.562644	0.035382
O37	O	0.669308	0.704855	-0.035414
O38	O	0.598218	0.704853	0.035390
C39	C	0.633756	0.443670	-0.000016
C40	C	0.633755	0.379160	-0.000017
C41	C	0.581270	-0.028871	-0.052277
C42	C	0.581264	0.031747	-0.052276
C43	C	0.633766	0.009570	-0.000014
C44	C	0.686268	-0.073236	0.052263
C45	C	0.686269	-0.133852	0.052265
N46	N	0.696017	0.065672	0.015808
N47	N	0.696014	0.123259	0.015802
C48	C	0.633767	0.192200	-0.000016
N49	N	0.571520	0.201387	-0.015842
N50	N	0.571523	0.143797	-0.015839
C51	C	0.633771	0.075292	-0.000010
C52	C	0.581259	0.340724	-0.052286
C53	C	0.581253	0.401342	-0.052281
C54	C	0.686262	0.296356	0.052255
C55	C	0.686263	0.235741	0.052253
C56	C	0.633762	0.257930	-0.000021
C57	C	0.443681	0.633745	-0.000006
C58	C	0.379169	0.633744	-0.000004
C59	C	0.385987	0.559513	0.036944
C60	C	0.325372	0.559512	0.036947
C61	C	0.257939	0.633746	-0.000012
C62	C	0.251123	0.707987	-0.036962
C63	C	0.311738	0.707986	-0.036958
N64	N	0.135130	0.689003	-0.060162
N65	N	0.077550	0.688999	-0.060164
C66	C	0.075306	0.633753	-0.000024
N67	N	0.132822	0.578500	0.060117
N68	N	0.190408	0.578502	0.060118
C69	C	0.192207	0.633755	-0.000020
C70	C	0.016401	0.559516	0.036931
C71	C	-0.044217	0.559518	0.036936
C72	C	-0.118467	0.707995	-0.036980
C73	C	-0.057849	0.707991	-0.036978
C74	C	0.009582	0.633749	-0.000024
C75	C	0.823841	0.633752	-0.000020
C76	C	0.888353	0.633753	-0.000023
C77	C	0.633716	0.633751	-0.189278
C78	C	0.633700	0.633752	-0.253512
C79	C	0.633766	0.823827	-0.000010
C80	C	0.633767	0.888337	-0.000010
C81	C	0.596580	0.707983	-0.320640
C82	C	0.596598	0.707984	-0.380996
C83	C	0.633727	0.633750	-0.374219
C84	C	0.670855	0.559510	-0.307078
C85	C	0.670842	0.559511	-0.246725
C86	C	0.628453	0.576876	-0.441536
C87	C	0.628461	0.576878	-0.501890
C88	C	0.633771	0.633744	-0.560366
C89	C	0.639060	0.690621	-0.558489
C90	C	0.639046	0.690622	-0.498135
C91	C	0.633745	0.633741	-0.439657
C92	C	0.596669	0.707981	-0.692941
C93	C	0.596692	0.707979	-0.753296
C94	C	0.670945	0.559503	-0.679376
C95	C	0.670926	0.559507	-0.619024
C96	C	0.633784	0.633748	-0.625811
C97	C	0.633807	0.633746	0.189251
C98	C	0.633822	0.633745	0.253486
C99	C	0.823837	0.443674	-0.000023
C100	C	0.888347	0.379164	-0.000027
C101	C	0.633802	0.443667	0.189248
C102	C	0.633816	0.379156	0.253482
C103	C	0.823882	0.443671	0.189241
C104	C	0.888407	0.379160	0.253472
C105	C	0.443640	0.823826	-0.189268
C106	C	0.379115	0.888337	-0.253499
C107	C	0.443686	0.823823	-0.000004
C108	C	0.379176	0.888333	-0.000000
C109	C	0.633720	0.823829	-0.189275
C110	C	0.633707	0.888341	-0.253509
C111	C	0.881515	0.348869	-0.036991
C112	C	0.942123	0.288264	-0.037008
C113	C	1.009562	0.257950	-0.000057
C114	C	1.016392	0.288251	0.036909
C115	C	0.955785	0.348859	0.036921
C116	C	0.670948	0.348860	0.320609
C117	C	0.670958	0.288253	0.380969
C118	C	0.633840	0.257938	0.374200
C119	C	0.596703	0.288240	0.307066
C120	C	0.596689	0.348850	0.246707
C121	C	0.955824	0.348866	0.246677
C122	C	1.016458	0.288260	0.307023
C123	C	1.009674	0.257945	0.374164
C124	C	0.942251	0.288244	0.380958
C125	C	0.881618	0.348853	0.320613
C126	C	0.311699	0.918638	-0.246704
C127	C	0.251064	0.979263	-0.307050
C128	C	0.257848	1.009582	-0.374191
C129	C	0.325271	0.979278	-0.380985
C130	C	0.385904	0.918658	-0.320639
C131	C	0.386007	0.918634	0.036958
C132	C	0.325399	0.979256	0.036958
C133	C	0.257960	1.009572	0.000005
C134	C	0.251130	0.979268	-0.036958
C135	C	0.311738	0.918652	-0.036962
C136	C	0.670832	0.918637	-0.246717
C137	C	0.670833	0.979244	-0.307066
C138	C	0.633704	1.009559	-0.374205
C139	C	0.596577	0.979258	-0.380995
C140	C	0.596581	0.918647	-0.320647
H141	H	0.538518	-0.010797	-0.094841
C142	C	0.934598	0.254936	-0.077663
H143	H	0.885753	0.281662	-0.099655
H144	H	0.956681	0.264874	-0.112646
H145	H	0.956708	0.197706	-0.045760
C146	C	0.523519	0.122828	-0.109774
H147	H	0.531037	0.155750	-0.102285
H148	H	0.525691	0.134458	-0.154890
H149	H	0.478200	0.134469	-0.107608
C150	C	0.176907	1.012584	-0.299568
H151	H	0.141763	1.053037	-0.345120
H152	H	0.171598	0.969066	-0.274495
H153	H	0.171606	1.036221	-0.274481
C154	C	0.633861	0.191265	0.440597
H155	H	0.606434	0.177549	0.426956
H156	H	0.681158	0.143979	0.467897
H157	H	0.613992	0.211145	0.467896
C158	C	0.555847	0.382163	0.172871
H159	H	0.533750	0.355419	0.177491
H160	H	0.520715	0.439389	0.147782
H161	H	0.587883	0.372216	0.147792
H162	H	0.566347	1.003950	-0.435668
H163	H	0.330924	0.499063	0.067036
H164	H	0.071306	0.499064	0.067036
H165	H	0.961360	0.373540	0.192013
H166	H	0.961357	0.373517	0.067026
H167	H	0.701174	0.373536	0.326134
C168	C	0.460182	0.885296	0.077611
H169	H	0.455560	0.912037	0.099613
H170	H	0.485377	0.828071	0.112586
H171	H	0.485364	0.895234	0.045706
C172	C	-0.065344	0.789643	-0.077449
H173	H	-0.019586	0.779011	-0.072096
H174	H	-0.090552	0.820311	-0.126098
H175	H	-0.090510	0.819979	-0.059057
H176	H	0.566346	0.893987	-0.326187
C177	C	0.711664	1.012575	-0.299584
H178	H	0.733764	0.985847	-0.250954
H179	H	0.746793	1.002639	-0.321582
H180	H	0.679618	1.069804	-0.321591
C181	C	0.711791	0.477844	-0.671911
H182	H	0.733900	0.433634	-0.623284
H183	H	0.679763	0.474753	-0.693933
H184	H	0.746925	0.474762	-0.693903
C185	C	0.191148	1.076251	-0.440565
H186	H	0.150028	1.089943	-0.426896
H187	H	0.191126	1.123552	-0.467877
H188	H	0.191134	1.056375	-0.467864
H189	H	0.538500	0.468758	-0.094844
H190	H	0.729015	-0.091290	0.094816
C191	C	0.622674	0.514295	-0.503941
H192	H	0.619531	0.480412	-0.460464
H193	H	0.581475	0.542426	-0.541510
H194	H	0.663465	0.481418	-0.511098
C195	C	0.332724	1.012628	-0.454842
H196	H	0.286954	1.053062	-0.489803
H197	H	0.357909	1.036277	-0.460150
H198	H	0.357897	0.969112	-0.460142
H199	H	-0.173371	0.768437	-0.067074
H200	H	0.729015	0.168326	0.094812
H201	H	0.330974	1.003919	0.067060
H202	H	0.208615	1.058930	0.000014
H203	H	0.196214	1.003961	-0.067044
C204	C	1.076224	0.191275	-0.000069
H205	H	1.062490	0.177572	-0.027371
H206	H	1.103648	0.211133	-0.019856
H207	H	1.103652	0.143975	0.047018
C208	C	0.460060	0.885302	-0.328119
H209	H	0.495204	0.844852	-0.282568
H210	H	0.465337	0.861668	-0.353202
H211	H	0.465389	0.928806	-0.353198
H212	H	0.826609	0.373550	-0.067090
C213	C	0.807463	0.382167	0.328092
H214	H	0.772318	0.422610	0.282541
H215	H	0.802163	0.338643	0.353175
H216	H	0.802155	0.405815	0.353171
C217	C	0.304215	0.885317	-0.077608
H218	H	0.255369	0.912051	-0.099606
H219	H	0.326305	0.895243	-0.112586
H220	H	0.326316	0.828089	-0.045701
H221	H	0.306181	0.768435	-0.067044
H222	H	1.071351	0.263596	0.301479
H223	H	0.701202	0.263589	0.435627
C224	C	0.555886	0.254879	0.299629
H225	H	0.561225	0.214436	0.345194
H226	H	0.507045	0.298379	0.274555
H227	H	0.574222	0.231219	0.274560
C228	C	1.076374	0.191269	0.440538
H229	H	1.117494	0.177567	0.426869
H230	H	1.076395	0.211127	0.467848
H231	H	1.076389	0.143968	0.467839
H232	H	-0.038659	0.499068	0.067029
C233	C	0.633699	1.076236	-0.440581
H234	H	0.661123	1.089939	-0.426914
H235	H	0.653564	1.056379	-0.467892
H236	H	0.586402	1.123536	-0.467880
H237	H	1.071309	0.263560	0.066993
C238	C	0.176950	0.789642	-0.077618
H239	H	0.141826	0.779011	-0.072334
H240	H	0.171633	0.820144	-0.059365
H241	H	0.171628	0.820142	-0.126242
H242	H	0.729020	-0.201268	0.094829
H243	H	0.701067	0.893964	-0.192054
H244	H	0.566339	0.768436	-0.326173
C245	C	0.523503	0.365126	-0.109776
H246	H	0.492229	0.423120	-0.140899
H247	H	0.545058	0.343665	-0.135595
H248	H	0.497581	0.343659	-0.088298
H249	H	0.936738	0.263552	0.435632
C250	C	0.304226	0.885299	-0.172855
H251	H	0.349988	0.844850	-0.137882
H252	H	0.279048	0.928813	-0.167560
H253	H	0.279037	0.861654	-0.167562
H254	H	0.440889	0.499060	0.067031
C255	C	0.744011	0.271954	0.109747
H256	H	0.736494	0.319912	0.102259
H257	H	0.741840	0.240453	0.154864
H258	H	0.789328	0.240453	0.107578
H259	H	0.643354	0.736933	-0.496609
C260	C	0.555756	0.789641	-0.454845
H261	H	0.533630	0.833855	-0.450243
H262	H	0.587792	0.792735	-0.479920
H263	H	0.520636	0.792713	-0.479929
H264	H	0.643381	0.736930	-0.606103
H265	H	0.566466	0.768429	-0.807957
C266	C	0.555829	0.789641	-0.700402
H267	H	0.533734	0.833852	-0.749029
H268	H	0.520697	0.792735	-0.678411
H269	H	0.587871	0.792720	-0.678378
H270	H	0.701151	0.499060	-0.564364
H271	H	0.624123	0.530570	-0.393927
H272	H	0.701087	0.499068	-0.301564
C273	C	0.711670	0.477854	-0.172881
H274	H	0.733784	0.433641	-0.177486
H275	H	0.746787	0.474768	-0.147784
H276	H	0.679619	0.474770	-0.147820
