data_functionalizedCrystal
_audit_creation_method	'MofGen! by Chris Wilmer'
_symmetry_space_group_name_H-M	'P1'
_symmetry_Int_Tables_number	1
_symmetry_cell_setting	triclinic
loop_
_symmetry_equiv_pos_as_xyz
  x,y,z
_cell_length_a	13.897448
_cell_length_b	12.827893
_cell_length_c	12.827885
_cell_angle_alpha	89.983492
_cell_angle_beta	89.967724
_cell_angle_gamma	90.020476
loop_
_atom_site_label
_atom_site_type_symbol
_atom_site_fract_x
_atom_site_fract_y
_atom_site_fract_z
Zn1	Zn	-0.383897	1.597655	-0.590748
Zn2	Zn	0.116103	2.097655	-0.090748
Zn3	Zn	-0.545223	1.597541	-0.416001
Zn4	Zn	-0.045223	2.097541	0.083999
Zn5	Zn	-0.383951	1.422896	-0.416031
Zn6	Zn	0.116049	1.922896	0.083969
Zn7	Zn	-0.545159	1.422874	-0.590710
Zn8	Zn	-0.045159	1.922874	-0.090710
O9	O	-0.464558	1.510242	-0.503373
O10	O	0.035442	2.010242	-0.003373
O11	O	-0.405301	1.743876	-0.567571
O12	O	0.094699	2.243876	-0.067571
O13	O	-0.523880	1.574336	-0.269769
O14	O	-0.023880	2.074336	0.230231
O15	O	-0.248963	1.446134	-0.439236
O16	O	0.251037	1.946134	0.060764
O17	O	-0.523826	1.743792	-0.439185
O18	O	-0.023826	2.243792	0.060815
O19	O	-0.248922	1.574529	-0.567600
O20	O	0.251078	2.074529	-0.067600
O21	O	-0.405394	1.446024	-0.269791
O22	O	0.094606	1.946024	0.230209
O23	O	-0.405332	1.276657	-0.439199
O24	O	0.094668	1.776657	0.060801
O25	O	-0.523718	1.446098	-0.736951
O26	O	-0.023718	1.946098	-0.236951
O27	O	-0.523771	1.276641	-0.567535
O28	O	-0.023771	1.776641	-0.067535
O29	O	-0.405239	1.574508	-0.736979
O30	O	0.094761	2.074508	-0.236979
O31	O	-0.680196	1.574315	-0.439148
O32	O	-0.180196	2.074315	0.060852
O33	O	-0.680149	1.445988	-0.567506
O34	O	-0.180149	1.945988	-0.067506
C35	C	-0.715172	1.510165	-0.503342
C36	C	-0.215172	2.010165	-0.003342
C37	C	-0.822386	1.510228	-0.503364
C38	C	-0.322386	2.010228	-0.003364
C39	C	-0.464551	1.238732	-0.503367
C40	C	0.035449	1.738732	-0.003367
C41	C	-0.464572	1.122579	-0.503389
C42	C	0.035428	1.622579	-0.003389
C43	C	-0.464465	1.510314	-0.775943
C44	C	0.035535	2.010314	-0.275943
C45	C	-0.464425	1.510344	-0.892096
C46	C	0.035575	2.010344	-0.392096
C47	C	-1.018681	1.510338	-0.503430
C48	C	-0.518681	2.010338	-0.003430
C49	C	-0.909448	1.510274	-0.503397
C50	C	-0.409448	2.010274	-0.003397
C51	C	-0.212965	1.510347	-0.503426
C52	C	0.287035	2.010347	-0.003426
C53	C	-0.105751	1.510391	-0.503448
C54	C	0.394249	2.010391	-0.003448
C55	C	-0.464565	1.782812	-0.503379
C56	C	0.035435	2.282812	-0.003379
C57	C	-0.464568	1.898965	-0.503382
C58	C	0.035432	2.398965	-0.003382
C59	C	-0.405925	1.950791	-0.566906
C60	C	0.094075	2.450791	-0.066906
C61	C	-0.405926	2.070841	-0.566910
C62	C	0.094074	2.570841	-0.066910
C63	C	-0.405784	1.446872	-0.943892
C64	C	0.094216	1.946872	-0.443892
C65	C	-0.405741	1.446902	-1.063942
C66	C	0.094259	1.946902	-0.563942
C67	C	-0.464580	1.510230	-0.231863
C68	C	0.035420	2.010230	0.268137
C69	C	-0.464348	1.510402	-0.115710
C70	C	0.035652	2.010402	0.384290
H71	H	-0.355721	1.906284	-0.621292
H72	H	0.144279	2.406284	-0.121292
O73	O	-0.345983	1.381955	-1.117117
O74	O	0.154017	1.881955	-0.617117
C75	C	-0.400930	1.314529	-1.180259
C76	C	0.099070	1.814529	-0.680259
H77	H	-0.476886	1.308010	-1.147287
H78	H	0.023114	1.808010	-0.647287
H79	H	-0.366046	1.234121	-1.181605
H80	H	0.133954	1.734121	-0.681605
H81	H	-0.404291	1.346932	-1.262940
H82	H	0.095709	1.846932	-0.762940
H83	H	-0.514780	1.943471	-0.449006
H84	H	-0.014780	2.443471	0.050994
H85	H	-0.355613	1.392505	-0.899359
H86	H	0.144387	1.892505	-0.399359
H87	H	-0.355716	2.115410	-0.621291
H88	H	0.144284	2.615410	-0.121291
O89	O	-0.524352	1.575086	-1.062539
O90	O	-0.024352	2.075086	-0.562539
C91	C	-0.586602	1.515491	-0.999367
C92	C	-0.086602	2.015491	-0.499367
H93	H	-0.592573	1.433221	-1.032321
H94	H	-0.092573	1.933221	-0.532321
H95	H	-0.660836	1.553252	-0.998007
H96	H	-0.160836	2.053252	-0.498007
H97	H	-0.556736	1.511809	-0.916694
H98	H	-0.056736	2.011809	-0.416694
O99	O	-0.524239	1.575350	-0.945096
O100	O	-0.024239	2.075350	-0.445096
C101	C	-0.503173	1.679530	-0.918528
C102	C	-0.003173	2.179530	-0.418528
H103	H	-0.466185	1.681761	-0.839262
H104	H	0.033815	2.181761	-0.339262
H105	H	-0.572792	1.726364	-0.914890
H106	H	-0.072792	2.226364	-0.414890
H107	H	-0.453510	1.714707	-0.979947
H108	H	0.046490	2.214707	-0.479947
O109	O	-0.524609	2.069539	-0.438553
O110	O	-0.024609	2.569539	0.061447
C111	C	-0.620762	2.096080	-0.461368
C112	C	-0.120762	2.596080	0.038632
H113	H	-0.622814	2.175363	-0.501471
H114	H	-0.122814	2.675363	-0.001471
H115	H	-0.664044	2.099668	-0.385937
H116	H	-0.164044	2.599668	0.114063
H117	H	-0.653178	2.034673	-0.515141
H118	H	-0.153178	2.534673	-0.015141
