data_functionalizedCrystal
_audit_creation_method	'MofGen! by Chris Wilmer'
_symmetry_space_group_name_H-M	'P1'
_symmetry_Int_Tables_number	1
_symmetry_cell_setting	triclinic
loop_
_symmetry_equiv_pos_as_xyz
  x,y,z
_cell_length_a	29.839131
_cell_length_b	21.395364
_cell_length_c	21.395356
_cell_angle_alpha	90.024640
_cell_angle_beta	89.970658
_cell_angle_gamma	89.961079
loop_
_atom_site_label
_atom_site_type_symbol
_atom_site_fract_x
_atom_site_fract_y
_atom_site_fract_z
Zn1	Zn	-0.178895	-0.957806	-0.354272
Zn2	Zn	0.154439	-0.624473	-0.020938
Zn3	Zn	0.487772	-0.291140	0.312395
Zn4	Zn	-0.254022	-0.957691	-0.249491
Zn5	Zn	0.079311	-0.624358	0.083842
Zn6	Zn	0.412645	-0.291024	0.417175
Zn7	Zn	-0.178903	-0.853023	-0.249506
Zn8	Zn	0.154430	-0.519690	0.083827
Zn9	Zn	0.487763	-0.186357	0.417160
Zn10	Zn	-0.253995	-0.852971	-0.354229
Zn11	Zn	0.079338	-0.519638	-0.020896
Zn12	Zn	0.412672	-0.186304	0.312437
O13	O	-0.216454	-0.905373	-0.301875
O14	O	0.116880	-0.572040	0.031459
O15	O	0.450213	-0.238706	0.364792
O16	O	-0.188868	-1.045469	-0.340384
O17	O	0.144465	-0.712136	-0.007050
O18	O	0.477799	-0.378802	0.326283
O19	O	-0.244072	-0.943780	-0.161815
O20	O	0.089261	-0.610447	0.171518
O21	O	0.422594	-0.277114	0.504851
O22	O	-0.116035	-0.866993	-0.263428
O23	O	0.217298	-0.533660	0.069905
O24	O	0.550631	-0.200326	0.403239
O25	O	-0.244064	-1.045384	-0.263402
O26	O	0.089270	-0.712051	0.069932
O27	O	0.422603	-0.378718	0.403265
O28	O	-0.116029	-0.943977	-0.340398
O29	O	0.217305	-0.610643	-0.007065
O30	O	0.550638	-0.277310	0.326268
O31	O	-0.188883	-0.866881	-0.161827
O32	O	0.144450	-0.533548	0.171507
O33	O	0.477784	-0.200215	0.504840
O34	O	-0.188857	-0.765338	-0.263387
O35	O	0.144476	-0.432005	0.069946
O36	O	0.477810	-0.098672	0.403280
O37	O	-0.244018	-0.866904	-0.441913
O38	O	0.089315	-0.533571	-0.108580
O39	O	0.422649	-0.200237	0.224754
O40	O	-0.244026	-0.765300	-0.340326
O41	O	0.089307	-0.431967	-0.006993
O42	O	0.422640	-0.098633	0.326340
O43	O	-0.188842	-0.943926	-0.441944
O44	O	0.144491	-0.610593	-0.108611
O45	O	0.477825	-0.277260	0.224723
O46	O	-0.316886	-0.943730	-0.263361
O47	O	0.016448	-0.610396	0.069973
O48	O	0.349781	-0.277063	0.403306
O49	O	-0.316866	-0.866792	-0.340312
O50	O	0.016468	-0.533459	-0.006978
O51	O	0.349801	-0.200126	0.326355
C52	C	-0.216440	-0.742585	-0.301854
C53	C	0.116893	-0.409252	0.031479
C54	C	0.450227	-0.075919	0.364813
C55	C	-0.216445	-0.672944	-0.301860
C56	C	0.116888	-0.339611	0.031473
C57	C	0.450222	-0.006277	0.364806
C58	C	-0.245226	-0.171144	-0.341887
C59	C	0.088108	0.162189	-0.008554
C60	C	0.421441	0.495522	0.324780
C61	C	-0.245226	-0.236580	-0.341882
C62	C	0.088107	0.096754	-0.008548
C63	C	0.421440	0.430087	0.324785
C64	C	-0.216457	-0.269306	-0.301885
C65	C	0.116876	0.064028	0.031448
C66	C	0.450210	0.397361	0.364782
C67	C	-0.187693	-0.236591	-0.261879
C68	C	0.145640	0.096742	0.071454
C69	C	0.478974	0.430076	0.404787
C70	C	-0.187696	-0.171157	-0.261882
C71	C	0.145637	0.162177	0.071452
C72	C	0.478971	0.495510	0.404785
C73	C	-0.175972	-0.373005	-0.297037
C74	C	0.157362	-0.039672	0.036297
C75	C	0.490695	0.293661	0.369630
C76	C	-0.175968	-0.438438	-0.297039
C77	C	0.157366	-0.105105	0.036294
C78	C	0.490699	0.228228	0.369628
C79	C	-0.216447	-0.471127	-0.301874
C80	C	0.116886	-0.137793	0.031459
C81	C	0.450219	0.195540	0.364792
C82	C	-0.256932	-0.438374	-0.306721
C83	C	0.076401	-0.105041	0.026613
C84	C	0.409735	0.228293	0.359946
C85	C	-0.256935	-0.372940	-0.306723
C86	C	0.076398	-0.039606	0.026611
C87	C	0.409731	0.293727	0.359944
C88	C	-0.216450	-0.340258	-0.301878
C89	C	0.116883	-0.006925	0.031456
C90	C	0.450216	0.326409	0.364789
C91	C	-0.245213	-0.574786	-0.341868
C92	C	0.088121	-0.241453	-0.008535
C93	C	0.421454	0.091881	0.324799
C94	C	-0.245214	-0.640223	-0.341858
C95	C	0.088119	-0.306889	-0.008525
C96	C	0.421453	0.026444	0.324809
C97	C	-0.187677	-0.640233	-0.261859
C98	C	0.145657	-0.306899	0.071474
C99	C	0.478990	0.026434	0.404808
C100	C	-0.187679	-0.574797	-0.261866
C101	C	0.145654	-0.241464	0.071468
C102	C	0.478987	0.091869	0.404801
C103	C	-0.216447	-0.542078	-0.301874
C104	C	0.116887	-0.208745	0.031460
C105	C	0.450220	0.124589	0.364793
C106	C	-0.333176	-0.905260	-0.301844
C107	C	0.000157	-0.571926	0.031490
C108	C	0.333490	-0.238593	0.364823
C109	C	-0.383111	-0.905269	-0.301851
C110	C	-0.049777	-0.571935	0.031482
C111	C	0.283556	-0.238602	0.364815
C112	C	-0.692752	-0.945507	-0.261865
C113	C	-0.359418	-0.612174	0.071468
C114	C	-0.026085	-0.278840	0.404802
C115	C	-0.880425	-0.945584	-0.261889
C116	C	-0.547092	-0.612251	0.071444
C117	C	-0.213758	-0.278918	0.404777
O118	O	-0.904688	-0.979707	-0.227868
O119	O	-0.571354	-0.646373	0.105466
O120	O	-0.238021	-0.313040	0.438799
N121	N	-0.903896	-0.905503	-0.301922
N122	N	-0.570563	-0.572170	0.031411
N123	N	-0.237229	-0.238836	0.364745
C124	C	-0.880446	-0.865402	-0.341954
C125	C	-0.547112	-0.532069	-0.008621
C126	C	-0.213779	-0.198735	0.324712
O127	O	-0.904715	-0.831317	-0.376010
O128	O	-0.571382	-0.497983	-0.042676
O129	O	-0.238049	-0.164650	0.290657
C130	C	-0.692774	-0.865328	-0.341933
C131	C	-0.359440	-0.531995	-0.008599
C132	C	-0.026107	-0.198662	0.324734
C133	C	-0.669305	-0.905408	-0.301893
C134	C	-0.335972	-0.572075	0.031440
C135	C	-0.002638	-0.238741	0.364774
C136	C	-0.669283	-0.985584	-0.221829
C137	C	-0.335950	-0.652251	0.111504
C138	C	-0.002617	-0.318917	0.444838
C139	C	-0.622368	-0.985562	-0.221821
C140	C	-0.289034	-0.652229	0.111512
C141	C	0.044299	-0.318895	0.444846
C142	C	-0.598921	-0.945463	-0.261849
C143	C	-0.265588	-0.612129	0.071485
C144	C	0.067746	-0.278796	0.404818
C145	C	-0.622390	-0.905386	-0.301885
C146	C	-0.289056	-0.572053	0.031449
C147	C	0.044277	-0.238719	0.364782
C148	C	-0.669324	-0.825231	-0.381968
C149	C	-0.335991	-0.491898	-0.048634
C150	C	-0.002658	-0.158564	0.284699
C151	C	-0.622403	-0.825217	-0.381960
C152	C	-0.289070	-0.491884	-0.048626
C153	C	0.044263	-0.158551	0.284707
C154	C	-0.598935	-0.865297	-0.341920
C155	C	-0.265601	-0.531964	-0.008587
C156	C	0.067732	-0.198630	0.324747
C157	C	-0.552027	-0.865265	-0.341905
C158	C	-0.218694	-0.531931	-0.008571
C159	C	0.114639	-0.198598	0.324762
N160	N	-0.528556	-0.905346	-0.301872
N161	N	-0.195223	-0.572013	0.031461
N162	N	0.138110	-0.238680	0.364795
C163	C	-0.552003	-0.945445	-0.261844
C164	C	-0.218670	-0.612112	0.071489
C165	C	0.114664	-0.278779	0.404823
C166	C	-0.978976	-0.865443	-0.341962
C167	C	-0.645643	-0.532109	-0.008629
C168	C	-0.312310	-0.198776	0.324705
C169	C	-1.025894	-0.865460	-0.341967
C170	C	-0.692561	-0.532127	-0.008633
C171	C	-0.359227	-0.198794	0.324700
C172	C	-1.025870	-0.945644	-0.261902
C173	C	-0.692537	-0.612310	0.071431
C174	C	-0.359203	-0.278977	0.404764
C175	C	-0.978951	-0.945622	-0.261895
C176	C	-0.645618	-0.612289	0.071438
C177	C	-0.312285	-0.278956	0.404772
C178	C	-0.955505	-0.905524	-0.301929
C179	C	-0.622172	-0.572191	0.031404
C180	C	-0.288839	-0.238858	0.364737
C181	C	-0.453477	-0.945395	-0.261830
C182	C	-0.120144	-0.612062	0.071504
C183	C	0.213189	-0.278729	0.404837
C184	C	-0.406558	-0.945368	-0.261823
C185	C	-0.073224	-0.612034	0.071510
C186	C	0.260109	-0.278701	0.404843
C187	C	-0.406586	-0.865187	-0.341890
C188	C	-0.073253	-0.531854	-0.008556
C189	C	0.260081	-0.198520	0.324777
C190	C	-0.453501	-0.865212	-0.341894
C191	C	-0.120168	-0.531879	-0.008561
C192	C	0.213165	-0.198545	0.324773
C193	C	-0.476946	-0.905321	-0.301862
C194	C	-0.143613	-0.571988	0.031471
C195	C	0.189721	-0.238655	0.364805
O196	O	-0.527735	-0.831165	-0.375913
O197	O	-0.194402	-0.497832	-0.042580
O198	O	0.138931	-0.164498	0.290753
O199	O	-0.527725	-0.979535	-0.227804
O200	O	-0.194392	-0.646202	0.105530
O201	O	0.138941	-0.312869	0.438863
C202	C	-0.739667	-0.945529	-0.261873
C203	C	-0.406334	-0.612196	0.071460
C204	C	-0.073001	-0.278863	0.404794
C205	C	-0.763136	-0.905452	-0.301909
C206	C	-0.429803	-0.572119	0.031424
C207	C	-0.096469	-0.238786	0.364758
C208	C	-0.739689	-0.865353	-0.341937
C209	C	-0.406356	-0.532020	-0.008604
C210	C	-0.073022	-0.198687	0.324730
C211	C	-0.810054	-0.905470	-0.301914
C212	C	-0.476720	-0.572136	0.031420
C213	C	-0.143387	-0.238803	0.364753
C214	C	-0.833501	-0.945569	-0.261886
C215	C	-0.500167	-0.612236	0.071447
C216	C	-0.166834	-0.278902	0.404781
C217	C	-0.810030	-0.985650	-0.221853
C218	C	-0.476696	-0.652317	0.111480
C219	C	-0.143363	-0.318984	0.444813
C220	C	-0.763114	-0.985628	-0.221845
C221	C	-0.429781	-0.652295	0.111488
C222	C	-0.096447	-0.318962	0.444821
C223	C	-0.763160	-0.825272	-0.381970
C224	C	-0.429827	-0.491938	-0.048636
C225	C	-0.096493	-0.158605	0.284697
C226	C	-0.810075	-0.825297	-0.381974
C227	C	-0.476742	-0.491963	-0.048641
C228	C	-0.143409	-0.158630	0.284693
C229	C	-0.833522	-0.865396	-0.341946
C230	C	-0.500189	-0.532062	-0.008613
C231	C	-0.166856	-0.198729	0.324721
C232	C	-0.099275	-0.905504	-0.301920
C233	C	0.234058	-0.572170	0.031414
C234	C	0.567391	-0.238837	0.364747
C235	C	-0.049341	-0.905559	-0.301939
C236	C	0.283992	-0.572226	0.031395
C237	C	0.617326	-0.238893	0.364728
C238	C	-0.216426	-0.905422	-0.465298
C239	C	0.116907	-0.572089	-0.131965
C240	C	0.450241	-0.238756	0.201369
C241	C	-0.216414	-0.905443	-0.534939
C242	C	0.116919	-0.572110	-0.201606
C243	C	0.450253	-0.238777	0.131727
C244	C	-0.216465	-0.068796	-0.301892
C245	C	0.116868	0.264537	0.031441
C246	C	0.450201	0.597870	0.364775
C247	C	-0.216463	-0.138437	-0.301889
C248	C	0.116870	0.194896	0.031444
C249	C	0.450203	0.528229	0.364777
C250	C	-0.187674	-0.865413	-0.567648
C251	C	0.145659	-0.532079	-0.234315
C252	C	0.478993	-0.198746	0.099018
C253	C	-0.187666	-0.865411	-0.633084
C254	C	0.145668	-0.532077	-0.299751
C255	C	0.479001	-0.198744	0.033583
C256	C	-0.216393	-0.905450	-0.665808
C257	C	0.116941	-0.572117	-0.332474
C258	C	0.450274	-0.238784	0.000859
C259	C	-0.245139	-0.945484	-0.633091
C260	C	0.088195	-0.612150	-0.299757
C261	C	0.421528	-0.278817	0.033576
C262	C	-0.245149	-0.945480	-0.567656
C263	C	0.088184	-0.612147	-0.234323
C264	C	0.421517	-0.278813	0.099010
C265	C	-0.219927	-0.961901	-0.769495
C266	C	0.113407	-0.628568	-0.436162
C267	C	0.446740	-0.295235	-0.102828
C268	C	-0.219913	-0.961906	-0.834928
C269	C	0.113421	-0.628572	-0.501595
C270	C	0.446754	-0.295239	-0.168261
C271	C	-0.216362	-0.905461	-0.867629
C272	C	0.116971	-0.572127	-0.534295
C273	C	0.450304	-0.238794	-0.200962
C274	C	-0.212817	-0.849009	-0.834888
C275	C	0.120517	-0.515676	-0.501555
C276	C	0.453850	-0.182342	-0.168222
C277	C	-0.212827	-0.849006	-0.769454
C278	C	0.120506	-0.515672	-0.436121
C279	C	0.453839	-0.182339	-0.102787
C280	C	-0.216385	-0.905458	-0.736760
C281	C	0.116949	-0.572125	-0.403427
C282	C	0.450282	-0.238791	-0.070093
C283	C	-0.187612	-0.865424	-0.971290
C284	C	0.145722	-0.532091	-0.637957
C285	C	0.479055	-0.198758	-0.304624
C286	C	-0.187606	-0.865421	-1.036727
C287	C	0.145727	-0.532088	-0.703394
C288	C	0.479060	-0.198754	-0.370060
C289	C	-0.245077	-0.945500	-1.036732
C290	C	0.088256	-0.612166	-0.703399
C291	C	0.421590	-0.278833	-0.370066
C292	C	-0.245085	-0.945497	-0.971297
C293	C	0.088249	-0.612164	-0.637964
C294	C	0.421582	-0.278831	-0.304630
C295	C	-0.216349	-0.905460	-0.938580
C296	C	0.116984	-0.572127	-0.605247
C297	C	0.450317	-0.238794	-0.271913
C298	C	-0.216449	-0.905360	-0.139087
C299	C	0.116884	-0.572027	0.194246
C300	C	0.450218	-0.238693	0.527580
C301	C	-0.216334	-0.905460	-0.069446
C302	C	0.116999	-0.572127	0.263887
C303	C	0.450332	-0.238794	0.597220
H304	H	-0.164256	-0.548167	-0.229297
H305	H	0.169077	-0.214834	0.104036
H306	H	0.502410	0.118500	0.437369
H307	H	-0.387451	-0.978005	-0.229216
H308	H	-0.054118	-0.644672	0.104117
H309	H	0.279216	-0.311339	0.437451
H310	H	-0.143002	-0.465100	-0.293100
H311	H	0.190331	-0.131767	0.040233
H312	H	0.523664	0.201566	0.373567
H313	H	-0.268529	-0.978084	-0.659739
H314	H	0.064805	-0.644751	-0.326405
H315	H	0.398138	-0.311417	0.006928
H316	H	-0.164214	-0.832823	-0.944651
H317	H	0.169119	-0.499490	-0.611317
H318	H	0.502453	-0.166157	-0.277984
C319	C	-0.695067	-1.029697	-0.177788
C320	C	-0.361734	-0.696363	0.155546
C321	C	-0.028401	-0.363030	0.488879
N322	N	-0.714485	-1.062921	-0.144609
N323	N	-0.381152	-0.729588	0.188725
N324	N	-0.047818	-0.396254	0.522058
C325	C	-0.479259	-0.989514	-0.217789
C326	C	-0.145926	-0.656180	0.115545
C327	C	0.187407	-0.322847	0.448878
N328	N	-0.498678	-1.022740	-0.184613
N329	N	-0.165345	-0.689407	0.148720
N330	N	0.167988	-0.356074	0.482053
C331	C	-0.155987	-0.821384	-1.072707
C332	C	0.177347	-0.488050	-0.739374
C333	C	0.510680	-0.154717	-0.406040
N334	N	-0.132169	-0.788216	-1.099807
N335	N	0.201165	-0.454882	-0.766474
N336	N	0.534498	-0.121549	-0.433141
C337	C	-0.156044	-0.272591	-0.217887
C338	C	0.177290	0.060743	0.115447
C339	C	0.510623	0.394076	0.448780
N340	N	-0.132205	-0.299706	-0.184750
N341	N	0.201129	0.033627	0.148583
N342	N	0.534462	0.366961	0.481917
C343	C	-0.596558	-1.029648	-0.177769
C344	C	-0.263225	-0.696315	0.155565
C345	C	0.070108	-0.362981	0.488898
N346	N	-0.577122	-1.062855	-0.144584
N347	N	-0.243789	-0.729521	0.188749
N348	N	0.089545	-0.396188	0.522082
H349	H	-0.268639	-0.666852	-0.374427
H350	H	0.064695	-0.333518	-0.041094
H351	H	0.398028	-0.000185	0.292239
H352	H	-0.222798	-1.007872	-0.861580
H353	H	0.110536	-0.674539	-0.528247
H354	H	0.443869	-0.341205	-0.194913
C355	C	-1.051670	-0.989756	-0.217875
C356	C	-0.718337	-0.656423	0.115459
C357	C	-0.385004	-0.323090	0.448792
N358	N	-1.071105	-1.022984	-0.184719
N359	N	-0.737772	-0.689651	0.148615
N360	N	-0.404438	-0.356317	0.481948
C361	C	-0.953140	-0.989715	-0.217851
C362	C	-0.619807	-0.656381	0.115483
C363	C	-0.286474	-0.323048	0.448816
N364	N	-0.933702	-1.022928	-0.184675
N365	N	-0.600368	-0.689595	0.148658
N366	N	-0.267035	-0.356261	0.481991
C367	C	-0.953192	-0.821345	-0.386022
C368	C	-0.619858	-0.488012	-0.052689
C369	C	-0.286525	-0.154678	0.280644
N370	N	-0.933773	-0.788135	-0.419214
N371	N	-0.600439	-0.454802	-0.085881
N372	N	-0.267106	-0.121468	0.247453
C373	C	-0.223835	-1.023999	-0.733531
C374	C	0.109499	-0.690666	-0.400197
C375	C	0.442832	-0.357333	-0.066864
N376	N	-0.226779	-1.070770	-0.706443
N377	N	0.106554	-0.737437	-0.373110
N378	N	0.439887	-0.404103	-0.039777
H379	H	-0.268553	-0.978081	-0.541025
H380	H	0.064781	-0.644747	-0.207692
H381	H	0.398114	-0.311414	0.125642
C382	C	-0.835830	-1.029759	-0.177822
C383	C	-0.502497	-0.696426	0.155512
C384	C	-0.169163	-0.363092	0.488845
N385	N	-0.855265	-1.062982	-0.144661
N386	N	-0.521932	-0.729648	0.188672
N387	N	-0.188599	-0.396315	0.522005
C388	C	-0.131438	-0.337055	-0.291718
C389	C	0.201895	-0.003721	0.041616
C390	C	0.535229	0.329612	0.374949
N391	N	-0.097896	-0.309978	-0.287711
N392	N	0.235437	0.023356	0.045622
N393	N	0.568770	0.356689	0.378955
H394	H	-0.289894	-0.464987	-0.310662
H395	H	0.043439	-0.131654	0.022671
H396	H	0.376773	0.201679	0.356004
H397	H	-0.268652	-0.144508	-0.374462
H398	H	0.064682	0.188825	-0.041129
H399	H	0.398015	0.522158	0.292204
H400	H	-0.268466	-0.978102	-1.063376
H401	H	0.064867	-0.644769	-0.730042
H402	H	0.398200	-0.311435	-0.396709
C403	C	-0.596616	-0.781105	-0.426002
C404	C	-0.263282	-0.447772	-0.092669
C405	C	0.070051	-0.114438	0.240664
N406	N	-0.577193	-0.747879	-0.459174
N407	N	-0.243860	-0.414545	-0.125841
N408	N	0.089474	-0.081212	0.207493
C409	C	-0.301468	-0.336914	-0.312042
C410	C	0.031865	-0.003581	0.021292
C411	C	0.365199	0.329752	0.354625
N412	N	-0.335011	-0.309780	-0.316043
N413	N	-0.001678	0.023553	0.017290
N414	N	0.331655	0.356887	0.350624
C415	C	-0.276865	-0.272565	-0.385888
C416	C	0.056468	0.060769	-0.052555
C417	C	0.389802	0.394102	0.280778
N418	N	-0.300694	-0.299667	-0.419036
N419	N	0.032639	0.033667	-0.085703
N420	N	0.365973	0.367000	0.247631
H421	H	-0.164273	-0.144527	-0.229310
H422	H	0.169060	0.188806	0.104023
H423	H	0.502393	0.522140	0.437356
H424	H	-0.268637	-0.548144	-0.374444
H425	H	0.064696	-0.214811	-0.041111
H426	H	0.398029	0.118522	0.292223
C427	C	-0.156068	-0.821366	-0.531663
C428	C	0.177266	-0.488032	-0.198330
C429	C	0.510599	-0.154699	0.135003
N430	N	-0.132263	-0.788188	-0.504558
N431	N	0.201070	-0.454854	-0.171225
N432	N	0.534404	-0.121521	0.162108
H433	H	-0.209922	-0.803046	-0.861512
H434	H	0.123411	-0.469713	-0.528178
H435	H	0.456744	-0.136380	-0.194845
C436	C	-0.479317	-0.821120	-0.385937
C437	C	-0.145984	-0.487787	-0.052604
C438	C	0.187349	-0.154454	0.280729
N439	N	-0.498759	-0.787914	-0.419116
N440	N	-0.165426	-0.454581	-0.085783
N441	N	0.167908	-0.121248	0.247550
C442	C	-0.156031	-0.676227	-0.217860
C443	C	0.177302	-0.342894	0.115473
C444	C	0.510635	-0.009561	0.448806
N445	N	-0.132196	-0.703342	-0.184718
N446	N	0.201137	-0.370009	0.148615
N447	N	0.534471	-0.036675	0.481949
H448	H	-0.688424	-0.792591	-0.414569
H449	H	-0.355091	-0.459258	-0.081236
H450	H	-0.021758	-0.125924	0.252097
C451	C	-0.156046	-0.821375	-0.669071
C452	C	0.177288	-0.488042	-0.335738
C453	C	0.510621	-0.154708	-0.002405
N454	N	-0.132229	-0.788208	-0.696175
N455	N	0.201105	-0.454875	-0.362842
N456	N	0.534438	-0.121542	-0.029508
C457	C	-1.051704	-0.821363	-0.386007
C458	C	-0.718371	-0.488030	-0.052674
C459	C	-0.385038	-0.154697	0.280659
N460	N	-1.071143	-0.788151	-0.419183
N461	N	-0.737810	-0.454817	-0.085850
N462	N	-0.404476	-0.121484	0.247483
C463	C	-0.380785	-0.821083	-0.385921
C464	C	-0.047452	-0.487749	-0.052587
C465	C	0.285881	-0.154416	0.280746
N466	N	-0.361351	-0.787867	-0.419089
N467	N	-0.028018	-0.454533	-0.085756
N468	N	0.305316	-0.121200	0.247578
H469	H	-0.744009	-1.018265	-0.189241
H470	H	-0.410676	-0.684932	0.144092
H471	H	-0.077343	-0.351598	0.477425
C472	C	-0.835886	-0.781202	-0.426023
C473	C	-0.502552	-0.447868	-0.092690
C474	C	-0.169219	-0.114535	0.240644
N475	N	-0.855324	-0.747994	-0.459204
N476	N	-0.521991	-0.414661	-0.125871
N477	N	-0.188657	-0.081327	0.207463
C478	C	-0.737375	-0.781174	-0.426023
C479	C	-0.404042	-0.447841	-0.092690
C480	C	-0.070708	-0.114507	0.240644
N481	N	-0.717955	-0.747961	-0.459211
N482	N	-0.384622	-0.414627	-0.125878
N483	N	-0.051289	-0.081294	0.207456
C484	C	-0.208931	-0.786910	-0.733442
C485	C	0.124402	-0.453577	-0.400109
C486	C	0.457735	-0.120243	-0.066775
N487	N	-0.205999	-0.740138	-0.706318
N488	N	0.127334	-0.406805	-0.372985
N489	N	0.460667	-0.073471	-0.039651
H490	H	-0.268487	-0.978096	-0.944665
H491	H	0.064846	-0.644763	-0.611332
H492	H	0.398180	-0.311430	-0.277998
