data_functionalizedCrystal
_audit_creation_method	'MofGen! by Chris Wilmer'
_symmetry_space_group_name_H-M	'P1'
_symmetry_Int_Tables_number	1
_symmetry_cell_setting	triclinic
loop_
_symmetry_equiv_pos_as_xyz
  x,y,z
_cell_length_a	15.944551
_cell_length_b	15.944545
_cell_length_c	15.455320
_cell_angle_alpha	87.335034
_cell_angle_beta	92.677210
_cell_angle_gamma	83.497455
loop_
_atom_site_label
_atom_site_type_symbol
_atom_site_fract_x
_atom_site_fract_y
_atom_site_fract_z
O1	O	0.104622	1.118191	-0.072076
O2	O	0.117983	0.873641	-0.072091
O3	O	-0.010972	1.002594	-0.072075
O4	O	0.233577	0.989239	-0.072092
O5	O	-0.003600	0.995250	0.072186
O6	O	0.125355	0.866297	0.072171
O7	O	0.111994	1.110847	0.072185
Cu8	Cu	0.119347	0.987902	0.085350
Cu9	Cu	0.110629	0.996587	-0.085256
O10	O	0.240949	0.981895	0.072170
C11	C	0.121115	0.838676	0.000038
C12	C	0.119454	0.745429	0.000033
C13	C	0.034562	0.474796	0.000048
C14	C	0.079125	0.521757	0.071176
C15	C	0.113535	0.409785	0.000048
C16	C	0.071878	0.528978	-0.071055
C17	C	0.116439	0.574699	0.000039
C18	C	0.158080	0.455514	0.071235
C19	C	0.150818	0.462735	-0.071059
C20	C	0.195441	0.509662	0.000086
C21	C	0.111859	0.314782	0.000054
C22	C	0.118121	0.669698	0.000040
C23	C	-0.038580	0.998368	0.000055
C24	C	-0.131826	0.996705	0.000056
C25	C	-0.346682	0.912801	0.000039
C26	C	-0.404065	0.948143	0.071171
C27	C	-0.302552	0.993698	0.000049
C28	C	-0.411317	0.955402	-0.071059
C29	C	-0.467466	0.990788	0.000039
C30	C	-0.358704	1.029059	0.071239
C31	C	-0.365953	1.036310	-0.071055
C32	C	-0.423318	1.071710	0.000095
C33	C	-0.207550	0.995372	0.000056
C34	C	-0.562467	0.989120	0.000038
C35	C	0.268557	0.986121	0.000037
C36	C	0.361802	0.987784	0.000031
C37	C	0.108861	1.145813	0.000054
C38	C	0.110522	1.239060	0.000054
N39	N	0.125479	0.981799	0.205345
N40	N	0.104491	1.002696	-0.205250
C41	C	0.159262	0.947900	0.749348
C42	C	0.154641	0.952533	0.658541
C43	C	0.095253	1.011968	0.613137
C44	C	0.040477	1.066766	0.658545
C45	C	0.045094	1.062128	0.749351
C46	C	0.075320	1.031960	0.341558
C47	C	0.070708	1.036595	0.250746
C48	C	0.184872	0.922361	0.250748
C49	C	0.189487	0.917732	0.341555
C50	C	0.134708	0.972527	0.386956
N51	N	0.090530	1.016707	0.520317
N52	N	0.139427	0.967783	0.479774
H53	H	0.048846	0.547626	0.131313
H54	H	-0.313369	0.845650	0.000106
H55	H	0.035440	0.560956	-0.131184
C56	C	-0.015153	1.122407	0.799296
C57	C	-0.080500	1.187762	0.749357
C58	C	-0.140752	1.248040	0.799300
C59	C	-0.135658	1.242962	0.899183
C60	C	-0.070308	1.177604	0.949127
C61	C	-0.010056	1.117326	0.899184
H62	H	-0.084273	1.191524	0.675413
H63	H	-0.189128	1.296422	0.762327
H64	H	-0.180260	1.287583	0.936154
H65	H	-0.066534	1.173842	1.023071
H66	H	0.038320	1.068944	0.936157
H67	H	0.181068	0.436851	-0.131199
C68	C	-0.342901	1.086632	-0.152290
C69	C	-0.249875	1.098057	-0.166730
C70	C	-0.226821	1.148372	-0.247973
C71	C	-0.296793	1.187262	-0.314777
C72	C	-0.389825	1.175838	-0.300339
C73	C	-0.412879	1.125523	-0.219096
H74	H	-0.198072	1.069268	-0.117276
H75	H	-0.157952	1.156829	-0.258661
H76	H	-0.279727	1.224508	-0.374918
H77	H	-0.441628	1.204628	-0.349793
H78	H	-0.481748	1.117067	-0.208408
C79	C	0.207261	0.412463	0.152559
C80	C	0.214756	0.315692	0.167609
C81	C	0.263935	0.272640	0.248932
C82	C	0.305619	0.326357	0.315205
C83	C	0.298125	0.423134	0.300157
C84	C	0.248946	0.466187	0.218834
H85	H	0.183898	0.275922	0.118548
H86	H	0.269482	0.200999	0.260071
H87	H	0.342024	0.294487	0.375405
H88	H	0.328983	0.462904	0.349218
H89	H	0.243398	0.537827	0.207695
C90	C	0.287391	0.530597	0.000130
C91	C	0.350636	0.496728	0.075427
C92	C	0.442584	0.517665	0.075476
C93	C	0.471289	0.572469	0.000228
C94	C	0.408043	0.606341	-0.075074
C95	C	0.316094	0.585405	-0.075123
H96	H	0.329388	0.456155	0.131135
H97	H	0.489403	0.492590	0.131221
H98	H	0.539355	0.587968	0.000265
H99	H	0.429290	0.646914	-0.130782
H100	H	0.269275	0.610480	-0.130868
C101	C	-0.427088	0.897787	0.152403
C102	C	-0.392094	0.803984	0.168024
C103	C	-0.415113	0.753623	0.249252
C104	C	-0.473127	0.797065	0.314860
C105	C	-0.508124	0.890874	0.299241
C106	C	-0.485105	0.941235	0.218013
H107	H	-0.349146	0.771821	0.119455
H108	H	-0.389206	0.684180	0.260813
H109	H	-0.490167	0.759785	0.374989
H110	H	-0.551072	0.923037	0.347809
H111	H	-0.511012	1.010678	0.206451
C112	C	-0.327552	1.071101	0.152573
C113	C	-0.232972	1.080403	0.167628
C114	C	-0.201817	1.122440	0.248962
C115	C	-0.265241	1.155175	0.315241
C116	C	-0.359827	1.145874	0.300189
C117	C	-0.390982	1.103837	0.218855
H118	H	-0.186016	1.056170	0.118562
H119	H	-0.131798	1.129325	0.260104
H120	H	-0.242178	1.186293	0.375449
H121	H	-0.406783	1.170107	0.349255
H122	H	-0.461001	1.096951	0.207712
H123	H	-0.456476	1.138915	0.000139
H124	H	-0.434466	0.924237	-0.131200
H125	H	0.030718	1.076578	0.378516
H126	H	0.207625	0.899506	0.786310
C127	C	0.254809	0.852351	0.391502
C128	C	0.315059	0.792068	0.341570
C129	C	0.380384	0.726691	0.391520
C130	C	0.385458	0.721597	0.491403
C131	C	0.325206	0.781882	0.541341
C132	C	0.259882	0.847259	0.491391
H133	H	0.311305	0.795838	0.267626
H134	H	0.424986	0.682064	0.354552
H135	H	0.433815	0.673200	0.528379
H136	H	0.328961	0.778112	0.615285
H137	H	0.215280	0.891886	0.528359
C138	C	0.005373	1.101976	0.200804
C139	C	0.035062	1.169386	0.138388
C140	C	-0.030268	1.234765	0.088447
C141	C	-0.125287	1.232733	0.100923
C142	C	-0.154981	1.165320	0.163341
C143	C	-0.089651	1.099942	0.213282
H144	H	0.105405	1.170892	0.129151
H145	H	-0.008286	1.284668	0.042241
H146	H	-0.173648	1.281130	0.063954
H147	H	-0.225324	1.163814	0.172579
H148	H	-0.111633	1.050038	0.259489
H149	H	0.199239	0.907914	0.621575
H150	H	0.229469	0.877748	0.213775
H151	H	-0.033447	0.459139	0.000122
H152	H	-0.007882	1.115156	0.621572
