data_functionalizedCrystal
_audit_creation_method	'MofGen! by Chris Wilmer'
_symmetry_space_group_name_H-M	'P1'
_symmetry_Int_Tables_number	1
_symmetry_cell_setting	triclinic
loop_
_symmetry_equiv_pos_as_xyz
  x,y,z
_cell_length_a	18.050591
_cell_length_b	18.050582
_cell_length_c	11.169416
_cell_angle_alpha	90.016227
_cell_angle_beta	89.993212
_cell_angle_gamma	89.980240
loop_
_atom_site_label
_atom_site_type_symbol
_atom_site_fract_x
_atom_site_fract_y
_atom_site_fract_z
Zn1	Zn	1.135385	-0.420041	0.477997
Zn2	Zn	1.135334	-0.295865	0.678686
Zn3	Zn	1.011204	-0.295855	0.478003
Zn4	Zn	1.011191	-0.420003	0.678624
O5	O	1.073278	-0.357941	0.578328
O6	O	1.239303	-0.403589	0.504642
O7	O	1.118853	-0.191939	0.652094
O8	O	1.027704	-0.312340	0.310053
O9	O	1.239266	-0.312357	0.652088
O10	O	1.118939	-0.403579	0.310048
O11	O	1.027655	-0.191931	0.504653
O12	O	0.907278	-0.312303	0.504593
O13	O	1.027681	-0.523933	0.651982
O14	O	0.907268	-0.403514	0.651988
O15	O	1.118926	-0.523961	0.504582
O16	O	1.118840	-0.312320	0.846628
O17	O	1.027632	-0.403524	0.846582
C18	C	0.880326	-0.357904	0.578286
C19	C	0.797781	-0.357906	0.578296
C20	C	0.548939	-0.308422	0.498060
C21	C	0.598365	-0.376196	0.468839
C22	C	0.500660	-0.357966	0.578358
C23	C	0.598316	-0.290166	0.607491
C24	C	0.646645	-0.357933	0.578325
C25	C	0.548999	-0.425777	0.549081
C26	C	0.548945	-0.339701	0.687783
C27	C	0.598349	-0.407521	0.658605
C28	C	0.416562	-0.357985	0.578374
C29	C	0.730742	-0.357922	0.578309
C30	C	1.073308	-0.551647	0.578275
C31	C	1.073320	-0.634192	0.578252
C32	C	1.023739	-0.833628	0.658299
C33	C	1.091500	-0.883027	0.687643
C34	C	1.073357	-0.785323	0.578160
C35	C	1.005633	-0.883006	0.548783
C36	C	1.073386	-0.931308	0.578074
C37	C	1.141153	-0.833635	0.607562
C38	C	1.055240	-0.833609	0.468651
C39	C	1.123048	-0.882986	0.497954
C40	C	1.073339	-0.701225	0.578213
C41	C	1.073412	-1.015405	0.578021
C42	C	1.266984	-0.357979	0.578371
C43	C	1.349530	-0.357995	0.578390
C44	C	1.073249	-0.357935	0.890153
C45	C	1.073304	-0.357958	1.023552
C46	C	1.073292	-0.164989	0.578294
C47	C	1.073424	-0.082443	0.577979
C48	C	1.073328	-0.357963	0.265285
C49	C	1.073349	-0.357972	0.131885
H50	H	0.619907	-0.449453	0.726497
H51	H	0.981818	-0.811957	0.726157
H52	H	0.527222	-0.324241	0.780310
H53	H	0.619980	-0.232842	0.632146
C54	C	1.034609	-0.804674	0.345296
C55	C	0.963600	-0.829629	0.315044
C56	C	0.944556	-0.802978	0.201427
H57	H	1.069301	-0.822290	0.288012
H58	H	1.035153	-0.752046	0.346036
H59	H	0.963062	-0.882246	0.314295
H60	H	0.928892	-0.812015	0.372297
H61	H	0.945101	-0.750350	0.202167
H62	H	0.979253	-0.820596	0.144153
H63	H	0.896373	-0.819900	0.180891
H64	H	1.106841	-0.904734	0.780216
H65	H	1.198455	-0.812039	0.632478
H66	H	1.165069	-0.904521	0.430146
C67	C	0.929186	-0.911822	0.515856
C68	C	0.877454	-0.886797	0.600086
C69	C	0.807022	-0.913318	0.569795
H70	H	0.929756	-0.964442	0.515367
H71	H	0.915923	-0.894154	0.438661
H72	H	0.890713	-0.904469	0.677261
H73	H	0.876861	-0.834181	0.600587
H74	H	0.793760	-0.895650	0.492600
H75	H	0.807600	-0.965938	0.569307
H76	H	0.771913	-0.896337	0.626933
H77	H	0.620060	-0.391645	0.376282
C78	C	0.519899	-0.252755	0.407386
C79	C	0.476189	-0.289472	0.322525
C80	C	0.449415	-0.238219	0.238986
H81	H	0.560395	-0.229402	0.368358
H82	H	0.490876	-0.216437	0.447313
H83	H	0.505210	-0.325776	0.282602
H84	H	0.435681	-0.312821	0.361517
H85	H	0.420393	-0.201901	0.278913
H86	H	0.489916	-0.214869	0.199968
H87	H	0.419750	-0.263122	0.181405
C88	C	0.520096	-0.502174	0.516019
C89	C	0.442535	-0.501287	0.516345
C90	C	0.415883	-0.571645	0.485877
H91	H	0.537331	-0.537446	0.572643
H92	H	0.537387	-0.515224	0.438488
H93	H	0.425251	-0.488245	0.593866
H94	H	0.425280	-0.466029	0.459720
H95	H	0.433173	-0.584696	0.408345
H96	H	0.433122	-0.606912	0.542504
H97	H	0.363255	-0.571051	0.486083
