data_functionalizedCrystal
_audit_creation_method	'MofGen! by Chris Wilmer'
_symmetry_space_group_name_H-M	'P1'
_symmetry_Int_Tables_number	1
_symmetry_cell_setting	triclinic
loop_
_symmetry_equiv_pos_as_xyz
  x,y,z
_cell_length_a	10.686220
_cell_length_b	12.759400
_cell_length_c	12.759393
_cell_angle_alpha	89.968436
_cell_angle_beta	85.650343
_cell_angle_gamma	85.603675
loop_
_atom_site_label
_atom_site_type_symbol
_atom_site_fract_x
_atom_site_fract_y
_atom_site_fract_z
Zn1	Zn	1.929120	0.294834	0.470993
Zn2	Zn	1.928993	0.470561	0.295322
Zn3	Zn	1.718106	0.308384	0.308786
Zn4	Zn	1.718092	0.483967	0.484409
O5	O	1.823578	0.389437	0.389877
O6	O	2.105676	0.306864	0.436441
O7	O	1.900971	0.449108	0.150090
O8	O	1.746156	0.159561	0.330323
O9	O	2.105583	0.435970	0.307376
O10	O	1.901187	0.149607	0.449497
O11	O	1.746033	0.329957	0.159982
O12	O	1.541531	0.342956	0.343332
O13	O	1.746133	0.458819	0.629647
O14	O	1.541521	0.471957	0.472361
O15	O	1.901174	0.319863	0.619791
O16	O	1.900958	0.619364	0.320384
O17	O	1.746010	0.629214	0.459306
C18	C	1.823503	0.662409	0.389860
C19	C	1.823586	0.779180	0.389881
C20	C	1.495743	0.410382	0.410764
C21	C	1.355493	0.419368	0.419724
C22	C	1.823666	0.389325	0.663905
C23	C	1.823704	0.389277	0.780680
C24	C	2.152693	0.368410	0.368910
C25	C	2.292942	0.359450	0.359975
C26	C	1.823687	0.115396	0.389915
C27	C	1.823734	-0.001383	0.389932
C28	C	1.904357	0.828873	0.317613
C29	C	1.904434	0.938592	0.317640
C30	C	1.742959	0.948916	0.462207
C31	C	1.742889	0.839199	0.462184
C32	C	1.997580	0.822913	0.234145
C33	C	1.997657	0.932632	0.234173
C34	C	1.823562	0.389467	0.116911
C35	C	1.823769	0.389203	0.000122
C36	C	1.904445	0.316916	0.830410
C37	C	1.904475	0.316876	0.940133
C38	C	1.743019	0.461568	0.950384
C39	C	1.742984	0.461602	0.840664
C40	C	1.997664	0.233383	0.824493
C41	C	1.997694	0.233343	0.934215
H42	H	1.346684	0.301278	0.301966
H43	H	1.301745	0.477550	0.477730
H44	H	2.090467	0.256616	0.784540
H45	H	1.962728	0.158270	0.970492
O46	O	2.108309	0.966109	0.262137
C47	C	2.085810	1.029665	0.352983
H48	H	1.994053	1.009922	0.397404
H49	H	2.166727	1.014500	0.405680
H50	H	2.078460	1.115964	0.329329
O51	O	1.664746	1.007325	0.532476
C52	C	1.736588	1.066072	0.595838
H53	H	1.832246	1.076357	0.552756
H54	H	1.685237	1.146536	0.613179
H55	H	1.750376	1.022829	0.672815
O56	O	1.966363	0.970397	0.139167
C57	C	1.856316	1.038851	0.152885
H58	H	1.845648	1.070700	0.236806
H59	H	1.863289	1.106961	0.095406
H60	H	1.771025	0.994246	0.137536
H61	H	1.677232	0.520522	0.800178
H62	H	1.677131	0.798740	0.521038
O63	O	2.114215	0.779950	0.252659
C64	C	2.202587	0.811200	0.173318
H65	H	2.164313	0.887096	0.136040
H66	H	2.294617	0.824789	0.209070
H67	H	2.220292	0.746988	0.110687
O68	O	1.664737	0.531784	1.008809
C69	C	1.682054	0.516220	1.116317
H70	H	1.779449	0.475584	1.125108
H71	H	1.673475	0.595451	1.158545
H72	H	1.607241	0.465041	1.152231
O73	O	1.955681	0.785210	0.144570
C74	C	1.831475	0.827450	0.133978
H75	H	1.813482	0.903965	0.180673
H76	H	1.818058	0.843610	0.047506
H77	H	1.762449	0.768933	0.165188
H78	H	2.095420	0.248886	0.957763
O79	O	1.966245	0.138362	0.791038
C80	C	1.845407	0.119253	0.835683
H81	H	1.790880	0.197181	0.858635
H82	H	1.792987	0.076796	0.775963
H83	H	1.854640	0.068330	0.908548
