data_functionalizedCrystal
_audit_creation_method	'MofGen! by Chris Wilmer'
_symmetry_space_group_name_H-M	'P1'
_symmetry_Int_Tables_number	1
_symmetry_cell_setting	triclinic
loop_
_symmetry_equiv_pos_as_xyz
  x,y,z
_cell_length_a	20.875641
_cell_length_b	20.875790
_cell_length_c	14.560438
_cell_angle_alpha	61.745307
_cell_angle_beta	89.998980
_cell_angle_gamma	59.241818
loop_
_atom_site_label
_atom_site_type_symbol
_atom_site_fract_x
_atom_site_fract_y
_atom_site_fract_z
Zr1	Zr	0.674781	0.620452	-0.039011
O2	O	0.575658	0.754597	-0.180901
O3	O	0.700449	0.491432	-0.002289
O4	O	0.707253	0.618186	-0.184121
O5	O	0.568854	0.627843	0.152070
O6	O	0.816424	0.610569	-0.178954
O7	O	0.568854	0.627843	0.000931
O8	O	0.804253	0.383828	0.146310
O9	O	0.581025	0.854584	-0.173194
O10	O	0.798570	0.536916	0.025414
O11	O	0.717097	0.542601	0.134352
O12	O	0.725107	0.691838	-0.079732
O13	O	0.643634	0.697523	0.029205
Zr14	Zr	0.848897	0.608303	0.210281
Zr15	Zr	0.848897	0.608303	-0.030769
Zr16	Zr	0.674781	0.620452	0.202039
Zr17	Zr	0.683341	0.779918	-0.026718
Zr18	Zr	0.840337	0.448836	0.197988
O19	O	0.823228	0.737323	0.173559
O20	O	0.823228	0.737323	-0.169183
O21	O	0.575658	0.754597	0.161841
O22	O	0.948020	0.474157	0.352171
O23	O	0.948020	0.474157	0.009429
O24	O	0.700449	0.491432	0.340453
O25	O	0.954823	0.600912	0.019200
O26	O	0.816424	0.610568	0.355391
O27	O	0.707253	0.618186	0.350224
O28	O	0.954823	0.600912	0.170339
O29	O	0.719424	0.844927	-0.166643
O30	O	0.804253	0.383828	0.337913
O31	O	0.942652	0.374171	0.344464
O32	O	0.942652	0.374171	0.152861
O33	O	0.581025	0.854583	0.018409
O34	O	0.719424	0.844927	0.024960
O35	O	0.798570	0.536916	0.251002
O36	O	0.880044	0.531231	0.142065
O37	O	0.806581	0.686153	0.036918
O38	O	0.725107	0.691838	0.145856
C39	C	0.751132	0.414909	0.070259
C40	C	0.747498	0.347212	0.065041
C41	C	0.544046	0.629574	0.075326
C42	C	0.470129	0.634732	0.071828
C43	C	0.802962	0.256123	0.144447
C44	C	0.799513	0.192535	0.139536
C45	C	0.740601	0.220039	0.055213
C46	C	0.685131	0.311137	-0.024197
C47	C	0.688578	0.374723	-0.019281
C48	C	0.724156	0.036227	0.031735
C49	C	0.720715	-0.027368	0.026823
C50	C	0.835096	-0.145965	0.190558
C51	C	0.838541	-0.082373	0.195463
C52	C	0.783068	0.008719	0.116056
N53	N	0.737075	0.155043	0.050190
N54	N	0.786592	0.073713	0.121085
C55	C	0.473748	0.556289	0.125063
C56	C	0.404293	0.561141	0.121774
C57	C	0.331220	0.644435	0.065241
C58	C	0.327603	0.722884	0.012004
C59	C	0.397058	0.718031	0.015301
C60	C	0.119386	0.667619	0.049502
C61	C	0.049930	0.672465	0.046207
C62	C	0.126624	0.510722	0.155979
C63	C	0.196076	0.505877	0.159265
C64	C	0.192454	0.584325	0.106033
N65	N	0.260224	0.649396	0.061874
N66	N	0.263448	0.579363	0.109407
C67	C	0.979631	0.599181	0.095944
C68	C	1.053548	0.594023	0.099443
C69	C	0.761839	0.614377	-0.215882
C70	C	0.761839	0.614377	-0.318214
C71	C	0.772546	0.813845	0.101011
C72	C	0.776180	0.881543	0.106229
C73	C	0.723493	0.695246	-0.517330
C74	C	0.723491	0.695246	-0.421178
C75	C	0.800185	0.533503	-0.311403
C76	C	0.800182	0.533503	-0.407553
C77	C	0.679218	0.788627	-0.580707
C78	C	0.679215	0.788628	-0.484555
C79	C	0.761839	0.614377	0.387152
C80	C	0.761839	0.614377	0.489484
C81	C	0.968924	0.399713	0.080568
C82	C	1.039207	0.326857	0.078848
C83	C	0.751132	0.414909	0.371776
C84	C	0.747498	0.347212	0.468890
C85	C	0.968924	0.399713	0.382085
C86	C	1.039207	0.326857	0.482697
C87	C	0.554753	0.829042	-0.210815
C88	C	0.484470	0.901897	-0.311427
C89	C	0.554753	0.829042	0.090702
C90	C	0.484470	0.901897	0.092422
C91	C	0.772546	0.813845	-0.200506
C92	C	0.776180	0.881543	-0.297620
C93	C	1.029684	0.295611	0.017140
C94	C	1.095717	0.227165	0.015502
C95	C	1.171270	0.189962	0.075579
C96	C	1.180792	0.221215	0.137289
C97	C	1.114761	0.289664	0.138920
C98	C	0.788320	0.312453	0.575396
C99	C	0.784903	0.248853	0.666654
C100	C	0.740668	0.220008	0.651404
C101	C	0.699841	0.254774	0.544887
C102	C	0.703254	0.318377	0.453631
C103	C	1.114748	0.289676	0.473082
C104	C	1.180794	0.221229	0.567610
C105	C	1.171296	0.189961	0.671752
C106	C	1.095747	0.227149	0.681365
C107	C	1.029703	0.295599	0.586838
C108	C	0.408929	0.939087	-0.301811
C109	C	0.342885	1.007553	-0.396338
C110	C	0.352383	1.038825	-0.500479
C111	C	0.427932	1.001632	-0.510093
C112	C	0.493975	0.933171	-0.415567
C113	C	0.493993	0.933150	0.154120
C114	C	0.427962	1.001613	0.155733
C115	C	0.352408	1.038819	0.095653
C116	C	0.342887	1.007563	0.033947
C117	C	0.408917	0.939105	0.032329
C118	C	0.820422	0.910367	-0.282335
C119	C	0.823851	0.973966	-0.373574
C120	C	0.783034	1.008746	-0.480097
C121	C	0.738791	0.979916	-0.495381
C122	C	0.735366	0.916313	-0.404142
H123	H	0.844678	0.118367	0.204197
H124	H	0.401181	0.913630	-0.217023
O125	O	0.724116	0.822611	-0.643281
H126	H	0.773343	0.769678	-0.650246
H127	H	0.705559	1.008243	-0.582124
O128	O	0.836035	0.343552	0.591862
H129	H	0.796867	0.416718	0.554235
O130	O	0.737004	0.151391	0.749834
H131	H	0.772835	0.132061	0.826453
H132	H	0.818152	0.220553	0.753376
H133	H	0.670014	0.346670	0.366912
H134	H	0.859878	0.997433	-0.361109
H135	H	1.122497	0.315124	0.388293
O136	O	0.841548	0.446292	-0.200334
H137	H	0.814971	0.410639	-0.194564
H138	H	0.401152	0.913662	-0.017910
H139	H	0.298600	1.094570	-0.577439
H140	H	0.116426	0.731497	0.006136
H141	H	0.281376	1.037824	-0.388489
O142	O	0.664342	0.134469	-0.053924
H143	H	0.622809	0.142906	-0.113394
O144	O	0.841567	0.446281	-0.400209
H145	H	0.868247	0.390046	-0.312458
O146	O	1.242490	0.116133	0.073821
H147	H	1.239326	0.058180	0.106196
O148	O	0.652136	0.223658	0.528436
H149	H	0.675164	0.192964	0.480679
O150	O	1.262273	0.181116	0.557230
H151	H	1.257774	0.214350	0.468930
H152	H	1.225079	0.134224	0.748712
H153	H	0.785829	1.060535	-0.554380
O154	O	0.393153	0.802640	-0.042228
H155	H	0.453724	0.785274	-0.030468
H156	H	0.616042	0.827705	-0.633318
H157	H	0.617831	0.820940	-0.476662
O158	O	1.262283	0.181079	0.202096
H159	H	1.306591	0.128225	0.190598
O160	O	0.438172	1.035358	-0.622419
H161	H	0.379552	1.089202	-0.686524
H162	H	1.088025	0.201680	0.766169
H163	H	0.853660	0.882059	-0.195606
O164	O	0.948225	0.335683	0.597213
H165	H	0.952724	0.302425	0.685511
O166	O	0.261395	1.047695	-0.030852
H167	H	0.217087	1.100541	-0.019345
H168	H	0.555482	0.902892	-0.423410
O169	O	0.687634	0.885237	-0.420633
H170	H	0.659823	0.920120	-0.510035
H171	H	0.407246	0.497264	0.165126
H172	H	0.435730	1.027050	0.205985
O173	O	0.866502	0.226458	0.235398
H174	H	0.904484	0.152433	0.289794
O175	O	0.575480	0.893041	0.218907
H176	H	0.570997	0.926295	0.262060
H177	H	0.886515	-0.104777	0.264125
H178	H	0.298649	1.094561	0.096980
H179	H	0.708389	0.821258	-0.480609
H180	H	0.880258	-0.220137	0.255208
H181	H	1.087949	0.201728	-0.034749
O182	O	0.657167	0.002295	-0.064122
H183	H	0.619166	0.076320	-0.118506
H184	H	0.643405	0.448893	-0.083932
O185	O	0.621595	0.340808	-0.115158
H186	H	0.628522	0.281290	-0.105249
H187	H	0.533243	0.488461	0.171103
H188	H	0.129564	0.446854	0.199318
O189	O	-0.028893	0.762306	-0.014767
H190	H	-0.033963	0.800150	0.021815
O191	O	0.248792	0.812727	-0.048985
H192	H	0.201102	0.802924	-0.042349
H193	H	0.255572	0.438049	0.205278
H194	H	1.122525	0.315096	0.189176
O195	O	0.948198	0.335739	-0.047673
H196	H	0.952683	0.302512	-0.090864
