data_functionalizedCrystal
_audit_creation_method	'MofGen! by Chris Wilmer'
_symmetry_space_group_name_H-M	'P1'
_symmetry_Int_Tables_number	1
_symmetry_cell_setting	triclinic
loop_
_symmetry_equiv_pos_as_xyz
  x,y,z
_cell_length_a	14.044220
_cell_length_b	14.044220
_cell_length_c	12.503567
_cell_angle_alpha	86.159322
_cell_angle_beta	93.840205
_cell_angle_gamma	93.188878
loop_
_atom_site_label
_atom_site_type_symbol
_atom_site_fract_x
_atom_site_fract_y
_atom_site_fract_z
O1	O	-1.282207	-0.225120	-0.089210
O2	O	-1.032207	0.024880	0.160790
O3	O	-0.782207	0.274880	0.410790
O4	O	-0.532207	0.524880	0.660790
O5	O	-1.005537	-0.216813	-0.089237
O6	O	-0.755537	0.033187	0.160763
O7	O	-0.505537	0.283187	0.410763
O8	O	-0.255537	0.533187	0.660763
O9	O	-1.139719	-0.082631	-0.089214
O10	O	-0.889719	0.167369	0.160786
O11	O	-0.639719	0.417369	0.410786
O12	O	-0.389719	0.667369	0.660786
O13	O	-1.148026	-0.359302	-0.089234
O14	O	-0.898026	-0.109302	0.160766
O15	O	-0.648026	0.140698	0.410766
O16	O	-0.398026	0.390698	0.660766
O17	O	-1.129615	-0.092733	0.089427
O18	O	-0.879615	0.157267	0.339427
O19	O	-0.629615	0.407267	0.589427
O20	O	-0.379615	0.657267	0.839427
O21	O	-0.995433	-0.226915	0.089403
O22	O	-0.745433	0.023085	0.339403
O23	O	-0.495433	0.273085	0.589403
O24	O	-0.245433	0.523085	0.839403
O25	O	-1.272103	-0.235222	0.089430
O26	O	-1.022103	0.014778	0.339430
O27	O	-0.772103	0.264778	0.589430
O28	O	-0.522103	0.514778	0.839430
Cu29	Cu	-1.132846	-0.231991	0.105728
Cu30	Cu	-0.882846	0.018009	0.355728
Cu31	Cu	-0.632846	0.268009	0.605728
Cu32	Cu	-0.382846	0.518009	0.855728
Cu33	Cu	-1.144795	-0.220044	-0.105535
Cu34	Cu	-0.894795	0.029956	0.144465
Cu35	Cu	-0.644795	0.279956	0.394465
Cu36	Cu	-0.394795	0.529956	0.644465
O37	O	-1.137922	-0.369403	0.089407
O38	O	-0.887922	-0.119403	0.339407
O39	O	-0.637922	0.130597	0.589407
O40	O	-0.387922	0.380597	0.839407
C41	C	-0.964864	-0.218228	0.000080
C42	C	-0.714864	0.031772	0.250080
C43	C	-0.464864	0.281772	0.500080
C44	C	-0.214864	0.531772	0.750080
C45	C	-0.858721	-0.207383	0.000070
C46	C	-0.608721	0.042617	0.250070
C47	C	-0.358721	0.292617	0.500070
C48	C	-0.108721	0.542617	0.750070
C49	C	-1.131031	-0.052060	0.000107
C50	C	-0.881031	0.197940	0.250107
C51	C	-0.631031	0.447940	0.500107
C52	C	-0.381031	0.697940	0.750107
C53	C	-1.120187	0.054082	0.000107
C54	C	-0.870187	0.304082	0.250107
C55	C	-0.620187	0.554082	0.500107
C56	C	-0.370187	0.804082	0.750107
C57	C	-1.146609	-0.399974	0.000084
C58	C	-0.896609	-0.149974	0.250084
C59	C	-0.646609	0.100026	0.500084
C60	C	-0.396609	0.350026	0.750084
C61	C	-1.157454	-0.506117	0.000077
C62	C	-0.907454	-0.256117	0.250077
C63	C	-0.657454	-0.006117	0.500077
C64	C	-0.407454	0.243883	0.750077
C65	C	-1.312777	-0.233807	0.000111
C66	C	-1.062777	0.016193	0.250111
C67	C	-0.812777	0.266193	0.500111
C68	C	-0.562777	0.516193	0.750111
C69	C	-1.418920	-0.244651	0.000114
C70	C	-1.168920	0.005349	0.250114
C71	C	-0.918920	0.255349	0.500114
C72	C	-0.668920	0.505349	0.750114
C73	C	-0.664382	-0.187558	0.000092
C74	C	-0.414382	0.062442	0.250092
C75	C	-0.164382	0.312442	0.500092
C76	C	0.085618	0.562442	0.750092
C77	C	-0.613253	-0.264472	0.000091
C78	C	-0.363253	-0.014472	0.250091
C79	C	-0.113253	0.235528	0.500091
C80	C	0.136747	0.485528	0.750091
C81	C	-0.505116	-0.253441	0.000104
C82	C	-0.255116	-0.003441	0.250104
C83	C	-0.005116	0.246559	0.500104
C84	C	0.244884	0.496559	0.750104
C85	C	-0.772529	-0.198587	0.000080
C86	C	-0.522529	0.051413	0.250080
C87	C	-0.272529	0.301413	0.500080
C88	C	-0.022529	0.551413	0.750080
N89	N	-1.124448	-0.240393	0.254319
N90	N	-0.874448	0.009607	0.504319
N91	N	-0.624448	0.259607	0.754319
N92	N	-0.374448	0.509607	1.004319
C93	C	-1.100361	0.248421	0.000090
C94	C	-0.850361	0.498421	0.250090
C95	C	-0.600361	0.748421	0.500090
C96	C	-0.350361	0.998421	0.750090
C97	C	-1.177275	0.299551	0.000094
C98	C	-0.927275	0.549551	0.250094
C99	C	-0.677275	0.799551	0.500094
C100	C	-0.427275	1.049551	0.750094
C101	C	-1.166244	0.407687	0.000084
C102	C	-0.916244	0.657687	0.250084
C103	C	-0.666244	0.907687	0.500084
C104	C	-0.416244	1.157687	0.750084
C105	C	-1.111391	0.140274	0.000099
C106	C	-0.861391	0.390274	0.250099
C107	C	-0.611391	0.640274	0.500099
C108	C	-0.361391	0.890274	0.750099
C109	C	-1.165542	-0.199282	0.526760
C110	C	-0.915542	0.050718	0.776760
C111	C	-0.665542	0.300718	1.026760
C112	C	-0.415542	0.550718	1.276760
C113	C	-1.112104	-0.252754	0.473426
C114	C	-0.862104	-0.002754	0.723426
C115	C	-0.612104	0.247246	0.973426
C116	C	-0.362104	0.497246	1.223426
C117	C	-1.118974	-0.245875	0.351504
C118	C	-0.868974	0.004125	0.601504
C119	C	-0.618974	0.254125	0.851504
C120	C	-0.368974	0.504125	1.101504
C121	C	-1.158673	-0.206160	0.648693
C122	C	-0.908673	0.043840	0.898693
C123	C	-0.658673	0.293840	1.148693
C124	C	-0.408673	0.543840	1.398693
N125	N	-1.153195	-0.211646	0.745874
N126	N	-0.903195	0.038354	0.995874
N127	N	-0.653195	0.288354	1.245874
N128	N	-0.403195	0.538354	1.495874
H129	H	-0.650692	-0.338605	0.000081
H130	H	-0.400692	-0.088605	0.250081
H131	H	-0.150692	0.161395	0.500081
H132	H	0.099308	0.411395	0.750081
H133	H	-0.626945	-0.113431	0.000104
H134	H	-0.376945	0.136569	0.250104
H135	H	-0.126945	0.386569	0.500104
H136	H	0.123055	0.636569	0.750104
H137	H	-1.026234	0.285859	0.000080
H138	H	-0.776234	0.535859	0.250080
H139	H	-0.526234	0.785859	0.500080
H140	H	-0.276234	1.035859	0.750080
H141	H	-1.251413	0.262115	0.000029
H142	H	-1.001413	0.512115	0.250029
H143	H	-0.751413	0.762115	0.500029
H144	H	-0.501413	1.012115	0.750029
H145	H	-1.061194	-0.303701	0.519333
H146	H	-0.811194	-0.053701	0.769333
H147	H	-0.561194	0.196299	1.019333
H148	H	-0.311194	0.446299	1.269333
H149	H	-1.216450	-0.148340	0.480859
H150	H	-0.966450	0.101660	0.730859
H151	H	-0.716450	0.351660	0.980859
H152	H	-0.466450	0.601660	1.230859
