data_functionalizedCrystal
_audit_creation_method	'MofGen! by Chris Wilmer'
_symmetry_space_group_name_H-M	'P1'
_symmetry_Int_Tables_number	1
_symmetry_cell_setting	triclinic
loop_
_symmetry_equiv_pos_as_xyz
  x,y,z
_cell_length_a	23.532407
_cell_length_b	14.519709
_cell_length_c	12.996460
_cell_angle_alpha	89.999966
_cell_angle_beta	89.989202
_cell_angle_gamma	96.735588
loop_
_atom_site_label
_atom_site_type_symbol
_atom_site_fract_x
_atom_site_fract_y
_atom_site_fract_z
O1	O	0.074654	-1.222985	-0.085444
O2	O	0.407987	-0.889652	0.247889
O3	O	0.741321	-0.556319	0.581223
O4	O	0.083445	-0.954405	-0.085477
O5	O	0.416779	-0.621071	0.247857
O6	O	0.750112	-0.287738	0.581190
O7	O	-0.003845	-1.096794	-0.085440
O8	O	0.329488	-0.763461	0.247893
O9	O	0.662821	-0.430127	0.581226
O10	O	0.161945	-1.080596	-0.085480
O11	O	0.495278	-0.747263	0.247853
O12	O	0.828611	-0.413929	0.581187
O13	O	-0.003850	-1.096779	0.085693
O14	O	0.329483	-0.763446	0.419027
O15	O	0.662816	-0.430113	0.752360
O16	O	0.083441	-0.954390	0.085657
O17	O	0.416774	-0.621057	0.418991
O18	O	0.750107	-0.287723	0.752324
O19	O	0.074649	-1.222971	0.085690
O20	O	0.407982	-0.889637	0.419023
O21	O	0.741316	-0.556304	0.752357
Cu22	Cu	0.079044	-1.088679	0.101299
Cu23	Cu	0.412378	-0.755346	0.434633
Cu24	Cu	0.745711	-0.422012	0.767966
Cu25	Cu	0.079050	-1.088696	-0.101086
Cu26	Cu	0.412383	-0.755363	0.232247
Cu27	Cu	0.745717	-0.422030	0.565581
O28	O	0.161940	-1.080581	0.085654
O29	O	0.495273	-0.747248	0.418987
O30	O	0.828607	-0.413915	0.752320
C31	C	0.083033	-0.920042	0.000086
C32	C	0.416367	-0.586709	0.333420
C33	C	0.749700	-0.253376	0.666753
C34	C	0.081805	-0.817676	0.000075
C35	C	0.415139	-0.484342	0.333408
C36	C	0.748472	-0.151009	0.666741
C37	C	-0.025066	-1.096374	0.000129
C38	C	0.308268	-0.763041	0.333462
C39	C	0.641601	-0.429708	0.666796
C40	C	-0.088288	-1.095134	0.000137
C41	C	0.245045	-0.761801	0.333470
C42	C	0.578378	-0.428467	0.666804
C43	C	0.075061	-1.257333	0.000125
C44	C	0.408395	-0.924000	0.333458
C45	C	0.741728	-0.590666	0.666791
C46	C	0.076289	-1.359700	0.000130
C47	C	0.409622	-1.026366	0.333463
C48	C	0.742956	-0.693033	0.666796
C49	C	-0.487046	-1.171619	0.000090
C50	C	-0.153713	-0.838285	0.333423
C51	C	0.179620	-0.504952	0.666756
C52	C	-0.546452	-1.170467	0.000082
C53	C	-0.213119	-0.837133	0.333415
C54	C	0.120215	-0.503800	0.666748
O55	O	-0.582876	-1.241369	0.000052
O56	O	-0.249543	-0.908035	0.333386
O57	O	0.083790	-0.574702	0.666719
N58	N	-0.569460	-1.085816	0.000072
N59	N	-0.236127	-0.752483	0.333406
N60	N	0.097207	-0.419149	0.666739
C61	C	-0.533059	-1.002312	0.000060
C62	C	-0.199726	-0.668979	0.333393
C63	C	0.133608	-0.335646	0.666727
O64	O	-0.558084	-0.930205	0.000050
O65	O	-0.224751	-0.596871	0.333384
O66	O	0.108583	-0.263538	0.666717
C67	C	-0.473655	-1.003465	0.000061
C68	C	-0.140321	-0.670132	0.333394
C69	C	0.193012	-0.336799	0.666727
C70	C	-0.450650	-1.088121	0.000081
C71	C	-0.117317	-0.754788	0.333414
C72	C	0.216016	-0.421455	0.666747
C73	C	-0.464041	-1.256268	0.000109
C74	C	-0.130708	-0.922935	0.333442
C75	C	0.202625	-0.589601	0.666775
C76	C	-0.404640	-1.257420	0.000119
C77	C	-0.071307	-0.924086	0.333452
C78	C	0.262027	-0.590753	0.666785
C79	C	-0.368244	-1.173922	0.000110
C80	C	-0.034910	-0.840589	0.333443
C81	C	0.298423	-0.507255	0.666776
C82	C	-0.391249	-1.089273	0.000091
C83	C	-0.057916	-0.755940	0.333424
C84	C	0.275418	-0.422606	0.666757
C85	C	-0.437255	-0.919962	0.000041
C86	C	-0.103922	-0.586629	0.333375
C87	C	0.229412	-0.253296	0.666708
C88	C	-0.377847	-0.921123	0.000041
C89	C	-0.044514	-0.587789	0.333374
C90	C	0.288819	-0.254456	0.666708
C91	C	-0.354843	-1.005779	0.000061
C92	C	-0.021509	-0.672445	0.333394
C93	C	0.311824	-0.339112	0.666728
C94	C	-0.295451	-1.006927	0.000091
C95	C	0.037882	-0.673594	0.333425
C96	C	0.371215	-0.340260	0.666758
N97	N	-0.272443	-1.091578	0.000101
N98	N	0.060890	-0.758244	0.333434
N99	N	0.394223	-0.424911	0.666768
C100	C	-0.308839	-1.175075	0.000110
C101	C	0.024494	-0.841742	0.333443
C102	C	0.357827	-0.508408	0.666777
C103	C	-0.657813	-0.999897	0.000057
C104	C	-0.324479	-0.666564	0.333390
C105	C	0.008854	-0.333231	0.666724
C106	C	-0.717216	-0.998743	0.000064
C107	C	-0.383882	-0.665410	0.333397
C108	C	-0.050549	-0.332077	0.666731
C109	C	-0.730604	-1.166898	0.000084
C110	C	-0.397271	-0.833565	0.333417
C111	C	-0.063938	-0.500231	0.666750
C112	C	-0.671200	-1.168051	0.000084
C113	C	-0.337867	-0.834718	0.333418
C114	C	-0.004533	-0.501384	0.666751
C115	C	-0.634804	-1.084548	0.000067
C116	C	-0.301471	-0.751214	0.333400
C117	C	0.031862	-0.417881	0.666733
C118	C	-0.184092	-1.177487	0.000132
C119	C	0.149242	-0.844154	0.333465
C120	C	0.482575	-0.510821	0.666798
C121	C	-0.124685	-1.178632	0.000146
C122	C	0.208649	-0.845298	0.333479
C123	C	0.541982	-0.511965	0.666813
C124	C	-0.111301	-1.010477	0.000121
C125	C	0.222032	-0.677144	0.333454
C126	C	0.555366	-0.343811	0.666787
C127	C	-0.170703	-1.009332	0.000112
C128	C	0.162630	-0.675999	0.333445
C129	C	0.495964	-0.342666	0.666779
C130	C	-0.207098	-1.092845	0.000114
C131	C	0.126236	-0.759512	0.333447
C132	C	0.459569	-0.426178	0.666781
O133	O	-0.258992	-0.936062	0.000117
O134	O	0.074341	-0.602729	0.333450
O135	O	0.407675	-0.269396	0.666783
O136	O	-0.283806	-1.247171	0.000106
O137	O	0.049527	-0.913838	0.333440
O138	O	0.382860	-0.580504	0.666773
C139	C	0.183160	-1.081001	0.000082
C140	C	0.516494	-0.747668	0.333415
C141	C	0.849827	-0.414334	0.666749
C142	C	0.246383	-1.082241	0.000067
C143	C	0.579716	-0.748908	0.333401
C144	C	0.913050	-0.415575	0.666734
N145	N	0.079040	-1.088673	0.243647
N146	N	0.412373	-0.755340	0.576980
N147	N	0.745707	-0.422007	0.910313
C148	C	0.077286	-0.442833	0.000123
C149	C	0.410619	-0.109500	0.333456
C150	C	0.743952	0.223833	0.666789
C151	C	0.078541	-0.547126	0.000109
C152	C	0.411874	-0.213793	0.333442
C153	C	0.745207	0.119540	0.666776
C154	C	0.079545	-0.630251	0.000098
C155	C	0.412879	-0.296918	0.333431
C156	C	0.746212	0.036416	0.666764
C157	C	0.080801	-0.734551	0.000086
C158	C	0.414134	-0.401217	0.333419
C159	C	0.747467	-0.067884	0.666753
N160	N	0.079050	-1.088709	-0.243433
N161	N	0.412383	-0.755376	0.089900
N162	N	0.745717	-0.422043	0.423233
C163	C	0.079051	-1.088695	0.663461
C164	C	0.412384	-0.755362	0.996794
C165	C	0.745717	-0.422028	1.330128
C166	C	0.079050	-1.088686	0.546656
C167	C	0.412383	-0.755353	0.879989
C168	C	0.745716	-0.422020	1.213322
C169	C	0.079046	-1.088685	0.453557
C170	C	0.412379	-0.755351	0.786891
C171	C	0.745712	-0.422018	1.120224
C172	C	0.079044	-1.088675	0.336745
C173	C	0.412377	-0.755342	0.670078
C174	C	0.745711	-0.422008	1.003412
H175	H	-0.105958	-1.247572	0.000165
H176	H	0.227375	-0.914238	0.333498
H177	H	0.560709	-0.580905	0.666831
Cl178	Cl	-0.776371	-1.271867	0.000088
Cl179	Cl	-0.443037	-0.938534	0.333421
Cl180	Cl	-0.109704	-0.605201	0.666754
H181	H	-0.652474	-1.236985	0.000100
H182	H	-0.319141	-0.903652	0.333433
H183	H	0.014192	-0.570319	0.666766
H184	H	-0.735940	-0.929808	0.000065
H185	H	-0.402607	-0.596475	0.333399
H186	H	-0.069274	-0.263141	0.666732
H187	H	-0.348216	-0.853122	0.000025
H188	H	-0.014883	-0.519789	0.333359
H189	H	0.318450	-0.186456	0.666692
H190	H	-0.628182	-0.931894	0.000052
H191	H	-0.294848	-0.598561	0.333385
H192	H	0.038485	-0.265228	0.666718
H193	H	-0.455975	-0.851027	0.000019
H194	H	-0.122641	-0.517693	0.333352
H195	H	0.210692	-0.184360	0.666685
H196	H	-0.081657	-0.942496	0.000117
H197	H	0.251676	-0.609163	0.333450
H198	H	0.585010	-0.275829	0.666784
Cl199	Cl	-0.229836	-1.282476	0.000136
Cl200	Cl	0.103498	-0.949143	0.333469
Cl201	Cl	0.436831	-0.615809	0.666803
H202	H	-0.189434	-0.940399	0.000124
H203	H	0.143899	-0.607065	0.333458
H204	H	0.477232	-0.273732	0.666791
H205	H	-0.385915	-1.326355	0.000131
H206	H	-0.052582	-0.993022	0.333464
H207	H	0.280751	-0.659688	0.666797
H208	H	-0.493670	-1.324266	0.000112
H209	H	-0.160336	-0.990932	0.333446
H210	H	0.172997	-0.657599	0.666779
