data_functionalizedCrystal
_audit_creation_method	'MofGen! by Chris Wilmer'
_symmetry_space_group_name_H-M	'P1'
_symmetry_Int_Tables_number	1
_symmetry_cell_setting	triclinic
loop_
_symmetry_equiv_pos_as_xyz
  x,y,z
_cell_length_a	14.971486
_cell_length_b	14.971486
_cell_length_c	13.448316
_cell_angle_alpha	90.001801
_cell_angle_beta	89.993189
_cell_angle_gamma	96.385871
loop_
_atom_site_label
_atom_site_type_symbol
_atom_site_fract_x
_atom_site_fract_y
_atom_site_fract_z
O1	O	0.116565	-1.186947	-0.082578
O2	O	0.130524	-0.926547	-0.082605
O3	O	-0.006656	-1.063727	-0.082584
O4	O	0.253744	-1.049768	-0.082599
O5	O	-0.006664	-1.063709	0.082800
O6	O	0.130515	-0.926530	0.082779
O7	O	0.116556	-1.186930	0.082806
Cu8	Cu	0.123535	-1.056728	0.097893
Cu9	Cu	0.123545	-1.056749	-0.097692
O10	O	0.253736	-1.049751	0.082784
C11	C	-0.039985	-1.063094	0.000108
C12	C	-0.139282	-1.061223	0.000107
C13	C	0.129895	-0.893214	0.000083
C14	C	0.128024	-0.793917	0.000073
C15	C	0.117185	-1.220263	0.000115
C16	C	0.119056	-1.319561	0.000119
C17	C	-0.196507	-1.141812	0.000116
C18	C	-0.289807	-1.140049	0.000106
C19	C	-0.325879	-1.057696	0.000093
C20	C	-0.268646	-0.977101	0.000081
C21	C	-0.175349	-0.978865	0.000084
C22	C	-0.463109	-0.973430	0.000077
C23	C	-0.556413	-0.971665	0.000076
C24	C	-0.577567	-1.134614	0.000099
C25	C	-0.484269	-1.136378	0.000102
C26	C	-0.427043	-1.055782	0.000091
C27	C	0.287065	-1.050384	0.000091
C28	C	0.386362	-1.052254	0.000085
N29	N	0.123527	-1.056721	0.235457
C30	C	0.208614	-0.736692	0.000070
C31	C	0.206850	-0.643392	0.000085
C32	C	0.124497	-0.607320	0.000096
C33	C	0.043902	-0.664552	0.000102
C34	C	0.045666	-0.757850	0.000095
C35	C	0.040231	-0.470090	0.000116
C36	C	0.038466	-0.376786	0.000122
C37	C	0.201415	-0.355632	0.000106
C38	C	0.203179	-0.448930	0.000099
C39	C	0.122584	-0.506156	0.000103
N40	N	0.123545	-1.056764	-0.235257
C41	C	0.062809	-1.117483	0.287507
C42	C	0.062809	-1.117488	0.391610
C43	C	0.123531	-1.056735	0.443662
C44	C	0.184252	-0.995967	0.391605
C45	C	0.184248	-0.995958	0.287504
C46	C	0.184258	-0.995992	0.608585
C47	C	0.184264	-0.996002	0.712693
C48	C	0.062819	-1.117522	0.712692
C49	C	0.062815	-1.117513	0.608591
C50	C	0.123537	-1.056745	0.556541
H51	H	-0.336396	-1.205673	0.000115
H52	H	-0.128756	-0.913240	0.000077
O53	O	-0.002670	-1.183043	0.447742
H54	H	-0.072422	-1.171594	0.427767
H55	H	-0.028593	-0.347419	0.000133
O56	O	0.288345	-0.293913	0.000107
H57	H	0.327752	-0.306760	0.067505
H58	H	-0.585780	-0.904606	0.000082
O59	O	-0.157611	-1.230642	0.000123
H60	H	-0.115625	-1.235346	0.067536
H61	H	-0.025399	-0.516682	0.000121
H62	H	-0.454903	-1.203437	0.000119
O63	O	-0.639281	-1.221547	0.000100
H64	H	-0.710218	-1.206488	0.000082
O65	O	-0.002682	-1.183033	0.552445
H66	H	0.008821	-1.252773	0.572412
H67	H	0.233702	-0.946505	0.566209
H68	H	-0.416517	-0.907800	0.000066
H69	H	-0.298024	-0.910047	0.000065
O70	O	0.293772	-0.581669	0.000085
H71	H	0.333177	-0.594492	-0.067333
H72	H	0.233689	-0.946478	0.245125
O73	O	0.297438	-0.775597	0.000067
H74	H	0.353180	-0.720127	0.000081
H75	H	0.270239	-0.478296	0.000080
H76	H	0.013377	-1.167001	0.755077
H77	H	0.233709	-0.946530	0.755069
H78	H	-0.023152	-0.635175	0.000126
O79	O	-0.041254	-0.819579	0.000095
H80	H	-0.098817	-0.778823	0.000095
O81	O	-0.002688	-1.183006	0.231367
H82	H	-0.044916	-1.225251	0.285054
O83	O	0.249755	-0.930445	0.447739
H84	H	0.212040	-0.886943	0.495193
