data_functionalizedCrystal
_audit_creation_method	'MofGen! by Chris Wilmer'
_symmetry_space_group_name_H-M	'P1'
_symmetry_Int_Tables_number	1
_symmetry_cell_setting	triclinic
loop_
_symmetry_equiv_pos_as_xyz
  x,y,z
_cell_length_a	15.944551
_cell_length_b	23.532407
_cell_length_c	15.021413
_cell_angle_alpha	89.999348
_cell_angle_beta	89.997174
_cell_angle_gamma	83.173708
loop_
_atom_site_label
_atom_site_type_symbol
_atom_site_fract_x
_atom_site_fract_y
_atom_site_fract_z
O1	O	1.113910	0.073442	-0.073949
O2	O	0.869284	0.082498	-0.073972
O3	O	0.998974	-0.004933	-0.073943
O4	O	0.984220	0.160873	-0.073977
O5	O	0.998953	-0.004921	0.074121
O6	O	0.869263	0.082510	0.074092
O7	O	1.113889	0.073455	0.074116
Zn8	Zn	0.991573	0.077985	0.097612
Zn9	Zn	0.991600	0.077968	-0.097469
O10	O	0.984200	0.160886	0.074087
C11	C	0.837983	0.082128	0.000057
C12	C	0.744746	0.081001	0.000049
C13	C	0.530369	0.024113	0.000078
C14	C	0.469137	0.050524	-0.072931
C15	C	0.574038	0.078962	0.000060
C16	C	0.469138	0.050549	0.073049
C17	C	0.409142	0.076989	0.000075
C18	C	0.514033	0.105388	-0.073009
C19	C	0.514041	0.105405	0.073036
C20	C	0.452826	0.131856	0.000010
C21	C	0.669030	0.080097	0.000051
C22	C	0.314150	0.075858	0.000077
C23	C	0.998588	-0.026144	0.000091
C24	C	0.997458	-0.089366	0.000098
C25	C	1.067121	-0.488199	0.000056
C26	C	1.066072	-0.547603	0.000049
O27	O	1.130650	-0.584098	0.000022
N28	N	0.988971	-0.570528	0.000042
C29	C	0.912915	-0.534045	0.000033
O30	O	0.847239	-0.558999	0.000026
C31	C	0.913965	-0.474642	0.000034
C32	C	0.991071	-0.451721	0.000049
C33	C	1.144220	-0.465277	0.000070
C34	C	1.145269	-0.405877	0.000079
C35	C	1.069219	-0.369399	0.000073
C36	C	0.992120	-0.392320	0.000058
C37	C	0.837910	-0.438160	0.000018
C38	C	0.838967	-0.378754	0.000018
C39	C	0.916072	-0.355832	0.000034
C40	C	0.917118	-0.296442	0.000060
N41	N	0.994219	-0.273517	0.000067
C42	C	1.070269	-0.309995	0.000073
C43	C	0.910716	-0.658796	0.000031
C44	C	0.909664	-0.718198	0.000037
C45	C	1.062821	-0.731752	0.000050
C46	C	1.063872	-0.672349	0.000051
C47	C	0.987816	-0.635871	0.000037
C48	C	1.072466	-0.185250	0.000092
C49	C	1.073508	-0.125844	0.000104
C50	C	0.920352	-0.112295	0.000085
C51	C	0.919309	-0.171696	0.000078
C52	C	0.995373	-0.208173	0.000078
O53	O	0.852574	-0.259913	0.000083
O54	O	1.135935	-0.285033	0.000069
C55	C	1.145190	0.073824	0.000084
C56	C	1.238427	0.074951	0.000087
C57	C	0.984586	0.182097	0.000051
C58	C	0.985715	0.245318	0.000038
N59	N	0.991561	0.077995	0.230750
N60	N	0.991619	0.077953	-0.230606
C61	C	0.931583	0.118404	0.470420
C62	C	1.007390	0.129461	0.529759
C63	C	0.991582	0.077981	0.412357
C64	C	0.915796	0.066938	0.529760
C65	C	0.991596	0.077969	0.587781
C66	C	1.067428	0.089063	0.470389
C67	C	0.975783	0.026518	0.470385
C68	C	1.051645	0.037552	0.529697
C69	C	0.991573	0.077990	0.311300
C70	C	0.991614	0.077960	0.688836
H71	H	1.134405	-0.214943	0.000089
O72	O	0.826498	-0.742914	0.000031
H73	H	0.822341	-0.769651	0.060381
O74	O	0.756930	-0.339413	0.000008
H75	H	0.770606	-0.294253	0.000009
H76	H	0.419284	0.177423	-0.000040
H77	H	0.449239	0.027346	0.134770
O78	O	0.958044	-0.031107	0.435803
H79	H	0.900176	-0.025667	0.394109
O80	O	0.864436	0.163717	0.435940
H81	H	0.864625	0.163052	0.362056
O82	O	0.540460	0.136114	0.154782
H83	H	0.522704	0.113261	0.215302
H84	H	0.858434	-0.082584	0.000084
O85	O	1.228437	-0.381163	0.000071
H86	H	1.264958	-0.395823	0.060412
O87	O	1.156675	-0.101120	0.000107
H88	H	1.209378	-0.136470	0.000097
O89	O	0.830896	0.054564	0.564306
H90	H	0.781202	0.088182	0.540556
H91	H	1.102446	0.003360	0.555561
H92	H	1.206153	-0.494973	0.000072
H93	H	0.775123	-0.456812	0.000000
H94	H	1.126658	-0.653691	0.000063
O95	O	0.540269	0.136067	-0.154874
H96	H	0.571506	0.173715	-0.134452
O97	O	1.144852	-0.771102	0.000048
H98	H	1.131161	-0.816258	0.000034
O99	O	0.828680	-0.619452	0.000040
H100	H	0.774897	-0.645378	0.000046
O101	O	0.836149	-0.196425	0.000064
H102	H	0.783444	-0.161076	0.000057
H103	H	1.131539	0.098450	0.444420
O104	O	0.574964	-0.036201	0.000031
H105	H	0.557095	-0.058843	-0.060647
O106	O	0.442751	0.019791	-0.154674
H107	H	0.474112	-0.024919	-0.154515
O108	O	1.025085	0.187094	0.564361
H109	H	0.975182	0.220581	0.540645
