data_functionalizedCrystal
_audit_creation_method	'MofGen! by Chris Wilmer'
_symmetry_space_group_name_H-M	'P1'
_symmetry_Int_Tables_number	1
_symmetry_cell_setting	triclinic
loop_
_symmetry_equiv_pos_as_xyz
  x,y,z
_cell_length_a	16.959455
_cell_length_b	19.121063
_cell_length_c	19.120904
_cell_angle_alpha	94.741613
_cell_angle_beta	92.424031
_cell_angle_gamma	92.465894
loop_
_atom_site_label
_atom_site_type_symbol
_atom_site_fract_x
_atom_site_fract_y
_atom_site_fract_z
Zn1	Zn	1.174411	-0.297166	-0.409752
Zn2	Zn	1.674411	0.202834	0.090248
Zn3	Zn	1.174314	-0.409813	-0.297103
Zn4	Zn	1.674314	0.090187	0.202897
Zn5	Zn	1.048126	-0.292160	-0.292107
Zn6	Zn	1.548126	0.207840	0.207893
Zn7	Zn	1.036301	-0.414786	-0.414726
Zn8	Zn	1.536301	0.085214	0.085274
O9	O	1.108288	-0.353481	-0.353422
O10	O	1.608288	0.146519	0.146578
O11	O	1.285008	-0.312122	-0.394819
O12	O	1.785008	0.187878	0.105181
O13	O	1.162482	-0.390030	-0.197980
O14	O	1.662482	0.109970	0.302020
O15	O	1.069867	-0.194362	-0.303541
O16	O	1.569867	0.305638	0.196459
O17	O	1.284936	-0.394883	-0.312056
O18	O	1.784936	0.105117	0.187944
O19	O	1.162649	-0.198039	-0.389974
O20	O	1.662649	0.301961	0.110026
O21	O	1.069772	-0.303591	-0.194309
O22	O	1.569772	0.196409	0.305691
O23	O	0.935947	-0.308414	-0.308363
O24	O	1.435947	0.191586	0.191637
O25	O	1.049714	-0.403360	-0.512526
O26	O	1.549714	0.096640	-0.012526
O27	O	0.927260	-0.398506	-0.398451
O28	O	1.427260	0.101494	0.101549
O29	O	1.151183	-0.316944	-0.508872
O30	O	1.651183	0.183056	-0.008872
O31	O	1.151016	-0.508935	-0.316878
O32	O	1.651016	-0.008935	0.183122
O33	O	1.049619	-0.512589	-0.403295
O34	O	1.549619	-0.012589	0.096705
C35	C	0.902924	-0.353457	-0.353405
C36	C	1.402924	0.146543	0.146595
C37	C	0.815066	-0.353465	-0.353415
C38	C	1.315066	0.146535	0.146585
C39	C	0.448086	-0.306537	-0.306606
C40	C	0.948086	0.193463	0.193394
C41	C	0.439088	-0.400485	-0.400281
C42	C	0.939088	0.099515	0.099719
C43	C	0.521635	-0.400475	-0.400276
C44	C	1.021635	0.099525	0.099724
C45	C	0.567411	-0.353496	-0.353435
C46	C	1.067411	0.146504	0.146565
C47	C	0.530640	-0.306527	-0.306598
C48	C	1.030640	0.193473	0.193402
C49	C	0.558412	-0.447447	-0.447107
C50	C	1.058412	0.052553	0.052893
C51	C	0.640963	-0.447439	-0.447104
C52	C	1.140963	0.052561	0.052896
C53	C	0.686741	-0.400456	-0.400265
C54	C	1.186741	0.099544	0.099735
C55	C	0.649965	-0.353485	-0.353427
C56	C	1.149965	0.146515	0.146573
C57	C	0.695741	-0.306506	-0.306586
C58	C	1.195741	0.193494	0.193414
C59	C	0.658967	-0.259531	-0.259751
C60	C	1.158967	0.240469	0.240249
C61	C	0.576418	-0.259544	-0.259760
C62	C	1.076418	0.240456	0.240240
C63	C	0.769290	-0.400444	-0.400256
C64	C	1.269290	0.099556	0.099744
C65	C	0.778296	-0.306496	-0.306578
C66	C	1.278296	0.193504	0.193422
C67	C	1.099045	-0.536293	-0.361184
C68	C	1.599045	-0.036293	0.138816
C69	C	1.095162	-0.614501	-0.364528
C70	C	1.595162	-0.114501	0.135472
C71	C	1.146167	-0.649320	-0.321143
C72	C	1.646167	-0.149320	0.178857
C73	C	1.142519	-0.722805	-0.324293
C74	C	1.642519	-0.222805	0.175707
C75	C	1.087862	-0.761471	-0.370823
C76	C	1.587862	-0.261471	0.129177
C77	C	1.036854	-0.726648	-0.414212
C78	C	1.536854	-0.226648	0.085788
C79	C	1.040506	-0.653164	-0.411066
C80	C	1.540506	-0.153164	0.088934
C81	C	1.074196	-0.983442	-0.382575
C82	C	1.574196	-0.483442	0.117425
C83	C	1.070546	-1.056931	-0.385716
C84	C	1.570546	-0.556931	0.114284
C85	C	1.176212	-1.053083	-0.295797
C86	C	1.676212	-0.553083	0.204203
C87	C	1.179856	-0.979598	-0.292652
C88	C	1.679856	-0.479598	0.207348
C89	C	1.128851	-0.944781	-0.336044
C90	C	1.628851	-0.444781	0.163956
C91	C	1.084130	-0.836585	-0.374041
C92	C	1.584130	-0.336585	0.125959
C93	C	1.132587	-0.869668	-0.332828
C94	C	1.632587	-0.369668	0.167172
C95	C	1.314454	-0.353506	-0.353440
C96	C	1.814454	0.146494	0.146560
C97	C	1.402310	-0.353516	-0.353447
C98	C	1.902310	0.146484	0.146553
C99	C	1.099140	-0.361265	-0.536943
C100	C	1.599140	0.138735	-0.036943
C101	C	1.095242	-0.364582	-0.615149
C102	C	1.595242	0.135418	-0.115149
C103	C	1.117588	-0.169956	-0.345645
C104	C	1.617588	0.330044	0.154355
C105	C	1.121551	-0.091749	-0.342332
C106	C	1.621551	0.408251	0.157668
C107	C	1.146238	-0.321151	-0.649989
C108	C	1.646238	0.178849	-0.149989
C109	C	1.142566	-0.324265	-0.723471
C110	C	1.642566	0.175735	-0.223471
C111	C	1.087901	-0.370814	-0.762112
C112	C	1.587901	0.129186	-0.262112
C113	C	1.036900	-0.414248	-0.727267
C114	C	1.536900	0.085752	-0.227267
C115	C	1.040569	-0.411130	-0.653786
C116	C	1.540569	0.088870	-0.153786
C117	C	1.074177	-0.382477	-0.984073
C118	C	1.574177	0.117523	-0.484073
C119	C	1.070514	-0.385593	-1.057559
C120	C	1.570514	0.114407	-0.557559
C121	C	1.176178	-0.295609	-1.053758
C122	C	1.676178	0.204391	-0.553758
C123	C	1.179846	-0.292498	-0.980276
C124	C	1.679846	0.207502	-0.480276
C125	C	1.128842	-0.335928	-0.945437
C126	C	1.628842	0.164072	-0.445437
C127	C	1.084148	-0.374000	-0.837223
C128	C	1.584148	0.126000	-0.337223
C129	C	1.132592	-0.332739	-0.870327
C130	C	1.632592	0.167261	-0.370327
C131	C	1.117448	-0.345677	-0.170613
C132	C	1.617448	0.154323	0.329387
C133	C	1.121509	-0.342161	-0.092399
C134	C	1.621509	0.157839	0.407601
H135	H	0.546469	-0.221300	-0.221629
H136	H	1.046469	0.278700	0.278371
N137	N	1.202076	-0.273591	-0.610531
N138	N	1.702076	0.226409	-0.110531
N139	N	1.199710	-0.209013	-0.615991
N140	N	1.699710	0.290987	-0.115991
H141	H	1.239145	-0.175420	-0.588127
H142	H	1.739145	0.324580	-0.088127
H143	H	0.696249	-0.221284	-0.221610
H144	H	1.196249	0.278716	0.278390
N145	N	0.678511	-0.495426	-0.494946
N146	N	1.178511	0.004574	0.005054
N147	N	0.637629	-0.537369	-0.536762
N148	N	1.137629	-0.037369	-0.036762
H149	H	0.664147	-0.571259	-0.570552
H150	H	1.164147	-0.071259	-0.070552
H151	H	1.026046	-1.088411	-0.423619
H152	H	1.526046	-0.588411	0.076381
N153	N	1.022070	-0.426833	-0.948497
N154	N	1.522070	0.073167	-0.448497
N155	N	0.948963	-0.422502	-0.956505
N156	N	1.448963	0.077498	-0.456505
H157	H	0.912157	-0.453831	-0.931378
H158	H	1.412157	0.046169	-0.431378
H159	H	1.039627	-0.868075	-0.411925
H160	H	1.539627	-0.368075	0.088075
N161	N	0.410515	-0.258555	-0.258776
N162	N	0.910515	0.241445	0.241224
N163	N	0.336810	-0.258564	-0.258790
N164	N	0.836810	0.241436	0.241210
H165	H	0.310274	-0.224676	-0.225010
H166	H	0.810274	0.275324	0.274990
H167	H	1.224362	-0.948117	-0.254763
H168	H	1.724362	-0.448117	0.245237
N169	N	0.806867	-0.448411	-0.448092
N170	N	1.306867	0.051589	0.051908
N171	N	0.880572	-0.448392	-0.448083
N172	N	1.380572	0.051608	0.051917
H173	H	0.907111	-0.482270	-0.481870
H174	H	1.407111	0.017730	0.018130
H175	H	1.217702	-0.260249	-1.082132
H176	H	1.717702	0.239751	-0.582132
N177	N	1.201997	-0.609837	-0.273603
N178	N	1.701997	-0.109837	0.226397
N179	N	1.247533	-0.640938	-0.234871
N180	N	1.747533	-0.140938	0.265129
H181	H	1.286966	-0.613056	-0.201295
H182	H	1.786966	-0.113056	0.298705
N183	N	1.188418	-0.285180	-0.830859
N184	N	1.688418	0.214820	-0.330859
N185	N	1.164924	-0.238601	-0.787954
N186	N	1.664924	0.261399	-0.287954
H187	H	1.204352	-0.205013	-0.760074
H188	H	1.704352	0.294987	-0.260074
H189	H	0.815561	-0.268235	-0.268438
H190	H	1.315561	0.231765	0.231562
N191	N	0.392321	-0.448470	-0.448116
N192	N	0.892321	0.051530	0.051884
N193	N	0.318617	-0.448475	-0.448113
N194	N	0.818617	0.051525	0.051887
H195	H	0.285584	-0.482365	-0.481899
H196	H	0.785584	0.017635	0.018101
H197	H	1.184052	-0.751151	-0.288964
H198	H	1.684052	-0.251151	0.211036
N199	N	0.988469	-0.455484	-0.618194
N200	N	1.488469	0.044516	-0.118194
N201	N	0.915361	-0.451151	-0.626193
N202	N	1.415361	0.048849	-0.126193
H203	H	0.878560	-0.482475	-0.601056
H204	H	1.378560	0.017525	-0.101056
N205	N	0.981011	-0.766130	-0.461739
N206	N	1.481011	-0.266130	0.038261
N207	N	0.935472	-0.735031	-0.500469
N208	N	1.435472	-0.235031	-0.000469
H209	H	0.896028	-0.762914	-0.534035
H210	H	1.396028	-0.262914	-0.034035
H211	H	0.992389	-0.452147	-0.758735
H212	H	1.492389	0.047853	-0.258735
N213	N	0.511643	-0.495430	-0.494943
N214	N	1.011643	0.004570	0.005057
N215	N	0.437939	-0.495427	-0.494945
N216	N	0.937939	0.004573	0.005055
H217	H	0.404904	-0.529315	-0.528732
H218	H	0.904904	-0.029315	-0.028732
N219	N	1.194662	-0.279895	-0.759048
N220	N	1.694662	0.220105	-0.259048
N221	N	1.243470	-0.238340	-0.724539
N222	N	1.743470	0.261660	-0.224539
H223	H	1.280266	-0.207002	-0.749664
H224	H	1.780266	0.292998	-0.249664
N225	N	1.022103	-0.947890	-0.426907
N226	N	1.522103	-0.447890	0.073093
N227	N	1.023649	-0.958831	-0.492184
N228	N	1.523649	-0.458831	0.007816
H229	H	0.986856	-0.933722	-0.523498
H230	H	1.486856	-0.433722	-0.023498
N231	N	1.028307	-0.421552	-0.876686
N232	N	1.528307	0.078448	-0.376686
N233	N	1.030653	-0.486133	-0.871237
N234	N	1.530653	0.013867	-0.371237
H235	H	0.991207	-0.519713	-0.899105
H236	H	1.491207	-0.019713	-0.399105
N237	N	1.228302	-1.088659	-0.251480
N238	N	1.728302	-0.588659	0.248520
N239	N	1.225036	-1.154269	-0.254292
N240	N	1.725036	-0.654269	0.245708
H241	H	1.261828	-1.179396	-0.222993
H242	H	1.761828	-0.679396	0.277007
N243	N	0.988405	-0.617606	-0.455391
N244	N	1.488405	-0.117606	0.044609
N245	N	0.939609	-0.652135	-0.496935
N246	N	1.439609	-0.152135	0.003065
H247	H	0.902812	-0.627025	-0.528245
H248	H	1.402812	-0.127025	-0.028245
H249	H	1.224361	-0.254594	-0.948819
H250	H	1.724361	0.245406	-0.448819
H251	H	1.177092	-0.838185	-0.294946
H252	H	1.677092	-0.338185	0.205054
H253	H	1.025997	-0.423501	-1.089019
H254	H	1.525997	0.076499	-0.589019
