data_functionalizedCrystal
_audit_creation_method	'MofGen! by Chris Wilmer'
_symmetry_space_group_name_H-M	'P1'
_symmetry_Int_Tables_number	1
_symmetry_cell_setting	triclinic
loop_
_symmetry_equiv_pos_as_xyz
  x,y,z
_cell_length_a	27.731994
_cell_length_b	27.732048
_cell_length_c	7.088929
_cell_angle_alpha	83.823277
_cell_angle_beta	96.156427
_cell_angle_gamma	82.631595
loop_
_atom_site_label
_atom_site_type_symbol
_atom_site_fract_x
_atom_site_fract_y
_atom_site_fract_z
O1	O	0.635953	0.062392	-0.158740
O2	O	0.495153	0.071167	-0.158807
O3	O	0.569927	-0.003620	-0.158735
O4	O	0.561179	0.137178	-0.158812
O5	O	0.579920	-0.013637	0.159250
O6	O	0.505146	0.061150	0.159178
O7	O	0.645946	0.052375	0.159245
Cu8	Cu	0.576458	0.055848	0.188246
Cu9	Cu	0.564641	0.067694	-0.187808
O10	O	0.571172	0.127161	0.159173
C11	C	0.482142	0.065978	0.000178
C12	C	0.428485	0.065437	0.000154
C13	C	0.574740	-0.026635	0.000263
C14	C	0.574188	-0.080290	0.000278
C15	C	0.101216	0.056558	0.173563
C16	C	-0.100441	0.054496	0.173586
O17	O	-0.121881	0.049565	0.320999
N18	N	-0.131103	0.059700	0.000253
C19	C	-0.111348	0.065417	-0.173098
O20	O	-0.142054	0.069791	-0.320528
C21	C	0.090309	0.067476	-0.173119
C22	C	0.120968	0.062276	0.000225
C23	C	0.131875	0.051359	0.346894
C24	C	0.182286	0.051877	0.346886
C25	C	0.202038	0.057595	0.173548
C26	C	0.171379	0.062795	0.000218
C27	C	0.110064	0.073189	-0.346468
C28	C	0.160483	0.073702	-0.346458
C29	C	0.191142	0.068503	-0.173114
C30	C	0.241542	0.069031	-0.173127
N31	N	0.272204	0.063827	0.000206
C32	C	0.252452	0.058109	0.173544
C33	C	-0.217220	0.064337	-0.173075
C34	C	-0.267634	0.063823	-0.173070
C35	C	-0.256724	0.052901	0.173615
C36	C	-0.206310	0.053418	0.173608
C37	C	-0.186558	0.059133	0.000258
C38	C	0.358318	0.059198	0.173515
C39	C	0.408733	0.059719	0.173492
C40	C	0.397819	0.070638	-0.173192
C41	C	0.347408	0.070120	-0.173170
C42	C	0.327660	0.064398	0.000199
O43	O	0.263017	0.073954	-0.320463
O44	O	0.283168	0.053725	0.320952
C45	C	0.050805	0.056040	0.173571
C46	C	0.020147	0.061240	0.000240
C47	C	0.039899	0.066958	-0.173098
C48	C	-0.030268	0.060726	0.000245
C49	C	-0.050020	0.055008	0.173583
C50	C	-0.019358	0.049804	0.346916
C51	C	0.031053	0.050322	0.346909
C52	C	0.009237	0.072162	-0.346431
C53	C	-0.041174	0.071644	-0.346409
C54	C	-0.060926	0.065926	-0.173071
C55	C	0.614890	-0.419111	0.000199
C56	C	0.612838	-0.620769	0.000172
O57	O	0.650058	-0.652030	0.000106
N58	N	0.568501	-0.639884	0.000153
C59	C	0.524674	-0.608580	0.000128
O60	O	0.486915	-0.629464	0.000091
C61	C	0.526726	-0.406922	0.000142
C62	C	0.571066	-0.387811	0.000180
C63	C	0.659227	-0.399999	0.000236
C64	C	0.659740	-0.349588	0.000253
C65	C	0.615916	-0.318288	0.000234
C66	C	0.571579	-0.337400	0.000198
C67	C	0.482898	-0.375619	0.000103
C68	C	0.483415	-0.325201	0.000102
C69	C	0.527756	-0.306090	0.000140
C70	C	0.528268	-0.255689	0.000196
N71	N	0.572605	-0.236574	0.000215
C72	C	0.616429	-0.267874	0.000234
C73	C	0.523600	-0.714454	0.000124
C74	C	0.523087	-0.764868	0.000124
C75	C	0.611251	-0.777054	0.000165
C76	C	0.611764	-0.726639	0.000178
C77	C	0.567937	-0.695339	0.000143
C78	C	0.617503	-0.162006	0.000272
C79	C	0.618012	-0.111590	0.000297
C80	C	0.529847	-0.099408	0.000247
C81	C	0.529338	-0.149820	0.000232
C82	C	0.573169	-0.181118	0.000238
O83	O	0.491068	-0.224399	0.000240
O84	O	0.654181	-0.246979	0.000228
C85	C	0.614377	-0.469522	0.000182
C86	C	0.570041	-0.488634	0.000146
C87	C	0.526217	-0.457334	0.000127
C88	C	0.569527	-0.539048	0.000146
C89	C	0.613351	-0.570348	0.000165
C90	C	0.657688	-0.551233	0.000184
C91	C	0.658201	-0.500822	0.000201
C92	C	0.481880	-0.476448	0.000107
C93	C	0.481370	-0.526860	0.000092
C94	C	0.525194	-0.558160	0.000111
C95	C	0.658957	0.057563	0.000256
C96	C	0.712613	0.058105	0.000267
C97	C	0.566359	0.150177	0.000171
C98	C	0.566911	0.203832	0.000143
N99	N	0.584774	0.047515	0.452742
N100	N	0.556329	0.076022	-0.452304
H101	H	0.433694	0.055486	0.314656
N102	N	-0.300697	0.069435	-0.360042
H103	H	-0.317710	0.039487	-0.367753
H104	H	-0.325974	0.099458	-0.367693
H105	H	-0.066134	0.075882	-0.487578
N106	N	0.517278	0.115154	0.439525
H107	H	0.517864	0.114563	0.297577
H108	H	0.484105	0.108770	0.474425
N109	N	0.623832	0.008386	0.560921
H110	H	0.623248	0.008978	0.702871
H111	H	0.617369	-0.024764	0.526055
H112	H	0.493234	-0.165383	0.000254
N113	N	0.664776	-0.195759	0.000279
H114	H	0.692938	-0.175996	0.000309
H115	H	0.670190	-0.220660	0.118157
N116	N	0.337024	0.053025	0.360503
H117	H	0.364147	0.049481	0.470285
H118	H	0.312439	0.082700	0.368614
N119	N	0.215350	0.046269	0.533851
H120	H	0.195181	0.042568	0.643646
H121	H	0.240651	0.016266	0.541431
H122	H	0.494167	-0.073915	0.000238
H123	H	-0.181350	0.049185	0.314761
N124	N	-0.278038	0.046733	0.360565
H125	H	-0.295140	0.016667	0.367149
H126	H	-0.250859	0.042868	0.470272
N127	N	-0.195920	0.070498	-0.360057
H128	H	-0.222998	0.073717	-0.469846
H129	H	-0.179386	0.100927	-0.367645
H130	H	0.694308	-0.485267	0.000232
H131	H	0.085110	0.077423	-0.487624
N132	N	0.181786	0.079863	-0.533433
H133	H	0.154711	0.083077	-0.643231
H134	H	0.198318	0.110293	-0.541021
H135	H	0.693372	-0.576727	0.000208
N136	N	0.658518	-0.810818	0.000162
H137	H	0.686687	-0.791065	0.000167
H138	H	0.663931	-0.835720	0.118039
H139	H	0.445261	-0.542416	0.000078
N140	N	0.707564	-0.328979	0.000288
H141	H	0.735244	-0.356463	0.000293
H142	H	0.705995	-0.304610	-0.117591
H143	H	0.115799	0.046701	0.488054
H144	H	0.056012	0.046088	0.488064
N145	N	0.436147	-0.291439	0.000105
H146	H	0.430688	-0.266529	-0.117760
H147	H	0.408010	-0.311232	0.000163
N148	N	0.314335	0.075738	-0.360127
H149	H	0.334500	0.079441	-0.469936
H150	H	0.297330	0.045782	-0.367667
H151	H	0.446192	-0.450968	0.000088
N152	N	0.419126	0.076803	-0.360147
H153	H	0.435656	0.107236	-0.367900
H154	H	0.443924	0.047257	-0.367720
N155	N	0.030537	0.078326	-0.533397
H156	H	0.003460	0.081542	-0.643188
H157	H	0.047069	0.108757	-0.540982
N158	N	-0.040671	0.043638	0.533867
H159	H	-0.057779	0.013576	0.540449
H160	H	-0.013492	0.039768	0.643573
H161	H	0.694916	-0.425479	0.000244
H162	H	0.654121	-0.096034	0.000334
N163	N	0.659588	-0.706028	0.000221
H164	H	0.687270	-0.733511	0.000239
H165	H	0.658020	-0.681661	-0.117660
H166	H	0.486981	-0.780424	0.000126
H167	H	0.487908	-0.688973	0.000096
H168	H	0.446791	-0.391169	0.000060
