data_functionalizedCrystal
_audit_creation_method	'MofGen! by Chris Wilmer'
_symmetry_space_group_name_H-M	'P1'
_symmetry_Int_Tables_number	1
_symmetry_cell_setting	triclinic
loop_
_symmetry_equiv_pos_as_xyz
  x,y,z
_cell_length_a	12.759401
_cell_length_b	12.759399
_cell_length_c	12.759393
_cell_angle_alpha	90.030906
_cell_angle_beta	90.019625
_cell_angle_gamma	90.014160
loop_
_atom_site_label
_atom_site_type_symbol
_atom_site_fract_x
_atom_site_fract_y
_atom_site_fract_z
Zn1	Zn	1.606263	-0.418242	0.593980
Zn2	Zn	1.606153	-0.593958	0.418299
Zn3	Zn	1.430562	-0.418291	0.418319
Zn4	Zn	1.430553	-0.593877	0.593940
O5	O	1.518383	-0.506092	0.506135
O6	O	1.753270	-0.441565	0.570684
O7	O	1.582818	-0.570709	0.271281
O8	O	1.453919	-0.271263	0.441646
O9	O	1.753189	-0.570662	0.441612
O10	O	1.583006	-0.271228	0.570704
O11	O	1.453812	-0.441647	0.271296
O12	O	1.283540	-0.441569	0.441608
O13	O	1.453903	-0.570524	0.740967
O14	O	1.283533	-0.570571	0.570636
O15	O	1.582997	-0.441486	0.740996
O16	O	1.582809	-0.740968	0.441573
O17	O	1.453796	-0.740909	0.570616
C18	C	1.518318	-0.779059	0.506111
C19	C	1.518387	-0.895836	0.506136
C20	C	1.245415	-0.506067	0.506120
C21	C	1.128639	-0.506082	0.506139
C22	C	1.585641	-0.950694	0.439020
C23	C	1.585708	-1.060418	0.439055
C24	C	1.451259	-1.060416	0.573325
C25	C	1.451198	-0.950694	0.573295
C26	C	1.073812	-0.438988	0.573451
C27	C	0.964088	-0.439008	0.573458
C28	C	0.964027	-0.573225	0.438837
C29	C	1.073749	-0.573199	0.438826
C30	C	1.128702	-0.371870	0.640764
C31	C	1.073875	-0.304772	0.708082
C32	C	0.964151	-0.304792	0.708089
C33	C	0.909253	-0.371911	0.640777
C34	C	1.792416	-0.506117	0.506150
C35	C	1.909193	-0.506128	0.506157
C36	C	1.518461	-0.505991	0.780168
C37	C	1.518495	-0.505948	0.896945
C38	C	1.518476	-0.232059	0.506182
C39	C	1.518516	-0.115282	0.506202
C40	C	1.518365	-0.506117	0.233167
C41	C	1.518535	-0.505864	0.116391
C42	C	1.585719	-0.438747	0.951824
C43	C	1.585737	-0.438702	1.061548
C44	C	1.451303	-0.573067	1.061505
C45	C	1.451281	-0.573107	0.951783
H46	H	1.640352	-0.906031	0.384336
O47	O	1.378638	-0.891525	0.645678
H48	H	1.396612	-0.912506	0.728158
O49	O	1.378817	-0.645501	1.120658
H50	H	1.332060	-0.692229	1.064060
H51	H	0.919513	-0.250149	0.762895
O52	O	1.658239	-1.119590	0.366660
H53	H	1.704940	-1.063007	0.319953
O54	O	1.378772	-1.119583	0.645740
H55	H	1.390100	-1.205097	0.634475
O56	O	1.132894	-0.645559	0.366222
H57	H	1.182915	-0.699049	0.413144
O58	O	0.790907	-0.371922	0.640783
H59	H	0.761948	-0.350590	0.561580
O60	O	1.247046	-0.371837	0.640740
H61	H	1.276006	-0.313887	0.698843
H62	H	1.118579	-0.250120	0.762878
H63	H	0.919321	-0.627872	0.384037
H64	H	1.640446	-0.384060	0.907178
H65	H	1.640476	-0.383979	1.106226
O66	O	1.378742	-0.645560	0.892579
H67	H	1.332007	-0.692253	0.949142
