data_functionalizedCrystal
_audit_creation_method	'MofGen! by Chris Wilmer'
_symmetry_space_group_name_H-M	'P1'
_symmetry_Int_Tables_number	1
_symmetry_cell_setting	triclinic
loop_
_symmetry_equiv_pos_as_xyz
  x,y,z
_cell_length_a	18.215407
_cell_length_b	13.032721
_cell_length_c	18.215399
_cell_angle_alpha	97.151969
_cell_angle_beta	89.983176
_cell_angle_gamma	97.205008
loop_
_atom_site_label
_atom_site_type_symbol
_atom_site_fract_x
_atom_site_fract_y
_atom_site_fract_z
Zn1	Zn	1.087859	-0.416014	-0.453318
Zn2	Zn	1.072150	-0.590784	-0.345880
Zn3	Zn	0.964795	-0.416056	-0.330269
Zn4	Zn	0.949140	-0.590718	-0.468899
O5	O	1.018486	-0.503393	-0.399592
O6	O	1.188759	-0.439208	-0.439079
O7	O	1.057887	-0.567650	-0.240829
O8	O	0.994246	-0.269811	-0.333537
O9	O	1.177218	-0.567610	-0.360145
O10	O	1.084661	-0.269781	-0.423941
O11	O	0.979013	-0.439278	-0.229360
O12	O	0.859735	-0.439215	-0.348646
O13	O	0.967564	-0.567499	-0.569813
O14	O	0.848233	-0.567539	-0.450497
O15	O	1.069481	-0.439144	-0.558365
O16	O	1.042707	-0.737014	-0.375254
O17	O	0.952331	-0.736966	-0.465635
C18	C	0.827281	-0.503375	-0.399569
C19	C	0.745481	-0.503393	-0.399579
C20	C	0.551308	-0.570316	-0.452563
C21	C	0.474449	-0.570319	-0.452573
C22	C	0.486415	-0.436489	-0.346638
C23	C	0.563273	-0.436481	-0.346632
C24	C	0.595717	-0.503401	-0.399594
C25	C	0.442000	-0.503412	-0.399609
C26	C	0.358666	-0.503415	-0.399619
C27	C	0.679056	-0.503396	-0.399586
C28	C	0.994136	-0.774908	-0.423845
C29	C	0.983786	-0.891063	-0.434246
C30	C	1.023927	-0.942838	-0.394197
C31	C	1.013231	-1.062890	-0.404945
C32	C	1.210437	-0.503412	-0.399615
C33	C	1.292235	-0.503420	-0.399625
C34	C	1.018528	-0.503309	-0.591537
C35	C	1.018546	-0.503274	-0.673333
C36	C	1.042952	-0.230818	-0.375260
C37	C	1.053377	-0.114662	-0.364891
C38	C	0.977521	-0.436385	-0.855552
C39	C	0.977535	-0.436364	-0.932409
C40	C	1.059671	-0.570038	-0.944341
C41	C	1.059652	-0.570063	-0.867486
C42	C	1.018578	-0.503231	-0.823093
C43	C	1.018612	-0.503185	-0.976805
C44	C	1.018628	-0.503162	-1.060136
C45	C	1.018561	-0.503255	-0.739756
C46	C	1.018493	-0.503401	-0.208386
C47	C	1.018644	-0.503142	-0.126565
H48	H	0.599432	-0.381984	-0.303498
N49	N	0.451417	-0.364331	-0.289509
H50	H	0.491214	-0.321938	-0.255953
H51	H	0.423867	-0.316023	-0.315204
N52	N	1.109396	-1.055668	-0.308929
H53	H	1.160300	-1.074535	-0.322088
H54	H	1.109034	-0.978288	-0.309209
H55	H	1.093087	-0.624501	-0.841058
N56	N	0.927776	-0.950063	-0.490209
H57	H	0.928075	-1.027462	-0.489955
H58	H	0.876899	-0.931117	-0.477021
N59	N	0.586301	-0.642481	-0.509691
H60	H	0.641730	-0.632327	-0.501650
H61	H	0.566171	-0.717097	-0.504819
N62	N	1.103981	-0.642101	-0.992224
H63	H	1.129988	-0.684453	-0.959997
H64	H	1.069696	-0.690452	-1.028426
N65	N	0.426548	-0.642498	-0.509698
H66	H	0.441391	-0.626366	-0.560857
H67	H	0.433247	-0.717113	-0.504778
N68	N	1.079946	-0.883838	-0.338243
H69	H	1.079648	-0.806439	-0.338498
H70	H	1.066839	-0.902923	-0.287368
N71	N	0.957218	-1.121887	-0.460912
H72	H	0.957517	-1.199285	-0.460658
H73	H	0.906341	-1.102940	-0.447724
N74	N	0.933224	-0.364304	-0.807669
H75	H	0.907217	-0.321955	-0.839897
H76	H	0.895342	-0.406847	-0.779571
H77	H	0.944101	-0.381933	-0.958833
