data_functionalizedCrystal
_audit_creation_method	'MofGen! by Chris Wilmer'
_symmetry_space_group_name_H-M	'P1'
_symmetry_Int_Tables_number	1
_symmetry_cell_setting	triclinic
loop_
_symmetry_equiv_pos_as_xyz
  x,y,z
_cell_length_a	7.540329
_cell_length_b	9.065218
_cell_length_c	9.065218
_cell_angle_alpha	94.984081
_cell_angle_beta	90.003743
_cell_angle_gamma	89.997391
loop_
_atom_site_label
_atom_site_type_symbol
_atom_site_fract_x
_atom_site_fract_y
_atom_site_fract_z
O1	O	0.147565	-1.960393	0.216361
O2	O	0.647565	-1.460393	0.716361
O3	O	0.147548	-1.531108	0.234107
O4	O	0.647548	-1.031108	0.734107
O5	O	0.147554	-1.754623	0.010591
O6	O	0.647554	-1.254623	0.510591
O7	O	0.147560	-1.736877	0.439876
O8	O	0.647560	-1.236877	0.939876
O9	O	-0.147411	-1.754621	0.010579
O10	O	0.352589	-1.254621	0.510579
O11	O	-0.147417	-1.531106	0.234094
O12	O	0.352583	-1.031106	0.734094
O13	O	-0.147400	-1.960391	0.216348
O14	O	0.352600	-1.460391	0.716348
Cu15	Cu	-0.174341	-1.745748	0.225220
Cu16	Cu	0.325659	-1.245748	0.725220
Cu17	Cu	0.174489	-1.745750	0.225235
Cu18	Cu	0.674489	-1.245750	0.725235
O19	O	-0.147405	-1.736875	0.439864
O20	O	0.352595	-1.236875	0.939864
C21	C	0.000064	-1.476120	0.232395
C22	C	0.500064	-0.976120	0.732395
C23	C	0.000057	-1.312277	0.227295
C24	C	0.500057	-0.812277	0.727295
N25	N	-0.419689	-1.745757	0.225209
N26	N	0.080311	-1.245757	0.725209
C27	C	0.000074	-1.752917	-0.044402
C28	C	0.500074	-1.252917	0.455598
C29	C	0.000082	-1.747817	-0.208244
C30	C	0.500082	-1.247817	0.291756
N31	N	0.419838	-1.745753	0.225234
N32	N	0.919838	-1.245753	0.725234
C33	C	0.000078	-1.015378	0.218060
C34	C	0.500078	-0.515378	0.718060
C35	C	0.000063	-1.179221	0.223159
C36	C	0.500063	-0.679221	0.723159
C37	C	0.000079	-1.738581	0.494856
C38	C	0.500079	-1.238581	0.994856
C39	C	0.000082	-1.743681	0.658699
C40	C	0.500082	-1.243681	1.158699
