data_functionalizedCrystal
_audit_creation_method	'MofGen! by Chris Wilmer'
_symmetry_space_group_name_H-M	'P1'
_symmetry_Int_Tables_number	1
_symmetry_cell_setting	triclinic
loop_
_symmetry_equiv_pos_as_xyz
  x,y,z
_cell_length_a	10.654541
_cell_length_b	11.792241
_cell_length_c	9.130307
_cell_angle_alpha	89.996545
_cell_angle_beta	89.999822
_cell_angle_gamma	84.338672
loop_
_atom_site_label
_atom_site_type_symbol
_atom_site_fract_x
_atom_site_fract_y
_atom_site_fract_z
O1	O	1.667388	0.159405	-0.121755
O2	O	1.301866	0.174596	-0.121768
O3	O	1.493497	0.001851	-0.121751
O4	O	1.475757	0.332151	-0.121772
O5	O	1.493491	0.001849	0.121848
O6	O	1.301859	0.174595	0.121831
O7	O	1.667382	0.159403	0.121844
Cu8	Cu	1.484620	0.166999	0.144080
Cu9	Cu	1.484627	0.167001	-0.144004
O10	O	1.475750	0.332149	0.121827
C11	C	1.255068	0.173481	0.000030
C12	C	1.115634	0.170145	0.000025
C13	C	1.087078	0.376710	-0.000006
C14	C	1.007297	0.478420	-0.000028
C15	C	0.876287	0.475279	-0.000029
C16	C	0.825059	0.370416	-0.000004
C17	C	0.904841	0.268706	0.000017
C18	C	1.035851	0.271858	0.000014
C19	C	0.933396	0.062144	0.000059
C20	C	1.064405	0.065282	0.000050
C21	C	0.882167	-0.042719	0.000084
C22	C	0.961949	-0.144432	0.000095
C23	C	1.092966	-0.141286	0.000095
C24	C	1.144187	-0.036428	0.000072
C25	C	1.492380	-0.040444	0.000048
C26	C	1.489044	-0.166465	0.000046
C27	C	1.482911	-0.397192	0.000022
C28	C	1.486319	-0.268799	0.000035
C29	C	1.714180	0.160519	0.000043
C30	C	1.853614	0.163854	0.000038
C31	C	1.476868	0.374443	0.000025
C32	C	1.480203	0.500465	0.000017
N33	N	1.484624	0.166997	0.346703
N34	N	1.484633	0.166994	-0.346627
C35	C	1.654383	0.014075	0.346708
C36	C	1.739271	-0.062382	0.423377
C37	C	1.739283	-0.062383	0.576710
C38	C	1.654396	0.014080	0.653378
C39	C	1.569509	0.090537	0.576709
C40	C	1.569508	0.090532	0.423372
C41	C	1.399746	0.243451	0.576704
C42	C	1.399737	0.243459	0.423370
C43	C	1.314859	0.319914	0.653372
C44	C	1.229975	0.396379	0.576702
C45	C	1.229967	0.396377	0.423360
C46	C	1.314849	0.319917	0.346701
H47	H	1.654392	0.014077	0.221856
H48	H	0.811328	0.558101	-0.000036
H49	H	1.808402	-0.124645	0.639135
O50	O	1.821584	-0.136652	0.348705
C51	C	1.753915	-0.207276	0.259998
H52	H	1.655917	-0.162951	0.237062
H53	H	1.806212	-0.224709	0.152158
H54	H	1.744897	-0.291275	0.319039
O55	O	1.170283	-0.240197	0.000049
C56	C	1.096967	-0.333414	0.000110
H57	H	0.999394	-0.305377	-0.046009
H58	H	1.144798	-0.404749	-0.070600
H59	H	1.087425	-0.365495	0.116985
H60	H	0.920227	-0.229803	0.000114
H61	H	1.160860	0.458624	0.639135
H62	H	1.250860	-0.033857	0.000054
H63	H	1.654401	0.014065	0.778230
H64	H	1.314854	0.319913	0.221849
H65	H	0.718383	0.367868	0.000012
O66	O	1.314858	0.320125	0.802319
C67	C	1.341126	0.428081	0.853527
H68	H	1.315827	0.494732	0.765155
H69	H	1.283026	0.450824	0.956109
H70	H	1.445760	0.425983	0.880728
O71	O	0.754914	-0.045834	0.000339
C72	C	0.718973	-0.103554	0.126491
H73	H	0.794210	-0.099908	0.214679
H74	H	0.625169	-0.061159	0.168821
H75	H	0.708474	-0.196267	0.097987
O76	O	1.147458	0.470759	0.349115
C77	C	1.072523	0.538217	0.449670
H78	H	1.124026	0.539933	0.558967
H79	H	1.053959	0.628704	0.405367
H80	H	0.978991	0.500566	0.465986
H81	H	1.193752	0.379277	-0.000038
H82	H	1.049022	0.563797	-0.000044
