data_functionalizedCrystal
_audit_creation_method	'MofGen! by Chris Wilmer'
_symmetry_space_group_name_H-M	'P1'
_symmetry_Int_Tables_number	1
_symmetry_cell_setting	triclinic
loop_
_symmetry_equiv_pos_as_xyz
  x,y,z
_cell_length_a	12.811457
_cell_length_b	10.489716
_cell_length_c	11.892095
_cell_angle_alpha	93.932635
_cell_angle_beta	91.498327
_cell_angle_gamma	84.284886
loop_
_atom_site_label
_atom_site_type_symbol
_atom_site_fract_x
_atom_site_fract_y
_atom_site_fract_z
O1	O	1.390509	0.175987	0.048557
O2	O	1.087268	0.191987	0.017469
O3	O	1.245802	-0.001593	0.033718
O4	O	1.231975	0.369567	0.032308
O5	O	1.232584	0.014522	0.220371
O6	O	1.074049	0.208102	0.204122
O7	O	1.377291	0.192102	0.235210
Zn8	Zn	1.223571	0.202661	0.249301
Zn9	Zn	1.240987	0.181428	0.003378
O10	O	1.218756	0.385682	0.218961
C11	C	1.041829	0.198654	0.106814
C12	C	0.926128	0.194496	0.094952
C13	C	0.694302	0.204229	0.276173
C14	C	0.585591	0.200322	0.265033
C15	C	0.599992	0.182766	0.061533
C16	C	0.708704	0.186673	0.072673
C17	C	0.755854	0.197406	0.179997
C18	C	0.864567	0.201322	0.191136
C19	C	0.878967	0.183757	-0.012363
C20	C	0.770256	0.179850	-0.023503
C21	C	1.238154	-0.041071	0.126934
C22	C	1.235047	-0.182712	0.126605
C23	C	1.332264	-0.280098	0.136582
C24	C	1.287409	-0.365556	0.039289
C25	C	1.274354	-0.349631	0.223312
C26	C	1.190238	-0.266310	0.029240
C27	C	1.177191	-0.250373	0.213347
C28	C	1.132266	-0.335784	0.116024
C29	C	1.422730	0.185435	0.145862
C30	C	1.538431	0.189592	0.157717
C31	C	1.226404	0.425160	0.125742
C32	C	1.229512	0.566800	0.126064
N33	N	1.211693	0.217151	0.417138
N34	N	1.252874	0.166929	-0.164458
C35	C	1.335528	0.066028	0.666478
C36	C	1.327233	0.076166	0.783970
C37	C	1.186803	0.247557	0.769614
C38	C	1.195098	0.237419	0.652123
C39	C	1.269464	0.146653	0.600559
C40	C	1.277764	0.136522	0.483066
C41	C	1.137330	0.307906	0.468712
C42	C	1.129034	0.318044	0.586204
H43	H	0.731851	0.171105	-0.110883
H44	H	0.929095	0.178210	-0.090678
H45	H	1.416834	-0.255181	0.145158
F46	F	1.348251	-0.431032	-0.056905
H47	H	0.732691	0.212985	0.363560
F48	F	0.520086	0.207580	0.367398
H49	H	1.154736	-0.229852	-0.052852
H50	H	1.083539	0.373560	0.415027
H51	H	1.338319	0.062620	0.441084
H52	H	1.068484	0.391941	0.628200
H53	H	0.561585	0.174005	-0.025844
H54	H	1.047643	-0.360468	0.107298
F55	F	1.116411	-0.184843	0.309554
H56	H	1.309905	-0.386266	0.305321
H57	H	1.396086	-0.007869	0.624495
F58	F	0.914746	0.212750	0.305357
H59	H	1.381027	0.010512	0.837638
H60	H	1.126249	0.321448	0.811612
