data_functionalizedCrystal
_audit_creation_method	'MofGen! by Chris Wilmer'
_symmetry_space_group_name_H-M	'P1'
_symmetry_Int_Tables_number	1
_symmetry_cell_setting	triclinic
loop_
_symmetry_equiv_pos_as_xyz
  x,y,z
_cell_length_a	30.700809
_cell_length_b	30.711276
_cell_length_c	30.700862
_cell_angle_alpha	59.998386
_cell_angle_beta	89.999414
_cell_angle_gamma	60.000191
loop_
_atom_site_label
_atom_site_type_symbol
_atom_site_fract_x
_atom_site_fract_y
_atom_site_fract_z
O1	O	-0.371254	-0.311651	0.012944
O2	O	-0.307913	-0.222487	-0.012907
O3	O	-0.307911	-0.311650	0.076286
O4	O	-0.371257	-0.222488	-0.076249
O5	O	-0.235466	-0.384070	0.076286
O6	O	-0.235468	-0.294907	-0.012907
O7	O	-0.298809	-0.384071	0.012944
Cu8	Cu	-0.260524	-0.346102	0.000018
Cu9	Cu	-0.346199	-0.260456	0.000019
O10	O	-0.298812	-0.294908	-0.076249
C11	C	-0.234796	-0.137097	-0.018777
C12	C	-0.261674	-0.083360	-0.015076
C13	C	-0.182374	-0.163176	-0.019143
C14	C	-0.234798	-0.215942	-0.018783
C15	C	-0.261678	-0.246507	-0.015089
C16	C	-0.182376	-0.241901	-0.019150
C17	C	-0.155920	-0.215947	-0.018777
C18	C	-0.098463	-0.246515	-0.015075
C19	C	-0.261132	-0.163172	-0.019150
C20	C	-0.574961	-0.535511	0.039265
C21	C	-0.548506	-0.588283	0.039634
C22	C	-0.496086	-0.535509	0.039262
C23	C	-0.469751	-0.588281	0.039632
C24	C	-0.496085	-0.614360	0.039265
C25	C	-0.548507	-0.509552	0.039632
C26	C	-0.765169	-0.393516	0.024987
C27	C	-0.819034	-0.364488	0.020950
C28	C	-0.846055	-0.389406	0.018925
C29	C	-0.904462	-0.357927	0.014538
C30	C	-0.819206	-0.443357	0.020941
C31	C	-0.765344	-0.472385	0.024984
C32	C	-0.738325	-0.447463	0.027007
C33	C	-0.447920	-0.790230	0.024988
C34	C	-0.423094	-0.840041	0.020951
C35	C	-0.371150	-0.865027	0.018921
C36	C	-0.344230	-0.919028	0.014536
C37	C	-0.344030	-0.840201	0.020935
C38	C	-0.368852	-0.790399	0.024981
C39	C	-0.420803	-0.765414	0.027004
C40	C	-0.447922	-0.393510	0.024977
C41	C	-0.423099	-0.364475	0.020931
C42	C	-0.371152	-0.389391	0.018903
C43	C	-0.344235	-0.357911	0.014513
C44	C	-0.344034	-0.443338	0.020916
C45	C	-0.368860	-0.472368	0.024960
C46	C	-0.420804	-0.447452	0.026995
C47	C	-0.679920	-0.478941	0.031387
C48	C	-0.633366	-0.504032	0.034880
C49	C	-0.469171	-0.504029	0.034875
C50	C	-0.447717	-0.478936	0.031380
C51	C	-0.469170	-0.668361	0.034880
C52	C	-0.447716	-0.711408	0.031386
C53	C	-0.496432	-0.071057	-0.503890
C54	C	-0.548853	-0.018285	-0.530226
C55	C	-0.496432	-0.071056	-0.425015
C56	C	-0.548854	-0.018284	-0.451470
C57	C	-0.575308	0.007793	-0.503892
C58	C	-0.470097	-0.097014	-0.451469
C59	C	-0.368666	-0.213054	-0.552051
C60	C	-0.343664	-0.242084	-0.576877
C61	C	-0.370616	-0.217167	-0.628824
C62	C	-0.343513	-0.248647	-0.655741
C63	C	-0.422570	-0.163216	-0.655945
C64	C	-0.447565	-0.134187	-0.631122
C65	C	-0.420611	-0.159108	-0.579173
C66	C	-0.765518	0.183662	-0.631659
C67	C	-0.819384	0.233473	-0.656662
C68	C	-0.846408	0.258459	-0.629712
C69	C	-0.904813	0.312461	-0.656813
C70	C	-0.819559	0.233635	-0.577758
C71	C	-0.765694	0.183833	-0.552761
C72	C	-0.738677	0.158847	-0.579717
C73	C	-0.368668	-0.213052	-0.234803
C74	C	-0.343669	-0.242086	-0.180935
C75	C	-0.370621	-0.217169	-0.153914
C76	C	-0.343519	-0.248648	-0.095506
C77	C	-0.422573	-0.163222	-0.180762
C78	C	-0.447570	-0.134193	-0.234627
C79	C	-0.420610	-0.159111	-0.261646
C80	C	-0.447720	-0.127629	-0.552258
C81	C	-0.469327	-0.102536	-0.530805
C82	C	-0.469328	-0.102535	-0.366609
C83	C	-0.447721	-0.127627	-0.320054
C84	C	-0.633714	0.061794	-0.530997
C85	C	-0.680269	0.104841	-0.552605
O86	O	0.076277	-0.384081	0.012960
O87	O	-0.076257	-0.294916	-0.012894
O88	O	0.012931	-0.384083	0.076300
O89	O	-0.012910	-0.294914	-0.076234
O90	O	0.012933	-0.311666	0.076306
O91	O	-0.076254	-0.222499	-0.012888
O92	O	0.076280	-0.311664	0.012966
Cu93	Cu	0.000013	-0.260469	0.000040
Cu94	Cu	0.000010	-0.346111	0.000033
O95	O	-0.012908	-0.222497	-0.076228
O96	O	-0.298805	0.063292	0.012964
O97	O	-0.235462	-0.063346	-0.012888
O98	O	-0.235465	-0.063353	0.076305
O99	O	-0.298803	0.063300	-0.076229
O100	O	-0.307912	-0.063350	0.076299
O101	O	-0.307909	-0.063342	-0.012895
O102	O	-0.371252	0.063295	0.012958
Cu103	Cu	-0.346196	-0.000023	0.000031
Cu104	Cu	-0.260519	-0.000027	0.000039
O105	O	-0.371250	0.063303	-0.076236
O106	O	-1.076607	0.456783	-0.692421
O107	O	-0.924074	0.330140	-0.629074
O108	O	-1.013262	0.330138	-0.629073
O109	O	-0.987418	0.456785	-0.692422
O110	O	-1.013261	0.330136	-0.701518
O111	O	-0.924072	0.330138	-0.701518
O112	O	-1.076605	0.456781	-0.764865
Cu113	Cu	-1.000338	0.393460	-0.739807
Cu114	Cu	-1.000340	0.393461	-0.654133
O115	O	-0.987417	0.456783	-0.764866
O116	O	-0.307911	-0.311650	-0.764507
O117	O	-0.371254	-0.222491	-0.701165
O118	O	-0.371252	-0.311652	-0.701162
O119	O	-0.307912	-0.222489	-0.764510
O120	O	-0.298806	-0.384074	-0.628716
O121	O	-0.298807	-0.294912	-0.628719
O122	O	-0.235464	-0.384072	-0.692061
Cu123	Cu	-0.260521	-0.346105	-0.653775
Cu124	Cu	-0.346197	-0.260458	-0.739451
O125	O	-0.235466	-0.294910	-0.692064
C126	C	-0.155920	-0.469469	0.234827
C127	C	-0.098464	-0.523208	0.261706
C128	C	-0.182375	-0.443392	0.261162
C129	C	-0.234797	-0.390619	0.155950
C130	C	-0.261676	-0.360052	0.098494
C131	C	-0.261132	-0.364662	0.182405
C132	C	-0.234797	-0.390620	0.234826
C133	C	-0.261675	-0.360052	0.261704
C134	C	-0.182375	-0.443391	0.182406
C135	C	0.018810	-0.390643	0.234846
C136	C	0.015111	-0.360079	0.261727
C137	C	0.019176	-0.443414	0.261179
C138	C	0.018812	-0.390637	0.155967
C139	C	0.015115	-0.360067	0.098511
C140	C	0.019178	-0.443408	0.182420
C141	C	0.018807	-0.469488	0.234841
C142	C	0.015106	-0.523226	0.261717
C143	C	0.019180	-0.364683	0.182425
C144	C	-0.234799	-0.215977	0.234834
C145	C	-0.261678	-0.246545	0.261708
C146	C	-0.182376	-0.241940	0.261172
C147	C	-0.234798	-0.137119	0.155964
C148	C	-0.261676	-0.083372	0.098509
C149	C	-0.182375	-0.163202	0.182421
C150	C	-0.155921	-0.215981	0.234841
C151	C	-0.098464	-0.246554	0.261721
C152	C	-0.261134	-0.163198	0.182415
C153	C	-0.039199	0.007461	-0.503869
C154	C	-0.039568	-0.018614	-0.530207
C155	C	-0.039203	-0.071390	-0.424995
C156	C	-0.039572	-0.097344	-0.451452
C157	C	-0.039201	-0.071385	-0.503874
C158	C	-0.039570	-0.018618	-0.451448
C159	C	-0.024912	0.183325	-0.552025
C160	C	-0.020873	0.233135	-0.576849
C161	C	-0.018844	0.258123	-0.628796
C162	C	-0.014454	0.312124	-0.655711
C163	C	-0.020859	0.233301	-0.655918
C164	C	-0.024906	0.183500	-0.631097
C165	C	-0.026932	0.158512	-0.579148
C166	C	-0.024920	-0.133799	-0.631644
C167	C	-0.020882	-0.162650	-0.656647
C168	C	-0.018855	-0.216605	-0.629699
C169	C	-0.014470	-0.247897	-0.656801
C170	C	-0.020872	-0.241704	-0.577746
C171	C	-0.024919	-0.212847	-0.552747
C172	C	-0.026939	-0.158893	-0.579702
C173	C	-0.024929	-0.133823	-0.234783
C174	C	-0.020887	-0.162684	-0.180915
C175	C	-0.018862	-0.216639	-0.153896
C176	C	-0.014477	-0.247936	-0.095488
C177	C	-0.020875	-0.241733	-0.180745
C178	C	-0.024915	-0.212872	-0.234610
C179	C	-0.026947	-0.158912	-0.261627
C180	C	-0.031316	0.104507	-0.552235
C181	C	-0.034811	0.061462	-0.530782
C182	C	-0.034820	-0.102682	-0.366590
C183	C	-0.031328	-0.127624	-0.320035
C184	C	-0.034816	-0.102672	-0.530980
C185	C	-0.031322	-0.127610	-0.552588
O186	O	-0.012940	-0.294936	0.371303
O187	O	0.012923	-0.384099	0.307961
O188	O	-0.076273	-0.294935	0.307950
O189	O	0.076257	-0.384100	0.371315
O190	O	-0.076265	-0.222515	0.235508
O191	O	0.012932	-0.311679	0.235520
O192	O	-0.012931	-0.222517	0.298862
Cu193	Cu	0.000001	-0.260485	0.260576
Cu194	Cu	-0.000009	-0.346130	0.346247
O195	O	0.076266	-0.311681	0.298873
C196	C	-0.574962	0.464558	-0.503864
C197	C	-0.548506	0.490518	-0.530195
C198	C	-0.496085	0.385697	-0.424987
C199	C	-0.469749	0.411776	-0.451438
C200	C	-0.496084	0.464555	-0.503857
C201	C	-0.548507	0.411779	-0.451444
C202	C	-0.765173	0.526994	-0.552039
C203	C	-0.819039	0.555852	-0.576867
C204	C	-0.846061	0.609814	-0.628812
C205	C	-0.904469	0.641114	-0.655732
C206	C	-0.819211	0.634913	-0.655928
C207	C	-0.765348	0.606050	-0.631102
C208	C	-0.738329	0.552088	-0.579155
C209	C	-0.447916	0.606561	-0.631604
C210	C	-0.423088	0.635592	-0.656601
C211	C	-0.371143	0.610674	-0.629648
C212	C	-0.344222	0.642150	-0.656742
C213	C	-0.344023	0.556716	-0.577696
C214	C	-0.368845	0.527681	-0.552704
C215	C	-0.420798	0.552613	-0.579664
C216	C	-0.447920	0.209802	-0.234786
C217	C	-0.423096	0.159988	-0.180919
C218	C	-0.371148	0.134996	-0.153895
C219	C	-0.344230	0.080987	-0.095489
C220	C	-0.344029	0.159823	-0.180737
C221	C	-0.368856	0.209637	-0.234602
C222	C	-0.420801	0.234620	-0.261624
C223	C	-0.679923	0.520797	-0.552238
C224	C	-0.633367	0.495853	-0.530781
C225	C	-0.469169	0.331687	-0.366583
C226	C	-0.447714	0.288634	-0.320030
C227	C	-0.469167	0.496035	-0.530956
C228	C	-0.447712	0.521128	-0.552558
H229	H	-0.161139	-0.284365	-0.019743
H230	H	0.019779	-0.465234	0.161179
O231	O	-0.157044	-0.292542	0.312584
C232	C	-0.113513	-0.336204	0.403242
C233	C	-0.142205	-0.278852	0.345045
H234	H	-0.101498	-0.325160	0.429502
H235	H	-0.141424	-0.350375	0.417643
H236	H	-0.076338	-0.375554	0.405658
H237	H	-0.179378	-0.239464	0.342584
H238	H	-0.114257	-0.264733	0.330670
O239	O	-0.156993	-0.469383	0.312517
C240	C	-0.082293	-0.499179	0.373687
C241	C	-0.110983	-0.469724	0.315507
H242	H	-0.045083	-0.499476	0.376126
H243	H	-0.110200	-0.471452	0.388054
H244	H	-0.070340	-0.548460	0.399963
H245	H	-0.122939	-0.420447	0.289190
H246	H	-0.083059	-0.497497	0.301184
H247	H	0.019760	-0.465234	0.304248
H248	H	-0.304205	-0.141373	0.161175
H249	H	-0.841239	0.253681	-0.698962
O250	O	-0.312486	-0.137218	-0.019766
C251	C	-0.373648	-0.150778	0.025124
C252	C	-0.315469	-0.180241	0.025896
H253	H	-0.376080	-0.185553	0.062032
H254	H	-0.388022	-0.108526	0.024968
H255	H	-0.399920	-0.136453	-0.012225
H256	H	-0.289156	-0.194604	0.063240
H257	H	-0.301138	-0.222467	0.026024
H258	H	-0.743487	-0.516312	0.026628
H259	H	-0.040166	-0.139808	-0.430213
H260	H	-0.426680	-0.610102	0.040221
H261	H	-0.161137	-0.141349	-0.019737
O262	O	0.019817	-0.313975	0.157116
C263	C	-0.025124	-0.207926	0.125706
C264	C	-0.025903	-0.265309	0.154390
H265	H	-0.062090	-0.168561	0.123483
H266	H	0.012174	-0.218919	0.148732
H267	H	-0.024895	-0.193806	0.083629
H268	H	-0.026152	-0.279460	0.196466
H269	H	-0.063198	-0.254285	0.131323
O270	O	-0.573922	-0.614240	0.040336
C271	C	-0.654663	-0.609431	0.041449
C272	C	-0.625954	-0.579957	0.040631
H273	H	-0.696732	-0.581734	0.041699
H274	H	-0.656891	-0.609687	0.004518
H275	H	-0.631601	-0.658726	0.078777
H276	H	-0.648992	-0.530651	0.003328
H277	H	-0.623721	-0.579749	0.077586
H278	H	-0.019235	-0.142256	-0.159055
O279	O	-0.019009	-0.294048	-0.551583
C280	C	-0.063608	-0.341451	-0.508633
C281	C	-0.065793	-0.282125	-0.538265
H282	H	-0.101423	-0.331836	-0.497847
H283	H	-0.060407	-0.357769	-0.535415
H284	H	-0.027351	-0.378687	-0.470663
H285	H	-0.102047	-0.244849	-0.576235
H286	H	-0.068966	-0.265860	-0.511445
O287	O	-0.157001	-0.137177	0.157172
C288	C	-0.113529	-0.090006	0.157017
C289	C	-0.142246	-0.119475	0.185669
H290	H	-0.101601	-0.075674	0.180039
H291	H	-0.076311	-0.124736	0.154855
H292	H	-0.141451	-0.047749	0.114919
H293	H	-0.114367	-0.161727	0.227780
H294	H	-0.179471	-0.084706	0.187788
O295	O	-0.019009	-0.294081	-0.154508
C296	C	-0.060288	-0.343547	-0.105732
C297	C	-0.062469	-0.284224	-0.135435
H298	H	-0.095415	-0.335602	-0.090294
H299	H	-0.062458	-0.356524	-0.134165
H300	H	-0.021350	-0.382453	-0.070712
H301	H	-0.101401	-0.245279	-0.170454
H302	H	-0.060269	-0.271300	-0.106967
H303	H	-0.040160	0.003216	-0.573279
H304	H	-0.304201	-0.322192	0.161160
O305	O	-0.026925	-0.081394	-0.261112
C306	C	-0.033120	-0.001922	-0.344161
C307	C	-0.030880	-0.061284	-0.314410
H308	H	-0.036306	0.014347	-0.387255
H309	H	-0.069372	0.035344	-0.343465
H310	H	0.004703	-0.011538	-0.323772
H311	H	-0.068676	-0.051728	-0.334777
H312	H	0.005397	-0.098531	-0.315102
H313	H	-0.040120	0.003178	-0.430195
O314	O	-0.573914	-0.458905	0.040356
C315	C	-0.654697	-0.384029	0.041346
C316	C	-0.625983	-0.441395	0.040543
H317	H	-0.696804	-0.369847	0.041486
H318	H	-0.631713	-0.395045	0.078681
H319	H	-0.656841	-0.344696	0.004421
H320	H	-0.623832	-0.480753	0.077442
H321	H	-0.648978	-0.430328	0.003183
O322	O	-0.026903	0.159148	-0.501572
C323	C	-0.026461	0.164217	-0.425757
C324	C	-0.024216	0.191669	-0.482896
H325	H	-0.024278	0.190490	-0.410636
H326	H	-0.065396	0.168129	-0.425751
H327	H	0.008672	0.113673	-0.398565
H328	H	-0.059321	0.242220	-0.510120
H329	H	0.014741	0.187709	-0.482860
O330	O	-0.293537	-0.467587	0.019045
C331	C	-0.202777	-0.509547	0.060315
C332	C	-0.259937	-0.482105	0.062502
H333	H	-0.175598	-0.521281	0.095438
H334	H	-0.187623	-0.553117	0.062484
H335	H	-0.202804	-0.474514	0.021373
H336	H	-0.259955	-0.517092	0.101437
H337	H	-0.275068	-0.438524	0.060303
O338	O	-0.026975	-0.237142	-0.502320
C339	C	-0.077365	-0.221437	-0.445152
C340	C	-0.075112	-0.193852	-0.502289
H341	H	-0.116274	-0.186445	-0.445106
H342	H	-0.075259	-0.264939	-0.430168
H343	H	-0.042203	-0.233339	-0.417873
H344	H	-0.110268	-0.181913	-0.529608
H345	H	-0.077191	-0.150374	-0.517229
H346	H	-0.019230	0.253339	-0.554762
H347	H	-0.019210	0.253653	-0.698214
H348	H	-0.445184	-0.320548	0.019287
O349	O	-0.026834	0.159446	-0.657508
C350	C	-0.026423	0.164887	-0.738561
C351	C	-0.024225	0.192180	-0.708708
H352	H	-0.024326	0.191348	-0.779965
H353	H	0.008730	0.114365	-0.715334
H354	H	-0.065342	0.168768	-0.742494
H355	H	0.014671	0.188343	-0.704768
H356	H	-0.059405	0.242689	-0.731946
H357	H	-0.026568	-0.089866	-0.653596
H358	H	-0.019237	-0.142213	-0.698946
O359	O	-0.026886	-0.237316	-0.260615
C360	C	-0.026404	-0.318793	-0.254751
C361	C	-0.024186	-0.291164	-0.225242
H362	H	-0.024211	-0.362341	-0.226162
H363	H	-0.065335	-0.283877	-0.289769
H364	H	0.008733	-0.330636	-0.270164
H365	H	-0.059296	-0.279323	-0.209794
H366	H	0.014767	-0.326097	-0.190250
O367	O	-0.418358	0.385646	-0.426028
C368	C	-0.342464	0.303883	-0.345247
C369	C	-0.400655	0.333400	-0.373962
H370	H	-0.328136	0.261645	-0.303143
H371	H	-0.316152	0.289542	-0.368236
H372	H	-0.340036	0.338644	-0.343096
H373	H	-0.403134	0.298672	-0.376121
H374	H	-0.426940	0.347754	-0.350963
O375	O	-0.156964	-0.469400	0.157073
C376	C	-0.082310	-0.499037	0.125622
C377	C	-0.111022	-0.469607	0.154346
H378	H	-0.045166	-0.499202	0.123398
H379	H	-0.070263	-0.548354	0.148619
H380	H	-0.110273	-0.471299	0.083545
H381	H	-0.083088	-0.497296	0.196424
H382	H	-0.123078	-0.420285	0.131309
H383	H	-0.569746	0.532985	-0.573266
O384	O	-0.449506	0.135931	-0.154932
C385	C	-0.530559	0.141371	-0.160788
C386	C	-0.500706	0.168667	-0.190285
H387	H	-0.571964	0.167835	-0.189355
H388	H	-0.507334	0.090851	-0.145407
H389	H	-0.534491	0.145245	-0.125747
H390	H	-0.496767	0.164837	-0.225347
H391	H	-0.523943	0.219175	-0.205627
H392	H	-0.569753	0.389964	-0.430206
O393	O	-0.498394	-0.369204	0.026914
C394	C	-0.574190	-0.287931	0.026517
C395	C	-0.517037	-0.315382	0.024311
H396	H	-0.589276	-0.244418	0.024424
H397	H	-0.601423	-0.276096	-0.008636
H398	H	-0.574168	-0.322988	0.065437
H399	H	-0.517009	-0.280355	-0.014587
H400	H	-0.489829	-0.327231	0.059490
O401	O	-0.739529	0.159663	-0.502308
C402	C	-0.656633	0.082977	-0.428817
C403	C	-0.686196	0.110301	-0.485962
H404	H	-0.613511	0.043055	-0.415580
H405	H	-0.657413	0.119993	-0.427867
H406	H	-0.677107	0.065630	-0.400683
H407	H	-0.665744	0.127644	-0.514129
H408	H	-0.685420	0.073265	-0.486869
O409	O	-0.738993	-0.369253	0.026992
C410	C	-0.744501	-0.287975	0.026589
C411	C	-0.774211	-0.315385	0.024315
H412	H	-0.772965	-0.244411	0.024415
H413	H	-0.709485	-0.322993	0.065531
H414	H	-0.729065	-0.276210	-0.008537
H415	H	-0.789682	-0.327148	0.059414
H416	H	-0.809201	-0.280351	-0.014649
O417	O	-0.449521	-0.864063	0.018977
C418	C	-0.530550	-0.858672	0.019449
C419	C	-0.500687	-0.831399	0.021676
H420	H	-0.571918	-0.832283	0.021642
H421	H	-0.534554	-0.854752	-0.019485
H422	H	-0.507263	-0.909207	0.054584
H423	H	-0.523947	-0.780856	-0.013431
H424	H	-0.496676	-0.835367	0.060633
H425	H	-0.490217	0.230142	-0.256784
H426	H	-0.743179	0.483055	-0.509743
H427	H	-0.840896	0.535415	-0.554785
O428	O	-0.498387	-0.765873	0.026941
C429	C	-0.571663	-0.689092	0.033199
C430	C	-0.514513	-0.716612	0.030983
H431	H	-0.584715	-0.649268	0.036479
H432	H	-0.599914	-0.671590	-0.004633
H433	H	-0.572654	-0.726081	0.069433
H434	H	-0.513471	-0.679657	-0.005227
H435	H	-0.486288	-0.734130	0.068840
H436	H	-0.841216	0.678847	-0.698222
H437	H	-0.743490	0.626486	-0.653184
H438	H	-0.346709	-0.233340	-0.256801
O439	O	-0.342395	-0.237327	-0.501598
C440	C	-0.261506	-0.318630	-0.425785
C441	C	-0.291188	-0.291202	-0.482924
H442	H	-0.220104	-0.362200	-0.410666
H443	H	-0.257588	-0.283626	-0.425779
H444	H	-0.284874	-0.330392	-0.398593
H445	H	-0.267845	-0.279443	-0.510149
H446	H	-0.295112	-0.326223	-0.482888
H447	H	-0.490215	0.626864	-0.653559
H448	H	-0.445174	0.679524	-0.698898
O449	O	-0.845189	-0.312033	0.018910
C450	C	-0.918030	-0.204493	-0.031521
C451	C	-0.888467	-0.263859	-0.029272
H452	H	-0.953020	-0.165526	-0.070478
H453	H	-0.933476	-0.212298	0.003592
H454	H	-0.889451	-0.191696	-0.029357
H455	H	-0.917015	-0.276688	-0.031452
H456	H	-0.873013	-0.256022	-0.064381
O457	O	-0.845538	-0.467464	0.018946
C458	C	-0.928587	-0.457718	0.012750
C459	C	-0.898835	-0.430340	0.014992
H460	H	-0.971680	-0.427722	0.009564
H461	H	-0.927892	-0.459437	-0.023503
H462	H	-0.908199	-0.506297	0.050573
H463	H	-0.919202	-0.381750	-0.022804
H464	H	-0.899527	-0.428668	0.051270
H465	H	-0.444508	-0.142931	-0.698242
O466	O	-0.293573	0.532601	-0.551580
C467	C	-0.220273	0.542347	-0.555123
C468	C	-0.277413	0.569729	-0.584758
H469	H	-0.207186	0.572346	-0.581939
H470	H	-0.219249	0.540620	-0.517146
H471	H	-0.192067	0.493772	-0.544355
H472	H	-0.305652	0.618315	-0.595562
H473	H	-0.278394	0.571409	-0.622712
H474	H	-0.489870	-0.090268	-0.256484
H475	H	-0.743523	0.163324	-0.653612
H476	H	-0.346761	0.483749	-0.510407
O477	O	-0.342427	0.233659	-0.260602
C478	C	-0.261395	0.228260	-0.254732
C479	C	-0.291260	0.200988	-0.225226
H480	H	-0.220025	0.201866	-0.226140
H481	H	-0.257393	0.224349	-0.289749
H482	H	-0.284678	0.278793	-0.270145
H483	H	-0.268002	0.150447	-0.209778
H484	H	-0.295268	0.204947	-0.190234
H485	H	-0.301733	-0.860548	0.019286
O486	O	-0.293560	0.135459	-0.154416
C487	C	-0.220283	0.058673	-0.071349
C488	C	-0.277432	0.086193	-0.101095
H489	H	-0.207229	0.018845	-0.028231
H490	H	-0.192032	0.041176	-0.091675
H491	H	-0.219293	0.095659	-0.072112
H492	H	-0.278473	0.049240	-0.100341
H493	H	-0.305657	0.103705	-0.080760
O494	O	-0.498037	-0.081800	-0.657534
C495	C	-0.573646	-0.006613	-0.738591
C496	C	-0.516494	-0.065952	-0.708735
H497	H	-0.588582	0.006225	-0.779997
H498	H	-0.600962	-0.014446	-0.715368
H499	H	-0.573691	0.032339	-0.742521
H500	H	-0.516397	-0.104933	-0.704799
H501	H	-0.489202	-0.058068	-0.731971
H502	H	-0.346767	-0.770191	0.026621
H503	H	-0.346776	-0.516292	0.026600
O504	O	-0.574148	0.007799	-0.426150
C505	C	-0.574315	0.054929	-0.382633
C506	C	-0.545618	0.025414	-0.411303
H507	H	-0.551255	0.069167	-0.370611
H508	H	-0.616396	0.097231	-0.410562
H509	H	-0.576523	0.020195	-0.345463
H510	H	-0.543371	0.060101	-0.448471
H511	H	-0.503554	-0.016899	-0.383337
O512	O	-0.574118	0.007781	-0.581643
C513	C	-0.574294	0.055037	-0.672309
C514	C	-0.545618	0.025494	-0.614096
H515	H	-0.551270	0.069378	-0.698565
H516	H	-0.576489	0.020351	-0.674833
H517	H	-0.616379	0.097298	-0.686630
H518	H	-0.503520	-0.016762	-0.599738
H519	H	-0.543466	0.060220	-0.611605
O520	O	-0.418705	-0.147657	-0.426214
C521	C	-0.342808	-0.222522	-0.432099
C522	C	-0.401001	-0.165165	-0.460767
H523	H	-0.328479	-0.236703	-0.460019
H524	H	-0.316499	-0.211496	-0.420141
H525	H	-0.340377	-0.261860	-0.394893
H526	H	-0.403483	-0.125802	-0.497991
H527	H	-0.427283	-0.176242	-0.472685
H528	H	-0.301369	-0.286012	-0.159078
H529	H	-0.301364	-0.286010	-0.554791
H530	H	-0.841561	0.253985	-0.555818
H531	H	-0.444519	-0.142934	-0.158758
