data_functionalizedCrystal
_audit_creation_method	'MofGen! by Chris Wilmer'
_symmetry_space_group_name_H-M	'P1'
_symmetry_Int_Tables_number	1
_symmetry_cell_setting	triclinic
loop_
_symmetry_equiv_pos_as_xyz
  x,y,z
_cell_length_a	17.052863
_cell_length_b	17.052862
_cell_length_c	20.016444
_cell_angle_alpha	90.000359
_cell_angle_beta	70.266291
_cell_angle_gamma	61.492812
loop_
_atom_site_label
_atom_site_type_symbol
_atom_site_fract_x
_atom_site_fract_y
_atom_site_fract_z
Zr1	Zr	0.816734	-0.200481	0.774265
O2	O	0.944626	-0.328609	0.700486
O3	O	0.666012	-0.146288	0.780639
O4	O	0.783818	-0.307102	0.816437
O5	O	0.860746	-0.057907	0.654927
O6	O	0.783824	-0.307103	0.926378
O7	O	0.826820	-0.167795	0.664689
O8	O	0.573090	-0.019435	0.862342
O9	O	1.071480	-0.345575	0.718963
O10	O	0.736467	-0.141195	0.885030
O11	O	0.761781	-0.059187	0.795697
O12	O	0.900483	-0.248525	0.837845
O13	O	0.925797	-0.166517	0.748512
Zr14	Zr	0.870853	-0.025224	0.934040
Zr15	Zr	0.816744	-0.200482	0.949608
Zr16	Zr	0.870843	-0.025223	0.758697
Zr17	Zr	1.019052	-0.227539	0.803733
Zr18	Zr	0.668535	0.001834	0.904572
O19	O	1.021576	-0.079417	0.927666
O20	O	0.944639	-0.328611	0.949801
O21	O	1.021562	-0.079415	0.678351
O22	O	0.742962	0.102904	1.007819
O23	O	0.666026	-0.146290	1.029954
O24	O	0.742948	0.102906	0.758504
O25	O	0.826841	-0.167798	1.053378
O26	O	0.903770	0.081397	0.891868
O27	O	0.903764	0.081398	0.781927
O28	O	0.860768	-0.057910	1.043616
O29	O	1.071488	-0.345576	0.858337
O30	O	0.616100	0.119871	0.849968
O31	O	0.616108	0.119870	0.989342
O32	O	0.573098	-0.019437	1.001716
O33	O	1.114489	-0.206268	0.706589
O34	O	1.114497	-0.206270	0.845963
O35	O	0.787105	0.022820	0.870460
O36	O	0.761790	-0.059188	0.959793
O37	O	0.925806	-0.166518	0.912608
O38	O	0.951121	-0.084510	0.823275
C39	C	0.590725	-0.079006	0.817292
C40	C	0.504836	-0.067519	0.804782
C41	C	0.477702	-0.019312	0.752273
C42	C	0.397011	-0.008526	0.740512
C43	C	0.343442	-0.045939	0.781264
C44	C	0.370572	-0.094142	0.833778
C45	C	0.451275	-0.104936	0.845536
C46	C	0.317016	-0.131563	0.874527
C47	C	0.344146	-0.179766	0.927041
C48	C	0.424841	-0.190557	0.938797
C49	C	0.478410	-0.153143	0.898045
C50	C	0.236312	-0.120769	0.862769
C51	C	0.209886	-0.206393	0.956032
C52	C	0.290577	-0.217179	0.967793
C53	C	0.776112	-0.332073	0.873626
C54	C	0.753141	-0.406475	0.880235
C55	C	1.030857	-0.840307	0.800333
C56	C	1.052442	-0.770405	0.794119
C57	C	0.977619	-0.679419	0.815648
C58	C	0.881206	-0.658342	0.843391
C59	C	0.859619	-0.728250	0.849600
C60	C	0.806381	-0.567363	0.864914
C61	C	0.709968	-0.546286	0.892657
C62	C	0.688385	-0.616189	0.898866
C63	C	0.763209	-0.707174	0.877337
C64	C	0.827968	-0.497455	0.858705
C65	C	0.656730	-0.385399	0.907972
C66	C	0.635145	-0.455300	0.914186
C67	C	1.096862	-0.146699	0.891013
C68	C	1.182751	-0.158186	0.903523
C69	C	0.843782	-0.112851	0.634825
C70	C	0.843778	-0.112850	0.560388
C71	C	0.911476	0.106368	0.834679
C72	C	0.934447	0.180770	0.828070
C73	C	0.758176	-0.056825	0.413752
C74	C	0.758181	-0.056823	0.343808
C75	C	0.929419	-0.168883	0.294556
C76	C	0.929414	-0.168879	0.364499
C77	C	0.843789	-0.112851	0.424096
C78	C	0.843799	-0.112854	0.284209
C79	C	0.843805	-0.112853	0.208371
C80	C	0.843783	-0.112851	0.499939
C81	C	0.843806	-0.112854	1.073480
C82	C	0.843810	-0.112855	1.147917
C83	C	0.590737	-0.079008	1.036619
C84	C	0.504852	-0.067522	1.098547
C85	C	0.658407	0.140214	0.797819
C86	C	0.595489	0.226103	0.778700
C87	C	0.658419	0.140213	1.017146
C88	C	0.595505	0.226101	1.072465
C89	C	1.029168	-0.365918	0.691159
C90	C	1.092082	-0.451806	0.635840
C91	C	1.096850	-0.146697	0.671686
C92	C	1.182735	-0.158183	0.609758
C93	C	1.029180	-0.365920	0.910486
C94	C	1.092099	-0.451808	0.929605
C95	C	0.451299	-0.104942	1.088604
C96	C	0.370607	-0.094167	1.146788
C97	C	0.343466	-0.045966	1.214913
C98	C	0.397028	-0.008546	1.224855
C99	C	0.477722	-0.019327	1.166673
C100	C	0.579163	0.309251	0.808746
C101	C	0.520058	0.389958	0.790780
C102	C	0.477274	0.387515	0.742771
C103	C	0.493606	0.304358	0.712721
C104	C	0.552715	0.223652	0.730684
C105	C	0.552746	0.223627	1.145081
C106	C	0.493640	0.304319	1.197068
C107	C	0.477290	0.387486	1.176436
C108	C	0.520056	0.389957	1.103813
C109	C	0.579166	0.309264	1.051829
C110	C	1.134851	-0.449333	0.563226
C111	C	1.193982	-0.530029	0.511243
C112	C	1.210337	-0.613196	0.531875
C113	C	1.167565	-0.615666	0.604497
C114	C	1.108441	-0.534972	0.656479
C115	C	1.236295	-0.120772	0.619703
C116	C	1.317003	-0.131569	0.561524
C117	C	1.344146	-0.179772	0.493400
C118	C	1.290582	-0.217189	0.483456
C119	C	1.209879	-0.206397	0.541636
C120	C	1.134865	-0.449336	0.977616
C121	C	1.193974	-0.530029	0.995594
C122	C	1.210323	-0.613195	0.965557
C123	C	1.167549	-0.615665	0.917543
C124	C	1.108435	-0.534971	0.899569
H125	H	0.521328	0.011139	0.719095
H126	H	0.506769	0.457660	0.815256
F127	F	0.534707	0.020511	1.177265
H128	H	1.073616	-0.536995	0.715605
F129	F	0.624664	0.311911	0.974544
H130	H	1.312694	-0.256437	0.427982
F131	F	0.570140	0.135123	1.167055
F132	F	0.448064	0.301772	0.661628
F133	F	1.430040	-0.191250	0.431485
H134	H	0.745639	-0.764099	0.882397
F135	F	1.207426	-0.069468	0.692202
F136	F	1.373995	-0.091738	0.572120
H137	H	1.166272	-0.236861	0.533528
H138	H	0.374917	0.030699	1.280331
F139	F	1.117478	-0.360833	1.009593
H140	H	0.999135	-0.214501	0.372917
H141	H	1.228797	-0.528001	1.034688
F142	F	1.273242	-0.699069	0.984691
H143	H	1.180869	-0.683389	0.893090
F144	F	0.667062	0.002811	0.332803
H145	H	1.073620	-0.536997	0.860472
H146	H	0.429145	0.453237	0.728151
H147	H	1.228798	-0.528000	0.452114
H148	H	0.277741	-0.037154	0.771685
F149	F	0.207447	-0.069470	0.806881
H150	H	0.688457	-0.011195	0.462276
F151	F	0.368143	0.042773	0.684625
F152	F	0.585774	-0.593753	0.928381
H153	H	1.180889	-0.683390	0.621289
H154	H	0.458823	0.302292	1.256197
H155	H	0.556645	-0.438150	0.936774
F156	F	0.453722	-0.241872	0.994679
H157	H	0.473391	-0.144202	1.033140
H158	H	0.327005	-0.124641	1.138678
F159	F	0.624684	0.311872	0.859846
F160	F	0.570078	0.135163	0.698703
H161	H	0.544109	-0.161914	0.907624
H162	H	0.429157	0.453184	1.218772
H163	H	0.312677	-0.256427	1.010550
H164	H	0.166271	-0.236861	0.989215
H165	H	0.906469	-0.514625	0.836115
F166	F	0.502646	0.478476	1.081866
F167	F	0.257579	-0.034499	1.276829
F168	F	1.273264	-0.699072	0.476542
H169	H	1.121539	-0.381622	0.546412
F170	F	1.020541	-0.228509	0.231123
H171	H	1.130942	-0.787572	0.771531
F172	F	1.110478	-0.937136	0.777414
F173	F	0.577092	-0.288566	0.930883
F174	F	1.000595	-0.605025	0.809035
