data_functionalizedCrystal
_audit_creation_method	'MofGen! by Chris Wilmer'
_symmetry_space_group_name_H-M	'P1'
_symmetry_Int_Tables_number	1
_symmetry_cell_setting	triclinic
loop_
_symmetry_equiv_pos_as_xyz
  x,y,z
_cell_length_a	11.026660
_cell_length_b	10.654554
_cell_length_c	9.482900
_cell_angle_alpha	99.425924
_cell_angle_beta	78.636107
_cell_angle_gamma	96.535790
loop_
_atom_site_label
_atom_site_type_symbol
_atom_site_fract_x
_atom_site_fract_y
_atom_site_fract_z
O1	O	1.633381	0.511445	-0.120904
O2	O	1.279571	0.451453	-0.120904
O3	O	1.464607	0.300476	-0.120896
O4	O	1.448345	0.662422	-0.120911
O5	O	1.427023	0.331300	0.120895
O6	O	1.241988	0.482277	0.120887
O7	O	1.595797	0.542269	0.120887
Cu8	Cu	1.415461	0.515087	0.142964
Cu9	Cu	1.459908	0.478634	-0.142981
O10	O	1.410762	0.693246	0.120879
C11	C	1.215476	0.455797	-0.000009
C12	C	1.080484	0.422804	-0.000009
C13	C	1.444620	0.268831	-0.000002
C14	C	1.441044	0.128611	-0.000005
C15	C	0.867926	0.479815	-0.000016
C16	C	1.007446	0.513918	-0.000014
C17	C	1.546638	-0.058980	-0.000023
C18	C	1.549997	0.072772	-0.000009
C19	C	1.328723	0.052691	-0.000002
C20	C	1.325364	-0.079058	-0.000006
C21	C	1.655600	-0.114813	-0.000041
C22	C	1.767920	-0.038902	-0.000042
C23	C	1.771279	0.092851	-0.000028
C24	C	1.662317	0.148692	-0.000012
C25	C	1.659894	0.537924	-0.000011
C26	C	1.794886	0.570916	-0.000021
C27	C	1.430749	0.724891	-0.000018
C28	C	1.434326	0.865109	-0.000024
N29	N	1.384208	0.540728	0.344083
N30	N	1.491170	0.452986	-0.344100
C31	C	1.450681	0.486188	0.416285
C32	C	1.424687	0.507534	0.583702
H33	H	1.048198	0.617168	-0.000009
H34	H	1.526831	0.423687	0.354160
O35	O	1.293277	0.615122	0.418349
C36	C	1.203884	0.542091	0.506385
H37	H	1.247730	0.457315	0.529028
H38	H	1.168683	0.603901	0.613486
H39	H	1.122954	0.506003	0.447834
O40	O	1.873864	-0.092927	0.000010
C41	C	1.973718	0.002326	-0.000020
H42	H	1.936563	0.099129	0.045769
H43	H	2.039216	-0.019777	0.070171
H44	H	2.026121	0.004652	-0.116019
H45	H	1.039747	0.319543	-0.000101
O46	O	1.665701	0.276717	0.000202
C47	C	1.708010	0.342194	0.125452
H48	H	1.764187	0.277452	0.167196
H49	H	1.769021	0.431686	0.097299
H50	H	1.625038	0.370389	0.213140
H51	H	0.835644	0.674159	-0.000016
H52	H	1.348524	0.570028	0.645823
O53	O	1.880336	0.166699	-0.000217
C54	C	1.908375	0.227530	-0.125456
H55	H	1.819308	0.233236	-0.167196
H56	H	1.953188	0.328013	-0.097289
H57	H	1.975301	0.170535	-0.213152
O58	O	1.223012	0.107127	-0.000064
C59	C	1.250056	0.239695	-0.000027
H60	H	1.352712	0.260482	-0.045800
H61	H	1.191592	0.274409	-0.070228
H62	H	1.227733	0.291391	0.115972
O63	O	1.216374	-0.152965	-0.000206
C64	C	1.227270	-0.245713	-0.125451
H65	H	1.329314	-0.262044	-0.167203
H66	H	1.173715	-0.339024	-0.097288
H67	H	1.187591	-0.211074	-0.213137
O68	O	1.652525	-0.242806	-0.000247
C69	C	1.731522	-0.297271	-0.125503
H70	H	1.804545	-0.220802	-0.167250
H71	H	1.779290	-0.376891	-0.097356
H72	H	1.674612	-0.338161	-0.213186
O73	O	1.581748	0.378079	0.581793
C74	C	1.529116	0.274679	0.494009
H75	H	1.438140	0.300854	0.471231
H76	H	1.596178	0.252179	0.386961
H77	H	1.510470	0.187395	0.552850
H78	H	0.827164	0.376576	0.000010
