data_functionalizedCrystal
_audit_creation_method	'MofGen! by Chris Wilmer'
_symmetry_space_group_name_H-M	'P1'
_symmetry_Int_Tables_number	1
_symmetry_cell_setting	triclinic
loop_
_symmetry_equiv_pos_as_xyz
  x,y,z
_cell_length_a	12.759401
_cell_length_b	11.169416
_cell_length_c	12.759393
_cell_angle_alpha	90.028644
_cell_angle_beta	90.019684
_cell_angle_gamma	90.009454
loop_
_atom_site_label
_atom_site_type_symbol
_atom_site_fract_x
_atom_site_fract_y
_atom_site_fract_z
Zn1	Zn	1.606287	-0.477765	0.594036
Zn2	Zn	1.606195	-0.678497	0.418365
Zn3	Zn	1.430589	-0.477824	0.418372
Zn4	Zn	1.430591	-0.678401	0.594003
O5	O	1.518416	-0.578122	0.506194
O6	O	1.753296	-0.504408	0.570744
O7	O	1.582861	-0.651943	0.271345
O8	O	1.453934	-0.309866	0.441691
O9	O	1.753228	-0.651885	0.441679
O10	O	1.583018	-0.309823	0.570750
O11	O	1.453844	-0.504509	0.271350
O12	O	1.283568	-0.504415	0.441659
O13	O	1.453937	-0.651722	0.741028
O14	O	1.283570	-0.651779	0.570694
O15	O	1.583020	-0.504315	0.741053
O16	O	1.582863	-0.846434	0.441647
O17	O	1.453848	-0.846364	0.570687
C18	C	1.245448	-0.578094	0.506174
C19	C	1.128672	-0.578111	0.506190
C20	C	1.518374	-0.889947	0.506186
C21	C	1.518452	-1.023346	0.506218
C22	C	1.073778	-0.501278	0.439125
C23	C	0.964054	-0.501306	0.439139
C24	C	0.964127	-0.655004	0.573291
C25	C	1.073849	-0.654981	0.573272
C26	C	1.073735	-0.412538	0.361676
C27	C	0.964011	-0.412566	0.361690
C28	C	1.792449	-0.578151	0.506215
C29	C	1.909226	-0.578163	0.506223
C30	C	1.518489	-0.578001	0.780227
C31	C	1.518521	-0.577949	0.897004
C32	C	1.518486	-0.265079	0.506225
C33	C	1.518516	-0.131679	0.506238
C34	C	1.518403	-0.578156	0.233227
C35	C	1.518575	-0.577869	0.116450
C36	C	1.585743	-0.501187	0.951880
C37	C	1.585768	-0.501144	1.061605
C38	C	1.451345	-0.654635	1.061566
C39	C	1.451315	-0.654671	0.951844
C40	C	1.663355	-0.412574	0.951904
C41	C	1.663380	-0.412530	1.061628
H42	H	1.118539	-0.717558	0.627873
F43	F	1.112605	-0.444919	0.255266
F44	F	1.634894	-0.291089	0.912999
F45	F	0.925094	-0.291120	0.390360
H46	H	1.744752	-0.437427	1.091409
H47	H	1.107781	-0.324276	0.390950
F48	F	1.379824	-0.736283	1.119940
H49	H	1.740629	-0.445896	0.917871
H50	H	1.634261	-0.324216	1.095671
F51	F	0.905771	-0.736815	0.644677
H52	H	0.929942	-0.445760	0.284347
F53	F	1.379753	-0.736355	0.893444
