data_functionalizedCrystal
_audit_creation_method	'MofGen! by Chris Wilmer'
_symmetry_space_group_name_H-M	'P1'
_symmetry_Int_Tables_number	1
_symmetry_cell_setting	triclinic
loop_
_symmetry_equiv_pos_as_xyz
  x,y,z
_cell_length_a	6.817900
_cell_length_b	10.773890
_cell_length_c	11.452834
_cell_angle_alpha	83.898980
_cell_angle_beta	108.697278
_cell_angle_gamma	96.645716
loop_
_atom_site_label
_atom_site_type_symbol
_atom_site_fract_x
_atom_site_fract_y
_atom_site_fract_z
V1	V	-4.035208	-0.090182	-0.379610
O2	O	-4.058245	0.089583	-0.374435
O3	O	-3.952348	-0.260805	-0.375040
O4	O	-4.006149	-0.051389	-0.546071
O5	O	-4.004071	-0.121283	-0.202221
V6	V	-4.520796	-0.073100	-0.358632
O7	O	-4.291939	-0.127653	-0.425625
O8	O	-4.714262	-0.035629	-0.312616
O9	O	-4.380449	0.097523	-0.363202
O10	O	-4.615156	-0.252865	-0.363807
O11	O	-4.669329	-0.041999	-0.536021
O12	O	-4.326648	-0.111893	-0.192171
C13	C	-3.788340	-0.303569	-0.368543
C14	C	-3.802008	-0.442815	-0.365916
C15	C	-3.856968	-0.036436	-0.586707
C16	C	-3.914264	-0.005847	-0.722777
C17	C	-3.980613	-0.509687	-0.370480
C18	C	-3.994743	-0.653605	-0.367766
C19	C	-3.958079	-0.097440	-0.798800
C20	C	-4.017298	-0.065828	-0.939436
C21	C	-4.207798	0.140279	-0.369696
C22	C	-4.173369	0.279526	-0.372330
C23	C	-4.139170	-0.126852	-0.151528
C24	C	-4.061113	-0.157434	-0.015457
H25	H	-4.123065	-0.460391	-0.376404
H26	H	-3.920606	0.095973	-0.761809
H27	H	-4.054792	-0.259262	-0.976434
H28	H	-4.315835	-0.671186	-0.378252
H29	H	-3.852284	-0.702894	-0.361855
O30	O	-4.025172	0.055663	-0.985935
C31	C	-4.181374	0.249123	-1.003472
C32	C	-4.172696	0.111553	-0.950760
H33	H	-4.300605	0.294359	-0.975032
H34	H	-4.227916	0.253045	-1.108609
H35	H	-4.021889	0.301836	-0.965725
H36	H	-4.332125	0.058757	-0.988413
H37	H	-4.126042	0.107723	-0.845624
O38	O	-3.631841	-0.501479	-0.358690
C39	C	-3.278722	-0.539362	-0.241246
C40	C	-3.471278	-0.472836	-0.249291
H41	H	-3.148872	-0.516250	-0.152792
H42	H	-3.224335	-0.506227	-0.324581
H43	H	-3.320474	-0.644948	-0.240377
H44	H	-3.429687	-0.367241	-0.250123
H45	H	-3.525618	-0.506073	-0.165960
O46	O	-3.950347	-0.218845	-0.752041
C47	C	-3.884482	-0.361052	-0.569247
C48	C	-3.893109	-0.223504	-0.622029
H49	H	-3.838250	-0.364865	-0.464128
H50	H	-3.765056	-0.406340	-0.597467
H51	H	-4.043918	-0.413791	-0.607092
H52	H	-3.733767	-0.170661	-0.584211
H53	H	-4.012641	-0.178313	-0.593820
