data_functionalizedCrystal
_audit_creation_method	'MofGen! by Chris Wilmer'
_symmetry_space_group_name_H-M	'P1'
_symmetry_Int_Tables_number	1
_symmetry_cell_setting	triclinic
loop_
_symmetry_equiv_pos_as_xyz
  x,y,z
_cell_length_a	15.995350
_cell_length_b	15.995350
_cell_length_c	15.072220
_cell_angle_alpha	90.008851
_cell_angle_beta	90.001101
_cell_angle_gamma	96.507625
loop_
_atom_site_label
_atom_site_type_symbol
_atom_site_fract_x
_atom_site_fract_y
_atom_site_fract_z
O1	O	0.107921	-1.110996	-0.073703
O2	O	0.121249	-0.867221	-0.073721
O3	O	-0.007303	-0.995772	-0.073710
O4	O	0.236472	-0.982444	-0.073713
O5	O	-0.007296	-0.995740	0.073855
O6	O	0.121256	-0.867189	0.073844
O7	O	0.107928	-1.110964	0.073862
Zn8	Zn	0.114593	-0.989071	0.097283
Zn9	Zn	0.114584	-0.989113	-0.097141
O10	O	0.236480	-0.982413	0.073852
C11	C	0.120701	-0.836010	0.000060
C12	C	0.119049	-0.743060	0.000053
C13	C	-0.038494	-0.995205	0.000070
C14	C	-0.131444	-0.993553	0.000065
C15	C	0.108476	-1.142175	0.000080
C16	C	0.110127	-1.235125	0.000081
C17	C	-0.469192	-0.987621	0.000068
C18	C	-0.421758	-0.896069	-0.000270
C19	C	-0.325068	-0.897721	0.000063
C20	C	-0.301631	-0.990564	0.000066
C21	C	-0.342705	-1.035702	0.084335
C22	C	-0.439341	-1.033402	0.084405
C23	C	-0.439707	-1.035330	-0.083404
C24	C	-0.342761	-1.035308	-0.084518
C25	C	-0.206934	-0.992231	0.000068
C26	C	-0.563890	-0.985956	0.000072
C27	C	0.267671	-0.982980	0.000069
C28	C	0.360621	-0.984631	0.000069
N29	N	0.114599	-0.989049	0.229971
C30	C	0.113117	-0.405312	0.000071
C31	C	0.021565	-0.452746	0.000401
C32	C	0.023217	-0.549436	0.000063
C33	C	0.116060	-0.572873	0.000063
C34	C	0.161212	-0.531804	-0.084201
C35	C	0.158912	-0.435168	-0.084266
C36	C	0.160812	-0.434793	0.083543
C37	C	0.160790	-0.531738	0.084651
C38	C	0.117727	-0.667570	0.000055
C39	C	0.111452	-0.310614	0.000073
N40	N	0.114571	-0.989142	-0.229830
C41	C	0.114580	-0.989112	0.589173
C42	C	0.183135	-0.920095	0.551560
C43	C	0.183385	-0.920254	0.448735
C44	C	0.114590	-0.989080	0.410969
C45	C	0.133671	-1.076445	0.448266
C46	C	0.134159	-1.076058	0.551124
C47	C	0.026741	-0.971542	0.551272
C48	C	0.027327	-0.969537	0.448409
C49	C	0.114593	-0.989067	0.310255
C50	C	0.114579	-0.989130	0.689886
H51	H	-0.296649	-0.862238	-0.060344
C52	C	0.120378	-0.407054	0.169835
C53	C	0.172698	-0.348852	0.235558
C54	C	0.132253	-0.321119	0.321845
C55	C	0.039489	-0.351587	0.342409
C56	C	-0.012836	-0.409792	0.276684
C57	C	0.027609	-0.437525	0.190397
H58	H	0.241373	-0.326295	0.220337
H59	H	0.170988	-0.278032	0.370499
H60	H	0.009549	-0.331057	0.406283
H61	H	-0.081511	-0.432350	0.291905
H62	H	-0.011126	-0.480613	0.141743
H63	H	0.129845	-0.560191	-0.146912
H64	H	-0.440293	-0.859490	-0.060701
C65	C	0.116558	-0.568961	0.168880
C66	C	0.148865	-0.538956	0.261063
C67	C	0.104775	-0.576354	0.345294
C68	C	0.028377	-0.643758	0.337341
C69	C	-0.003935	-0.673767	0.245155
C70	C	0.040156	-0.636368	0.160924
H71	H	0.205423	-0.489056	0.266953
H72	H	0.128694	-0.554139	0.413536
H73	H	-0.004261	-0.671442	0.399694
H74	H	-0.060493	-0.723666	0.239265
H75	H	0.016236	-0.658583	0.092681
H76	H	0.248570	-0.931473	0.424121
H77	H	0.247952	-0.931160	0.577399
C78	C	0.252000	-0.391885	0.084324
C79	C	0.325991	-0.445614	0.081716
C80	C	0.417174	-0.402701	0.082490
C81	C	0.434366	-0.306060	0.085870
C82	C	0.360373	-0.252325	0.088478
C83	C	0.269190	-0.295237	0.087705
H84	H	0.313266	-0.517159	0.079214
H85	H	0.471948	-0.442480	0.080559
H86	H	0.501865	-0.274293	0.086443
H87	H	0.373098	-0.180780	0.090981
H88	H	0.214415	-0.255459	0.089635
C89	C	-0.027874	-0.427704	0.082035
C90	C	-0.119464	-0.466484	0.096308
C91	C	-0.168904	-0.441436	0.177945
C92	C	-0.126754	-0.377607	0.245308
C93	C	-0.035159	-0.338823	0.231036
C94	C	0.014281	-0.363871	0.149399
H95	H	-0.150670	-0.513737	0.046441
H96	H	-0.236709	-0.470146	0.188509
H97	H	-0.163352	-0.359064	0.305740
H98	H	-0.003953	-0.291569	0.280904
H99	H	0.082086	-0.335160	0.138835
H100	H	0.226128	-0.402920	-0.088090
C101	C	-0.448217	-0.846831	0.080906
C102	C	-0.512648	-0.889389	0.147406
C103	C	-0.539110	-0.840154	0.228582
C104	C	-0.501139	-0.748360	0.243257
C105	C	-0.436703	-0.705797	0.176755
C106	C	-0.410242	-0.755033	0.095579
H107	H	-0.540760	-0.957345	0.136544
H108	H	-0.586809	-0.871662	0.277811
H109	H	-0.520727	-0.711913	0.303348
H110	H	-0.408592	-0.637841	0.187617
H111	H	-0.362542	-0.723524	0.046350
C112	C	-0.305965	-0.990774	-0.168766
C113	C	-0.259594	-1.039820	-0.237528
C114	C	-0.222829	-0.995276	-0.321787
C115	C	-0.232436	-0.901687	-0.337284
C116	C	-0.278810	-0.852636	-0.268520
C117	C	-0.315575	-0.897180	-0.184261
H118	H	-0.252480	-1.109104	-0.226058
H119	H	-0.188500	-1.031587	-0.372690
H120	H	-0.205221	-0.868713	-0.399657
H121	H	-0.285924	-0.783352	-0.279989
H122	H	-0.349903	-0.860869	-0.133358
C123	C	0.219229	-1.097864	0.413465
C124	C	0.271843	-1.036240	0.351253
C125	C	0.357403	-1.057654	0.316454
C126	C	0.390348	-1.140692	0.343866
C127	C	0.337733	-1.202321	0.406081
C128	C	0.252173	-1.180908	0.440880
H129	H	0.247456	-0.974765	0.330957
H130	H	0.396352	-1.012031	0.270398
H131	H	0.453684	-1.156543	0.318105
H132	H	0.362120	-1.263796	0.426377
H133	H	0.213224	-1.226530	0.486936
H134	H	-0.314320	-1.004325	0.147042
H135	H	-0.471468	-1.102831	-0.083968
H136	H	0.228494	-0.547102	0.089741
C137	C	-0.024745	-0.587829	0.081655
C138	C	0.004813	-0.560877	0.175682
C139	C	-0.043159	-0.599264	0.257274
C140	C	-0.120688	-0.664601	0.244839
C141	C	-0.150250	-0.691556	0.150808
C142	C	-0.102278	-0.653169	0.069216
H143	H	0.062209	-0.512508	0.184891
H144	H	-0.021275	-0.579310	0.326882
H145	H	-0.156200	-0.693017	0.305238
H146	H	-0.207646	-0.739925	0.141600
H147	H	-0.124162	-0.673123	-0.000392
H148	H	-0.014865	-0.433165	-0.059694
H149	H	-0.297200	-0.861974	0.060568
H150	H	0.008392	-0.909219	0.577258
H151	H	0.229421	-0.545929	-0.087335
H152	H	-0.457639	-1.000460	0.147395
C153	C	-0.323622	-1.127846	0.088583
C154	C	-0.270394	-1.163261	0.015406
C155	C	-0.251309	-1.255405	0.019652
C156	C	-0.285452	-1.312134	0.097075
C157	C	-0.338683	-1.276720	0.170257
C158	C	-0.357768	-1.184576	0.166011
H159	H	-0.245116	-1.121266	-0.041912
H160	H	-0.211904	-1.281620	-0.034522
H161	H	-0.271324	-1.380344	0.100218
H162	H	-0.363960	-1.318715	0.227575
H163	H	-0.397173	-1.158361	0.220186
H164	H	0.172016	-0.855314	0.423519
C165	C	-0.025051	-0.587096	-0.081686
C166	C	-0.065218	-0.529177	-0.146867
C167	C	-0.113485	-0.566835	-0.228621
C168	C	-0.121585	-0.662412	-0.245196
C169	C	-0.081417	-0.720337	-0.180013
C170	C	-0.033150	-0.682679	-0.098258
H171	H	-0.059223	-0.458419	-0.134599
H172	H	-0.143220	-0.523955	-0.276874
H173	H	-0.157315	-0.690289	-0.305715
H174	H	-0.087412	-0.791095	-0.192281
H175	H	-0.003414	-0.725559	-0.050006
C176	C	0.114417	-0.410446	-0.169355
C177	C	0.081222	-0.478601	-0.236774
C178	C	0.036725	-0.453885	-0.321864
C179	C	0.025423	-0.361012	-0.339536
C180	C	0.058619	-0.292851	-0.272115
C181	C	0.103116	-0.317568	-0.187025
H182	H	0.089588	-0.547356	-0.223694
H183	H	0.012151	-0.504343	-0.371773
H184	H	-0.007516	-0.342716	-0.402525
H185	H	0.050254	-0.224096	-0.285195
H186	H	0.127690	-0.267110	-0.137116
C187	C	0.220701	-1.096966	0.583530
C188	C	0.288887	-1.113899	0.515818
C189	C	0.375432	-1.134805	0.548219
C190	C	0.393790	-1.138778	0.648332
C191	C	0.325603	-1.121845	0.716051
C192	C	0.239058	-1.100939	0.683650
H193	H	0.275298	-1.110958	0.441702
H194	H	0.425909	-1.147340	0.498088
H195	H	0.457856	-1.154254	0.672317
H196	H	0.339191	-1.124786	0.790166
H197	H	0.188581	-1.088404	0.733780
H198	H	0.012846	-0.905271	0.424032
C199	C	-0.044826	-1.033032	0.413688
C200	C	-0.025685	-1.104058	0.350451
C201	C	-0.097836	-1.167561	0.315731
C202	C	-0.189129	-1.160038	0.344249
C203	C	-0.208274	-1.089010	0.407490
C204	C	-0.136122	-1.025507	0.442209
H205	H	0.041898	-1.109630	0.329337
H206	H	-0.083664	-1.220141	0.268916
H207	H	-0.242539	-1.207047	0.318547
H208	H	-0.275857	-1.083438	0.428603
H209	H	-0.150295	-0.972927	0.489025
H210	H	-0.024275	-1.021872	0.575595
C211	C	0.167985	-0.832067	0.584928
C212	C	0.093186	-0.821771	0.646746
C213	C	0.078008	-0.733735	0.680082
C214	C	0.137629	-0.655995	0.651599
C215	C	0.212433	-0.666289	0.589777
C216	C	0.227611	-0.754325	0.556442
H217	H	0.049046	-0.879321	0.667834
H218	H	0.022632	-0.726115	0.725846
H219	H	0.126393	-0.590825	0.676276
H220	H	0.256573	-0.608738	0.568689
H221	H	0.282987	-0.761944	0.510677
C222	C	-0.467454	-0.994914	-0.169692
C223	C	-0.517251	-0.918065	-0.165458
C224	C	-0.544997	-0.877639	-0.251741
C225	C	-0.522947	-0.914061	-0.342256
C226	C	-0.473148	-0.990914	-0.346493
C227	C	-0.445401	-1.031340	-0.260211
H228	H	-0.533576	-0.891100	-0.098450
H229	H	-0.581863	-0.820748	-0.248604
H230	H	-0.543487	-0.884136	-0.406128
H231	H	-0.456823	-1.017879	-0.413502
H232	H	-0.408536	-1.088231	-0.263348
H233	H	-0.471588	-1.100617	0.088231
H234	H	-0.327400	-1.103014	-0.089603
H235	H	0.085068	-1.129029	0.423801
H236	H	0.086195	-1.129019	0.576003
