data_functionalizedCrystal
_audit_creation_method	'MofGen! by Chris Wilmer'
_symmetry_space_group_name_H-M	'P1'
_symmetry_Int_Tables_number	1
_symmetry_cell_setting	triclinic
loop_
_symmetry_equiv_pos_as_xyz
  x,y,z
_cell_length_a	19.188930
_cell_length_b	19.188930
_cell_length_c	16.176319
_cell_angle_alpha	90.008567
_cell_angle_beta	90.019857
_cell_angle_gamma	83.144779
loop_
_atom_site_label
_atom_site_type_symbol
_atom_site_fract_x
_atom_site_fract_y
_atom_site_fract_z
O1	O	0.926147	0.087166	0.069022
O2	O	0.722835	0.098900	0.068966
O3	O	0.830358	-0.008622	0.068979
O4	O	0.818624	0.194689	0.069008
O5	O	0.830345	-0.008623	-0.068514
O6	O	0.722823	0.098900	-0.068527
O7	O	0.926134	0.087166	-0.068472
Cu8	Cu	0.824477	0.093033	-0.081054
Cu9	Cu	0.824492	0.093033	0.081548
O10	O	0.818611	0.194689	-0.068485
C11	C	0.696818	0.098520	0.000212
C12	C	0.619313	0.097380	0.000190
C13	C	0.574389	0.160470	0.000212
C14	C	0.501566	0.159399	0.000221
C15	C	0.473669	0.095233	0.000225
C16	C	0.518603	0.032133	0.000198
C17	C	0.591425	0.033207	0.000181
N18	N	0.365693	0.046186	0.047046
N19	N	0.296515	0.045170	0.047064
C20	C	0.254260	0.091994	0.000275
N21	N	0.283797	0.139883	-0.046523
N22	N	0.352982	0.140901	-0.046537
C23	C	0.394707	0.094062	0.000243
C24	C	0.130372	0.153928	0.000305
C25	C	0.057547	0.152853	0.000309
C26	C	0.074586	0.025586	0.000294
C27	C	0.147409	0.026662	0.000282
C28	C	0.175298	0.090835	0.000292
C29	C	0.829972	-0.034634	0.000230
C30	C	0.828831	-0.112138	0.000223
C31	C	0.891922	-0.157062	0.000236
C32	C	0.890850	-0.229886	0.000249
C33	C	0.826684	-0.257782	0.000232
C34	C	0.763585	-0.212849	0.000223
C35	C	0.764658	-0.140026	0.000219
N36	N	0.777632	-0.365787	-0.046573
N37	N	0.776617	-0.434966	-0.046570
C38	C	0.823446	-0.477191	0.000248
N39	N	0.871339	-0.447625	0.047053
N40	N	0.872357	-0.378441	0.047047
C41	C	0.825513	-0.336745	0.000238
C42	C	0.885379	-0.601079	0.000276
C43	C	0.884305	-0.673904	0.000294
C44	C	0.757038	-0.656865	0.000261
C45	C	0.758114	-0.584042	0.000251
C46	C	0.822286	-0.556154	0.000255
C47	C	0.952151	0.087546	0.000284
C48	C	1.029656	0.088687	0.000311
C49	C	0.818997	0.220700	0.000266
C50	C	0.820138	0.298204	0.000279
N51	N	0.824472	0.093032	-0.195419
C52	C	0.866684	0.135276	-0.238661
C53	C	0.866692	0.135273	-0.325208
C54	C	0.824482	0.093030	-0.368511
C55	C	0.782268	0.050782	-0.325263
C56	C	0.782265	0.050781	-0.238718
C57	C	0.782281	0.050782	-0.674292
C58	C	0.782286	0.050788	-0.760843
C59	C	0.866708	0.135275	-0.760782
C60	C	0.866705	0.135274	-0.674236
C61	C	0.824494	0.093023	-0.630996
C62	C	0.824487	0.093026	-0.537152
C63	C	0.824485	0.093031	-0.462354
N64	N	0.824503	0.093028	0.195913
H65	H	0.051874	-0.026659	0.000349
O66	O	0.491624	-0.030259	0.000169
C67	C	0.516208	-0.156374	0.000203
C68	C	0.546853	-0.085763	0.000220
H69	H	0.560845	-0.201268	0.000262
H70	H	0.482536	-0.160108	-0.057342
H71	H	0.482545	-0.160019	0.057740
H72	H	0.580547	-0.082070	-0.057278
H73	H	0.580484	-0.082060	0.057802
O74	O	0.741284	0.009810	-0.367451
C75	C	0.703860	-0.027630	-0.500800
C76	C	0.750299	0.018815	-0.453130
H77	H	0.711143	-0.020377	-0.570079
H78	H	0.646471	-0.011947	-0.483830
H79	H	0.719623	-0.084996	-0.483773
H80	H	0.734598	0.076194	-0.470132
H81	H	0.807676	0.003072	-0.470104
H82	H	0.944176	-0.134360	0.000242
O83	O	0.601363	0.222867	0.000176
C84	C	0.576774	0.348982	0.000243
C85	C	0.546132	0.278369	0.000268
H86	H	0.532135	0.393874	0.000335
H87	H	0.610388	0.352715	-0.057320
H88	H	0.610495	0.352629	0.057761
H89	H	0.512380	0.274674	-0.057211
H90	H	0.512559	0.274666	0.057870
O91	O	0.457845	0.220641	0.000358
C92	C	0.365800	0.293292	0.071660
C93	C	0.415260	0.223903	0.071596
H94	H	0.331367	0.295958	0.129258
H95	H	0.331202	0.295983	0.014169
H96	H	0.398255	0.339330	0.071622
H97	H	0.382860	0.177826	0.071663
H98	H	0.449859	0.221273	0.129082
O99	O	0.696780	-0.540471	0.000338
C100	C	0.588361	-0.503588	0.071561
C101	C	0.657791	-0.552983	0.071553
H102	H	0.556825	-0.513676	0.129141
H103	H	0.556718	-0.513723	0.014052
H104	H	0.600165	-0.446754	0.071520
H105	H	0.646050	-0.609834	0.071623
H106	H	0.689413	-0.542786	0.129057
H107	H	0.747891	0.016382	-0.203511
H108	H	0.628003	-0.018171	0.000163
H109	H	0.901073	0.169675	-0.638983
O110	O	0.157352	0.216323	0.000269
C111	C	0.132768	0.342438	0.000332
C112	C	0.102123	0.271826	0.000354
H113	H	0.088130	0.387332	0.000418
H114	H	0.166387	0.346169	-0.057227
H115	H	0.166483	0.346085	0.057854
H116	H	0.068376	0.268132	-0.057129
H117	H	0.068544	0.268126	0.057951
O118	O	0.947668	-0.573898	0.000401
C119	C	1.022757	-0.501583	0.071671
C120	C	0.952185	-0.532304	0.071622
H121	H	1.026438	-0.467959	0.129256
H122	H	1.026448	-0.467882	0.014167
H123	H	1.067657	-0.546214	0.071651
H124	H	0.907244	-0.487718	0.071671
H125	H	0.948555	-0.566024	0.129122
H126	H	0.020970	0.204232	0.000322
H127	H	0.183988	-0.024713	0.000269
H128	H	0.704792	-0.679578	0.000251
H129	H	0.942228	-0.266470	0.000263
H130	H	0.711340	-0.235567	0.000212
O131	O	0.907646	0.176412	-0.196691
C132	C	0.934518	0.293861	-0.170141
C133	C	0.888088	0.247356	-0.217735
H134	H	0.918712	0.351229	-0.187125
H135	H	0.991903	0.278209	-0.187151
H136	H	0.927279	0.286570	-0.100861
H137	H	0.895265	0.254623	-0.287026
H138	H	0.830720	0.263019	-0.200656
O139	O	0.907795	0.176272	-0.367118
C140	C	1.025216	0.203234	-0.393562
C141	C	0.978745	0.156763	-0.346036
H142	H	1.082590	0.187468	-0.376548
H143	H	1.009522	0.260611	-0.376524
H144	H	1.017938	0.195994	-0.462853
H145	H	0.985999	0.163941	-0.276734
H146	H	0.994450	0.099403	-0.363143
O147	O	0.907739	0.176377	-0.802659
C148	C	0.991507	0.260148	-0.793460
C149	C	0.945065	0.213646	-0.745935
H150	H	1.021709	0.290281	-0.747620
H151	H	0.957084	0.298840	-0.833967
H152	H	1.030149	0.225704	-0.833987
H153	H	0.906417	0.248034	-0.705364
H154	H	0.979532	0.174949	-0.705480
H155	H	0.935683	-0.710481	0.000310
O156	O	0.741267	0.009682	-0.802783
C157	C	0.657506	-0.074098	-0.793720
C158	C	0.703935	-0.027597	-0.746120
H159	H	0.627299	-0.104239	-0.747928
H160	H	0.691939	-0.112784	-0.834210
H161	H	0.618868	-0.039653	-0.834270
H162	H	0.742578	-0.061986	-0.705524
H163	H	0.669457	0.011093	-0.705682
H164	H	0.747911	0.016379	-0.639096
H165	H	0.713281	-0.103449	0.000208
