data_functionalizedCrystal
_audit_creation_method	'MofGen! by Chris Wilmer'
_symmetry_space_group_name_H-M	'P1'
_symmetry_Int_Tables_number	1
_symmetry_cell_setting	triclinic
loop_
_symmetry_equiv_pos_as_xyz
  x,y,z
_cell_length_a	12.645330
_cell_length_b	14.908618
_cell_length_c	14.908803
_cell_angle_alpha	90.187686
_cell_angle_beta	86.710539
_cell_angle_gamma	93.292871
loop_
_atom_site_label
_atom_site_type_symbol
_atom_site_fract_x
_atom_site_fract_y
_atom_site_fract_z
Zn1	Zn	-0.553503	-1.345225	0.587633
Zn2	Zn	-0.053503	-0.845225	1.087633
Zn3	Zn	-0.721125	-1.353859	0.437283
Zn4	Zn	-0.221125	-0.853859	0.937283
Zn5	Zn	-0.533075	-1.203574	0.428628
Zn6	Zn	-0.033075	-0.703574	0.928628
Zn7	Zn	-0.719915	-1.194855	0.578928
Zn8	Zn	-0.219915	-0.694855	1.078928
O9	O	-0.631904	-1.274378	0.508118
O10	O	-0.131904	-0.774378	1.008118
O11	O	-0.584794	-1.472195	0.574954
O12	O	-0.084794	-0.972195	1.074954
O13	O	-0.688137	-1.341186	0.310312
O14	O	-0.188137	-0.841186	0.810312
O15	O	-0.387441	-1.222400	0.449742
O16	O	0.112559	-0.722400	0.949742
O17	O	-0.707945	-1.478539	0.464492
O18	O	-0.207945	-0.978539	0.964492
O19	O	-0.402450	-1.326470	0.566562
O20	O	0.097550	-0.826470	1.066562
O21	O	-0.549977	-1.230772	0.303953
O22	O	-0.049977	-0.730772	0.803953
O23	O	-0.548804	-1.076592	0.441301
O24	O	-0.048804	-0.576592	0.941301
O25	O	-0.705882	-1.207539	0.705906
O26	O	-0.205882	-0.707539	1.205906
O27	O	-0.686074	-1.070186	0.551726
O28	O	-0.186074	-0.570186	1.051726
O29	O	-0.583621	-1.318016	0.712301
O30	O	-0.083621	-0.818016	1.212301
O31	O	-0.869308	-1.332731	0.456051
O32	O	-0.369308	-0.832731	0.956051
O33	O	-0.868419	-1.215911	0.560117
O34	O	-0.368419	-0.715911	1.060117
C35	C	-0.615092	-1.040764	0.494630
C36	C	-0.115092	-0.540764	0.994630
C37	C	-0.607926	-0.940822	0.488881
C38	C	-0.107926	-0.440822	0.988881
C39	C	-0.737601	-0.746406	0.592909
C40	C	-0.237601	-0.246406	1.092909
C41	C	-0.730872	-0.652501	0.587511
C42	C	-0.230872	-0.152501	1.087511
C43	C	-0.587734	-0.659105	0.472691
C44	C	-0.087734	-0.159105	0.972691
C45	C	-0.594463	-0.753010	0.478090
C46	C	-0.094463	-0.253010	0.978090
C47	C	-0.669400	-0.796657	0.538200
C48	C	-0.169400	-0.296657	1.038200
C49	C	-0.676134	-0.890564	0.543593
C50	C	-0.176134	-0.390564	1.043593
C51	C	-0.532992	-0.897166	0.428779
C52	C	-0.032992	-0.397166	0.928779
C53	C	-0.526262	-0.803261	0.423380
C54	C	-0.026262	-0.303261	0.923380
C55	C	-0.907330	-1.274335	0.508100
C56	C	-0.407330	-0.774335	1.008100
C57	C	-1.025166	-1.274397	0.508127
C58	C	-0.525166	-0.774397	1.008127
C59	C	-1.070572	-1.347965	0.442723
C60	C	-0.570572	-0.847965	0.942723
C61	C	-1.193105	-1.347819	0.442466
C62	C	-0.693105	-0.847819	0.942466
C63	C	-1.184726	-1.181118	0.477205
C64	C	-0.684726	-0.681118	0.977205
C65	C	-1.062120	-1.181506	0.476696
C66	C	-0.562120	-0.681506	0.976696
C67	C	-1.078116	-1.293363	0.604637
C68	C	-0.578116	-0.793363	1.104637
C69	C	-1.200843	-1.295526	0.604278
C70	C	-0.700843	-0.795526	1.104278
C71	C	-0.355406	-1.274445	0.508158
C72	C	0.144594	-0.774445	1.008158
C73	C	-0.237579	-1.274473	0.508174
C74	C	0.262421	-0.774473	1.008174
C75	C	-0.646895	-1.260842	0.742640
C76	C	-0.146895	-0.760842	1.242640
C77	C	-0.653284	-1.255073	0.842580
C78	C	-0.153284	-0.755073	1.342580
C79	C	-0.648775	-0.508905	0.521653
C80	C	-0.148775	-0.008905	1.021653
C81	C	-0.655942	-0.608847	0.527403
C82	C	-0.155942	-0.108847	1.027403
C83	C	-0.537952	-1.359270	1.037038
C84	C	-0.037952	-0.859270	1.537038
C85	C	-0.543950	-1.353853	1.130940
C86	C	-0.043950	-0.853853	1.630940
C87	C	-0.671274	-1.238818	1.124288
C88	C	-0.171274	-0.738818	1.624288
C89	C	-0.665275	-1.244235	1.030386
C90	C	-0.165275	-0.744235	1.530386
C91	C	-0.598613	-1.304464	0.986764
C92	C	-0.098613	-0.804464	1.486764
C93	C	-0.592620	-1.309885	0.892861
C94	C	-0.092620	-0.809885	1.392861
C95	C	-0.719937	-1.194846	0.886210
C96	C	-0.219937	-0.694846	1.386210
C97	C	-0.725936	-1.189429	0.980112
C98	C	-0.225936	-0.689429	1.480112
C99	C	-0.616996	-1.287857	1.274508
C100	C	-0.116996	-0.787857	1.774508
C101	C	-0.610610	-1.293630	1.174569
C102	C	-0.110610	-0.793630	1.674569
H103	H	-0.798623	-0.781945	0.641848
H104	H	-0.298623	-0.281945	1.141848
H105	H	-1.053494	-1.359967	0.631795
H106	H	-0.553494	-0.859967	1.131795
H107	H	-0.483678	-1.408315	1.001521
H108	H	0.016322	-0.908315	1.501521
F109	F	-0.446509	-0.756798	0.359414
F110	F	0.053491	-0.256798	0.859414
F111	F	-1.224108	-1.331982	0.349161
F112	F	-0.724108	-0.831982	0.849161
H113	H	-0.526717	-0.623550	0.423758
H114	H	-0.026717	-0.123550	0.923758
H115	H	-1.209582	-1.164054	0.407259
H116	H	-0.709582	-0.664054	0.907259
H117	H	-1.213187	-1.125071	0.523153
H118	H	-0.713187	-0.625071	1.023153
F119	F	-0.796877	-1.125331	1.026547
F120	F	-0.296877	-0.625331	1.526547
H121	H	-1.236105	-1.364201	0.627535
H122	H	-0.736105	-0.864201	1.127535
F123	F	-0.755890	-0.937016	0.607564
F124	F	-0.255890	-0.437016	1.107564
F125	F	-0.479385	-1.412184	1.184442
F126	F	0.020615	-0.912184	1.684442
H127	H	-0.769335	-1.150221	0.845267
H128	H	-0.269335	-0.650221	1.345267
H129	H	-0.477460	-0.938090	0.384228
H130	H	0.022540	-0.438090	0.884228
H131	H	-0.786406	-0.611590	0.632063
H132	H	-0.286406	-0.111590	1.132063
F133	F	-1.240284	-1.438512	0.468599
F134	F	-0.740284	-0.938512	0.968599
H135	H	-1.231582	-1.245454	0.656055
H136	H	-0.731582	-0.745454	1.156055
H137	H	-1.027650	-1.164824	0.405994
H138	H	-0.527650	-0.664824	0.905994
H139	H	-0.725546	-1.189782	1.159821
H140	H	-0.225546	-0.689782	1.659821
H141	H	-1.047107	-1.417563	0.462529
H142	H	-0.547107	-0.917563	0.962529
H143	H	-1.031698	-1.125109	0.521979
H144	H	-0.531698	-0.625109	1.021979
F145	F	-1.023017	-1.332330	0.349937
F146	F	-0.523017	-0.832330	0.849937
F147	F	-0.521677	-1.373988	0.846437
F148	F	-0.021677	-0.873988	1.346437
F149	F	-1.039756	-1.223255	0.668421
F150	F	-0.539756	-0.723255	1.168421
