data_functionalizedCrystal
_audit_creation_method	'MofGen! by Chris Wilmer'
_symmetry_space_group_name_H-M	'P1'
_symmetry_Int_Tables_number	1
_symmetry_cell_setting	triclinic
loop_
_symmetry_equiv_pos_as_xyz
  x,y,z
_cell_length_a	6.817900
_cell_length_b	11.102294
_cell_length_c	9.170575
_cell_angle_alpha	83.688363
_cell_angle_beta	67.538528
_cell_angle_gamma	71.394215
loop_
_atom_site_label
_atom_site_type_symbol
_atom_site_fract_x
_atom_site_fract_y
_atom_site_fract_z
V1	V	4.127261	-0.121294	-0.486367
O2	O	4.085994	0.061957	-0.477110
O3	O	4.103930	-0.294487	-0.483039
O4	O	4.110902	-0.094800	-0.698489
O5	O	4.078973	-0.139113	-0.260168
V6	V	4.603488	-0.102285	-0.459312
O7	O	4.404522	-0.162992	-0.545714
O8	O	4.776424	-0.060588	-0.399965
O9	O	4.403613	0.070908	-0.462640
O10	O	4.762152	-0.285536	-0.468568
O11	O	4.769173	-0.084466	-0.685510
O12	O	4.396640	-0.128779	-0.247190
C13	C	3.953992	-0.337478	-0.475366
C14	C	4.016417	-0.478907	-0.474058
C15	C	4.288657	-0.683847	-0.480020
C16	C	4.230009	-0.550960	-0.481230
C17	C	3.861455	-0.539748	-0.465659
C18	C	3.920099	-0.672633	-0.464438
C19	C	3.962885	-0.082756	-0.750192
C20	C	4.030960	-0.062240	-0.923603
C21	C	4.216892	0.113891	-0.470309
C22	C	4.133708	0.255320	-0.471626
C23	C	4.207999	-0.140829	-0.195479
C24	C	4.119161	-0.161338	-0.022066
H25	H	4.007524	0.038284	-0.971971
C26	C	4.150847	-0.297153	-0.956733
C27	C	4.385370	-0.393697	-1.004944
C28	C	4.417055	-0.529509	-0.939611
C29	C	4.214216	-0.568777	-0.826065
C30	C	3.979677	-0.472231	-0.777847
C31	C	3.947992	-0.336419	-0.843181
H32	H	4.535538	-0.364630	-1.089003
H33	H	4.590677	-0.600978	-0.975305
H34	H	4.237671	-0.669313	-0.777701
H35	H	3.829509	-0.501298	-0.693788
H36	H	3.774370	-0.264950	-0.807486
H37	H	4.462586	-0.742504	-0.485869
H38	H	4.356188	-0.501437	-0.488061
H39	H	3.687536	-0.481072	-0.459810
H40	H	3.793908	-0.722163	-0.457600
