data_functionalizedCrystal
_audit_creation_method	'MofGen! by Chris Wilmer'
_symmetry_space_group_name_H-M	'P1'
_symmetry_Int_Tables_number	1
_symmetry_cell_setting	triclinic
loop_
_symmetry_equiv_pos_as_xyz
  x,y,z
_cell_length_a	21.395362
_cell_length_b	12.759394
_cell_length_c	21.395355
_cell_angle_alpha	90.014577
_cell_angle_beta	90.043940
_cell_angle_gamma	90.030716
loop_
_atom_site_label
_atom_site_type_symbol
_atom_site_fract_x
_atom_site_fract_y
_atom_site_fract_z
Zn1	Zn	0.957929	-0.417943	0.354603
Zn2	Zn	0.957860	-0.593608	0.249833
Zn3	Zn	0.853143	-0.417992	0.249804
Zn4	Zn	0.853142	-0.593629	0.354537
O5	O	0.905518	-0.505793	0.302194
O6	O	1.045597	-0.441216	0.340744
O7	O	0.943941	-0.570323	0.162151
O8	O	0.867073	-0.270964	0.263721
O9	O	1.045547	-0.570276	0.263770
O10	O	0.944058	-0.270928	0.340717
O11	O	0.867006	-0.441299	0.162130
O12	O	0.765465	-0.441320	0.263658
O13	O	0.867070	-0.570313	0.442224
O14	O	0.765464	-0.570360	0.340605
O15	O	0.944056	-0.441237	0.442272
O16	O	0.943940	-0.740632	0.263706
O17	O	0.867003	-0.740647	0.340632
C18	C	0.742731	-0.505848	0.302121
C19	C	0.673089	-0.505897	0.302105
C20	C	0.905481	-0.778760	0.302179
C21	C	0.905522	-0.895537	0.302193
C22	C	0.640392	-0.573178	0.342112
C23	C	0.574957	-0.573152	0.342139
C24	C	0.542221	-0.505857	0.302150
C25	C	0.574927	-0.438564	0.262141
C26	C	0.640361	-0.438584	0.262118
C27	C	0.438495	-0.497393	0.245744
C28	C	0.373062	-0.497380	0.245766
C29	C	0.340401	-0.505788	0.302219
C30	C	0.373180	-0.514231	0.358653
C31	C	0.438614	-0.514252	0.358631
C32	C	0.471269	-0.505827	0.302170
C33	C	0.236751	-0.573044	0.342259
C34	C	0.171314	-0.573011	0.342288
C35	C	0.171285	-0.438429	0.262284
C36	C	0.236720	-0.438456	0.262260
C37	C	0.269449	-0.505770	0.302247
C38	C	0.985696	-0.895467	0.222150
C39	C	1.025799	-0.950293	0.182136
C40	C	1.025836	-1.060015	0.182153
C41	C	0.985766	-1.114913	0.222190
C42	C	0.945663	-1.060087	0.262204
C43	C	0.945629	-0.950363	0.262182
C44	C	0.865493	-1.060157	0.342250
C45	C	0.865453	-0.950435	0.342230
C46	C	0.825424	-1.115055	0.382286
C47	C	0.785317	-1.060229	0.422298
C48	C	0.785281	-0.950501	0.422279
C49	C	0.825349	-0.895609	0.382244
C50	C	1.068942	-0.505738	0.302267
C51	C	1.138583	-0.505714	0.302299
C52	C	0.905570	-0.505772	0.465618
C53	C	0.905593	-0.505762	0.535259
C54	C	0.905573	-0.231759	0.302223
C55	C	0.905597	-0.114983	0.302235
C56	C	0.905503	-0.505738	0.139407
C57	C	0.905602	-0.505451	0.069766
C58	C	0.945678	-0.438550	0.567998
C59	C	0.945677	-0.438505	0.633433
C60	C	0.905597	-0.505691	0.666127
C61	C	0.865505	-0.572908	0.633380
C62	C	0.865502	-0.572944	0.567946
C63	C	0.900637	-0.600292	0.769795
C64	C	0.900644	-0.600258	0.835228
C65	C	0.905601	-0.505580	0.867948
C66	C	0.910565	-0.410933	0.835227
C67	C	0.910563	-0.410968	0.769793
C68	C	0.905595	-0.505659	0.737080
C69	C	0.945688	-0.438313	0.971640
C70	C	0.945682	-0.438266	1.037076
C71	C	0.865513	-0.572679	1.037022
C72	C	0.865515	-0.572716	0.971586
C73	C	0.905606	-0.505535	0.938899
H74	H	0.667036	-0.627988	0.374673
C75	C	0.895184	-0.704371	0.871215
N76	N	0.891069	-0.782792	0.898318
H77	H	0.985662	-0.806126	0.222124
H78	H	0.465300	-0.521123	0.404581
C79	C	0.337257	-0.523477	0.420757
N80	N	0.310197	-0.530441	0.467533
C81	C	0.676329	-0.364573	0.218103
N82	N	0.703421	-0.308829	0.184948
C83	C	0.989780	-0.364320	1.073089
N84	N	1.022997	-0.308624	1.100215
C85	C	0.337011	-0.488085	0.183688
N86	N	0.309859	-0.481079	0.136929
H87	H	0.832874	-0.627372	1.063640
C88	C	0.538982	-0.647172	0.386149
N89	N	0.511888	-0.702925	0.419297
C90	C	0.272689	-0.364451	0.218244
N91	N	0.299780	-0.308706	0.185089
H92	H	0.752698	-1.104936	0.454896
H93	H	0.825320	-0.806268	0.382221
C94	C	0.985812	-1.235610	0.222210
N95	N	0.985846	-1.326520	0.222224
H96	H	1.058425	-0.905585	0.149540
C97	C	0.272755	-0.647078	0.386252
N98	N	0.299871	-0.702838	0.419389
C99	C	0.825464	-1.235752	0.382303
N100	N	0.825491	-1.326662	0.382313
H101	H	0.752627	-0.905868	0.454866
C102	C	0.989770	-0.364634	0.532046
N103	N	1.022978	-0.308955	0.504966
H104	H	1.058494	-1.104654	0.149573
C105	C	0.989779	-0.364569	0.669454
N106	N	1.022999	-0.308883	0.696583
H107	H	0.914603	-0.333904	0.743154
C108	C	0.916017	-0.306777	0.871214
N109	N	0.920124	-0.228331	0.898323
H110	H	0.978328	-0.383603	0.945025
C111	C	0.895196	-0.704455	0.733809
N112	N	0.891101	-0.782908	0.706706
C113	C	0.135347	-0.647038	0.386295
N114	N	0.108256	-0.702801	0.419439
C115	C	0.135280	-0.364402	0.218295
N116	N	0.108157	-0.308642	0.185162
C117	C	0.821414	-0.646809	0.669344
N118	N	0.788202	-0.702469	0.696433
H119	H	0.465083	-0.490542	0.199770
H120	H	0.832877	-0.627454	0.944930
H121	H	0.832857	-0.627675	0.541290
H122	H	0.548269	-0.383770	0.229582
