data_functionalizedCrystal
_audit_creation_method	'MofGen! by Chris Wilmer'
_symmetry_space_group_name_H-M	'P1'
_symmetry_Int_Tables_number	1
_symmetry_cell_setting	triclinic
loop_
_symmetry_equiv_pos_as_xyz
  x,y,z
_cell_length_a	8.559649
_cell_length_b	19.288865
_cell_length_c	18.366186
_cell_angle_alpha	89.988521
_cell_angle_beta	90.008899
_cell_angle_gamma	103.542544
loop_
_atom_site_label
_atom_site_type_symbol
_atom_site_fract_x
_atom_site_fract_y
_atom_site_fract_z
O1	O	2.120308	0.023572	0.060535
O2	O	1.654846	-0.012313	0.060543
O3	O	1.901026	0.107459	0.060524
O4	O	1.874127	-0.096200	0.060554
O5	O	1.900985	0.107462	-0.060575
O6	O	1.654804	-0.012310	-0.060557
O7	O	2.120266	0.023575	-0.060564
Zn8	Zn	1.887529	0.005633	-0.079788
Zn9	Zn	1.887583	0.005629	0.079766
O10	O	1.874085	-0.096197	-0.060546
C11	C	1.595275	-0.015031	-0.000006
C12	C	1.417837	-0.023126	-0.000004
N13	N	1.887503	0.005637	-0.188679
C14	C	1.900140	0.133292	-0.000028
C15	C	1.897542	0.210261	-0.000034
C16	C	2.179837	0.026293	-0.000014
C17	C	2.357275	0.034388	-0.000011
C18	C	1.874972	-0.122030	0.000008
C19	C	1.877570	-0.198998	0.000019
C20	C	2.041990	0.262466	-0.000040
C21	C	2.039549	0.334786	-0.000028
C22	C	1.892652	0.354897	-0.000025
C23	C	1.748185	0.302681	-0.000015
C24	C	1.750630	0.230363	-0.000020
C25	C	1.777159	0.457183	-0.042442
C26	C	1.774720	0.529500	-0.042442
C27	C	1.885104	0.577950	-0.000009
C28	C	1.997955	0.554077	0.042415
C29	C	2.000400	0.481759	0.042411
C30	C	1.889984	0.433313	-0.000020
C31	C	2.026915	0.708575	-0.000001
C32	C	2.024468	0.780895	0.000015
C33	C	1.733101	0.748789	0.000020
C34	C	1.735552	0.676470	0.000011
C35	C	1.882463	0.656368	-0.000003
C36	C	1.996547	0.058651	-0.226787
C37	C	1.996557	0.058654	-0.303015
C38	C	1.887538	0.005633	-0.341132
C39	C	1.778473	-0.047385	-0.303014
C40	C	1.778456	-0.047383	-0.226787
C41	C	1.866140	-0.058767	-0.461882
C42	C	1.866169	-0.058769	-0.538107
C43	C	1.887584	0.005627	-0.576239
C44	C	1.909003	0.070030	-0.538136
C45	C	1.908985	0.070032	-0.461910
C46	C	1.887545	0.005625	-0.423786
C47	C	1.996645	0.058649	-0.697003
C48	C	1.996644	0.058653	-0.773232
C49	C	1.778568	-0.047393	-0.773229
C50	C	1.778561	-0.047391	-0.697001
C51	C	1.887608	0.005629	-0.658893
N52	N	1.887622	0.005631	0.188657
H53	H	1.333932	-0.078562	0.000008
H54	H	1.926440	0.122467	-0.569181
C55	C	1.658523	-0.105697	-0.344935
H56	H	1.593558	-0.137265	-0.311318
H57	H	1.715781	-0.131580	-0.374664
H58	H	1.592188	-0.084215	-0.374677
C59	C	1.591731	0.172935	-0.000020
H60	H	1.503891	0.195267	-0.000020
H61	H	1.586643	0.144043	0.042205
H62	H	1.586619	0.144070	-0.042260
C63	C	2.203585	0.240356	-0.000043
H64	H	2.289264	0.281810	-0.000037
H65	H	2.210590	0.212818	-0.042272
H66	H	2.210605	0.212807	0.042194
H67	H	2.085436	0.101826	-0.804260
H68	H	2.142100	0.823402	0.000014
C69	C	1.842573	-0.129606	-0.419942
H70	H	1.845611	-0.120383	-0.369087
H71	H	1.925964	-0.152399	-0.432415
H72	H	1.741573	-0.159733	-0.432440
C73	C	2.198447	0.392221	-0.000040
H74	H	2.286290	0.369890	-0.000054
H75	H	2.203574	0.421095	0.042189
H76	H	2.203515	0.421103	-0.042276
C77	C	2.124514	0.455494	0.089075
H78	H	2.110163	0.405487	0.082989
H79	H	2.110088	0.465786	0.138862
H80	H	2.229870	0.479001	0.074151
C81	C	1.571517	0.770903	0.000026
H82	H	1.590746	0.821450	0.000024
H83	H	1.512076	0.752445	0.042256
H84	H	1.512048	0.752466	-0.042210
H85	H	1.689657	-0.090554	-0.195759
C86	C	2.119376	0.607361	0.089099
H87	H	2.101748	0.653850	0.083035
H88	H	2.225531	0.607170	0.074182
H89	H	2.105729	0.593944	0.138885
C90	C	2.188508	0.686458	-0.000009
H91	H	2.274189	0.727911	0.000000
H92	H	2.195506	0.658925	-0.042242
H93	H	2.195529	0.658903	0.042223
C94	C	1.658648	-0.105715	-0.815148
H95	H	1.674280	-0.098126	-0.866004
H96	H	1.552026	-0.103833	-0.802668
H97	H	1.675677	-0.151170	-0.802642
C98	C	1.576657	0.619042	0.000006
H99	H	1.488819	0.641375	0.000003
H100	H	1.571564	0.590152	0.042232
H101	H	1.571548	0.590176	-0.042233
H102	H	1.441171	0.089821	-0.000016
C103	C	1.650591	0.555759	-0.089102
H104	H	1.664954	0.605769	-0.083029
H105	H	1.545246	0.532252	-0.074177
H106	H	1.665015	0.545464	-0.138893
H107	H	1.687267	0.417739	-0.077000
H108	H	2.085336	0.101824	-0.195762
C109	C	1.586603	0.324801	-0.000015
H110	H	1.605834	0.375349	-0.000021
H111	H	1.527160	0.306347	0.042216
H112	H	1.527136	0.306361	-0.042250
C113	C	2.116513	0.116970	-0.344944
H114	H	2.181458	0.148545	-0.311330
H115	H	2.059240	0.142843	-0.374695
H116	H	2.182870	0.095496	-0.374663
C117	C	2.116572	0.116973	-0.655080
H118	H	2.181502	0.148555	-0.688697
H119	H	2.182923	0.095512	-0.625331
H120	H	2.059267	0.142847	-0.625358
H121	H	1.926422	0.122470	-0.430890
C122	C	1.658628	-0.105713	-0.655080
H123	H	1.593709	-0.137295	-0.688696
H124	H	1.592268	-0.084251	-0.625355
H125	H	1.715923	-0.131587	-0.625333
C126	C	1.842611	-0.129606	-0.580017
H127	H	1.845708	-0.120385	-0.630875
H128	H	1.741614	-0.159733	-0.567531
H129	H	1.926005	-0.152399	-0.567506
