data_functionalizedCrystal
_audit_creation_method	'MofGen! by Chris Wilmer'
_symmetry_space_group_name_H-M	'P1'
_symmetry_Int_Tables_number	1
_symmetry_cell_setting	triclinic
loop_
_symmetry_equiv_pos_as_xyz
  x,y,z
_cell_length_a	10.723023
_cell_length_b	10.654550
_cell_length_c	9.198806
_cell_angle_alpha	89.997986
_cell_angle_beta	89.996513
_cell_angle_gamma	84.476225
loop_
_atom_site_label
_atom_site_type_symbol
_atom_site_fract_x
_atom_site_fract_y
_atom_site_fract_z
O1	O	1.657214	0.176142	-0.120874
O2	O	1.294065	0.193004	-0.120879
O3	O	1.483989	0.001832	-0.120871
O4	O	1.467290	0.367313	-0.120882
O5	O	1.483974	0.001832	0.120914
O6	O	1.294049	0.193003	0.120906
O7	O	1.657199	0.176142	0.120911
Cu8	Cu	1.475623	0.184572	0.142985
Cu9	Cu	1.475641	0.184573	-0.142953
O10	O	1.467275	0.367313	0.120903
C11	C	1.247557	0.191777	0.000012
C12	C	1.109002	0.188106	0.000010
C13	C	1.047222	0.186469	0.125261
C14	C	0.904018	0.182675	0.125262
C15	C	1.482755	-0.044966	0.000020
C16	C	1.479087	-0.184408	0.000015
C17	C	1.590911	-0.263911	0.000021
C18	C	1.587457	-0.394931	0.000011
C19	C	1.360344	-0.366933	-0.000006
C20	C	1.363800	-0.235915	-0.000006
C21	C	1.706199	-0.212404	0.000042
C22	C	1.818033	-0.291908	0.000049
C23	C	1.814578	-0.422928	0.000039
C24	C	1.699290	-0.474445	0.000021
C25	C	1.703707	0.177369	0.000016
C26	C	1.842262	0.181039	0.000009
N27	N	1.475619	0.184571	0.344099
C28	C	1.468508	0.414111	0.000009
C29	C	1.472177	0.553554	0.000005
N30	N	1.475654	0.184564	-0.344067
C31	C	1.555363	0.103950	0.416300
C32	C	1.555383	0.103946	0.583712
H33	H	1.055877	0.186695	-0.107221
H34	H	1.407357	0.253587	0.406225
N35	N	1.645826	0.012516	0.665944
H36	H	1.734597	0.027529	0.639508
H37	H	1.632912	0.025525	0.773854
H38	H	1.272742	-0.171182	-0.000009
H39	H	1.709024	-0.105722	0.000054
N40	N	1.385208	0.276007	0.573722
H41	H	1.433581	0.331855	0.510558
H42	H	1.329458	0.227536	0.510667
N43	N	1.645753	0.012488	0.334025
H44	H	1.632913	0.025442	0.226094
H45	H	1.734503	0.027507	0.360514
H46	H	0.850888	0.181275	0.232493
N47	N	1.117577	0.188329	0.267311
H48	H	1.209904	0.190776	0.247175
H49	H	1.085438	0.265451	0.324894
H50	H	1.911896	-0.249955	0.000028
H51	H	1.905639	-0.487658	0.000031
N52	N	0.912607	0.182904	-0.142053
H53	H	0.957185	0.262053	-0.147854
H54	H	0.976004	0.106563	-0.147761
N55	N	1.695560	-0.615759	-0.000010
H56	H	1.783895	-0.658311	-0.000011
H57	H	1.650082	-0.641726	0.089618
N58	N	1.236005	-0.422491	-0.000021
H59	H	1.250785	-0.517554	-0.000016
H60	H	1.187015	-0.393478	0.089610
