data_functionalizedCrystal
_audit_creation_method	'MofGen! by Chris Wilmer'
_symmetry_space_group_name_H-M	'P1'
_symmetry_Int_Tables_number	1
_symmetry_cell_setting	triclinic
loop_
_symmetry_equiv_pos_as_xyz
  x,y,z
_cell_length_a	16.974800
_cell_length_b	27.732025
_cell_length_c	16.053802
_cell_angle_alpha	92.558378
_cell_angle_beta	91.074188
_cell_angle_gamma	83.011575
loop_
_atom_site_label
_atom_site_type_symbol
_atom_site_fract_x
_atom_site_fract_y
_atom_site_fract_z
O1	O	1.048317	0.061616	0.001457
O2	O	0.818765	0.069015	-0.014058
O3	O	0.940681	-0.005041	-0.005843
O4	O	0.926401	0.135672	-0.006757
O5	O	0.933970	-0.000981	0.132564
O6	O	0.812054	0.073075	0.124349
O7	O	1.041607	0.065675	0.139864
Zn8	Zn	0.925765	0.070020	0.154082
Zn9	Zn	0.934606	0.064671	-0.028275
O10	O	0.919691	0.139731	0.131649
C11	C	0.786051	0.070689	0.053161
C12	C	0.698571	0.069623	0.047247
C13	C	0.653820	0.071334	0.119916
C14	C	0.571625	0.070325	0.114362
C15	C	0.534183	0.067609	0.036137
C16	C	0.578940	0.065896	-0.036537
C17	C	0.661134	0.066902	-0.030982
C18	C	0.288752	0.064360	0.011433
C19	C	0.206552	0.063356	0.005883
C20	C	0.199243	0.067784	0.156782
C21	C	0.281438	0.068793	0.162331
C22	C	0.326189	0.067078	0.089656
N23	N	0.450166	0.066579	0.030458
N24	N	0.410205	0.068104	0.095337
C25	C	0.937029	-0.021020	0.063332
C26	C	0.936136	-0.074682	0.063247
C27	C	0.933438	-0.460096	-0.012580
C28	C	0.936786	-0.258417	-0.012380
O29	O	0.940361	-0.234229	-0.076515
N30	N	0.933547	-0.230981	0.063091
C31	C	0.929475	-0.253968	0.138519
O32	O	0.926805	-0.226004	0.202717
C33	C	0.926133	-0.455645	0.138319
C34	C	0.929365	-0.483079	0.062842
C35	C	0.936671	-0.487529	-0.088050
C36	C	0.935829	-0.537945	-0.088100
C37	C	0.931756	-0.560928	-0.012678
C38	C	0.928524	-0.533495	0.062792
C39	C	0.922068	-0.478631	0.213746
C40	C	0.921234	-0.529054	0.213689
C41	C	0.924466	-0.556488	0.138212
C42	C	0.923609	-0.606894	0.138165
N43	N	0.926848	-0.634330	0.062693
C44	C	0.930922	-0.611347	-0.012728
C45	C	0.931229	-0.148084	0.138618
C46	C	0.932063	-0.097665	0.138668
C47	C	0.939375	-0.102118	-0.012231
C48	C	0.938535	-0.152538	-0.012281
C49	C	0.934468	-0.175520	0.063147
C50	C	0.929154	-0.717225	-0.012827
C51	C	0.928309	-0.767645	-0.012869
C52	C	0.921001	-0.763187	0.138030
C53	C	0.921842	-0.712771	0.138073
C54	C	0.925921	-0.689792	0.062638
O55	O	0.920044	-0.631115	0.202266
O56	O	0.933609	-0.639321	-0.076916
C57	C	0.934280	-0.409680	-0.012530
C58	C	0.931047	-0.382246	0.062941
C59	C	0.926974	-0.405229	0.138362
C60	C	0.931882	-0.331827	0.062991
C61	C	0.935955	-0.308844	-0.012431
C62	C	0.939194	-0.336280	-0.087902
C63	C	0.938353	-0.386697	-0.087952
C64	C	0.923735	-0.377793	0.213834
C65	C	0.924575	-0.327377	0.213877
C66	C	0.928649	-0.304394	0.138455
C67	C	1.074321	0.064001	0.072643
C68	C	1.161801	0.065067	0.078552
C69	C	0.923343	0.155711	0.062472
C70	C	0.924236	0.209372	0.062552
N71	N	0.919737	0.073669	0.278536
N72	N	0.940641	0.061017	-0.152729
C73	C	0.971631	0.042170	0.325726
C74	C	0.967422	0.044728	0.412849
C75	C	0.911321	0.078788	0.452781
C76	C	0.859422	0.110289	0.405584
C77	C	0.863628	0.107728	0.318462
C78	C	0.892948	0.089958	0.712952
C79	C	0.888747	0.092517	0.800080
C80	C	0.996746	0.026955	0.807340
C81	C	1.000951	0.024400	0.720217
C82	C	0.949049	0.055899	0.673027
N83	N	0.907019	0.081404	0.541834
N84	N	0.953348	0.053280	0.583975
H85	H	0.325179	0.062962	-0.047744
N86	N	0.941046	-0.462752	-0.169414
H87	H	0.892675	-0.438084	-0.176056
H88	H	0.990453	-0.445811	-0.169435
H89	H	0.548449	0.063681	-0.100229
H90	H	1.009678	0.019078	0.451272
H91	H	0.921936	-0.305044	0.275343
N92	N	0.709406	0.065053	-0.109360
H93	H	0.673216	0.063180	-0.159758
H94	H	0.736910	0.095310	-0.110791
N95	N	0.694199	0.074262	0.204289
H96	H	0.753060	0.074640	0.196784
H97	H	0.671472	0.104990	0.235818
N98	N	0.828233	0.129250	0.843159
H99	H	0.856341	0.151763	0.881317
H100	H	0.796002	0.148783	0.800000
N101	N	0.942049	-0.182127	-0.093684
H102	H	0.944763	-0.159912	-0.141451
H103	H	0.990747	-0.206989	-0.093675
H104	H	0.850688	0.115607	0.674537
H105	H	0.942686	-0.083396	-0.073642
H106	H	0.176069	0.061145	-0.057820
N107	N	1.061462	-0.012337	0.677154
H108	H	1.116591	-0.006230	0.696086
H109	H	1.052013	-0.046197	0.691742
H110	H	1.017317	0.014436	0.293220
N111	N	0.798914	0.147029	0.448644
H112	H	0.743781	0.140924	0.429720
H113	H	0.804192	0.143856	0.510986
H114	H	0.821369	0.133378	0.280040
H115	H	0.927917	-0.166791	0.200044
N116	N	0.941884	-0.416276	-0.169366
H117	H	0.894769	-0.404622	-0.205664
H118	H	0.992543	-0.412299	-0.198933
H119	H	0.535194	0.071710	0.173537
H120	H	1.039002	0.001309	0.845770
N121	N	0.931832	-0.797229	-0.094285
H122	H	0.884717	-0.785574	-0.130582
H123	H	0.982491	-0.793258	-0.123859
N124	N	0.321820	0.071728	0.246701
H125	H	0.280997	0.072660	0.291895
H126	H	0.362529	0.042306	0.252744
N127	N	0.916852	-0.553841	0.295046
H128	H	0.866529	-0.540240	0.324744
H129	H	0.916846	-0.589940	0.283500
N130	N	0.939410	-0.567538	-0.169501
H131	H	0.942150	-0.545324	-0.217264
H132	H	0.988126	-0.592385	-0.169441
H133	H	0.932477	-0.698521	-0.074252
N134	N	0.150977	0.069633	0.235163
H135	H	0.093084	0.069251	0.219773
H136	H	0.169795	0.040485	0.268979
N137	N	0.918358	-0.683176	0.219474
H138	H	0.869675	-0.658299	0.219561
H139	H	0.915680	-0.705419	0.267203
H140	H	0.919444	-0.456304	0.275208
N141	N	0.928569	-0.068076	0.220072
H142	H	0.877954	-0.072025	0.249750
H143	H	0.975736	-0.079749	0.256280
N144	N	0.916621	-0.787982	0.219375
H145	H	0.916588	-0.824085	0.207885
H146	H	0.964055	-0.782051	0.255617
H147	H	0.942505	-0.317559	-0.149314
N148	N	0.919344	-0.402578	0.295185
H149	H	0.917420	-0.377543	0.342997
H150	H	0.869959	-0.419543	0.295154
