data_functionalizedCrystal
_audit_creation_method	'MofGen! by Chris Wilmer'
_symmetry_space_group_name_H-M	'P1'
_symmetry_Int_Tables_number	1
_symmetry_cell_setting	triclinic
loop_
_symmetry_equiv_pos_as_xyz
  x,y,z
_cell_length_a	14.908742
_cell_length_b	14.908178
_cell_length_c	14.908308
_cell_angle_alpha	90.221621
_cell_angle_beta	83.239341
_cell_angle_gamma	90.210560
loop_
_atom_site_label
_atom_site_type_symbol
_atom_site_fract_x
_atom_site_fract_y
_atom_site_fract_z
Zn1	Zn	1.329192	-0.459304	0.406693
Zn2	Zn	1.330103	-0.601063	0.247598
Zn3	Zn	1.187456	-0.442987	0.264991
Zn4	Zn	1.170078	-0.601012	0.407664
O5	O	1.254207	-0.526091	0.331736
O6	O	1.455601	-0.484958	0.377903
O7	O	1.318834	-0.573286	0.123614
O8	O	1.213149	-0.319691	0.290660
O9	O	1.456270	-0.589108	0.261017
O10	O	1.317282	-0.331678	0.394768
O11	O	1.214032	-0.457149	0.136393
O12	O	1.058863	-0.457100	0.291602
O13	O	1.183531	-0.589022	0.533826
O14	O	1.046095	-0.573200	0.396424
O15	O	1.300431	-0.484909	0.533112
O16	O	1.301983	-0.726517	0.261958
O17	O	1.184414	-0.726480	0.379558
C18	C	1.019734	-0.513374	0.346006
C19	C	0.919423	-0.507957	0.352131
C20	C	1.241435	-0.759031	0.318995
C21	C	1.236052	-0.858690	0.313569
C22	C	0.777676	-0.446202	0.421698
C23	C	0.871927	-0.451285	0.415948
C24	C	0.872660	-0.559552	0.294062
C25	C	0.778409	-0.554469	0.299812
C26	C	0.730920	-0.497791	0.363631
C27	C	0.636667	-0.492704	0.369376
C28	C	0.637401	-0.600976	0.247495
C29	C	0.731653	-0.606058	0.241745
C30	C	1.334275	-1.058294	0.411909
C31	C	1.329220	-1.151933	0.406814
C32	C	1.220882	-1.139607	0.298289
C33	C	1.225937	-1.045969	0.303384
C34	C	1.282636	-1.005316	0.360195
C35	C	1.287696	-0.911675	0.365285
C36	C	1.179354	-0.899352	0.256765
C37	C	1.174299	-0.992990	0.251669
C38	C	1.489596	-0.538859	0.317411
C39	C	1.589904	-0.544299	0.311307
C40	C	1.239941	-0.538780	0.567130
C41	C	1.233861	-0.544187	0.667441
C42	C	1.267052	-0.292244	0.344546
C43	C	1.272526	-0.192593	0.350005
C44	C	1.268473	-0.513390	0.097258
C45	C	1.274741	-0.507740	-0.003049
C46	C	1.344164	-0.445914	0.855196
C47	C	1.338455	-0.450991	0.949447
C48	C	1.216730	-0.559414	0.950197
C49	C	1.222439	-0.554336	0.855946
C50	C	1.286160	-0.497585	0.808449
C51	C	1.291872	-0.492513	0.714195
C52	C	1.170144	-0.600931	0.714947
C53	C	1.164435	-0.606008	0.809198
H54	H	0.598004	-0.446550	0.421337
H55	H	1.371264	-1.195065	0.448930
O56	O	1.148004	-0.620611	1.001440
H57	H	1.108620	-0.655686	0.953102
H58	H	1.137310	-0.856206	0.214652
O59	O	1.348855	-0.867825	0.426549
H60	H	1.328053	-0.888749	0.497337
H61	H	1.396052	-0.399710	0.816523
H62	H	1.343758	-0.446305	0.675524
O63	O	1.401021	-0.395266	0.999872
H64	H	1.446291	-0.354959	0.951006
O65	O	1.159745	-1.183461	0.237003
H66	H	1.164917	-1.257474	0.242144
O67	O	1.107552	-0.656661	0.664547
H68	H	1.148022	-0.702159	0.616643
H69	H	1.112554	-0.652211	0.847883
O70	O	0.726444	-0.385069	0.490518
H71	H	0.739398	-0.405343	0.559376
O72	O	0.922362	-0.395634	0.478567
H73	H	0.873503	-0.355364	0.523902
H74	H	1.128134	-1.026103	0.205418
H75	H	0.911341	-0.605699	0.242106
H76	H	0.599322	-0.642985	0.200214
O77	O	0.782879	-0.667177	0.172907
H78	H	0.820895	-0.717343	0.208099
O79	O	1.395432	-1.014436	0.473171
H80	H	1.430492	-1.067008	0.508276
