data_functionalizedCrystal
_audit_creation_method	'MofGen! by Chris Wilmer'
_symmetry_space_group_name_H-M	'P1'
_symmetry_Int_Tables_number	1
_symmetry_cell_setting	triclinic
loop_
_symmetry_equiv_pos_as_xyz
  x,y,z
_cell_length_a	18.760487
_cell_length_b	12.970454
_cell_length_c	12.970454
_cell_angle_alpha	60.000046
_cell_angle_beta	60.020328
_cell_angle_gamma	90.034968
loop_
_atom_site_label
_atom_site_type_symbol
_atom_site_fract_x
_atom_site_fract_y
_atom_site_fract_z
Zr1	Zr	0.686686	-0.134679	1.128511
O2	O	0.572870	-0.299403	1.343601
O3	O	0.721576	-0.084184	0.913421
O4	O	0.721577	-0.299273	1.128512
O5	O	0.572869	0.085353	1.128510
O6	O	0.838880	-0.299168	1.128511
O7	O	0.572869	-0.084314	1.128511
O8	O	0.838878	0.085587	0.743754
O9	O	0.572871	-0.299402	1.513267
O10	O	0.823999	-0.062569	1.001890
O11	O	0.736457	0.063974	1.001890
O12	O	0.736458	-0.189265	1.255131
O13	O	0.648916	-0.062722	1.255130
Zr14	Zr	0.873770	0.136087	1.128509
Zr15	Zr	0.873771	-0.134513	1.128510
Zr16	Zr	0.686686	0.135921	1.128509
Zr17	Zr	0.686687	-0.134677	1.399108
Zr18	Zr	0.873770	0.136085	0.857911
O19	O	0.838880	0.085592	1.343598
O20	O	0.838880	-0.299167	1.343600
O21	O	0.572870	0.085355	1.343599
O22	O	0.987586	0.300811	0.913419
O23	O	0.987586	-0.083947	0.913421
O24	O	0.721576	0.300575	0.913419
O25	O	0.987587	-0.083945	1.128510
O26	O	0.838879	0.300681	1.128508
O27	O	0.721576	0.300576	1.128508
O28	O	0.987587	0.085722	1.128509
O29	O	0.721578	-0.299270	1.513267
O30	O	0.838878	0.300677	0.743753
O31	O	0.987586	0.300810	0.743753
O32	O	0.987586	0.085719	0.743754
O33	O	0.572870	-0.084311	1.513266
O34	O	0.721578	-0.084179	1.513265
O35	O	0.823998	0.190673	1.001889
O36	O	0.911540	0.064130	1.001889
O37	O	0.823999	-0.062566	1.255130
O38	O	0.736457	0.063977	1.255129
C39	C	0.546214	0.000496	1.128510
C40	C	0.466791	0.000425	1.128510
C41	C	0.780227	0.000701	0.790033
C42	C	0.780227	0.000700	0.675158
C43	C	0.780228	0.339183	1.128508
C44	C	0.780228	0.454060	1.128507
C45	C	0.085279	-0.065211	1.260704
C46	C	0.176678	0.067063	0.996316
C47	C	0.251300	0.066954	0.996314
C48	C	0.242914	0.000761	1.128509
C49	C	0.159907	-0.065324	1.260706
C50	C	0.334312	0.133028	0.864120
C51	C	0.408941	0.132921	0.864112
C52	C	0.400556	0.066734	0.996309
C53	C	0.317542	0.000647	1.128511
C54	C	0.309156	-0.065546	1.260706
C55	C	0.226143	-0.131626	1.392909
C56	C	0.151522	-0.131511	1.392902
C57	C	0.475177	0.066619	0.996316
C58	C	0.383784	-0.065660	1.260707
C59	C	1.014242	0.000912	1.128509
C60	C	1.093665	0.000983	1.128509
C61	C	0.780228	-0.337775	1.128512
C62	C	0.780229	-0.452652	1.128512
C63	C	0.780229	0.000707	1.466986
C64	C	0.780229	0.000708	1.581862
C65	C	1.014242	0.000909	0.790033
C66	C	1.093664	0.000979	0.675157
C67	C	0.780227	0.339180	0.790032
C68	C	0.780226	0.454056	0.675155
C69	C	1.014241	0.339389	0.790031
C70	C	1.093663	0.454335	0.675155
C71	C	0.546215	-0.337981	1.466988
C72	C	0.466793	-0.452927	1.581865
C73	C	0.546215	0.000499	1.466987
C74	C	0.466793	0.000429	1.581863
C75	C	0.780229	-0.337772	1.466988
C76	C	0.780230	-0.452648	1.581864
C77	C	1.085265	-0.065135	0.621211
C78	C	1.159883	-0.065095	0.513287
C79	C	1.242899	0.001068	0.459305
C80	C	1.251296	0.067184	0.513263
C81	C	1.176679	0.067135	0.621191
C82	C	1.176664	0.442261	0.621208
C83	C	1.251297	0.550255	0.513284
C84	C	1.242926	0.670322	0.459302
C85	C	1.159916	0.682394	0.513260
C86	C	1.085286	0.574401	0.621189
C87	C	0.383792	-0.440853	1.635825
C88	C	0.309159	-0.548847	1.743782
C89	C	0.317530	-0.668914	1.797770
C90	C	0.400540	-0.680986	1.743806
C91	C	0.475171	-0.572993	1.635858
C92	C	0.475191	0.066532	1.635820
C93	C	0.400573	0.066462	1.743773
C94	C	0.317557	0.000295	1.797759
C95	C	0.309160	-0.065816	1.743797
C96	C	0.383778	-0.065752	1.635853
H97	H	0.376945	-0.119550	1.368358
Cl98	Cl	0.223699	-0.804666	1.933475
H99	H	0.407427	0.120302	1.787691
Cl100	Cl	1.355666	0.150360	0.445377
Cl101	Cl	0.187216	0.150266	0.830138
Cl102	Cl	0.373246	-0.289925	1.567977
Cl103	Cl	0.223759	0.000232	1.933459
H104	H	0.542763	0.120431	0.888677
H105	H	1.303651	0.001098	0.371422
Cl106	Cl	1.355641	0.535050	0.445468
Cl107	Cl	0.204815	-0.533642	1.811595
Cl108	Cl	0.579512	-0.588194	1.568025
Cl109	Cl	0.204790	-0.148984	1.811674
Cl110	Cl	1.187252	0.150269	0.688986
H111	H	0.017687	-0.119007	1.368341
H112	H	0.407345	-0.778757	1.787776
H113	H	0.376927	-0.119577	1.591924
Cl114	Cl	0.579545	0.149716	1.567982
H115	H	0.219325	-0.185528	1.500542
Cl116	Cl	0.047164	-0.214577	1.559085
Cl117	Cl	0.344848	0.216231	0.697944
H118	H	0.476527	0.186725	0.756464
Cl119	Cl	1.336757	0.806074	0.323615
H120	H	1.153030	-0.118934	0.469369
Cl121	Cl	0.980911	-0.148327	0.689057
Cl122	Cl	0.980944	0.589602	0.688986
Cl123	Cl	1.187210	0.291333	0.689058
H124	H	1.153113	0.780167	0.469291
