data_functionalizedCrystal
_audit_creation_method	'MofGen! by Chris Wilmer'
_symmetry_space_group_name_H-M	'P1'
_symmetry_Int_Tables_number	1
_symmetry_cell_setting	triclinic
loop_
_symmetry_equiv_pos_as_xyz
  x,y,z
_cell_length_a	18.050591
_cell_length_b	18.050589
_cell_length_c	18.050591
_cell_angle_alpha	90.002114
_cell_angle_beta	90.007198
_cell_angle_gamma	90.024669
loop_
_atom_site_label
_atom_site_type_symbol
_atom_site_fract_x
_atom_site_fract_y
_atom_site_fract_z
Zn1	Zn	1.135200	-0.295895	0.420031
Zn2	Zn	1.135138	-0.420043	0.295850
Zn3	Zn	1.011047	-0.295864	0.295844
Zn4	Zn	1.010968	-0.420040	0.419988
O5	O	1.073088	-0.357961	0.357928
O6	O	1.239117	-0.312378	0.403578
O7	O	1.118684	-0.403559	0.191925
O8	O	1.027575	-0.191944	0.312333
O9	O	1.239071	-0.403589	0.312343
O10	O	1.118790	-0.191966	0.403572
O11	O	1.027515	-0.312325	0.191921
O12	O	0.907112	-0.312322	0.312292
O13	O	1.027440	-0.403583	0.523918
O14	O	0.907054	-0.403553	0.403500
O15	O	1.118713	-0.312375	0.523950
O16	O	1.118608	-0.523968	0.312302
O17	O	1.027380	-0.523965	0.403506
C18	C	0.880136	-0.357934	0.357891
C19	C	0.797590	-0.357941	0.357893
C20	C	0.548775	-0.308278	0.308411
C21	C	0.598192	-0.290216	0.376186
C22	C	0.500470	-0.357979	0.357954
C23	C	0.598135	-0.375987	0.290153
C24	C	0.646455	-0.357959	0.357920
C25	C	0.548800	-0.339882	0.425764
C26	C	0.548738	-0.425685	0.339686
C27	C	0.598133	-0.407649	0.407507
C28	C	0.416372	-0.357989	0.357972
C29	C	0.730552	-0.357949	0.357910
C30	C	1.072999	-0.550913	0.357916
C31	C	1.073028	-0.633459	0.357936
C32	C	1.023467	-0.832935	0.407515
C33	C	1.005384	-0.882349	0.339746
C34	C	1.073101	-0.784589	0.357945
C35	C	1.091221	-0.882257	0.425722
C36	C	1.073170	-0.930574	0.357961
C37	C	1.054983	-0.832915	0.290141
C38	C	1.140850	-0.832819	0.376162
C39	C	1.122793	-0.882211	0.308347
C40	C	1.073059	-0.700491	0.357937
C41	C	1.073212	-1.014670	0.357961
C42	C	1.266794	-0.357987	0.357966
C43	C	1.349340	-0.357999	0.357982
C44	C	1.073075	-0.357982	0.551634
C45	C	1.073069	-0.357991	0.634180
C46	C	1.073198	-0.164255	0.357957
C47	C	1.073245	-0.081709	0.357969
C48	C	1.023423	-0.407583	0.882988
C49	C	1.005294	-0.339830	0.833594
C50	C	1.073062	-0.357969	0.931300
C51	C	1.091159	-0.425729	0.833613
C52	C	1.073064	-0.357984	0.785315
C53	C	1.054898	-0.290180	0.882993
C54	C	1.140795	-0.376125	0.883016
C55	C	1.122692	-0.308326	0.833644
C56	C	1.073059	-0.357962	1.015398
C57	C	1.073067	-0.357983	0.701218
C58	C	1.073085	-0.357959	1.164976
C59	C	1.073059	-0.357961	1.082430
H60	H	0.619668	-0.449671	0.449437
H61	H	1.198098	-0.811049	0.391589
H62	H	0.527000	-0.482935	0.324224
H63	H	0.981411	-0.449480	0.904655
O64	O	0.523186	-0.321637	0.494224
C65	C	0.583586	-0.308851	0.542089
H66	H	0.634589	-0.338879	0.520089
H67	H	0.569673	-0.330473	0.599774
H68	H	0.595337	-0.246864	0.545108
H69	H	0.619807	-0.391227	0.232829
O70	O	0.973223	-0.807149	0.457370
C71	C	0.901906	-0.832406	0.437898
H72	H	0.900566	-0.846269	0.376297
H73	H	0.859507	-0.787272	0.450237
H74	H	0.887975	-0.884097	0.471414
O75	O	0.937078	-0.908396	0.321468
C76	C	0.909533	-0.952453	0.379793
H77	H	0.957728	-0.974061	0.414411
H78	H	0.877218	-1.001200	0.355923
H79	H	0.871382	-0.917727	0.416209
H80	H	1.106466	-0.483027	0.811923
H81	H	1.039618	-0.811332	0.232813
O82	O	1.172819	-0.907833	0.258190
C83	C	1.153487	-0.882541	0.186863
H84	H	1.091867	-0.868808	0.185388
H85	H	1.166010	-0.927601	0.144426
H86	H	1.186951	-0.830762	0.173099
O87	O	1.109435	-0.908238	0.494056
C88	C	1.109895	-0.986339	0.492942
H89	H	1.073500	-1.006947	0.445609
H90	H	1.087548	-1.008317	0.547772
H91	H	1.169007	-1.006907	0.484546
O92	O	0.522875	-0.258215	0.258427
C93	C	0.479867	-0.295025	0.204588
H94	H	0.496679	-0.355847	0.202189
H95	H	0.489401	-0.268304	0.148163
H96	H	0.418744	-0.290690	0.219876
H97	H	1.164672	-0.266327	0.812115
H98	H	0.619901	-0.232947	0.391637
H99	H	0.948014	-0.324474	0.811885
O100	O	1.036531	-0.221858	0.908879
C101	C	1.036737	-0.222679	0.986984
H102	H	1.028450	-0.281858	1.007431
H103	H	0.989906	-0.186223	1.008543
H104	H	1.092021	-0.200622	1.008138
H105	H	1.198058	-0.391501	0.904741
