data_functionalizedCrystal
_audit_creation_method	'MofGen! by Chris Wilmer'
_symmetry_space_group_name_H-M	'P1'
_symmetry_Int_Tables_number	1
_symmetry_cell_setting	triclinic
loop_
_symmetry_equiv_pos_as_xyz
  x,y,z
_cell_length_a	14.853568
_cell_length_b	14.421503
_cell_length_c	15.944556
_cell_angle_alpha	89.992667
_cell_angle_beta	83.568279
_cell_angle_gamma	89.995164
loop_
_atom_site_label
_atom_site_type_symbol
_atom_site_fract_x
_atom_site_fract_y
_atom_site_fract_z
O1	O	-1.196232	0.077076	-0.109656
O2	O	-0.696232	0.577076	0.390344
O3	O	-0.933756	0.077094	-0.122719
O4	O	-0.433756	0.577094	0.377281
O5	O	-1.072159	0.077051	0.006079
O6	O	-0.572159	0.577051	0.506079
O7	O	-1.057829	0.077119	-0.238454
O8	O	-0.557829	0.577119	0.261546
O9	O	-1.072136	-0.077172	0.006060
O10	O	-0.572136	0.422828	0.506060
O11	O	-0.933733	-0.077129	-0.122738
O12	O	-0.433733	0.422871	0.377262
O13	O	-1.196209	-0.077148	-0.109675
O14	O	-0.696209	0.422852	0.390325
Cu15	Cu	-1.064969	-0.091220	-0.116208
Cu16	Cu	-0.564969	0.408780	0.383792
Cu17	Cu	-1.064996	0.091167	-0.116186
Cu18	Cu	-0.564996	0.591167	0.383814
O19	O	-1.057806	-0.077105	-0.238473
O20	O	-0.557806	0.422895	0.261527
C21	C	-0.900157	-0.000016	-0.122136
C22	C	-0.400157	0.499984	0.377864
C23	C	-0.800075	-0.000011	-0.120362
C24	C	-0.300075	0.499989	0.379638
C25	C	-0.387647	-0.000056	-0.036354
C26	C	0.112353	0.499944	0.463646
C27	C	-0.366174	-0.000013	-0.189370
C28	C	0.133826	0.499987	0.310630
C29	C	-0.460205	-0.000009	-0.191038
C30	C	0.039795	0.499991	0.308962
C31	C	-0.517962	-0.000027	-0.115363
C32	C	-0.017962	0.499973	0.384637
C33	C	-0.481688	-0.000050	-0.038020
C34	C	0.018312	0.499950	0.461980
C35	C	-0.496487	0.000023	-0.268379
C36	C	0.003513	0.500023	0.231621
C37	C	-0.590524	0.000027	-0.270050
C38	C	-0.090524	0.500027	0.229950
C39	C	-0.648283	0.000002	-0.194375
C40	C	-0.148283	0.500002	0.305625
C41	C	-0.612003	-0.000021	-0.117029
C42	C	-0.112003	0.499979	0.382971
C43	C	-0.669760	-0.000039	-0.041354
C44	C	-0.169760	0.499961	0.458646
C45	C	-0.633482	-0.000069	0.035993
C46	C	-0.133482	0.499931	0.535993
C47	C	-0.539447	-0.000075	0.037656
C48	C	-0.039447	0.499925	0.537656
C49	C	-0.742318	0.000008	-0.196037
C50	C	-0.242318	0.500008	0.303963
C51	C	-0.763801	-0.000033	-0.043020
C52	C	-0.263801	0.499967	0.456980
N53	N	-1.064956	-0.219502	-0.116224
N54	N	-0.564956	0.280498	0.383776
C55	C	-1.000948	-0.469135	-0.175753
C56	C	-0.500948	0.030865	0.324247
C57	C	-1.082412	-0.530938	-0.192151
C58	C	-0.582412	-0.030938	0.307849
C59	C	-1.064978	-0.408663	-0.116204
C60	C	-0.564978	0.091337	0.383796
C61	C	-0.983535	-0.530954	-0.099825
C62	C	-0.483535	-0.030954	0.400175
C63	C	-1.064992	-0.591384	-0.116186
C64	C	-0.564992	-0.091384	0.383814
C65	C	-1.146484	-0.469105	-0.132640
C66	C	-0.646484	0.030895	0.367360
C67	C	-1.047553	-0.469116	-0.040280
C68	C	-0.547553	0.030884	0.459720
C69	C	-1.129076	-0.530890	-0.056646
C70	C	-0.629076	-0.030890	0.443354
C71	C	-1.064969	-0.303402	-0.116216
C72	C	-0.564969	0.196598	0.383784
C73	C	-1.065011	-0.696643	-0.116173
C74	C	-0.565011	-0.196643	0.383827
C75	C	-0.229808	-0.000036	-0.110257
C76	C	0.270192	0.499964	0.389743
C77	C	-0.329890	-0.000038	-0.112029
C78	C	0.170110	0.499962	0.387971
C79	C	-1.071551	-0.000067	0.037364
C80	C	-0.571551	0.499933	0.537364
C81	C	-1.069765	-0.000087	0.130612
C82	C	-0.569765	0.499913	0.630612
N83	N	-1.065016	0.219448	-0.116163
N84	N	-0.565016	0.719448	0.383837
C85	C	-0.978635	-0.000113	0.401345
C86	C	-0.478635	0.499887	0.901345
C87	C	-1.022578	0.075935	0.350720
C88	C	-0.522578	0.575935	0.850720
C89	C	-1.063394	-0.000122	0.466261
C90	C	-0.563394	0.499878	0.966261
C91	C	-1.022578	-0.076117	0.350728
C92	C	-0.522578	0.423883	0.850728
C93	C	-1.066519	-0.000106	0.301345
C94	C	-0.566519	0.499894	0.801345
C95	C	-1.107314	0.075988	0.416864
C96	C	-0.607314	0.575988	0.916864
C97	C	-1.107301	-0.076133	0.416876
C98	C	-0.607301	0.423867	0.916876
C99	C	-1.151307	-0.000067	0.366284
C100	C	-0.651307	0.499933	0.866284
C101	C	-1.061590	-0.000130	0.561264
C102	C	-0.561590	0.499870	1.061264
C103	C	-1.068329	-0.000091	0.206344
C104	C	-0.568329	0.499909	0.706344
C105	C	-1.058401	-0.000030	0.730241
C106	C	-0.558401	0.499970	1.230241
C107	C	-1.060151	-0.000142	0.636989
C108	C	-0.560151	0.499858	1.136989
H109	H	-0.680520	-0.000078	0.097607
H110	H	-0.180520	0.499922	0.597607
O111	O	-1.154661	-0.161301	0.455166
O112	O	-0.654661	0.338699	0.955166
H113	H	-1.225927	-0.161883	0.440393
H114	H	-0.725927	0.338117	0.940393
O115	O	-0.929291	-0.433208	-0.242502
O116	O	-0.429291	0.066792	0.257498
H117	H	-0.961699	-0.389794	-0.288159
H118	H	-0.461699	0.110206	0.211841
H119	H	-0.449455	0.000047	-0.329989
H120	H	0.050545	0.500047	0.170011
O121	O	-0.826097	-0.000060	0.038602
O122	O	-0.326097	0.499940	0.538602
H123	H	-0.813205	0.062788	0.075618
H124	H	-0.313205	0.562788	0.575618
O125	O	-1.154774	0.161165	0.455033
O126	O	-0.654774	0.661165	0.955033
H127	H	-1.226211	0.161284	0.440744
H128	H	-0.726211	0.661284	0.940744
O129	O	-0.892296	-0.566939	-0.081480
O130	O	-0.392296	-0.066939	0.418520
H131	H	-0.893335	-0.643896	-0.081052
H132	H	-0.393335	-0.143896	0.418948
O133	O	-0.500321	-0.000102	0.121075
O134	O	-0.000321	0.499898	0.621075
H135	H	-0.425230	-0.000093	0.109518
H136	H	0.074770	0.499907	0.609518
H137	H	-0.905636	-0.000037	0.417079
H138	H	-0.405636	0.499963	0.917079
O139	O	-0.975146	-0.161273	0.312482
O140	O	-0.475146	0.338727	0.812482
H141	H	-0.903530	-0.161106	0.326242
H142	H	-0.403530	0.338894	0.826242
O143	O	-1.248070	-0.000003	0.345637
O144	O	-0.748070	0.499997	0.845637
H145	H	-1.294747	0.000622	0.405084
H146	H	-0.794747	0.500622	0.905084
O147	O	-0.348521	-0.000088	0.047065
O148	O	0.151479	0.499912	0.547065
H149	H	-0.371717	-0.062961	0.083417
H150	H	0.128283	0.437039	0.583417
O151	O	-1.237744	-0.433273	-0.151083
O152	O	-0.737744	0.066727	0.348917
H153	H	-1.290866	-0.458583	-0.101908
H154	H	-0.790866	0.041417	0.398092
H155	H	-1.183290	-0.557835	-0.006277
H156	H	-0.683290	-0.057835	0.493723
H157	H	-0.319143	0.000010	-0.250981
H158	H	0.180857	0.500010	0.249019
H159	H	-1.032776	-0.441938	0.023898
H160	H	-0.532776	0.058062	0.523898
H161	H	-0.771852	0.000030	-0.259012
H162	H	-0.271852	0.500030	0.240988
O163	O	-0.629652	0.000037	-0.353468
O164	O	-0.129652	0.500037	0.146532
H165	H	-0.573691	0.000038	-0.405808
H166	H	-0.073691	0.500038	0.094192
H167	H	-1.097163	-0.558094	-0.256350
H168	H	-0.597163	-0.058094	0.243650
H169	H	-0.986791	0.140229	0.321834
H170	H	-0.486791	0.640229	0.821834
