data_functionalizedCrystal
_audit_creation_method	'MofGen! by Chris Wilmer'
_symmetry_space_group_name_H-M	'P1'
_symmetry_Int_Tables_number	1
_symmetry_cell_setting	triclinic
loop_
_symmetry_equiv_pos_as_xyz
  x,y,z
_cell_length_a	21.295420
_cell_length_b	21.295417
_cell_length_c	15.296720
_cell_angle_alpha	99.639335
_cell_angle_beta	99.661426
_cell_angle_gamma	90.027953
loop_
_atom_site_label
_atom_site_type_symbol
_atom_site_fract_x
_atom_site_fract_y
_atom_site_fract_z
Zn1	Zn	0.900690	-0.312215	-0.510041
Zn2	Zn	0.918834	-0.399275	-0.359182
Zn3	Zn	0.813650	-0.294024	-0.359207
Zn4	Zn	0.795391	-0.417440	-0.509982
O5	O	0.857141	-0.355738	-0.434603
O6	O	0.991184	-0.323775	-0.490043
O7	O	0.920116	-0.370098	-0.232951
O8	O	0.825244	-0.208352	-0.379251
O9	O	1.004515	-0.387738	-0.379208
O10	O	0.889192	-0.221717	-0.490068
O11	O	0.842838	-0.292770	-0.232969
O12	O	0.723140	-0.310384	-0.379194
O13	O	0.794124	-0.418697	-0.636224
O14	O	0.709725	-0.401057	-0.489967
O15	O	0.871486	-0.341389	-0.636268
O16	O	0.902411	-0.489770	-0.379151
O17	O	0.811718	-0.503115	-0.489943
C18	C	0.693593	-0.355718	-0.434577
C19	C	0.623623	-0.355727	-0.434587
C20	C	0.117201	-0.403019	-0.492227
C21	C	0.182945	-0.403019	-0.492217
C22	C	0.222778	-0.355756	-0.434631
C23	C	0.196865	-0.308500	-0.377034
C24	C	0.131123	-0.308506	-0.377039
N25	N	0.326839	-0.299821	-0.427848
N26	N	0.389290	-0.299817	-0.427849
C27	C	0.420856	-0.355736	-0.434612
N28	N	0.387608	-0.411661	-0.441392
N29	N	0.325151	-0.411665	-0.441396
C30	C	0.294065	-0.355745	-0.434619
C31	C	0.518049	-0.402990	-0.492191
C32	C	0.583794	-0.402990	-0.492175
C33	C	0.597713	-0.308467	-0.376997
C34	C	0.531969	-0.308472	-0.377008
C35	C	0.492140	-0.355734	-0.434610
C36	C	0.857066	-0.519285	-0.434557
C37	C	0.857088	-0.589254	-0.434568
C38	C	0.890358	-0.629028	-0.492312
C39	C	0.890377	-0.694773	-0.492334
C40	C	0.857136	-0.720740	-0.434596
C41	C	0.823859	-0.680958	-0.376849
C42	C	0.823835	-0.615215	-0.376835
N43	N	0.861922	-0.814472	-0.355649
N44	N	0.861948	-0.876925	-0.355665
C45	C	0.857205	-0.918819	-0.434637
N46	N	0.852446	-0.895901	-0.513594
N47	N	0.852424	-0.833442	-0.513577
C48	C	0.857158	-0.792026	-0.434606
C49	C	0.890497	-1.029882	-0.492410
C50	C	0.890512	-1.095629	-0.492433
C51	C	0.823998	-1.081811	-0.376940
C52	C	0.823979	-1.016067	-0.376925
C53	C	0.857232	-0.990106	-0.434658
C54	C	1.021328	-0.355759	-0.434630
C55	C	1.091295	-0.355768	-0.434641
C56	C	0.828744	-0.384098	-0.669892
C57	C	0.816643	-0.396183	-0.770159
C58	C	0.857231	-0.191556	-0.434669
C59	C	0.857269	-0.121591	-0.434697
C60	C	0.943652	-0.269253	-1.052883
C61	C	0.955026	-0.257900	-0.958678
C62	C	0.920431	-0.292469	-0.911544
C63	C	0.874461	-0.338395	-0.958624
C64	C	0.863090	-0.349753	-1.052838
C65	C	0.839869	-0.372969	-0.911498
C66	C	0.793899	-0.418895	-0.958578
C67	C	0.782530	-0.430251	-1.052783
C68	C	0.817124	-0.395681	-1.099918
C69	C	0.851240	-0.361611	-0.817284
C70	C	0.770678	-0.442111	-0.817239
C71	C	0.759304	-0.453465	-0.911444
C72	C	0.885464	-0.327444	-0.200229
C73	C	0.897686	-0.315181	-0.099963
H74	H	0.604886	-0.441471	-0.539066
O75	O	0.895957	-0.317082	-0.771514
C76	C	0.943165	-0.346347	-0.716988
H77	H	0.943605	-0.399346	-0.745353
H78	H	0.991748	-0.323455	-0.715936
H79	H	0.932316	-0.339904	-0.645586
O80	O	0.506899	-0.262504	-0.321047
C81	C	0.556154	-0.220797	-0.270200
H82	H	0.598563	-0.223107	-0.307150
H83	H	0.538324	-0.170047	-0.260708
H84	H	0.571404	-0.235510	-0.201629
O85	O	0.922889	-1.134173	-0.548555
C86	C	0.952221	-1.097159	-0.599518
H87	H	0.958860	-1.045852	-0.562561
H88	H	1.000652	-1.117275	-0.609199
H89	H	0.920870	-1.098421	-0.668003
O90	O	0.105945	-0.262684	-0.320991
C91	C	0.074929	-0.291441	-0.262658
H92	H	0.095404	-0.340329	-0.256978
H93	H	0.082564	-0.260250	-0.193287
H94	H	0.021739	-0.296996	-0.290539
O95	O	0.922745	-0.733468	-0.548305
C96	C	0.969648	-0.765279	-0.497005
H97	H	0.955739	-0.766928	-0.428618
H98	H	0.973648	-0.815920	-0.533772
H99	H	1.017481	-0.738714	-0.487144
H100	H	0.796927	-1.102954	-0.329935
H101	H	0.084777	-0.441505	-0.539128
H102	H	0.917432	-0.607893	-0.539324
H103	H	0.796792	-0.702104	-0.329841
O104	O	0.737922	-0.474944	-1.098413
C105	C	0.754434	-0.534906	-1.075376
H106	H	0.786889	-0.527964	-1.006979
H107	H	0.709379	-0.562736	-1.072126
H108	H	0.780385	-0.562507	-1.128394
H109	H	0.485618	-0.441474	-0.539093
H110	H	0.796743	-0.582829	-0.329812
H111	H	0.917571	-1.008745	-0.539423
H112	H	0.796891	-0.983680	-0.329901
O113	O	0.805974	-0.406658	-1.191432
C114	C	0.741849	-0.394295	-1.222899
H115	H	0.722395	-0.360306	-1.168613
H116	H	0.738762	-0.371711	-1.285940
H117	H	0.712537	-0.440871	-1.239589
H118	H	0.929694	-0.283222	-0.834837
H119	H	0.992456	-0.220508	-0.920352
O120	O	0.235481	-0.262508	-0.321138
C121	C	0.217055	-0.202186	-0.341023
H122	H	0.165141	-0.205101	-0.375708
H123	H	0.222657	-0.166056	-0.275988
H124	H	0.248466	-0.186622	-0.387449
H125	H	0.630145	-0.269986	-0.330106
H126	H	0.971818	-0.241115	-1.091269
O127	O	0.208011	-0.448948	-0.548249
C128	C	0.158762	-0.490672	-0.599073
H129	H	0.111523	-0.465284	-0.602260
H130	H	0.169187	-0.506014	-0.670130
H131	H	0.155752	-0.534456	-0.565929
H132	H	0.721875	-0.490858	-0.949790
H133	H	0.742509	-0.470262	-0.778862
