data_functionalizedCrystal
_audit_creation_method	'MofGen! by Chris Wilmer'
_symmetry_space_group_name_H-M	'P1'
_symmetry_Int_Tables_number	1
_symmetry_cell_setting	triclinic
loop_
_symmetry_equiv_pos_as_xyz
  x,y,z
_cell_length_a	10.686220
_cell_length_b	16.625546
_cell_length_c	10.685910
_cell_angle_alpha	94.382491
_cell_angle_beta	89.676032
_cell_angle_gamma	94.404440
loop_
_atom_site_label
_atom_site_type_symbol
_atom_site_fract_x
_atom_site_fract_y
_atom_site_fract_z
Zn1	Zn	1.972068	-0.196760	0.562377
Zn2	Zn	1.955874	-0.342634	0.352597
Zn3	Zn	1.746243	-0.217324	0.368687
Zn4	Zn	1.762233	-0.341073	0.578380
O5	O	1.859104	-0.274448	0.465510
O6	O	2.145468	-0.208158	0.521118
O7	O	1.914597	-0.335271	0.179180
O8	O	1.776285	-0.101758	0.394417
O9	O	2.133570	-0.315331	0.366993
O10	O	1.942197	-0.086650	0.536720
O11	O	1.760582	-0.243206	0.191002
O12	O	1.572816	-0.241692	0.409935
O13	O	1.803537	-0.312671	0.751807
O14	O	1.584564	-0.332611	0.563995
O15	O	1.957702	-0.206644	0.740050
O16	O	1.930101	-0.455266	0.382511
O17	O	1.787834	-0.454119	0.548392
C18	C	1.533173	-0.289214	0.490448
C19	C	1.393740	-0.295549	0.501147
C20	C	1.858982	-0.483947	0.465467
C21	C	1.859047	-0.573564	0.465481
C22	C	1.859276	-0.901723	0.465595
C23	C	1.859209	-0.810419	0.465567
C24	C	1.859161	-0.737647	0.465538
C25	C	1.859095	-0.646337	0.465511
C26	C	2.186309	-0.259625	0.440475
C27	C	2.325744	-0.253308	0.429807
C28	C	1.884210	-0.257190	0.792720
C29	C	1.894908	-0.249835	0.932157
C30	C	1.859264	-0.064128	0.465579
C31	C	1.859332	0.025498	0.465608
C32	C	1.834090	-0.291659	1.139574
C33	C	1.823398	-0.299018	1.000136
H34	H	1.374200	-0.212298	0.360544
H35	H	1.345277	-0.336567	0.570406
H36	H	1.753995	-0.346754	0.951661
O37	O	1.977613	-0.192903	0.990185
C38	C	1.970262	-0.197993	1.121157
H39	H	1.874781	-0.227864	1.146331
H40	H	2.047464	-0.235620	1.152637
C41	C	2.104195	-0.075683	1.156776
C42	C	1.986919	-0.112365	1.187696
H43	H	2.114475	-0.022865	1.197822
H44	H	2.109152	-0.072255	1.068538
H45	H	2.168517	-0.107047	1.183011
H46	H	1.922600	-0.081006	1.161447
H47	H	1.981951	-0.115786	1.275932
