data_functionalizedCrystal
_audit_creation_method	'MofGen! by Chris Wilmer'
_symmetry_space_group_name_H-M	'P1'
_symmetry_Int_Tables_number	1
_symmetry_cell_setting	triclinic
loop_
_symmetry_equiv_pos_as_xyz
  x,y,z
_cell_length_a	11.026607
_cell_length_b	11.892095
_cell_length_c	11.026607
_cell_angle_alpha	94.748248
_cell_angle_beta	71.413983
_cell_angle_gamma	94.755027
loop_
_atom_site_label
_atom_site_type_symbol
_atom_site_fract_x
_atom_site_fract_y
_atom_site_fract_z
O1	O	1.733101	0.094001	-0.527257
O2	O	1.366522	0.094003	-0.466493
O3	O	1.519429	0.093998	-0.313585
O4	O	1.580194	0.094006	-0.680165
O5	O	1.506675	-0.094009	-0.326309
O6	O	1.353767	-0.094005	-0.479217
O7	O	1.720347	-0.094006	-0.539981
Zn8	Zn	1.535032	-0.123856	-0.511619
Zn9	Zn	1.551837	0.123852	-0.494855
O10	O	1.567439	-0.094002	-0.692889
C11	C	1.312485	-0.000001	-0.461645
C12	C	1.170471	-0.000000	-0.428228
N13	N	1.523572	-0.292909	-0.523062
C14	C	1.116822	0.000003	-0.520498
C15	C	0.970043	0.000003	-0.485962
C16	C	1.643030	-0.529561	-0.403709
C17	C	1.635031	-0.647903	-0.411718
C18	C	1.499568	-0.647936	-0.547082
C19	C	1.507567	-0.529595	-0.539073
C20	C	1.579302	-0.470411	-0.467385
C21	C	1.587308	-0.352067	-0.459384
C22	C	1.451838	-0.352103	-0.594740
C23	C	1.443839	-0.470445	-0.602749
C24	C	1.774384	-0.000001	-0.544829
C25	C	1.916398	0.000006	-0.578245
C26	C	1.501842	-0.000004	-0.272288
C27	C	1.468426	-0.000000	-0.130273
N28	N	1.563304	0.292906	-0.483404
C29	C	1.585026	0.000003	-0.734186
C30	C	1.618443	0.000006	-0.876200
C31	C	1.560695	0.000001	-0.076624
C32	C	1.526160	0.000005	0.070155
H33	H	1.179554	-0.000002	-0.625061
H34	H	1.701450	-0.481373	-0.345348
H35	H	1.686923	-0.696059	-0.359865
C36	C	1.420665	-0.713051	-0.625926
H37	H	1.425036	-0.792002	-0.621576
H38	H	1.333899	-0.693673	-0.592156
H39	H	1.454405	-0.693662	-0.712702
H40	H	1.363863	0.000008	-0.067540
H41	H	1.385430	-0.518646	-0.661112
H42	H	1.665258	-0.000007	-0.139358
H43	H	0.979125	0.000001	-0.682816
C44	C	1.381752	-0.287037	-0.664805
H45	H	1.396789	-0.208080	-0.649770
H46	H	1.412873	-0.306440	-0.754193
H47	H	1.292354	-0.306437	-0.633660
H48	H	1.645722	-0.303881	-0.401016
C49	C	1.384896	0.000007	0.154886
H50	H	1.380215	0.000002	0.242422
H51	H	1.348109	0.065567	0.141693
H52	H	1.339218	-0.065566	0.132828
C53	C	1.085736	0.000003	-0.286971
H54	H	0.998201	0.000013	-0.282289
H55	H	1.098911	-0.065557	-0.250168
H56	H	1.107811	0.065576	-0.241308
H57	H	0.907316	0.000030	-0.381391
C58	C	1.759708	-0.000005	0.039071
H59	H	1.764390	-0.000017	-0.048467
H60	H	1.805397	0.065553	0.061127
H61	H	1.796479	-0.065579	0.052266
