data_functionalizedCrystal
_audit_creation_method	'MofGen! by Chris Wilmer'
_symmetry_space_group_name_H-M	'P1'
_symmetry_Int_Tables_number	1
_symmetry_cell_setting	triclinic
loop_
_symmetry_equiv_pos_as_xyz
  x,y,z
_cell_length_a	19.121102
_cell_length_b	19.121063
_cell_length_c	19.120904
_cell_angle_alpha	85.258387
_cell_angle_beta	89.911827
_cell_angle_gamma	90.126902
loop_
_atom_site_label
_atom_site_type_symbol
_atom_site_fract_x
_atom_site_fract_y
_atom_site_fract_z
Zn1	Zn	1.039579	-0.343506	0.456040
Zn2	Zn	1.039493	-0.456149	0.343386
Zn3	Zn	0.927792	-0.333518	0.333417
Zn4	Zn	0.917325	-0.455677	0.455570
O5	O	0.981047	-0.397212	0.397103
O6	O	1.137479	-0.362826	0.445465
O7	O	1.029020	-0.435899	0.243797
O8	O	0.947038	-0.236577	0.345708
O9	O	1.137415	-0.445584	0.362699
O10	O	1.029167	-0.243915	0.435798
O11	O	0.946954	-0.345802	0.236473
O12	O	0.828493	-0.345345	0.345252
O13	O	0.929198	-0.444780	0.553899
O14	O	0.820803	-0.435094	0.434997
O15	O	1.019018	-0.362368	0.554244
O16	O	1.018870	-0.554352	0.362243
O17	O	0.929114	-0.554005	0.444664
C18	C	0.799261	-0.389085	0.388992
C19	C	0.721490	-0.385626	0.385539
C20	C	0.680968	-0.430793	0.430575
C21	C	0.607894	-0.427534	0.427334
C22	C	0.575344	-0.379110	0.379053
C23	C	0.615872	-0.333937	0.334016
C24	C	0.688944	-0.337194	0.337261
C25	C	0.354913	-0.366933	0.366924
C26	C	0.281835	-0.363681	0.363681
C27	C	0.273863	-0.457277	0.457000
C28	C	0.346937	-0.460532	0.460238
C29	C	0.387458	-0.415357	0.415203
C30	C	0.500651	-0.375778	0.375738
C31	C	0.462149	-0.418686	0.418523
C32	C	0.972865	-0.579659	0.404501
C33	C	0.969428	-0.657714	0.407691
C34	C	1.014577	-0.694545	0.366317
C35	C	1.011348	-0.767887	0.369323
C36	C	0.962966	-0.804396	0.413699
C37	C	0.917815	-0.767560	0.455078
C38	C	0.921048	-0.694220	0.452076
C39	C	0.950869	-1.025828	0.424912
C40	C	0.947638	-1.099173	0.427909
C41	C	1.041173	-1.099494	0.342155
C42	C	1.044399	-1.026153	0.339154
C43	C	0.999250	-0.989323	0.380535
C44	C	0.959663	-0.879363	0.416770
C45	C	1.002557	-0.914358	0.377467
C46	C	1.163544	-0.405372	0.405246
C47	C	1.241313	-0.408849	0.408717
C48	C	0.972950	-0.404635	0.580263
C49	C	0.969500	-0.407799	0.658315
C50	C	0.989280	-0.214054	0.389693
C51	C	0.992788	-0.136003	0.386535
C52	C	0.989156	-0.389769	0.214655
C53	C	0.992751	-0.386414	0.136602
C54	C	1.014640	-0.366379	0.695165
C55	C	1.011390	-0.369348	0.768503
C56	C	0.963001	-0.413741	0.804990
C57	C	0.917856	-0.455162	0.768135
C58	C	0.921103	-0.452188	0.694798
C59	C	0.950853	-0.424862	1.026410
C60	C	0.947610	-0.427833	1.099752
C61	C	1.041143	-0.342019	1.100115
C62	C	1.044390	-0.339052	1.026777
C63	C	0.999242	-0.380470	0.989928
C64	C	0.959679	-0.416779	0.879953
C65	C	1.002561	-0.377429	0.914966
H66	H	0.373433	-0.499966	0.499552
F67	F	1.089188	-0.297940	1.139337
H68	H	0.920269	-0.909097	0.452900
F69	F	0.896103	-0.475081	1.138582
F70	F	0.866327	-0.806418	0.502311
F71	F	0.902817	-0.986640	0.468953
F72	F	1.089223	-1.138696	0.298121
H73	H	0.255336	-0.324240	0.324369
F74	F	1.059458	-0.325289	0.807720
H75	H	0.914100	-0.458598	0.996417
F76	F	0.230732	-0.505353	0.504925
F77	F	1.054050	-0.875502	0.330243
H78	H	0.884283	-0.664233	0.485768
F79	F	0.866354	-0.502405	0.806968
F80	F	0.908184	-0.464026	0.918791
F81	F	0.896134	-1.138026	0.475135
F82	F	0.496793	-0.470220	0.469906
H83	H	1.083795	-0.996429	0.303019
F84	F	0.732070	-0.289119	0.289329
F85	F	1.095892	-0.291804	0.987950
F86	F	0.873057	-0.496271	0.655580
H87	H	1.054046	-0.330232	0.665463
F88	F	1.054052	-0.330178	0.876132
H89	H	0.574904	-0.464315	0.464006
F90	F	0.715603	-0.482337	0.481959
H91	H	0.589364	-0.294506	0.294708
F92	F	0.398029	-0.318851	0.318995
H93	H	1.053972	-0.664824	0.330178
F94	F	0.466003	-0.324243	0.324355
F95	F	1.059405	-0.807082	0.325289
