data_functionalizedCrystal
_audit_creation_method	'MofGen! by Chris Wilmer'
_symmetry_space_group_name_H-M	'P1'
_symmetry_Int_Tables_number	1
_symmetry_cell_setting	triclinic
loop_
_symmetry_equiv_pos_as_xyz
  x,y,z
_cell_length_a	16.959455
_cell_length_b	16.959454
_cell_length_c	16.959447
_cell_angle_alpha	89.976829
_cell_angle_beta	89.982507
_cell_angle_gamma	90.017022
loop_
_atom_site_label
_atom_site_type_symbol
_atom_site_fract_x
_atom_site_fract_y
_atom_site_fract_z
Zn1	Zn	1.208408	-0.314758	-0.446928
Zn2	Zn	1.208324	-0.446942	-0.314758
Zn3	Zn	1.076230	-0.314775	-0.314766
Zn4	Zn	1.076202	-0.446891	-0.446897
O5	O	1.142291	-0.380842	-0.380837
O6	O	1.319008	-0.332307	-0.429406
O7	O	1.190777	-0.429438	-0.204148
O8	O	1.093811	-0.204162	-0.332314
O9	O	1.318946	-0.429422	-0.332301
O10	O	1.190922	-0.204149	-0.429413
O11	O	1.093728	-0.332335	-0.204154
O12	O	0.965615	-0.332286	-0.332283
O13	O	1.093763	-0.429335	-0.557512
O14	O	0.965594	-0.429352	-0.429359
O15	O	1.190895	-0.332258	-0.557535
O16	O	1.190750	-0.557546	-0.332270
O17	O	1.093681	-0.557509	-0.429352
C18	C	0.936925	-0.380816	-0.380819
C19	C	0.849068	-0.380823	-0.380830
C20	C	0.477579	-0.330258	-0.330395
C21	C	0.477606	-0.431490	-0.431324
C22	C	0.560152	-0.431479	-0.431320
C23	C	0.601415	-0.380857	-0.380851
C24	C	0.560132	-0.330247	-0.330387
C25	C	0.601441	-0.482094	-0.481777
C26	C	0.683992	-0.482085	-0.481773
C27	C	0.725256	-0.431459	-0.431308
C28	C	0.683969	-0.380846	-0.380843
C29	C	0.725232	-0.330224	-0.330374
C30	C	0.683945	-0.279607	-0.279913
C31	C	0.601397	-0.279621	-0.279922
C32	C	0.807805	-0.431445	-0.431299
C33	C	0.807785	-0.330213	-0.330366
C34	C	1.142225	-0.586208	-0.380824
C35	C	1.142269	-0.674065	-0.380844
C36	C	1.091820	-1.045551	-0.431382
C37	C	1.192982	-1.045530	-0.330373
C38	C	1.192954	-0.962984	-0.330365
C39	C	1.142358	-0.921717	-0.380867
C40	C	1.091789	-0.962997	-0.431375
C41	C	1.243516	-0.921698	-0.279852
C42	C	1.243490	-0.839147	-0.279842
C43	C	1.192897	-0.797879	-0.330348
C44	C	1.142327	-0.839164	-0.380859
C45	C	1.091731	-0.797898	-0.431360
C46	C	1.041164	-0.839181	-0.481876
C47	C	1.041196	-0.921729	-0.481881
C48	C	1.192865	-0.715331	-0.330343
C49	C	1.091700	-0.715344	-0.431353
C50	C	1.348459	-0.380868	-0.380856
C51	C	1.436316	-0.380880	-0.380864
C52	C	1.142335	-0.380789	-0.587006
C53	C	1.142354	-0.380767	-0.674862
C54	C	1.142379	-0.174673	-0.380868
C55	C	1.142416	-0.086817	-0.380881
C56	C	1.091792	-0.431301	-0.716126
C57	C	1.192929	-0.330206	-0.716152
C58	C	1.192946	-0.330181	-0.798698
C59	C	1.142384	-0.380715	-0.839962
C60	C	1.091805	-0.431275	-0.798679
C61	C	1.243518	-0.279616	-0.839987
C62	C	1.243536	-0.279587	-0.922538
C63	C	1.192977	-0.330126	-0.963803
C64	C	1.142397	-0.380689	-0.922515
C65	C	1.091835	-0.431223	-0.963779
C66	C	1.041258	-0.481790	-0.922493
C67	C	1.041246	-0.481814	-0.839944
C68	C	1.192989	-0.330103	-1.046351
C69	C	1.091848	-0.431197	-1.046332
C70	C	1.142292	-0.380837	-0.175471
C71	C	1.142426	-0.380637	-0.087615
H72	H	0.567774	-0.238412	-0.238838
H73	H	0.841417	-0.472659	-0.472381
O74	O	1.042778	-0.480458	-0.675933
C75	C	1.087763	-0.531539	-0.628206
H76	H	1.147673	-0.503665	-0.615857
H77	H	1.096432	-0.590105	-0.660018
C78	C	0.970684	-0.580111	-0.564947
C79	C	1.044264	-0.545873	-0.549775
H80	H	0.943851	-0.588957	-0.516568
H81	H	0.940376	-0.545699	-0.597103
H82	H	0.977918	-0.628913	-0.591458
H83	H	1.037028	-0.497069	-0.523273
H84	H	1.074570	-0.580277	-0.517612
O85	O	0.992130	-0.799054	-0.531015
C86	C	1.037088	-0.751228	-0.582080
H87	H	1.099347	-0.776064	-0.587023
H88	H	1.039805	-0.688680	-0.557627
C89	C	0.921958	-0.719424	-0.658146
C90	C	0.998424	-0.749932	-0.664223
H91	H	0.898107	-0.718621	-0.708815
H92	H	0.891668	-0.751642	-0.623741
H93	H	0.924233	-0.667304	-0.637765
H94	H	0.996147	-0.802054	-0.684594
H95	H	1.028713	-0.717722	-0.698633
H96	H	0.444005	-0.472709	-0.472409
O97	O	0.847900	-0.280954	-0.281452
C98	C	0.895695	-0.229969	-0.326532
H99	H	0.870849	-0.225170	-0.388799
H100	H	0.958255	-0.254405	-0.329202
C101	C	0.927477	-0.153641	-0.211579
C102	C	0.896957	-0.147742	-0.288054
H103	H	0.928259	-0.102921	-0.187843
H104	H	0.895279	-0.187993	-0.181206
H105	H	0.979607	-0.174008	-0.213814
H106	H	0.844825	-0.127386	-0.285817
H107	H	0.929147	-0.113385	-0.318425
H108	H	0.717552	-0.238394	-0.238818
O109	O	1.241935	-0.281087	-0.675982
C110	C	1.196948	-0.230031	-0.628244
H111	H	1.137029	-0.257901	-0.615872
H112	H	1.188300	-0.171440	-0.660057
C113	C	1.314020	-0.181530	-0.565028
C114	C	1.240429	-0.215764	-0.549828
H115	H	1.340842	-0.172726	-0.516659
H116	H	1.344330	-0.215925	-0.597192
H117	H	1.306803	-0.132708	-0.591541
H118	H	1.247647	-0.264589	-0.523325
H119	H	1.210121	-0.181377	-0.517657
H120	H	1.000086	-0.522931	-0.956100
O121	O	1.292528	-0.230505	-0.799810
C122	C	1.247547	-0.179457	-0.752058
H123	H	1.187626	-0.207324	-0.739691
H124	H	1.238903	-0.120857	-0.783856
C125	C	1.364626	-0.130982	-0.688835
C126	C	1.291033	-0.165212	-0.673641
H127	H	1.391451	-0.122192	-0.640465
H128	H	1.394931	-0.165372	-0.721009
H129	H	1.357413	-0.082153	-0.715336
H130	H	1.298247	-0.214045	-0.647149
H131	H	1.260730	-0.130830	-0.641460
H132	H	1.234032	-0.681722	-0.289211
H133	H	0.443960	-0.289044	-0.289313
O134	O	1.292650	-0.798960	-0.230889
C135	C	1.343672	-0.751174	-0.275937
H136	H	1.315753	-0.738798	-0.335812
H137	H	1.402253	-0.782947	-0.284677
C138	C	1.392276	-0.687971	-0.158918
C139	C	1.357982	-0.672765	-0.232455
H140	H	1.401107	-0.639606	-0.132095
H141	H	1.357904	-0.720168	-0.128567
H142	H	1.441090	-0.714451	-0.166211
H143	H	1.309165	-0.646295	-0.225160
H144	H	1.392346	-0.640562	-0.262804
O145	O	1.042769	-0.480399	-1.086324
C146	C	1.060030	-0.559186	-1.066164
H147	H	1.090410	-0.560844	-1.006235
H148	H	1.100664	-0.585795	-1.112630
C149	C	0.945645	-0.605029	-1.135936
C150	C	0.982952	-0.607066	-1.062326
H151	H	0.898100	-0.634566	-1.133572
H152	H	0.934017	-0.551949	-1.149521
H153	H	0.979515	-0.627202	-1.174650
H154	H	0.949086	-0.584885	-1.023616
H155	H	0.994572	-0.660144	-1.048734
O156	O	0.561318	-0.531147	-0.530881
C157	C	0.513586	-0.486206	-0.581996
H158	H	0.538489	-0.423960	-0.586983
H159	H	0.451017	-0.483447	-0.557562
C160	C	0.481743	-0.601378	-0.657977
C161	C	0.512332	-0.524929	-0.664107
H162	H	0.480965	-0.625265	-0.708626
H163	H	0.513898	-0.631657	-0.623539
H164	H	0.429605	-0.599068	-0.637612
H165	H	0.564472	-0.527240	-0.684462
H166	H	0.480186	-0.494651	-0.698551
H167	H	1.000027	-0.955349	-0.523007
O168	O	1.042726	-1.085770	-0.480376
C169	C	1.053615	-1.167479	-0.469575
H170	H	1.079543	-1.178771	-0.408600
H171	H	1.095689	-1.190850	-0.516501
C172	C	0.941806	-1.196041	-0.551644
C173	C	0.973645	-1.209911	-0.476751
H174	H	0.892478	-1.222217	-0.556074
H175	H	0.934471	-1.140992	-0.558923
H176	H	0.976875	-1.215517	-0.590741
H177	H	0.938581	-1.190427	-0.437656
H178	H	0.980972	-1.264958	-0.469465
H179	H	1.050501	-0.681750	-0.472480
O180	O	0.992014	-0.530902	-0.799935
C181	C	0.913239	-0.513619	-0.820081
H182	H	0.911616	-0.483205	-0.880015
H183	H	0.886612	-0.473008	-0.773615
C184	C	0.867345	-0.628038	-0.750284
C185	C	0.865351	-0.590689	-0.823898
H186	H	0.837804	-0.675578	-0.752635
H187	H	0.920417	-0.639681	-0.736708
H188	H	0.845158	-0.594188	-0.711570
H189	H	0.887547	-0.624536	-0.862609
H190	H	0.812281	-0.579054	-0.837481
O191	O	1.242072	-1.085734	-0.281363
C192	C	1.231223	-1.167446	-0.292168
H193	H	1.205341	-1.178718	-0.353159
H194	H	1.189128	-1.190895	-0.245268
C195	C	1.342989	-1.195960	-0.210022
C196	C	1.311206	-1.209804	-0.284936
H197	H	1.392325	-1.222090	-0.205559
H198	H	1.350297	-1.140909	-0.202740
H199	H	1.307902	-1.215501	-0.170948
H200	H	1.346288	-1.190255	-0.324009
H201	H	1.303906	-1.264853	-0.292225
H202	H	1.284703	-0.955303	-0.238731
H203	H	1.284720	-0.238413	-0.956146
H204	H	1.234161	-0.288925	-1.079963
H205	H	0.717600	-0.523301	-0.522863
