data_functionalizedCrystal
_audit_creation_method	'MofGen! by Chris Wilmer'
_symmetry_space_group_name_H-M	'P1'
_symmetry_Int_Tables_number	1
_symmetry_cell_setting	triclinic
loop_
_symmetry_equiv_pos_as_xyz
  x,y,z
_cell_length_a	12.759401
_cell_length_b	13.031981
_cell_length_c	12.759393
_cell_angle_alpha	97.217753
_cell_angle_beta	90.018496
_cell_angle_gamma	97.192140
loop_
_atom_site_label
_atom_site_type_symbol
_atom_site_fract_x
_atom_site_fract_y
_atom_site_fract_z
Zn1	Zn	1.553145	-0.416051	0.540805
Zn2	Zn	1.530724	-0.590868	0.342781
Zn3	Zn	1.377440	-0.416106	0.365137
Zn4	Zn	1.355131	-0.590787	0.518433
O5	O	1.454110	-0.503453	0.441789
O6	O	1.697191	-0.439252	0.514543
O7	O	1.510344	-0.567742	0.198719
O8	O	1.419468	-0.269833	0.407159
O9	O	1.680718	-0.567689	0.369056
O10	O	1.548558	-0.269793	0.536221
O11	O	1.397727	-0.439345	0.215143
O12	O	1.227461	-0.439267	0.385466
O13	O	1.381444	-0.567551	0.668429
O14	O	1.211070	-0.567605	0.498091
O15	O	1.526925	-0.439174	0.684866
O16	O	1.488711	-0.737123	0.347363
O17	O	1.359703	-0.737064	0.476414
C18	C	1.181145	-0.503434	0.441777
C19	C	1.064366	-0.503451	0.441794
C20	C	1.419382	-0.775018	0.407058
C21	C	1.404621	-0.891195	0.392235
C22	C	1.000984	-0.570383	0.500313
C23	C	0.891258	-0.570396	0.500323
C24	C	0.908308	-0.436542	0.383285
C25	C	1.018032	-0.436524	0.383282
C26	C	0.991138	-0.647666	0.567881
C27	C	0.881413	-0.647679	0.567891
C28	C	1.461870	-0.942887	0.449546
C29	C	1.446615	-1.062962	0.434227
C30	C	1.728141	-0.503473	0.441802
C31	C	1.844916	-0.503482	0.441807
C32	C	1.454197	-0.503348	0.715836
C33	C	1.454234	-0.503303	0.832619
C34	C	1.489003	-0.230828	0.476679
C35	C	1.503872	-0.114651	0.491547
C36	C	1.454094	-0.503483	0.168818
C37	C	1.454298	-0.503233	0.052074
C38	C	1.529996	-0.436450	0.896042
C39	C	1.530026	-0.436412	1.005771
C40	C	1.378528	-0.570089	0.988643
C41	C	1.378494	-0.570120	0.878916
C42	C	1.617465	-0.359276	0.905931
C43	C	1.617495	-0.359238	1.015660
H44	H	0.870569	-0.382052	0.335648
C45	C	1.087748	-0.362897	0.318905
C46	C	1.087839	-0.244087	0.342869
C47	C	1.157551	-0.170459	0.278484
C48	C	1.227172	-0.215640	0.190135
C49	C	1.227083	-0.334456	0.166167
C50	C	1.157371	-0.408084	0.230552
H51	H	1.036299	-0.210636	0.408274
H52	H	1.157616	-0.082503	0.296227
H53	H	1.278777	-0.161136	0.142473
H54	H	1.278623	-0.367907	0.100762
H55	H	1.157306	-0.496040	0.212809
C56	C	1.543346	-0.882591	0.531153
C57	C	1.660918	-0.897402	0.520803
C58	C	1.742397	-0.837108	0.602410
C59	C	1.706304	-0.762002	0.694366
C60	C	1.588725	-0.747188	0.704720
C61	C	1.507246	-0.807482	0.623113
H62	H	1.687642	-0.953003	0.452728
H63	H	1.829437	-0.848075	0.594744
H64	H	1.766619	-0.717369	0.754776
H65	H	1.562002	-0.691587	0.772795
H66	H	1.420207	-0.796515	0.630778
H67	H	0.841286	-0.728611	0.535614
C68	C	1.585348	-1.054367	0.573166
C69	C	1.702920	-1.069182	0.562826
C70	C	1.784393	-1.008899	0.644445
C71	C	1.748294	-0.933801	0.736405
C72	C	1.630715	-0.918983	0.746750
C73	C	1.549243	-0.979266	0.665130
H74	H	1.729648	-1.124776	0.494748
H75	H	1.871432	-1.019869	0.636787
H76	H	1.808605	-0.889176	0.796825
H77	H	1.603987	-0.863388	0.814828
H78	H	1.462203	-0.968296	0.672789
H79	H	0.851103	-0.618784	0.648936
C80	C	1.295137	-0.643651	0.809165
C81	C	1.176807	-0.635081	0.825365
C82	C	1.093439	-0.708613	0.755620
C83	C	1.128401	-0.790716	0.669673
C84	C	1.246737	-0.799289	0.653469
C85	C	1.330105	-0.725756	0.723214
H86	H	1.150920	-0.574301	0.888992
H87	H	1.005839	-0.702266	0.767616
H88	H	1.066688	-0.845149	0.618043
H89	H	1.272624	-0.860069	0.589842
H90	H	1.417705	-0.732103	0.711218
C91	C	1.023848	-0.751489	0.515055
C92	C	1.141579	-0.766329	0.507489
C93	C	1.174289	-0.870150	0.454659
C94	C	1.089269	-0.959133	0.409395
C95	C	0.971531	-0.944296	0.416959
C96	C	0.938820	-0.840475	0.469790
H97	H	1.204522	-0.700456	0.540997
H98	H	1.261448	-0.881133	0.449059
H99	H	1.113484	-1.035988	0.370287
H100	H	0.908587	-1.010169	0.383451
H101	H	0.851662	-0.829492	0.475389
C102	C	1.716864	-0.398442	0.854933
C103	C	1.731061	-0.404066	0.734585
C104	C	1.830464	-0.443223	0.683587
C105	C	1.915669	-0.476755	0.752937
C106	C	1.901474	-0.471132	0.873292
C107	C	1.802071	-0.431975	0.924290
H108	H	1.667985	-0.379242	0.683241
H109	H	1.840972	-0.447385	0.594491
H110	H	1.989253	-0.505741	0.715185
H111	H	1.964551	-0.495956	0.924636
H112	H	1.791564	-0.427813	1.013386
H113	H	1.386300	-1.107597	0.373821
C114	C	1.295221	-0.643590	1.039573
C115	C	1.295251	-0.643557	1.160267
C116	C	1.211943	-0.717061	1.211194
C117	C	1.128606	-0.790599	1.141427
C118	C	1.128573	-0.790634	1.020726
C119	C	1.211881	-0.717130	0.969798
H120	H	1.356945	-0.589118	1.211919
H121	H	1.211968	-0.717034	1.300546
H122	H	1.066936	-0.845011	1.179126
H123	H	1.066879	-0.845074	0.969073
H124	H	1.211856	-0.717157	0.880447
C125	C	1.602008	-0.249931	0.879696
C126	C	1.589574	-0.161747	0.969410
C127	C	1.574115	-0.052405	0.943175
C128	C	1.571090	-0.031247	0.827226
C129	C	1.583525	-0.119433	0.737505
C130	C	1.598984	-0.228775	0.763740
H131	H	1.591812	-0.177407	1.055250
H132	H	1.564910	0.012876	1.009594
H133	H	1.559647	0.049694	0.807805
H134	H	1.581287	-0.103773	0.651665
H135	H	1.608189	-0.294056	0.697321
H136	H	1.598199	-0.282327	1.059538
H137	H	1.696098	-0.380919	1.042667
H138	H	1.023702	-0.626078	0.652047
H139	H	1.344310	-0.935834	0.331832
