data_functionalizedCrystal
_audit_creation_method	'MofGen! by Chris Wilmer'
_symmetry_space_group_name_H-M	'P1'
_symmetry_Int_Tables_number	1
_symmetry_cell_setting	triclinic
loop_
_symmetry_equiv_pos_as_xyz
  x,y,z
_cell_length_a	15.995300
_cell_length_b	14.519709
_cell_length_c	12.996460
_cell_angle_alpha	90.007090
_cell_angle_beta	89.992829
_cell_angle_gamma	96.424024
loop_
_atom_site_label
_atom_site_type_symbol
_atom_site_fract_x
_atom_site_fract_y
_atom_site_fract_z
O1	O	1.111191	-0.118654	-0.085607
O2	O	1.611191	0.381346	0.414393
O3	O	0.867432	-0.133382	-0.085601
O4	O	1.367432	0.366618	0.414399
O5	O	0.995774	0.008234	-0.085595
O6	O	1.495774	0.508234	0.414405
O7	O	0.982848	-0.260269	-0.085613
O8	O	1.482848	0.239731	0.414387
O9	O	0.995761	0.008242	0.085539
O10	O	1.495761	0.508242	0.585539
O11	O	0.867418	-0.133374	0.085533
O12	O	1.367418	0.366626	0.585533
O13	O	1.111177	-0.118646	0.085527
O14	O	1.611177	0.381354	0.585527
Cu15	Cu	0.989296	-0.126009	0.101156
Cu16	Cu	1.489296	0.373991	0.601156
Cu17	Cu	0.989312	-0.126018	-0.101230
Cu18	Cu	1.489312	0.373982	0.398770
O19	O	0.982835	-0.260261	0.085521
O20	O	1.482835	0.239739	0.585521
C21	C	0.836229	-0.132777	-0.000033
C22	C	1.336229	0.367223	0.499967
C23	C	0.743273	-0.130976	-0.000031
C24	C	1.243273	0.369024	0.499969
C25	C	0.573085	-0.127650	-0.000038
C26	C	1.073085	0.372350	0.499962
C27	C	0.525770	-0.228484	-0.000043
C28	C	1.025770	0.271516	0.499957
C29	C	0.429080	-0.226644	-0.000434
C30	C	0.929080	0.273356	0.499566
C31	C	0.405524	-0.124377	-0.000045
C32	C	0.905524	0.375623	0.499955
C33	C	0.446589	-0.074355	-0.097574
C34	C	0.946589	0.425645	0.402426
C35	C	0.543226	-0.076906	-0.097654
C36	C	1.043226	0.423094	0.402346
C37	C	0.543488	-0.075404	0.096964
C38	C	1.043488	0.424596	0.596964
C39	C	0.446544	-0.075414	0.098244
C40	C	0.946544	0.424586	0.598244
C41	C	0.310826	-0.122522	-0.000052
C42	C	0.810826	0.377478	0.499948
C43	C	0.667784	-0.129503	-0.000038
C44	C	1.167784	0.370497	0.499962
C45	C	0.995165	0.042596	-0.000028
C46	C	1.495165	0.542596	0.499972
C47	C	0.993360	0.144974	-0.000027
C48	C	1.493360	0.644974	0.499973
C49	C	1.142380	-0.119251	-0.000043
C50	C	1.642380	0.380749	0.499957
C51	C	1.235336	-0.121051	-0.000052
C52	C	1.735336	0.378949	0.499948
C53	C	0.983444	-0.294624	-0.000048
C54	C	1.483444	0.205376	0.499952
C55	C	0.985249	-0.397001	-0.000056
C56	C	1.485249	0.102999	0.499944
N57	N	0.989291	-0.126002	0.243503
N58	N	1.489291	0.373998	0.743503
C59	C	0.986714	0.519856	-0.000054
C60	C	1.486714	1.019856	0.499946
C61	C	0.988560	0.415552	-0.000046
C62	C	1.488560	0.915552	0.499954
C63	C	0.990037	0.332418	-0.000039
C64	C	1.490037	0.832418	0.499961
C65	C	0.991883	0.228108	-0.000034
C66	C	1.491883	0.728108	0.499966
N67	N	0.989324	-0.126018	-0.243577
N68	N	1.489324	0.373982	0.256423
C69	C	0.989311	-0.126019	0.663317
C70	C	1.489311	0.373981	1.163317
C71	C	0.989303	-0.126018	0.546512
C72	C	1.489303	0.373982	1.046512
C73	C	0.989302	-0.126011	0.453414
C74	C	1.489302	0.373989	0.953414
C75	C	0.989293	-0.126008	0.336601
C76	C	1.489293	0.373992	0.836601
H77	H	0.431093	-0.000853	0.104426
H78	H	0.931093	0.499147	0.604426
H79	H	0.544317	-0.269002	0.069885
H80	H	1.044317	0.230998	0.569885
Cl81	Cl	0.575205	-0.126653	0.211132
Cl82	Cl	1.075205	0.373347	0.711132
H83	H	0.561605	-0.112964	-0.170840
H84	H	1.061605	0.387036	0.329160
H85	H	0.418261	-0.108655	-0.170434
H86	H	0.918261	0.391345	0.329566
H87	H	0.419253	-0.111943	0.170397
H88	H	0.919253	0.388057	0.670397
Cl89	Cl	0.556139	-0.290123	-0.107870
Cl90	Cl	1.056139	0.209877	0.392130
Cl91	Cl	0.386178	-0.287074	-0.109014
Cl92	Cl	0.886178	0.212926	0.390986
H93	H	0.575158	-0.001062	0.097907
H94	H	1.075158	0.498938	0.597907
Cl95	Cl	0.592887	0.037406	-0.104075
Cl96	Cl	1.092887	0.537406	0.395925
H97	H	0.400670	-0.265950	0.069463
H98	H	0.900670	0.234050	0.569463
H99	H	0.432377	0.000788	-0.100922
H100	H	0.932377	0.500788	0.399078
