data_functionalizedCrystal
_audit_creation_method	'MofGen! by Chris Wilmer'
_symmetry_space_group_name_H-M	'P1'
_symmetry_Int_Tables_number	1
_symmetry_cell_setting	triclinic
loop_
_symmetry_equiv_pos_as_xyz
  x,y,z
_cell_length_a	13.897449
_cell_length_b	13.897441
_cell_length_c	17.077402
_cell_angle_alpha	89.970213
_cell_angle_beta	90.024772
_cell_angle_gamma	89.981404
loop_
_atom_site_label
_atom_site_type_symbol
_atom_site_fract_x
_atom_site_fract_y
_atom_site_fract_z
Zn1	Zn	1.474643	-0.545380	-0.312464
Zn2	Zn	1.974643	-0.045380	0.187536
Zn3	Zn	1.474527	-0.384081	-0.443744
Zn4	Zn	1.974527	0.115919	0.056256
Zn5	Zn	1.313339	-0.384098	-0.312499
Zn6	Zn	1.813339	0.115902	0.187501
Zn7	Zn	1.313298	-0.545334	-0.443695
Zn8	Zn	1.813298	-0.045334	0.056305
O9	O	1.393952	-0.464723	-0.378100
O10	O	1.893952	0.035277	0.121900
O11	O	1.609610	-0.523996	-0.329884
O12	O	2.109610	-0.023996	0.170116
O13	O	1.453113	-0.249102	-0.426369
O14	O	1.953113	0.250898	0.073631
O15	O	1.334802	-0.405520	-0.202647
O16	O	1.834802	0.094480	0.297353
O17	O	1.609524	-0.405490	-0.426335
O18	O	2.109524	0.094510	0.073665
O19	O	1.453312	-0.524012	-0.202622
O20	O	1.953312	-0.024012	0.297378
O21	O	1.334689	-0.249114	-0.329944
O22	O	1.834689	0.250886	0.170056
O23	O	1.178352	-0.405475	-0.329896
O24	O	1.678352	0.094525	0.170104
O25	O	1.334732	-0.680322	-0.426251
O26	O	1.834732	-0.180322	0.073749
O27	O	1.178322	-0.523933	-0.426285
O28	O	1.678322	-0.023933	0.073715
O29	O	1.453272	-0.680356	-0.329837
O30	O	1.953272	-0.180356	0.170163
O31	O	1.453074	-0.405445	-0.553584
O32	O	1.953074	0.094555	-0.053584
O33	O	1.334620	-0.523916	-0.553548
O34	O	1.834620	-0.023916	-0.053548
C35	C	1.143337	-0.464701	-0.378090
C36	C	1.643337	0.035299	0.121910
C37	C	1.036123	-0.464715	-0.378104
C38	C	1.536123	0.035285	0.121896
C39	C	1.394011	-0.716316	-0.378034
C40	C	1.894011	-0.216316	0.121966
C41	C	1.394036	-0.823530	-0.378006
C42	C	1.894036	-0.323530	0.121994
C43	C	1.393856	-0.464695	-0.582048
C44	C	1.893856	0.035305	-0.082048
C45	C	1.393903	-0.464715	-0.669298
C46	C	1.893903	0.035285	-0.169298
C47	C	0.839828	-0.464740	-0.378107
C48	C	1.339828	0.035260	0.121893
C49	C	0.949061	-0.464723	-0.378103
C50	C	1.449061	0.035277	0.121897
C51	C	1.645545	-0.464746	-0.378111
C52	C	2.145545	0.035254	0.121889
C53	C	1.752759	-0.464756	-0.378116
C54	C	2.252759	0.035244	0.121884
C55	C	1.394056	-0.910600	-0.377984
C56	C	1.894056	-0.410600	0.122016
C57	C	1.394083	-1.019833	-0.377949
C58	C	1.894083	-0.519833	0.122051
C59	C	1.393948	-0.214109	-0.378109
C60	C	1.893948	0.285891	0.121891
C61	C	1.394110	-0.106896	-0.377916
C62	C	1.894110	0.393104	0.122084
C63	C	1.455578	-0.526464	-0.710207
C64	C	1.955578	-0.026464	-0.210207
C65	C	1.455618	-0.526484	-0.792188
C66	C	1.955618	-0.026484	-0.292188
C67	C	1.393988	-0.464750	-0.833257
C68	C	1.893988	0.035250	-0.333257
C69	C	1.332307	-0.402998	-0.792342
C70	C	1.832307	0.097002	-0.292342
C71	C	1.332262	-0.402984	-0.710364
C72	C	1.832262	0.097016	-0.210364
C73	C	1.332406	-0.403032	-0.963212
C74	C	1.832406	0.096968	-0.463212
C75	C	1.332452	-0.403046	-1.045197
C76	C	1.832452	0.096954	-0.545197
C77	C	1.455762	-0.526533	-1.045037
C78	C	1.955762	-0.026533	-0.545037
C79	C	1.455717	-0.526518	-0.963058
C80	C	1.955717	-0.026518	-0.463058
C81	C	1.394037	-0.464765	-0.922148
C82	C	1.894037	0.035235	-0.422148
C83	C	1.394074	-0.464773	-0.173356
C84	C	1.894074	0.035227	0.326644
C85	C	1.394126	-0.464794	-0.086106
C86	C	1.894126	0.035206	0.413894
H87	H	1.505768	-0.576730	-0.676774
H88	H	2.005768	-0.076730	-0.176774
Cl89	Cl	1.533143	-0.604128	-0.843613
Cl90	Cl	2.033143	-0.104128	-0.343613
H91	H	1.505906	-0.576781	-0.929619
H92	H	2.005906	-0.076781	-0.429619
Cl93	Cl	1.533306	-0.604162	-1.096465
Cl94	Cl	2.033306	-0.104162	-0.596465
Cl95	Cl	1.254866	-0.325396	-0.911785
Cl96	Cl	1.754866	0.174604	-0.411785
Cl97	Cl	1.254819	-0.325399	-0.843973
Cl98	Cl	1.754819	0.174601	-0.343973
Cl99	Cl	1.254724	-0.325354	-0.658935
Cl100	Cl	1.754724	0.174646	-0.158935
H101	H	1.282263	-0.352780	-1.078634
H102	H	1.782263	0.147220	-0.578634
