data_functionalizedCrystal
_audit_creation_method	'MofGen! by Chris Wilmer'
_symmetry_space_group_name_H-M	'P1'
_symmetry_Int_Tables_number	1
_symmetry_cell_setting	triclinic
loop_
_symmetry_equiv_pos_as_xyz
  x,y,z
_cell_length_a	15.297475
_cell_length_b	18.101395
_cell_length_c	15.296720
_cell_angle_alpha	99.643705
_cell_angle_beta	91.617114
_cell_angle_gamma	80.333681
loop_
_atom_site_label
_atom_site_type_symbol
_atom_site_fract_x
_atom_site_fract_y
_atom_site_fract_z
Zn1	Zn	1.253296	-0.576346	-0.726580
Zn2	Zn	1.278539	-0.682980	-0.580092
Zn3	Zn	1.132181	-0.534744	-0.554822
Zn4	Zn	1.106767	-0.675701	-0.701220
O5	O	1.192696	-0.617443	-0.640678
O6	O	1.379219	-0.610949	-0.728336
O7	O	1.280325	-0.648952	-0.454165
O8	O	1.148319	-0.436645	-0.577643
O9	O	1.397765	-0.689292	-0.620712
O10	O	1.237301	-0.467210	-0.703833
O11	O	1.172796	-0.540044	-0.435600
O12	O	1.006236	-0.532985	-0.553053
O13	O	1.105004	-0.676885	-0.827159
O14	O	0.987564	-0.636545	-0.660612
O15	O	1.212658	-0.603890	-0.845790
O16	O	1.255681	-0.785632	-0.596122
O17	O	1.129481	-0.780284	-0.685115
C18	C	0.965117	-0.579462	-0.601339
C19	C	0.867755	-0.563233	-0.584530
C20	C	0.554578	-0.733434	-0.760815
C21	C	0.646055	-0.748686	-0.776605
C22	C	0.701484	-0.702324	-0.728588
C23	C	0.665428	-0.640708	-0.664778
C24	C	0.573942	-0.625457	-0.648981
C25	C	0.720849	-0.594348	-0.616754
C26	C	0.684792	-0.532731	-0.552944
C27	C	0.593315	-0.517483	-0.537151
C28	C	0.537886	-0.563845	-0.585167
C29	C	0.812334	-0.609598	-0.632551
C30	C	0.831699	-0.501621	-0.520717
C31	C	0.740221	-0.486369	-0.504927
C32	C	1.192583	-0.809831	-0.640632
C33	C	1.192610	-0.892152	-0.640656
C34	C	1.192794	-1.191281	-0.640736
C35	C	1.113520	-1.156667	-0.696923
C36	C	1.113236	-1.070971	-0.696656
C37	C	1.192702	-1.042879	-0.640697
C38	C	1.183698	-1.059025	-0.544069
C39	C	1.183193	-1.144646	-0.544399
C40	C	1.281361	-1.177858	-0.680391
C41	C	1.280465	-1.092353	-0.682321
C42	C	1.192653	-0.959009	-0.640670
C43	C	1.192842	-1.275150	-0.640757
C44	C	1.421163	-0.655573	-0.680172
C45	C	1.518521	-0.671822	-0.697001
C46	C	1.153180	-0.644216	-0.869145
C47	C	1.136341	-0.655626	-0.966504
C48	C	1.192829	-0.424310	-0.640748
C49	C	1.192886	-0.342008	-0.640777
C50	C	1.313081	-0.535774	-1.279745
C51	C	1.328908	-0.525057	-1.188272
C52	C	1.280767	-0.557698	-1.132826
C53	C	1.216797	-0.601059	-1.168860
C54	C	1.200974	-0.611782	-1.260343
C55	C	1.168660	-0.633706	-1.113424
C56	C	1.104691	-0.677067	-1.149458
C57	C	1.088870	-0.687788	-1.240932
C58	C	1.137010	-0.655147	-1.296378
C59	C	1.184484	-0.622982	-1.021941
C60	C	1.072377	-0.698990	-1.002539
C61	C	1.056550	-0.709707	-1.094012
C62	C	1.232108	-0.590728	-0.413109
C63	C	1.249117	-0.579139	-0.315780
H64	H	0.509441	-0.771179	-0.799898
H65	H	0.675406	-0.798856	-0.828558
H66	H	1.240326	-1.040504	-0.500364
C67	C	1.024915	-1.167981	-0.660097
H68	H	1.036023	-1.193705	-0.610627
H69	H	0.994998	-1.197325	-0.704852
H70	H	0.989064	-1.119885	-0.642074
H71	H	0.463396	-0.551428	-0.572316
H72	H	1.236568	-0.587677	-0.992611
C73	C	0.553648	-0.449702	-0.466970
H74	H	0.491228	-0.447261	-0.464439
H75	H	0.566436	-0.403985	-0.482499
H76	H	0.578801	-0.456050	-0.410672
H77	H	0.710851	-0.436200	-0.452971
C78	C	0.892661	-0.450618	-0.467899
H79	H	0.952305	-0.468519	-0.486452
H80	H	0.887838	-0.451973	-0.406432
H81	H	0.875458	-0.399895	-0.478246
C82	C	1.298168	-0.545902	-1.032207
H83	H	1.343154	-0.515397	-1.018686
H84	H	1.316855	-0.593784	-1.014104
H85	H	1.245227	-0.521227	-1.001753
H86	H	1.239294	-1.167074	-0.500248
C87	C	1.097928	-1.011813	-0.500884
H88	H	1.067508	-0.982236	-0.541589
H89	H	1.112296	-0.979166	-0.449080
H90	H	1.061052	-1.044919	-0.485358
H91	H	1.117017	-1.060550	-0.767804
H92	H	0.841682	-0.659767	-0.684506
H93	H	1.380994	-0.489755	-1.158940
H94	H	1.352275	-0.509208	-1.324897
H95	H	1.004465	-0.745012	-1.123365
H96	H	1.117108	-1.187859	-0.768267
H97	H	1.047265	-1.037251	-0.669127
C98	C	1.296661	-1.222588	-0.775094
H99	H	1.249171	-1.249870	-0.791336
H100	H	1.350882	-1.257231	-0.777159
H101	H	1.299345	-1.188252	-0.815218
C102	C	1.290035	-1.079877	-0.778497
H103	H	1.343244	-1.109963	-0.803317
H104	H	1.291936	-1.027771	-0.779039
H105	H	1.240828	-1.094215	-0.812477
C106	C	1.119603	-0.666935	-1.397000
H107	H	1.157437	-0.641286	-1.424856
H108	H	1.059507	-0.647123	-1.407926
H109	H	1.131144	-0.719675	-1.420297
H110	H	1.036788	-0.723102	-1.270269
C111	C	1.096373	-1.153286	-0.501541
H112	H	1.061742	-1.104540	-0.484096
H113	H	1.109750	-1.177259	-0.450967
H114	H	1.064054	-1.183380	-0.543132
C115	C	0.802106	-0.719095	-0.745966
H116	H	0.815640	-0.762426	-0.790852
H117	H	0.832573	-0.728641	-0.692988
H118	H	0.820179	-0.676562	-0.764802
H119	H	1.033178	-0.725571	-0.957395
H120	H	1.341370	-1.074398	-0.645654
H121	H	1.340226	-1.200698	-0.639662
