data_functionalizedCrystal
_audit_creation_method	'MofGen! by Chris Wilmer'
_symmetry_space_group_name_H-M	'P1'
_symmetry_Int_Tables_number	1
_symmetry_cell_setting	triclinic
loop_
_symmetry_equiv_pos_as_xyz
  x,y,z
_cell_length_a	15.297475
_cell_length_b	12.759400
_cell_length_c	12.759393
_cell_angle_alpha	89.968436
_cell_angle_beta	80.312341
_cell_angle_gamma	80.317822
loop_
_atom_site_label
_atom_site_type_symbol
_atom_site_fract_x
_atom_site_fract_y
_atom_site_fract_z
Zn1	Zn	-1.379338	0.696589	0.871592
Zn2	Zn	-1.379247	0.872290	0.695893
Zn3	Zn	-1.228461	0.666193	0.665565
Zn4	Zn	-1.228451	0.841774	0.841185
O5	O	-1.303874	0.769211	0.768559
O6	O	-1.505577	0.745388	0.873703
O7	O	-1.359211	0.845000	0.544842
O8	O	-1.248517	0.523212	0.692927
O9	O	-1.505510	0.874474	0.744618
O10	O	-1.359366	0.545544	0.844294
O11	O	-1.248429	0.693582	0.522560
O12	O	-1.102208	0.663992	0.663444
O13	O	-1.248500	0.822465	0.992247
O14	O	-1.102201	0.792991	0.792471
O15	O	-1.359356	0.715798	1.014586
O16	O	-1.359202	1.015254	0.715134
O17	O	-1.248412	0.992834	0.821879
C18	C	-1.069469	0.721883	0.721367
C19	C	-0.969190	0.701660	0.701204
C20	C	-1.303821	1.042168	0.768526
C21	C	-1.303880	1.158957	0.768564
C22	C	-1.539194	0.816726	0.815935
C23	C	-1.639474	0.836974	0.836124
C24	C	-0.686604	0.913750	0.912675
C25	C	-0.780821	0.932758	0.931617
C26	C	-0.827918	0.874985	0.874015
C27	C	-0.780788	0.798201	0.797468
C28	C	-0.686561	0.779198	0.778519
C29	C	-0.827876	0.740433	0.739859
C30	C	-0.780746	0.663649	0.663312
C31	C	-0.686528	0.644649	0.644367
C32	C	-0.639431	0.702421	0.701968
C33	C	-0.922102	0.759436	0.758809
C34	C	-0.922060	0.624884	0.624653
C35	C	-0.827842	0.605876	0.605711
C36	C	-1.303937	0.769118	1.042605
C37	C	-1.303964	0.769078	1.159387
C38	C	-1.303952	0.495194	0.768620
C39	C	-1.303986	0.378424	0.768645
C40	C	-1.361632	1.225471	0.713069
C41	C	-1.361688	1.335206	0.713112
C42	C	-1.246231	1.311902	0.824147
C43	C	-1.246181	1.202170	0.824109
C44	C	-1.428287	1.238925	0.648960
C45	C	-1.428343	1.348661	0.649003
C46	C	-1.303863	0.769239	0.495589
C47	C	-1.304011	0.769018	0.378843
C48	C	-1.361695	0.713532	1.225885
C49	C	-1.361716	0.713499	1.335613
C50	C	-1.246274	0.824566	1.312336
C51	C	-1.246249	0.824593	1.202609
C52	C	-1.428347	0.649412	1.239325
C53	C	-1.428369	0.649379	1.349053
H54	H	-0.960466	0.821953	0.821135
H55	H	-0.960406	0.577842	0.577747
H56	H	-0.789456	0.543359	0.543385
H57	H	-1.199282	0.869761	1.347541
Br58	Br	-1.397193	0.507517	1.183449
H59	H	-0.904634	0.890465	0.889443
H60	H	-0.819188	0.995277	0.993939
H61	H	-1.403277	1.199930	0.566600
H62	H	-1.199236	0.869819	1.148469
H63	H	-1.403368	0.567024	1.378069
Br64	Br	-1.538942	0.720346	1.204843
Br65	Br	-1.544831	0.709185	1.422136
H66	H	-1.199163	1.148016	0.869309
Br67	Br	-1.167932	1.370556	0.899531
H68	H	-1.494726	1.396003	0.691576
H69	H	-0.562712	0.686948	0.686552
Br70	Br	-0.622684	0.992174	0.990811
H71	H	-0.648157	0.582137	0.582026
H72	H	-1.409676	1.374756	0.563866
H73	H	-1.498139	1.223166	0.684870
