data_functionalizedCrystal
_audit_creation_method	'MofGen! by Chris Wilmer'
_symmetry_space_group_name_H-M	'P1'
_symmetry_Int_Tables_number	1
_symmetry_cell_setting	triclinic
loop_
_symmetry_equiv_pos_as_xyz
  x,y,z
_cell_length_a	14.044220
_cell_length_b	16.109301
_cell_length_c	14.586319
_cell_angle_alpha	90.000846
_cell_angle_beta	89.998609
_cell_angle_gamma	91.674821
loop_
_atom_site_label
_atom_site_type_symbol
_atom_site_fract_x
_atom_site_fract_y
_atom_site_fract_z
O1	O	-1.257643	0.200436	-0.076125
O2	O	-1.007643	0.450436	0.173875
O3	O	-0.757643	0.700436	0.423875
O4	O	-0.507643	0.950436	0.673875
O5	O	-0.981677	0.193203	-0.076149
O6	O	-0.731677	0.443203	0.173851
O7	O	-0.481677	0.693203	0.423851
O8	O	-0.231677	0.943203	0.673851
O9	O	-1.127241	0.076352	-0.076141
O10	O	-0.877241	0.326352	0.173859
O11	O	-0.627241	0.576352	0.423859
O12	O	-0.377241	0.826352	0.673859
O13	O	-1.112079	0.317286	-0.076133
O14	O	-0.862079	0.567286	0.173867
O15	O	-0.612079	0.817286	0.423867
O16	O	-0.362079	1.067286	0.673867
O17	O	-1.127231	0.076350	0.076340
O18	O	-0.877231	0.326350	0.326340
O19	O	-0.627231	0.576350	0.576340
O20	O	-0.377231	0.826350	0.826340
O21	O	-0.981666	0.193200	0.076332
O22	O	-0.731666	0.443200	0.326332
O23	O	-0.481666	0.693200	0.576332
O24	O	-0.231666	0.943200	0.826332
O25	O	-1.257633	0.200433	0.076356
O26	O	-1.007633	0.450433	0.326356
O27	O	-0.757633	0.700433	0.576356
O28	O	-0.507633	0.950433	0.826356
Cu29	Cu	-1.119649	0.196816	0.090266
Cu30	Cu	-0.869649	0.446816	0.340266
Cu31	Cu	-0.619649	0.696816	0.590266
Cu32	Cu	-0.369649	0.946816	0.840266
Cu33	Cu	-1.119661	0.196820	-0.090060
Cu34	Cu	-0.869661	0.446820	0.159940
Cu35	Cu	-0.619661	0.696820	0.409940
Cu36	Cu	-0.369661	0.946820	0.659940
O37	O	-1.112069	0.317284	0.076348
O38	O	-0.862069	0.567284	0.326348
O39	O	-0.612069	0.817284	0.576348
O40	O	-0.362069	1.067284	0.826348
C41	C	-0.946358	0.190036	0.000088
C42	C	-0.696358	0.440036	0.250088
C43	C	-0.446358	0.690036	0.500088
C44	C	-0.196358	0.940036	0.750088
C45	C	-0.841135	0.180592	0.000079
C46	C	-0.591135	0.430592	0.250079
C47	C	-0.341135	0.680592	0.500079
C48	C	-0.091135	0.930592	0.750079
C49	C	-1.126622	0.045330	0.000096
C50	C	-0.876622	0.295330	0.250096
C51	C	-0.626622	0.545330	0.500096
C52	C	-0.376622	0.795330	0.750096
C53	C	-1.124781	-0.047102	0.000086
C54	C	-0.874781	0.202898	0.250086
C55	C	-0.624781	0.452898	0.500086
C56	C	-0.374781	0.702898	0.750086
C57	C	-1.292952	0.203600	0.000116
C58	C	-1.042952	0.453600	0.250116
C59	C	-0.792952	0.703600	0.500116
C60	C	-0.542952	0.953600	0.750116
C61	C	-1.398175	0.213044	0.000120
C62	C	-1.148175	0.463044	0.250120
C63	C	-0.898175	0.713044	0.500120
C64	C	-0.648175	0.963044	0.750120
C65	C	-0.648479	0.163326	0.000096
C66	C	-0.398479	0.413326	0.250096
C67	C	-0.148479	0.663326	0.500096
C68	C	0.101521	0.913326	0.750096
C69	C	-0.590825	0.230306	0.000102
C70	C	-0.340825	0.480306	0.250102
C71	C	-0.090825	0.730306	0.500102
C72	C	0.159175	0.980306	0.750102
C73	C	-0.483625	0.220699	0.000112
C74	C	-0.233625	0.470699	0.250112
C75	C	0.016375	0.720699	0.500112
C76	C	0.266375	0.970699	0.750112
C77	C	-0.755690	0.172932	0.000086
C78	C	-0.505690	0.422932	0.250086
C79	C	-0.255690	0.672932	0.500086
C80	C	-0.005690	0.922932	0.750086
C81	C	-1.112688	0.348306	0.000109
C82	C	-0.862688	0.598306	0.250109
C83	C	-0.612688	0.848306	0.500109
C84	C	-0.362688	1.098306	0.750109
C85	C	-1.114529	0.440738	0.000112
C86	C	-0.864529	0.690738	0.250112
C87	C	-0.614529	0.940738	0.500112
C88	C	-0.364529	1.190738	0.750112
N89	N	-1.119647	0.196814	0.217098
N90	N	-0.869647	0.446814	0.467098
N91	N	-0.619647	0.696814	0.717098
N92	N	-0.369647	0.946814	0.967098
C93	C	-1.032436	0.656902	0.000092
C94	C	-0.782436	0.906902	0.250092
C95	C	-0.532436	1.156902	0.500092
C96	C	-0.282436	1.406902	0.750092
C97	C	-1.034173	0.743752	0.000085
C98	C	-0.784173	0.993752	0.250085
C99	C	-0.534173	1.243752	0.500085
C100	C	-0.284173	1.493752	0.750085
C101	C	-1.206881	0.736727	0.000104
C102	C	-0.956881	0.986727	0.250104
C103	C	-0.706881	1.236727	0.500104
C104	C	-0.456881	1.486727	0.750104
C105	C	-1.205142	0.649879	0.000104
C106	C	-0.955142	0.899879	0.250104
C107	C	-0.705142	1.149879	0.500104
C108	C	-0.455142	1.399879	0.750104
C109	C	-1.117917	0.609969	0.000103
C110	C	-0.867917	0.859969	0.250103
C111	C	-0.617917	1.109969	0.500103
C112	C	-0.367917	1.359969	0.750103
C113	C	-1.121393	0.783667	0.000096
C114	C	-0.871393	1.033667	0.250096
C115	C	-0.621393	1.283667	0.500096
C116	C	-0.371393	1.533667	0.750096
C117	C	-1.123278	0.877833	0.000088
C118	C	-0.873278	1.127833	0.250088
C119	C	-0.623278	1.377833	0.500088
C120	C	-0.373278	1.627833	0.750088
C121	C	-1.116032	0.515797	0.000108
C122	C	-0.866032	0.765797	0.250108
C123	C	-0.616032	1.015797	0.500108
C124	C	-0.366032	1.265797	0.750108
N125	N	-1.119670	0.196816	-0.216892
N126	N	-0.869670	0.446816	0.033108
N127	N	-0.619670	0.696816	0.283108
N128	N	-0.369670	0.946816	0.533108
C129	C	-1.184125	0.145093	0.452108
C130	C	-0.934125	0.395093	0.702108
C131	C	-0.684125	0.645093	0.952108
C132	C	-0.434125	0.895093	1.202108
C133	C	-1.184128	0.145092	0.548089
C134	C	-0.934128	0.395092	0.798089
C135	C	-0.684128	0.645092	1.048089
C136	C	-0.434128	0.895092	1.298089
C137	C	-1.055186	0.248539	0.548092
C138	C	-0.805186	0.498539	0.798092
C139	C	-0.555186	0.748539	1.048092
C140	C	-0.305186	0.998539	1.298092
C141	C	-1.055179	0.248536	0.452112
C142	C	-0.805179	0.498536	0.702112
C143	C	-0.555179	0.748536	0.952112
C144	C	-0.305179	0.998536	1.202112
C145	C	-1.119654	0.196814	0.404123
C146	C	-0.869654	0.446814	0.654123
C147	C	-0.619654	0.696814	0.904123
C148	C	-0.369654	0.946814	1.154123
C149	C	-1.119663	0.196816	0.596084
C150	C	-0.869663	0.446816	0.846084
C151	C	-0.619663	0.696816	1.096084
C152	C	-0.369663	0.946816	1.346084
C153	C	-1.119666	0.196814	0.700151
C154	C	-0.869666	0.446814	0.950151
C155	C	-0.619666	0.696814	1.200151
C156	C	-0.369666	0.946814	1.450151
C157	C	-1.119651	0.196815	0.300049
C158	C	-0.869651	0.446815	0.550049
C159	C	-0.619651	0.696815	0.800049
C160	C	-0.369651	0.946815	1.050049
H161	H	-0.621976	0.294863	0.000100
H162	H	-0.371976	0.544863	0.250100
H163	H	-0.121976	0.794863	0.500100
H164	H	0.128024	1.044863	0.750100
Cl165	Cl	-0.926706	0.802750	0.000067
Cl166	Cl	-0.676706	1.052750	0.250067
Cl167	Cl	-0.426706	1.302750	0.500067
Cl168	Cl	-0.176706	1.552750	0.750067
H169	H	-0.617330	0.098774	0.000099
H170	H	-0.367330	0.348774	0.250099
H171	H	-0.117330	0.598774	0.500099
H172	H	0.132670	0.848774	0.750099
H173	H	-1.236623	0.102977	0.413037
H174	H	-0.986623	0.352977	0.663037
H175	H	-0.736623	0.602977	0.913037
H176	H	-0.486623	0.852977	1.163037
Cl177	Cl	-0.922782	0.606733	0.000085
Cl178	Cl	-0.672782	0.856733	0.250085
Cl179	Cl	-0.422782	1.106733	0.500085
Cl180	Cl	-0.172782	1.356733	0.750085
Cl181	Cl	-0.974120	0.313557	0.391782
Cl182	Cl	-0.724120	0.563557	0.641782
Cl183	Cl	-0.474120	0.813557	0.891782
Cl184	Cl	-0.224120	1.063557	1.141782
H185	H	-1.277897	0.769233	0.000114
H186	H	-1.027897	1.019233	0.250114
H187	H	-0.777897	1.269233	0.500114
H188	H	-0.527897	1.519233	0.750114
Cl189	Cl	-1.312613	0.590873	0.000112
Cl190	Cl	-1.062613	0.840873	0.250112
Cl191	Cl	-0.812613	1.090873	0.500112
Cl192	Cl	-0.562613	1.340873	0.750112
Cl193	Cl	-1.265178	0.080066	0.608411
Cl194	Cl	-1.015178	0.330066	0.858411
Cl195	Cl	-0.765178	0.580066	1.108411
Cl196	Cl	-0.515178	0.830066	1.358411
H197	H	-1.002693	0.290650	0.587174
H198	H	-0.752693	0.540650	0.837174
H199	H	-0.502693	0.790650	1.087174
H200	H	-0.252693	1.040650	1.337174
