data_functionalizedCrystal
_audit_creation_method	'MofGen! by Chris Wilmer'
_symmetry_space_group_name_H-M	'P1'
_symmetry_Int_Tables_number	1
_symmetry_cell_setting	triclinic
loop_
_symmetry_equiv_pos_as_xyz
  x,y,z
_cell_length_a	15.995292
_cell_length_b	15.995300
_cell_length_c	15.186229
_cell_angle_alpha	90.000802
_cell_angle_beta	89.995469
_cell_angle_gamma	83.470212
loop_
_atom_site_label
_atom_site_type_symbol
_atom_site_fract_x
_atom_site_fract_y
_atom_site_fract_z
O1	O	1.110995	0.107696	-0.073243
O2	O	1.444329	0.441030	0.260090
O3	O	1.777662	0.774363	0.593423
O4	O	0.867211	0.121075	-0.073239
O5	O	1.200544	0.454408	0.260094
O6	O	1.533877	0.787742	0.593428
O7	O	0.995789	-0.007506	-0.073246
O8	O	1.329122	0.325827	0.260088
O9	O	1.662456	0.659160	0.593421
O10	O	0.982417	0.236277	-0.073237
O11	O	1.315750	0.569611	0.260097
O12	O	1.649084	0.902944	0.593430
O13	O	0.995780	-0.007508	0.073212
O14	O	1.329114	0.325825	0.406545
O15	O	1.662447	0.659159	0.739878
O16	O	0.867202	0.121073	0.073218
O17	O	1.200536	0.454406	0.406552
O18	O	1.533869	0.787740	0.739885
O19	O	1.110987	0.107694	0.073214
O20	O	1.444320	0.441028	0.406547
O21	O	1.777653	0.774361	0.739881
Zn22	Zn	0.989093	0.114383	0.096469
Zn23	Zn	1.322426	0.447717	0.429803
Zn24	Zn	1.655760	0.781050	0.763136
Zn25	Zn	0.989104	0.114386	-0.096494
Zn26	Zn	1.322438	0.447719	0.236839
Zn27	Zn	1.655771	0.781053	0.570172
O28	O	0.982408	0.236276	0.073221
O29	O	1.315742	0.569609	0.406554
O30	O	1.649075	0.902942	0.739887
C31	C	0.995239	-0.038703	-0.000020
C32	C	1.328573	0.294631	0.333313
C33	C	1.661906	0.627964	0.666647
C34	C	0.993604	-0.131655	-0.000029
C35	C	1.326938	0.201678	0.333304
C36	C	1.660271	0.535012	0.666638
C37	C	0.836011	0.120530	-0.000010
C38	C	1.169344	0.453863	0.333324
C39	C	1.502678	0.787196	0.666657
C40	C	0.743058	0.118897	-0.000008
C41	C	1.076392	0.452230	0.333325
C42	C	1.409725	0.785564	0.666658
C43	C	0.990585	-0.301837	-0.000020
C44	C	1.323918	0.031496	0.333313
C45	C	1.657251	0.364829	0.666647
C46	C	1.082135	-0.349322	-0.000024
C47	C	1.415468	-0.015989	0.333310
C48	C	1.748802	0.317344	0.666643
C49	C	1.080465	-0.446010	0.000312
C50	C	1.413798	-0.112676	0.333646
C51	C	1.747131	0.220657	0.666979
C52	C	0.987613	-0.469393	-0.000013
C53	C	1.320946	-0.136060	0.333321
C54	C	1.654279	0.197273	0.666654
C55	C	0.942187	-0.428250	0.083457
C56	C	1.275520	-0.094917	0.416791
C57	C	1.608853	0.238416	0.750124
C58	C	0.944503	-0.331618	0.083524
C59	C	1.277837	0.001716	0.416857
C60	C	1.611170	0.335049	0.750191
C61	C	0.943157	-0.331340	-0.083031
C62	C	1.276491	0.001994	0.250302
C63	C	1.609824	0.335327	0.583636
C64	C	0.943166	-0.428284	-0.084125
C65	C	1.276499	-0.094950	0.249208
C66	C	1.609833	0.238383	0.582542
C67	C	0.985928	-0.564088	-0.000005
C68	C	1.319262	-0.230755	0.333328
C69	C	1.652595	0.102578	0.666661
C70	C	0.992266	-0.207142	-0.000021
C71	C	1.325600	0.126191	0.333312
C72	C	1.658933	0.459525	0.666645
C73	C	0.405321	0.112896	-0.000019
C74	C	0.738654	0.446229	0.333315
C75	C	1.071988	0.779562	0.666648
C76	C	0.428617	0.205702	-0.000342
C77	C	0.761950	0.539036	0.332991
C78	C	1.095283	0.872369	0.666325
C79	C	0.525292	0.207466	-0.000008
C80	C	0.858625	0.540799	0.333325
C81	C	1.191959	0.874133	0.666658
C82	C	0.572876	0.115874	-0.000014
C83	C	0.906210	0.449207	0.333319
C84	C	1.239543	0.782540	0.666653
C85	C	0.543778	0.069474	0.083616
C86	C	0.877111	0.402807	0.416949
C87	C	1.210445	0.736140	0.750282
C88	C	0.446988	0.068356	0.083682
C89	C	0.780321	0.401690	0.417015
C90	C	1.113654	0.735023	0.750348
C91	C	0.447142	0.066463	-0.082868
C92	C	0.780476	0.399797	0.250466
C93	C	1.113809	0.733130	0.583799
C94	C	0.543634	0.069903	-0.083969
C95	C	0.876968	0.403236	0.249364
C96	C	1.210301	0.736569	0.582698
C97	C	0.667572	0.117552	-0.000009
C98	C	1.000906	0.450885	0.333325
C99	C	1.334239	0.784218	0.666658
C100	C	0.310626	0.111215	-0.000018
C101	C	0.643959	0.444548	0.333315
C102	C	0.977292	0.777882	0.666648
C103	C	1.142186	0.108240	-0.000017
C104	C	1.475520	0.441573	0.333316
C105	C	1.808853	0.774906	0.666650
C106	C	1.235139	0.109872	-0.000024
C107	C	1.568472	0.443206	0.333309
C108	C	1.901806	0.776539	0.666642
C109	C	0.982958	0.267472	-0.000007
C110	C	1.316291	0.600805	0.333326
C111	C	1.649625	0.934139	0.666660
C112	C	0.984593	0.360424	-0.000004
C113	C	1.317927	0.693758	0.333329
C114	C	1.651260	1.027091	0.666663
N115	N	0.989091	0.114381	0.228162
N116	N	1.322425	0.447715	0.561495
N117	N	1.655758	0.781048	0.894829
N118	N	0.989113	0.114381	-0.228187
N119	N	1.322446	0.447715	0.105146
N120	N	1.655779	0.781048	0.438480
C121	C	1.046045	0.057465	0.453882
C122	C	1.379379	0.390798	0.787215
C123	C	1.712712	0.724131	1.120549
C124	C	1.046048	0.057463	0.546072
C125	C	1.379381	0.390796	0.879405
C126	C	1.712715	0.724129	1.212738
C127	C	0.932153	0.171301	0.546087
C128	C	1.265486	0.504634	0.879420
C129	C	1.598819	0.837967	1.212753
C130	C	0.932147	0.171298	0.453899
C131	C	1.265480	0.504631	0.787232
C132	C	1.598813	0.837965	1.120565
C133	C	0.989098	0.114381	0.407799
C134	C	1.322431	0.447714	0.741132
C135	C	1.655764	0.781048	1.074465
C136	C	0.989106	0.114382	0.592176
C137	C	1.322440	0.447715	0.925510
C138	C	1.655773	0.781048	1.258843
C139	C	0.989109	0.114380	0.692132
C140	C	1.322442	0.447713	1.025466
C141	C	1.655775	0.781047	1.358799
C142	C	0.989094	0.114381	0.307836
C143	C	1.322428	0.447715	0.641170
C144	C	1.655761	0.781048	0.974503
H145	H	1.116159	-0.474481	-0.059508
H146	H	1.449493	-0.141148	0.273825
H147	H	1.782826	0.192186	0.607158
H148	H	0.875473	-0.443614	-0.089415
H149	H	1.208806	-0.110281	0.243919
H150	H	1.542139	0.223052	0.577252
H151	H	0.544315	0.243800	-0.059959
H152	H	0.877649	0.577133	0.273374
H153	H	1.210982	0.910466	0.606707
H154	H	0.576617	0.003050	-0.089025
H155	H	0.909950	0.336383	0.244309
H156	H	1.243283	0.669716	0.577642
H157	H	1.118925	-0.330851	-0.059880
H158	H	1.452258	0.002482	0.273454
H159	H	1.785592	0.335816	0.606787
H160	H	0.433162	-0.001848	-0.083437
H161	H	0.766495	0.331485	0.249896
H162	H	1.099828	0.664818	0.583229
H163	H	1.092419	0.011115	0.583590
H164	H	1.425752	0.344449	0.916923
H165	H	1.759085	0.677782	1.250257
Br166	Br	1.123334	-0.019781	0.391321
Br167	Br	1.456667	0.313552	0.724654
Br168	Br	1.790000	0.646885	1.057988
H169	H	0.562201	0.103687	-0.145838
H170	H	0.895535	0.437020	0.187496
H171	H	1.228868	0.770353	0.520829
H172	H	0.563828	0.101694	0.145857
H173	H	0.897161	0.435027	0.479190
H174	H	1.230494	0.768361	0.812523
H175	H	0.885786	0.217642	0.583630
H176	H	1.219119	0.550976	0.916964
H177	H	1.552452	0.884309	1.250297
Br178	Br	0.854849	0.248540	0.391350
Br179	Br	1.188183	0.581874	0.724683
Br180	Br	1.521516	0.915207	1.058016
H181	H	0.977234	-0.313305	0.146155
H182	H	1.310567	0.020029	0.479488
H183	H	1.643900	0.353362	0.812821
H184	H	1.118400	-0.329662	0.059698
H185	H	1.451733	0.003671	0.393032
H186	H	1.785067	0.337004	0.726365
H187	H	1.115997	-0.473864	0.060495
H188	H	1.449331	-0.140531	0.393828
H189	H	1.782664	0.192802	0.727162
H190	H	0.877277	-0.299330	0.087088
H191	H	1.210610	0.034003	0.420421
H192	H	1.543943	0.367336	0.753754
H193	H	0.399588	0.241275	0.059298
H194	H	0.732921	0.574608	0.392631
H195	H	1.066255	0.907942	0.725965
H196	H	0.873961	-0.442336	0.086328
H197	H	1.207294	-0.109002	0.419662
H198	H	1.540627	0.224331	0.752995
H199	H	0.973300	-0.310844	-0.146317
H200	H	1.306634	0.022489	0.187016
H201	H	1.639967	0.355823	0.520349
Br202	Br	0.994119	-0.475522	0.187384
Br203	Br	1.327453	-0.142188	0.520718
Br204	Br	1.660786	0.191145	0.854051
H205	H	0.543685	0.244022	0.060045
H206	H	0.877018	0.577356	0.393379
H207	H	1.210352	0.910689	0.726712
Br208	Br	0.402270	0.121916	0.187882
Br209	Br	0.735603	0.455249	0.521215
Br210	Br	1.068937	0.788582	0.854549
Br211	Br	0.998451	-0.473864	-0.187054
Br212	Br	1.331785	-0.140531	0.146280
Br213	Br	1.665118	0.192803	0.479613
H214	H	0.418814	0.095472	-0.146254
H215	H	0.752147	0.428806	0.187079
H216	H	1.085480	0.762139	0.520412
H217	H	0.400618	0.241475	-0.060317
H218	H	0.733951	0.574808	0.273016
H219	H	1.067284	0.908141	0.606350
Br220	Br	0.830655	-0.278349	-0.084368
Br221	Br	1.163988	0.054984	0.248965
Br222	Br	1.497322	0.388318	0.582299
H223	H	0.432449	0.000310	0.087477
H224	H	0.765783	0.333644	0.420810
H225	H	1.099116	0.666977	0.754143
Br226	Br	0.596900	-0.042870	0.088790
Br227	Br	0.930233	0.290464	0.422124
Br228	Br	1.263567	0.623797	0.755457
