data_functionalizedCrystal
_audit_creation_method	'MofGen! by Chris Wilmer'
_symmetry_space_group_name_H-M	'P1'
_symmetry_Int_Tables_number	1
_symmetry_cell_setting	triclinic
loop_
_symmetry_equiv_pos_as_xyz
  x,y,z
_cell_length_a	14.628931
_cell_length_b	14.628931
_cell_length_c	18.878441
_cell_angle_alpha	90.001167
_cell_angle_beta	59.999399
_cell_angle_gamma	60.000000
loop_
_atom_site_label
_atom_site_type_symbol
_atom_site_fract_x
_atom_site_fract_y
_atom_site_fract_z
Zr1	Zr	1.000580	0.880616	-0.092960
O2	O	1.191291	0.734650	-0.206067
O3	O	0.809873	0.925362	-0.058286
O4	O	1.000585	0.925355	-0.206067
O5	O	1.000574	0.734662	0.058286
O6	O	1.000585	1.075787	-0.206067
O7	O	1.000579	0.734657	-0.058286
O8	O	0.659435	1.075800	0.058286
O9	O	1.341723	0.734650	-0.206067
O10	O	0.888312	1.056712	-0.043498
O11	O	0.888308	0.944450	0.043498
O12	O	1.112847	0.944442	-0.130495
O13	O	1.112844	0.832181	-0.043498
Zr14	Zr	1.000571	1.120547	0.092960
Zr15	Zr	1.000579	1.120538	-0.092959
Zr16	Zr	1.000572	0.880625	0.092959
Zr17	Zr	1.240502	0.880616	-0.092960
Zr18	Zr	0.760649	1.120547	0.092960
O19	O	1.191278	1.075801	0.058286
O20	O	1.191290	1.075788	-0.206067
O21	O	1.191279	0.734663	0.058285
O22	O	0.809860	1.266513	0.206067
O23	O	0.809872	1.266500	-0.058285
O24	O	0.809861	0.925375	0.206067
O25	O	1.000577	1.266500	-0.058286
O26	O	1.000566	1.075808	0.206067
O27	O	1.000566	0.925375	0.206067
O28	O	1.000572	1.266506	0.058286
O29	O	1.341723	0.925356	-0.206067
O30	O	0.659428	1.075807	0.206067
O31	O	0.659428	1.266513	0.206067
O32	O	0.659435	1.266506	0.058287
O33	O	1.341717	0.734657	-0.058287
O34	O	1.341716	0.925363	-0.058286
O35	O	0.888304	1.056721	0.130495
O36	O	0.888307	1.168982	0.043498
O37	O	1.112843	1.056712	-0.043498
O38	O	1.112839	0.944451	0.043498
C39	C	0.700470	1.000581	0.000000
C40	C	0.598617	1.000581	0.000000
C41	C	0.553210	1.056270	-0.043156
C42	C	0.447940	1.056271	-0.043156
C43	C	1.000576	0.700476	-0.000000
C44	C	1.000577	0.598623	-0.000000
C45	C	0.889192	0.608907	0.043156
C46	C	0.889190	0.503637	0.043157
C47	C	1.300681	1.000582	-0.000000
C48	C	1.402534	1.000582	-0.000000
C49	C	1.000586	1.000570	-0.232556
C50	C	1.000590	1.000566	-0.311484
C51	C	1.000575	1.300687	0.000000
C52	C	1.000574	1.402540	0.000000
C53	C	1.117794	0.941962	-0.393975
C54	C	1.117790	0.941973	-0.468133
C55	C	1.000580	1.000582	-0.459797
C56	C	0.883367	1.059193	-0.377297
C57	C	0.883373	1.059188	-0.303141
C58	C	0.883363	1.059197	-0.531864
C59	C	0.883357	1.059200	-0.606025
C60	C	1.117780	0.941982	-0.696856
C61	C	1.117786	0.941977	-0.622700
C62	C	1.000573	1.000587	-0.540205
C63	C	1.000565	1.000593	0.232556
C64	C	1.000561	1.000597	0.311484
C65	C	0.700469	1.300687	0.000001
C66	C	0.598616	1.402540	0.000001
C67	C	0.700460	1.000592	0.232556
C68	C	0.598603	1.000596	0.311484
C69	C	0.700459	1.300698	0.232557
C70	C	0.598602	1.402555	0.311484
C71	C	1.300692	0.700465	-0.232557
C72	C	1.402549	0.598608	-0.311484
C73	C	1.300682	0.700476	-0.000001
C74	C	1.402535	0.598623	-0.000001
C75	C	1.300691	1.000570	-0.232556
C76	C	1.402548	1.000567	-0.311484
C77	C	0.550768	1.059202	0.393968
C78	C	0.455076	1.059201	0.468136
C79	C	0.407215	1.000601	0.459818
C80	C	0.455059	0.941988	0.377325
C81	C	0.550756	0.941983	0.303159
C82	C	0.550771	1.508997	0.303139
C83	C	0.455079	1.604712	0.377292
C84	C	0.407213	1.593982	0.459791
C85	C	0.455054	1.487528	0.468135
C86	C	0.550750	1.391816	0.393982
C87	C	1.450392	0.492165	-0.303139
C88	C	1.546114	0.396451	-0.377292
C89	C	1.593985	0.407181	-0.459791
C90	C	1.546138	0.513635	-0.468135
C91	C	1.450424	0.609347	-0.393982
C92	C	1.450379	1.059178	-0.303138
C93	C	1.546071	1.059197	-0.377292
C94	C	1.593938	1.000596	-0.459791
C95	C	1.546097	0.941983	-0.468135
C96	C	1.450400	0.941971	-0.393982
C97	C	0.553209	1.392255	-0.043155
C98	C	0.447938	1.497524	-0.043156
H99	H	0.793833	0.695645	0.080106
H100	H	0.416132	1.106934	0.535298
H101	H	0.559560	1.489278	0.036944
C102	C	0.605964	1.275077	-0.093064
N103	N	0.645694	1.186818	-0.130653
C104	C	0.760357	0.515302	0.093073
N105	N	0.663316	0.524087	0.130673
H106	H	0.787933	1.106919	-0.370515
C107	C	0.301934	1.699279	0.541354
N108	N	0.222632	1.778594	0.602784
C109	C	1.129407	0.481445	-0.049918
N110	N	1.226446	0.393186	-0.087518
H111	H	0.592263	1.103953	-0.080099
C112	C	1.246717	0.877517	-0.787603
N113	N	1.343828	0.828961	-0.855955
H114	H	0.408885	1.488894	-0.080100
C115	C	0.301933	1.000629	0.541412
N116	N	0.222629	1.000661	0.602872
H117	H	1.671861	1.000614	-0.520164
C118	C	1.397737	1.123656	-0.212396
N119	N	1.358087	1.172230	-0.144050
C120	C	0.455281	1.610295	0.049916
N121	N	0.495021	1.619080	0.087509
H122	H	0.408896	1.103944	-0.080108
C123	C	1.598684	1.123673	-0.368093
N124	N	1.638310	1.172235	-0.361163
H125	H	0.416067	1.478808	0.535316
C126	C	0.402391	0.877538	0.368189
N127	N	0.362711	0.829000	0.361311
H128	H	0.787915	1.106923	-0.599232
H129	H	1.585054	0.309781	-0.370481
H130	H	0.589691	0.894263	0.235999
C131	C	1.397814	0.877472	-0.403178
N132	N	1.358214	0.828885	-0.410110
H133	H	0.416137	1.691382	0.370483
C134	C	0.603405	1.123664	0.403140
N135	N	0.643051	1.172214	0.410055
H136	H	0.787933	1.106909	-0.235972
H137	H	1.585085	0.894271	-0.535315
C138	C	1.397761	0.480334	-0.212396
N139	N	1.358131	0.471414	-0.144051
H140	H	0.589682	1.305149	0.400790
C141	C	1.699262	0.301883	-0.541354
N142	N	1.778552	0.222569	-0.602784
C143	C	0.455278	0.936167	0.049918
N144	N	0.495011	0.887652	0.087518
C145	C	1.598798	0.525420	-0.558893
N146	N	1.638456	0.534293	-0.627253
H147	H	0.787916	1.106925	-0.464694
H148	H	0.589729	1.517756	0.235970
H149	H	0.559555	0.952907	0.036949
H150	H	1.095940	0.393902	-0.036953
H151	H	1.213240	0.894229	-0.400773
H152	H	1.213229	0.894247	-0.629493
H153	H	1.411471	0.696015	-0.400788
H154	H	1.213229	0.894255	-0.535299
