data_functionalizedCrystal
_audit_creation_method	'MofGen! by Chris Wilmer'
_symmetry_space_group_name_H-M	'P1'
_symmetry_Int_Tables_number	1
_symmetry_cell_setting	triclinic
loop_
_symmetry_equiv_pos_as_xyz
  x,y,z
_cell_length_a	6.817900
_cell_length_b	10.943632
_cell_length_c	16.627977
_cell_angle_alpha	80.473214
_cell_angle_beta	90.762215
_cell_angle_gamma	71.161120
loop_
_atom_site_label
_atom_site_type_symbol
_atom_site_fract_x
_atom_site_fract_y
_atom_site_fract_z
V1	V	-3.921173	0.190427	-0.251965
O2	O	-3.882565	0.002990	-0.247189
O3	O	-3.900467	0.365909	-0.250223
O4	O	-3.814378	0.192825	-0.361865
O5	O	-3.969250	0.177272	-0.134774
V6	V	-4.408779	0.167378	-0.237950
O7	O	-4.173474	0.240987	-0.282707
O8	O	-4.606674	0.116818	-0.207208
O9	O	-4.206278	-0.008104	-0.239693
O10	O	-4.564783	0.354815	-0.242727
O11	O	-4.478098	0.180533	-0.355142
O12	O	-4.292367	0.164980	-0.128051
C13	C	-3.644278	0.187734	-0.388652
C14	C	-3.638429	0.190855	-0.478495
C15	C	-3.754094	0.408521	-0.246243
C16	C	-3.818062	0.552014	-0.245551
C17	C	-3.446014	0.185736	-0.526788
C18	C	-3.584213	0.298495	-0.593123
C19	C	-3.489832	0.083671	-0.572247
C20	C	-3.776745	0.303662	-0.543655
C21	C	-3.682294	0.088740	-0.522765
C22	C	-3.820645	0.201530	-0.589081
C23	C	-4.015995	-0.050709	-0.243670
C24	C	-3.931262	-0.194200	-0.244368
C25	C	-3.622384	0.199475	-0.727230
C26	C	-3.628135	0.196339	-0.637384
C27	C	-4.125796	0.170073	-0.101259
C28	C	-4.110607	0.166891	-0.009727
C29	C	-3.666458	0.628951	-0.240948
C30	C	-3.795610	0.698543	-0.175706
C31	C	-3.802911	0.738103	-0.309568
C32	C	-3.946369	0.619699	-0.180263
C33	C	-3.953642	0.659269	-0.314184
C34	C	-4.082914	0.728822	-0.248929
V35	V	-3.830359	0.174123	0.126512
O36	O	-3.903092	0.365764	0.094410
O37	O	-3.815925	-0.009913	0.163231
O38	O	-3.944060	0.172014	0.017053
O39	O	-3.774069	0.182578	0.241600
V40	V	-3.367193	0.232684	0.132581
O41	O	-3.582761	0.142309	0.103780
O42	O	-3.184454	0.297412	0.152104
O43	O	-3.594987	0.400402	0.097452
O44	O	-3.182242	0.049626	0.163846
O45	O	-3.311265	0.232812	0.016656
O46	O	-3.466852	0.218475	0.243631
C47	C	-3.947138	-0.065201	0.176738
C48	C	-3.858084	-0.209720	0.205450
C49	C	-3.785577	0.431071	0.086349
C50	C	-3.894479	0.574070	0.057781
C51	C	-3.642370	-0.271092	0.214920
C52	C	-3.558668	-0.406884	0.241886
C53	C	-3.690684	-0.481301	0.259386
C54	C	-3.906418	-0.419920	0.249912
C55	C	-3.990116	-0.284132	0.222941
C56	C	-3.780426	0.660663	0.045850
C57	C	-3.882728	0.795032	0.019019
C58	C	-4.099082	0.842804	0.004114
C59	C	-4.213141	0.756201	0.016050
C60	C	-4.110840	0.621836	0.042885
H61	H	-3.287788	0.179165	-0.499591
Br62	Br	-4.282887	-0.200857	0.210098
Br63	Br	-4.084711	0.212750	-0.634199
Br64	Br	-3.265887	-0.490156	0.254740
Br65	Br	-3.486799	0.595862	0.066070
H66	H	-3.622504	-0.591867	0.281348
H67	H	-3.534844	-0.210521	0.200664
Br68	Br	-4.085556	-0.520933	0.273670
Br69	Br	-3.727895	0.912538	0.002827
H70	H	-3.368452	-0.009237	-0.585254
Br71	Br	-4.237888	1.025164	-0.032304
H72	H	-3.723712	0.000017	-0.492112
H73	H	-4.019709	0.641219	-0.372739
H74	H	-4.203733	0.551339	0.052593
Br75	Br	-3.372030	0.556202	-0.235202
Br76	Br	-4.506766	0.821057	-0.004180
H77	H	-3.542728	0.387213	-0.623754
H78	H	-3.898053	0.396702	-0.530785
Br79	Br	-3.685365	0.728661	-0.078140
H80	H	-3.742860	0.789580	-0.364196
Br81	Br	-4.377377	0.801135	-0.254520
Br82	Br	-4.046371	0.534153	-0.089077
