data_functionalizedCrystal
_audit_creation_method	'MofGen! by Chris Wilmer'
_symmetry_space_group_name_H-M	'P1'
_symmetry_Int_Tables_number	1
_symmetry_cell_setting	triclinic
loop_
_symmetry_equiv_pos_as_xyz
  x,y,z
_cell_length_a	10.654550
_cell_length_b	10.654550
_cell_length_c	9.130313
_cell_angle_alpha	89.995631
_cell_angle_beta	89.999724
_cell_angle_gamma	84.484931
loop_
_atom_site_label
_atom_site_type_symbol
_atom_site_fract_x
_atom_site_fract_y
_atom_site_fract_z
O1	O	1.667839	0.176399	-0.121690
O2	O	1.302361	0.193205	-0.121716
O3	O	1.493503	0.002063	-0.121693
O4	O	1.476697	0.367541	-0.121713
O5	O	1.493490	0.002057	0.121906
O6	O	1.302348	0.193199	0.121882
O7	O	1.667826	0.176393	0.121909
Cu8	Cu	1.485086	0.184796	0.144138
Cu9	Cu	1.485101	0.184802	-0.143946
O10	O	1.476684	0.367535	0.121886
C11	C	1.255556	0.191968	0.000080
C12	C	1.116113	0.188276	0.000070
C13	C	1.036628	0.300818	0.000068
C14	C	0.905607	0.297341	0.000093
C15	C	0.933570	0.068772	0.000117
C16	C	1.064588	0.072250	0.000101
C17	C	1.492263	-0.044738	0.000105
C18	C	1.488571	-0.184181	0.000103
C19	C	1.601112	-0.263667	0.000111
C20	C	1.597636	-0.394688	0.000092
C21	C	1.369066	-0.366725	0.000065
C22	C	1.372544	-0.235706	0.000073
C23	C	1.714631	0.177630	0.000110
C24	C	1.854074	0.181322	0.000110
C25	C	1.477925	0.414336	0.000084
C26	C	1.481616	0.553779	0.000077
N27	N	1.485084	0.184790	0.346761
N28	N	1.485113	0.184798	-0.346568
C29	C	1.569751	0.100188	0.423423
C30	C	1.569763	0.100189	0.576760
C31	C	1.400437	0.269404	0.576759
C32	C	1.400420	0.269396	0.423425
H33	H	1.695588	-0.221720	0.000132
H34	H	1.331508	0.338290	0.639194
C35	C	0.742032	0.426022	-0.125130
C36	C	0.818234	0.421050	0.000082
H37	H	0.688088	0.502395	-0.125128
H38	H	0.793717	0.422627	-0.210069
H39	H	0.692596	0.356423	-0.125093
H40	H	0.867677	0.490644	0.000040
H41	H	0.766543	0.424457	0.085043
H42	H	1.689279	-0.459401	0.000096
C43	C	1.641573	-0.116561	0.376320
C44	C	1.662798	0.007151	0.339189
H45	H	1.699012	-0.174008	0.324324
H46	H	1.653682	-0.128624	0.478607
H47	H	1.557633	-0.130953	0.351186
H48	H	1.746736	0.021546	0.364333
H49	H	1.650699	0.019219	0.236879
C50	C	1.262244	-0.555151	0.000060
C51	C	1.241534	-0.423366	0.000053
H52	H	1.183508	-0.590114	0.000066
H53	H	1.308625	-0.582354	-0.084881
H54	H	1.308630	-0.582360	0.085016
H55	H	1.195157	-0.396157	-0.084909
H56	H	1.195134	-0.396152	0.085003
H57	H	0.891602	-0.025693	0.000151
C58	C	1.146254	-0.221215	0.000060
C59	C	1.248828	-0.148325	0.000069
H60	H	1.069883	-0.167266	0.000063
H61	H	1.149654	-0.272887	-0.084885
H62	H	1.149651	-0.272909	0.085012
H63	H	1.245437	-0.096636	-0.084889
H64	H	1.245426	-0.096630	0.085023
H65	H	1.078574	0.395294	0.000053
H66	H	1.129309	-0.019401	0.000107
C67	C	1.233053	0.436676	0.438814
C68	C	1.307351	0.362402	0.339146
H69	H	1.175603	0.494092	0.386780
H70	H	1.187435	0.383981	0.498633
H71	H	1.285737	0.482343	0.498606
H72	H	1.254667	0.316727	0.279361
H73	H	1.352972	0.415103	0.279302
H74	H	1.638704	0.031297	0.639174
