data_functionalizedCrystal
_audit_creation_method	'MofGen! by Chris Wilmer'
_symmetry_space_group_name_H-M	'P1'
_symmetry_Int_Tables_number	1
_symmetry_cell_setting	triclinic
loop_
_symmetry_equiv_pos_as_xyz
  x,y,z
_cell_length_a	17.699104
_cell_length_b	17.699083
_cell_length_c	13.448316
_cell_angle_alpha	89.992503
_cell_angle_beta	89.992351
_cell_angle_gamma	83.287266
loop_
_atom_site_label
_atom_site_type_symbol
_atom_site_fract_x
_atom_site_fract_y
_atom_site_fract_z
O1	O	1.004068	0.095788	-0.082714
O2	O	1.337401	0.429121	0.250619
O3	O	1.670735	0.762455	0.583953
O4	O	0.783692	0.108224	-0.082712
O5	O	1.117025	0.441557	0.250622
O6	O	1.450359	0.774891	0.583955
O7	O	0.900106	-0.008183	-0.082704
O8	O	1.233440	0.325151	0.250629
O9	O	1.566773	0.658484	0.583963
O10	O	0.887654	0.212195	-0.082722
O11	O	1.220987	0.545528	0.250612
O12	O	1.554321	0.878861	0.583945
O13	O	0.900092	-0.008190	0.082680
O14	O	1.233425	0.325143	0.416013
O15	O	1.566758	0.658477	0.749346
O16	O	0.783677	0.108217	0.082672
O17	O	1.117011	0.441550	0.416005
O18	O	1.450344	0.774884	0.749339
O19	O	1.004054	0.095781	0.082670
O20	O	1.337387	0.429114	0.416003
O21	O	1.670720	0.762448	0.749337
Cu22	Cu	0.893864	0.101998	0.097772
Cu23	Cu	1.227197	0.435332	0.431105
Cu24	Cu	1.560531	0.768665	0.764438
Cu25	Cu	0.893881	0.102007	-0.097814
Cu26	Cu	1.227215	0.435340	0.235520
Cu27	Cu	1.560548	0.768673	0.568853
O28	O	0.887639	0.212188	0.082662
O29	O	1.220973	0.545521	0.415996
O30	O	1.554306	0.878854	0.749329
C31	C	0.755488	0.107772	-0.000019
C32	C	1.088821	0.441105	0.333314
C33	C	1.422155	0.774439	0.666647
C34	C	0.671471	0.106427	-0.000018
C35	C	1.004804	0.439761	0.333315
C36	C	1.338137	0.773094	0.666648
C37	C	0.146600	0.167171	-0.000034
C38	C	0.479933	0.500504	0.333300
C39	C	0.813266	0.833838	0.666633
C40	C	0.225543	0.168430	-0.000037
C41	C	0.558877	0.501764	0.333297
C42	C	0.892210	0.835097	0.666630
C43	C	0.274161	0.100095	-0.000031
C44	C	0.607494	0.433428	0.333302
C45	C	0.940828	0.766762	0.666636
C46	C	0.243831	0.030496	-0.000032
C47	C	0.577165	0.363829	0.333301
C48	C	0.910498	0.697163	0.666634
C49	C	0.164889	0.029238	-0.000037
C50	C	0.498222	0.362571	0.333297
C51	C	0.831555	0.695905	0.666630
C52	C	0.562197	0.035569	-0.000017
C53	C	0.895531	0.368903	0.333316
C54	C	1.228864	0.702236	0.666650
C55	C	0.641144	0.036833	-0.000010
C56	C	0.974478	0.370166	0.333324
C57	C	1.307811	0.703500	0.666657
C58	C	0.622852	0.174762	-0.000017
C59	C	0.956185	0.508095	0.333316
C60	C	1.289519	0.841428	0.666650
C61	C	0.543909	0.173503	-0.000021
C62	C	0.877243	0.506837	0.333312
C63	C	1.210576	0.840170	0.666646
C64	C	0.513587	0.103905	-0.000028
C65	C	0.846920	0.437238	0.333305
C66	C	1.180253	0.770572	0.666639
C67	C	0.427987	0.102541	-0.000027
C68	C	0.761320	0.435874	0.333307
C69	C	1.094653	0.769207	0.666640
C70	C	0.359759	0.101459	-0.000025
C71	C	0.693093	0.434792	0.333308
C72	C	1.026426	0.768125	0.666642
C73	C	0.899653	-0.036383	-0.000012
C74	C	1.232986	0.296950	0.333321
C75	C	1.566319	0.630283	0.666655
C76	C	0.898314	-0.120402	-0.000012
C77	C	1.231647	0.212932	0.333322
C78	C	1.564981	0.546265	0.666655
C79	C	0.966647	-0.169017	-0.000011
C80	C	1.299980	0.164316	0.333322
C81	C	1.633314	0.497649	0.666656
C82	C	0.965385	-0.247961	-0.000020
C83	C	1.298718	0.085373	0.333314
C84	C	1.632051	0.418706	0.666647
C85	C	0.895789	-0.278287	-0.000022
C86	C	1.229122	0.055047	0.333311
C87	C	1.562455	0.388380	0.666645
C88	C	0.827451	-0.229665	-0.000026
C89	C	1.160784	0.103669	0.333308
C90	C	1.494118	0.437002	0.666641
C91	C	0.828714	-0.150723	-0.000024
C92	C	1.162047	0.182611	0.333309
C93	C	1.495381	0.515944	0.666643
C94	C	0.822356	-0.548028	-0.000034
C95	C	1.155689	-0.214695	0.333299
C96	C	1.489022	0.118639	0.666633
C97	C	0.821098	-0.626976	-0.000033
C98	C	1.154431	-0.293643	0.333301
C99	C	1.487764	0.039690	0.666634
C100	C	0.959026	-0.645266	-0.000029
C101	C	1.292360	-0.311933	0.333304
C102	C	1.625693	0.021401	0.666637
C103	C	0.960289	-0.566324	-0.000028
C104	C	1.293623	-0.232991	0.333306
C105	C	1.626956	0.100342	0.666639
C106	C	0.891952	-0.517709	-0.000037
C107	C	1.225285	-0.184376	0.333297
C108	C	1.558618	0.148958	0.666630
C109	C	0.893321	-0.432110	-0.000029
C110	C	1.226655	-0.098776	0.333304
C111	C	1.559988	0.234557	0.666638
C112	C	0.894419	-0.363885	-0.000023
C113	C	1.227752	-0.030551	0.333311
C114	C	1.561085	0.302782	0.666644
C115	C	1.032258	0.096233	-0.000025
C116	C	1.365591	0.429566	0.333309
C117	C	1.698924	0.762899	0.666642
C118	C	1.116275	0.097578	-0.000032
C119	C	1.449608	0.430911	0.333301
C120	C	1.782941	0.764244	0.666634
C121	C	0.888093	0.240388	-0.000032
C122	C	1.221426	0.573722	0.333301
C123	C	1.554759	0.907055	0.666635
C124	C	0.889431	0.324406	-0.000039
C125	C	1.222765	0.657740	0.333294
C126	C	1.556098	0.991073	0.666628
N127	N	0.893858	0.101992	0.235336
N128	N	1.227191	0.435325	0.568669
N129	N	1.560524	0.768658	0.902003
N130	N	0.893894	0.102007	-0.235378
N131	N	1.227227	0.435340	0.097955
N132	N	1.560561	0.768674	0.431289
C133	C	0.945422	0.050468	0.287380
C134	C	1.278755	0.383801	0.620713
C135	C	1.612088	0.717135	0.954047
C136	C	0.945426	0.050467	0.391483
C137	C	1.278760	0.383801	0.724816
C138	C	1.612093	0.717134	1.058150
C139	C	0.893870	0.101995	0.443541
C140	C	1.227203	0.435328	0.776874
C141	C	1.560537	0.768661	1.110207
C142	C	0.842300	0.153521	0.391490
C143	C	1.175634	0.486854	0.724823
C144	C	1.508967	0.820188	1.058156
C145	C	0.842293	0.153517	0.287388
C146	C	1.175626	0.486851	0.620722
C147	C	1.508959	0.820184	0.954055
C148	C	0.842321	0.153526	0.608470
C149	C	1.175655	0.486859	0.941803
C150	C	1.508988	0.820193	1.275136
C151	C	0.842330	0.153531	0.712578
C152	C	1.175663	0.486864	1.045912
C153	C	1.508996	0.820197	1.379245
C154	C	0.945455	0.050476	0.712565
C155	C	1.278788	0.383809	1.045898
C156	C	1.612122	0.717143	1.379231
C157	C	0.945447	0.050472	0.608463
C158	C	1.278781	0.383806	0.941797
C159	C	1.612114	0.717139	1.275130
C160	C	0.893878	0.102000	0.556419
C161	C	1.227212	0.435333	0.889753
C162	C	1.560545	0.768667	1.223086
H163	H	0.107020	0.222818	-0.000031
H164	H	0.440353	0.556151	0.333303
H165	H	0.773687	0.889484	0.666636
H166	H	0.987444	0.008521	0.754945
H167	H	1.320777	0.341854	1.088278
H168	H	1.654111	0.675187	1.421611
H169	H	0.987432	0.008519	0.566078
H170	H	1.320765	0.341852	0.899411
H171	H	1.654099	0.675185	1.232745
H172	H	0.680728	-0.018817	-0.000008
H173	H	1.014061	0.314516	0.333325
H174	H	1.347395	0.647849	0.666659
F175	F	0.755985	-0.098982	-0.000028
F176	F	1.089318	0.234351	0.333305
F177	F	1.422651	0.567685	0.666639
F178	F	1.000300	-0.004372	0.231986
F179	F	1.333633	0.328961	0.565319
F180	F	1.666966	0.662295	0.898653
F181	F	0.787455	0.208373	0.767975
F182	F	1.120788	0.541706	1.101308
F183	F	1.454122	0.875039	1.434641
H184	H	0.504328	0.229149	-0.000021
H185	H	0.837661	0.562482	0.333313
H186	H	1.170995	0.895816	0.666646
H187	H	0.987413	0.008512	0.433857
H188	H	1.320747	0.341846	0.767190
H189	H	1.654080	0.675179	1.100523
F190	F	0.749624	-0.496298	-0.000046
F191	F	1.082958	-0.162965	0.333287
F192	F	1.416291	0.170369	0.666621
H193	H	0.537518	-0.021102	-0.000020
H194	H	0.870852	0.312232	0.333314
H195	H	1.204185	0.645565	0.666647
F196	F	0.787433	0.208366	0.553085
F197	F	1.120766	0.541699	0.886419
F198	F	1.454099	0.875033	1.219752
H199	H	0.250230	0.225100	-0.000047
H200	H	0.583563	0.558433	0.333286
H201	H	0.916896	0.891767	0.666620
F202	F	0.753381	-0.261942	-0.000040
F203	F	1.086715	0.071391	0.333294
F204	F	1.420048	0.404725	0.666627
H205	H	0.647550	0.231432	-0.000016
H206	H	0.980883	0.564765	0.333318
H207	H	1.314216	0.898099	0.666651
H208	H	1.014670	-0.684858	-0.000027
H209	H	1.348003	-0.351525	0.333306
H210	H	1.681337	-0.018192	0.666639
H211	H	0.283422	-0.025143	-0.000034
H212	H	0.616755	0.308190	0.333300
H213	H	0.950089	0.641523	0.666633
H214	H	0.800318	0.195473	0.433881
H215	H	1.133652	0.528806	0.767214
H216	H	1.466985	0.862140	1.100548
H217	H	0.140200	-0.027432	-0.000037
H218	H	0.473534	0.305901	0.333296
H219	H	0.806867	0.639234	0.666629
H220	H	0.800303	0.195472	0.245015
H221	H	1.133636	0.528806	0.578349
H222	H	1.466970	0.862139	0.911682
H223	H	1.021028	-0.287541	-0.000017
H224	H	1.354361	0.045792	0.333316
H225	H	1.687695	0.379125	0.666650
F226	F	1.034362	-0.534054	-0.000026
F227	F	1.367696	-0.200720	0.333307
F228	F	1.701029	0.132613	0.666640
F229	F	1.040721	-0.136750	0.000001
F230	F	1.374055	0.196583	0.333335
F231	F	1.707388	0.529917	0.666668
H232	H	0.764421	-0.651664	-0.000033
H233	H	1.097755	-0.318331	0.333301
H234	H	1.431088	0.015003	0.666634
