data_functionalizedCrystal
_audit_creation_method	'MofGen! by Chris Wilmer'
_symmetry_space_group_name_H-M	'P1'
_symmetry_Int_Tables_number	1
_symmetry_cell_setting	triclinic
loop_
_symmetry_equiv_pos_as_xyz
  x,y,z
_cell_length_a	12.837939
_cell_length_b	12.837942
_cell_length_c	12.376774
_cell_angle_alpha	78.522427
_cell_angle_beta	78.534546
_cell_angle_gamma	94.828790
loop_
_atom_site_label
_atom_site_type_symbol
_atom_site_fract_x
_atom_site_fract_y
_atom_site_fract_z
O1	O	-1.421999	-0.291817	0.093991
O2	O	-1.118867	-0.278375	0.093995
O3	O	-1.263710	-0.133528	0.093986
O4	O	-1.277156	-0.436664	0.094000
O5	O	-1.224364	-0.094157	-0.094019
O6	O	-1.079521	-0.239004	-0.094010
O7	O	-1.382653	-0.252446	-0.094014
Zn8	Zn	-1.224840	-0.239474	-0.123862
Zn9	Zn	-1.276680	-0.291347	0.123843
O10	O	-1.237810	-0.397293	-0.094005
C11	C	-1.060125	-0.254148	-0.000007
C12	C	-0.943710	-0.240605	-0.000005
C13	C	-0.718834	-0.403432	-0.000015
C14	C	-0.609451	-0.390711	-0.000015
C15	C	-0.615559	-0.202441	-0.000011
C16	C	-0.724942	-0.215162	-0.000012
C17	C	-0.776575	-0.315661	-0.000012
C18	C	-0.885961	-0.328383	-0.000005
C19	C	-0.892065	-0.140112	-0.000009
C20	C	-0.782683	-0.127391	-0.000009
C21	C	-1.239496	-0.074773	-0.000016
C22	C	-1.225952	0.041641	-0.000014
C23	C	-0.441395	-0.276673	-0.000012
C24	C	-0.557811	-0.290219	-0.000011
C25	C	-1.262025	-0.456048	-0.000001
C26	C	-1.275570	-0.572464	0.000005
N27	N	-1.189469	-0.204072	-0.292914
C28	C	-1.388785	0.266512	0.000008
C29	C	-1.376064	0.375894	0.000010
C30	C	-1.187791	0.369788	0.000001
C31	C	-1.200512	0.260406	-0.000001
C32	C	-1.301012	0.208772	0.000000
C33	C	-1.313731	0.099390	-0.000010
C34	C	-1.125460	0.093284	-0.000011
C35	C	-1.112739	0.202666	-0.000009
C36	C	-1.107326	-0.121876	-0.352084
C37	C	-1.082555	-0.097096	-0.470420
C38	C	-1.139929	-0.154505	-0.529597
C39	C	-1.222078	-0.236698	-0.470427
C40	C	-1.246846	-0.261485	-0.352080
C41	C	-1.279449	-0.294115	-0.529592
C42	C	-1.361598	-0.376308	-0.470422
C43	C	-1.386363	-0.401090	-0.352086
C44	C	-1.328989	-0.343682	-0.292909
C45	C	-1.254681	-0.269328	-0.647939
C46	C	-1.394201	-0.408937	-0.647935
C47	C	-1.418972	-0.433717	-0.529599
N48	N	-1.312059	-0.326741	0.292895
H49	H	-0.573481	-0.120599	-0.000104
H50	H	-0.939092	-0.068644	0.000001
H51	H	-1.349158	-0.363849	-0.196551
O52	O	-1.090090	0.419862	-0.000140
C53	C	-0.904912	0.468578	-0.097557
C54	C	-1.015493	0.411815	-0.097531
H55	H	-0.844576	0.462112	-0.176302
H56	H	-0.877383	0.429064	-0.018931
H57	H	-0.910936	0.556657	-0.097491
H58	H	-1.009557	0.323734	-0.097637
H59	H	-1.042982	0.451413	-0.176150
O60	O	-1.411437	0.049383	0.000048
C61	C	-1.596824	0.066999	0.000008
C62	C	-1.486234	0.123756	-0.000038
H63	H	-1.657322	0.127110	-0.000086
H64	H	-1.624015	-0.000511	0.078707
H65	H	-1.590983	0.032388	-0.078653
H66	H	-1.491988	0.158433	0.078569
H67	H	-1.459083	0.191212	-0.078789
H68	H	-0.740625	-0.045564	-0.000021
O69	O	-0.553531	-0.476095	0.000037
C70	C	-0.559006	-0.664162	-0.000033
C71	C	-0.622469	-0.567557	-0.000064
H72	H	-0.614711	-0.738128	-0.000138
H73	H	-0.524141	-0.679473	0.078667
H74	H	-0.491154	-0.646377	-0.078693
H75	H	-0.690369	-0.585269	0.078543
H76	H	-0.657256	-0.552271	-0.078815
O77	O	-1.015140	0.252740	0.000190
C78	C	-0.870679	0.260546	0.097543
C79	C	-0.981221	0.203761	0.097476
H80	H	-0.843212	0.220955	0.176178
H81	H	-0.876617	0.348637	0.097621
H82	H	-0.810333	0.254041	0.018822
H83	H	-1.041627	0.210183	0.176183
H84	H	-0.975196	0.115694	0.097339
H85	H	-1.440916	-0.455689	-0.696116
H86	H	-1.119756	-0.134324	-0.625951
O87	O	-1.466219	-0.480937	-0.294782
C88	C	-1.601948	-0.616836	-0.307270
C89	C	-1.511554	-0.526421	-0.372304
H90	H	-1.638612	-0.653651	-0.369918
H91	H	-1.666344	-0.582745	-0.251898
H92	H	-1.567751	-0.681101	-0.251833
H93	H	-1.545654	-0.462125	-0.427802
H94	H	-1.447174	-0.560592	-0.427605
O95	O	-1.040118	0.037281	-0.000217
C96	C	-0.862691	0.019040	-0.097599
C97	C	-0.959273	0.082541	-0.097512
H98	H	-0.797294	0.055621	-0.176241
H99	H	-0.888970	-0.068006	-0.097677
H100	H	-0.830281	0.022536	-0.018885
H101	H	-0.991727	0.079131	-0.176212
H102	H	-0.932935	0.169557	-0.097375
O103	O	-1.175007	-0.189354	-0.705359
C104	C	-1.109127	-0.001531	-0.741507
C105	C	-1.199448	-0.092003	-0.676431
H106	H	-1.128844	0.077194	-0.718125
H107	H	-1.101272	0.006421	-0.836267
H108	H	-1.030349	-0.021256	-0.718248
H109	H	-1.278275	-0.072345	-0.699595
H110	H	-1.207208	-0.099934	-0.581687
H111	H	-1.470614	0.224473	-0.000002
O112	O	-1.498693	-0.513679	-0.472240
C113	C	-1.564509	-0.701528	-0.435960
C114	C	-1.474165	-0.611069	-0.501010
H115	H	-1.544699	-0.780294	-0.459178
H116	H	-1.643313	-0.681945	-0.459248
H117	H	-1.572364	-0.709322	-0.341222
H118	H	-1.466211	-0.603227	-0.595762
H119	H	-1.395409	-0.630692	-0.477627
H120	H	-1.060617	-0.075148	-0.303892
O121	O	-1.002766	-0.017196	-0.527724
C122	C	-0.866950	0.118623	-0.515251
C123	C	-0.957304	0.028172	-0.450208
H124	H	-0.830153	0.155314	-0.452607
H125	H	-0.901089	0.182990	-0.570627
H126	H	-0.802661	0.084469	-0.570683
H127	H	-1.021624	0.062228	-0.394714
H128	H	-0.923085	-0.036180	-0.394903
H129	H	-0.927999	-0.410214	-0.000007
H130	H	-0.760875	-0.485263	-0.000014
H131	H	-1.447540	0.422901	0.000019
