data_functionalizedCrystal
_audit_creation_method	'MofGen! by Chris Wilmer'
_symmetry_space_group_name_H-M	'P1'
_symmetry_Int_Tables_number	1
_symmetry_cell_setting	triclinic
loop_
_symmetry_equiv_pos_as_xyz
  x,y,z
_cell_length_a	12.759401
_cell_length_b	12.759400
_cell_length_c	19.805399
_cell_angle_alpha	89.976763
_cell_angle_beta	89.983934
_cell_angle_gamma	90.014328
loop_
_atom_site_label
_atom_site_type_symbol
_atom_site_fract_x
_atom_site_fract_y
_atom_site_fract_z
Zn1	Zn	1.606224	-0.418301	-0.382677
Zn2	Zn	2.106224	0.081699	0.117323
Zn3	Zn	1.606128	-0.593994	-0.269497
Zn4	Zn	2.106128	-0.093994	0.230503
Zn5	Zn	1.430535	-0.418329	-0.269508
Zn6	Zn	1.930535	0.081671	0.230492
Zn7	Zn	1.430514	-0.593937	-0.382651
Zn8	Zn	1.930514	-0.093937	0.117349
O9	O	1.518350	-0.506140	-0.326083
O10	O	2.018350	-0.006140	0.173917
O11	O	1.753232	-0.441619	-0.367669
O12	O	2.253232	0.058381	0.132331
O13	O	1.582803	-0.570727	-0.174782
O14	O	2.082803	-0.070727	0.325218
O15	O	1.453890	-0.271304	-0.284536
O16	O	1.953890	0.228696	0.215464
O17	O	1.753161	-0.570700	-0.284517
O18	O	2.253161	-0.070700	0.215483
O19	O	1.582967	-0.271283	-0.367680
O20	O	2.082967	0.228717	0.132320
O21	O	1.453796	-0.441666	-0.174790
O22	O	1.953796	0.058334	0.325210
O23	O	1.283511	-0.441611	-0.284511
O24	O	1.783511	0.058389	0.215489
O25	O	1.453854	-0.570603	-0.477371
O26	O	1.953854	-0.070603	0.022629
O27	O	1.283496	-0.570630	-0.367636
O28	O	1.783496	-0.070630	0.132364
O29	O	1.582947	-0.441564	-0.477390
O30	O	2.082947	0.058436	0.022610
O31	O	1.582783	-0.741007	-0.284492
O32	O	2.082783	-0.241007	0.215508
O33	O	1.453761	-0.740966	-0.367625
O34	O	1.953761	-0.240966	0.132375
C35	C	1.245383	-0.506118	-0.326072
C36	C	1.745383	-0.006118	0.173928
C37	C	1.128606	-0.506134	-0.326083
C38	C	1.628606	-0.006134	0.173917
C39	C	0.963996	-0.438889	-0.282883
C40	C	1.463996	0.061111	0.217117
C41	C	1.073720	-0.438866	-0.282876
C42	C	1.573720	0.061134	0.217124
C43	C	1.073762	-0.573421	-0.369305
C44	C	1.573762	-0.073421	0.130695
C45	C	0.964040	-0.573437	-0.369315
C46	C	1.464040	-0.073437	0.130685
C47	C	0.909116	-0.371624	-0.239668
C48	C	1.409116	0.128376	0.260332
C49	C	0.963953	-0.304335	-0.196447
C50	C	1.463953	0.195665	0.303553
C51	C	1.073677	-0.304313	-0.196441
C52	C	1.573677	0.195687	0.303559
C53	C	1.128564	-0.371580	-0.239655
C54	C	1.628564	0.128420	0.260345
C55	C	1.518288	-0.779107	-0.326069
C56	C	2.018288	-0.279107	0.173931
C57	C	1.518357	-0.895884	-0.326086
C58	C	2.018357	-0.395884	0.173914
C59	C	1.585614	-0.950733	-0.282846
C60	C	2.085614	-0.450733	0.217154
C61	C	1.585678	-1.060457	-0.282867
C62	C	2.085678	-0.560457	0.217133
C63	C	1.451221	-1.060474	-0.369369
C64	C	1.951221	-0.560474	0.130631
C65	C	1.451163	-0.950751	-0.369351
C66	C	1.951163	-0.450751	0.130649
C67	C	1.652808	-0.895866	-0.239580
C68	C	2.152808	-0.395866	0.260420
C69	C	1.720070	-0.950715	-0.196337
C70	C	2.220070	-0.450715	0.303663
C71	C	1.720134	-1.060439	-0.196358
C72	C	2.220134	-0.560439	0.303642
C73	C	1.652938	-1.115314	-0.239622
C74	C	2.152938	-0.615314	0.260378
C75	C	1.792383	-0.506163	-0.326095
C76	C	2.292383	-0.006163	0.173905
C77	C	1.909160	-0.506172	-0.326100
C78	C	2.409160	-0.006172	0.173900
C79	C	1.518409	-0.506074	-0.502626
C80	C	2.018409	-0.006074	-0.002626
C81	C	1.518434	-0.506046	-0.577858
C82	C	2.018434	-0.006046	-0.077858
C83	C	1.518441	-0.232107	-0.326112
C84	C	2.018441	0.267893	0.173888
C85	C	1.518480	-0.115330	-0.326125
C86	C	2.018480	0.384670	0.173875
C87	C	1.585654	-0.438852	-0.613213
C88	C	2.085654	0.061148	-0.113213
C89	C	1.585665	-0.438821	-0.683902
C90	C	2.085665	0.061179	-0.183902
C91	C	1.518460	-0.505991	-0.719234
C92	C	2.018460	-0.005991	-0.219234
C93	C	1.451233	-0.573188	-0.683874
C94	C	1.951233	-0.073188	-0.183874
C95	C	1.451217	-0.573212	-0.613186
C96	C	1.951217	-0.073212	-0.113186
C97	C	1.451292	-0.573090	-0.968947
C98	C	1.951292	-0.073090	-0.468947
C99	C	1.451315	-0.573063	-1.039639
C100	C	1.951315	-0.073063	-0.539639
C101	C	1.585740	-0.438699	-1.039662
C102	C	2.085740	0.061301	-0.539662
C103	C	1.585724	-0.438723	-0.968975
C104	C	2.085724	0.061277	-0.468975
C105	C	1.518493	-0.505916	-0.933621
C106	C	2.018493	-0.005916	-0.433621
C107	C	1.518481	-0.505947	-0.856973
C108	C	2.018481	-0.005947	-0.356973
C109	C	1.518477	-0.505966	-0.795881
C110	C	2.018477	-0.005966	-0.295881
C111	C	1.518352	-0.506130	-0.150227
C112	C	2.018352	-0.006130	0.349773
C113	C	1.518530	-0.505862	-0.074996
C114	C	2.018530	-0.005862	0.425004
H115	H	1.118460	-0.628187	-0.404487
H116	H	1.618460	-0.128187	0.095513
H117	H	1.217909	-0.371546	-0.239652
H118	H	1.717909	0.128454	0.260348
H119	H	1.396584	-0.627762	-1.068404
H120	H	1.896584	-0.127762	-0.568404
Br121	Br	1.360048	-0.664278	-0.920975
Br122	Br	1.860048	-0.164278	-0.420975
H123	H	0.919391	-0.628222	-0.404507
H124	H	1.419391	-0.128222	0.095493
H125	H	1.652761	-0.806523	-0.239557
H126	H	2.152761	-0.306523	0.260443
H127	H	1.640384	-0.384157	-0.584451
H128	H	2.140384	0.115843	-0.084451
Br129	Br	1.811273	-0.876245	-0.137632
Br130	Br	2.311273	-0.376245	0.362368
H131	H	1.653004	-1.204658	-0.239641
H132	H	2.153004	-0.704658	0.260359
H133	H	1.396510	-0.627875	-0.712646
H134	H	1.896510	-0.127875	-0.212646
Br135	Br	1.359980	-0.664401	-0.565203
Br136	Br	1.859980	-0.164401	-0.065203
Br137	Br	1.360031	-1.134946	-0.428081
Br138	Br	1.860031	-0.634946	0.071919
H139	H	0.819774	-0.371636	-0.239668
H140	H	1.319774	0.128364	0.260332
H141	H	1.774908	-1.105094	-0.161151
H142	H	2.274908	-0.605094	0.338849
H143	H	0.919256	-0.249564	-0.161268
H144	H	1.419256	0.250436	0.338732
H145	H	1.118322	-0.249516	-0.161253
H146	H	1.618322	0.250484	0.338747
H147	H	1.396397	-0.906093	-0.404562
H148	H	1.896397	-0.406093	0.095438
H149	H	1.640405	-0.384107	-0.712685
H150	H	2.140405	0.115893	-0.212685
Br151	Br	1.676940	-0.347567	-0.921028
Br152	Br	2.176940	0.152433	-0.421028
Br153	Br	1.676983	-0.347505	-1.087646
Br154	Br	2.176983	0.152495	-0.587646
