data_functionalizedCrystal
_audit_creation_method	'MofGen! by Chris Wilmer'
_symmetry_space_group_name_H-M	'P1'
_symmetry_Int_Tables_number	1
_symmetry_cell_setting	triclinic
loop_
_symmetry_equiv_pos_as_xyz
  x,y,z
_cell_length_a	27.440280
_cell_length_b	27.440280
_cell_length_c	17.917603
_cell_angle_alpha	63.034592
_cell_angle_beta	89.997815
_cell_angle_gamma	60.000166
loop_
_atom_site_label
_atom_site_type_symbol
_atom_site_fract_x
_atom_site_fract_y
_atom_site_fract_z
Zr1	Zr	0.472352	0.527764	-0.093882
O2	O	0.397937	0.622646	-0.208086
O3	O	0.495155	0.428181	-0.058873
O4	O	0.499598	0.520974	-0.208093
O5	O	0.390001	0.536849	0.058843
O6	O	0.579800	0.520966	-0.208097
O7	O	0.393495	0.529853	-0.058866
O8	O	0.571853	0.354976	0.058830
O9	O	0.397947	0.702839	-0.208084
O10	O	0.564746	0.470876	-0.043944
O11	O	0.502284	0.476103	0.043904
O12	O	0.507514	0.585355	-0.131783
O13	O	0.445053	0.590582	-0.043936
Zr14	Zr	0.594693	0.538909	0.093843
Zr15	Zr	0.600265	0.527752	-0.093888
Zr16	Zr	0.466780	0.538922	0.093850
Zr17	Zr	0.472369	0.655662	-0.093879
Zr18	Zr	0.594677	0.411011	0.093841
O19	O	0.571890	0.638492	0.058835
O20	O	0.579813	0.622628	-0.208095
O21	O	0.390014	0.638510	0.058844
O22	O	0.669108	0.444027	0.208047
O23	O	0.677031	0.428163	-0.058883
O24	O	0.487232	0.444045	0.208057
O25	O	0.677044	0.529825	-0.058881
O26	O	0.567447	0.545699	0.208054
O27	O	0.487245	0.545707	0.208059
O28	O	0.673551	0.536820	0.058827
O29	O	0.499621	0.702829	-0.208090
O30	O	0.567424	0.363845	0.208051
O31	O	0.669098	0.363834	0.208046
O32	O	0.673527	0.354966	0.058824
O33	O	0.393518	0.711707	-0.058863
O34	O	0.495192	0.711697	-0.058868
O35	O	0.559531	0.481318	0.131745
O36	O	0.621992	0.476091	0.043897
O37	O	0.564761	0.590570	-0.043942
O38	O	0.502300	0.595797	0.043906
C39	C	0.533502	0.373356	-0.000022
C40	C	0.533495	0.319060	-0.000023
C41	C	0.566143	-0.020410	-0.045867
C42	C	0.566149	-0.071433	-0.045865
O43	O	0.593895	-0.100158	-0.084836
N44	N	0.533544	-0.094221	-0.000011
C45	C	0.500936	-0.065987	0.045851
O46	O	0.473205	-0.090056	0.084854
C47	C	0.500935	-0.014968	0.045853
C48	C	0.533537	0.007822	-0.000011
C49	C	0.598743	0.002380	-0.091727
C50	C	0.598737	0.053401	-0.091730
C51	C	0.566130	0.081632	-0.045874
C52	C	0.533531	0.058843	-0.000015
C53	C	0.468331	0.013262	0.091719
C54	C	0.468333	0.064285	0.091718
C55	C	0.500935	0.087074	0.045854
C56	C	0.500918	0.138096	0.045838
N57	N	0.533523	0.160884	-0.000016
C58	C	0.566129	0.132652	-0.045872
C59	C	0.500943	-0.173133	0.045844
C60	C	0.500941	-0.224148	0.045837
C61	C	0.566154	-0.229592	-0.045877
C62	C	0.566153	-0.178572	-0.045875
C63	C	0.533548	-0.150345	-0.000010
C64	C	0.566113	0.239801	-0.045877
C65	C	0.566101	0.290828	-0.045879
C66	C	0.500891	0.296265	0.045839
C67	C	0.500899	0.245244	0.045838
C68	C	0.533515	0.217011	-0.000022
O69	O	0.473188	0.166850	0.084792
O70	O	0.593862	0.156721	-0.084859
C71	C	0.373523	0.533353	-0.000011
C72	C	0.319220	0.533358	-0.000008
C73	C	-0.015552	0.529467	-0.064867
C74	C	-0.066570	0.529462	-0.064868
O75	O	-0.091309	0.526160	-0.119999
N76	N	-0.094013	0.533317	-0.000022
C77	C	-0.070432	0.537171	0.064833
O78	O	-0.098458	0.540449	0.119990
C79	C	-0.019412	0.537171	0.064837
C80	C	0.008025	0.533323	-0.000018
C81	C	0.011885	0.525618	-0.129716
C82	C	0.062899	0.525624	-0.129716
C83	C	0.086475	0.529480	-0.064868
C84	C	0.059038	0.533329	-0.000018
C85	C	0.004170	0.541020	0.129695
C86	C	0.055194	0.541019	0.129693
C87	C	0.082630	0.537171	0.064838
C88	C	0.133629	0.537190	0.064830
N89	N	0.161071	0.533335	-0.000015
C90	C	0.137495	0.529480	-0.064864
C91	C	-0.177575	0.537169	0.064822
C92	C	-0.228596	0.537174	0.064816
C93	C	-0.224730	0.529464	-0.064884
C94	C	-0.173711	0.529464	-0.064881
C95	C	-0.150132	0.533314	-0.000023
C96	C	0.244627	0.529494	-0.064860
C97	C	0.295644	0.529503	-0.064857
C98	C	0.291775	0.537209	0.064846
C99	C	0.240761	0.537204	0.064840
C100	C	0.217190	0.533343	-0.000017
O101	O	0.158402	0.540488	0.119935
O102	O	0.165531	0.526194	-0.120005
C103	C	0.693522	0.533320	-0.000028
C104	C	0.747825	0.533315	-0.000031
C105	C	0.540493	0.519381	-0.234843
C106	C	0.542858	0.514644	-0.314540
C107	C	0.533543	0.693317	-0.000016
C108	C	0.533550	0.747613	-0.000016
C109	C	0.547192	0.505992	-0.460472
C110	C	0.519855	0.560678	-0.539569
C111	C	0.522266	0.555864	-0.620771
C112	C	0.544781	0.510805	-0.379261
C113	C	0.526552	0.547293	0.234804
C114	C	0.524187	0.552029	0.314501
C115	C	0.693502	0.373340	-0.000031
C116	C	0.747797	0.319038	-0.000034
C117	C	0.526532	0.387312	0.234801
C118	C	0.524159	0.337752	0.314497
C119	C	0.686532	0.387296	0.234793
C120	C	0.738462	0.337731	0.314486
C121	C	0.380514	0.679377	-0.234831
C122	C	0.328584	0.728942	-0.314524
C123	C	0.373543	0.693333	-0.000008
C124	C	0.319248	0.747635	-0.000004
C125	C	0.540513	0.679361	-0.234840
C126	C	0.542886	0.728921	-0.314536
C127	C	0.743413	0.290815	-0.045896
C128	C	0.794425	0.239799	-0.045917
C129	C	0.849821	0.217004	-0.000071
C130	C	0.854204	0.245232	0.045792
C131	C	0.803192	0.296251	0.045808
C132	C	0.552927	0.317201	0.397784
C133	C	0.550695	0.270642	0.472674
C134	C	0.519699	0.244632	0.464275
C135	C	0.490928	0.265188	0.380980
C136	C	0.493156	0.311749	0.306092
C137	C	0.795458	0.311726	0.306055
C138	C	0.844257	0.265161	0.380928
C139	C	0.836058	0.244599	0.464231
C140	C	0.779055	0.270608	0.472660
C141	C	0.730258	0.317175	0.397788
C142	C	0.271587	0.754953	-0.306094
C143	C	0.222788	0.801534	-0.380966
C144	C	0.230987	0.822099	-0.464269
C145	C	0.287990	0.796087	-0.472699
C146	C	0.336787	0.749510	-0.397827
C147	C	0.323632	0.775863	0.045850
C148	C	0.272621	0.826891	0.045850
C149	C	0.217225	0.849688	0.000001
C150	C	0.212842	0.821458	-0.045858
C151	C	0.263853	0.770433	-0.045863
C152	C	0.573887	0.754917	-0.306110
C153	C	0.576128	0.801477	-0.380985
C154	C	0.547364	0.822043	-0.464286
C155	C	0.516361	0.796043	-0.472711
C156	C	0.514124	0.749480	-0.397836
H157	H	0.625286	0.071951	-0.129074
O158	O	0.262731	0.732779	-0.216253
H159	H	0.306235	0.696016	-0.165596
O160	O	0.485335	0.818217	-0.562551
H161	H	0.451886	0.872339	-0.598857
H162	H	0.383195	0.728332	-0.404702
O163	O	0.296824	0.818273	-0.562552
H164	H	0.344656	0.792368	-0.555847
H165	H	0.572404	0.455563	-0.453740
O166	O	0.486444	0.627486	-0.548498
H167	H	0.517053	0.632328	-0.516525
O168	O	0.601321	-0.154000	-0.095340
H169	H	0.571286	-0.100734	-0.146025
O170	O	0.581734	0.248476	0.562503
H171	H	0.574975	0.211735	0.613174
H172	H	0.368733	0.757306	0.083192
H173	H	0.276201	0.849869	0.083198
O174	O	0.080627	0.545170	0.199649
H175	H	0.047570	0.591700	0.196462
O176	O	0.259122	0.739985	-0.095318
H177	H	0.233556	0.718324	-0.068806
H178	H	0.578167	0.338374	0.404638
O179	O	0.770215	0.248418	0.562510
H180	H	0.813726	0.211660	0.613149
H181	H	0.167733	0.840027	-0.083187
O182	O	0.317213	0.541366	0.134787
H183	H	0.289565	0.544046	0.179883
O184	O	0.904838	0.161978	-0.000093
H185	H	0.929753	0.119544	0.068184
H186	H	0.549189	0.859958	-0.525247
H187	H	0.597311	0.738179	-0.238289
H188	H	0.175694	0.891236	0.000013
H189	H	0.592672	0.216818	-0.083218
O190	O	0.804314	0.333899	0.216215
H191	H	0.760811	0.370647	0.165557
O192	O	0.683669	0.315402	-0.095358
H193	H	0.689200	0.287206	-0.127258
H194	H	0.625298	-0.020604	-0.129067
H195	H	0.601373	0.822642	-0.374109
O196	O	0.480682	0.721445	-0.406923
H197	H	0.433748	0.762122	-0.443281
H198	H	0.474342	0.319262	0.083171
O199	O	0.433174	0.094704	0.141218
H200	H	0.463218	0.087909	0.191905
O201	O	0.601267	0.315409	-0.095346
H202	H	0.623945	0.287197	-0.127223
H203	H	0.806770	0.319224	0.083159
H204	H	0.474345	0.226695	0.083172
O205	O	0.789692	0.209354	-0.095378
H206	H	0.742600	0.233770	-0.127238
O207	O	0.905734	0.237105	0.371828
H208	H	0.903232	0.259220	0.301322
H209	H	0.683851	0.338343	0.404665
H210	H	0.899313	0.226665	0.083119
O211	O	0.161311	0.829582	-0.371866
H212	H	0.137513	0.817906	-0.403800
O213	O	0.178350	0.872343	-0.545018
H214	H	0.151402	0.852770	-0.544965
H215	H	0.592705	-0.252588	-0.083214
H216	H	0.474386	-0.150148	0.083188
O217	O	0.465752	-0.248698	0.095274
H218	H	0.481701	-0.267749	0.165750
O219	O	0.433139	-0.011284	0.141143
H220	H	0.410464	0.016931	0.173017
H221	H	0.517889	0.206719	0.525261
H222	H	0.317980	0.526370	-0.117672
O223	O	0.457516	0.237112	0.371927
H224	H	0.460816	0.201272	0.437998
O225	O	0.888692	0.194364	0.544984
H226	H	0.929701	0.179733	0.525118
H227	H	0.085236	0.522488	-0.182525
O228	O	0.219202	0.525339	-0.134817
H229	H	0.246854	0.522672	-0.179911
O230	O	-0.258188	0.541335	0.134762
H231	H	-0.297628	0.540689	0.123871
H232	H	-0.151374	0.526330	-0.117691
O233	O	-0.013545	0.521468	-0.199672
H234	H	0.014110	0.518798	-0.244763
O235	O	0.462223	0.333818	0.216262
H236	H	0.440335	0.307867	0.223013
O237	O	-0.250161	0.525301	-0.134829
H238	H	-0.290243	0.525941	-0.123925
H239	H	-0.158383	0.540310	0.117636
H240	H	-0.018161	0.544154	0.182506
H241	H	0.218417	0.540347	0.117643
