data_functionalizedCrystal
_audit_creation_method	'MofGen! by Chris Wilmer'
_symmetry_space_group_name_H-M	'P1'
_symmetry_Int_Tables_number	1
_symmetry_cell_setting	triclinic
loop_
_symmetry_equiv_pos_as_xyz
  x,y,z
_cell_length_a	17.038272
_cell_length_b	17.019294
_cell_length_c	16.098538
_cell_angle_alpha	88.846036
_cell_angle_beta	87.069734
_cell_angle_gamma	87.244363
loop_
_atom_site_label
_atom_site_type_symbol
_atom_site_fract_x
_atom_site_fract_y
_atom_site_fract_z
O1	O	1.041327	0.167431	-0.081157
O2	O	1.541327	0.667431	0.418843
O3	O	0.813690	0.164719	-0.080987
O4	O	1.313690	0.664719	0.419013
O5	O	0.933445	0.052057	-0.072891
O6	O	1.433445	0.552057	0.427109
O7	O	0.921573	0.280093	-0.089254
O8	O	1.421573	0.780093	0.410746
O9	O	0.926449	0.058611	0.065151
O10	O	1.426449	0.558611	0.565151
O11	O	0.806695	0.171273	0.057055
O12	O	1.306695	0.671273	0.557055
O13	O	1.034332	0.173985	0.056885
O14	O	1.534332	0.673985	0.556885
Zn15	Zn	0.919402	0.173669	0.078887
Zn16	Zn	1.419402	0.673669	0.578887
Zn17	Zn	0.928619	0.165035	-0.102989
Zn18	Zn	1.428619	0.665035	0.397011
O19	O	0.914577	0.286647	0.048788
O20	O	1.414577	0.786647	0.548788
C21	C	0.781057	0.165531	-0.011792
C22	C	1.281057	0.665531	0.488208
C23	C	0.694245	0.158175	-0.011274
C24	C	1.194245	0.658175	0.488726
C25	C	0.929359	0.026012	-0.001768
C26	C	1.429359	0.526012	0.498232
C27	C	0.927597	-0.061357	0.004496
C28	C	1.427597	0.438643	0.504496
C29	C	0.644318	0.225705	-0.016119
C30	C	1.144318	0.725705	0.483881
C31	C	0.562747	0.218790	-0.015612
C32	C	1.062747	0.718790	0.484388
C33	C	0.531106	0.144344	-0.010265
C34	C	1.031106	0.644344	0.489735
C35	C	0.581039	0.076809	-0.005417
C36	C	1.081039	0.576809	0.494583
C37	C	0.662607	0.083725	-0.005919
C38	C	1.162607	0.583725	0.494081
C39	C	0.285279	0.119910	-0.008489
C40	C	0.785279	0.619910	0.491511
C41	C	0.203704	0.112999	-0.007990
C42	C	0.703704	0.612999	0.492010
C43	C	0.185418	0.254981	-0.018183
C44	C	0.685418	0.754981	0.481817
C45	C	0.266989	0.261890	-0.018690
C46	C	0.766989	0.761890	0.481310
C47	C	0.316915	0.194355	-0.013838
C48	C	0.816915	0.694355	0.486162
C49	C	0.447728	0.137273	-0.009748
C50	C	0.947728	0.637273	0.490252
C51	C	0.400291	0.201427	-0.014348
C52	C	0.900291	0.701427	0.485652
C53	C	0.930585	-0.105972	-0.067808
C54	C	1.430585	0.394028	0.432192
C55	C	0.928924	-0.188065	-0.061920
C56	C	1.428924	0.311935	0.438080
C57	C	0.924282	-0.225542	0.016272
C58	C	1.424282	0.274458	0.516272
C59	C	0.921292	-0.180921	0.088581
C60	C	1.421292	0.319079	0.588581
C61	C	0.922947	-0.098830	0.082692
C62	C	1.422947	0.401170	0.582692
C63	C	0.919090	-0.473227	0.037815
C64	C	1.419090	0.026773	0.537815
C65	C	0.917437	-0.555325	0.043698
C66	C	1.417437	-0.055325	0.543698
C67	C	0.925068	-0.562462	-0.106803
C68	C	1.425068	-0.062462	0.393197
C69	C	0.926727	-0.480369	-0.112685
C70	C	1.426727	0.019631	0.387315
C71	C	0.923733	-0.435755	-0.040376
C72	C	1.423733	0.064245	0.459624
C73	C	0.922587	-0.309454	0.022292
C74	C	1.422587	0.190546	0.522292
C75	C	0.925422	-0.351844	-0.046397
C76	C	1.425422	0.148156	0.453603
C77	C	1.066964	0.173173	-0.012312
C78	C	1.566964	0.673173	0.487688
C79	C	1.153777	0.180529	-0.012835
C80	C	1.653777	0.680529	0.487165
C81	C	0.918663	0.312692	-0.022336
C82	C	1.418663	0.812692	0.477664
C83	C	0.920425	0.400061	-0.028605
C84	C	1.420425	0.900061	0.471395
N85	N	0.913118	0.179562	0.203013
N86	N	1.413118	0.679562	0.703013
N87	N	0.934910	0.159136	-0.227115
N88	N	1.434910	0.659136	0.272885
C89	C	0.963965	0.131763	0.250033
C90	C	1.463965	0.631763	0.750033
C91	C	0.959576	0.135893	0.336925
C92	C	1.459576	0.635893	0.836925
C93	C	0.904343	0.187827	0.376795
C94	C	1.404343	0.687827	0.876795
C95	C	0.853490	0.235628	0.329769
C96	C	1.353490	0.735628	0.829769
C97	C	0.857876	0.231493	0.242878
C98	C	1.357876	0.731493	0.742878
C99	C	0.888443	0.202802	0.638969
C100	C	1.388443	0.702802	1.138969
C101	C	0.884063	0.206935	0.725865
C102	C	1.384063	0.706935	1.225865
C103	C	0.990148	0.107199	0.733016
C104	C	1.490148	0.607199	1.233016
C105	C	0.994532	0.103072	0.646123
C106	C	1.494532	0.603072	1.146123
C107	C	0.943677	0.150870	0.599105
C108	C	1.443677	0.650870	1.099105
C109	C	0.899857	0.192052	0.465613
C110	C	1.399857	0.692052	0.965613
C111	C	0.948160	0.146641	0.510289
C112	C	1.448160	0.646641	1.010289
H113	H	0.670073	0.286327	-0.020474
H114	H	1.170073	0.786327	0.479526
Cl115	Cl	0.499985	0.303689	-0.021708
Cl116	Cl	0.999985	0.803689	0.478292
H117	H	0.934369	-0.075464	-0.131480
H118	H	1.434369	0.424536	0.368520
Cl119	Cl	0.122650	0.339876	-0.024280
Cl120	Cl	0.622650	0.839876	0.475720
Cl121	Cl	1.063970	0.037785	0.596001
Cl122	Cl	1.563970	0.537785	1.096001
Cl123	Cl	0.928830	-0.618552	-0.197700
Cl124	Cl	1.428830	-0.118552	0.302300
Cl125	Cl	0.541261	-0.016782	0.001310
Cl126	Cl	1.041261	0.483218	0.501310
H127	H	0.703258	0.028734	-0.001974
H128	H	1.203258	0.528734	0.498026
H129	H	0.292746	0.322512	-0.023053
H130	H	0.792746	0.822512	0.476947
H131	H	0.426057	0.262041	-0.018697
H132	H	0.926057	0.762041	0.481303
Cl133	Cl	0.407943	0.043686	-0.003031
Cl134	Cl	0.907943	0.543686	0.496969
Cl135	Cl	0.911606	-0.602438	0.142005
Cl136	Cl	1.411606	-0.102438	0.642005
H137	H	0.916667	-0.436913	0.096695
H138	H	1.416667	0.063087	0.596695
Cl139	Cl	0.932682	-0.244148	-0.152821
Cl140	Cl	1.432682	0.255852	0.347179
Cl141	Cl	0.932566	-0.433261	-0.210987
Cl142	Cl	1.432566	0.066739	0.289013
H143	H	0.993128	0.104353	0.477825
H144	H	1.493128	0.604353	0.977825
H145	H	0.854886	0.234339	0.498082
H146	H	1.354886	0.734339	0.998082
Cl147	Cl	0.915446	-0.228035	0.186880
Cl148	Cl	1.415446	0.271965	0.686880
H149	H	0.929197	-0.321326	-0.110060
H150	H	1.429197	0.178674	0.389940
Cl151	Cl	0.163927	0.019403	-0.001249
Cl152	Cl	0.663927	0.519403	0.498751
H153	H	0.839083	0.249229	0.758323
H154	H	1.339083	0.749229	1.258323
H155	H	0.920503	-0.062505	0.141570
H156	H	1.420503	0.437495	0.641570
H157	H	0.918810	-0.339977	0.085956
H158	H	1.418810	0.160023	0.585956
H159	H	1.008945	0.089477	0.217576
H160	H	1.508945	0.589477	0.717576
Cl161	Cl	1.023499	0.075801	0.396038
Cl162	Cl	1.523499	0.575801	0.896038
H163	H	1.031552	0.068283	0.771306
H164	H	1.531552	0.568283	1.271306
H165	H	0.847036	0.241723	0.600693
H166	H	1.347036	0.741723	1.100693
Cl167	Cl	0.348032	0.035008	-0.002390
Cl168	Cl	0.848032	0.535008	0.497610
Cl169	Cl	0.784049	0.300913	0.379889
Cl170	Cl	1.284049	0.800913	0.879889
Cl171	Cl	0.793947	0.291583	0.183768
Cl172	Cl	1.293947	0.791583	0.683768
