data_functionalizedCrystal
_audit_creation_method	'MofGen! by Chris Wilmer'
_symmetry_space_group_name_H-M	'P1'
_symmetry_Int_Tables_number	1
_symmetry_cell_setting	triclinic
loop_
_symmetry_equiv_pos_as_xyz
  x,y,z
_cell_length_a	18.050591
_cell_length_b	18.050589
_cell_length_c	21.395355
_cell_angle_alpha	89.987098
_cell_angle_beta	89.970606
_cell_angle_gamma	90.024669
loop_
_atom_site_label
_atom_site_type_symbol
_atom_site_fract_x
_atom_site_fract_y
_atom_site_fract_z
Zn1	Zn	1.135363	-0.295816	-0.354367
Zn2	Zn	1.468696	0.037517	-0.021033
Zn3	Zn	1.802030	0.370851	0.312300
Zn4	Zn	1.135253	-0.419988	-0.249600
Zn5	Zn	1.468586	-0.086654	0.083734
Zn6	Zn	1.801920	0.246679	0.417067
Zn7	Zn	1.011161	-0.295808	-0.249595
Zn8	Zn	1.344495	0.037525	0.083739
Zn9	Zn	1.677828	0.370858	0.417072
Zn10	Zn	1.011130	-0.419961	-0.354331
Zn11	Zn	1.344464	-0.086627	-0.020998
Zn12	Zn	1.677797	0.246706	0.312336
O13	O	1.073227	-0.357893	-0.301973
O14	O	1.406560	-0.024560	0.031360
O15	O	1.739894	0.308774	0.364694
O16	O	1.239273	-0.312302	-0.340486
O17	O	1.572606	0.021031	-0.007153
O18	O	1.905940	0.354365	0.326180
O19	O	1.118759	-0.403523	-0.161921
O20	O	1.452092	-0.070190	0.171412
O21	O	1.785426	0.263144	0.504746
O22	O	1.027696	-0.191885	-0.263506
O23	O	1.361030	0.141449	0.069827
O24	O	1.694363	0.474782	0.403161
O25	O	1.239192	-0.403530	-0.263514
O26	O	1.572525	-0.070197	0.069819
O27	O	1.905859	0.263136	0.403152
O28	O	1.118947	-0.191890	-0.340481
O29	O	1.452280	0.141443	-0.007148
O30	O	1.785613	0.474776	0.326185
O31	O	1.027589	-0.312289	-0.161917
O32	O	1.360923	0.021044	0.171416
O33	O	1.694256	0.354378	0.504749
O34	O	0.907233	-0.312263	-0.263471
O35	O	1.240566	0.021070	0.069862
O36	O	1.573899	0.354404	0.403196
O37	O	1.027643	-0.403485	-0.442014
O38	O	1.360976	-0.070151	-0.108680
O39	O	1.694310	0.263182	0.224653
O40	O	0.907210	-0.403477	-0.340420
O41	O	1.240543	-0.070144	-0.007087
O42	O	1.573877	0.263189	0.326246
O43	O	1.118916	-0.312276	-0.442040
O44	O	1.452250	0.021057	-0.108707
O45	O	1.785583	0.354391	0.224627
O46	O	1.118729	-0.523909	-0.263479
O47	O	1.452062	-0.190575	0.069854
O48	O	1.785395	0.142758	0.403187
O49	O	1.027536	-0.523889	-0.340425
O50	O	1.360870	-0.190556	-0.007092
O51	O	1.694203	0.142778	0.326242
C52	C	0.880275	-0.357867	-0.301942
C53	C	1.213608	-0.024534	0.031392
C54	C	1.546941	0.308800	0.364725
C55	C	0.797729	-0.357874	-0.301943
C56	C	1.131062	-0.024540	0.031390
C57	C	1.464396	0.308793	0.364724
C58	C	1.073137	-0.550845	-0.301963
C59	C	1.406471	-0.217512	0.031371
C60	C	1.739804	0.115821	0.364704
C61	C	1.073167	-0.633391	-0.301979
C62	C	1.406500	-0.300058	0.031354
C63	C	1.739834	0.033276	0.364688
C64	C	0.548894	-0.308220	-0.260197
C65	C	0.882228	0.025113	0.073136
C66	C	1.215561	0.358447	0.406470
C67	C	0.598338	-0.290145	-0.317376
C68	C	0.931671	0.043188	0.015957
C69	C	1.265004	0.376521	0.349290
C70	C	0.500609	-0.357912	-0.301994
C71	C	0.833942	-0.024578	0.031339
C72	C	1.167275	0.308755	0.364672
C73	C	0.598247	-0.375933	-0.244793
C74	C	0.931580	-0.042599	0.088540
C75	C	1.264914	0.290734	0.421874
C76	C	0.646594	-0.357891	-0.301966
C77	C	0.979927	-0.024558	0.031367
C78	C	1.313260	0.308776	0.364701
C79	C	0.548965	-0.339802	-0.359204
C80	C	0.882298	-0.006469	-0.025871
C81	C	1.215631	0.326865	0.307462
C82	C	0.548870	-0.425621	-0.286582
C83	C	0.882203	-0.092288	0.046751
C84	C	1.215536	0.241046	0.380085
C85	C	0.598291	-0.407572	-0.343801
C86	C	0.931624	-0.074238	-0.010468
C87	C	1.264957	0.259095	0.322866
C88	C	0.416510	-0.357922	-0.302010
C89	C	0.749844	-0.024588	0.031324
C90	C	1.083177	0.308745	0.364657
C91	C	0.730690	-0.357881	-0.301957
C92	C	1.064024	-0.024548	0.031376
C93	C	1.397357	0.308785	0.364709
C94	C	1.023625	-0.832858	-0.343807
C95	C	1.356959	-0.499525	-0.010474
C96	C	1.690292	-0.166191	0.322859
C97	C	1.005516	-0.882285	-0.286633
C98	C	1.338849	-0.548951	0.046700
C99	C	1.672183	-0.215618	0.380034
C100	C	1.073240	-0.784521	-0.301987
C101	C	1.406573	-0.451188	0.031346
C102	C	1.739907	-0.117855	0.364679
C103	C	1.091386	-0.882177	-0.359168
C104	C	1.424719	-0.548843	-0.025835
C105	C	1.758052	-0.215510	0.307498
C106	C	1.073309	-0.930506	-0.302000
C107	C	1.406642	-0.597173	0.031333
C108	C	1.739976	-0.263840	0.364666
C109	C	1.055095	-0.832861	-0.244783
C110	C	1.388428	-0.499527	0.088551
C111	C	1.721762	-0.166194	0.421884
C112	C	1.140996	-0.832748	-0.317356
C113	C	1.474329	-0.499415	0.015977
C114	C	1.807663	-0.166082	0.349310
C115	C	1.122913	-0.882153	-0.260142
C116	C	1.456246	-0.548819	0.073191
C117	C	1.789579	-0.215486	0.406524
C118	C	1.073198	-0.700423	-0.301981
C119	C	1.406532	-0.367090	0.031353
C120	C	1.739865	-0.033756	0.364686
C121	C	1.073351	-1.014603	-0.302000
C122	C	1.406684	-0.681270	0.031333
C123	C	1.740017	-0.347936	0.364666
C124	C	1.266933	-0.357920	-0.302005
C125	C	1.600266	-0.024587	0.031329
C126	C	1.933599	0.308747	0.364662
C127	C	1.349478	-0.357931	-0.302018
C128	C	1.682812	-0.024598	0.031315
C129	C	2.016145	0.308735	0.364648
C130	C	1.073289	-0.357878	-0.465396
C131	C	1.406622	-0.024545	-0.132063
C132	C	1.739955	0.308789	0.201270
C133	C	1.073315	-0.357872	-0.535038
C134	C	1.406648	-0.024538	-0.201704
C135	C	1.739982	0.308795	0.131629
C136	C	1.073337	-0.164188	-0.301997
C137	C	1.406671	0.169146	0.031336
C138	C	1.740004	0.502479	0.364670
C139	C	1.073384	-0.081642	-0.302007
C140	C	1.406718	0.251692	0.031326
C141	C	1.740051	0.585025	0.364659
C142	C	1.120839	-0.310377	-0.567765
C143	C	1.454172	0.022956	-0.234432
C144	C	1.787506	0.356289	0.098901
C145	C	1.120838	-0.310345	-0.633201
C146	C	1.454171	0.022988	-0.299868
C147	C	1.787505	0.356321	0.033466
C148	C	1.073321	-0.357821	-0.665906
C149	C	1.406654	-0.024488	-0.332573
C150	C	1.739987	0.308846	0.000761
C151	C	1.025787	-0.405319	-0.633170
C152	C	1.359121	-0.071986	-0.299837
C153	C	1.692454	0.261348	0.033496
C154	C	1.025785	-0.405344	-0.567736
C155	C	1.359118	-0.072011	-0.234403
C156	C	1.692451	0.261323	0.098931
C157	C	1.067426	-0.424690	-0.769577
C158	C	1.400759	-0.091356	-0.436243
C159	C	1.734092	0.241977	-0.102910
C160	C	1.067434	-0.424666	-0.835010
C161	C	1.400767	-0.091332	-0.501676
C162	C	1.734100	0.242001	-0.168343
C163	C	1.073325	-0.357743	-0.867727
C164	C	1.406659	-0.024409	-0.534394
C165	C	1.739992	0.308924	-0.201060
C166	C	1.079224	-0.290842	-0.835003
C167	C	1.412558	0.042492	-0.501670
C168	C	1.745891	0.375825	-0.168336
C169	C	1.079221	-0.290867	-0.769569
C170	C	1.412555	0.042467	-0.436235
C171	C	1.745888	0.375800	-0.102902
C172	C	1.073318	-0.357799	-0.736858
C173	C	1.406652	-0.024465	-0.403525
C174	C	1.739985	0.308868	-0.070192
C175	C	1.120851	-0.310210	-0.971407
C176	C	1.454184	0.023124	-0.638074
C177	C	1.787517	0.356457	-0.304741
C178	C	1.120844	-0.310176	-1.036844
C179	C	1.454178	0.023157	-0.703511
C180	C	1.787511	0.356490	-0.370177
C181	C	1.025798	-0.405157	-1.036812
C182	C	1.359131	-0.071823	-0.703479
C183	C	1.692465	0.261510	-0.370145
C184	C	1.025800	-0.405183	-0.971377
C185	C	1.359134	-0.071850	-0.638043
C186	C	1.692467	0.261484	-0.304710
C187	C	1.073331	-0.357711	-0.938678
C188	C	1.406664	-0.024377	-0.605345
C189	C	1.739997	0.308956	-0.272012
C190	C	1.073208	-0.357855	-0.139185
C191	C	1.406542	-0.024521	0.194148
C192	C	1.739875	0.308812	0.527481
C193	C	1.073326	-0.357652	-0.069544
C194	C	1.406659	-0.024318	0.263789
C195	C	1.739993	0.309015	0.597122
H196	H	0.527208	-0.266174	-0.224906
H197	H	0.860541	0.067159	0.108427
H198	H	1.193874	0.400492	0.441761
H199	H	1.084023	-0.236394	-0.742928
H200	H	1.417356	0.096940	-0.409594
H201	H	1.750689	0.430273	-0.076261
F202	F	0.626546	-0.395867	-0.181580
F203	F	0.959879	-0.062534	0.151753
F204	F	1.293213	0.270799	0.485086
F205	F	1.111410	-0.910494	-0.422367
F206	F	1.444743	-0.577160	-0.089033
F207	F	1.778076	-0.243827	0.244300
H208	H	1.159549	-0.271551	-0.944783
H209	H	1.492882	0.061783	-0.611449
H210	H	1.826215	0.395116	-0.278116
H211	H	1.159541	-0.271721	-0.541146
H212	H	1.492874	0.061613	-0.207813
H213	H	1.826208	0.394946	0.125520
F214	F	1.034986	-0.804667	-0.181564
F215	F	1.368319	-0.471334	0.151769
F216	F	1.701652	-0.138000	0.485102
H217	H	0.619842	-0.449586	-0.379176
H218	H	0.953175	-0.116253	-0.045843
H219	H	1.286508	0.217081	0.287490
H220	H	0.981606	-0.811212	-0.379123
H221	H	1.314939	-0.477879	-0.045790
H222	H	1.648273	-0.144546	0.287543
H223	H	0.620053	-0.232874	-0.330412
H224	H	0.953386	0.100460	0.002922
H225	H	1.286719	0.433793	0.336255
H226	H	0.527126	-0.482873	-0.273537
H227	H	0.860459	-0.149540	0.059796
H228	H	1.193792	0.183793	0.393129
H229	H	0.527406	-0.324484	-0.407581
H230	H	0.860740	0.008849	-0.074247
H231	H	1.194073	0.342182	0.259086
H232	H	0.948249	-0.904060	-0.273646
H233	H	1.281582	-0.570726	0.059688
H234	H	1.614916	-0.237393	0.393021
H235	H	1.164900	-0.903661	-0.224741
H236	H	1.498233	-0.570328	0.108592
H237	H	1.831566	-0.236994	0.441926
H238	H	1.198250	-0.810975	-0.330371
H239	H	1.531583	-0.477642	0.002962
H240	H	1.864917	-0.144309	0.336296
F241	F	1.171409	-0.259781	-0.668039
F242	F	1.504742	0.073552	-0.334706
F243	F	1.838076	0.406886	-0.001373
H244	H	1.084023	-0.236346	-0.861640
H245	H	1.417356	0.096987	-0.528307
H246	H	1.750690	0.430320	-0.194973
H247	H	0.987106	-0.443863	-0.944729
H248	H	1.320439	-0.110529	-0.611396
H249	H	1.653772	0.222804	-0.278063
H250	H	0.987096	-0.443972	-0.659803
H251	H	1.320430	-0.110638	-0.326470
H252	H	1.653763	0.222695	0.006864
F253	F	1.061162	-0.495867	-0.869831
F254	F	1.394495	-0.162534	-0.536497
F255	F	1.727829	0.170799	-0.203164
F256	F	1.171437	-0.259632	-1.071675
F257	F	1.504771	0.073701	-0.738342
F258	F	1.838104	0.407035	-0.405009
F259	F	0.975221	-0.455679	-1.071615
F260	F	1.308554	-0.122345	-0.738281
F261	F	1.641887	0.210988	-0.404948
H262	H	1.062429	-0.479173	-0.742944
H263	H	1.395763	-0.145839	-0.409611
H264	H	1.729096	0.187494	-0.076277
H265	H	0.987081	-0.444019	-0.541089
H266	H	1.320415	-0.110686	-0.207756
H267	H	1.653748	0.222648	0.125577
