data_functionalizedCrystal
_audit_creation_method	'MofGen! by Chris Wilmer'
_symmetry_space_group_name_H-M	'P1'
_symmetry_Int_Tables_number	1
_symmetry_cell_setting	triclinic
loop_
_symmetry_equiv_pos_as_xyz
  x,y,z
_cell_length_a	15.995350
_cell_length_b	19.288857
_cell_length_c	17.766277
_cell_angle_alpha	89.991474
_cell_angle_beta	89.994287
_cell_angle_gamma	83.312742
loop_
_atom_site_label
_atom_site_type_symbol
_atom_site_fract_x
_atom_site_fract_y
_atom_site_fract_z
O1	O	1.110651	0.089532	-0.062534
O2	O	0.866833	0.100588	-0.062550
O3	O	0.995790	-0.006052	-0.062533
O4	O	0.981693	0.196172	-0.062552
O5	O	0.995768	-0.006058	0.062656
O6	O	0.866811	0.100582	0.062638
O7	O	1.110628	0.089527	0.062654
Cu8	Cu	0.988717	0.095054	0.074077
Cu9	Cu	0.988744	0.095060	-0.073973
O10	O	0.981671	0.196167	0.062637
C11	C	0.835629	0.100128	0.000042
C12	C	0.742684	0.098758	0.000037
C13	C	0.995327	-0.031933	0.000062
C14	C	0.993968	-0.109040	0.000064
C15	C	0.993347	-0.145250	-0.068176
C16	C	0.992058	-0.217699	-0.068182
C17	C	0.991409	-0.253938	0.000057
C18	C	0.992026	-0.217719	0.068306
C19	C	0.993305	-0.145271	0.068310
C20	C	1.038414	-0.374050	0.052335
C21	C	1.037139	-0.446498	0.052328
C22	C	0.987457	-0.477394	0.000048
C23	C	0.939061	-0.435835	-0.052238
C24	C	0.940341	-0.363386	-0.052234
C25	C	0.990020	-0.332497	0.000060
C26	C	0.985438	-0.592161	-0.068203
C27	C	0.984144	-0.664611	-0.068206
C28	C	0.984120	-0.664631	0.068284
C29	C	0.985405	-0.592182	0.068285
C30	C	0.986068	-0.555951	0.000039
C31	C	0.404955	0.093837	0.000053
C32	C	0.452678	0.017889	0.000339
C33	C	0.549363	0.019260	0.000052
C34	C	0.572506	0.096278	0.000045
C35	C	0.531290	0.133741	-0.071444
C36	C	0.434661	0.131833	-0.071499
C37	C	0.434290	0.133396	0.070864
C38	C	0.531236	0.133378	0.071804
C39	C	0.667198	0.097661	0.000038
C40	C	0.310262	0.092455	0.000054
C41	C	1.141832	0.089986	0.000060
C42	C	1.234777	0.091357	0.000061
C43	C	0.982135	0.222047	0.000040
C44	C	0.983493	0.299155	0.000033
N45	N	0.988705	0.095049	0.178207
N46	N	0.988763	0.095060	-0.178103
C47	C	1.045825	0.047852	0.217602
C48	C	1.045830	0.047849	0.296404
C49	C	0.988722	0.095055	0.335808
C50	C	0.931591	0.142255	0.296404
C51	C	0.931582	0.142253	0.217604
C52	C	0.977511	0.158313	0.460640
C53	C	0.977525	0.158317	0.539438
C54	C	0.988745	0.095063	0.578854
C55	C	0.999967	0.031802	0.539462
C56	C	0.999958	0.031800	0.460661
C57	C	0.988725	0.095063	0.421254
C58	C	1.045874	0.047858	0.703695
C59	C	1.045873	0.047854	0.782498
C60	C	0.931637	0.142267	0.782497
C61	C	0.931634	0.142265	0.703695
C62	C	0.988757	0.095062	0.664299
H63	H	0.993884	-0.115755	-0.123747
Cl64	Cl	1.117630	-0.011492	0.168076
Cl65	Cl	0.986186	-0.546659	0.154078
Cl66	Cl	0.406566	0.089659	-0.153997
H67	H	0.885125	0.180700	0.671618
H68	H	0.402201	0.187592	-0.074748
Cl69	Cl	0.963484	0.237843	0.411097
Cl70	Cl	1.097983	-0.498737	0.118056
H71	H	0.968393	0.209827	0.571506
H72	H	0.546386	0.189541	0.076117
H73	H	1.078870	-0.348901	0.094914
H74	H	1.009102	-0.019705	0.571552
Cl75	Cl	0.552790	0.221094	-0.075575
H76	H	0.885092	0.180690	0.328491
Cl77	Cl	0.422616	-0.028767	-0.078365
H78	H	0.885067	0.180687	0.185528
Cl79	Cl	0.384925	0.219848	0.071604
H80	H	0.991494	-0.247230	0.123867
H81	H	0.991547	-0.247186	-0.123753
Cl82	Cl	1.014056	-0.047724	0.411142
H83	H	0.983584	-0.694136	0.123845
H84	H	0.985972	-0.562660	-0.123773
Cl85	Cl	0.879499	-0.311142	-0.117959
Cl86	Cl	0.424240	-0.028986	0.079493
H87	H	1.092385	0.009417	0.814574
Cl88	Cl	0.592535	-0.026305	-0.079335
Cl89	Cl	1.117680	-0.011486	0.654167
H90	H	0.559772	0.107725	-0.124643
Cl91	Cl	0.994086	-0.099748	0.154105
H92	H	0.898605	-0.460988	-0.094810
Cl93	Cl	0.593418	-0.026207	0.079171
H94	H	0.413840	0.108564	0.125051
H95	H	0.558647	0.106030	0.124691
Cl96	Cl	0.859839	0.201607	0.832028
Cl97	Cl	0.983357	-0.710132	-0.154002
H98	H	1.092346	0.009414	0.328485
