data_functionalizedCrystal
_audit_creation_method	'MofGen! by Chris Wilmer'
_symmetry_space_group_name_H-M	'P1'
_symmetry_Int_Tables_number	1
_symmetry_cell_setting	triclinic
loop_
_symmetry_equiv_pos_as_xyz
  x,y,z
_cell_length_a	21.295420
_cell_length_b	12.645330
_cell_length_c	12.645323
_cell_angle_alpha	90.024870
_cell_angle_beta	89.977463
_cell_angle_gamma	89.986526
loop_
_atom_site_label
_atom_site_type_symbol
_atom_site_fract_x
_atom_site_fract_y
_atom_site_fract_z
Zn1	Zn	0.962399	0.422150	-0.599442
Zn2	Zn	1.462399	0.922150	-0.099442
Zn3	Zn	0.962328	0.599438	-0.422182
Zn4	Zn	1.462328	1.099438	0.077818
Zn5	Zn	0.857126	0.422176	-0.422187
Zn6	Zn	1.357126	0.922176	0.077813
Zn7	Zn	0.857115	0.599359	-0.599398
Zn8	Zn	1.357115	1.099359	-0.099398
O9	O	0.909742	0.510781	-0.510802
O10	O	1.409742	1.010781	-0.010802
O11	O	1.050479	0.445690	-0.575945
O12	O	1.550479	0.945690	-0.075945
O13	O	0.948348	0.575968	-0.273836
O14	O	1.448348	1.075968	0.226164
O15	O	0.871124	0.273826	-0.445721
O16	O	1.371124	0.773826	0.054279
O17	O	1.050427	0.575943	-0.445713
O18	O	1.550427	1.075943	0.054287
O19	O	0.948468	0.273806	-0.575949
O20	O	1.448468	0.773806	-0.075949
O21	O	0.871056	0.445734	-0.273839
O22	O	1.371056	0.945734	0.226161
O23	O	0.769035	0.445658	-0.445678
O24	O	1.269035	0.945658	0.054322
O25	O	0.871106	0.575808	-0.747751
O26	O	1.371106	1.075808	-0.247751
O27	O	0.769027	0.575833	-0.575874
O28	O	1.269027	1.075833	-0.075874
O29	O	0.948457	0.445613	-0.747784
O30	O	1.448457	0.945613	-0.247784
O31	O	0.948338	0.747775	-0.445670
O32	O	1.448338	1.247775	0.054330
O33	O	0.871038	0.747717	-0.575870
O34	O	1.371038	1.247717	-0.075870
C35	C	0.746190	0.510740	-0.510773
C36	C	1.246190	1.010740	-0.010773
C37	C	0.676222	0.510749	-0.510785
C38	C	1.176222	1.010749	-0.010785
C39	C	0.176790	0.443118	-0.578740
C40	C	0.676790	0.943118	-0.078740
C41	C	0.242533	0.443110	-0.578740
C42	C	0.742533	0.943110	-0.078740
C43	C	0.275383	0.510813	-0.510827
C44	C	0.775383	1.010813	-0.010827
C45	C	0.242485	0.578548	-0.442928
C46	C	0.742485	1.078548	0.057072
C47	C	0.176743	0.578562	-0.442938
C48	C	0.676743	1.078562	0.057062
N49	N	0.378576	0.518808	-0.418004
N50	N	0.878576	1.018808	0.081996
N51	N	0.441027	0.518789	-0.417998
N52	N	0.941027	1.018789	0.082002
C53	C	0.473457	0.510778	-0.510796
C54	C	0.973457	1.010778	-0.010796
N55	N	0.441077	0.502766	-0.603602
N56	N	0.941077	1.002766	-0.103602
N57	N	0.378620	0.502780	-0.603607
N58	N	0.878620	1.002780	-0.103607
C59	C	0.346668	0.510807	-0.510810
C60	C	0.846668	1.010807	-0.010810
C61	C	0.577633	0.443044	-0.578696
C62	C	1.077633	0.943044	-0.078696
C63	C	0.643377	0.443044	-0.578697
C64	C	1.143377	0.943044	-0.078697
C65	C	0.643327	0.578476	-0.442876
C66	C	1.143327	1.078476	0.057124
C67	C	0.577585	0.578482	-0.442884
C68	C	1.077585	1.078482	0.057116
C69	C	0.544742	0.510761	-0.510792
C70	C	1.044742	1.010761	-0.010792
C71	C	0.909696	0.786211	-0.510788
C72	C	1.409696	1.286211	-0.010788
C73	C	0.909734	0.904041	-0.510817
C74	C	1.409734	1.404041	-0.010817
C75	C	0.909788	0.510699	-0.787308
C76	C	1.409788	1.010699	-0.287308
C77	C	0.909808	0.510664	-0.905138
C78	C	1.409808	1.010664	-0.405138
C79	C	1.073932	0.510822	-0.510833
C80	C	1.573932	1.010822	-0.010833
C81	C	1.143900	0.510840	-0.510846
C82	C	1.643900	1.010840	-0.010846
C83	C	0.909805	0.234276	-0.510841
C84	C	1.409805	0.734276	-0.010841
C85	C	0.909832	0.116446	-0.510857
C86	C	1.409832	0.616446	-0.010857
C87	C	0.861305	1.071612	-0.592978
C88	C	1.361305	1.571612	-0.092978
C89	C	0.861057	0.949053	-0.592714
C90	C	1.361057	1.449053	-0.092714
C91	C	0.891774	0.948633	-0.399095
C92	C	1.391774	1.448633	0.100905
C93	C	0.891478	1.071231	-0.399594
C94	C	1.391478	1.571231	0.100406
C95	C	0.976419	1.071138	-0.539471
C96	C	1.476419	1.571138	-0.039471
C97	C	0.976010	0.948531	-0.541914
C98	C	1.476010	1.448531	-0.041914
C99	C	0.860996	0.592183	-1.072682
C100	C	1.360996	1.092183	-0.572682
C101	C	0.861124	0.592587	-0.950122
C102	C	1.361124	1.092587	-0.450122
C103	C	0.976136	0.540991	-0.949658
C104	C	1.476136	1.040991	-0.449658
C105	C	0.975868	0.541502	-1.072256
C106	C	1.475868	1.041502	-0.572256
C107	C	0.892919	0.398362	-1.072336
C108	C	1.392919	0.898362	-0.572336
C109	C	0.891440	0.399035	-0.949730
C110	C	1.391440	0.899035	-0.449730
C111	C	0.909732	0.510786	-0.235373
C112	C	1.409732	1.010786	0.264627
C113	C	0.909834	0.510522	-0.117543
C114	C	1.409834	1.010522	0.382457
H115	H	0.550891	0.387901	-0.633991
H116	H	1.050891	0.887901	-0.133991
C117	C	0.995230	0.652264	-1.110913
C118	C	1.495230	1.152264	-0.610913
H119	H	1.003182	0.696527	-1.051690
H120	H	1.503182	1.196527	-0.551690
H121	H	1.032146	0.646880	-1.152765
H122	H	1.532146	1.146880	-0.652765
H123	H	0.962296	0.681731	-1.152115
H124	H	1.462296	1.181731	-0.652115
H125	H	0.269317	0.387958	-0.634027
H126	H	0.769317	0.887958	-0.134027
H127	H	0.872294	0.918900	-0.675555
H128	H	1.372294	1.418900	-0.175555
H129	H	0.150054	0.387978	-0.634041
H130	H	0.650054	0.887978	-0.134041
C131	C	0.828718	0.361015	-1.114072
C132	C	1.328718	0.861015	-0.614072
H133	H	0.819406	0.293192	-1.085845
H134	H	1.319406	0.793192	-0.585845
H135	H	0.797153	0.409792	-1.093063
H136	H	1.297153	0.909792	-0.593063
H137	H	0.829990	0.357012	-1.189064
H138	H	1.329990	0.857012	-0.689064
H139	H	0.928491	0.337521	-1.101349
H140	H	1.428491	0.837521	-0.601349
H141	H	0.924412	0.334976	-0.919108
H142	H	1.424412	0.834976	-0.419108
C143	C	1.026699	0.464663	-1.112355
C144	C	1.526699	0.964663	-0.612355
H145	H	1.047425	0.433280	-1.053715
H146	H	1.547425	0.933280	-0.553715
H147	H	1.007692	0.411024	-1.154085
H148	H	1.507692	0.911024	-0.654085
H149	H	1.056352	0.502299	-1.153988
H150	H	1.556352	1.002299	-0.653988
C151	C	0.825501	0.368129	-0.910427
C152	C	1.325501	0.868129	-0.410427
H153	H	0.814655	0.300534	-0.937674
H154	H	1.314655	0.800534	-0.437674
H155	H	0.825345	0.365795	-0.835344
H156	H	1.325345	0.865795	-0.335344
H157	H	0.795816	0.418990	-0.934036
H158	H	1.295816	0.918990	-0.434036
C159	C	0.278616	0.653016	-0.368223
C160	C	0.778616	1.153016	0.131777
H161	H	0.322481	0.643302	-0.377933
H162	H	0.822481	1.143302	0.122067
H163	H	0.267844	0.724265	-0.383620
H164	H	0.767844	1.224265	0.116380
H165	H	0.267821	0.637411	-0.297020
H166	H	0.767821	1.137411	0.202980
H167	H	0.149964	0.633711	-0.387649
H168	H	0.649964	1.133711	0.112351
C169	C	0.679454	0.652950	-0.368174
C170	C	1.179454	1.152950	0.131826
H171	H	0.723318	0.643240	-0.377888
H172	H	1.223318	1.143240	0.122112
H173	H	0.668678	0.724197	-0.383571
H174	H	1.168678	1.224197	0.116429
H175	H	0.668662	0.637344	-0.296969
H176	H	1.168662	1.137344	0.203031
C177	C	1.027430	0.907140	-0.467003
C178	C	1.527430	1.407140	0.032997
H179	H	1.066936	0.935270	-0.487650
H180	H	1.566936	1.435270	0.012350
H181	H	1.018232	0.928475	-0.396644
H182	H	1.518232	1.428475	0.103356
H183	H	1.028849	0.832131	-0.470510
H184	H	1.528849	1.332131	0.029490
C185	C	0.794352	0.566800	-1.112489
C186	C	1.294352	1.066800	-0.612489
H187	H	0.765584	0.616986	-1.084521
H188	H	1.265584	1.116986	-0.584521
H189	H	0.793623	0.569886	-1.187535
H190	H	1.293623	1.069886	-0.687535
H191	H	0.782729	0.497869	-1.089956
H192	H	1.282729	0.997869	-0.589956
C193	C	0.994316	0.909142	-0.652978
C194	C	1.494316	1.409142	-0.152978
H195	H	0.961710	0.865758	-0.680289
H196	H	1.461710	1.365758	-0.180289
H197	H	1.000466	0.968020	-0.698442
H198	H	1.500466	1.468020	-0.198442
H199	H	1.032063	0.869319	-0.648716
H200	H	1.532063	1.369319	-0.148716
C201	C	0.876284	1.111476	-0.705234
C202	C	1.376284	1.611476	-0.205234
H203	H	0.912270	1.155810	-0.703031
H204	H	1.412270	1.655810	-0.203031
H205	H	0.884292	1.052854	-0.750267
H206	H	1.384292	1.552854	-0.250267
H207	H	0.841513	1.150420	-0.731645
H208	H	1.341513	1.650420	-0.231645
C209	C	0.679556	0.368544	-0.653383
C210	C	1.179556	0.868544	-0.153383
H211	H	0.650578	0.328210	-0.693818
H212	H	1.150578	0.828210	-0.193818
H213	H	0.705212	0.409140	-0.699509
H214	H	1.205212	0.909140	-0.199509
H215	H	0.705194	0.322302	-0.612891
H216	H	1.205194	0.822302	-0.112891
C217	C	1.025247	1.110198	-0.458602
C218	C	1.525247	1.610198	0.041398
H219	H	1.005187	1.153918	-0.407653
H220	H	1.505187	1.653918	0.092347
H221	H	1.043792	1.051179	-0.424211
H222	H	1.543792	1.551179	0.075789
H223	H	1.056873	1.149588	-0.494030
H224	H	1.556873	1.649588	0.005970
C225	C	0.541404	0.652965	-0.368187
C226	C	1.041404	1.152965	0.131813
H227	H	0.570382	0.693280	-0.327732
H228	H	1.070382	1.193280	0.172268
H229	H	0.515764	0.699209	-0.408662
H230	H	1.015764	1.199209	0.091338
H231	H	0.515750	0.612351	-0.322064
H232	H	1.015750	1.112351	0.177936
C233	C	0.794684	0.566936	-0.909451
C234	C	1.294684	1.066936	-0.409451
H235	H	0.767370	0.556181	-0.967856
H236	H	1.267370	1.056181	-0.467856
H237	H	0.796025	0.504635	-0.867566
H238	H	1.296025	1.004635	-0.367566
H239	H	0.779661	0.624183	-0.867854
H240	H	1.279661	1.124183	-0.367854
H241	H	0.812249	1.102507	-0.574263
H242	H	1.312249	1.602507	-0.074263
H243	H	0.811693	0.919812	-0.573756
H244	H	1.311693	1.419812	-0.073756
H245	H	0.842803	1.099916	-0.375353
H246	H	1.342803	1.599916	0.124647
C247	C	1.026615	0.463195	-0.910295
C248	C	1.526615	0.963195	-0.410295
H249	H	1.007642	0.411407	-0.866250
H250	H	1.507642	0.911407	-0.366250
H251	H	1.045830	0.429509	-0.969158
H252	H	1.545830	0.929509	-0.469158
H253	H	1.057510	0.500677	-0.871168
H254	H	1.557510	1.000677	-0.371168
C255	C	0.937141	1.111307	-0.314105
C256	C	1.437141	1.611307	0.185895
H257	H	0.955787	1.052658	-0.279220
H258	H	1.455787	1.552658	0.220780
H259	H	0.968983	1.152982	-0.346199
H260	H	1.468983	1.652982	0.153801
H261	H	0.914815	1.152990	-0.264136
H262	H	1.414815	1.652990	0.235864
C263	C	0.938001	0.909245	-0.314172
C264	C	1.438001	1.409245	0.185828
H265	H	0.968737	0.865146	-0.346174
H266	H	1.468737	1.365146	0.153826
H267	H	0.958021	0.968096	-0.281879
H268	H	1.458021	1.468096	0.218121
H269	H	0.915762	0.870171	-0.262079
H270	H	1.415762	1.370171	0.237921
H271	H	0.872053	0.674813	-1.103501
H272	H	1.372053	1.174813	-0.603501
H273	H	0.843606	0.918015	-0.374416
H274	H	1.343606	1.418015	0.125584
H275	H	0.992802	1.101984	-0.619554
H276	H	1.492802	1.601984	-0.119554
H277	H	0.872290	0.675736	-0.920808
H278	H	1.372290	1.175736	-0.420808
H279	H	0.990719	0.622123	-0.918969
H280	H	1.490719	1.122123	-0.418969
