data_functionalizedCrystal
_audit_creation_method	'MofGen! by Chris Wilmer'
_symmetry_space_group_name_H-M	'P1'
_symmetry_Int_Tables_number	1
_symmetry_cell_setting	triclinic
loop_
_symmetry_equiv_pos_as_xyz
  x,y,z
_cell_length_a	16.959455
_cell_length_b	12.759399
_cell_length_c	12.759393
_cell_angle_alpha	90.032031
_cell_angle_beta	89.973429
_cell_angle_gamma	89.987864
loop_
_atom_site_label
_atom_site_type_symbol
_atom_site_fract_x
_atom_site_fract_y
_atom_site_fract_z
Zn1	Zn	1.208459	0.418287	-0.594206
Zn2	Zn	1.208379	0.594006	-0.418525
Zn3	Zn	1.076274	0.418333	-0.418520
Zn4	Zn	1.076264	0.593916	-0.594141
O5	O	1.142344	0.506135	-0.506348
O6	O	1.319060	0.441616	-0.570930
O7	O	1.190825	0.570760	-0.271503
O8	O	1.093846	0.271306	-0.441851
O9	O	1.319001	0.570716	-0.441858
O10	O	1.190962	0.271272	-0.570926
O11	O	1.093768	0.441693	-0.271500
O12	O	0.965661	0.441605	-0.441788
O13	O	1.093830	0.570561	-0.741171
O14	O	0.965654	0.570605	-0.570816
O15	O	1.190953	0.441528	-0.741218
O16	O	1.190816	0.741015	-0.441795
O17	O	1.093752	0.740949	-0.570820
C18	C	1.142296	0.779103	-0.506324
C19	C	1.142347	0.895879	-0.506349
C20	C	0.936978	0.506101	-0.506295
C21	C	0.849121	0.506112	-0.506297
C22	C	1.142399	0.506029	-0.780382
C23	C	1.142423	0.505984	-0.897158
C24	C	0.477604	0.573291	-0.439106
C25	C	0.477687	0.439067	-0.573718
C26	C	0.560233	0.439050	-0.573693
C27	C	0.601468	0.506155	-0.506374
C28	C	0.560158	0.573278	-0.439080
C29	C	0.601550	0.371935	-0.640992
C30	C	0.684101	0.371916	-0.640970
C31	C	0.725337	0.439017	-0.573645
C32	C	0.684022	0.506142	-0.506348
C33	C	0.725257	0.573248	-0.439030
C34	C	0.683943	0.640368	-0.371727
C35	C	0.601395	0.640379	-0.371756
C36	C	0.807886	0.439006	-0.573616
C37	C	0.807811	0.573235	-0.439004
C38	C	1.348512	0.506171	-0.506402
C39	C	1.436369	0.506186	-0.506425
C40	C	1.142414	0.232102	-0.506395
C41	C	1.142444	0.115325	-0.506415
C42	C	1.192946	0.950741	-0.439242
C43	C	1.192997	1.060465	-0.439277
C44	C	1.091843	1.060456	-0.573529
C45	C	1.091797	0.950734	-0.573499
C46	C	1.286295	1.210351	-0.401905
C47	C	1.336887	1.265217	-0.334781
C48	C	1.349049	1.229679	-0.232273
C49	C	1.310606	1.139278	-0.196867
C50	C	1.260008	1.084418	-0.263985
C51	C	1.247862	1.119954	-0.366508
C52	C	0.998497	0.800846	-0.610861
C53	C	0.947895	0.745984	-0.677974
C54	C	0.935725	0.781520	-0.780484
C55	C	0.974154	0.871924	-0.815886
C56	C	1.024756	0.926786	-0.748773
C57	C	1.036927	0.891243	-0.646264
C58	C	1.091903	0.438767	-0.952018
C59	C	1.091922	0.438734	-1.061742
C60	C	1.192986	0.573139	-1.061737
C61	C	1.192963	0.573176	-0.952015
C62	C	0.998743	0.401128	-1.211678
C63	C	0.948230	0.333894	-1.266542
C64	C	0.936115	0.231389	-1.230951
C65	C	0.974524	0.196097	-1.140498
C66	C	1.025042	0.263325	-1.085640
C67	C	1.037143	0.365845	-1.121229
C68	C	1.286142	0.610772	-0.802077
C69	C	1.336666	0.677996	-0.747217
C70	C	1.348789	0.780502	-0.782806
C71	C	1.310394	0.815790	-0.873262
C72	C	1.259871	0.748567	-0.928122
C73	C	1.247746	0.646061	-0.892526
C74	C	1.142335	0.506165	-0.233381
C75	C	1.142464	0.505915	-0.116605
H76	H	0.841379	0.627878	-0.384181
Br77	Br	1.023312	0.347580	-0.877573
Br78	Br	1.261550	0.876298	-0.348112
H79	H	1.050685	1.105132	-0.628198
Br80	Br	1.261573	0.664324	-1.136192
H81	H	0.964245	0.900858	-0.899359
H82	H	0.964662	0.112623	-1.111534
Br83	Br	0.545321	0.731464	-0.280425
Br84	Br	1.207764	0.796457	-1.050888
Br85	Br	0.867565	0.140144	-1.305413
H86	H	1.389937	0.835231	-0.738135
Br87	Br	0.896108	0.381787	-1.389296
H88	H	1.276406	1.239287	-0.485378
Br89	Br	1.207833	0.961745	-0.215942
Br90	Br	0.866995	0.707114	-0.871538
Br91	Br	0.739915	0.731447	-0.280379
H92	H	0.916609	0.672368	-0.649143
H93	H	0.443963	0.627936	-0.384307
H94	H	0.444108	0.384438	-0.628532
Br95	Br	1.015017	0.752608	-0.471736
H96	H	0.841520	0.384360	-0.628415
Br97	Br	0.545585	0.280887	-0.732365
H98	H	1.320269	0.899258	-0.902243
H99	H	1.367937	0.649250	-0.673571
H100	H	1.276253	0.527314	-0.773071
H101	H	1.008594	0.484599	-1.240657
Br102	Br	0.740163	0.280827	-0.732308
Br103	Br	1.327102	1.091064	-0.057733
H104	H	1.056317	0.234589	-1.011998
H105	H	1.390243	1.274358	-0.177621
Br106	Br	1.389055	1.387901	-0.382829
Br107	Br	1.076910	1.049481	-0.796818
