data_functionalizedCrystal
_audit_creation_method	'MofGen! by Chris Wilmer'
_symmetry_space_group_name_H-M	'P1'
_symmetry_Int_Tables_number	1
_symmetry_cell_setting	triclinic
loop_
_symmetry_equiv_pos_as_xyz
  x,y,z
_cell_length_a	12.759394
_cell_length_b	12.759401
_cell_length_c	12.759393
_cell_angle_alpha	90.020566
_cell_angle_beta	89.968780
_cell_angle_gamma	89.986954
loop_
_atom_site_label
_atom_site_type_symbol
_atom_site_fract_x
_atom_site_fract_y
_atom_site_fract_z
Zn1	Zn	-0.418266	-1.606265	-0.594004
Zn2	Zn	-0.593982	-1.606156	-0.418322
Zn3	Zn	-0.418312	-1.430564	-0.418341
Zn4	Zn	-0.593898	-1.430556	-0.593961
O5	O	-0.506114	-1.518385	-0.506157
O6	O	-0.441591	-1.753272	-0.570710
O7	O	-0.570733	-1.582821	-0.271304
O8	O	-0.271284	-1.453921	-0.441669
O9	O	-0.570688	-1.753192	-0.441637
O10	O	-0.271251	-1.583008	-0.570728
O11	O	-0.441669	-1.453815	-0.271317
O12	O	-0.441588	-1.283542	-0.441626
O13	O	-0.570546	-1.453906	-0.740988
O14	O	-0.570590	-1.283536	-0.570654
O15	O	-0.441510	-1.582999	-0.741020
O16	O	-0.740992	-1.582813	-0.441595
O17	O	-0.740930	-1.453800	-0.570636
C18	C	-0.506086	-1.245418	-0.506138
C19	C	-0.506099	-1.128641	-0.506155
C20	C	-0.438997	-1.073822	-0.573466
C21	C	-0.439003	-0.964098	-0.573471
C22	C	-0.573222	-0.964022	-0.438851
C23	C	-0.573210	-1.073744	-0.438841
C24	C	-0.779082	-1.518322	-0.506132
C25	C	-0.895858	-1.518391	-0.506156
C26	C	-0.895869	-1.652833	-0.371886
C27	C	-0.950735	-1.720082	-0.304764
C28	C	-1.060457	-1.720143	-0.304793
C29	C	-1.115315	-1.652951	-0.371953
C30	C	-1.060449	-1.585703	-0.439075
C31	C	-0.950725	-1.585647	-0.439037
C32	C	-1.060438	-1.451268	-0.573348
C33	C	-0.950716	-1.451199	-0.573316
C34	C	-1.115296	-1.384076	-0.640509
C35	C	-1.060430	-1.316821	-0.707628
C36	C	-0.950702	-1.316761	-0.707595
C37	C	-0.895850	-1.383951	-0.640439
C38	C	-0.232081	-1.518477	-0.506205
C39	C	-0.115304	-1.518516	-0.506226
C40	C	-0.506013	-1.518464	-0.780190
C41	C	-0.505970	-1.518497	-0.896967
C42	C	-0.506134	-0.792418	-0.506173
C43	C	-0.506118	-0.909195	-0.506170
C44	C	-0.438771	-1.585721	-0.951848
C45	C	-0.438725	-1.585739	-1.061572
C46	C	-0.573089	-1.451306	-1.061525
C47	C	-0.573128	-1.451284	-0.951803
C48	C	-0.506139	-1.518367	-0.233190
C49	C	-0.505886	-1.518537	-0.116413
H50	H	-0.627863	-0.919312	-0.384048
H51	H	-0.627853	-1.118380	-0.384023
H52	H	-0.627768	-1.396586	-1.106186
O53	O	-0.897283	-1.785249	-0.239559
C54	C	-0.788675	-1.770797	-0.253940
H55	H	-0.773722	-1.689695	-0.288281
H56	H	-0.757443	-1.833075	-0.309927
C57	C	-0.750790	-1.880049	-0.105449
C58	C	-0.732424	-1.780434	-0.147620
H59	H	-0.716091	-1.885999	-0.039867
H60	H	-0.823962	-1.889789	-0.095762
H61	H	-0.724763	-1.931936	-0.152115
H62	H	-0.758463	-1.728550	-0.100960
H63	H	-0.659255	-1.770686	-0.157296
H64	H	-0.384361	-0.919468	-0.628281
O65	O	-1.113878	-1.785324	-0.239546
C66	C	-1.177431	-1.725572	-0.171644
H67	H	-1.193888	-1.645940	-0.208635
H68	H	-1.135227	-1.714049	-0.093759
C69	C	-1.261422	-1.881239	-0.107282
C70	C	-1.281642	-1.783438	-0.152719
H71	H	-1.325702	-1.916935	-0.095603
H72	H	-1.218602	-1.921497	-0.153025
H73	H	-1.226249	-1.871624	-0.042382
H74	H	-1.316802	-1.793055	-0.217623
H75	H	-1.324470	-1.743184	-0.106986
O76	O	-1.221879	-1.384232	-0.640710
C77	C	-1.258429	-1.411168	-0.741441
H78	H	-1.195126	-1.456918	-0.784890
H79	H	-1.277919	-1.336780	-0.786906
C80	C	-1.435293	-1.423087	-0.678000
C81	C	-1.357545	-1.479285	-0.731361
H82	H	-1.496434	-1.465101	-0.671784
H83	H	-1.410669	-1.404936	-0.610136
H84	H	-1.451521	-1.361099	-0.715895
H85	H	-1.341309	-1.541264	-0.693460
H86	H	-1.382168	-1.497448	-0.799219
H87	H	-0.806528	-1.652776	-0.371843
O88	O	-0.373431	-1.651036	-0.898741
C89	C	-0.314127	-1.710390	-0.970715
H90	H	-0.310458	-1.667372	-1.048922
H91	H	-0.352604	-1.790172	-0.982390
C92	C	-0.206831	-1.778395	-0.831863
C93	C	-0.202318	-1.725556	-0.927916
H94	H	-0.137863	-1.787755	-0.805462
H95	H	-0.246787	-1.738411	-0.783372
H96	H	-0.238899	-1.844875	-0.841605
H97	H	-0.170262	-1.659073	-0.918170
H98	H	-0.162353	-1.765529	-0.976404
O99	O	-1.113671	-1.251672	-0.773012
C100	C	-1.086729	-1.274552	-0.877732
H101	H	-1.056486	-1.358461	-0.883095
H102	H	-1.023067	-1.218169	-0.905130
C103	C	-1.221294	-1.159302	-0.941285
C104	C	-1.184157	-1.262364	-0.947872
H105	H	-1.281390	-1.151779	-0.984552
H106	H	-1.239443	-1.143884	-0.870733
H107	H	-1.168233	-1.112328	-0.964114
H108	H	-1.237213	-1.309334	-0.925030
H109	H	-1.166019	-1.277789	-1.018422
O110	O	-0.897359	-1.251587	-0.772912
C111	C	-0.833766	-1.311338	-0.840777
H112	H	-0.866759	-1.394102	-0.847338
H113	H	-0.750634	-1.314921	-0.808272
C114	C	-0.791508	-1.158317	-0.941901
C115	C	-0.832036	-1.259966	-0.949965
H116	H	-0.790435	-1.126627	-1.009252
H117	H	-0.834348	-1.118060	-0.896177
H118	H	-0.722235	-1.161316	-0.914808
H119	H	-0.901312	-1.256964	-0.977044
H120	H	-0.789207	-1.300222	-0.995697
H121	H	-0.384347	-1.118516	-0.628273
H122	H	-1.204656	-1.653017	-0.371979
H123	H	-0.806509	-1.383902	-0.640399
H124	H	-0.384003	-1.640478	-1.106250
H125	H	-0.627849	-1.396535	-0.907118
