data_functionalizedCrystal
_audit_creation_method	'MofGen! by Chris Wilmer'
_symmetry_space_group_name_H-M	'P1'
_symmetry_Int_Tables_number	1
_symmetry_cell_setting	triclinic
loop_
_symmetry_equiv_pos_as_xyz
  x,y,z
_cell_length_a	19.076806
_cell_length_b	25.639242
_cell_length_c	19.077271
_cell_angle_alpha	87.709081
_cell_angle_beta	90.108511
_cell_angle_gamma	92.314234
loop_
_atom_site_label
_atom_site_type_symbol
_atom_site_fract_x
_atom_site_fract_y
_atom_site_fract_z
Zn1	Zn	-0.295985	0.778888	0.386055
Zn2	Zn	0.204015	1.278888	0.886055
Zn3	Zn	-0.408748	0.779129	0.263823
Zn4	Zn	0.091252	1.279129	0.763823
Zn5	Zn	-0.291238	0.695124	0.268564
Zn6	Zn	0.208762	1.195124	0.768564
Zn7	Zn	-0.413444	0.688070	0.381287
Zn8	Zn	0.086556	1.188070	0.881287
O9	O	-0.352354	0.735303	0.324932
O10	O	0.147646	1.235303	0.824932
O11	O	-0.310965	0.852085	0.369853
O12	O	0.189035	1.352085	0.869853
O13	O	-0.389208	0.771038	0.166122
O14	O	0.110792	1.271038	0.666122
O15	O	-0.193533	0.709087	0.288128
O16	O	0.306467	1.209087	0.788128
O17	O	-0.393811	0.852261	0.280049
O18	O	0.106189	1.352261	0.780049
O19	O	-0.197021	0.770628	0.374449
O20	O	0.302979	1.270628	0.874449
O21	O	-0.302874	0.709320	0.169605
O22	O	0.197126	1.209320	0.669605
O23	O	-0.307428	0.621024	0.283505
O24	O	0.192572	1.121024	0.783505
O25	O	-0.401815	0.697065	0.480250
O26	O	0.098185	1.197065	0.980250
O27	O	-0.397212	0.615841	0.366323
O28	O	0.102788	1.115841	0.866323
O29	O	-0.315518	0.763789	0.483753
O30	O	0.184482	1.263789	0.983753
O31	O	-0.507706	0.764198	0.275426
O32	O	-0.007706	1.264198	0.775426
O33	O	-0.511156	0.697298	0.361726
O34	O	-0.011156	1.197298	0.861726
C35	C	-0.352315	0.599462	0.324911
C36	C	0.147685	1.099462	0.824911
C37	C	-0.352316	0.541348	0.324918
C38	C	0.147684	1.041348	0.824918
C39	C	-0.309299	0.290064	0.371772
C40	C	0.190701	0.790064	0.871772
C41	C	-0.309292	0.344669	0.371768
C42	C	0.190708	0.844669	0.871768
O43	O	-0.272686	0.372830	0.411601
O44	O	0.227314	0.872830	0.911601
N45	N	-0.352346	0.372072	0.324941
N46	N	0.147654	0.872072	0.824941
C47	C	-0.395415	0.344868	0.278119
C48	C	0.104585	0.844868	0.778119
O49	O	-0.432036	0.373191	0.238289
O50	O	0.067964	0.873191	0.738289
C51	C	-0.395425	0.290264	0.278126
C52	C	0.104575	0.790264	0.778126
C53	C	-0.352363	0.262864	0.324952
C54	C	0.147637	0.762864	0.824952
C55	C	-0.266241	0.262663	0.418594
C56	C	0.233759	0.762663	0.918594
C57	C	-0.266247	0.208063	0.418597
C58	C	0.233753	0.708063	0.918597
C59	C	-0.309312	0.180862	0.371777
C60	C	0.190688	0.680862	0.871777
C61	C	-0.352370	0.208263	0.324955
C62	C	0.147630	0.708263	0.824955
C63	C	-0.438498	0.263061	0.231309
C64	C	0.061502	0.763061	0.731309
C65	C	-0.438505	0.208453	0.231321
C66	C	0.061495	0.708453	0.731321
C67	C	-0.395443	0.181053	0.278146
C68	C	0.104557	0.681053	0.778146
C69	C	-0.395440	0.126462	0.278138
C70	C	0.104560	0.626462	0.778138
N71	N	-0.352386	0.099058	0.324965
N72	N	0.147614	0.599058	0.824965
C73	C	-0.309322	0.126259	0.371785
C74	C	0.190678	0.626259	0.871785
C75	C	-0.395391	0.459540	0.278107
C76	C	0.104609	0.959540	0.778107
C77	C	-0.395378	0.514143	0.278095
C78	C	0.104622	1.014143	0.778095
C79	C	-0.309255	0.513940	0.371746
C80	C	0.190745	1.013940	0.871746
C81	C	-0.309265	0.459336	0.371754
C82	C	0.190735	0.959336	0.871754
C83	C	-0.352337	0.432136	0.324934
C84	C	0.147663	0.932136	0.824934
C85	C	-0.309338	0.011593	0.371786
C86	C	0.190662	0.511593	0.871786
C87	C	-0.309346	-0.043013	0.371783
C88	C	0.190654	0.456987	0.871783
C89	C	-0.395471	-0.042805	0.278135
C90	C	0.104529	0.457195	0.778135
C91	C	-0.395460	0.011796	0.278136
C92	C	0.104540	0.511796	0.778136
C93	C	-0.352392	0.038994	0.324967
C94	C	0.147608	0.538994	0.824967
O95	O	-0.432029	0.098266	0.238327
O96	O	0.067971	0.598266	0.738327
O97	O	-0.272714	0.097929	0.411615
O98	O	0.227286	0.597929	0.911615
C99	C	-0.534928	0.730022	0.317559
C100	C	-0.034928	1.230022	0.817559
C101	C	-0.613036	0.727810	0.314429
C102	C	-0.113036	1.227810	0.814429
C103	C	-1.052509	0.711908	0.292000
C104	C	-0.552509	1.211908	0.792000
C105	C	-0.979119	0.713987	0.294942
C106	C	-0.479119	1.213987	0.794942
C107	C	-0.944182	0.747045	0.341390
C108	C	-0.444182	1.247045	0.841390
C109	C	-0.982639	0.778020	0.384905
C110	C	-0.482639	1.278020	0.884905
C111	C	-1.056028	0.775938	0.381967
C112	C	-0.556028	1.275938	0.881967
C113	C	-0.724881	0.756704	0.355005
C114	C	-0.224881	1.256704	0.855005
C115	C	-0.651487	0.758785	0.357939
C116	C	-0.151487	1.258785	0.857939
C117	C	-0.647973	0.694751	0.267976
C118	C	-0.147973	1.194751	0.767976
C119	C	-0.721363	0.692674	0.265039
C120	C	-0.221363	1.192674	0.765039
C121	C	-0.759814	0.723647	0.308556
C122	C	-0.259814	1.223647	0.808556
N123	N	-0.869165	0.749172	0.344397
N124	N	-0.369165	1.249172	0.844397
N125	N	-0.834829	0.721517	0.305553
N126	N	-0.334829	1.221517	0.805553
C127	C	-0.169067	0.740618	0.332349
C128	C	0.330933	1.240618	0.832349
C129	C	-0.090961	0.742883	0.335510
C130	C	0.409039	1.242883	0.835510
C131	C	-0.359720	0.729613	0.508210
C132	C	0.140280	1.229613	1.008210
C133	C	-0.362859	0.727188	0.586312
C134	C	0.137141	1.227188	1.086312
C135	C	-0.352393	0.871674	0.324954
C136	C	0.147607	1.371674	0.824954
C137	C	-0.352410	0.929787	0.324963
C138	C	0.147590	1.429787	0.824963
C139	C	-0.319406	0.760787	0.624829
C140	C	0.180594	1.260787	1.124829
C141	C	-0.322352	0.758503	0.698214
C142	C	0.177648	1.258503	1.198214
C143	C	-0.368756	0.722621	0.733081
C144	C	0.131244	1.222621	1.233081
C145	C	-0.412211	0.689019	0.694558
C146	C	0.087789	1.189019	1.194558
C147	C	-0.409261	0.691302	0.621174
C148	C	0.090739	1.191302	1.121174
C149	C	-0.382396	0.712068	0.952359
C150	C	0.117604	1.212068	1.452359
C151	C	-0.385345	0.709789	1.025748
C152	C	0.114655	1.209789	1.525748
C153	C	-0.295485	0.779272	1.029399
C154	C	0.204515	1.279272	1.529399
C155	C	-0.292541	0.781554	0.956014
C156	C	0.207459	1.281554	1.456014
C157	C	-0.335993	0.747949	0.917498
C158	C	0.164007	1.247949	1.417498
N159	N	-0.371771	0.720287	0.808092
N160	N	0.128229	1.220287	1.308092
N161	N	-0.332975	0.750282	0.842488
N162	N	0.167025	1.250282	1.342488
C163	C	-0.345032	0.740965	1.142367
C164	C	0.154968	1.240965	1.642367
C165	C	-0.341892	0.743388	1.064265
C166	C	0.158108	1.243388	1.564265
H167	H	-0.231172	0.284804	0.456724
H168	H	0.268828	0.784804	0.956724
N169	N	-0.439437	0.039781	0.230289
N170	N	0.060563	0.539781	0.730289
N171	N	-0.477878	0.015486	0.188484
N172	N	0.022122	0.515486	0.688484
H173	H	-0.508940	0.035246	0.154693
H174	H	-0.008940	0.535246	0.654693
H175	H	-1.080949	0.684991	0.254174
H176	H	-0.580949	1.184991	0.754174
N177	N	-0.482490	0.180672	0.183482
N178	N	0.017510	0.680672	0.683482
N179	N	-0.455903	0.152302	0.139745
N180	N	0.044097	0.652302	0.639745
H181	H	-0.486965	0.132682	0.105957
H182	H	0.013035	0.632682	0.605957
N183	N	-0.946939	0.811784	0.432346
N184	N	-0.446939	1.311784	0.932346
N185	N	-0.904974	0.847043	0.409305
N186	N	-0.404974	1.347043	0.909305
H187	H	-0.879760	0.870889	0.442810
H188	H	-0.379760	1.370889	0.942810
H189	H	-0.430530	-0.064961	0.240013
H190	H	0.069470	0.435039	0.740013
H191	H	-0.444638	0.663937	0.589814
H192	H	0.055362	1.163937	1.089814
N193	N	-0.764165	0.788339	0.399446
N194	N	-0.264165	1.288339	0.899446
N195	N	-0.806914	0.767369	0.442561
N196	N	-0.306914	1.267369	0.942561
H197	H	-0.834664	0.789713	0.473948
H198	H	-0.334664	1.289713	0.973948
H199	H	-0.417788	0.684712	0.921007
H200	H	0.082212	1.184712	1.421007
N201	N	-0.939853	0.682342	0.250495
N202	N	-0.439853	1.182342	0.750495
N203	N	-0.971055	0.652830	0.209024
N204	N	-0.471055	1.152830	0.709024
H205	H	-0.943324	0.630478	0.177632
H206	H	-0.443324	1.130478	0.677632
N207	N	-0.277961	0.792827	0.737548
N208	N	0.222039	1.292827	1.237548
N209	N	-0.236536	0.824863	0.706409
N210	N	0.263464	1.324863	1.206409
H211	H	-0.205182	0.849107	0.734188
H212	H	0.294818	1.349107	1.234188
H213	H	-1.087334	0.801156	0.417403
H214	H	-0.587334	1.301156	0.917403
H215	H	-0.430435	0.536448	0.239958
H216	H	0.069565	1.036448	0.739958
N217	N	-0.251086	0.813583	1.068745
N218	N	0.248914	1.313583	1.568745
N219	N	-0.185914	0.812245	1.063172
N220	N	0.314086	1.312245	1.563172
H221	H	-0.154552	0.836476	1.090960
H222	H	0.345448	1.336476	1.590960
H223	H	-0.274267	0.033731	0.409921
H224	H	0.225733	0.533731	0.909921
N225	N	-0.432724	0.673126	1.061378
N226	N	0.067276	1.173126	1.561378
N227	N	-0.409611	0.639265	1.103322
N228	N	0.090389	1.139265	1.603322
H229	H	-0.443067	0.613372	1.128492
H230	H	0.056933	1.113372	1.628492
N231	N	-0.459603	0.652366	0.730182
N232	N	0.040397	1.152366	1.230182
N233	N	-0.462232	0.650333	0.795702
N234	N	0.037768	1.150333	1.295702
H235	H	-0.495704	0.624446	0.820862
H236	H	0.004296	1.124446	1.320862
N237	N	-0.482480	0.291040	0.183470
N238	N	0.017520	0.791040	0.683470
N239	N	-0.475120	0.287076	0.118832
N240	N	0.024880	0.787076	0.618832
H241	H	-0.506186	0.306835	0.085043
H242	H	-0.006186	0.806835	0.585043
N243	N	-0.265351	-0.070993	0.419619
N244	N	0.234649	0.429007	0.919619
N245	N	-0.226906	-0.046696	0.461420
N246	N	0.273094	0.453304	0.961420
H247	H	-0.195836	-0.066455	0.495205
H248	H	0.304164	0.433545	0.995205
N249	N	-0.757038	0.658890	0.217605
N250	N	-0.257038	1.158890	0.717605
N251	N	-0.722697	0.631226	0.178773
N252	N	-0.222697	1.131226	0.678773
H253	H	-0.747892	0.607361	0.145277
H254	H	-0.247892	1.107361	0.645277
H255	H	-0.616660	0.669533	0.232547
H256	H	-0.116660	1.169533	0.732547
N257	N	-0.615809	0.792559	0.405388
N258	N	-0.115809	1.292559	0.905388
N259	N	-0.650147	0.820213	0.444237
N260	N	-0.150147	1.320213	0.944237
H261	H	-0.624950	0.844067	0.477745
H262	H	-0.124950	1.344067	0.977745
N263	N	-0.272002	0.797432	0.589207
N264	N	0.227998	1.297432	1.089207
N265	N	-0.269370	0.799465	0.523686
N266	N	0.230630	1.299465	1.023686
H267	H	-0.235889	0.825345	0.498528
H268	H	0.264111	1.325345	0.998528
N269	N	-0.222247	0.180087	0.466425
N270	N	0.277753	0.680087	0.966425
N271	N	-0.183798	0.204388	0.508216
N272	N	0.316202	0.704388	1.008216
H273	H	-0.152717	0.184634	0.541996
H274	H	0.347283	0.684634	1.041996
N275	N	-0.265280	0.431357	0.419594
N276	N	0.234720	0.931357	0.919594
N277	N	-0.226837	0.455656	0.461393
N278	N	0.273163	0.955656	0.961393
H279	H	-0.195773	0.435899	0.495186
H280	H	0.304227	0.935899	0.995186
H281	H	-0.254756	0.810773	0.927631
H282	H	0.245244	1.310773	1.427631
H283	H	-0.274190	0.536096	0.409869
H284	H	0.225810	1.036096	0.909869
H285	H	-0.430464	0.437398	0.239975
H286	H	0.069536	0.937398	0.739975
