data_functionalizedCrystal
_audit_creation_method	'MofGen! by Chris Wilmer'
_symmetry_space_group_name_H-M	'P1'
_symmetry_Int_Tables_number	1
_symmetry_cell_setting	triclinic
loop_
_symmetry_equiv_pos_as_xyz
  x,y,z
_cell_length_a	15.538191
_cell_length_b	15.625429
_cell_length_c	14.586319
_cell_angle_alpha	71.919058
_cell_angle_beta	89.995179
_cell_angle_gamma	66.736792
loop_
_atom_site_label
_atom_site_type_symbol
_atom_site_fract_x
_atom_site_fract_y
_atom_site_fract_z
O1	O	1.249532	-0.292680	0.021037
O2	O	0.975408	-0.188629	-0.013549
O3	O	1.119794	-0.374288	0.048170
O4	O	1.105146	-0.107021	-0.040682
O5	O	1.119784	-0.374286	0.200651
O6	O	0.975398	-0.188628	0.138931
O7	O	1.249522	-0.292679	0.173518
Cu8	Cu	1.112459	-0.240653	0.170147
Cu9	Cu	1.112471	-0.240655	-0.010178
O10	O	1.105136	-0.107020	0.111799
C11	C	0.940321	-0.177742	0.059072
C12	C	0.835790	-0.145314	0.048294
C13	C	0.547583	-0.467471	0.155380
C14	C	0.449356	-0.436978	0.145242
C15	C	0.427135	-0.265461	0.088222
C16	C	0.525362	-0.295940	0.098359
C17	C	0.585578	-0.396946	0.131938
C18	C	0.563357	-0.225415	0.074917
C19	C	0.661575	-0.255892	0.085050
C20	C	0.721797	-0.356893	0.118624
C21	C	0.683796	-0.427423	0.142070
C22	C	0.503139	-0.124410	0.041333
C23	C	0.541134	-0.053885	0.017891
C24	C	0.639354	-0.084361	0.028029
C25	C	0.699576	-0.185363	0.061603
C26	C	0.677355	-0.013832	0.004583
C27	C	0.775573	-0.044308	0.014715
C28	C	0.797794	-0.215839	0.071736
C29	C	1.119126	-0.407657	0.135502
C30	C	1.117139	-0.507087	0.168552
C31	C	1.110605	-0.834094	-0.138307
C32	C	1.108734	-0.927521	-0.107224
C33	C	1.108723	-0.927506	0.058999
C34	C	1.110599	-0.834079	0.027931
C35	C	1.111539	-0.787380	-0.070724
C36	C	1.111533	-0.787365	0.095515
C37	C	1.113404	-0.693944	0.064448
C38	C	1.114341	-0.647237	-0.034203
C39	C	1.113410	-0.693959	-0.101790
C40	C	1.110587	-0.834063	0.194167
C41	C	1.111520	-0.787349	0.261751
C42	C	1.113398	-0.693929	0.230686
C43	C	1.114335	-0.647222	0.132035
C44	C	1.114329	-0.647207	0.298273
C45	C	1.116200	-0.553786	0.267206
C46	C	1.116206	-0.553801	0.100968
C47	C	1.284609	-0.303566	0.100894
C48	C	1.389140	-0.335993	0.111667
C49	C	1.105804	-0.073650	0.024464
C50	C	1.107791	0.025779	-0.008591
N51	N	1.112458	-0.240655	0.296980
N52	N	1.112480	-0.240662	-0.137008
C53	C	1.176413	-0.322851	0.559311
C54	C	1.176416	-0.322854	0.655293
C55	C	1.048518	-0.158461	0.600653
C56	C	1.048511	-0.158462	0.504673
C57	C	1.112464	-0.240657	0.484005
C58	C	1.112473	-0.240660	0.675967
C59	C	1.112476	-0.240663	0.780035
C60	C	1.112461	-0.240656	0.379931
H61	H	0.628313	0.068407	-0.022765
H62	H	1.107955	-0.965540	0.139323
C63	C	0.817371	0.033273	-0.011070
N64	N	0.848852	0.091709	-0.030494
H65	H	0.846827	-0.298088	0.099084
C66	C	0.829841	-0.390419	0.129771
N67	N	0.911219	-0.415669	0.138169
C68	C	0.750040	-0.538535	0.179012
N69	N	0.799935	-0.622221	0.206834
C70	C	1.117244	-0.502428	-0.007557
N71	N	1.118023	-0.463733	-0.089294
H72	H	0.996432	-0.091528	0.443353
C73	C	1.111644	-0.782721	-0.246832
N74	N	1.112423	-0.744026	-0.328570
C75	C	0.613827	-0.578583	0.192322
N76	N	0.663722	-0.662269	0.220143
H77	H	1.115854	-0.571163	-0.059498
C78	C	0.407566	-0.514570	0.171032
N79	N	0.376090	-0.573011	0.190456
H80	H	1.107965	-0.965548	-0.162268
C81	C	1.114448	-0.642586	-0.210315
N82	N	1.115227	-0.603891	-0.292053
H83	H	1.109053	-0.910128	0.219457
C84	C	1.110483	-0.838727	0.370268
N85	N	1.109703	-0.877425	0.452005
H86	H	0.378094	-0.183222	0.060878
H87	H	1.113554	-0.685240	0.378596
C88	C	1.117232	-0.502400	0.341553
N89	N	1.118008	-0.463695	0.397552
C90	C	1.246756	-0.413273	0.536581
N91	N	1.299737	-0.481384	0.519466
H92	H	0.996450	-0.091538	0.617491
C93	C	0.395096	-0.090887	0.030184
N94	N	0.313718	-0.065639	0.021787
C95	C	0.474886	0.057219	-0.019040
N96	N	0.424988	0.140904	-0.046852
C97	C	1.246757	-0.413278	0.738129
N98	N	1.299738	-0.481392	0.800522
