data_functionalizedCrystal
_audit_creation_method	'MofGen! by Chris Wilmer'
_symmetry_space_group_name_H-M	'P1'
_symmetry_Int_Tables_number	1
_symmetry_cell_setting	triclinic
loop_
_symmetry_equiv_pos_as_xyz
  x,y,z
_cell_length_a	14.519709
_cell_length_b	8.559649
_cell_length_c	13.596369
_cell_angle_alpha	89.998228
_cell_angle_beta	90.012081
_cell_angle_gamma	76.729405
loop_
_atom_site_label
_atom_site_type_symbol
_atom_site_fract_x
_atom_site_fract_y
_atom_site_fract_z
O1	O	-1.208821	-0.209416	0.081660
O2	O	-0.938574	-0.234077	0.081690
O3	O	-1.097507	0.010787	0.081671
O4	O	-1.049889	-0.454281	0.081679
O5	O	-1.097525	0.010801	-0.081912
O6	O	-0.938593	-0.234064	-0.081893
O7	O	-1.208840	-0.209403	-0.081923
Zn8	Zn	-1.073719	-0.221731	-0.107880
Zn9	Zn	-1.073695	-0.221749	0.107647
O10	O	-1.049907	-0.454267	-0.081904
C11	C	-0.904306	-0.232921	-0.000098
C12	C	-0.802172	-0.229477	-0.000087
C13	C	-1.101125	0.070313	-0.000119
C14	C	-1.111866	0.247663	-0.000114
C15	C	-1.243108	-0.210559	-0.000133
C16	C	-1.345242	-0.214003	-0.000138
C17	C	-0.428186	-0.216798	-0.000131
C18	C	-0.532242	-0.220319	-0.000119
C19	C	-0.615176	-0.223137	-0.000108
C20	C	-0.719238	-0.226659	-0.000097
C21	C	-1.046289	-0.513793	-0.000112
C22	C	-1.035548	-0.691143	-0.000110
N23	N	-1.073742	-0.221718	-0.254972
N24	N	-1.073680	-0.221749	0.254739
C25	C	-1.073683	-0.221751	0.343737
C26	C	-1.073696	-0.221747	0.455388
C27	C	-1.073713	-0.221736	0.544379
C28	C	-1.073726	-0.221729	0.656037
H29	H	-0.961991	0.225570	-0.000105
H30	H	-1.185428	0.330959	-0.000130
