data_functionalizedCrystal
_audit_creation_method	'MofGen! by Chris Wilmer'
_symmetry_space_group_name_H-M	'P1'
_symmetry_Int_Tables_number	1
_symmetry_cell_setting	triclinic
loop_
_symmetry_equiv_pos_as_xyz
  x,y,z
_cell_length_a	21.295420
_cell_length_b	13.897448
_cell_length_c	13.897441
_cell_angle_alpha	89.969401
_cell_angle_beta	90.021942
_cell_angle_gamma	89.986526
loop_
_atom_site_label
_atom_site_type_symbol
_atom_site_fract_x
_atom_site_fract_y
_atom_site_fract_z
Zn1	Zn	0.962395	0.384093	0.545412
Zn2	Zn	1.462395	0.884093	1.045412
Zn3	Zn	0.962326	0.545414	0.384114
Zn4	Zn	1.462326	1.045414	0.884114
Zn5	Zn	0.857123	0.384123	0.384127
Zn6	Zn	1.357123	0.884123	0.884127
Zn7	Zn	0.857111	0.545336	0.545363
Zn8	Zn	1.357111	1.045336	1.045363
O9	O	0.909739	0.464741	0.464754
O10	O	1.409739	0.964741	0.964754
O11	O	1.050475	0.405513	0.524031
O12	O	1.550475	0.905513	1.024031
O13	O	0.948346	0.524064	0.249134
O14	O	1.448346	1.024064	0.749134
O15	O	0.871122	0.249137	0.405548
O16	O	1.371122	0.749137	0.905548
O17	O	1.050424	0.524035	0.405525
O18	O	1.550424	1.024035	0.905525
O19	O	0.948464	0.249115	0.524044
O20	O	1.448464	0.749115	1.024044
O21	O	0.871054	0.405564	0.249144
O22	O	1.371054	0.905564	0.749144
O23	O	0.769032	0.405488	0.405500
O24	O	1.269032	0.905488	0.905500
O25	O	0.871101	0.523901	0.680351
O26	O	1.371101	1.023901	1.180351
O27	O	0.769023	0.523930	0.523960
O28	O	1.269023	1.023930	1.023960
O29	O	0.948453	0.405436	0.680387
O30	O	1.448453	0.905436	1.180387
O31	O	0.948335	0.680386	0.405477
O32	O	1.448335	1.180386	0.905477
O33	O	0.871034	0.680328	0.523946
O34	O	1.371034	1.180328	1.023946
C35	C	0.746187	0.464705	0.464727
C36	C	1.246187	0.964705	0.964727
C37	C	0.676219	0.464712	0.464738
C38	C	1.176219	0.964712	0.964738
C39	C	0.909783	0.464656	0.716347
C40	C	1.409783	0.964656	1.216347
C41	C	0.909802	0.464620	0.823561
C42	C	1.409802	0.964620	1.323561
C43	C	0.909693	0.715356	0.464726
C44	C	1.409693	1.215356	0.964726
C45	C	0.909731	0.822570	0.464746
C46	C	1.409731	1.322570	0.964746
C47	C	0.176787	0.403172	0.526574
C48	C	0.676787	0.903172	1.026574
C49	C	0.242529	0.403165	0.526574
C50	C	0.742529	0.903165	1.026574
C51	C	0.275380	0.464771	0.464776
C52	C	0.775380	0.964771	0.964776
C53	C	0.242482	0.526406	0.402991
C54	C	0.742482	1.026406	0.902991
C55	C	0.176741	0.526418	0.403000
C56	C	0.676741	1.026418	0.903000
N57	N	0.378573	0.472049	0.380316
N58	N	0.878573	0.972049	0.880316
N59	N	0.441024	0.472032	0.380310
N60	N	0.941024	0.972032	0.880310
C61	C	0.473454	0.464739	0.464748
C62	C	0.973454	0.964739	0.964748
N63	N	0.441073	0.457445	0.549193
N64	N	0.941073	0.957445	1.049193
N65	N	0.378616	0.457458	0.549198
N66	N	0.878616	0.957458	1.049198
C67	C	0.346665	0.464765	0.464761
C68	C	0.846665	0.964765	0.964761
C69	C	0.577630	0.403105	0.526534
C70	C	1.077630	0.903105	1.026534
C71	C	0.643373	0.403105	0.526535
C72	C	1.143373	0.903105	1.026535
C73	C	0.643325	0.526340	0.402944
C74	C	1.143325	1.026340	0.902944
C75	C	0.577582	0.526346	0.402951
C76	C	1.077582	1.026346	0.902951
C77	C	0.544739	0.464723	0.464745
C78	C	1.044739	0.964723	0.964745
C79	C	1.073929	0.464779	0.464782
C80	C	1.573929	0.964779	0.964782
C81	C	1.143897	0.464795	0.464794
C82	C	1.643897	0.964795	0.964794
C83	C	0.909802	0.213148	0.464803
C84	C	1.409802	0.713148	0.964803
C85	C	0.909829	0.105935	0.464824
C86	C	1.409829	0.605935	0.964824
C87	C	0.909797	1.018865	0.464807
C88	C	1.409797	1.518865	0.964807
C89	C	0.909758	0.909632	0.464776
C90	C	1.409758	1.409632	0.964776
C91	C	0.909730	0.464757	0.214140
C92	C	1.409730	0.964757	0.714140
C93	C	0.909833	0.464521	0.106926
C94	C	1.409833	0.964521	0.606926
C95	C	0.909819	0.464555	1.019856
C96	C	1.409819	0.964555	1.519856
C97	C	0.909808	0.464594	0.910624
C98	C	1.409808	0.964594	1.410624
H99	H	0.150050	0.352998	0.576896
H100	H	0.650050	0.852998	1.076896
C101	C	0.278715	0.335362	0.594527
C102	C	0.778715	0.835362	1.094527
C103	C	0.323899	0.259581	0.552830
C104	C	0.823899	0.759581	1.052830
C105	C	0.360081	0.191774	0.620778
C106	C	0.860081	0.691774	1.120778
C107	C	0.351080	0.199747	0.730425
C108	C	0.851080	0.699747	1.230425
C109	C	0.305894	0.275531	0.772128
C110	C	0.805894	0.775531	1.272128
C111	C	0.269712	0.343339	0.704179
C112	C	0.769712	0.843339	1.204179
H113	H	0.330564	0.253676	0.471658
H114	H	0.830564	0.753676	0.971658
H115	H	0.393530	0.135673	0.589906
H116	H	0.893530	0.635673	1.089906
H117	H	0.377864	0.149552	0.780724
H118	H	0.877864	0.649552	1.280724
H119	H	0.299229	0.281437	0.853300
H120	H	0.799229	0.781437	1.353300
H121	H	0.236263	0.399439	0.735051
H122	H	0.736263	0.899439	1.235051
H123	H	0.149962	0.576601	0.352690
H124	H	0.649962	1.076601	0.852690
H125	H	0.670151	0.352927	0.576852
H126	H	1.170151	0.852927	1.076852
H127	H	0.550887	0.352928	0.576850
H128	H	1.050887	0.852928	1.076850
C129	C	0.278614	0.594172	0.335011
C130	C	0.778614	1.094172	0.835011
C131	C	0.350927	0.594158	0.334994
C132	C	0.850927	1.094158	0.834994
C133	C	0.387058	0.661931	0.267016
C134	C	0.887058	1.161931	0.767016
C135	C	0.350876	0.729718	0.199054
C136	C	0.850876	1.229718	0.699054
C137	C	0.278559	0.729735	0.199069
C138	C	0.778559	1.229735	0.699069
C139	C	0.242428	0.661962	0.267048
C140	C	0.742428	1.161962	0.767048
H141	H	0.377714	0.543975	0.385306
H142	H	0.877714	1.043975	0.885306
H143	H	0.440592	0.661918	0.267005
H144	H	0.940592	1.161918	0.767005
H145	H	0.377622	0.779888	0.148732
H146	H	0.877622	1.279888	0.648732
H147	H	0.251772	0.779918	0.148758
H148	H	0.751772	1.279918	0.648758
H149	H	0.188894	0.661975	0.267058
H150	H	0.688894	1.161975	0.767058
H151	H	0.670070	0.576508	0.352634
H152	H	1.170070	1.076508	0.852634
H153	H	0.550803	0.576522	0.352638
H154	H	1.050803	1.076522	0.852638
