data_functionalizedCrystal
_audit_creation_method	'MofGen! by Chris Wilmer'
_symmetry_space_group_name_H-M	'P1'
_symmetry_Int_Tables_number	1
_symmetry_cell_setting	triclinic
loop_
_symmetry_equiv_pos_as_xyz
  x,y,z
_cell_length_a	15.297475
_cell_length_b	21.295417
_cell_length_c	15.296720
_cell_angle_alpha	80.360665
_cell_angle_beta	88.382886
_cell_angle_gamma	80.331503
loop_
_atom_site_label
_atom_site_type_symbol
_atom_site_fract_x
_atom_site_fract_y
_atom_site_fract_z
Zn1	Zn	1.253322	-0.489899	0.726527
Zn2	Zn	1.278570	-0.580539	0.580029
Zn3	Zn	1.132206	-0.454537	0.554773
Zn4	Zn	1.106797	-0.574351	0.701159
O5	O	1.192724	-0.524831	0.640622
O6	O	1.379247	-0.519311	0.728280
O7	O	1.280354	-0.551615	0.454106
O8	O	1.148339	-0.371152	0.577603
O9	O	1.397796	-0.585904	0.620649
O10	O	1.237323	-0.397133	0.703790
O11	O	1.172821	-0.459042	0.435550
O12	O	1.006260	-0.453042	0.553004
O13	O	1.105034	-0.575358	0.827097
O14	O	0.987593	-0.541069	0.660554
O15	O	1.212686	-0.513312	0.845734
O16	O	1.255717	-0.667793	0.596050
O17	O	1.129516	-0.663248	0.685044
C18	C	0.965144	-0.492547	0.601286
C19	C	0.867781	-0.478753	0.584479
C20	C	0.554611	-0.623425	0.760748
C21	C	0.646089	-0.636390	0.776537
C22	C	0.701516	-0.596982	0.728524
C23	C	0.665457	-0.544607	0.664719
C24	C	0.573971	-0.531644	0.648924
C25	C	0.720876	-0.505200	0.616700
C26	C	0.684816	-0.452825	0.552895
C27	C	0.593339	-0.439865	0.537103
C28	C	0.537912	-0.479273	0.585116
C29	C	0.812362	-0.518163	0.632495
C30	C	0.831721	-0.426382	0.520671
C31	C	0.740243	-0.413417	0.504882
C32	C	1.192620	-0.688363	0.640558
C33	C	1.192651	-0.758337	0.640574
C34	C	1.238945	-0.804673	0.706314
C35	C	1.238973	-0.870423	0.706341
C36	C	1.192717	-0.889832	0.640614
C37	C	1.146412	-0.843485	0.574868
C38	C	1.146379	-0.777737	0.574848
N39	N	1.199377	-0.984508	0.562817
N40	N	1.199413	-1.046967	0.562840
C41	C	1.192812	-1.087925	0.640671
N42	N	1.186191	-1.064068	0.718484
N43	N	1.186159	-1.001604	0.718462
C44	C	1.192747	-0.961123	0.640629
C45	C	1.239139	-1.205555	0.706446
C46	C	1.239159	-1.271305	0.706473
C47	C	1.146605	-1.244366	0.574993
C48	C	1.146578	-1.178618	0.574973
C49	C	1.192850	-1.159217	0.640699
C50	C	1.421192	-0.557242	0.680112
C51	C	1.518552	-0.571054	0.696940
C52	C	1.153209	-0.547589	0.869086
C53	C	1.136371	-0.557287	0.966444
C54	C	1.192849	-0.360667	0.640709
C55	C	1.192902	-0.290710	0.640746
C56	C	1.232135	-0.502124	0.413055
C57	C	1.249143	-0.492273	0.315727
C58	C	1.313105	-0.455413	1.279696
C59	C	1.328932	-0.446303	1.188224
C60	C	1.280793	-0.474048	1.132775
C61	C	1.216825	-0.510905	1.168805
C62	C	1.201002	-0.520020	1.260287
C63	C	1.168689	-0.538655	1.113366
C64	C	1.104721	-0.575512	1.149396
C65	C	1.088901	-0.584625	1.240869
C66	C	1.137040	-0.556880	1.296318
C67	C	1.184512	-0.529540	1.021884
C68	C	1.072409	-0.594147	1.002475
C69	C	1.056583	-0.603257	1.093947
H70	H	0.463421	-0.468719	0.572266
H71	H	0.675443	-0.679034	0.828485
H72	H	1.004499	-0.633266	1.123296
N73	N	1.297838	-0.464215	1.034112
H74	H	1.317709	-0.507477	1.014826
H75	H	1.345641	-0.436631	1.019762
H76	H	1.033212	-0.616741	0.957328
H77	H	0.776001	-0.607540	0.741383
N78	N	0.891484	-0.383868	0.468876
H79	H	0.936452	-0.410727	0.434769
H80	H	0.923229	-0.363676	0.511157
N81	N	1.019917	-0.624382	1.279738
H82	H	1.036238	-0.669695	1.266142
H83	H	0.960119	-0.604090	1.252993
H84	H	0.710870	-0.370773	0.452931
N85	N	1.096721	-1.265293	0.504097
H86	H	1.067391	-1.225959	0.462443
H87	H	1.050007	-1.290383	0.532713
N88	N	0.494834	-0.665930	0.812518
H89	H	0.431412	-0.649772	0.792826
H90	H	0.500011	-0.664709	0.877866
N91	N	0.554445	-0.383372	0.468293
H92	H	0.488082	-0.381139	0.465574
H93	H	0.581238	-0.389121	0.408465
N94	N	1.288844	-0.783747	0.777206
H95	H	1.318173	-0.823083	0.818858
H96	H	1.246133	-0.755455	0.811536
H97	H	1.381016	-0.416296	1.158895
N98	N	1.288907	-0.920412	0.777248
H99	H	1.318214	-0.898144	0.818882
H100	H	1.335643	-0.949876	0.748637
N101	N	1.096522	-0.864414	0.503975
H102	H	1.103571	-0.913097	0.513960
H103	H	1.121020	-0.848640	0.443793
N104	N	1.365028	-0.425497	1.339499
H105	H	1.345298	-0.436866	1.402915
H106	H	1.354198	-0.377019	1.321185
H107	H	0.841712	-0.560807	0.684446
H108	H	1.108885	-1.140887	0.521438
H109	H	1.108679	-0.740007	0.521314
N110	N	1.253504	-0.489793	0.983027
H111	H	1.237186	-0.444478	0.996619
H112	H	1.256194	-0.488282	0.916676
H113	H	1.276813	-1.189759	0.759966
H114	H	1.124158	-0.564295	1.370803
H115	H	1.276857	-1.309033	0.760011
