data_functionalizedCrystal
_audit_creation_method	'MofGen! by Chris Wilmer'
_symmetry_space_group_name_H-M	'P1'
_symmetry_Int_Tables_number	1
_symmetry_cell_setting	triclinic
loop_
_symmetry_equiv_pos_as_xyz
  x,y,z
_cell_length_a	8.559649
_cell_length_b	19.188930
_cell_length_c	7.088929
_cell_angle_alpha	83.792352
_cell_angle_beta	95.325015
_cell_angle_gamma	76.461723
loop_
_atom_site_label
_atom_site_type_symbol
_atom_site_fract_x
_atom_site_fract_y
_atom_site_fract_z
O1	O	2.103838	-0.015637	-0.158953
O2	O	1.638380	0.020435	-0.158972
O3	O	1.884545	-0.099961	-0.158924
O4	O	1.857673	0.104759	-0.159000
O5	O	1.917443	-0.116083	0.159057
O6	O	1.671278	0.004313	0.159009
O7	O	2.136736	-0.031759	0.159029
Cu8	Cu	1.907011	-0.015195	0.188053
Cu9	Cu	1.868105	0.003871	-0.187997
O10	O	1.890571	0.088637	0.158981
C11	C	1.595280	0.015108	0.000017
C12	C	1.417842	0.023245	0.000011
C13	C	1.900125	-0.133987	0.000072
C14	C	1.897515	-0.211356	0.000088
C15	C	2.041955	-0.263833	0.000103
C16	C	2.039498	-0.336527	0.000073
C17	C	1.892597	-0.356742	0.000065
C18	C	1.748137	-0.304254	0.000039
C19	C	1.750596	-0.231561	0.000050
N20	N	1.791505	-0.464363	0.108275
N21	N	1.789179	-0.533419	0.108268
C22	C	1.885180	-0.575761	0.000026
N23	N	1.983621	-0.546442	-0.108185
N24	N	1.985952	-0.477380	-0.108170
C25	C	1.889915	-0.435564	0.000051
C26	C	2.026966	-0.707062	0.000005
C27	C	2.024502	-0.779756	-0.000037
C28	C	1.733139	-0.747483	-0.000052
C29	C	1.735605	-0.674789	-0.000028
C30	C	1.882524	-0.654585	0.000009
C31	C	2.179836	-0.026431	0.000036
C32	C	2.357272	-0.034568	0.000029
C33	C	1.874991	0.122664	-0.000019
C34	C	1.877599	0.200034	-0.000048
N35	N	1.934386	-0.028606	0.452547
N36	N	1.840742	0.017276	-0.452490
H37	H	1.441159	-0.090289	0.000040
H38	H	2.031455	-0.076153	0.534222
O39	O	1.725150	0.074029	0.449888
C40	C	1.798694	0.118323	0.334105
H41	H	1.920832	0.085260	0.304302
H42	H	1.717449	0.140058	0.193269
H43	H	1.817271	0.165466	0.411115
O44	O	2.179736	-0.387525	-0.000238
C45	C	2.169992	-0.422196	-0.164897
H46	H	2.076175	-0.385289	-0.280023
H47	H	2.293097	-0.434493	-0.220145
H48	H	2.132826	-0.474839	-0.127673
O49	O	2.164744	-0.830743	-0.000369
C50	C	2.154998	-0.865404	-0.165046
H51	H	2.061167	-0.828496	-0.280154
H52	H	2.278098	-0.877690	-0.220308
H53	H	2.117850	-0.918054	-0.127839
O54	O	1.317985	0.089784	-0.000103
C55	C	1.409930	0.141898	-0.000067
H56	H	1.528297	0.120610	-0.060251
H57	H	1.338457	0.193985	-0.092405
H58	H	1.437384	0.153242	0.152480
H59	H	1.613528	-0.763940	-0.000067
O60	O	2.184673	-0.244227	-0.000215
C61	C	2.255680	-0.263466	-0.164869
H62	H	2.157858	-0.268162	-0.279986
H63	H	2.317667	-0.220176	-0.220137
H64	H	2.348929	-0.317614	-0.127632
O65	O	1.605511	-0.323963	-0.000220
C66	C	1.578320	-0.356672	-0.164933
H67	H	1.698755	-0.378784	-0.219827
H68	H	1.518769	-0.402842	-0.127903
H69	H	1.495449	-0.314841	-0.280256
H70	H	1.632971	-0.188832	0.000039
O71	O	2.169544	-0.687325	-0.000238
C72	C	2.162650	-0.637891	-0.164935
H73	H	2.030854	-0.610206	-0.219836
H74	H	2.229862	-0.595481	-0.127881
H75	H	2.221659	-0.668010	-0.280262
H76	H	1.617987	-0.632061	-0.000030
