data_functionalizedCrystal
_audit_creation_method	'MofGen! by Chris Wilmer'
_symmetry_space_group_name_H-M	'P1'
_symmetry_Int_Tables_number	1
_symmetry_cell_setting	triclinic
loop_
_symmetry_equiv_pos_as_xyz
  x,y,z
_cell_length_a	17.699083
_cell_length_b	9.065218
_cell_length_c	8.140239
_cell_angle_alpha	90.001686
_cell_angle_beta	89.996260
_cell_angle_gamma	84.149450
loop_
_atom_site_label
_atom_site_type_symbol
_atom_site_fract_x
_atom_site_fract_y
_atom_site_fract_z
O1	O	-1.005529	-0.186555	-0.136360
O2	O	-0.785340	-0.210827	-0.136416
O3	O	-0.899986	0.016086	-0.136384
O4	O	-0.890883	-0.413468	-0.136393
O5	O	-0.899979	0.016089	0.136843
O6	O	-0.785333	-0.210824	0.136811
O7	O	-1.005522	-0.186553	0.136867
Zn8	Zn	-0.895427	-0.198688	0.180220
Zn9	Zn	-0.895435	-0.198691	-0.179769
O10	O	-0.890877	-0.413466	0.136834
C11	C	-0.757133	-0.209956	0.000190
C12	C	-0.673094	-0.207347	0.000168
C13	C	-0.625512	-0.340540	0.000165
C14	C	-0.546550	-0.338080	0.000185
C15	C	-0.515171	-0.202425	0.000196
C16	C	-0.562759	-0.069221	0.000204
C17	C	-0.641720	-0.071683	0.000196
C18	C	-0.244319	-0.059289	0.000240
C19	C	-0.165352	-0.056838	0.000243
C20	C	-0.149148	-0.325686	0.000229
C21	C	-0.228109	-0.328148	0.000221
C22	C	-0.275691	-0.194946	0.000237
C23	C	-0.361311	-0.197615	0.000219
C24	C	-0.429552	-0.199754	0.000203
N25	N	-0.895427	-0.198685	0.425902
C26	C	-0.899108	0.071048	0.000227
C27	C	-0.896492	0.234814	0.000218
C28	C	-0.033729	-0.187423	0.000253
C29	C	-0.117768	-0.190033	0.000252
C30	C	-0.891755	-0.468428	0.000220
C31	C	-0.894370	-0.632193	0.000218
N32	N	-0.895441	-0.198683	-0.425451
H33	H	-0.651054	-0.451006	0.000155
C34	C	-0.494212	-0.484603	0.000211
N35	N	-0.454792	-0.594972	0.000243
C36	C	-0.262621	-0.477379	0.000218
N37	N	-0.288614	-0.589783	0.000228
C38	C	-0.694061	0.074840	0.000194
N39	N	-0.733483	0.185206	0.000197
C40	C	-0.528240	0.080002	0.000220
N41	N	-0.502241	0.192399	0.000225
H42	H	-0.110397	-0.434146	0.000224
H43	H	-0.139807	0.053635	0.000255
H44	H	-0.283051	0.049173	0.000255
