data_functionalizedCrystal
_audit_creation_method	'MofGen! by Chris Wilmer'
_symmetry_space_group_name_H-M	'P1'
_symmetry_Int_Tables_number	1
_symmetry_cell_setting	triclinic
loop_
_symmetry_equiv_pos_as_xyz
  x,y,z
_cell_length_a	15.995350
_cell_length_b	15.995292
_cell_length_c	15.072220
_cell_angle_alpha	90.002061
_cell_angle_beta	89.991149
_cell_angle_gamma	83.480495
loop_
_atom_site_label
_atom_site_type_symbol
_atom_site_fract_x
_atom_site_fract_y
_atom_site_fract_z
O1	O	1.110973	0.107924	-0.073701
O2	O	0.867195	0.121252	-0.073718
O3	O	0.995774	-0.007303	-0.073711
O4	O	0.982395	0.236479	-0.073709
O5	O	0.995742	-0.007296	0.073855
O6	O	0.867164	0.121259	0.073847
O7	O	1.110942	0.107931	0.073864
Zn8	Zn	0.989048	0.114596	0.097285
Zn9	Zn	0.989089	0.114587	-0.097139
O10	O	0.982363	0.236486	0.073856
C11	C	0.835985	0.120704	0.000062
C12	C	0.743035	0.119053	0.000055
C13	C	0.405288	0.113120	0.000073
C14	C	0.452742	0.021566	0.000402
C15	C	0.549431	0.023218	0.000063
C16	C	0.572848	0.116063	0.000065
C17	C	0.531770	0.161216	-0.084198
C18	C	0.435135	0.158916	-0.084263
C19	C	0.434759	0.160816	0.083546
C20	C	0.531705	0.160795	0.084654
C21	C	0.667546	0.117731	0.000057
C22	C	0.310591	0.111455	0.000075
C23	C	0.995213	-0.038495	0.000070
C24	C	0.993581	-0.131448	0.000063
C25	C	0.987580	-0.469186	0.000071
C26	C	1.080384	-0.445874	0.000407
C27	C	1.082148	-0.349199	0.000071
C28	C	0.990557	-0.301631	0.000067
C29	C	0.944178	-0.330736	-0.084200
C30	C	0.943061	-0.427526	-0.084268
C31	C	0.941129	-0.427375	0.083541
C32	C	0.944568	-0.330883	0.084652
C33	C	0.992235	-0.206934	0.000062
C34	C	0.985899	-0.563882	0.000069
C35	C	1.142152	0.108479	0.000082
C36	C	1.235102	0.110130	0.000083
C37	C	0.982924	0.267678	0.000074
C38	C	0.984556	0.360631	0.000075
N39	N	0.989025	0.114602	0.229973
N40	N	0.989118	0.114574	-0.229828
C41	C	0.989088	0.114584	0.589175
C42	C	0.920057	0.183140	0.551564
C43	C	0.920215	0.183390	0.448738
C44	C	0.989056	0.114593	0.410971
C45	C	1.076417	0.133675	0.448269
C46	C	1.076030	0.134162	0.551127
C47	C	0.971537	0.026742	0.551273
C48	C	0.969532	0.027328	0.448409
C49	C	0.989043	0.114596	0.310257
C50	C	0.989106	0.114582	0.689888
H51	H	0.434214	-0.015028	0.060830
H52	H	1.118472	-0.330170	0.060476
H53	H	0.877715	-0.297913	0.089738
H54	H	0.931421	0.248576	0.424126
N55	N	0.412173	0.117589	-0.163267
N56	N	0.336787	0.108415	-0.177596
H57	H	0.320573	0.079223	-0.233393
N58	N	0.859635	-0.290742	-0.088135
N59	N	0.845929	-0.212315	-0.091854
H60	H	0.786220	-0.184066	-0.094630
N61	N	0.567418	0.121883	-0.162865
N62	N	0.623064	0.060605	-0.157089
H63	H	0.648249	0.032828	-0.212645
N64	N	0.565925	0.119418	0.162858
N65	N	0.518638	0.087553	0.216067
H66	H	0.542806	0.058319	0.271295
H67	H	1.129011	0.085070	0.423803
N68	N	0.838753	0.169152	0.417083
N69	N	0.824931	0.166909	0.335543
H70	H	0.767393	0.156858	0.313189
H71	H	0.547054	0.228500	0.089745
H72	H	0.872818	-0.441366	0.084106
H73	H	1.091499	0.198225	0.575110
H74	H	1.129001	0.086198	0.576005
H75	H	0.854910	0.171958	0.576320
N76	N	0.585105	-0.021306	0.075832
N77	N	0.625324	0.015759	0.131752
H78	H	0.650516	-0.015691	0.185265
N79	N	1.034669	-0.037276	0.581786
N80	N	1.032135	-0.112089	0.559012
H81	H	1.076723	-0.157297	0.580566
H82	H	0.414216	0.130888	0.147416
N83	N	1.096282	0.213123	0.415937
N84	N	1.046246	0.255821	0.365437
H85	H	1.060271	0.311934	0.342603
H86	H	0.931108	0.247959	0.577404
H87	H	0.976411	-0.310678	-0.146908
N88	N	0.893337	0.003750	0.583841
N89	N	0.849588	0.051832	0.635389
H90	H	0.794353	0.035606	0.658388
N91	N	0.394896	0.245496	0.084254
N92	N	0.344986	0.270707	0.023614
H93	H	0.316828	0.330509	0.024106
N94	N	0.857710	-0.445802	-0.089094
N95	N	0.841682	-0.520484	-0.090010
H96	H	0.781405	-0.533391	-0.093426
H97	H	0.978340	-0.312314	0.146992
H98	H	0.402873	0.226134	-0.088086
N99	N	1.125238	-0.481000	0.076218
N100	N	1.089336	-0.523630	0.130885
H101	H	1.121015	-0.548445	0.184428
H102	H	0.545881	0.229427	-0.087331
H103	H	0.905268	0.012846	0.424032
N104	N	1.128018	-0.326093	-0.075826
N105	N	1.192570	-0.289754	-0.065956
H106	H	1.224967	-0.273436	-0.119562
H107	H	0.970342	-0.455461	0.147416
N108	N	1.028524	-0.039660	0.416165
N109	N	1.105206	-0.039881	0.432264
H110	H	1.146879	-0.087188	0.409492
N111	N	0.428173	-0.024135	-0.074981
N112	N	0.375867	0.010430	-0.128947
H113	H	0.358513	-0.021844	-0.182188
H114	H	0.577310	-0.012521	-0.060446
H115	H	1.115969	-0.474895	-0.059681
H116	H	0.975207	-0.454346	-0.147256
