data_functionalizedCrystal
_audit_creation_method	'MofGen! by Chris Wilmer'
_symmetry_space_group_name_H-M	'P1'
_symmetry_Int_Tables_number	1
_symmetry_cell_setting	triclinic
loop_
_symmetry_equiv_pos_as_xyz
  x,y,z
_cell_length_a	17.077404
_cell_length_b	21.295417
_cell_length_c	17.077396
_cell_angle_alpha	89.967856
_cell_angle_beta	89.980499
_cell_angle_gamma	90.029927
loop_
_atom_site_label
_atom_site_type_symbol
_atom_site_fract_x
_atom_site_fract_y
_atom_site_fract_z
Zn1	Zn	1.200017	-0.250605	-0.443823
Zn2	Zn	1.199909	-0.355878	-0.312548
Zn3	Zn	1.068749	-0.250628	-0.312571
Zn4	Zn	1.068702	-0.355841	-0.443772
O5	O	1.134344	-0.303238	-0.378178
O6	O	1.309850	-0.264577	-0.426421
O7	O	1.182485	-0.341942	-0.202704
O8	O	1.086228	-0.162535	-0.330012
O9	O	1.309770	-0.341920	-0.329974
O10	O	1.182670	-0.162519	-0.426442
O11	O	1.086122	-0.264614	-0.202721
O12	O	0.958896	-0.264578	-0.329963
O13	O	1.086146	-0.341856	-0.553626
O14	O	0.958861	-0.341878	-0.426356
O15	O	1.182624	-0.264540	-0.553663
O16	O	1.182439	-0.443963	-0.329925
O17	O	1.086041	-0.443935	-0.426334
C18	C	0.930396	-0.303227	-0.378157
C19	C	0.843147	-0.303237	-0.378166
C20	C	0.802159	-0.343548	-0.428277
C21	C	0.720178	-0.343549	-0.428290
C22	C	0.679187	-0.303242	-0.378187
C23	C	0.720181	-0.262927	-0.328073
C24	C	0.802160	-0.262923	-0.328065
C25	C	0.549311	-0.262940	-0.328092
C26	C	0.467326	-0.262944	-0.328099
C27	C	0.467329	-0.343566	-0.428317
C28	C	0.549308	-0.343562	-0.428309
C29	C	0.590296	-0.303247	-0.378194
C30	C	1.134244	-0.466790	-0.378139
C31	C	1.134273	-0.536758	-0.378148
C32	C	1.184462	-0.569559	-0.428395
C33	C	1.184490	-0.635301	-0.428414
C34	C	1.134337	-0.668240	-0.378173
C35	C	1.084138	-0.635431	-0.327922
C36	C	1.084107	-0.569690	-0.327910
N37	N	1.128408	-0.771504	-0.309474
N38	N	1.128443	-0.833955	-0.309488
C39	C	1.134429	-0.866315	-0.378208
N40	N	1.140394	-0.833864	-0.446915
N41	N	1.140363	-0.771407	-0.446900
C42	C	1.134366	-0.739526	-0.378181
C43	C	1.184650	-0.970402	-0.428480
C44	C	1.184672	-1.036145	-0.428501
C45	C	1.084325	-1.036274	-0.328002
C46	C	1.084299	-0.970532	-0.327988
C47	C	1.134465	-0.937599	-0.378226
C48	C	1.339089	-0.303250	-0.378201
C49	C	1.426338	-0.303255	-0.378210
C50	C	1.134392	-0.303192	-0.582923
C51	C	1.134412	-0.303172	-0.670173
C52	C	1.134466	-0.139048	-0.378235
C53	C	1.134518	-0.069080	-0.378260
C54	C	1.184650	-0.262910	-0.711183
C55	C	1.184659	-0.262889	-0.793164
C56	C	1.134434	-0.303134	-0.834132
C57	C	1.084191	-0.343397	-0.793116
C58	C	1.084178	-0.343415	-0.711137
C59	C	1.084223	-0.343360	-0.963986
C60	C	1.084237	-0.343343	-1.045970
C61	C	1.184703	-0.262834	-1.046013
C62	C	1.184691	-0.262851	-0.964034
C63	C	1.134448	-0.303116	-0.923023
C64	C	1.134342	-0.303239	-0.174231
C65	C	1.134474	-0.303081	-0.086981
H66	H	0.835531	-0.230095	-0.287263
H67	H	0.686799	-0.230106	-0.287282
H68	H	0.686810	-0.376375	-0.469095
Cl69	Cl	1.247866	-0.212216	-1.097569
Cl70	Cl	1.021018	-0.394030	-0.659580
H71	H	1.043298	-0.376137	-0.930597
Cl72	Cl	1.247797	-0.212317	-0.659689
H73	H	1.043485	-1.063092	-0.287099
Cl74	Cl	1.247836	-0.212261	-0.912532
H75	H	0.835528	-0.376372	-0.469075
Cl76	Cl	1.021087	-0.393930	-1.097472
H77	H	1.043302	-0.662255	-0.287017
Cl78	Cl	1.021201	-0.929294	-0.264816
H79	H	0.582681	-0.376386	-0.469103
H80	H	1.043295	-0.376163	-0.826478
Cl81	Cl	1.247852	-0.212300	-0.844717
Cl82	Cl	1.247523	-0.528162	-0.491557
H83	H	0.433953	-0.376389	-0.469124
Cl84	Cl	1.021006	-0.528452	-0.264737
Cl85	Cl	0.415795	-0.212275	-0.265107
Cl86	Cl	1.247594	-0.676546	-0.491582
Cl87	Cl	0.600837	-0.212257	-0.265090
Cl88	Cl	1.247763	-1.077382	-0.491685
Cl89	Cl	1.247712	-0.928998	-0.491639
