data_functionalizedCrystal
_audit_creation_method	'MofGen! by Chris Wilmer'
_symmetry_space_group_name_H-M	'P1'
_symmetry_Int_Tables_number	1
_symmetry_cell_setting	triclinic
loop_
_symmetry_equiv_pos_as_xyz
  x,y,z
_cell_length_a	25.639242
_cell_length_b	19.805405
_cell_length_c	19.805398
_cell_angle_alpha	90.030326
_cell_angle_beta	89.979057
_cell_angle_gamma	89.978063
loop_
_atom_site_label
_atom_site_type_symbol
_atom_site_fract_x
_atom_site_fract_y
_atom_site_fract_z
Zn1	Zn	0.799263	0.269553	-0.382853
Zn2	Zn	1.049263	0.519553	-0.132853
Zn3	Zn	1.299263	0.769553	0.117147
Zn4	Zn	1.549263	1.019553	0.367147
Zn5	Zn	0.799207	0.382743	-0.269661
Zn6	Zn	1.049207	0.632743	-0.019661
Zn7	Zn	1.299207	0.882743	0.230339
Zn8	Zn	1.549207	1.132743	0.480339
Zn9	Zn	0.711842	0.269565	-0.269662
Zn10	Zn	0.961842	0.519565	-0.019662
Zn11	Zn	1.211842	0.769565	0.230338
Zn12	Zn	1.461842	1.019565	0.480338
Zn13	Zn	0.711804	0.382696	-0.382792
Zn14	Zn	0.961804	0.632696	-0.132792
Zn15	Zn	1.211804	0.882696	0.117208
Zn16	Zn	1.461804	1.132696	0.367208
O17	O	0.755529	0.326139	-0.326242
O18	O	1.005529	0.576139	-0.076242
O19	O	1.255529	0.826139	0.173758
O20	O	1.505529	1.076139	0.423758
O21	O	0.872421	0.284582	-0.367863
O22	O	1.122421	0.534582	-0.117863
O23	O	1.372421	0.784582	0.132137
O24	O	1.622421	1.034582	0.382137
O25	O	0.787611	0.367754	-0.174945
O26	O	1.037611	0.617754	0.075055
O27	O	1.287611	0.867754	0.325055
O28	O	1.537611	1.117754	0.575055
O29	O	0.723478	0.174846	-0.284703
O30	O	0.973478	0.424846	-0.034703
O31	O	1.223478	0.674846	0.215297
O32	O	1.473478	0.924846	0.465297
O33	O	0.872380	0.367743	-0.284701
O34	O	1.122380	0.617743	-0.034701
O35	O	1.372380	0.867743	0.215299
O36	O	1.622380	1.117743	0.465299
O37	O	0.787706	0.174838	-0.367863
O38	O	1.037706	0.424838	-0.117863
O39	O	1.287706	0.674838	0.132137
O40	O	1.537706	0.924838	0.382137
O41	O	0.723423	0.284603	-0.174945
O42	O	0.973423	0.534603	0.075055
O43	O	1.223423	0.784603	0.325055
O44	O	1.473423	1.034603	0.575055
O45	O	0.638671	0.284557	-0.284644
O46	O	0.888671	0.534557	-0.034644
O47	O	1.138671	0.784557	0.215356
O48	O	1.388671	1.034557	0.465356
O49	O	0.723413	0.367663	-0.477517
O50	O	0.973413	0.617663	-0.227517
O51	O	1.223413	0.867663	0.022483
O52	O	1.473413	1.117663	0.272483
O53	O	0.638643	0.367675	-0.367760
O54	O	0.888643	0.617675	-0.117760
O55	O	1.138643	0.867675	0.132240
O56	O	1.388643	1.117675	0.382240
O57	O	0.787669	0.284537	-0.477561
O58	O	1.037669	0.534537	-0.227561
O59	O	1.287669	0.784537	0.022439
O60	O	1.537669	1.034537	0.272439
O61	O	0.787574	0.477454	-0.284643
O62	O	1.037574	0.727454	-0.034643
O63	O	1.287574	0.977454	0.215357
O64	O	1.537574	1.227454	0.465357
O65	O	0.723359	0.477419	-0.367760
O66	O	0.973359	0.727419	-0.117760
O67	O	1.223359	0.977419	0.132240
O68	O	1.473359	1.227419	0.382240
C69	C	0.755470	0.501995	-0.326209
C70	C	1.005470	0.751995	-0.076209
C71	C	1.255470	1.001995	0.173791
C72	C	1.505470	1.251995	0.423791
C73	C	0.755493	0.577227	-0.326218
C74	C	1.005493	0.827227	-0.076218
C75	C	1.255493	1.077227	0.173782
C76	C	1.505493	1.327227	0.423782
C77	C	0.619686	0.326113	-0.326196
C78	C	0.869686	0.576113	-0.076196
C79	C	1.119686	0.826113	0.173804
C80	C	1.369686	1.076113	0.423804
C81	C	0.561572	0.326117	-0.326193
C82	C	0.811572	0.576117	-0.076193
C83	C	1.061572	0.826117	0.173807
C84	C	1.311572	1.076117	0.423807
C85	C	0.755543	0.326093	-0.502785
C86	C	1.005543	0.576093	-0.252785
C87	C	1.255543	0.826093	-0.002785
C88	C	1.505543	1.076093	0.247215
C89	C	0.755549	0.326074	-0.578017
C90	C	1.005549	0.576074	-0.328017
C91	C	1.255549	0.826074	-0.078017
C92	C	1.505549	1.076074	0.171983
C93	C	0.201204	0.369491	-0.369480
C94	C	0.451204	0.619491	-0.119480
C95	C	0.701204	0.869491	0.130520
C96	C	0.951204	1.119491	0.380520
C97	C	0.146599	0.369495	-0.369490
C98	C	0.396599	0.619495	-0.119490
C99	C	0.646599	0.869495	0.130510
C100	C	0.896599	1.119495	0.380510
O101	O	0.118358	0.406339	-0.406256
O102	O	0.368358	0.656339	-0.156256
O103	O	0.618358	0.906339	0.093744
O104	O	0.868358	1.156339	0.343744
N105	N	0.119290	0.326158	-0.326286
N106	N	0.369290	0.576158	-0.076286
N107	N	0.619290	0.826158	0.173714
N108	N	0.869290	1.076158	0.423714
C109	C	0.146588	0.282809	-0.283073
C110	C	0.396588	0.532809	-0.033073
C111	C	0.646588	0.782809	0.216927
C112	C	0.896588	1.032809	0.466927
O113	O	0.118345	0.245947	-0.246326
O114	O	0.368345	0.495947	0.003674
O115	O	0.618345	0.745947	0.253674
O116	O	0.868345	0.995947	0.503674
C117	C	0.201191	0.282802	-0.283067
C118	C	0.451191	0.532802	-0.033067
C119	C	0.701191	0.782802	0.216933
C120	C	0.951191	1.032802	0.466933
C121	C	0.228498	0.326147	-0.326269
C122	C	0.478498	0.576147	-0.076269
C123	C	0.728498	0.826147	0.173731
C124	C	0.978498	1.076147	0.423731
C125	C	0.228510	0.412831	-0.412679
C126	C	0.478510	0.662831	-0.162679
C127	C	0.728510	0.912831	0.087321
C128	C	0.978510	1.162831	0.337321
C129	C	0.283111	0.412828	-0.412667
C130	C	0.533111	0.662828	-0.162667
C131	C	0.783111	0.912828	0.087333
C132	C	1.033111	1.162828	0.337333
C133	C	0.310405	0.369484	-0.369456
C134	C	0.560405	0.619484	-0.119456
C135	C	0.810405	0.869484	0.130544
C136	C	1.060405	1.119484	0.380544
C137	C	0.283098	0.326143	-0.326257
C138	C	0.533098	0.576143	-0.076257
C139	C	0.783098	0.826143	0.173743
C140	C	1.033098	1.076143	0.423743
C141	C	0.228488	0.239450	-0.239858
C142	C	0.478488	0.489450	0.010142
C143	C	0.728488	0.739450	0.260142
C144	C	0.978488	0.989450	0.510142
C145	C	0.283095	0.239446	-0.239855
C146	C	0.533095	0.489446	0.010145
C147	C	0.783095	0.739446	0.260145
C148	C	1.033095	0.989446	0.510145
C149	C	0.310401	0.282791	-0.283057
C150	C	0.560401	0.532791	-0.033057
C151	C	0.810401	0.782791	0.216943
C152	C	1.060401	1.032791	0.466943
C153	C	0.364992	0.282796	-0.283034
C154	C	0.614992	0.532796	-0.033034
C155	C	0.864992	0.782796	0.216966
C156	C	1.114992	1.032796	0.466966
N157	N	0.392302	0.326133	-0.326239
N158	N	0.642302	0.576133	-0.076239
N159	N	0.892302	0.826133	0.173761
N160	N	1.142302	1.076133	0.423761
C161	C	0.365008	0.369477	-0.369450
C162	C	0.615008	0.619477	-0.119450
C163	C	0.865008	0.869477	0.130550
C164	C	1.115008	1.119477	0.380550
C165	C	0.031917	0.282826	-0.283092
C166	C	0.281917	0.532826	-0.033092
C167	C	0.531917	0.782826	0.216908
C168	C	0.781917	1.032826	0.466908
C169	C	-0.022685	0.282836	-0.283094
C170	C	0.227315	0.532836	-0.033094
C171	C	0.477315	0.782836	0.216906
C172	C	0.727315	1.032836	0.466906
C173	C	-0.022670	0.369521	-0.369513
C174	C	0.227330	0.619521	-0.119513
C175	C	0.477330	0.869521	0.130487
C176	C	0.727330	1.119521	0.380487
C177	C	0.031933	0.369514	-0.369506
C178	C	0.281933	0.619514	-0.119506
C179	C	0.531933	0.869514	0.130494
C180	C	0.781933	1.119514	0.380494
C181	C	0.059226	0.326163	-0.326296
C182	C	0.309226	0.576163	-0.076296
C183	C	0.559226	0.826163	0.173704
C184	C	0.809226	1.076163	0.423704
C185	C	0.479673	0.369467	-0.369421
C186	C	0.729673	0.619467	-0.119421
C187	C	0.979673	0.869467	0.130579
C188	C	1.229673	1.119467	0.380579
C189	C	0.534279	0.369462	-0.369404
C190	C	0.784279	0.619462	-0.119404
C191	C	1.034279	0.869462	0.130596
C192	C	1.284279	1.119462	0.380596
C193	C	0.534258	0.282774	-0.282988
C194	C	0.784258	0.532774	-0.032988
C195	C	1.034258	0.782774	0.217012
C196	C	1.284258	1.032774	0.467012
C197	C	0.479658	0.282782	-0.283003
C198	C	0.729658	0.532782	-0.033003
C199	C	0.979658	0.782782	0.216997
C200	C	1.229658	1.032782	0.466997
C201	C	0.452366	0.326130	-0.326225
C202	C	0.702366	0.576130	-0.076225
C203	C	0.952366	0.826130	0.173775
C204	C	1.202366	1.076130	0.423775
O205	O	0.393269	0.245968	-0.246290
O206	O	0.643269	0.495968	0.003710
O207	O	0.893269	0.745968	0.253710
O208	O	1.143269	0.995968	0.503710
O209	O	0.393258	0.406326	-0.406197
O210	O	0.643258	0.656326	-0.156197
O211	O	0.893258	0.906326	0.093803
O212	O	1.143258	1.156326	0.343803
C213	C	0.891902	0.326166	-0.326289
C214	C	1.141902	0.576166	-0.076289
C215	C	1.391902	0.826166	0.173711
C216	C	1.641902	1.076166	0.423711
C217	C	0.950016	0.326178	-0.326308
C218	C	1.200016	0.576178	-0.076308
C219	C	1.450016	0.826178	0.173692
C220	C	1.700016	1.076178	0.423692
C221	C	0.755602	0.149596	-0.326290
C222	C	1.005602	0.399596	-0.076290
C223	C	1.255602	0.649596	0.173710
C224	C	1.505602	0.899596	0.423710
C225	C	0.755634	0.074364	-0.326310
C226	C	1.005634	0.324364	-0.076310
C227	C	1.255634	0.574364	0.173690
C228	C	1.505634	0.824364	0.423690
C229	C	0.788962	0.612567	-0.282984
C230	C	1.038962	0.862567	-0.032984
C231	C	1.288962	1.112567	0.217016
C232	C	1.538962	1.362567	0.467016
C233	C	0.788984	0.683255	-0.282999
C234	C	1.038984	0.933255	-0.032999
C235	C	1.288984	1.183255	0.217001
C236	C	1.538984	1.433255	0.467001
C237	C	0.755534	0.718603	-0.326245
C238	C	1.005534	0.968603	-0.076245
C239	C	1.255534	1.218603	0.173755
C240	C	1.505534	1.468603	0.423755
C241	C	0.722063	0.683258	-0.369483
C242	C	0.972063	0.933258	-0.119483
C243	C	1.222063	1.183258	0.130517
C244	C	1.472063	1.433258	0.380517
C245	C	0.722044	0.612571	-0.369471
C246	C	0.972044	0.862571	-0.119471
C247	C	1.222044	1.112571	0.130529
C248	C	1.472044	1.362571	0.380529
C249	C	0.722140	0.968331	-0.369534
C250	C	0.972140	1.218331	-0.119534
C251	C	1.222140	1.468331	0.130466
C252	C	1.472140	1.718331	0.380466
C253	C	0.722161	1.039024	-0.369541
C254	C	0.972161	1.289024	-0.119541
C255	C	1.222161	1.539024	0.130459
C256	C	1.472161	1.789024	0.380459
C257	C	0.789081	1.039016	-0.283061
C258	C	1.039081	1.289016	-0.033061
C259	C	1.289081	1.539016	0.216939
C260	C	1.539081	1.789016	0.466939
C261	C	0.789061	0.968328	-0.283049
C262	C	1.039061	1.218328	-0.033049
C263	C	1.289061	1.468328	0.216951
C264	C	1.539061	1.718328	0.466951
C265	C	0.755593	0.932990	-0.326290
C266	C	1.005593	1.182990	-0.076290
C267	C	1.255593	1.432990	0.173710
C268	C	1.505593	1.682990	0.423710
C269	C	0.755570	0.856342	-0.326274
C270	C	1.005570	1.106342	-0.076274
C271	C	1.255570	1.356342	0.173726
C272	C	1.505570	1.606342	0.423726
C273	C	0.755554	0.795250	-0.326258
C274	C	1.005554	1.045250	-0.076258
C275	C	1.255554	1.295250	0.173742
C276	C	1.505554	1.545250	0.423742
C277	C	0.789054	0.369263	-1.039805
C278	C	1.039054	0.619263	-0.789805
C279	C	1.289054	0.869263	-0.539805
C280	C	1.539054	1.119263	-0.289805
C281	C	0.789039	0.369282	-0.969117
C282	C	1.039039	0.619282	-0.719117
C283	C	1.289039	0.869282	-0.469117
C284	C	1.539039	1.119282	-0.219117
C285	C	0.755614	0.325998	-0.933779
C286	C	1.005614	0.575998	-0.683779
C287	C	1.255614	0.825998	-0.433779
C288	C	1.505614	1.075998	-0.183779
C289	C	0.722197	0.282697	-0.969133
C290	C	0.972197	0.532697	-0.719133
C291	C	1.222197	0.782697	-0.469133
C292	C	1.472197	1.032697	-0.219133
C293	C	0.722209	0.282683	-1.039820
C294	C	0.972209	0.532683	-0.789820
C295	C	1.222209	0.782683	-0.539820
C296	C	1.472209	1.032683	-0.289820
C297	C	0.722146	0.282755	-0.684059
C298	C	0.972146	0.532755	-0.434059
C299	C	1.222146	0.782755	-0.184059
C300	C	1.472146	1.032755	0.065941
C301	C	0.722138	0.282771	-0.613367
C302	C	0.972138	0.532771	-0.363367
C303	C	1.222138	0.782771	-0.113367
C304	C	1.472138	1.032771	0.136633
C305	C	0.788977	0.369354	-0.613356
C306	C	1.038977	0.619354	-0.363356
C307	C	1.288977	0.869354	-0.113356
C308	C	1.538977	1.119354	0.136644
C309	C	0.788989	0.369340	-0.684043
C310	C	1.038989	0.619340	-0.434043
C311	C	1.288989	0.869340	-0.184043
C312	C	1.538989	1.119340	0.065957
C313	C	0.755570	0.326042	-0.719391
C314	C	1.005570	0.576042	-0.469391
C315	C	1.255570	0.826042	-0.219391
C316	C	1.505570	1.076042	0.030609
C317	C	0.755586	0.326024	-0.796040
C318	C	1.005586	0.576024	-0.546040
C319	C	1.255586	0.826024	-0.296040
C320	C	1.505586	1.076024	-0.046040
C321	C	0.755601	0.326012	-0.857132
C322	C	1.005601	0.576012	-0.607132
C323	C	1.255601	0.826012	-0.357132
C324	C	1.505601	1.076012	-0.107132
C325	C	0.755545	0.326136	-0.150386
C326	C	1.005545	0.576136	0.099614
C327	C	1.255545	0.826136	0.349614
C328	C	1.505545	1.076136	0.599614
C329	C	0.755641	0.325965	-0.075154
C330	C	1.005641	0.575965	0.174846
C331	C	1.255641	0.825965	0.424846
C332	C	1.505641	1.075965	0.674846
H333	H	0.556509	0.404761	-0.404585
H334	H	0.806509	0.654761	-0.154585
H335	H	1.056509	0.904761	0.095415
H336	H	1.306509	1.154761	0.345415
H337	H	0.816186	0.404611	-0.584568
H338	H	1.066186	0.654611	-0.334568
H339	H	1.316186	0.904611	-0.084568
H340	H	1.566186	1.154611	0.165432
H341	H	0.694830	0.712044	-0.404698
H342	H	0.944830	0.962044	-0.154698
H343	H	1.194830	1.212044	0.095302
H344	H	1.444830	1.462044	0.345302
H345	H	-0.044902	0.404812	-0.404700
H346	H	0.205098	0.654812	-0.154700
H347	H	0.455098	0.904812	0.095300
H348	H	0.705098	1.154812	0.345300
H349	H	0.694923	1.067802	-0.404762
H350	H	0.944923	1.317802	-0.154762
H351	H	1.194923	1.567802	0.095238
H352	H	1.444923	1.817802	0.345238
H353	H	0.305314	0.204140	-0.204671
H354	H	0.555314	0.454140	0.045329
H355	H	0.805314	0.704140	0.295329
H356	H	1.055314	0.954140	0.545329
H357	H	0.694917	0.247522	-0.584597
H358	H	0.944917	0.497522	-0.334597
H359	H	1.194917	0.747522	-0.084597
H360	H	1.444917	0.997522	0.165403
H361	H	0.816199	0.583791	-0.247766
H362	H	1.066199	0.833791	0.002234
H363	H	1.316199	1.083791	0.252234
H364	H	1.566199	1.333791	0.502234
H365	H	0.816275	0.404507	-1.068573
H366	H	1.066275	0.654507	-0.818573
H367	H	1.316275	0.904507	-0.568573
H368	H	1.566275	1.154507	-0.318573
H369	H	0.694934	0.247500	-0.712831
H370	H	0.944934	0.497500	-0.462831
H371	H	1.194934	0.747500	-0.212831
H372	H	1.444934	0.997500	0.037169
H373	H	0.695001	0.247424	-1.068600
H374	H	0.945001	0.497424	-0.818600
H375	H	1.195001	0.747424	-0.568600
H376	H	1.445001	0.997424	-0.318600
H377	H	0.305339	0.448122	-0.447848
H378	H	0.555339	0.698122	-0.197848
H379	H	0.805339	0.948122	0.052152
H380	H	1.055339	1.198122	0.302152
H381	H	0.206293	0.448128	-0.447870
H382	H	0.456293	0.698128	-0.197870
H383	H	0.706293	0.948128	0.052130
H384	H	0.956293	1.198128	0.302130
H385	H	0.816209	0.404584	-0.712812
H386	H	1.066209	0.654584	-0.462812
H387	H	1.316209	0.904584	-0.212812
H388	H	1.566209	1.154584	0.037188
H389	H	0.694791	0.583798	-0.404678
H390	H	0.944791	0.833798	-0.154678
H391	H	1.194791	1.083798	0.095322
H392	H	1.444791	1.333798	0.345322
H393	H	0.694979	0.247457	-0.940355
H394	H	0.944979	0.497457	-0.690355
H395	H	1.194979	0.747457	-0.440355
H396	H	1.444979	0.997457	-0.190355
H397	H	0.694888	0.939565	-0.404740
H398	H	0.944888	1.189565	-0.154740
H399	H	1.194888	1.439565	0.095260
H400	H	1.444888	1.689565	0.345260
H401	H	-0.044914	0.247547	-0.247908
H402	H	0.205086	0.497547	0.002092
H403	H	0.455086	0.747547	0.252092
H404	H	0.705086	0.997547	0.502092
H405	H	0.054136	0.247525	-0.247900
H406	H	0.304136	0.497525	0.002100
H407	H	0.554136	0.747525	0.252100
H408	H	0.804136	0.997525	0.502100
H409	H	0.816334	1.067797	-0.247855
H410	H	1.066334	1.317797	0.002145
H411	H	1.316334	1.567797	0.252145
H412	H	1.566334	1.817797	0.502145
H413	H	0.457459	0.404764	-0.404618
H414	H	0.707459	0.654764	-0.154618
H415	H	0.957459	0.904764	0.095382
H416	H	1.207459	1.154764	0.345382
H417	H	0.816238	0.712026	-0.247793
H418	H	1.066238	0.962026	0.002207
H419	H	1.316238	1.212026	0.252207
H420	H	1.566238	1.462026	0.502207
H421	H	0.206264	0.204156	-0.204676
H422	H	0.456264	0.454156	0.045324
H423	H	0.706264	0.704156	0.295324
H424	H	0.956264	0.954156	0.545324
H425	H	0.054163	0.404809	-0.404686
H426	H	0.304163	0.654809	-0.154686
H427	H	0.554163	0.904809	0.095314
H428	H	0.804163	1.154809	0.345314
H429	H	0.457423	0.247488	-0.247823
H430	H	0.707423	0.497488	0.002177
H431	H	0.957423	0.747488	0.252177
H432	H	1.207423	0.997488	0.502177
H433	H	0.556491	0.247487	-0.247805
H434	H	0.806491	0.497487	0.002195
H435	H	1.056491	0.747487	0.252195
H436	H	1.306491	0.997487	0.502195
H437	H	0.816298	0.939551	-0.247832
H438	H	1.066298	1.189551	0.002168
H439	H	1.316298	1.439551	0.252168
H440	H	1.566298	1.689551	0.502168
H441	H	0.816241	0.404548	-0.940339
H442	H	1.066241	0.654548	-0.690339
H443	H	1.316241	0.904548	-0.440339
H444	H	1.566241	1.154548	-0.190339
