data_functionalizedCrystal
_audit_creation_method	'MofGen! by Chris Wilmer'
_symmetry_space_group_name_H-M	'P1'
_symmetry_Int_Tables_number	1
_symmetry_cell_setting	triclinic
loop_
_symmetry_equiv_pos_as_xyz
  x,y,z
_cell_length_a	11.169417
_cell_length_b	18.215405
_cell_length_c	11.169409
_cell_angle_alpha	89.961333
_cell_angle_beta	89.980487
_cell_angle_gamma	90.025070
loop_
_atom_site_label
_atom_site_type_symbol
_atom_site_fract_x
_atom_site_fract_y
_atom_site_fract_z
Zn1	Zn	1.834850	-0.292900	-0.678480
Zn2	Zn	2.334850	0.207100	-0.178480
Zn3	Zn	1.834692	-0.415991	-0.477775
Zn4	Zn	2.334692	0.084009	0.022225
Zn5	Zn	1.634136	-0.292946	-0.477815
Zn6	Zn	2.134136	0.207054	0.022185
Zn7	Zn	1.634096	-0.415932	-0.678421
Zn8	Zn	2.134096	0.084068	-0.178421
O9	O	1.734443	-0.354442	-0.578123
O10	O	2.234443	0.145558	-0.078123
O11	O	2.002779	-0.309234	-0.651864
O12	O	2.502779	0.190766	-0.151864
O13	O	1.808038	-0.399713	-0.309830
O14	O	2.308038	0.100287	0.190170
O15	O	1.660844	-0.189955	-0.504476
O16	O	2.160844	0.310045	-0.004476
O17	O	2.002663	-0.399669	-0.504406
O18	O	2.502663	0.100331	-0.004406
O19	O	1.808307	-0.189922	-0.651903
O20	O	2.308307	0.310078	-0.151903
O21	O	1.660691	-0.309312	-0.309860
O22	O	2.160691	0.190688	0.190140
O23	O	1.466181	-0.309255	-0.504418
O24	O	1.966181	0.190745	-0.004418
O25	O	1.660776	-0.399568	-0.846378
O26	O	2.160776	0.100432	-0.346378
O27	O	1.466152	-0.399612	-0.651802
O28	O	1.966152	0.100388	-0.151802
O29	O	1.808269	-0.309177	-0.846422
O30	O	2.308269	0.190823	-0.346422
O31	O	1.808000	-0.518968	-0.504349
O32	O	2.308000	-0.018968	-0.004349
O33	O	1.660623	-0.518924	-0.651763
O34	O	2.160623	-0.018924	-0.151763
C35	C	1.422619	-0.354432	-0.578109
C36	C	1.922619	0.145568	-0.078109
C37	C	1.289219	-0.354446	-0.578132
C38	C	1.789219	0.145554	-0.078132
C39	C	1.734322	-0.545649	-0.578071
C40	C	2.234322	-0.045649	-0.078071
C41	C	1.734381	-0.627448	-0.578089
C42	C	2.234381	-0.127448	-0.078089
C43	C	1.811345	-0.892503	-0.501493
C44	C	2.311345	-0.392503	-0.001493
C45	C	1.811295	-0.815644	-0.501465
C46	C	2.311295	-0.315644	-0.001465
C47	C	1.657691	-0.815640	-0.654834
C48	C	2.157691	-0.315640	-0.154834
C49	C	1.657735	-0.892498	-0.654854
C50	C	2.157735	-0.392498	-0.154854
C51	C	1.734569	-0.930927	-0.578186
C52	C	2.234569	-0.430927	-0.078186
C53	C	1.734475	-0.777211	-0.578138
C54	C	2.234475	-0.277211	-0.078138
C55	C	1.734421	-0.693877	-0.578108
C56	C	2.234421	-0.193877	-0.078108
C57	C	1.734622	-1.014266	-0.578213
C58	C	2.234622	-0.514266	-0.078213
C59	C	2.047486	-0.354453	-0.578137
C60	C	2.547486	0.145547	-0.078137
C61	C	2.180886	-0.354457	-0.578143
C62	C	2.680886	0.145543	-0.078143
C63	C	1.734536	-0.354361	-0.891165
C64	C	2.234536	0.145639	-0.391165
C65	C	1.734575	-0.354326	-1.024565
C66	C	2.234575	0.145674	-0.524565
C67	C	1.734598	-0.162489	-0.578201
C68	C	2.234598	0.337511	-0.078201
C69	C	1.734663	-0.080690	-0.578234
C70	C	2.234663	0.419310	-0.078234
C71	C	1.734421	-0.354471	-0.266298
C72	C	2.234421	0.145529	0.233702
C73	C	1.734614	-0.354298	-0.132899
C74	C	2.234614	0.145702	0.367101
H75	H	1.873907	-0.923790	-0.439064
H76	H	2.373907	-0.423790	0.060936
H77	H	1.595136	-0.784343	-0.717257
H78	H	2.095136	-0.284343	-0.217257
C79	C	1.895747	-0.773382	-0.417089
C80	C	2.395747	-0.273382	0.082911
N81	N	1.959356	-0.741550	-0.353529
N82	N	2.459356	-0.241550	0.146471
C83	C	1.573270	-0.934766	-0.739226
C84	C	2.073270	-0.434766	-0.239226
N85	N	1.509652	-0.966603	-0.802769
N86	N	2.009652	-0.466603	-0.302769
