data_functionalizedCrystal
_audit_creation_method	'MofGen! by Chris Wilmer'
_symmetry_space_group_name_H-M	'P1'
_symmetry_Int_Tables_number	1
_symmetry_cell_setting	triclinic
loop_
_symmetry_equiv_pos_as_xyz
  x,y,z
_cell_length_a	18.215407
_cell_length_b	12.759399
_cell_length_c	18.215399
_cell_angle_alpha	90.024962
_cell_angle_beta	89.980167
_cell_angle_gamma	89.984436
loop_
_atom_site_label
_atom_site_type_symbol
_atom_site_fract_x
_atom_site_fract_y
_atom_site_fract_z
Zn1	Zn	1.125122	0.418265	-0.416131
Zn2	Zn	1.125051	0.593962	-0.293071
Zn3	Zn	1.002054	0.418299	-0.293079
Zn4	Zn	1.002041	0.593903	-0.416096
O5	O	1.063567	0.506107	-0.354594
O6	O	1.228097	0.441581	-0.399819
O7	O	1.108711	0.570699	-0.190088
O8	O	1.018415	0.271273	-0.309419
O9	O	1.228045	0.570665	-0.309407
O10	O	1.108832	0.271248	-0.399826
O11	O	1.018346	0.441640	-0.190093
O12	O	0.899068	0.441583	-0.309385
O13	O	1.018392	0.570566	-0.519085
O14	O	0.899059	0.570599	-0.399766
O15	O	1.108819	0.441525	-0.519111
O16	O	1.108699	0.740975	-0.309373
O17	O	1.018324	0.740932	-0.399759
C18	C	1.063522	0.779075	-0.354578
C19	C	1.063570	0.895851	-0.354595
C20	C	0.872361	0.506089	-0.354573
C21	C	0.790562	0.506107	-0.354582
C22	C	1.063612	0.506035	-0.546547
C23	C	1.063631	0.506004	-0.628346
C24	C	0.602382	0.573391	-0.401584
C25	C	0.525524	0.573394	-0.401593
C26	C	0.525504	0.438842	-0.307621
C27	C	0.602361	0.438835	-0.307616
C28	C	0.640799	0.506115	-0.354596
C29	C	0.487083	0.506126	-0.354610
C30	C	0.403749	0.506129	-0.354620
C31	C	0.724138	0.506111	-0.354588
C32	C	1.255520	0.506126	-0.354616
C33	C	1.337319	0.506134	-0.354625
C34	C	1.063633	0.232074	-0.354627
C35	C	1.063660	0.115297	-0.354641
C36	C	1.110682	0.950701	-0.307585
C37	C	1.110729	1.060425	-0.307609
C38	C	1.016546	1.060440	-0.401657
C39	C	1.016503	0.950718	-0.401635
C40	C	1.110733	0.438749	-0.816555
C41	C	1.110742	0.438719	-0.893414
C42	C	1.016581	0.573096	-0.893376
C43	C	1.016569	0.573120	-0.816518
C44	C	1.063649	0.505949	-0.778110
C45	C	1.063670	0.505894	-0.931826
C46	C	1.063679	0.505861	-1.015160
C47	C	1.063639	0.505980	-0.694771
C48	C	1.063565	0.506103	-0.163388
C49	C	1.063688	0.505838	-0.081590
H50	H	0.633676	0.628172	-0.439840
C51	C	0.964768	1.120804	-0.453390
N52	N	0.925763	1.166269	-0.492354
C53	C	1.162540	0.364796	-0.935700
N54	N	1.201556	0.309115	-0.967549
H55	H	0.978252	0.627787	-0.924657
H56	H	0.978139	0.906057	-0.439920
H57	H	0.978223	0.627841	-0.785215
C58	C	0.483269	0.647413	-0.453276
N59	N	0.451444	0.703170	-0.492204
H60	H	0.633641	0.384044	-0.269353
C61	C	0.483216	0.364844	-0.255941
N62	N	0.451365	0.309109	-0.217014
H63	H	1.149008	0.906030	-0.269283
H64	H	1.149094	1.105078	-0.269330
C65	C	1.162516	0.364849	-0.774308
N66	N	1.201519	0.309182	-0.742490
