data_functionalizedCrystal
_audit_creation_method	'MofGen! by Chris Wilmer'
_symmetry_space_group_name_H-M	'P1'
_symmetry_Int_Tables_number	1
_symmetry_cell_setting	triclinic
loop_
_symmetry_equiv_pos_as_xyz
  x,y,z
_cell_length_a	14.971486
_cell_length_b	14.586319
_cell_length_c	14.971486
_cell_angle_alpha	90.004001
_cell_angle_beta	83.614129
_cell_angle_gamma	89.998550
loop_
_atom_site_label
_atom_site_type_symbol
_atom_site_fract_x
_atom_site_fract_y
_atom_site_fract_z
O1	O	1.186944	0.076135	0.116562
O2	O	0.926543	0.076160	0.130520
O3	O	1.063723	0.076141	-0.006659
O4	O	1.049764	0.076155	0.253741
O5	O	1.063713	-0.076340	-0.006661
O6	O	0.926534	-0.076320	0.130518
O7	O	1.186934	-0.076345	0.116560
Cu8	Cu	1.056733	-0.090256	0.123539
Cu9	Cu	1.056744	0.090071	0.123541
O10	O	1.049755	-0.076326	0.253739
C11	C	0.893214	-0.000077	0.129895
C12	C	0.793917	-0.000067	0.128024
N13	N	1.056732	-0.217087	0.123536
C14	C	0.736692	-0.000064	0.208614
C15	C	0.643392	-0.000078	0.206850
C16	C	0.607320	-0.000088	0.124497
C17	C	0.664552	-0.000094	0.043902
C18	C	0.757850	-0.000087	0.045666
C19	C	0.470090	-0.000107	0.040231
C20	C	0.376786	-0.000113	0.038466
C21	C	0.355632	-0.000098	0.201415
C22	C	0.448930	-0.000091	0.203179
C23	C	0.506156	-0.000095	0.122584
C24	C	1.117495	-0.452103	0.062814
C25	C	1.117497	-0.548084	0.062812
C26	C	0.995983	-0.548076	0.184262
C27	C	0.995977	-0.452096	0.184259
C28	C	1.056738	-0.404112	0.123536
C29	C	1.056747	-0.596073	0.123537
C30	C	1.056749	-0.700140	0.123535
C31	C	1.056735	-0.300038	0.123537
C32	C	1.220263	-0.000106	0.117185
C33	C	1.319561	-0.000110	0.119056
C34	C	1.063094	-0.000099	-0.039985
C35	C	1.061223	-0.000098	-0.139282
N36	N	1.056753	0.216902	0.123536
C37	C	1.141812	-0.000107	-0.196507
C38	C	1.140049	-0.000097	-0.289807
C39	C	1.057696	-0.000086	-0.325879
C40	C	0.977101	-0.000075	-0.268646
C41	C	0.978865	-0.000078	-0.175349
C42	C	0.973430	-0.000071	-0.463109
C43	C	0.971665	-0.000070	-0.556413
C44	C	1.134614	-0.000091	-0.577567
C45	C	1.136378	-0.000094	-0.484269
C46	C	1.055782	-0.000084	-0.427043
C47	C	1.050384	-0.000084	0.287065
C48	C	1.052254	-0.000079	0.386362
H49	H	0.766054	-0.000055	0.275675
F50	F	1.182160	-0.401038	-0.001815
F51	F	1.182161	-0.599156	-0.001819
F52	F	0.884016	-0.000059	-0.594802
H53	H	0.946514	-0.587154	0.233702
H54	H	0.907800	-0.000061	-0.416517
F55	F	0.889454	-0.000053	-0.307040
F56	F	0.338397	-0.000147	-0.049183
H57	H	0.913240	-0.000071	-0.128756
H58	H	0.946497	-0.413020	0.233707
F59	F	1.229465	-0.000128	-0.158125
H60	H	1.205673	-0.000106	-0.336396
H61	H	0.596802	-0.000074	0.272474
H62	H	0.478296	-0.000074	0.270239
F63	F	1.224028	-0.000104	-0.445880
H64	H	1.200238	-0.000096	-0.624165
H65	H	0.516682	-0.000112	-0.025399
F66	F	0.294727	-0.000095	0.287192
F67	F	0.626159	-0.000111	-0.043745
H68	H	0.804443	-0.000089	-0.019958
