data_functionalizedCrystal
_audit_creation_method	'MofGen! by Chris Wilmer'
_symmetry_space_group_name_H-M	'P1'
_symmetry_Int_Tables_number	1
_symmetry_cell_setting	triclinic
loop_
_symmetry_equiv_pos_as_xyz
  x,y,z
_cell_length_a	27.732048
_cell_length_b	27.732048
_cell_length_c	9.130313
_cell_angle_alpha	89.993840
_cell_angle_beta	90.005287
_cell_angle_gamma	82.642655
loop_
_atom_site_label
_atom_site_type_symbol
_atom_site_fract_x
_atom_site_fract_y
_atom_site_fract_z
O1	O	0.640924	0.057515	-0.121626
O2	O	0.500131	0.066260	-0.121673
O3	O	0.574900	-0.008509	-0.121620
O4	O	0.566155	0.132284	-0.121679
O5	O	0.574899	-0.008507	0.121979
O6	O	0.500130	0.066262	0.121926
O7	O	0.640923	0.057517	0.121973
Cu8	Cu	0.570527	0.061890	0.144192
Cu9	Cu	0.570528	0.061887	-0.143892
O10	O	0.566154	0.132286	0.121920
C11	C	0.482124	0.066078	0.000121
C12	C	0.428469	0.065525	0.000105
C13	C	0.089654	0.106229	0.000151
C14	C	-0.112006	0.104178	0.000165
O15	O	-0.143262	0.141398	0.000213
N16	N	-0.131130	0.059843	0.000181
C17	C	-0.099835	0.016017	0.000203
O18	O	-0.120728	-0.021740	0.000232
C19	C	0.101824	0.018068	0.000199
C20	C	0.120944	0.062407	0.000169
C21	C	0.108775	0.150563	0.000122
C22	C	0.159187	0.151075	0.000111
C23	C	0.190477	0.107253	0.000128
C24	C	0.171356	0.062919	0.000157
C25	C	0.133117	-0.025757	0.000232
C26	C	0.183535	-0.025240	0.000235
C27	C	0.202655	0.019098	0.000204
C28	C	0.253059	0.019609	0.000163
N29	N	0.272183	0.063944	0.000148
C30	C	0.240892	0.107766	0.000130
C31	C	-0.205709	0.014943	0.000202
C32	C	-0.256124	0.014430	0.000200
C33	C	-0.268291	0.102591	0.000165
C34	C	-0.217876	0.103104	0.000156
C35	C	-0.186585	0.059278	0.000186
C36	C	0.346761	0.108839	0.000105
C37	C	0.397178	0.109347	0.000087
C38	C	0.409341	0.021186	0.000130
C39	C	0.358929	0.020678	0.000140
C40	C	0.327639	0.064508	0.000132
O41	O	0.284343	-0.017592	0.000132
O42	O	0.261794	0.145518	0.000133
C43	C	0.039242	0.105716	0.000163
C44	C	0.020120	0.061382	0.000192
C45	C	0.051411	0.017560	0.000209
C46	C	-0.030294	0.060869	0.000190
C47	C	-0.061585	0.104691	0.000172
C48	C	-0.042461	0.149026	0.000156
C49	C	0.007951	0.149539	0.000145
C50	C	0.032287	-0.026775	0.000225
C51	C	-0.018125	-0.027284	0.000235
C52	C	-0.049416	0.016538	0.000217
C53	C	0.574716	-0.026515	0.000183
C54	C	0.574164	-0.080170	0.000195
C55	C	0.614867	-0.418985	0.000133
C56	C	0.612816	-0.620645	0.000112
O57	O	0.650037	-0.651900	0.000060
N58	N	0.568481	-0.639768	0.000099
C59	C	0.524656	-0.608474	0.000081
O60	O	0.486899	-0.629367	0.000055
C61	C	0.526707	-0.406815	0.000092
C62	C	0.571045	-0.387694	0.000120
C63	C	0.659202	-0.399864	0.000160
C64	C	0.659714	-0.349452	0.000173
C65	C	0.615892	-0.318161	0.000160
C66	C	0.571557	-0.337282	0.000133
C67	C	0.482882	-0.375521	0.000064
C68	C	0.483399	-0.325104	0.000063
C69	C	0.527737	-0.305983	0.000091
C70	C	0.528248	-0.255580	0.000133
N71	N	0.572583	-0.236456	0.000147
C72	C	0.616405	-0.267747	0.000160
C73	C	0.523582	-0.714348	0.000079
C74	C	0.523069	-0.764762	0.000079
C75	C	0.611230	-0.776930	0.000107
C76	C	0.611742	-0.726514	0.000117
C77	C	0.567917	-0.695224	0.000092
C78	C	0.617477	-0.161878	0.000189
C79	C	0.617986	-0.111461	0.000208
C80	C	0.529825	-0.099298	0.000172
C81	C	0.529316	-0.149710	0.000161
C82	C	0.573147	-0.180999	0.000164
O83	O	0.491047	-0.224296	0.000169
O84	O	0.654156	-0.246844	0.000154
C85	C	0.614355	-0.469397	0.000120
C86	C	0.570021	-0.488518	0.000094
C87	C	0.526198	-0.457228	0.000080
C88	C	0.569508	-0.538933	0.000094
C89	C	0.613330	-0.570223	0.000107
C90	C	0.657665	-0.551100	0.000120
C91	C	0.658177	-0.500688	0.000133
C92	C	0.481863	-0.476351	0.000067
C93	C	0.481355	-0.526764	0.000056
C94	C	0.525177	-0.558054	0.000069
C95	C	0.658931	0.057699	0.000176
C96	C	0.712586	0.058252	0.000182
C97	C	0.566338	0.150292	0.000113
C98	C	0.566891	0.203947	0.000092
N99	N	0.570529	0.061891	0.346815
N100	N	0.570529	0.061882	-0.346515
C101	C	0.603646	0.028794	0.423490
C102	C	0.603644	0.028788	0.576827
C103	C	0.537409	0.094981	0.576799
C104	C	0.537408	0.094984	0.423465
C105	C	0.636766	-0.004298	0.346839
C106	C	0.669886	-0.037398	0.423514
C107	C	0.669885	-0.037403	0.576851
C108	C	0.636764	-0.004310	0.653513
H109	H	0.654093	-0.095896	0.000235
O110	O	0.701987	-0.069603	0.651401
C111	C	0.676328	-0.099245	0.740115
H112	H	0.638215	-0.099800	0.693895
H113	H	0.696341	-0.137802	0.741861
H114	H	0.673680	-0.084103	0.856323
H115	H	0.636763	-0.004321	0.778370
H116	H	0.510444	0.121925	0.639227
O117	O	-0.199245	0.146142	0.000327
C118	C	-0.170456	0.149088	0.126508
H119	H	-0.157616	0.110895	0.168593
H120	H	-0.137583	0.168107	0.098124
H121	H	-0.192888	0.170644	0.214837
H122	H	0.487892	-0.688875	0.000058
H123	H	0.117558	-0.061861	0.000258
H124	H	-0.067947	0.184708	0.000136
O125	O	0.505223	0.127182	0.349200
C126	C	0.475985	0.156385	0.449731
H127	H	0.495797	0.156795	0.559040
H128	H	0.468320	0.195041	0.405414
H129	H	0.440196	0.140935	0.466028
H130	H	0.653168	-0.187348	0.000186
H131	H	0.412743	0.145454	0.000061
O132	O	0.213949	-0.067801	0.000516
C133	C	0.243490	-0.070137	0.126654
H134	H	0.224851	-0.045275	0.214825
H135	H	0.249442	-0.109117	0.169022
H136	H	0.280063	-0.057911	0.098115
O137	O	0.316440	0.151459	0.000022
C138	C	0.344137	0.190694	0.000027
H139	H	0.381855	0.178129	-0.046084
H140	H	0.325318	0.221375	-0.070718
H141	H	0.347633	0.204307	0.116884
H142	H	0.446777	-0.391080	0.000032
O143	O	0.439810	-0.021336	0.000217
C144	C	0.488406	-0.011371	0.000173
H145	H	0.490057	0.026585	0.046259
H146	H	0.511457	-0.039321	0.070919
H147	H	0.502998	-0.013319	-0.116692
H148	H	0.636771	-0.004296	0.221984
H149	H	0.486964	-0.780325	0.000081
O150	O	0.653755	-0.807399	0.000042
C151	C	0.643789	-0.855994	0.000070
H152	H	0.605832	-0.857641	-0.046040
H153	H	0.671738	-0.879040	-0.070664
H154	H	0.645738	-0.870597	0.116934
H155	H	0.343360	-0.015426	0.000143
O156	O	0.078363	0.193123	0.000354
C157	C	0.048828	0.195472	0.126487
H158	H	0.067468	0.170614	0.214694
H159	H	0.042881	0.234455	0.168801
H160	H	0.012251	0.183247	0.097964
O161	O	0.438268	-0.545310	-0.000230
C162	C	0.411580	-0.529266	-0.126387
H163	H	0.437518	-0.518964	-0.214543
H164	H	0.391245	-0.559654	-0.168765
H165	H	0.384395	-0.496207	-0.097870
H166	H	0.174750	0.187180	0.000085
H167	H	-0.293777	0.138273	0.000151
O168	O	-0.036615	-0.070400	0.000327
C169	C	0.001820	-0.108965	0.000307
H170	H	0.035974	-0.095671	0.046401
H171	H	-0.008482	-0.139941	0.071060
H172	H	0.009046	-0.122469	-0.116552
H173	H	0.696849	-0.064344	0.361089
H174	H	0.695819	-0.333889	0.000190
O175	O	-0.274637	-0.028671	0.000017
C176	C	-0.258626	-0.055356	-0.126150
H177	H	-0.223756	-0.042446	-0.168219
H178	H	-0.251328	-0.095663	-0.097755
H179	H	-0.287847	-0.049540	-0.214495
O180	O	-0.175269	-0.027601	0.000021
C181	C	-0.145756	-0.029951	-0.126161
H182	H	-0.143481	0.008397	-0.168229
H183	H	-0.107731	-0.048254	-0.097787
H184	H	-0.162192	-0.051895	-0.214500
H185	H	0.446177	-0.450879	0.000053
H186	H	0.057760	-0.062462	0.000243
O187	O	0.701819	-0.430187	0.000243
C188	C	0.741053	-0.402488	0.000227
H189	H	0.728486	-0.364769	0.046331
H190	H	0.771735	-0.421305	0.070973
H191	H	0.754664	-0.398993	-0.116632
O192	O	0.654854	-0.708023	0.000065
C193	C	0.693419	-0.746458	0.000118
H194	H	0.680127	-0.780608	-0.045997
H195	H	0.724398	-0.736150	-0.070600
H196	H	0.706918	-0.753693	0.116989
O197	O	0.440781	-0.294778	0.000104
C198	C	0.401542	-0.322470	0.000038
H199	H	0.414100	-0.360193	0.046158
H200	H	0.370858	-0.303654	0.070745
H201	H	0.387938	-0.325956	-0.116838
H202	H	0.493213	-0.165279	0.000179
H203	H	0.694282	-0.485125	0.000156
O204	O	0.026441	0.192652	0.000190
C205	C	-0.011996	0.231215	0.000140
H206	H	-0.046144	0.217920	0.046265
H207	H	-0.001689	0.262195	0.070851
H208	H	-0.019235	0.244713	-0.116731
H209	H	0.693347	-0.576585	0.000137
O210	O	0.487227	-0.068945	-0.000044
C211	C	0.460296	-0.077546	-0.126246
H212	H	0.472454	-0.115881	-0.168297
H213	H	0.419952	-0.073698	-0.097905
H214	H	0.466705	-0.050015	-0.214585
