data_functionalizedCrystal
_audit_creation_method	'MofGen! by Chris Wilmer'
_symmetry_space_group_name_H-M	'P1'
_symmetry_Int_Tables_number	1
_symmetry_cell_setting	triclinic
loop_
_symmetry_equiv_pos_as_xyz
  x,y,z
_cell_length_a	10.654543
_cell_length_b	10.268362
_cell_length_c	10.654549
_cell_angle_alpha	90.004294
_cell_angle_beta	95.516525
_cell_angle_gamma	90.000087
loop_
_atom_site_label
_atom_site_type_symbol
_atom_site_fract_x
_atom_site_fract_y
_atom_site_fract_z
O1	O	-1.667846	0.108157	0.176360
O2	O	-1.167846	0.608157	0.676360
O3	O	-1.302366	0.108190	0.193175
O4	O	-0.802366	0.608190	0.693175
O5	O	-1.493509	0.108167	0.002028
O6	O	-0.993509	0.608167	0.502028
O7	O	-1.476703	0.108180	0.367507
O8	O	-0.976703	0.608180	0.867507
O9	O	-1.493493	-0.108433	0.002020
O10	O	-0.993493	0.391567	0.502020
O11	O	-1.302350	-0.108410	0.193167
O12	O	-0.802350	0.391590	0.693167
O13	O	-1.667829	-0.108443	0.176352
O14	O	-1.167829	0.391557	0.676352
Cu15	Cu	-1.485088	-0.128204	0.184758
Cu16	Cu	-0.985088	0.371796	0.684758
Cu17	Cu	-1.485108	0.127951	0.184768
Cu18	Cu	-0.985108	0.627951	0.684768
O19	O	-1.476686	-0.108421	0.367499
O20	O	-0.976686	0.391579	0.867499
C21	C	-1.255560	-0.000106	0.191938
C22	C	-0.755560	0.499894	0.691938
C23	C	-1.116116	-0.000093	0.188249
C24	C	-0.616116	0.499907	0.688249
C25	C	-1.036630	-0.000091	0.300793
C26	C	-0.536630	0.499909	0.800793
C27	C	-0.905609	-0.000111	0.297319
C28	C	-0.405609	0.499889	0.797319
C29	C	-0.933573	-0.000129	0.068749
C30	C	-0.433573	0.499871	0.568749
C31	C	-1.064591	-0.000119	0.072224
C32	C	-0.564591	0.499881	0.572224
N33	N	-1.485083	-0.308370	0.184751
N34	N	-0.985083	0.191630	0.684751
C35	C	-1.485101	-0.574041	0.184765
C36	C	-0.985101	-0.074041	0.684765
C37	C	-1.485087	-0.426203	0.184761
C38	C	-0.985087	0.073797	0.684761
C39	C	-0.714635	-0.000138	0.177595
C40	C	-0.214635	0.499862	0.677595
C41	C	-0.854076	-0.000123	0.181301
C42	C	-0.354076	0.499877	0.681301
C43	C	-1.492267	-0.000131	-0.044774
C44	C	-0.992267	0.499869	0.455226
C45	C	-1.488575	-0.000127	-0.184217
C46	C	-0.988575	0.499873	0.315783
N47	N	-1.485122	0.308117	0.184765
N48	N	-0.985122	0.808117	0.684765
C49	C	-1.597639	-0.000128	-0.394735
C50	C	-1.097639	0.499872	0.105265
C51	C	-1.601117	-0.000138	-0.263714
C52	C	-1.101117	0.499862	0.236286
C53	C	-1.372547	-0.000118	-0.235747
C54	C	-0.872547	0.499882	0.264253
C55	C	-1.369070	-0.000117	-0.366765
C56	C	-0.869070	0.499883	0.133235
C57	C	-1.477928	-0.000119	0.414301
C58	C	-0.977928	0.499881	0.914301
C59	C	-1.481620	-0.000115	0.553744
C60	C	-0.981620	0.499885	1.053744
H61	H	-1.078577	-0.000081	0.395268
H62	H	-0.578577	0.499919	0.895268
O63	O	-0.883310	-0.000085	-0.043844
O64	O	-0.383310	0.499915	0.456156
C65	C	-0.750625	-0.000123	-0.022781
C66	C	-0.250625	0.499877	0.477219
H67	H	-0.720712	0.040889	0.074961
H68	H	-0.220712	0.540889	0.574961
H69	H	-0.709757	0.062755	-0.097088
H70	H	-0.209757	0.562755	0.402912
H71	H	-0.714112	-0.104039	-0.029186
H72	H	-0.214112	0.395961	0.470814
O73	O	-1.706881	-0.000310	-0.472081
O74	O	-1.206881	0.499690	0.027919
C75	C	-1.711713	-0.112505	-0.548691
C76	C	-1.211713	0.387495	-0.048691
H77	H	-1.611964	-0.149892	-0.556184
H78	H	-1.111964	0.350108	-0.056184
H79	H	-1.757642	-0.087279	-0.646739
H80	H	-1.257642	0.412721	-0.146739
H81	H	-1.769440	-0.191066	-0.505103
H82	H	-1.269440	0.308934	-0.005103
H83	H	-0.840896	-0.000112	0.388964
H84	H	-0.340896	0.499888	0.888964
O85	O	-1.141633	-0.000061	-0.037226
O86	O	-0.641633	0.499939	0.462774
C87	C	-1.068064	-0.000107	-0.140378
C88	C	-0.568064	0.499893	0.359622
H89	H	-0.970567	0.040898	-0.109358
H90	H	-0.470567	0.540898	0.390642
H91	H	-1.115700	0.062773	-0.219301
H92	H	-0.615700	0.562773	0.280699
H93	H	-1.058437	-0.104025	-0.175886
H94	H	-0.558437	0.395975	0.324114
H95	H	-1.695591	-0.000151	-0.221773
H96	H	-1.195591	0.499849	0.278227
H97	H	-1.280914	-0.000116	-0.171010
H98	H	-0.780914	0.499884	0.328990
H99	H	-1.274588	-0.000112	-0.408713
H100	H	-0.774588	0.499888	0.091287
