data_functionalizedCrystal
_audit_creation_method	'MofGen! by Chris Wilmer'
_symmetry_space_group_name_H-M	'P1'
_symmetry_Int_Tables_number	1
_symmetry_cell_setting	triclinic
loop_
_symmetry_equiv_pos_as_xyz
  x,y,z
_cell_length_a	10.654545
_cell_length_b	10.654549
_cell_length_c	9.730223
_cell_angle_alpha	90.003420
_cell_angle_beta	90.002833
_cell_angle_gamma	84.483928
loop_
_atom_site_label
_atom_site_type_symbol
_atom_site_fract_x
_atom_site_fract_y
_atom_site_fract_z
O1	O	1.667842	0.176372	0.114273
O2	O	1.302363	0.193184	0.114278
O3	O	1.493506	0.002038	0.114270
O4	O	1.476699	0.367517	0.114282
O5	O	1.493493	0.002033	-0.114310
O6	O	1.302351	0.193178	-0.114301
O7	O	1.667830	0.176366	-0.114307
Zn8	Zn	1.485088	0.184771	-0.150596
Zn9	Zn	1.485104	0.184778	0.150568
O10	O	1.476687	0.367512	-0.114298
C11	C	1.255559	0.191948	-0.000011
C12	C	1.116115	0.188258	-0.000009
C13	C	1.050604	0.186518	-0.124608
C14	C	0.919584	0.183031	-0.124609
C15	C	0.919598	0.183028	0.124602
C16	C	1.050617	0.186507	0.124600
C17	C	1.492266	-0.044762	-0.000019
C18	C	1.488574	-0.184206	-0.000014
C19	C	1.714634	0.177602	-0.000015
C20	C	1.854078	0.181292	-0.000008
C21	C	1.597638	-0.394722	-0.000006
C22	C	1.601116	-0.263702	-0.000017
C23	C	1.372546	-0.235736	-0.000014
C24	C	1.369069	-0.366754	-0.000013
C25	C	1.477927	0.414312	-0.000007
C26	C	1.481619	0.553756	-0.000002
N27	N	1.485086	0.184766	-0.356133
C28	C	1.569753	0.100163	-0.428062
C29	C	1.569766	0.100163	-0.571945
C30	C	1.400440	0.269381	-0.571956
C31	C	1.400422	0.269374	-0.428076
N32	N	1.485116	0.184774	0.356104
H33	H	0.866251	0.181614	-0.226070
C34	C	1.641576	-0.116588	-0.383856
C35	C	1.662801	0.007124	-0.349015
H36	H	1.699015	-0.174036	-0.335061
H37	H	1.653685	-0.128651	-0.479836
H38	H	1.557636	-0.130979	-0.360276
H39	H	1.746739	0.021518	-0.372605
H40	H	1.650702	0.019192	-0.253014
C41	C	1.229790	0.295053	-0.733809
C42	C	1.307392	0.362385	-0.651048
H43	H	1.172353	0.352475	-0.782641
H44	H	1.184156	0.242364	-0.677698
H45	H	1.280234	0.244670	-0.797233
H46	H	1.256948	0.412761	-0.587617
H47	H	1.353030	0.415095	-0.707164
C48	C	1.797003	-0.247188	0.117498
C49	C	1.728647	-0.207066	-0.000012
H50	H	1.875735	-0.212217	0.117502
H51	H	1.811035	-0.336583	0.117492
H52	H	1.750604	-0.219954	0.197196
H53	H	1.775042	-0.234309	-0.079711
H54	H	1.714619	-0.117652	-0.000019
C55	C	1.726345	-0.558273	0.117502
C56	C	1.721351	-0.482098	-0.000005
H57	H	1.802728	-0.612206	0.117502
H58	H	1.656762	-0.607710	0.117497
H59	H	1.722955	-0.506561	0.197202
H60	H	1.724731	-0.533810	-0.079706
H61	H	1.790953	-0.432657	-0.000012
C62	C	1.276385	-0.022476	0.000000
C63	C	1.248836	-0.148356	-0.000008
H64	H	1.200008	0.031465	0.000016
H65	H	1.323895	-0.006756	-0.079708
H66	H	1.323920	-0.006761	0.079715
H67	H	1.201309	-0.164073	-0.079728
H68	H	1.201306	-0.164082	0.079709
H69	H	0.866253	0.181603	0.226054
H70	H	1.274587	-0.408703	-0.000016
H71	H	1.103958	0.187920	0.226071
H72	H	1.638708	0.031270	-0.630507
C73	C	1.233055	0.436656	-0.442527
C74	C	1.307352	0.362380	-0.349000
H75	H	1.175605	0.494073	-0.393705
H76	H	1.187436	0.383962	-0.498660
H77	H	1.285739	0.482322	-0.498631
H78	H	1.254668	0.316707	-0.292902
H79	H	1.352974	0.415081	-0.292843
H80	H	1.103929	0.187944	-0.226073
