data_functionalizedCrystal
_audit_creation_method	'MofGen! by Chris Wilmer'
_symmetry_space_group_name_H-M	'P1'
_symmetry_Int_Tables_number	1
_symmetry_cell_setting	triclinic
loop_
_symmetry_equiv_pos_as_xyz
  x,y,z
_cell_length_a	6.817900
_cell_length_b	14.858329
_cell_length_c	10.992743
_cell_angle_alpha	93.418789
_cell_angle_beta	108.770538
_cell_angle_gamma	104.519616
loop_
_atom_site_label
_atom_site_type_symbol
_atom_site_fract_x
_atom_site_fract_y
_atom_site_fract_z
V1	V	-4.092607	-0.128642	-0.400955
O2	O	-4.073469	0.006211	-0.392946
O3	O	-4.048864	-0.255103	-0.398575
O4	O	-4.070555	-0.126650	-0.575660
O5	O	-4.051628	-0.123131	-0.214635
V6	V	-4.572217	-0.112513	-0.378626
O7	O	-4.362448	-0.164021	-0.449936
O8	O	-4.752573	-0.077134	-0.329644
O9	O	-4.392752	0.013948	-0.381006
O10	O	-4.708751	-0.247366	-0.386635
O11	O	-4.730592	-0.118024	-0.564946
O12	O	-4.371062	-0.114505	-0.203921
C13	C	-3.894146	-0.285932	-0.392344
C14	C	-3.939844	-0.389316	-0.391562
C15	C	-3.976948	-0.473274	-0.390916
C16	C	-4.023517	-0.578604	-0.390111
C17	C	-4.060650	-0.662556	-0.389471
C18	C	-4.107221	-0.767892	-0.388664
C19	C	-3.921813	-0.122076	-0.618231
C20	C	-3.985097	-0.121285	-0.761056
C21	C	-4.296719	-0.126129	-0.972163
C22	C	-4.230856	-0.126595	-0.823532
C23	C	-3.850325	-0.028986	-0.791568
C24	C	-3.917531	-0.028132	-0.940208
C25	C	-4.009942	-0.205685	-0.978984
C26	C	-3.948913	-0.207785	-0.830776
C27	C	-4.210813	0.044772	-0.387234
C28	C	-4.144354	0.148155	-0.388023
C29	C	-4.183145	-0.119082	-0.161343
C30	C	-4.099099	-0.119869	-0.018517
H31	H	-4.335895	-0.192934	-0.804123
F32	F	-3.992246	0.056700	-0.970149
F33	F	-3.881307	0.055002	-0.727559
F34	F	-3.723044	-0.017192	-0.978452
H35	H	-4.134314	-0.274895	-1.033771
H36	H	-4.434392	-0.192111	-1.024988
H37	H	-3.669932	-0.021738	-0.749680
H38	H	-4.365078	-0.064492	-0.998718
H39	H	-4.049507	-0.276011	-0.812813
F40	F	-3.719944	-0.209750	-0.776217
H41	H	-3.862356	-0.201840	-1.008154
H42	H	-4.267025	-0.064926	-0.777110
