data_functionalizedCrystal
_audit_creation_method	'MofGen! by Chris Wilmer'
_symmetry_space_group_name_H-M	'P1'
_symmetry_Int_Tables_number	1
_symmetry_cell_setting	triclinic
loop_
_symmetry_equiv_pos_as_xyz
  x,y,z
_cell_length_a	14.519709
_cell_length_b	15.072220
_cell_length_c	14.519709
_cell_angle_alpha	89.989674
_cell_angle_beta	96.319855
_cell_angle_gamma	89.998331
loop_
_atom_site_label
_atom_site_type_symbol
_atom_site_fract_x
_atom_site_fract_y
_atom_site_fract_z
O1	O	1.223866	0.073669	-0.120898
O2	O	0.955389	0.073696	-0.135134
O3	O	1.096746	0.073674	0.006223
O4	O	1.082509	0.073691	-0.262254
O5	O	1.096737	-0.073891	0.006240
O6	O	0.955380	-0.073869	-0.135117
O7	O	1.223857	-0.073896	-0.120880
Zn8	Zn	1.089617	-0.097312	-0.127996
Zn9	Zn	1.089629	0.097112	-0.128019
O10	O	1.082500	-0.073874	-0.262237
C11	C	0.921025	-0.000083	-0.134462
C12	C	0.818643	-0.000073	-0.132474
N13	N	1.089615	-0.230000	-0.127980
C14	C	0.443748	-0.000114	-0.125154
C15	C	0.548056	-0.000102	-0.127187
C16	C	0.631192	-0.000092	-0.128814
C17	C	0.735507	-0.000082	-0.130847
C18	C	1.089630	-0.589202	-0.128011
C19	C	1.165513	-0.551579	-0.052628
C20	C	1.165314	-0.448754	-0.052348
C21	C	1.089623	-0.410998	-0.127996
C22	C	0.993371	-0.448333	-0.106821
C23	C	0.993820	-0.551190	-0.106288
C24	C	1.109132	-0.551275	-0.224791
C25	C	1.111315	-0.448411	-0.224146
C26	C	1.089614	-0.310285	-0.127989
C27	C	1.089633	-0.689915	-0.128016
C28	C	1.258221	-0.000115	-0.121553
C29	C	1.360602	-0.000119	-0.123541
C30	C	1.096078	-0.000109	0.040591
C31	C	1.094090	-0.000109	0.142972
N32	N	1.089638	0.229801	-0.128027
C33	C	1.083168	-0.000089	-0.296605
C34	C	1.085156	-0.000083	-0.398987
C35	C	1.086770	-0.000085	0.517868
C36	C	1.088803	-0.000092	0.413560
C37	C	1.090430	-0.000098	0.330423
C38	C	1.092463	-0.000103	0.226109
H39	H	1.236858	-0.423511	-0.064981
F40	F	1.149441	-0.585376	0.040713
F41	F	1.259343	-0.583904	-0.068877
F42	F	1.198927	-0.585171	-0.251337
H43	H	1.059639	-0.422708	-0.282883
H44	H	0.975789	-0.422583	-0.037038
F45	F	1.036807	-0.583079	-0.298119
H46	H	1.152837	-0.424159	0.019470
H47	H	0.935649	-0.576078	-0.159098
H48	H	0.976656	-0.575193	-0.035703
F49	F	1.203861	-0.416511	-0.245150
H50	H	0.935536	-0.423877	-0.160258
