data_functionalizedCrystal
_audit_creation_method	'MofGen! by Chris Wilmer'
_symmetry_space_group_name_H-M	'P1'
_symmetry_Int_Tables_number	1
_symmetry_cell_setting	triclinic
loop_
_symmetry_equiv_pos_as_xyz
  x,y,z
_cell_length_a	18.050591
_cell_length_b	18.050590
_cell_length_c	21.395355
_cell_angle_alpha	90.018036
_cell_angle_beta	90.029394
_cell_angle_gamma	90.015000
loop_
_atom_site_label
_atom_site_type_symbol
_atom_site_fract_x
_atom_site_fract_y
_atom_site_fract_z
Zn1	Zn	1.135413	-0.295816	0.354344
Zn2	Zn	1.385413	-0.045816	0.604344
Zn3	Zn	1.635413	0.204184	0.854344
Zn4	Zn	1.885413	0.454184	1.104344
Zn5	Zn	1.135324	-0.419988	0.249568
Zn6	Zn	1.385324	-0.169988	0.499568
Zn7	Zn	1.635324	0.080012	0.749568
Zn8	Zn	1.885324	0.330012	0.999568
Zn9	Zn	1.011211	-0.295808	0.249572
Zn10	Zn	1.261211	-0.045808	0.499572
Zn11	Zn	1.511211	0.204192	0.749572
Zn12	Zn	1.761211	0.454192	0.999572
Zn13	Zn	1.011201	-0.419961	0.354299
Zn14	Zn	1.261201	-0.169961	0.604299
Zn15	Zn	1.511201	0.080039	0.854299
Zn16	Zn	1.761201	0.330039	1.104299
O17	O	1.073287	-0.357893	0.301946
O18	O	1.323287	-0.107893	0.551946
O19	O	1.573287	0.142107	0.801946
O20	O	1.823287	0.392107	1.051946
O21	O	1.239326	-0.312302	0.340463
O22	O	1.489326	-0.062302	0.590463
O23	O	1.739326	0.187698	0.840463
O24	O	1.989326	0.437698	1.090463
O25	O	1.118827	-0.403523	0.161891
O26	O	1.368827	-0.153523	0.411891
O27	O	1.618827	0.096477	0.661891
O28	O	1.868827	0.346477	0.911891
O29	O	1.027729	-0.191885	0.263491
O30	O	1.277729	0.058115	0.513491
O31	O	1.527729	0.308115	0.763491
O32	O	1.777729	0.558115	1.013491
O33	O	1.239260	-0.403530	0.263484
O34	O	1.489260	-0.153530	0.513484
O35	O	1.739260	0.096470	0.763484
O36	O	1.989260	0.346470	1.013484
O37	O	1.118979	-0.191890	0.340467
O38	O	1.368979	0.058110	0.590467
O39	O	1.618979	0.308110	0.840467
O40	O	1.868979	0.558110	1.090467
O41	O	1.027642	-0.312289	0.161894
O42	O	1.277642	-0.062289	0.411894
O43	O	1.527642	0.187711	0.661894
O44	O	1.777642	0.437711	0.911894
O45	O	0.907285	-0.312263	0.263447
O46	O	1.157285	-0.062263	0.513447
O47	O	1.407285	0.187737	0.763447
O48	O	1.657285	0.437737	1.013447
O49	O	1.027711	-0.403485	0.441983
O50	O	1.277711	-0.153485	0.691983
O51	O	1.527711	0.096515	0.941983
O52	O	1.777711	0.346515	1.191983
O53	O	0.907278	-0.403477	0.340390
O54	O	1.157278	-0.153477	0.590390
O55	O	1.407278	0.096523	0.840390
O56	O	1.657278	0.346523	1.090390
O57	O	1.118969	-0.312276	0.442016
O58	O	1.368969	-0.062276	0.692016
O59	O	1.618969	0.187724	0.942016
O60	O	1.868969	0.437724	1.192016
O61	O	1.118817	-0.523909	0.263440
O62	O	1.368817	-0.273909	0.513440
O63	O	1.618817	-0.023909	0.763440
O64	O	1.868817	0.226091	1.013440
O65	O	1.027625	-0.523889	0.340386
O66	O	1.277625	-0.273889	0.590386
O67	O	1.527625	-0.023889	0.840386
O68	O	1.777625	0.226111	1.090386
C69	C	0.880335	-0.357867	0.301915
C70	C	1.130335	-0.107867	0.551915
C71	C	1.380335	0.142133	0.801915
C72	C	1.630335	0.392133	1.051915
C73	C	0.797789	-0.357874	0.301916
C74	C	1.047789	-0.107874	0.551916
C75	C	1.297789	0.142126	0.801916
C76	C	1.547789	0.392126	1.051916
C77	C	0.548946	-0.308220	0.260174
C78	C	0.798946	-0.058220	0.510174
C79	C	1.048946	0.191780	0.760174
C80	C	1.298946	0.441780	1.010174
C81	C	0.598387	-0.290145	0.317355
C82	C	0.848387	-0.040145	0.567355
C83	C	1.098387	0.209855	0.817355
C84	C	1.348387	0.459855	1.067355
C85	C	0.500669	-0.357912	0.301967
C86	C	0.750669	-0.107912	0.551967
C87	C	1.000669	0.142088	0.801967
C88	C	1.250669	0.392088	1.051967
C89	C	0.598310	-0.375933	0.244765
C90	C	0.848310	-0.125933	0.494765
C91	C	1.098310	0.124067	0.744765
C92	C	1.348310	0.374067	0.994765
C93	C	0.646654	-0.357891	0.301939
C94	C	0.896654	-0.107891	0.551939
C95	C	1.146654	0.142109	0.801939
C96	C	1.396654	0.392109	1.051939
C97	C	0.549022	-0.339802	0.359179
C98	C	0.799022	-0.089802	0.609179
C99	C	1.049022	0.160198	0.859179
C100	C	1.299022	0.410198	1.109179
C101	C	0.548941	-0.425621	0.286550
C102	C	0.798941	-0.175621	0.536550
C103	C	1.048941	0.074379	0.786550
C104	C	1.298941	0.324379	1.036550
C105	C	0.598360	-0.407572	0.343770
C106	C	0.848360	-0.157572	0.593770
C107	C	1.098360	0.092428	0.843770
C108	C	1.348360	0.342428	1.093770
C109	C	0.416571	-0.357922	0.301983
C110	C	0.666571	-0.107922	0.551983
C111	C	0.916571	0.142078	0.801983
C112	C	1.166571	0.392078	1.051983
C113	C	0.730751	-0.357881	0.301930
C114	C	0.980751	-0.107881	0.551930
C115	C	1.230751	0.142119	0.801930
C116	C	1.480751	0.392119	1.051930
C117	C	1.073230	-0.550845	0.301921
C118	C	1.323230	-0.300845	0.551921
C119	C	1.573230	-0.050845	0.801921
C120	C	1.823230	0.199155	1.051921
C121	C	1.073274	-0.633391	0.301931
C122	C	1.323274	-0.383391	0.551931
C123	C	1.573274	-0.133391	0.801931
C124	C	1.823274	0.116609	1.051931
C125	C	1.122967	-0.832825	0.260147
C126	C	1.372967	-0.582825	0.510147
C127	C	1.622967	-0.332825	0.760147
C128	C	1.872967	-0.082825	1.010147
C129	C	1.141114	-0.882171	0.317332
C130	C	1.391114	-0.632171	0.567332
C131	C	1.641114	-0.382171	0.817332
C132	C	1.891114	-0.132171	1.067332
C133	C	1.073316	-0.784521	0.301956
C134	C	1.323316	-0.534521	0.551956
C135	C	1.573316	-0.284521	0.801956
C136	C	1.823316	-0.034521	1.051956
C137	C	1.055245	-0.882257	0.244797
C138	C	1.305245	-0.632257	0.494797
C139	C	1.555245	-0.382257	0.744797
C140	C	1.805245	-0.132257	0.994797
C141	C	1.073358	-0.930506	0.301975
C142	C	1.323358	-0.680506	0.551975
C143	C	1.573358	-0.430506	0.801975
C144	C	1.823358	-0.180506	1.051975
C145	C	1.091498	-0.832780	0.359172
C146	C	1.341498	-0.582780	0.609172
C147	C	1.591498	-0.332780	0.859172
C148	C	1.841498	-0.082780	1.109172
C149	C	1.005596	-0.832861	0.286598
C150	C	1.255596	-0.582861	0.536598
C151	C	1.505596	-0.332861	0.786598
C152	C	1.755596	-0.082861	1.036598
C153	C	1.023718	-0.882185	0.343822
C154	C	1.273718	-0.632185	0.593822
C155	C	1.523718	-0.382185	0.843822
C156	C	1.773718	-0.132185	1.093822
C157	C	1.073294	-0.700423	0.301944
C158	C	1.323294	-0.450423	0.551944
C159	C	1.573294	-0.200423	0.801944
C160	C	1.823294	0.049577	1.051944
C161	C	1.073380	-1.014603	0.301994
C162	C	1.323380	-0.764603	0.551994
C163	C	1.573380	-0.514603	0.801994
C164	C	1.823380	-0.264603	1.051994
C165	C	1.266993	-0.357920	0.301978
C166	C	1.516993	-0.107920	0.551978
C167	C	1.766993	0.142080	0.801978
C168	C	2.016993	0.392080	1.051978
C169	C	1.349539	-0.357931	0.301991
C170	C	1.599539	-0.107931	0.551991
C171	C	1.849539	0.142069	0.801991
C172	C	2.099539	0.392069	1.051991
C173	C	1.073349	-0.357878	0.465369
C174	C	1.323349	-0.107878	0.715369
C175	C	1.573349	0.142122	0.965369
C176	C	1.823349	0.392122	1.215369
C177	C	1.073375	-0.357872	0.535011
C178	C	1.323375	-0.107872	0.785011
C179	C	1.573375	0.142128	1.035011
C180	C	1.823375	0.392128	1.285011
C181	C	1.073365	-0.164188	0.301985
C182	C	1.323365	0.085812	0.551985
C183	C	1.573365	0.335812	0.801985
C184	C	1.823365	0.585812	1.051985
C185	C	1.073398	-0.081642	0.302001
C186	C	1.323398	0.168358	0.552001
C187	C	1.573398	0.418358	0.802001
C188	C	1.823398	0.668358	1.052001
C189	C	1.073269	-0.357855	0.139158
C190	C	1.323269	-0.107855	0.389158
C191	C	1.573269	0.142145	0.639158
C192	C	1.823269	0.392145	0.889158
C193	C	1.073386	-0.357652	0.069517
C194	C	1.323386	-0.107652	0.319517
C195	C	1.573386	0.142348	0.569517
C196	C	1.823386	0.392348	0.819517
C197	C	1.120891	-0.310377	0.567742
C198	C	1.370891	-0.060377	0.817742
C199	C	1.620891	0.189623	1.067742
C200	C	1.870891	0.439623	1.317742
C201	C	1.120890	-0.310345	0.633177
C202	C	1.370890	-0.060345	0.883177
C203	C	1.620890	0.189655	1.133177
C204	C	1.870890	0.439655	1.383177
C205	C	1.073381	-0.357821	0.665879
C206	C	1.323381	-0.107821	0.915879
C207	C	1.573381	0.142179	1.165879
C208	C	1.823381	0.392179	1.415879
C209	C	1.025856	-0.405319	0.633140
C210	C	1.275856	-0.155319	0.883140
C211	C	1.525856	0.094681	1.133140
C212	C	1.775856	0.344681	1.383140
C213	C	1.025853	-0.405344	0.567705
C214	C	1.275853	-0.155344	0.817705
C215	C	1.525853	0.094656	1.067705
C216	C	1.775853	0.344656	1.317705
C217	C	1.067497	-0.424690	0.769545
C218	C	1.317497	-0.174690	1.019545
C219	C	1.567497	0.075310	1.269545
C220	C	1.817497	0.325310	1.519545
C221	C	1.067505	-0.424666	0.834978
C222	C	1.317505	-0.174666	1.084978
C223	C	1.567505	0.075334	1.334978
C224	C	1.817505	0.325334	1.584978
C225	C	1.073386	-0.357743	0.867700
C226	C	1.323386	-0.107743	1.117700
C227	C	1.573386	0.142257	1.367700
C228	C	1.823386	0.392257	1.617700
C229	C	1.079273	-0.290841	0.834981
C230	C	1.329273	-0.040841	1.084981
C231	C	1.579273	0.209159	1.334981
C232	C	1.829273	0.459159	1.584981
C233	C	1.079271	-0.290867	0.769547
C234	C	1.329271	-0.040867	1.019547
C235	C	1.579271	0.209133	1.269547
C236	C	1.829271	0.459133	1.519547
C237	C	1.073379	-0.357799	0.736831
C238	C	1.323379	-0.107799	0.986831
C239	C	1.573379	0.142201	1.236831
C240	C	1.823379	0.392201	1.486831
C241	C	1.120903	-0.310210	0.971384
C242	C	1.370903	-0.060210	1.221384
C243	C	1.620903	0.189790	1.471384
C244	C	1.870903	0.439790	1.721384
C245	C	1.120897	-0.310176	1.036821
C246	C	1.370897	-0.060176	1.286821
C247	C	1.620897	0.189824	1.536821
C248	C	1.870897	0.439824	1.786821
C249	C	1.025866	-0.405156	1.036781
C250	C	1.275866	-0.155156	1.286781
C251	C	1.525866	0.094844	1.536781
C252	C	1.775866	0.344844	1.786781
C253	C	1.025869	-0.405183	0.971346
C254	C	1.275869	-0.155183	1.221346
C255	C	1.525869	0.094817	1.471346
C256	C	1.775869	0.344817	1.721346
C257	C	1.073391	-0.357711	0.938651
C258	C	1.323391	-0.107711	1.188651
C259	C	1.573391	0.142289	1.438651
C260	C	1.823391	0.392289	1.688651
H261	H	0.619918	-0.449586	0.379142
H262	H	0.869918	-0.199586	0.629142
H263	H	1.119918	0.050414	0.879142
H264	H	1.369918	0.300414	1.129142
H265	H	0.527252	-0.266174	0.224886
H266	H	0.777252	-0.016174	0.474886
H267	H	1.027252	0.233826	0.724886
H268	H	1.277252	0.483826	0.974886
H269	H	0.527461	-0.324484	0.407556
H270	H	0.777461	-0.074484	0.657556
H271	H	1.027461	0.175516	0.907556
H272	H	1.277461	0.425516	1.157556
Cl273	Cl	1.115237	-0.799373	0.433836
Cl274	Cl	1.365237	-0.549373	0.683836
Cl275	Cl	1.615237	-0.299373	0.933836
Cl276	Cl	1.865237	-0.049373	1.183836
H277	H	1.198401	-0.903833	0.330334
H278	H	1.448401	-0.653833	0.580334
H279	H	1.698401	-0.403833	0.830334
H280	H	1.948401	-0.153833	1.080334
H281	H	0.987156	-0.444019	0.541056
H282	H	1.237156	-0.194019	0.791056
H283	H	1.487156	0.055981	1.041056
H284	H	1.737156	0.305981	1.291056
Cl285	Cl	1.031619	-0.915812	0.170154
Cl286	Cl	1.281619	-0.665812	0.420154
Cl287	Cl	1.531619	-0.415812	0.670154
Cl288	Cl	1.781619	-0.165812	0.920154
H289	H	0.987171	-0.443972	0.659769
H290	H	1.237171	-0.193972	0.909769
H291	H	1.487171	0.056028	1.159769
H292	H	1.737171	0.306028	1.409769
H293	H	0.620092	-0.232874	0.330394
H294	H	0.870092	0.017126	0.580394
H295	H	1.120092	0.267126	0.830394
H296	H	1.370092	0.517126	1.080394
Cl297	Cl	0.515379	-0.514014	0.266402
Cl298	Cl	0.765379	-0.264014	0.516402
Cl299	Cl	1.015379	-0.014014	0.766402
Cl300	Cl	1.265379	0.235986	1.016402
H301	H	0.619963	-0.391183	0.196401
H302	H	0.869963	-0.141183	0.446401
H303	H	1.119963	0.108817	0.696401
H304	H	1.369963	0.358817	0.946401
H305	H	1.159589	-0.271496	1.063469
H306	H	1.409589	-0.021496	1.313469
H307	H	1.659589	0.228504	1.563469
H308	H	1.909589	0.478504	1.813469
Cl309	Cl	1.086669	-0.206704	0.876110
Cl310	Cl	1.336669	0.043296	1.126110
Cl311	Cl	1.586669	0.293296	1.376110
Cl312	Cl	1.836669	0.543296	1.626110
Cl313	Cl	0.958918	-0.915440	0.398484
Cl314	Cl	1.208918	-0.665440	0.648484
Cl315	Cl	1.458918	-0.415440	0.898484
Cl316	Cl	1.708918	-0.165440	1.148484
Cl317	Cl	1.187812	-0.799360	0.205614
Cl318	Cl	1.437812	-0.549360	0.455614
Cl319	Cl	1.687812	-0.299360	0.705614
Cl320	Cl	1.937812	-0.049360	0.955614
H321	H	1.062510	-0.479173	0.742908
H322	H	1.312510	-0.229173	0.992908
H323	H	1.562510	0.020827	1.242908
H324	H	1.812510	0.270827	1.492908
Cl325	Cl	1.180614	-0.250618	0.674334
Cl326	Cl	1.430614	-0.000618	0.924334
Cl327	Cl	1.680614	0.249382	1.174334
Cl328	Cl	1.930614	0.499382	1.424334
Cl329	Cl	0.917171	-0.799395	0.266499
Cl330	Cl	1.167171	-0.549395	0.516499
Cl331	Cl	1.417171	-0.299395	0.766499
Cl332	Cl	1.667171	-0.049395	1.016499
H333	H	1.159594	-0.271551	0.944762
H334	H	1.409594	-0.021551	1.194762
H335	H	1.659594	0.228449	1.444762
H336	H	1.909594	0.478449	1.694762
Cl337	Cl	1.180629	-0.250693	0.526643
Cl338	Cl	1.430629	-0.000693	0.776643
Cl339	Cl	1.680629	0.249307	1.026643
Cl340	Cl	1.930629	0.499307	1.276643
H341	H	1.084063	-0.236394	0.742910
H342	H	1.334063	0.013606	0.992910
H343	H	1.584063	0.263606	1.242910
H344	H	1.834063	0.513606	1.492910
H345	H	0.987176	-0.443805	1.063406
H346	H	1.237176	-0.193805	1.313406
H347	H	1.487176	0.056195	1.563406
H348	H	1.737176	0.306195	1.813406
H349	H	0.987180	-0.443863	0.944696
H350	H	1.237180	-0.193863	1.194696
H351	H	1.487180	0.056137	1.444696
H352	H	1.737180	0.306137	1.694696
H353	H	1.062716	-0.479141	0.861612
H354	H	1.312716	-0.229141	1.111612
H355	H	1.562716	0.020859	1.361612
H356	H	1.812716	0.270859	1.611612
