data_functionalizedCrystal
_audit_creation_method	'MofGen! by Chris Wilmer'
_symmetry_space_group_name_H-M	'P1'
_symmetry_Int_Tables_number	1
_symmetry_cell_setting	triclinic
loop_
_symmetry_equiv_pos_as_xyz
  x,y,z
_cell_length_a	17.038272
_cell_length_b	10.654541
_cell_length_c	9.130307
_cell_angle_alpha	90.000178
_cell_angle_beta	89.996293
_cell_angle_gamma	92.202258
loop_
_atom_site_label
_atom_site_type_symbol
_atom_site_fract_x
_atom_site_fract_y
_atom_site_fract_z
O1	O	0.109868	-1.678040	-0.121756
O2	O	0.120338	-1.313534	-0.121769
O3	O	0.001275	-1.493621	-0.121751
O4	O	0.228930	-1.497953	-0.121774
O5	O	0.001274	-1.493614	0.121848
O6	O	0.120337	-1.313527	0.121830
O7	O	0.109867	-1.678034	0.121843
Cu8	Cu	0.115102	-1.495780	0.144079
Cu9	Cu	0.115103	-1.495788	-0.144005
O10	O	0.228929	-1.497947	0.121825
C11	C	-0.027875	-1.489677	0.000048
C12	C	-0.114734	-1.477920	0.000047
C13	C	0.119569	-1.266661	0.000029
C14	C	0.117270	-1.127004	0.000024
N15	N	0.115100	-1.495784	0.346702
C16	C	-0.164246	-1.585864	0.000053
C17	C	-0.245858	-1.574809	0.000038
C18	C	-0.277957	-1.455809	0.000029
C19	C	-0.228439	-1.347857	0.000019
C20	C	-0.146828	-1.358913	0.000023
C21	C	-0.523933	-1.416751	0.000008
C22	C	-0.605550	-1.405704	0.000008
C23	C	-0.622963	-1.632657	0.000025
C24	C	-0.541350	-1.643703	0.000037
C25	C	-0.491839	-1.535750	0.000020
C26	C	-0.361377	-1.444507	0.000019
C27	C	-0.408420	-1.547054	0.000019
C28	C	0.258080	-1.501891	0.000022
C29	C	0.344939	-1.513648	0.000014
C30	C	0.110635	-1.724907	0.000042
C31	C	0.112934	-1.864564	0.000037
C32	C	0.259642	-1.112253	-0.000008
C33	C	0.329744	-1.039268	-0.000031
C34	C	0.327580	-0.908049	-0.000032
C35	C	0.255304	-0.849813	-0.000006
C36	C	0.185202	-0.922798	0.000016
C37	C	0.187374	-1.054019	0.000013
C38	C	0.042832	-0.937548	0.000059
C39	C	0.044995	-1.068768	0.000050
C40	C	-0.029443	-0.879312	0.000084
C41	C	-0.099548	-0.952297	0.000096
C42	C	-0.097380	-1.083524	0.000096
C43	C	-0.025108	-1.141753	0.000072
N44	N	0.115098	-1.495793	-0.346628
C45	C	0.009701	-1.655324	0.346708
C46	C	-0.042996	-1.735102	0.423377
C47	C	-0.042997	-1.735114	0.576711
C48	C	0.009704	-1.655337	0.653378
C49	C	0.062402	-1.575559	0.576708
C50	C	0.062398	-1.575558	0.423371
C51	C	0.167796	-1.416015	0.576702
C52	C	0.167801	-1.416007	0.423369
C53	C	0.220496	-1.336238	0.653370
C54	C	0.273199	-1.256464	0.576700
C55	C	0.273198	-1.256456	0.423357
C56	C	0.220498	-1.336228	0.346699
H57	H	-0.138118	-1.682766	0.000069
H58	H	0.253548	-0.742967	0.000010
H59	H	-0.085906	-1.800053	0.360942
H60	H	-0.154466	-1.142941	0.000119
H61	H	0.220496	-1.336233	0.221847
H62	H	0.220490	-1.336246	0.778222
C63	C	0.262030	-1.256597	-0.000022
N64	N	0.263831	-1.365318	-0.000031
C65	C	-0.300318	-1.693558	0.000068
N66	N	-0.341337	-1.783005	0.000098
H67	H	-0.023336	-1.248597	0.000054
C68	C	0.331157	-1.168708	0.661043
N69	N	0.374812	-1.102609	0.724576
H70	H	-0.387521	-1.347616	0.000015
H71	H	0.316107	-1.191485	0.360941
H72	H	-0.515222	-1.740605	0.000045
H73	H	-0.663284	-1.720546	0.000036
H74	H	0.388590	-1.086699	-0.000047
C75	C	-0.031823	-0.734967	0.000084
N76	N	-0.033616	-0.626245	0.000079
H77	H	0.384663	-0.848624	-0.000040
H78	H	-0.158388	-0.904870	0.000115
H79	H	0.009703	-1.655332	0.221856
H80	H	0.009694	-1.655341	0.778230
C81	C	-0.640856	-1.274789	-0.000013
N82	N	-0.667448	-1.176189	-0.000029
C83	C	-0.469481	-1.297999	-0.000019
N84	N	-0.428465	-1.208548	-0.000044
H85	H	-0.085910	-1.800072	0.639135
H86	H	-0.254580	-1.250964	0.000003
H87	H	-0.382282	-1.643943	-0.000006
H88	H	-0.106516	-1.271013	0.000019
