data_functionalizedCrystal
_audit_creation_method	'MofGen! by Chris Wilmer'
_symmetry_space_group_name_H-M	'P1'
_symmetry_Int_Tables_number	1
_symmetry_cell_setting	triclinic
loop_
_symmetry_equiv_pos_as_xyz
  x,y,z
_cell_length_a	16.120530
_cell_length_b	21.295417
_cell_length_c	16.120297
_cell_angle_alpha	87.131911
_cell_angle_beta	89.871860
_cell_angle_gamma	87.125028
loop_
_atom_site_label
_atom_site_type_symbol
_atom_site_fract_x
_atom_site_fract_y
_atom_site_fract_z
Zn1	Zn	1.247396	-0.318916	0.534531
Zn2	Zn	1.254333	-0.419126	0.395463
Zn3	Zn	1.115388	-0.308279	0.388451
Zn4	Zn	1.108290	-0.418546	0.527433
O5	O	1.181352	-0.366216	0.461470
O6	O	1.364682	-0.336903	0.521989
O7	O	1.241776	-0.400212	0.278168
O8	O	1.132967	-0.221604	0.407864
O9	O	1.369779	-0.410527	0.419817
O10	O	1.229953	-0.229419	0.515189
O11	O	1.139693	-0.318774	0.273016
O12	O	0.998081	-0.318211	0.400981
O13	O	1.120869	-0.409539	0.644739
O14	O	0.992866	-0.399224	0.503091
O15	O	1.223070	-0.336341	0.649955
O16	O	1.234893	-0.507134	0.412933
O17	O	1.127595	-0.506708	0.509891
C18	C	0.965301	-0.357501	0.450505
C19	C	0.872872	-0.353789	0.445834
C20	C	0.703644	-0.346996	0.437314
C21	C	0.659897	-0.385485	0.485686
C22	C	0.565733	-0.381706	0.480945
C23	C	0.797817	-0.350775	0.442053
C24	C	1.181248	-0.529762	0.461422
C25	C	1.181278	-0.599732	0.461433
C26	C	1.231746	-0.636611	0.517354
C27	C	1.231775	-0.702355	0.517376
C28	C	1.181344	-0.731218	0.461463
C29	C	1.130866	-0.694331	0.405538
C30	C	1.130833	-0.628588	0.405523
N31	N	1.178754	-0.831581	0.388371
N32	N	1.178790	-0.894035	0.388388
C33	C	1.181440	-0.929298	0.461505
N34	N	1.184068	-0.899749	0.534608
N35	N	1.184036	-0.837290	0.534591
C36	C	1.181374	-0.802505	0.461473
C37	C	1.231941	-1.037465	0.517455
C38	C	1.231963	-1.103210	0.517478
C39	C	1.131059	-1.095184	0.405633
C40	C	1.131032	-1.029440	0.405617
C41	C	1.181478	-1.000585	0.461527
C42	C	1.398246	-0.374966	0.472477
C43	C	1.490674	-0.378695	0.477168
C44	C	1.170404	-0.374062	0.678363
C45	C	1.165738	-0.377405	0.770790
C46	C	1.181478	-0.202034	0.461536
C47	C	1.181531	-0.132069	0.461565
C48	C	1.192305	-0.358358	0.245422
C49	C	1.197132	-0.354844	0.153004
C50	C	1.157190	-0.383494	0.940014
C51	C	1.205678	-0.348757	0.983785
C52	C	1.200922	-0.352145	1.077947
C53	C	1.161945	-0.380107	0.845843
H54	H	1.272820	-0.613119	0.562881
H55	H	1.112109	-0.415775	0.973256
H56	H	0.693165	-0.421275	0.530661
C57	C	0.992303	-1.002171	0.357837
C58	C	1.075564	-0.988900	0.344136
H59	H	0.958058	-0.977146	0.319876
H60	H	0.977267	-0.992911	0.413068
H61	H	0.985116	-1.045458	0.349845
H62	H	1.082752	-0.945615	0.352135
H63	H	1.090605	-0.998157	0.288892
C64	C	0.717449	-0.263826	0.332782
C65	C	0.658742	-0.298686	0.376598
H66	H	0.689720	-0.234001	0.295302
H67	H	0.752911	-0.291394	0.302582
H68	H	0.749522	-0.242432	0.370747
H69	H	0.626673	-0.320083	0.338632
H70	H	0.623265	-0.271113	0.406799
C71	C	1.331508	-0.703692	0.627930
C72	C	1.287245	-0.742903	0.578856
H73	H	1.365753	-0.728724	0.665884
H74	H	1.293636	-0.677751	0.657857
H75	H	1.365167	-0.678014	0.593330
H76	H	1.253582	-0.768578	0.613456
H77	H	1.325122	-0.768855	0.548927
H78	H	1.250762	-0.316474	0.950541
H79	H	1.089803	-0.717835	0.360015
H80	H	1.089735	-0.598560	0.359985
C81	C	1.331665	-1.051999	0.628025
C82	C	1.287372	-1.005742	0.578924
H83	H	1.365879	-1.032414	0.665978
H84	H	1.365348	-1.077602	0.593447
H85	H	1.293804	-1.077346	0.657959
H86	H	1.325233	-0.980397	0.548984
H87	H	1.253686	-0.980128	0.613505
C88	C	1.237827	-1.181599	0.629950
C89	C	1.287443	-1.143749	0.578953
H90	H	1.272080	-1.206622	0.667906
H91	H	1.207800	-1.208195	0.596659
H92	H	1.199960	-1.155647	0.659881
H93	H	1.325305	-1.169701	0.549017
H94	H	1.317483	-1.117150	0.612248
C95	C	1.086301	-1.192396	0.356000
C96	C	1.075619	-1.126903	0.344176
H97	H	1.052072	-1.211978	0.318057
H98	H	1.071274	-1.204682	0.411239
H99	H	1.142800	-1.204945	0.346707
H100	H	1.019120	-1.114353	0.353474
H101	H	1.090640	-1.114612	0.288923
