data_functionalizedCrystal
_audit_creation_method	'MofGen! by Chris Wilmer'
_symmetry_space_group_name_H-M	'P1'
_symmetry_Int_Tables_number	1
_symmetry_cell_setting	triclinic
loop_
_symmetry_equiv_pos_as_xyz
  x,y,z
_cell_length_a	10.654559
_cell_length_b	16.109301
_cell_length_c	15.186229
_cell_angle_alpha	89.994833
_cell_angle_beta	90.003572
_cell_angle_gamma	96.024918
loop_
_atom_site_label
_atom_site_type_symbol
_atom_site_fract_x
_atom_site_fract_y
_atom_site_fract_z
O1	O	1.666248	-0.116809	0.073237
O2	O	1.300620	-0.127927	0.073238
O3	O	1.493478	-0.001397	0.073228
O4	O	1.473390	-0.243339	0.073246
O5	O	1.493465	-0.001395	-0.073229
O6	O	1.300607	-0.127925	-0.073220
O7	O	1.666235	-0.116807	-0.073221
Zn8	Zn	1.483419	-0.122366	-0.096473
Zn9	Zn	1.483436	-0.122368	0.096490
O10	O	1.473377	-0.243337	-0.073211
C11	C	1.253827	-0.127108	0.000009
C12	C	1.114417	-0.124661	0.000009
C13	C	1.063920	-0.047862	0.000001
C14	C	0.932929	-0.045568	0.000007
C15	C	0.902944	-0.196878	0.000026
C16	C	1.033932	-0.199171	0.000026
C17	C	1.144405	0.026648	-0.000016
C18	C	1.093908	0.103453	-0.000025
C19	C	0.962917	0.105748	-0.000019
C20	C	0.882423	0.031237	-0.000003
C21	C	1.492658	0.029584	-0.000001
C22	C	1.490218	0.121894	-0.000002
C23	C	1.713028	-0.117626	0.000010
C24	C	1.852438	-0.120073	0.000016
C25	C	1.474197	-0.274318	0.000020
C26	C	1.476637	-0.366628	0.000027
N27	N	1.483417	-0.122364	-0.228166
C28	C	1.598984	0.343517	0.000011
C29	C	1.596682	0.430251	0.000019
C30	C	1.367862	0.411742	0.000016
C31	C	1.370166	0.325010	0.000015
C32	C	1.485730	0.290900	0.000008
C33	C	1.481125	0.464366	0.000016
C34	C	1.478628	0.558407	0.000024
C35	C	1.488228	0.196853	0.000002
C36	C	1.568843	-0.066356	-0.453893
C37	C	1.568847	-0.066354	-0.546083
C38	C	1.398013	-0.178375	-0.546084
C39	C	1.398004	-0.178372	-0.453896
C40	C	1.483426	-0.122363	-0.407803
C41	C	1.483439	-0.122364	-0.592180
C42	C	1.483443	-0.122363	-0.692137
C43	C	1.483421	-0.122364	-0.307840
N44	N	1.483448	-0.122364	0.228183
H45	H	1.251066	0.024789	-0.000024
H46	H	1.638400	-0.020746	-0.583607
H47	H	1.638398	-0.020749	-0.416367
O48	O	1.314994	-0.232668	-0.590959
C49	C	1.237530	-0.187667	-0.644284
H50	H	1.287573	-0.122916	-0.658096
H51	H	1.217661	-0.222249	-0.709108
H52	H	1.144717	-0.181448	-0.608767
O53	O	1.711207	0.310342	-0.000141
C54	C	1.719381	0.260717	-0.075981
H55	H	1.653766	0.281606	-0.129002
H56	H	1.820597	0.267923	-0.101435
H57	H	1.690394	0.192496	-0.058834
H58	H	1.159454	0.164117	-0.000030
O59	O	0.824628	-0.269197	0.000151
C60	C	0.747988	-0.272407	0.076013
H61	H	0.741387	-0.206378	0.101296
H62	H	0.649529	-0.302811	0.058954
H63	H	0.791073	-0.310627	0.129130
H64	H	0.775762	0.033111	0.000010
O65	O	1.314978	-0.232862	-0.409254
C66	C	1.239570	-0.282288	-0.469702
H67	H	1.291058	-0.283551	-0.535413
H68	H	1.220380	-0.348565	-0.443055
H69	H	1.146298	-0.254718	-0.479519
H70	H	0.921806	0.168286	-0.000017
O71	O	1.706813	0.481244	-0.000020
C72	C	1.809299	0.432535	-0.000002
H73	H	1.777396	0.368000	-0.027733
H74	H	1.888647	0.464071	-0.042522
H75	H	1.844728	0.426146	0.070260
H76	H	1.075048	-0.261708	0.000024
H77	H	1.273774	0.439525	0.000019
H78	H	1.277935	0.282166	0.000015
