data_functionalizedCrystal
_audit_creation_method	'MofGen! by Chris Wilmer'
_symmetry_space_group_name_H-M	'P1'
_symmetry_Int_Tables_number	1
_symmetry_cell_setting	triclinic
loop_
_symmetry_equiv_pos_as_xyz
  x,y,z
_cell_length_a	13.635800
_cell_length_b	16.389951
_cell_length_c	12.908943
_cell_angle_alpha	93.698541
_cell_angle_beta	100.860631
_cell_angle_gamma	129.354854
loop_
_atom_site_label
_atom_site_type_symbol
_atom_site_fract_x
_atom_site_fract_y
_atom_site_fract_z
V1	V	2.080770	0.147492	0.343109
O2	O	1.987408	-0.008469	0.321597
O3	O	2.138621	0.293781	0.355171
O4	O	2.048297	0.144617	0.486178
O5	O	2.078358	0.141727	0.189683
V6	V	2.313024	0.128909	0.323008
O7	O	2.232255	0.188256	0.387203
O8	O	2.386638	0.088145	0.278914
O9	O	2.143570	-0.017380	0.310946
O10	O	2.465084	0.284870	0.344521
O11	O	2.374135	0.134674	0.476434
O12	O	2.233894	0.131784	0.179940
V13	V	2.580770	0.147492	0.343109
O14	O	2.487408	-0.008469	0.321597
O15	O	2.638621	0.293781	0.355171
O16	O	2.548297	0.144617	0.486178
O17	O	2.578358	0.141727	0.189683
V18	V	2.813024	0.128909	0.323008
O19	O	2.732255	0.188256	0.387203
O20	O	2.886638	0.088145	0.278914
O21	O	2.643570	-0.017380	0.310946
O22	O	2.965084	0.284870	0.344521
O23	O	2.874135	0.134674	0.476434
O24	O	2.733894	0.131784	0.179940
C25	C	2.081350	0.329462	0.353476
C26	C	2.169239	0.449050	0.364292
C27	C	2.532515	-0.053055	0.312639
C28	C	2.434246	-0.172643	0.301830
C29	C	2.286355	0.643836	0.188591
C30	C	2.368932	0.756200	0.198748
C31	C	2.416981	0.786144	0.394763
C32	C	2.334403	0.673780	0.384606
C33	C	2.269090	0.602630	0.281516
C34	C	2.186504	0.490264	0.271360
C35	C	2.234561	0.520210	0.467374
C36	C	2.317139	0.632574	0.477531
C37	C	1.966132	0.139187	0.520587
C38	C	1.980766	0.137804	0.637640
C39	C	2.032515	-0.053055	0.312639
C40	C	1.934246	-0.172643	0.301830
C41	C	2.147733	0.137217	0.145526
C42	C	2.122714	0.138594	0.028470
C43	C	2.581350	0.329462	0.353476
C44	C	2.669239	0.449050	0.364292
C45	C	2.195879	0.145881	0.869377
C46	C	2.209634	0.144583	0.979360
C47	C	2.022028	0.133901	0.967589
C48	C	2.008273	0.135199	0.857606
C49	C	2.095203	0.141192	0.808505
C50	C	2.081452	0.142498	0.698522
C51	C	1.893842	0.131808	0.686751
C52	C	1.907597	0.130510	0.796734
C53	C	2.466132	0.139187	0.520587
C54	C	2.480766	0.137804	0.637640
C55	C	2.647733	0.137217	0.145526
C56	C	2.622714	0.138594	0.028470
C57	C	1.971583	-0.234266	0.290952
C58	C	1.879256	-0.346635	0.280779
C59	C	1.749595	-0.397378	0.281491
C60	C	1.712257	-0.335747	0.292366
C61	C	1.804581	-0.223381	0.302532
C62	C	2.804396	0.510674	0.375173
C63	C	2.886995	0.623044	0.385351
C64	C	2.834432	0.673787	0.384642
C65	C	2.699263	0.612155	0.373763
C66	C	2.616668	0.499789	0.363592
C67	C	2.562230	0.235614	0.717305
C68	C	2.576007	0.234332	0.827294
C69	C	2.508313	0.135238	0.857616
C70	C	2.426845	0.037421	0.777943
C71	C	2.413076	0.038705	0.667956
C72	C	2.695270	0.237701	-0.001820
C73	C	2.671764	0.239012	-0.111800
C74	C	2.575709	0.141216	-0.191490
C75	C	2.503146	0.042101	-0.161194
C76	C	2.526645	0.040792	-0.051215
H77	H	2.133319	0.432333	0.187418
Br78	Br	2.313866	0.154034	0.802739
H79	H	2.152240	0.147381	0.658547
Br80	Br	2.372790	-0.090615	-0.269359
H81	H	1.811865	0.127994	0.637178
Br82	Br	1.904068	0.125773	1.034246
Br83	Br	1.624313	-0.549878	0.267690
Br84	Br	2.627947	0.681037	0.372798
H85	H	1.909683	-0.396800	0.271926
H86	H	2.220494	0.486649	0.543040
Br87	Br	2.197692	0.547269	0.048688
H88	H	2.077154	-0.192967	0.290372
Br89	Br	2.392367	0.812121	0.072630
Br90	Br	2.334975	-0.097056	0.819112
H91	H	2.470187	0.844094	0.478694
Br92	Br	2.346265	0.150941	1.061969
H93	H	2.370331	0.690519	0.561463
Br94	Br	1.536279	-0.404630	0.293321
H95	H	1.774165	-0.173214	0.311398
Br96	Br	2.825640	0.370442	0.106310
H97	H	2.346733	-0.040947	0.603098
H98	H	1.836821	0.125627	0.836726
H99	H	2.847216	0.469374	0.375746
H100	H	2.617356	0.316312	0.692634
Br101	Br	3.070429	0.706663	0.400110
H102	H	2.901701	0.765284	0.392925
H103	H	2.556586	0.142297	-0.281039
H104	H	2.506615	0.449621	0.354728
H105	H	2.642343	0.313989	0.892152
Br106	Br	2.770260	0.373534	-0.152890
Br107	Br	2.527014	0.133515	1.006891
Br108	Br	2.428166	-0.093725	-0.010125
