data_functionalizedCrystal
_audit_creation_method	'MofGen! by Chris Wilmer'
_symmetry_space_group_name_H-M	'P1'
_symmetry_Int_Tables_number	1
_symmetry_cell_setting	triclinic
loop_
_symmetry_equiv_pos_as_xyz
  x,y,z
_cell_length_a	17.038272
_cell_length_b	16.109301
_cell_length_c	14.586319
_cell_angle_alpha	90.000787
_cell_angle_beta	89.995924
_cell_angle_gamma	92.713482
loop_
_atom_site_label
_atom_site_type_symbol
_atom_site_fract_x
_atom_site_fract_y
_atom_site_fract_z
O1	O	0.100495	-1.110268	-0.076183
O2	O	0.433828	-0.776934	0.257150
O3	O	0.767162	-0.443601	0.590484
O4	O	0.113001	-0.869094	-0.076198
O5	O	0.446335	-0.535761	0.257136
O6	O	0.779668	-0.202427	0.590469
O7	O	-0.007067	-0.988248	-0.076183
O8	O	0.326266	-0.654914	0.257150
O9	O	0.659599	-0.321581	0.590483
O10	O	0.220564	-0.991114	-0.076198
O11	O	0.553897	-0.657781	0.257136
O12	O	0.887230	-0.324448	0.590469
O13	O	-0.007069	-0.988239	0.076298
O14	O	0.326264	-0.654905	0.409631
O15	O	0.659598	-0.321572	0.742964
O16	O	0.113000	-0.869085	0.076283
O17	O	0.446333	-0.535752	0.409616
O18	O	0.779666	-0.202418	0.742950
O19	O	0.100493	-1.110259	0.076298
O20	O	0.433827	-0.776925	0.409631
O21	O	0.767160	-0.443592	0.742964
Cu22	Cu	0.106746	-0.989671	0.090213
Cu23	Cu	0.440080	-0.656338	0.423546
Cu24	Cu	0.773413	-0.323004	0.756880
Cu25	Cu	0.106748	-0.989682	-0.090113
Cu26	Cu	0.440082	-0.656348	0.243220
Cu27	Cu	0.773415	-0.323015	0.576554
O28	O	0.220562	-0.991105	0.076283
O29	O	0.553895	-0.657772	0.409617
O30	O	0.887228	-0.324439	0.742950
C31	C	0.112494	-0.838079	0.000041
C32	C	0.445827	-0.504745	0.333374
C33	C	0.779161	-0.171412	0.666708
C34	C	0.110975	-0.745676	0.000035
C35	C	0.444308	-0.412342	0.333369
C36	C	0.777642	-0.079009	0.666702
C37	C	-0.036196	-0.985636	0.000057
C38	C	0.297137	-0.652302	0.333390
C39	C	0.630470	-0.318969	0.666724
C40	C	-0.122989	-0.977857	0.000056
C41	C	0.210344	-0.644523	0.333390
C42	C	0.543678	-0.311190	0.666723
N43	N	0.106744	-0.989670	0.217045
N44	N	0.440078	-0.656336	0.550378
N45	N	0.773411	-0.323003	0.883712
C46	C	-0.173104	-1.049277	0.000062
C47	C	0.160229	-0.715944	0.333395
C48	C	0.493563	-0.382611	0.666728
C49	C	-0.254654	-1.041963	0.000052
C50	C	0.078679	-0.708630	0.333386
C51	C	0.412012	-0.375297	0.666719
C52	C	-0.286089	-0.963228	0.000044
C53	C	0.047245	-0.629894	0.333378
C54	C	0.380578	-0.296561	0.666711
C55	C	-0.235967	-0.891802	0.000036
C56	C	0.097366	-0.558468	0.333370
C57	C	0.430699	-0.225135	0.666703
C58	C	-0.154418	-0.899116	0.000039
C59	C	0.178915	-0.565783	0.333372
C60	C	0.512248	-0.232450	0.666706
C61	C	-0.531846	-0.937385	0.000030
C62	C	-0.198513	-0.604052	0.333364
C63	C	0.134820	-0.270718	0.666697
C64	C	-0.613402	-0.930076	0.000031
C65	C	-0.280068	-0.596742	0.333364
C66	C	0.053265	-0.263409	0.666697
C67	C	-0.632083	-1.080238	0.000045
C68	C	-0.298750	-0.746905	0.333378
C69	C	0.034584	-0.413571	0.666711
C70	C	-0.550532	-1.087546	0.000053
C71	C	-0.217198	-0.754213	0.333386
C72	C	0.116135	-0.420879	0.666720
C73	C	-0.500418	-1.016120	0.000040
C74	C	-0.167084	-0.682787	0.333373
C75	C	0.166249	-0.349453	0.666707
C76	C	-0.369446	-0.955749	0.000038
C77	C	-0.036113	-0.622416	0.333371
C78	C	0.297221	-0.289083	0.666705
C79	C	-0.417062	-1.023599	0.000040
C80	C	-0.083728	-0.690266	0.333373
C81	C	0.249605	-0.356932	0.666707
C82	C	0.249691	-0.993717	0.000041
C83	C	0.583024	-0.660384	0.333374
C84	C	0.916358	-0.327050	0.666708
C85	C	0.336484	-1.001496	0.000036
C86	C	0.669817	-0.668163	0.333369
C87	C	1.003150	-0.334830	0.666702
C88	C	0.101001	-1.141274	0.000057
C89	C	0.434334	-0.807941	0.333391
C90	C	0.767667	-0.474608	0.666724
C91	C	0.102519	-1.233677	0.000057
C92	C	0.435853	-0.900344	0.333390
C93	C	0.769186	-0.567011	0.666723
C94	C	0.178690	-0.528212	0.000042
C95	C	0.512023	-0.194879	0.333375
C96	C	0.845356	0.138455	0.666709
C97	C	0.177257	-0.441390	0.000048
C98	C	0.510590	-0.108057	0.333381
C99	C	0.843923	0.225277	0.666714
C100	C	0.034799	-0.451147	0.000053
C101	C	0.368133	-0.117814	0.333386
C102	C	0.701466	0.215519	0.666720
C103	C	0.036233	-0.537968	0.000054
C104	C	0.369567	-0.204634	0.333387
C105	C	0.702900	0.128699	0.666720
C106	C	0.108181	-0.576498	0.000043
C107	C	0.441514	-0.243164	0.333377
C108	C	0.774848	0.090169	0.666710
C109	C	0.105314	-0.402855	0.000049
C110	C	0.438647	-0.069522	0.333382
C111	C	0.771980	0.263812	0.666715
C112	C	0.103759	-0.308719	0.000055
C113	C	0.437093	0.024615	0.333389
C114	C	0.770426	0.357948	0.666722
C115	C	0.109736	-0.670640	0.000039
C116	C	0.443069	-0.337307	0.333372
C117	C	0.776402	-0.003974	0.666705
N118	N	0.106744	-0.989689	-0.216945
N119	N	0.440077	-0.656356	0.116389
N120	N	0.773411	-0.323023	0.449722
C121	C	0.053596	-1.042451	0.452058
C122	C	0.386929	-0.709117	0.785391
C123	C	0.720262	-0.375784	1.118724
C124	C	0.053594	-1.042453	0.548039
C125	C	0.386927	-0.709120	0.881372
C126	C	0.720260	-0.375786	1.214706
C127	C	0.159895	-0.936902	0.548036
C128	C	0.493229	-0.603569	0.881369
C129	C	0.826562	-0.270236	1.214702
C130	C	0.159893	-0.936896	0.452056
C131	C	0.493226	-0.603563	0.785389
C132	C	0.826559	-0.270230	1.118723
C133	C	0.106744	-0.989675	0.404070
C134	C	0.440077	-0.656342	0.737403
C135	C	0.773411	-0.323009	1.070736
C136	C	0.106744	-0.989684	0.596030
C137	C	0.440078	-0.656350	0.929364
C138	C	0.773411	-0.323017	1.262697
C139	C	0.106743	-0.989686	0.700098
C140	C	0.440076	-0.656352	1.033431
C141	C	0.773409	-0.323019	1.366764
C142	C	0.106744	-0.989672	0.299996
C143	C	0.440078	-0.656339	0.633329
C144	C	0.773411	-0.323006	0.966663
H145	H	-0.147517	-1.113392	0.000074
H146	H	0.185816	-0.780059	0.333407
H147	H	0.519149	-0.446726	0.666740
H148	H	0.203173	-0.893916	0.412982
H149	H	0.536506	-0.560583	0.746315
H150	H	0.869839	-0.227250	1.079648
N151	N	-0.003727	-1.099372	0.400299
N152	N	0.329606	-0.766039	0.733632
N153	N	0.662940	-0.432706	1.066965
H154	H	-0.037397	-1.132804	0.445267
H155	H	0.295936	-0.799471	0.778600
H156	H	0.629270	-0.466137	1.111934
H157	H	-0.038301	-1.065098	0.360483
H158	H	0.295033	-0.731764	0.693816
H159	H	0.628366	-0.398431	1.027149
N160	N	0.217218	-0.879979	0.599792
N161	N	0.550551	-0.546646	0.933126
N162	N	0.883885	-0.213312	1.266459
H163	H	0.209157	-0.887991	0.667877
H164	H	0.542490	-0.554658	1.001211
H165	H	0.875824	-0.221325	1.334544
H166	H	0.272685	-0.893503	0.583007
H167	H	0.606018	-0.560170	0.916340
H168	H	0.939352	-0.226836	1.249673
H169	H	-0.023778	-0.419765	0.000067
H170	H	0.309555	-0.086432	0.333400
H171	H	0.642889	0.246901	0.666733
H172	H	-0.295455	-1.100122	0.000059
H173	H	0.037878	-0.766788	0.333392
H174	H	0.371211	-0.433455	0.666725
N175	N	-0.039819	-0.590055	0.000066
N176	N	0.293514	-0.256722	0.333399
N177	N	0.626848	0.076612	0.666733
H178	H	-0.085615	-0.552474	0.000067
H179	H	0.247718	-0.219140	0.333401
H180	H	0.581052	0.114193	0.666734
H181	H	-0.042327	-0.626295	-0.056457
H182	H	0.291007	-0.292961	0.276876
H183	H	0.624340	0.040372	0.610209
N184	N	0.256291	-0.569763	0.000042
N185	N	0.589624	-0.236430	0.333375
N186	N	0.922957	0.096903	0.666708
H187	H	0.260058	-0.605568	0.056566
H188	H	0.593392	-0.272234	0.389899
H189	H	0.926725	0.061099	0.723232
H190	H	0.260021	-0.605522	-0.056521
H191	H	0.593354	-0.272189	0.276812
H192	H	0.926688	0.061144	0.610145
N193	N	-0.516629	-1.172468	0.000067
N194	N	-0.183296	-0.839135	0.333400
N195	N	0.150038	-0.505801	0.666733
H196	H	-0.560752	-1.216604	0.000069
H197	H	-0.227419	-0.883271	0.333402
H198	H	0.105915	-0.549938	0.666736
H199	H	-0.483195	-1.178779	-0.056457
H200	H	-0.149861	-0.845446	0.276877
H201	H	0.183472	-0.512113	0.610210
H202	H	-0.638991	-0.865956	0.000039
H203	H	-0.305658	-0.532623	0.333372
H204	H	0.027675	-0.199290	0.666706
H205	H	0.010315	-1.085426	0.587108
H206	H	0.343648	-0.752093	0.920442
H207	H	0.676982	-0.418760	1.253775
H208	H	-0.491053	-0.879224	0.000020
H209	H	-0.157719	-0.545891	0.333353
H210	H	0.175614	-0.212558	0.666687
N211	N	-0.686133	-1.157272	0.000060
N212	N	-0.352800	-0.823939	0.333393
N213	N	-0.019466	-0.490606	0.666727
H214	H	-0.742564	-1.140695	0.000058
H215	H	-0.409231	-0.807361	0.333391
H216	H	-0.075898	-0.474028	0.666724
H217	H	-0.675954	-1.191341	-0.056463
H218	H	-0.342621	-0.858008	0.276870
H219	H	-0.009288	-0.524675	0.610203
N220	N	-0.269866	-0.806878	0.000022
N221	N	0.063467	-0.473545	0.333355
N222	N	0.396800	-0.140211	0.666689
H223	H	-0.329132	-0.813080	0.000024
H224	H	0.004201	-0.479746	0.333358
H225	H	0.337535	-0.146413	0.666691
H226	H	-0.251534	-0.775367	0.056546
H227	H	0.081799	-0.442034	0.389879
H228	H	0.415132	-0.108700	0.723213
H229	H	-0.113615	-0.840958	0.000035
H230	H	0.219718	-0.507625	0.333368
H231	H	0.553052	-0.174291	0.666701
N232	N	-0.383164	-1.108520	0.000056
N233	N	-0.049831	-0.775186	0.333390
N234	N	0.283503	-0.441853	0.666723
H235	H	-0.349738	-1.114909	-0.056464
H236	H	-0.016405	-0.781576	0.276869
H237	H	0.316928	-0.448242	0.610203
H238	H	-0.349790	-1.114830	0.056623
H239	H	-0.016456	-0.781497	0.389956
H240	H	0.316877	-0.448163	0.723289
H241	H	-0.395049	-0.891642	0.000034
H242	H	-0.061715	-0.558309	0.333367
H243	H	0.271618	-0.224976	0.666700
H244	H	0.234672	-0.402079	0.000048
H245	H	0.568006	-0.068746	0.333382
H246	H	0.901339	0.264588	0.666715
