data_functionalizedCrystal
_audit_creation_method	'MofGen! by Chris Wilmer'
_symmetry_space_group_name_H-M	'P1'
_symmetry_Int_Tables_number	1
_symmetry_cell_setting	triclinic
loop_
_symmetry_equiv_pos_as_xyz
  x,y,z
_cell_length_a	19.805407
_cell_length_b	12.594516
_cell_length_c	19.805399
_cell_angle_alpha	90.020797
_cell_angle_beta	90.019573
_cell_angle_gamma	90.016053
loop_
_atom_site_label
_atom_site_type_symbol
_atom_site_fract_x
_atom_site_fract_y
_atom_site_fract_z
Zn1	Zn	1.034784	-0.423767	0.382752
Zn2	Zn	1.534784	0.076233	0.882752
Zn3	Zn	1.034720	-0.601760	0.269577
Zn4	Zn	1.534720	-0.101760	0.769577
Zn5	Zn	0.921599	-0.423796	0.269576
Zn6	Zn	1.421599	0.076204	0.769576
Zn7	Zn	0.921583	-0.601704	0.382723
Zn8	Zn	1.421583	-0.101704	0.882723
O9	O	0.978172	-0.512757	0.326157
O10	O	1.478172	-0.012757	0.826157
O11	O	1.129492	-0.447389	0.367751
O12	O	1.629492	0.052611	0.867751
O13	O	1.019694	-0.578189	0.174860
O14	O	1.519694	-0.078189	0.674860
O15	O	0.936647	-0.274846	0.284601
O16	O	1.436647	0.225154	0.784601
O17	O	1.129445	-0.578160	0.284602
O18	O	1.629445	-0.078160	0.784602
O19	O	1.019804	-0.274825	0.367750
O20	O	1.519804	0.225175	0.867750
O21	O	0.936584	-0.447439	0.174860
O22	O	1.436584	0.052561	0.674860
O23	O	0.826880	-0.447385	0.284573
O24	O	1.326880	0.052615	0.784573
O25	O	0.936620	-0.578064	0.477444
O26	O	1.436620	-0.078064	0.977444
O27	O	0.826869	-0.578092	0.367702
O28	O	1.326869	-0.078092	0.867702
O29	O	1.019788	-0.447335	0.477464
O30	O	1.519788	0.052665	0.977464
O31	O	1.019678	-0.750698	0.284574
O32	O	1.519678	-0.250698	0.784574
O33	O	0.936557	-0.750657	0.367703
O34	O	1.436557	-0.250657	0.867703
C35	C	0.802316	-0.512736	0.326135
C36	C	1.302316	-0.012736	0.826135
C37	C	0.727084	-0.512753	0.326142
C38	C	1.227084	-0.012753	0.826142
C39	C	0.691751	-0.580915	0.369357
C40	C	1.191751	-0.080915	0.869357
C41	C	0.621063	-0.580917	0.369366
C42	C	1.121063	-0.080917	0.869366
C43	C	0.585708	-0.512762	0.326157
C44	C	1.085708	-0.012762	0.826157
C45	C	0.621045	-0.444592	0.282940
C46	C	1.121045	0.055408	0.782940
C47	C	0.691733	-0.444586	0.282934
C48	C	1.191733	0.055414	0.782934
C49	C	0.335972	-0.444615	0.282962
C50	C	0.835972	0.055385	0.782962
C51	C	0.265280	-0.444629	0.282970
C52	C	0.765280	0.055371	0.782970
C53	C	0.265302	-0.580947	0.369394
C54	C	0.765302	-0.080947	0.869394
C55	C	0.335989	-0.580941	0.369389
C56	C	0.835989	-0.080941	0.869389
C57	C	0.371321	-0.512768	0.326175
C58	C	0.871321	-0.012768	0.826175
C59	C	0.447969	-0.512765	0.326166
C60	C	0.947969	-0.012765	0.826166
C61	C	0.509061	-0.512769	0.326162
C62	C	1.009061	-0.012769	0.826162
C63	C	0.978127	-0.789298	0.326150
C64	C	1.478127	-0.289298	0.826150
C65	C	0.978170	-0.907603	0.326170
C66	C	1.478170	-0.407603	0.826170
C67	C	0.932956	-0.976872	0.371352
C68	C	1.432956	-0.476872	0.871352
C69	C	0.916467	-1.047728	0.309590
C70	C	1.416467	-0.547728	0.809590
C71	C	0.994721	-1.047546	0.387943
C72	C	1.494721	-0.547546	0.887943
C73	C	0.961649	-0.976901	0.264375
C74	C	1.461649	-0.476901	0.764375
C75	C	1.039931	-0.976712	0.342770
C76	C	1.539931	-0.476712	0.842770
C77	C	1.023465	-1.047536	0.280965
C78	C	1.523465	-0.547536	0.780965
C79	C	1.154714	-0.512778	0.326179
C80	C	1.654714	-0.012778	0.826179
C81	C	1.229946	-0.512787	0.326189
C82	C	1.729946	-0.012787	0.826189
C83	C	0.978209	-0.512690	0.502700
C84	C	1.478209	-0.012690	1.002700
C85	C	0.978226	-0.512661	0.577932
C86	C	1.478226	-0.012661	1.077932
C87	C	0.978235	-0.235136	0.326178
C88	C	1.478235	0.264864	0.826178
C89	C	0.978261	-0.116830	0.326188
C90	C	1.478261	0.383170	0.826188
C91	C	0.978173	-0.512747	0.150301
C92	C	1.478173	-0.012747	0.650301
C93	C	0.978288	-0.512475	0.075069
C94	C	1.478288	-0.012475	0.575069
C95	C	1.021533	-0.444587	0.613288
C96	C	1.521533	0.055413	1.113288
C97	C	1.021539	-0.444556	0.683976
C98	C	1.521539	0.055444	1.183976
C99	C	0.978242	-0.512605	0.719307
C100	C	1.478242	-0.012605	1.219307
C101	C	0.934931	-0.580683	0.683947
C102	C	1.434931	-0.080683	1.183947
C103	C	0.934921	-0.580707	0.613259
C104	C	1.434921	-0.080707	1.113259
C105	C	0.934969	-0.580583	0.969020
C106	C	1.434969	-0.080583	1.469020
C107	C	0.934984	-0.580556	1.039712
C108	C	1.434984	-0.080556	1.539712
C109	C	1.021588	-0.444432	1.039737
C110	C	1.521588	0.055568	1.539737
C111	C	1.021578	-0.444457	0.969050
C112	C	1.521578	0.055543	1.469050
C113	C	0.978264	-0.512530	0.933695
C114	C	1.478264	-0.012530	1.433695
C115	C	0.978256	-0.512561	0.857046
C116	C	1.478256	-0.012561	1.357046
C117	C	0.978253	-0.512580	0.795955
C118	C	1.478253	-0.012580	1.295955
H119	H	0.592298	-0.636423	0.404556
H120	H	1.092298	-0.136423	0.904556
H121	H	0.894652	-0.945843	0.409505
H122	H	1.394652	-0.445843	0.909505
H123	H	0.899710	-0.636028	0.940243
H124	H	1.399710	-0.136028	1.440243
H125	H	1.092106	-0.945498	0.356826
H126	H	1.592106	-0.445498	0.856826
O127	O	0.945030	-0.940095	0.202001
O128	O	1.445030	-0.440095	0.702001
C129	C	0.992501	-0.976962	0.154426
C130	C	1.492501	-0.476962	0.654426
H131	H	1.041788	-0.997157	0.181245
H132	H	1.541788	-0.497157	0.681245
H133	H	1.002142	-0.912554	0.115164
H134	H	1.502142	-0.412554	0.615164
H135	H	0.971960	-1.050985	0.128397
H136	H	1.471960	-0.550985	0.628397
O137	O	0.725987	-0.647157	0.411396
O138	O	1.225987	-0.147157	0.911396
C139	C	0.679640	-0.707334	0.449529
C140	C	1.179640	-0.207334	0.949529
H141	H	0.629259	-0.663746	0.451921
H142	H	1.129259	-0.163746	0.951921
H143	H	0.700083	-0.718794	0.502845
H144	H	1.200083	-0.218794	1.002845
H145	H	0.672100	-0.788123	0.424659
H146	H	1.172100	-0.288123	0.924659
H147	H	1.056806	-0.389126	0.712760
H148	H	1.556806	0.110874	1.212760
H149	H	0.899649	-0.636130	0.584473
H150	H	1.399649	-0.136130	1.084473
O151	O	1.011462	-1.084694	0.450203
O152	O	1.511462	-0.584694	0.950203
C153	C	1.070780	-1.146139	0.445608
C154	C	1.570780	-0.646139	0.945608
H155	H	1.076823	-1.176692	0.391761
H156	H	1.576823	-0.676692	0.891761
H157	H	1.067223	-1.216283	0.481798
H158	H	1.567223	-0.716283	0.981798
H159	H	1.116261	-1.095132	0.459551
H160	H	1.616261	-0.595132	0.959551
O161	O	1.063662	-0.378632	0.578939
O162	O	1.563662	0.121368	1.078939
C163	C	1.107349	-0.439242	0.538039
C164	C	1.607349	0.060758	1.038039
H165	H	1.111519	-0.523066	0.559333
H166	H	1.611519	-0.023066	1.059333
H167	H	1.159445	-0.400746	0.537250
H168	H	1.659445	0.099254	1.037250
H169	H	1.086412	-0.442926	0.484462
H170	H	1.586412	0.057074	0.984462
H171	H	1.056837	-0.389047	0.940287
H172	H	1.556837	0.110953	1.440287
H173	H	1.061740	-1.078369	0.242720
H174	H	1.561740	-0.578369	0.742720
O175	O	1.063594	-0.378328	1.074186
O176	O	1.563594	0.121672	1.574186
C177	C	1.054332	-0.392907	1.144153
C178	C	1.554332	0.107093	1.644153
H179	H	1.002090	-0.427754	1.153796
H180	H	1.502090	0.072246	1.653796
H181	H	1.058946	-0.313169	1.171022
H182	H	1.558946	0.186831	1.671022
H183	H	1.094469	-0.449585	1.164218
H184	H	1.594469	0.050415	1.664218
H185	H	0.364771	-0.636444	0.404572
H186	H	0.864771	-0.136444	0.904572
O187	O	0.230875	-0.647064	0.411358
O188	O	0.730875	-0.147064	0.911358
C189	C	0.160904	-0.632477	0.402091
C190	C	0.660904	-0.132477	0.902091
H191	H	0.151249	-0.550290	0.380015
H192	H	0.651249	-0.050290	0.880015
H193	H	0.134062	-0.639808	0.452786
H194	H	0.634062	-0.139808	0.952786
H195	H	0.140818	-0.695536	0.365981
H196	H	0.640818	-0.195536	0.865981
H197	H	0.236496	-0.389122	0.247783
H198	H	0.736496	0.110878	0.747783
O199	O	0.370182	-0.378361	0.240922
O200	O	0.870182	0.121639	0.740922
C201	C	0.323817	-0.318191	0.202800
C202	C	0.823817	0.181809	0.702800
H203	H	0.273425	-0.361797	0.200410
H204	H	0.773425	0.138203	0.700410
H205	H	0.344220	-0.306712	0.149483
H206	H	0.844220	0.193288	0.649483
H207	H	0.316314	-0.237411	0.227678
H208	H	0.816314	0.262589	0.727678
O209	O	0.586600	-0.378479	0.240991
O210	O	1.086600	0.121521	0.740991
C211	C	0.516632	-0.393080	0.250274
C212	C	1.016632	0.106920	0.750274
H213	H	0.506975	-0.475271	0.272350
H214	H	1.006975	0.024729	0.772350
H215	H	0.489746	-0.385750	0.199585
H216	H	0.989746	0.114250	0.699585
H217	H	0.496598	-0.330027	0.286391
H218	H	0.996598	0.169973	0.786391
O219	O	0.892952	-0.646807	1.073958
O220	O	1.392952	-0.146807	1.573958
C221	C	0.907721	-0.752902	1.056691
C222	C	1.407721	-0.252902	1.556691
H223	H	0.933729	-0.755133	1.005370
H224	H	1.433729	-0.255133	1.505370
H225	H	0.858858	-0.800616	1.054261
H226	H	1.358858	-0.300616	1.554261
H227	H	0.942518	-0.788747	1.096476
H228	H	1.442518	-0.288747	1.596476
O229	O	0.725952	-0.378345	0.240887
O230	O	1.225952	0.121655	0.740887
C231	C	0.679592	-0.318174	0.202760
C232	C	1.179592	0.181826	0.702760
H233	H	0.629196	-0.361769	0.200376
H234	H	1.129196	0.138231	0.700376
H235	H	0.699994	-0.306712	0.149442
H236	H	1.199994	0.193288	0.649442
H237	H	0.672097	-0.237387	0.227631
H238	H	1.172097	0.262613	0.727631
O239	O	0.892934	-0.646750	0.718370
O240	O	1.392934	-0.146750	1.218370
C241	C	0.902217	-0.632116	0.788342
C242	C	1.402217	-0.132116	1.288342
H243	H	0.954462	-0.597263	0.798010
H244	H	1.454462	-0.097263	1.298010
H245	H	0.897610	-0.711832	0.815198
H246	H	1.397610	-0.211832	1.315198
H247	H	0.862086	-0.575421	0.808399
H248	H	1.362086	-0.075421	1.308399
O249	O	0.854166	-1.084897	0.292953
O250	O	1.354166	-0.584897	0.792953
C251	C	0.806597	-1.048879	0.340694
C252	C	1.306597	-0.548879	0.840694
H253	H	0.833475	-1.028937	0.390003
H254	H	1.333475	-0.528937	0.890003
H255	H	0.767547	-1.113702	0.350152
H256	H	1.267547	-0.613702	0.850152
H257	H	0.780303	-0.974877	0.320534
H258	H	1.280303	-0.474877	0.820534
