data_functionalizedCrystal
_audit_creation_method	'MofGen! by Chris Wilmer'
_symmetry_space_group_name_H-M	'P1'
_symmetry_Int_Tables_number	1
_symmetry_cell_setting	triclinic
loop_
_symmetry_equiv_pos_as_xyz
  x,y,z
_cell_length_a	12.827892
_cell_length_b	12.827893
_cell_length_c	12.827885
_cell_angle_alpha	90.021189
_cell_angle_beta	90.032871
_cell_angle_gamma	90.020944
loop_
_atom_site_label
_atom_site_type_symbol
_atom_site_fract_x
_atom_site_fract_y
_atom_site_fract_z
Zn1	Zn	0.416038	-1.597615	-0.590880
Zn2	Zn	0.916038	-1.097615	-0.090880
Zn3	Zn	0.590815	-1.597486	-0.416131
Zn4	Zn	1.090815	-1.097486	0.083869
Zn5	Zn	0.416083	-1.422856	-0.416147
Zn6	Zn	0.916083	-0.922856	0.083853
Zn7	Zn	0.590731	-1.422819	-0.590825
Zn8	Zn	1.090731	-0.922819	-0.090825
O9	O	0.503417	-1.510194	-0.503496
O10	O	1.003417	-1.010194	-0.003496
O11	O	0.439238	-1.743834	-0.567715
O12	O	0.939238	-1.243834	-0.067715
O13	O	0.567690	-1.574283	-0.269897
O14	O	1.067690	-1.074283	0.230103
O15	O	0.269841	-1.446108	-0.439356
O16	O	0.769841	-0.946108	0.060644
O17	O	0.567647	-1.743739	-0.439327
O18	O	1.067647	-1.243739	0.060673
O19	O	0.269808	-1.574503	-0.567731
O20	O	0.769808	-1.074503	-0.067731
O21	O	0.439315	-1.445983	-0.269909
O22	O	0.939315	-0.945983	0.230091
O23	O	0.439234	-1.276615	-0.439303
O24	O	0.939234	-0.776615	0.060697
O25	O	0.567504	-1.446044	-0.737068
O26	O	1.067504	-0.946044	-0.237068
O27	O	0.567548	-1.276588	-0.567637
O28	O	1.067548	-0.776588	-0.067637
O29	O	0.439157	-1.574466	-0.737109
O30	O	0.939157	-1.074466	-0.237109
O31	O	0.737040	-1.574246	-0.439274
O32	O	1.237040	-1.074246	0.060726
O33	O	0.736978	-1.445919	-0.567621
O34	O	1.236978	-0.945919	-0.067621
C35	C	0.503387	-1.238684	-0.503467
C36	C	1.003387	-0.738684	-0.003467
C37	C	0.503400	-1.122531	-0.503479
C38	C	1.003400	-0.622531	-0.003479
C39	C	0.566991	-1.070760	-0.566883
C40	C	1.066991	-0.570760	-0.066883
C41	C	0.567005	-0.950710	-0.566898
C42	C	1.067005	-0.450710	-0.066898
C43	C	0.774927	-1.510093	-0.503463
C44	C	1.274927	-1.010093	-0.003463
C45	C	0.891080	-1.510145	-0.503483
C46	C	1.391080	-1.010145	-0.003483
C47	C	0.942869	-1.446623	-0.566944
C48	C	1.442869	-0.946623	-0.066944
C49	C	1.062919	-1.446676	-0.566967
C50	C	1.562919	-0.946676	-0.066967
C51	C	1.230847	-1.510290	-0.503539
C52	C	1.730847	-1.010290	-0.003539
C53	C	1.114693	-1.510244	-0.503525
C54	C	1.614693	-1.010244	-0.003525
C55	C	0.503316	-1.510265	-0.776066
C56	C	1.003316	-1.010265	-0.276066
C57	C	0.503274	-1.510295	-0.892219
C58	C	1.003274	-1.010295	-0.392219
C59	C	0.503438	-0.782764	-0.503517
C60	C	1.003438	-0.282764	-0.003517
C61	C	0.503426	-0.898917	-0.503505
C62	C	1.003426	-0.398917	-0.003505
C63	C	0.439751	-1.573850	-0.944024
C64	C	0.939751	-1.073850	-0.444024
C65	C	0.439705	-1.573882	-1.064074
C66	C	0.939705	-1.073882	-0.564074
C67	C	0.503441	-1.510183	-0.231986
C68	C	1.003441	-1.010183	0.268014
C69	C	0.503190	-1.510355	-0.115833
C70	C	1.003190	-1.010355	0.384167
H71	H	0.621451	-0.906188	-0.621177
H72	H	1.121451	-0.406188	-0.121177
H73	H	0.448984	-0.943432	-0.449215
H74	H	0.948984	-0.443432	0.050785
F75	F	0.432245	-1.064301	-0.432544
F76	F	0.932245	-0.564301	0.067456
F77	F	1.121128	-1.375595	-0.637990
F78	F	1.621128	-0.875595	-0.137990
F79	F	0.368624	-1.645010	-1.122302
F80	F	0.868624	-1.145010	-0.622302
F81	F	0.949289	-1.581277	-0.432483
F82	F	1.449289	-1.081277	0.067517
H83	H	0.557580	-1.455945	-1.071289
H84	H	1.057580	-0.955945	-0.571289
H85	H	0.898333	-1.392195	-0.621256
H86	H	1.398333	-0.892195	-0.121256
H87	H	1.070164	-1.564635	-0.449194
H88	H	1.570164	-1.064635	0.050806
F89	F	0.368688	-1.644919	-0.885832
F90	F	0.868688	-1.144919	-0.385832
F91	F	0.574311	-1.439200	-0.950411
F92	F	1.074311	-0.939200	-0.450411
H93	H	0.621419	-1.115314	-0.621159
H94	H	1.121419	-0.615314	-0.121159
