data_functionalizedCrystal
_audit_creation_method	'MofGen! by Chris Wilmer'
_symmetry_space_group_name_H-M	'P1'
_symmetry_Int_Tables_number	1
_symmetry_cell_setting	triclinic
loop_
_symmetry_equiv_pos_as_xyz
  x,y,z
_cell_length_a	20.453700
_cell_length_b	19.453067
_cell_length_c	19.551833
_cell_angle_alpha	83.672880
_cell_angle_beta	78.336523
_cell_angle_gamma	101.708464
loop_
_atom_site_label
_atom_site_type_symbol
_atom_site_fract_x
_atom_site_fract_y
_atom_site_fract_z
V1	V	-1.332495	-0.097918	0.218183
O2	O	-1.331534	0.003948	0.213698
O3	O	-1.313501	-0.193427	0.217010
O4	O	-1.313428	-0.096745	0.313194
O5	O	-1.331607	-0.093404	0.116847
V6	V	-1.494455	-0.085695	0.206024
O7	O	-1.417857	-0.124732	0.244855
O8	O	-1.559158	-0.058881	0.179351
O9	O	-1.439047	0.009814	0.207197
O10	O	-1.534548	-0.187561	0.210509
O11	O	-1.534475	-0.090209	0.307359
O12	O	-1.439119	-0.086868	0.111012
V13	V	-0.999161	-0.097918	0.218183
O14	O	-0.998200	0.003948	0.213698
O15	O	-0.980167	-0.193427	0.217010
O16	O	-0.980095	-0.096745	0.313194
O17	O	-0.998273	-0.093404	0.116847
V18	V	-1.161122	-0.085695	0.206024
O19	O	-1.084524	-0.124732	0.244855
O20	O	-1.225825	-0.058881	0.179351
O21	O	-1.105714	0.009814	0.207197
O22	O	-1.201215	-0.187561	0.210509
O23	O	-1.201142	-0.090209	0.307359
O24	O	-1.105786	-0.086868	0.111012
V25	V	-0.665828	-0.097918	0.218183
O26	O	-0.664867	0.003948	0.213698
O27	O	-0.646834	-0.193427	0.217010
O28	O	-0.646761	-0.096745	0.313194
O29	O	-0.664940	-0.093404	0.116847
V30	V	-0.827788	-0.085695	0.206024
O31	O	-0.751191	-0.124732	0.244855
O32	O	-0.892492	-0.058881	0.179351
O33	O	-0.772380	0.009814	0.207197
O34	O	-0.867882	-0.187561	0.210509
O35	O	-0.867809	-0.090209	0.307359
O36	O	-0.772453	-0.086868	0.111012
C37	C	-1.261233	-0.216699	0.213650
C38	C	-1.272779	-0.294781	0.213324
C39	C	-1.344729	-0.841955	0.147055
C40	C	-1.333874	-0.768587	0.147354
C41	C	-1.338933	-0.742106	0.211487
C42	C	-1.354832	-0.788998	0.275325
C43	C	-1.365679	-0.862363	0.275024
N44	N	-1.367543	-0.636820	0.262183
N45	N	-1.357239	-0.567125	0.262465
C46	C	-1.306250	-0.521061	0.212399
N47	N	-1.265960	-0.547324	0.162030
N48	N	-1.276267	-0.617025	0.161746
C49	C	-1.327172	-0.662555	0.211821
C50	C	-1.278579	-0.394625	0.148889
C51	C	-1.267720	-0.321257	0.149190
C52	C	-1.288685	-0.341670	0.277164
C53	C	-1.299536	-0.415036	0.276860
C54	C	-1.294485	-0.441509	0.212721
C55	C	-1.261140	-0.093371	0.336342
C56	C	-1.272627	-0.093043	0.414017
C57	C	-1.379095	0.033083	0.210554
C58	C	-1.360628	0.111163	0.210885
C59	C	-1.379188	-0.090245	0.087860
C60	C	-1.360781	-0.090569	0.010185
C61	C	-0.927900	-0.216699	0.213650
C62	C	-0.939446	-0.294781	0.213324
C63	C	-1.338509	-0.096415	0.454075
C64	C	-1.349302	-0.096107	0.527059
C65	C	-1.294211	-0.092441	0.559983
C66	C	-1.228319	-0.089065	0.519915
C67	C	-1.217527	-0.089366	0.446931
C68	C	-1.272133	-0.130633	0.679422
C69	C	-1.282928	-0.130337	0.752404
C70	C	-1.327495	-0.091510	0.785087
C71	C	-1.361277	-0.052990	0.744780
C72	C	-1.350485	-0.053291	0.671797
C73	C	-1.305907	-0.092114	0.639120
C74	C	-1.405083	-0.094548	0.904282
C75	C	-1.415873	-0.094235	0.977266
C76	C	-1.294890	-0.087201	0.970122
C77	C	-1.284101	-0.087506	0.897138
C78	C	-1.339201	-0.091183	0.864223
C79	C	-0.927807	-0.093371	0.336342
C80	C	-0.939293	-0.093043	0.414017
C81	C	-1.045762	0.033083	0.210554
C82	C	-1.027295	0.111163	0.210885
C83	C	-1.045855	-0.090245	0.087860
C84	C	-1.027448	-0.090569	0.010185
C85	C	-0.594566	-0.216699	0.213650
C86	C	-0.606112	-0.294781	0.213324
C87	C	-0.594474	-0.093371	0.336342
C88	C	-0.605960	-0.093043	0.414017
C89	C	-0.712428	0.033083	0.210554
C90	C	-0.693962	0.111163	0.210885
C91	C	-0.712521	-0.090245	0.087860
C92	C	-0.694115	-0.090569	0.010185
C93	C	-1.005361	-0.335042	0.216674
C94	C	-1.016221	-0.408410	0.216379
C95	C	-0.961164	-0.441515	0.212728
C96	C	-0.895243	-0.401248	0.209380
C97	C	-0.884385	-0.327883	0.209681
C98	C	-1.005180	-0.096403	0.454067
C99	C	-1.015980	-0.096086	0.527049
C100	C	-0.960894	-0.092414	0.559981
C101	C	-0.895002	-0.089051	0.519925
C102	C	-0.884202	-0.089363	0.446943
C103	C	-1.076375	0.151424	0.207537
C104	C	-1.059030	0.224792	0.207835
C105	C	-0.992605	0.257896	0.211487
C106	C	-0.943521	0.217630	0.214834
C107	C	-0.960865	0.144265	0.214530
C108	C	-0.961046	-0.094233	-0.022729
C109	C	-0.943740	-0.094529	-0.095714
C110	C	-0.992837	-0.091166	-0.135782
C111	C	-1.059244	-0.087499	-0.102864
C112	C	-1.076548	-0.087198	-0.029881
C113	C	-0.672028	-0.335042	0.216674
C114	C	-0.682888	-0.408410	0.216379
C115	C	-0.627830	-0.441515	0.212728
C116	C	-0.561910	-0.401248	0.209380
C117	C	-0.551052	-0.327883	0.209681
C118	C	-0.671846	-0.096403	0.454067
C119	C	-0.682647	-0.096086	0.527049
C120	C	-0.627561	-0.092414	0.559981
C121	C	-0.561669	-0.089051	0.519925
C122	C	-0.550869	-0.089363	0.446943
C123	C	-0.743042	0.151424	0.207537
C124	C	-0.725696	0.224792	0.207835
C125	C	-0.659272	0.257896	0.211487
C126	C	-0.610188	0.217630	0.214834
C127	C	-0.627532	0.144265	0.214530
C128	C	-0.627713	-0.094233	-0.022729
C129	C	-0.610406	-0.094529	-0.095714
C130	C	-0.659504	-0.091166	-0.135782
C131	C	-0.725910	-0.087499	-0.102864
C132	C	-0.743214	-0.087198	-0.029881
H133	H	-1.340614	-0.863504	0.094828
H134	H	-0.978740	-0.091421	-0.195208
Cl135	Cl	-0.860257	-0.099145	-0.137080
Cl136	Cl	-0.468178	-0.277276	0.205462
H137	H	-0.517086	-0.428214	0.206408
Cl138	Cl	-1.417310	-0.004181	0.785858
Cl139	Cl	-0.526924	-0.099145	-0.137080
Cl140	Cl	-0.765762	-0.459015	0.220584
H141	H	-0.850419	-0.428214	0.206408
H142	H	-1.312487	-0.453209	0.328838
H143	H	-1.130620	-0.084218	-0.003088
H144	H	-0.920896	0.111489	0.217262
H145	H	-0.830708	-0.295106	0.206949
Cl146	Cl	-0.468035	-0.085148	0.396605
Cl147	Cl	-1.432131	-0.100342	0.577428
H148	H	-0.516822	-0.086062	0.546750
Cl149	Cl	-0.641492	-0.533748	0.212349
Cl150	Cl	-0.765487	-0.100319	0.577391
H151	H	-0.645158	0.317636	0.211734
Cl152	Cl	-0.787412	0.275396	0.203631
Cl153	Cl	-1.498704	-0.098474	1.027627
H154	H	-0.556104	0.244596	0.217806
Cl155	Cl	-1.074442	-0.101019	0.412683
H156	H	-0.921060	-0.096971	0.009886
H157	H	-1.320923	-0.730408	0.095374
Cl158	Cl	-0.860017	0.259259	0.219421
Cl159	Cl	-0.787627	-0.083281	-0.153245
H160	H	-0.587563	0.111489	0.217262
Cl161	Cl	-1.098821	-0.100319	0.577391
Cl162	Cl	-0.825760	-0.084445	0.561338
Cl163	Cl	-0.974826	-0.533748	0.212349
H164	H	-0.969698	-0.092161	0.619408
Cl165	Cl	-0.741256	-0.293442	0.221271
H166	H	-1.235835	-0.162245	0.652817
Cl167	Cl	-1.225629	-0.082579	1.011503
Cl168	Cl	-1.392952	-0.004868	0.621127
H169	H	-0.797132	0.124480	0.204563
H170	H	-0.636365	-0.092161	0.619408
Cl171	Cl	-1.120961	-0.083281	-0.153245
Cl172	Cl	-0.741108	-0.101019	0.412683
Cl173	Cl	-0.565978	-0.098460	0.027628
Cl174	Cl	-0.637739	-0.091549	-0.227532
H175	H	-1.449949	-0.097539	0.877481
Cl176	Cl	-1.295041	-0.308386	0.357790
Cl177	Cl	-0.826700	-0.082603	0.011489
H178	H	-1.163876	-0.086615	0.414315
Cl179	Cl	-1.361186	-0.755708	0.355950
H180	H	-1.378625	-0.900536	0.327003
Cl181	Cl	-1.201275	-0.083279	0.846778
Cl182	Cl	-0.801368	-0.085148	0.396605
Cl183	Cl	-1.407777	-0.101033	0.412700
Cl184	Cl	-1.120745	0.275396	0.203631
Cl185	Cl	-1.272222	-0.427909	0.068258
H186	H	-1.255423	-0.161707	0.785218
Cl187	Cl	-1.247726	-0.262317	0.068939
Cl188	Cl	-1.074589	-0.293442	0.221271
Cl189	Cl	-1.099096	-0.459015	0.220584
Cl190	Cl	-1.159062	-0.084455	0.561303
Cl191	Cl	-1.159886	0.109823	0.202944
Cl192	Cl	-0.970812	0.350129	0.211869
