data_functionalizedCrystal
_audit_creation_method	'MofGen! by Chris Wilmer'
_symmetry_space_group_name_H-M	'P1'
_symmetry_Int_Tables_number	1
_symmetry_cell_setting	triclinic
loop_
_symmetry_equiv_pos_as_xyz
  x,y,z
_cell_length_a	19.288840
_cell_length_b	14.044190
_cell_length_c	17.766277
_cell_angle_alpha	89.989261
_cell_angle_beta	89.983415
_cell_angle_gamma	88.158896
loop_
_atom_site_label
_atom_site_type_symbol
_atom_site_fract_x
_atom_site_fract_y
_atom_site_fract_z
O1	O	0.928955	0.118101	-0.062729
O2	O	1.428955	0.618101	0.437271
O3	O	0.727718	0.134072	-0.062705
O4	O	1.227718	0.634072	0.437295
O5	O	0.825313	-0.011885	-0.062702
O6	O	1.325313	0.488115	0.437298
O7	O	0.831359	0.264058	-0.062732
O8	O	1.331359	0.764058	0.437268
O9	O	0.825294	-0.011892	0.062487
O10	O	1.325294	0.488108	0.562487
O11	O	0.727699	0.134065	0.062484
O12	O	1.227699	0.634065	0.562484
O13	O	0.928935	0.118093	0.062459
O14	O	1.428935	0.618093	0.562459
Cu15	Cu	0.828315	0.126078	0.073902
Cu16	Cu	1.328315	0.626078	0.573902
Cu17	Cu	0.828338	0.126087	-0.074148
Cu18	Cu	1.328338	0.626087	0.425852
O19	O	0.831340	0.264051	0.062456
O20	O	1.331340	0.764051	0.562456
C21	C	0.701799	0.133559	-0.000107
C22	C	1.201799	0.633559	0.499893
C23	C	0.624596	0.132028	-0.000097
C24	C	1.124596	0.632028	0.499903
C25	C	0.588356	0.131297	-0.068339
C26	C	1.088356	0.631297	0.431661
C27	C	0.515816	0.129848	-0.068348
C28	C	1.015816	0.629848	0.431652
C29	C	0.479519	0.129111	-0.000111
C30	C	0.979519	0.629111	0.499889
C31	C	0.515768	0.129848	0.068140
C32	C	1.015768	0.629848	0.568140
C33	C	0.588307	0.131306	0.068147
C34	C	1.088307	0.631306	0.568147
C35	C	0.366468	0.071292	0.052164
C36	C	0.866468	0.571292	0.552164
C37	C	0.293931	0.069828	0.052154
C38	C	0.793931	0.569828	0.552154
C39	C	0.255787	0.124617	-0.000130
C40	C	0.755787	0.624617	0.499870
C41	C	0.290189	0.180858	-0.052417
C42	C	0.790189	0.680858	0.447583
C43	C	0.362727	0.182316	-0.052410
C44	C	0.862727	0.682316	0.447590
C45	C	0.400864	0.127530	-0.000111
C46	C	0.900864	0.627530	0.499889
C47	C	0.140890	0.122316	-0.068387
C48	C	0.640890	0.622316	0.431613
C49	C	0.068349	0.120873	-0.068393
C50	C	0.568349	0.620873	0.431607
C51	C	0.068303	0.120863	0.068097
C52	C	0.568303	0.620863	0.568097
C53	C	0.140843	0.122316	0.068101
C54	C	0.640843	0.622316	0.568101
C55	C	0.177132	0.123038	-0.000143
C56	C	0.677132	0.623038	0.499857
C57	C	0.822659	-0.047192	-0.000105
C58	C	1.322659	0.452808	0.499895
C59	C	0.814769	-0.152383	-0.000097
C60	C	1.314769	0.347617	0.499903
C61	C	0.856301	-0.402852	-0.000132
C62	C	1.356301	0.097148	0.499868
C63	C	0.800356	-0.344977	-0.000120
C64	C	1.300356	0.155023	0.499880
C65	C	0.808377	-0.237808	-0.000107
C66	C	1.308377	0.262192	0.499893
C67	C	0.848280	-0.510031	-0.000145
C68	C	1.348280	-0.010031	0.499855
C69	C	0.954854	0.118607	-0.000140
C70	C	1.454854	0.618607	0.499860
C71	C	1.032057	0.120138	-0.000155
C72	C	1.532057	0.620138	0.499845
C73	C	0.833995	0.299357	-0.000142
C74	C	1.333995	0.799357	0.499858
C75	C	0.841885	0.404549	-0.000155
C76	C	1.341885	0.904549	0.499845
N77	N	0.828304	0.126072	0.178033
N78	N	1.328304	0.626072	0.678033
N79	N	0.828354	0.126086	-0.178278
N80	N	1.328354	0.626086	0.321722
C81	C	0.871537	0.061473	0.217421
C82	C	1.371537	0.561473	0.717421
C83	C	0.871541	0.061469	0.296223
C84	C	1.371541	0.561469	0.796223
C85	C	0.828319	0.126079	0.335633
C86	C	1.328319	0.626079	0.835633
C87	C	0.785079	0.190683	0.296236
C88	C	1.285079	0.690683	0.796236
C89	C	0.785071	0.190679	0.217435
C90	C	1.285071	0.690679	0.717435
C91	C	0.824570	0.212423	0.460462
C92	C	1.324570	0.712423	0.960462
C93	C	0.824582	0.212428	0.539261
C94	C	1.324582	0.712428	1.039261
C95	C	0.828339	0.126091	0.578680
C96	C	1.328339	0.626091	1.078680
C97	C	0.832097	0.039745	0.539289
C98	C	1.332097	0.539745	1.039289
C99	C	0.832090	0.039741	0.460489
C100	C	1.332090	0.539741	0.960489
C101	C	0.828323	0.126090	0.421079
C102	C	1.328323	0.626090	0.921079
C103	C	0.871578	0.061482	0.703514
C104	C	1.371578	0.561482	1.203514
C105	C	0.871576	0.061477	0.782317
C106	C	1.371576	0.561477	1.282317
C107	C	0.785118	0.190698	0.782328
C108	C	1.285118	0.690698	1.282328
C109	C	0.785115	0.190696	0.703527
C110	C	1.285115	0.690696	1.203527
C111	C	0.828349	0.126089	0.664124
C112	C	1.328349	0.626089	1.164124
H113	H	0.486303	0.129253	-0.123920
H114	H	0.986303	0.629253	0.376080
H115	H	0.259133	0.225476	-0.094989
H116	H	0.759133	0.725476	0.405011
H117	H	0.910216	-0.371915	-0.000131
H118	H	1.410216	0.128085	0.499869
C119	C	0.400566	0.244304	-0.109832
C120	C	0.900566	0.744304	0.390168
H121	H	0.449228	0.237355	-0.102315
H122	H	0.949228	0.737355	0.397685
H123	H	0.386418	0.309168	-0.103172
H124	H	0.886418	0.809168	0.396828
H125	H	0.389403	0.224653	-0.159413
H126	H	0.889403	0.724653	0.340587
H127	H	0.746436	-0.375916	-0.000118
H128	H	1.246436	0.124084	0.499882
H129	H	0.265927	0.024029	0.094725
H130	H	0.765927	0.524029	0.594725
C131	C	0.028389	0.120058	0.143159
C132	C	0.528389	0.620058	0.643159
H133	H	0.060365	0.120706	0.183804
H134	H	0.560365	0.620706	0.683804
H135	H	0.001968	0.064243	0.146001
H136	H	0.501968	0.564243	0.646001
H137	H	-0.001786	0.174747	0.145985
H138	H	0.498214	0.674747	0.645985
H139	H	0.170438	0.122913	-0.123955
H140	H	0.670438	0.622913	0.376045
C141	C	0.836213	-0.055229	0.417160
C142	C	1.336213	0.444771	0.917160
H143	H	0.838546	-0.106650	0.451915
H144	H	1.338546	0.393350	0.951915
H145	H	0.876470	-0.057237	0.386318
H146	H	1.376470	0.442763	0.886318
H147	H	0.796152	-0.060397	0.386523
H148	H	1.296152	0.439603	0.886523
C149	C	0.919084	-0.009601	0.174082
C150	C	1.419084	0.490399	0.674082
H151	H	0.944827	-0.048081	0.208831
H152	H	1.444827	0.451919	0.708831
H153	H	0.950098	0.024378	0.143319
H154	H	1.450098	0.524378	0.643319
H155	H	0.891652	-0.048966	0.143365
H156	H	1.391652	0.451034	0.643365
H157	H	0.835156	-0.030560	0.571382
H158	H	1.335156	0.469440	1.071382
C159	C	0.408423	0.011023	0.109679
C160	C	0.908423	0.511023	0.609679
H161	H	0.456550	0.019953	0.102201
H162	H	0.956550	0.519953	0.602201
H163	H	0.398755	-0.054348	0.103105
H164	H	0.898755	0.445652	0.603105
H165	H	0.395853	0.030302	0.159220
H166	H	0.895853	0.530302	0.659220
C167	C	0.919123	-0.009590	0.660168
C168	C	1.419123	0.490410	1.160168
H169	H	0.944865	-0.048075	0.694915
H170	H	1.444865	0.451925	1.194915
H171	H	0.950140	0.024391	0.629409
H172	H	1.450140	0.524391	1.129409
H173	H	0.891692	-0.048950	0.629446
H174	H	1.391692	0.451050	1.129446
H175	H	0.906747	0.008863	0.328298
H176	H	1.406747	0.508863	0.828298
C177	C	0.475843	0.129109	0.143199
C178	C	0.975843	0.629109	0.643199
H179	H	0.427451	0.128149	0.133421
H180	H	0.927451	0.628149	0.633421
H181	H	0.485858	0.184618	0.171197
H182	H	0.985858	0.684618	0.671197
H183	H	0.489583	0.074113	0.171282
H184	H	0.989583	0.574113	0.671282
H185	H	0.617813	0.131903	0.123720
H186	H	1.117813	0.631903	0.623720
H187	H	0.906779	0.008868	0.814387
H188	H	1.406779	0.508868	1.314387
H189	H	0.821499	0.282734	0.428375
H190	H	1.321499	0.782734	0.928375
C191	C	0.737575	0.261768	0.825670
C192	C	1.237575	0.761768	1.325670
H193	H	0.743774	0.252523	0.878243
H194	H	1.243774	0.752523	1.378243
H195	H	0.690593	0.251645	0.812777
H196	H	1.190593	0.751645	1.312777
H197	H	0.749038	0.324989	0.812741
H198	H	1.249038	0.824989	1.312741
H199	H	0.170350	0.122905	0.123672
H200	H	0.670350	0.622905	0.623672
H201	H	0.749915	0.243302	0.671455
H202	H	1.249915	0.743302	1.171455
H203	H	0.821527	0.282736	0.571327
H204	H	1.321527	0.782736	1.071327
C205	C	0.737522	0.261736	0.339580
C206	C	1.237522	0.761736	0.839580
H207	H	0.711763	0.300200	0.304833
H208	H	1.211763	0.800200	0.804833
H209	H	0.764933	0.301105	0.370309
H210	H	1.264933	0.801105	0.870309
H211	H	0.706510	0.227727	0.370331
H212	H	1.206510	0.727727	0.870331
C213	C	0.628270	0.132104	-0.143404
C214	C	1.128270	0.632104	0.356596
H215	H	0.596292	0.131469	-0.184048
H216	H	1.096292	0.631469	0.315952
H217	H	0.658451	0.077427	-0.146235
H218	H	1.158451	0.577427	0.353765
H219	H	0.654684	0.187931	-0.146243
H220	H	1.154684	0.687931	0.353757
C221	C	0.028484	0.120063	-0.143463
C222	C	0.528484	0.620063	0.356537
H223	H	0.060489	0.120692	-0.184102
H224	H	0.560489	0.620692	0.315898
H225	H	-0.001692	0.174742	-0.146317
H226	H	0.498308	0.674742	0.353683
H227	H	0.002069	0.064238	-0.146289
H228	H	0.502069	0.564238	0.353711
H229	H	0.749865	0.243283	0.185365
H230	H	1.249865	0.743283	0.685365
