data_functionalizedCrystal
_audit_creation_method	'MofGen! by Chris Wilmer'
_symmetry_space_group_name_H-M	'P1'
_symmetry_Int_Tables_number	1
_symmetry_cell_setting	triclinic
loop_
_symmetry_equiv_pos_as_xyz
  x,y,z
_cell_length_a	23.532407
_cell_length_b	23.532407
_cell_length_c	12.376457
_cell_angle_alpha	101.199798
_cell_angle_beta	78.781502
_cell_angle_gamma	82.848712
loop_
_atom_site_label
_atom_site_type_symbol
_atom_site_fract_x
_atom_site_fract_y
_atom_site_fract_z
O1	O	0.766236	0.058165	-0.093942
O2	O	1.266236	0.558165	0.406058
O3	O	0.600375	0.068165	-0.093962
O4	O	1.100375	0.568165	0.406038
O5	O	0.688304	-0.019764	-0.093931
O6	O	1.188304	0.480236	0.406069
O7	O	0.678306	0.146094	-0.093973
O8	O	1.178306	0.646094	0.406027
O9	O	0.666330	0.002188	0.094074
O10	O	1.166330	0.502188	0.594074
O11	O	0.578400	0.090118	0.094043
O12	O	1.078400	0.590118	0.594043
O13	O	0.744261	0.080117	0.094062
O14	O	1.244261	0.580117	0.594062
Zn15	Zn	0.657842	0.088603	0.123902
Zn16	Zn	1.157842	0.588603	0.623902
Zn17	Zn	0.686794	0.059680	-0.123802
Zn18	Zn	1.186794	0.559680	0.376198
O19	O	0.656332	0.168047	0.094031
O20	O	1.156332	0.668047	0.594031
C21	C	0.568172	0.078887	0.000038
C22	C	1.068172	0.578887	0.500038
C23	C	0.504956	0.078120	0.000032
C24	C	1.004956	0.578120	0.500032
C25	C	0.238783	0.022930	0.000077
C26	C	0.738783	0.522930	0.500077
C27	C	0.298183	0.023641	0.000076
C28	C	0.798183	0.523641	0.500076
O29	O	0.334922	-0.020139	0.000127
O30	O	0.834922	0.479861	0.500127
N31	N	0.320812	0.075915	0.000055
N32	N	0.820812	0.575915	0.500055
C33	C	0.284035	0.127482	0.000046
C34	C	0.784035	0.627482	0.500046
O35	O	0.308737	0.172011	0.000029
O36	O	0.808737	0.672011	0.500029
C37	C	0.224635	0.126771	0.000055
C38	C	0.724635	0.626771	0.500055
C39	C	0.202011	0.074493	0.000064
C40	C	0.702011	0.574493	0.500064
C41	C	0.216158	-0.029344	0.000088
C42	C	0.716158	0.470656	0.500088
C43	C	0.156762	-0.030056	0.000086
C44	C	0.656762	0.469944	0.500086
C45	C	0.119991	0.021507	0.000073
C46	C	0.619991	0.521507	0.500073
C47	C	0.142615	0.073781	0.000063
C48	C	0.642615	0.573781	0.500063
C49	C	0.187859	0.178339	0.000054
C50	C	0.687859	0.678339	0.500054
C51	C	0.128455	0.177623	0.000063
C52	C	0.628455	0.677623	0.500063
C53	C	0.105832	0.125345	0.000073
C54	C	0.605832	0.625345	0.500073
C55	C	0.046448	0.124633	0.000048
C56	C	0.546448	0.624633	0.500048
N57	N	0.023819	0.072359	0.000070
N58	N	0.523819	0.572359	0.500070
C59	C	0.060591	0.020796	0.000082
C60	C	0.560591	0.520796	0.500082
C61	C	0.408780	0.128972	0.000030
C62	C	0.908780	0.628972	0.500030
C63	C	0.468180	0.129683	0.000013
C64	C	0.968180	0.629683	0.500013
C65	C	0.482323	0.025842	0.000046
C66	C	0.982323	0.525842	0.500046
C67	C	0.422923	0.025130	0.000054
C68	C	0.922923	0.525130	0.500054
C69	C	0.386151	0.076698	0.000051
C70	C	0.886151	0.576698	0.500051
C71	C	-0.064145	0.019306	0.000078
C72	C	0.435855	0.519306	0.500078
C73	C	-0.123547	0.018599	0.000071
C74	C	0.376453	0.518599	0.500071
C75	C	-0.137686	0.122440	0.000045
C76	C	0.362314	0.622440	0.500045
C77	C	-0.078289	0.123147	0.000045
C78	C	0.421711	0.623147	0.500045
C79	C	-0.041520	0.071576	0.000065
C80	C	0.458480	0.571576	0.500065
O81	O	0.009674	0.168390	0.000003
O82	O	0.509674	0.668390	0.500003
O83	O	0.035879	-0.023723	0.000114
O84	O	0.535879	0.476277	0.500114
C85	C	0.677062	-0.030004	0.000074
C86	C	1.177062	0.469996	0.500074
C87	C	0.676295	-0.093220	0.000083
C88	C	1.176295	0.406780	0.500083
C89	C	0.723535	-0.492329	0.000027
C90	C	1.223535	0.007671	0.500027
C91	C	0.722825	-0.551730	0.000018
C92	C	1.222825	-0.051730	0.500018
O93	O	0.766615	-0.588479	-0.000019
O94	O	1.266615	-0.088479	0.499981
N95	N	0.670549	-0.574357	0.000013
N96	N	1.170549	-0.074357	0.500013
C97	C	0.618982	-0.537581	0.000004
C98	C	1.118982	-0.037581	0.500004
O99	O	0.574452	-0.562281	-0.000002
O100	O	1.074452	-0.062281	0.499998
C101	C	0.619694	-0.478182	0.000005
C102	C	1.119694	0.021818	0.500005
C103	C	0.671972	-0.455557	0.000022
C104	C	1.171972	0.044443	0.500022
C105	C	0.775809	-0.469704	0.000042
C106	C	1.275809	0.030296	0.500042
C107	C	0.776519	-0.410307	0.000053
C108	C	1.276519	0.089693	0.500053
C109	C	0.724955	-0.373534	0.000048
C110	C	1.224955	0.126466	0.500048
C111	C	0.672682	-0.396160	0.000033
C112	C	1.172682	0.103840	0.500033
C113	C	0.568128	-0.441407	-0.000011
C114	C	1.068128	0.058593	0.499989
C115	C	0.568845	-0.382005	-0.000011
C116	C	1.068845	0.117995	0.499989
C117	C	0.621123	-0.359380	0.000005
C118	C	1.121123	0.140620	0.500005
C119	C	0.621828	-0.299990	0.000039
C120	C	1.121828	0.200010	0.500039
N121	N	0.674104	-0.277363	0.000044
N122	N	1.174104	0.222637	0.500044
C123	C	0.725667	-0.314135	0.000049
C124	C	1.225667	0.185865	0.500049
C125	C	0.617491	-0.662324	0.000001
C126	C	1.117491	-0.162324	0.500001
C127	C	0.616777	-0.721721	0.000009
C128	C	1.116777	-0.221721	0.500009
C129	C	0.720621	-0.735867	0.000020
C130	C	1.220621	-0.235867	0.500020
C131	C	0.721333	-0.676467	0.000021
C132	C	1.221333	-0.176467	0.500021
C133	C	0.669767	-0.639697	0.000007
C134	C	1.169767	-0.139697	0.500007
C135	C	0.727154	-0.189396	0.000072
C136	C	1.227154	0.310604	0.500072
C137	C	0.727859	-0.129992	0.000088
C138	C	1.227859	0.370008	0.500088
C139	C	0.624017	-0.115852	0.000070
C140	C	1.124017	0.384148	0.500070
C141	C	0.623311	-0.175250	0.000061
C142	C	1.123311	0.324750	0.500061
C143	C	0.674885	-0.212021	0.000058
C144	C	1.174885	0.287979	0.500058
O145	O	0.578061	-0.263207	0.000071
O146	O	1.078061	0.236793	0.500071
O147	O	0.770191	-0.289428	0.000040
O148	O	1.270191	0.210572	0.500040
C149	C	0.776465	0.069396	0.000060
C150	C	1.276465	0.569396	0.500060
C151	C	0.839682	0.070161	0.000059
C152	C	1.339682	0.570161	0.500059
C153	C	0.667574	0.178286	0.000024
C154	C	1.167574	0.678286	0.500024
C155	C	0.668342	0.241501	0.000008
C156	C	1.168342	0.741501	0.500008
N157	N	0.638087	0.108342	0.292954
N158	N	1.138087	0.608342	0.792954
N159	N	0.706554	0.039936	-0.292853
N160	N	1.206554	0.539936	0.207147
C161	C	0.752412	-0.005896	0.647979
C162	C	1.252412	0.494104	1.147979
C163	C	0.766235	-0.019712	0.529644
C164	C	1.266235	0.480288	1.029644
C165	C	0.734199	0.012301	0.470466
C166	C	1.234199	0.512301	0.970466
C167	C	0.688338	0.058131	0.529634
C168	C	1.188338	0.558131	1.029634
C169	C	0.674516	0.071951	0.647980
C170	C	1.174516	0.571951	1.147980
C171	C	0.656303	0.090147	0.470467
C172	C	1.156303	0.590147	0.970467
C173	C	0.610442	0.135978	0.529635
C174	C	1.110442	0.635978	1.029635
C175	C	0.596622	0.149795	0.647970
C176	C	1.096622	0.649795	1.147970
C177	C	0.628658	0.117783	0.707148
C178	C	1.128658	0.617783	1.207148
C179	C	0.670125	0.076327	0.352120
C180	C	1.170125	0.576327	0.852120
C181	C	0.592229	0.154174	0.352122
C182	C	1.092229	0.654174	0.852122
C183	C	0.578406	0.167990	0.470457
C184	C	1.078406	0.667990	0.970457
H185	H	0.404507	-0.017439	0.000063
H186	H	0.904507	0.482561	0.500063
F187	F	0.547818	0.198577	0.710942
F188	F	1.047818	0.698577	1.210942
F189	F	0.561134	-0.745790	0.000011
F190	F	1.061134	-0.245790	0.500011
H191	H	0.778494	-0.031953	0.696170
H192	H	1.278494	0.468047	1.196170
F193	F	0.613944	0.132484	0.833096
F194	F	1.113944	0.632484	1.333096
F195	F	-0.025021	-0.035582	0.000099
F196	F	0.474979	0.464418	0.500099
F197	F	0.132693	-0.085699	0.000088
F198	F	0.632693	0.414301	0.500088
H199	H	0.803575	-0.057026	0.481474
H200	H	1.303575	0.442974	0.981474
F201	F	0.529598	0.216765	0.533440
F202	F	1.029598	0.716765	1.033440
H203	H	-0.059868	0.165716	0.000036
H204	H	0.440132	0.665716	0.500036
F205	F	0.558134	0.188248	0.289145
F206	F	1.058134	0.688248	0.789145
H207	H	-0.141963	-0.023975	0.000076
H208	H	0.358037	0.476025	0.500076
F209	F	0.562602	-0.623192	-0.000003
F210	F	1.062602	-0.123192	0.499997
F211	F	0.255285	-0.084229	0.000104
F212	F	0.755285	0.415771	0.500104
H213	H	0.745456	0.001050	0.374112
H214	H	1.245456	0.501050	0.874112
H215	H	0.512274	-0.016144	0.000056
H216	H	1.012274	0.483856	0.500056
H217	H	0.486596	0.172251	-0.000010
H218	H	0.986596	0.672251	0.499990
H219	H	0.526852	-0.352068	-0.000025
H220	H	1.026852	0.147932	0.499975
H221	H	0.206269	0.220909	0.000041
H222	H	0.706269	0.720909	0.500041
H223	H	0.378843	0.170966	0.000019
H224	H	0.878843	0.670966	0.500019
H225	H	-0.167635	0.164420	0.000029
H226	H	0.332365	0.664420	0.500029
H227	H	0.769151	-0.219329	0.000066
H228	H	1.269151	0.280671	0.500066
H229	H	0.098517	0.219618	0.000066
H230	H	0.598517	0.719618	0.500066
F231	F	0.783502	-0.105917	0.000105
F232	F	1.283502	0.394083	0.500105
H233	H	0.819089	-0.391892	0.000062
H234	H	1.319089	0.108108	0.500062
F235	F	0.569142	-0.076706	0.000066
F236	F	1.069142	0.423294	0.500066
H237	H	0.817801	-0.499640	0.000042
H238	H	1.317801	0.000360	0.500042
F239	F	0.512487	-0.465473	-0.000034
F240	F	1.012487	0.034527	0.499966
H241	H	0.707466	0.039012	0.303956
H242	H	1.207466	0.539012	0.803956
F243	F	0.567669	-0.199327	0.000063
F244	F	1.067669	0.300673	0.500063
H245	H	0.762607	-0.765818	0.000020
H246	H	1.262607	-0.265818	0.500020
F247	F	0.776973	-0.652394	0.000038
F248	F	1.276973	-0.152394	0.500038
