data_functionalizedCrystal
_audit_creation_method	'MofGen! by Chris Wilmer'
_symmetry_space_group_name_H-M	'P1'
_symmetry_Int_Tables_number	1
_symmetry_cell_setting	triclinic
loop_
_symmetry_equiv_pos_as_xyz
  x,y,z
_cell_length_a	12.759401
_cell_length_b	15.299816
_cell_length_c	12.759393
_cell_angle_alpha	99.650111
_cell_angle_beta	89.982620
_cell_angle_gamma	80.350473
loop_
_atom_site_label
_atom_site_type_symbol
_atom_site_fract_x
_atom_site_fract_y
_atom_site_fract_z
Zn1	Zn	1.678530	-0.358995	-0.666396
Zn2	Zn	1.708802	-0.509839	-0.521143
Zn3	Zn	1.502845	-0.359043	-0.490745
Zn4	Zn	1.533180	-0.509769	-0.696770
O5	O	1.605839	-0.434412	-0.593763
O6	O	1.829569	-0.379014	-0.647137
O7	O	1.681454	-0.489885	-0.370099
O8	O	1.500786	-0.232829	-0.488611
O9	O	1.851809	-0.489839	-0.540421
O10	O	1.629861	-0.232794	-0.617661
O11	O	1.530139	-0.379096	-0.347766
O12	O	1.359846	-0.379028	-0.518065
O13	O	1.552488	-0.489719	-0.839752
O14	O	1.382134	-0.489766	-0.669431
O15	O	1.659276	-0.378947	-0.817436
O16	O	1.710869	-0.636038	-0.569874
O17	O	1.581841	-0.635986	-0.698907
C18	C	1.332869	-0.434395	-0.593746
C19	C	1.216095	-0.434410	-0.593768
C20	C	1.652960	-0.668736	-0.641008
C21	C	1.673215	-0.768981	-0.661255
C22	C	1.172884	-0.492163	-0.672491
C23	C	1.063162	-0.492175	-0.672505
C24	C	1.039872	-0.376677	-0.515062
C25	C	1.149591	-0.376661	-0.515053
C26	C	1.239388	-0.549911	-0.751206
C27	C	1.196178	-0.607670	-0.829935
C28	C	1.086456	-0.607682	-0.829949
C29	C	1.019945	-0.549934	-0.751233
C30	C	1.461766	-1.051927	-0.449415
C31	C	1.442731	-0.957742	-0.430395
C32	C	1.500350	-0.910547	-0.488108
C33	C	1.577008	-0.957547	-0.564845
C34	C	1.596040	-1.051741	-0.583873
C35	C	1.634624	-0.910361	-0.622565
C36	C	1.711282	-0.957361	-0.699302
C37	C	1.730310	-1.051546	-0.718326
C38	C	1.672691	-1.098741	-0.660613
C39	C	1.615592	-0.816167	-0.603538
C40	C	1.749866	-0.815981	-0.737995
C41	C	1.768901	-0.910166	-0.757015
C42	C	1.879876	-0.434429	-0.593782
C43	C	1.996654	-0.434436	-0.593790
C44	C	1.605889	-0.434320	-0.867778
C45	C	1.605910	-0.434281	-0.984547
C46	C	1.558563	-0.199172	-0.546357
C47	C	1.538417	-0.098927	-0.526156
C48	C	1.527147	-0.376582	-1.027784
C49	C	1.527173	-0.376555	-1.137503
C50	C	1.684736	-0.491928	-1.160739
C51	C	1.684705	-0.491959	-1.051023
C52	C	1.448353	-0.318904	-0.961309
C53	C	1.369583	-0.261200	-1.004544
C54	C	1.369610	-0.261173	-1.114263
C55	C	1.448405	-0.318850	-1.180746
C56	C	1.605837	-0.434438	-0.320801
C57	C	1.605968	-0.434223	-0.203982
H58	H	1.328731	-0.549910	-0.751202
H59	H	1.414856	-1.090362	-0.402438
O60	O	1.284606	-0.198991	-0.932841
H61	H	1.205258	-0.214447	-0.957003
O62	O	1.284655	-0.198937	-1.160894
H63	H	1.322482	-0.153050	-1.201642
O64	O	1.360069	-0.907058	-0.347618
H65	H	1.281265	-0.925190	-0.369217
O66	O	1.693225	-1.200330	-0.681132
H67	H	1.618999	-1.225211	-0.707328
O68	O	1.448330	-0.318929	-0.842969
H69	H	1.372744	-0.337157	-0.817701
H70	H	1.448418	-0.318826	-1.270086
H71	H	1.792726	-1.089811	-0.780815
H72	H	1.250338	-0.654680	-0.894028
O73	O	1.039863	-0.670069	-0.914766
H74	H	1.104552	-0.710259	-0.969457
H75	H	1.748890	-0.538884	-1.214877
O76	O	0.901602	-0.549952	-0.751233
H77	H	0.882726	-0.599820	-0.819194
H78	H	0.985710	-0.329662	-0.450974
H79	H	1.831317	-0.948447	-0.819496
O80	O	1.812028	-0.765092	-0.800246
H81	H	1.785926	-0.691701	-0.774114
O82	O	1.769660	-0.554182	-1.004374
H83	H	1.824467	-0.594272	-1.069027
H84	H	1.553176	-0.777908	-0.541058
O85	O	1.196211	-0.314380	-0.430139
H86	H	1.131538	-0.274238	-0.375394
O87	O	1.479838	-0.808961	-0.467586
H88	H	1.416864	-0.784208	-0.404522
