data_functionalizedCrystal
_audit_creation_method	'MofGen! by Chris Wilmer'
_symmetry_space_group_name_H-M	'P1'
_symmetry_Int_Tables_number	1
_symmetry_cell_setting	triclinic
loop_
_symmetry_equiv_pos_as_xyz
  x,y,z
_cell_length_a	12.759401
_cell_length_b	12.759399
_cell_length_c	12.759393
_cell_angle_alpha	90.030906
_cell_angle_beta	90.021157
_cell_angle_gamma	90.010719
loop_
_atom_site_label
_atom_site_type_symbol
_atom_site_fract_x
_atom_site_fract_y
_atom_site_fract_z
Zn1	Zn	-1.606263	0.418339	-0.594023
Zn2	Zn	-1.606153	0.594054	-0.418342
Zn3	Zn	-1.430562	0.418376	-0.418358
Zn4	Zn	-1.430553	0.593963	-0.593979
O5	O	-1.518383	0.506183	-0.506175
O6	O	-1.753270	0.441670	-0.570731
O7	O	-1.582818	0.570804	-0.271323
O8	O	-1.453919	0.271350	-0.441685
O9	O	-1.753189	0.570768	-0.441659
O10	O	-1.583006	0.271323	-0.570746
O11	O	-1.453812	0.441735	-0.271334
O12	O	-1.283540	0.441646	-0.441642
O13	O	-1.453903	0.570612	-0.741006
O14	O	-1.283533	0.570648	-0.570670
O15	O	-1.582997	0.441582	-0.741038
O16	O	-1.582809	0.741063	-0.441615
O17	O	-1.453796	0.740996	-0.570655
C18	C	-1.245415	0.506142	-0.506154
C19	C	-1.128639	0.506150	-0.506169
C20	C	-0.964082	0.439064	-0.573484
C21	C	-1.073807	0.439051	-0.573480
C22	C	-1.073741	0.573275	-0.438866
C23	C	-0.964019	0.573293	-0.438876
C24	C	-1.518318	0.779150	-0.506151
C25	C	-1.518387	0.895927	-0.506176
C26	C	-0.792416	0.506210	-0.506192
C27	C	-0.909193	0.506182	-0.506184
C28	C	-1.518461	0.506082	-0.780209
C29	C	-1.518495	0.506039	-0.896986
C30	C	-1.518476	0.232150	-0.506222
C31	C	-1.518516	0.115373	-0.506242
C32	C	-1.585641	0.950789	-0.439062
C33	C	-1.585708	1.060513	-0.439097
C34	C	-1.451259	1.060503	-0.573364
C35	C	-1.451198	0.950781	-0.573334
C36	C	-1.585719	0.438842	-0.951866
C37	C	-1.585737	0.438797	-1.061590
C38	C	-1.451303	0.573154	-1.061543
C39	C	-1.451281	0.573194	-0.951821
C40	C	-1.518365	0.506208	-0.233208
C41	C	-1.518535	0.505955	-0.116432
H42	H	-0.919327	0.627954	-0.384072
N43	N	-1.658120	0.891631	-0.366640
H44	H	-1.706758	0.846037	-0.409370
H45	H	-1.615355	0.846240	-0.317911
H46	H	-1.640474	1.105177	-0.384447
N47	N	-1.133010	0.366664	-0.646071
H48	H	-1.081625	0.324156	-0.688709
H49	H	-1.178520	0.317987	-0.603387
N50	N	-1.378646	0.891603	-0.645718
H51	H	-1.388807	0.813771	-0.635508
H52	H	-1.394969	0.910706	-0.720773
H53	H	-0.919446	0.384418	-0.628290
H54	H	-1.118394	0.627912	-0.384065
H55	H	-1.396555	1.105179	-0.628040
N56	N	-1.658209	0.366414	-0.892720
H57	H	-1.700796	0.323838	-0.944140
H58	H	-1.615452	0.317803	-0.847195
H59	H	-1.396532	0.627913	-0.907136
H60	H	-1.640476	0.384077	-1.106269
N61	N	-1.378796	0.645567	-1.120688
H62	H	-1.389005	0.635343	-1.198525
H63	H	-1.395098	0.720617	-1.101506
