data_functionalizedCrystal
_audit_creation_method	'MofGen! by Chris Wilmer'
_symmetry_space_group_name_H-M	'P1'
_symmetry_Int_Tables_number	1
_symmetry_cell_setting	triclinic
loop_
_symmetry_equiv_pos_as_xyz
  x,y,z
_cell_length_a	19.188930
_cell_length_b	10.654550
_cell_length_c	9.730223
_cell_angle_alpha	90.000193
_cell_angle_beta	90.014074
_cell_angle_gamma	83.814842
loop_
_atom_site_label
_atom_site_type_symbol
_atom_site_fract_x
_atom_site_fract_y
_atom_site_fract_z
O1	O	-0.927166	-0.156774	-0.114729
O2	O	-0.723993	-0.177880	-0.114634
O3	O	-0.830251	0.015511	-0.114679
O4	O	-0.820908	-0.350165	-0.114684
O5	O	-0.830250	0.015506	0.113901
O6	O	-0.723992	-0.177885	0.113946
O7	O	-0.927165	-0.156779	0.113851
Zn8	Zn	-0.825578	-0.167333	0.150190
Zn9	Zn	-0.825580	-0.167326	-0.150973
O10	O	-0.820907	-0.350170	0.113896
C11	C	-0.697977	-0.177199	-0.000332
C12	C	-0.620459	-0.175147	-0.000296
C13	C	-0.829564	0.062292	-0.000390
C14	C	-0.827512	0.201692	-0.000394
C15	C	-0.953181	-0.157460	-0.000454
C16	C	-1.030699	-0.159512	-0.000499
C17	C	-0.576277	-0.288622	-0.000319
C18	C	-0.503441	-0.286695	-0.000334
C19	C	-0.474789	-0.171286	-0.000354
C20	C	-0.518981	-0.057795	-0.000323
C21	C	-0.591816	-0.059726	-0.000294
N22	N	-0.366233	-0.083068	-0.078203
N23	N	-0.297042	-0.081242	-0.078234
C24	C	-0.255343	-0.165461	-0.000438
N25	N	-0.285446	-0.251596	0.077373
N26	N	-0.354643	-0.253426	0.077397
C27	C	-0.395813	-0.169179	-0.000384
C28	C	-0.132183	-0.276855	-0.000475
C29	C	-0.059345	-0.274922	-0.000482
C30	C	-0.074887	-0.046020	-0.000484
C31	C	-0.147723	-0.047955	-0.000464
C32	C	-0.176366	-0.163376	-0.000466
C33	C	-0.821594	-0.396951	-0.000396
C34	C	-0.823646	-0.536351	-0.000401
N35	N	-0.825582	-0.167336	0.355727
C36	C	-0.890075	0.282501	-0.000419
C37	C	-0.888142	0.413481	-0.000427
C38	C	-0.761078	0.382829	-0.000380
C39	C	-0.763011	0.251852	-0.000382
C40	C	-0.954575	0.232341	-0.000431
C41	C	-1.017143	0.313152	-0.000454
C42	C	-1.015211	0.444132	-0.000463
C43	C	-0.950710	0.494301	-0.000448
N44	N	-0.825581	-0.167313	-0.356510
C45	C	-0.872645	-0.081732	0.427633
C46	C	-0.872643	-0.081716	0.571516
C47	C	-0.778513	-0.252922	0.571574
C48	C	-0.778512	-0.252930	0.427693
C49	C	-0.919715	0.003862	0.355667
C50	C	-0.966783	0.089473	0.427573
C51	C	-0.966781	0.089488	0.571456
C52	C	-0.919712	0.003893	0.643433
H53	H	-0.599593	-0.382607	-0.000324
Cl54	Cl	-0.447887	-0.429360	-0.000361
H55	H	-0.495648	0.036172	-0.000357
H56	H	-0.712067	0.186054	-0.000359
Cl57	Cl	-1.025947	0.197083	0.337093
H58	H	-0.740191	-0.322611	0.630186
H59	H	-0.919723	0.003855	0.238510
Cl60	Cl	-0.003801	-0.417591	-0.000504
H61	H	-1.066157	0.509926	-0.000496
H62	H	-0.956156	0.125693	-0.000420
Cl63	Cl	-0.719342	-0.360548	0.337294
H64	H	-1.005101	0.159204	0.630001
Cl65	Cl	-0.647362	0.082941	-0.000266
H66	H	-0.949141	0.600955	-0.000470
H67	H	-0.155505	-0.370837	-0.000457
Cl68	Cl	-0.038875	0.099068	-0.000492
H69	H	-0.708564	0.423688	-0.000366
Cl70	Cl	-0.919707	0.003928	0.824316
H71	H	-1.069658	0.272296	-0.000501
Cl72	Cl	-0.203269	0.094708	-0.000442
