data_functionalizedCrystal
_audit_creation_method	'MofGen! by Chris Wilmer'
_symmetry_space_group_name_H-M	'P1'
_symmetry_Int_Tables_number	1
_symmetry_cell_setting	triclinic
loop_
_symmetry_equiv_pos_as_xyz
  x,y,z
_cell_length_a	18.050589
_cell_length_b	18.101398
_cell_length_c	18.101389
_cell_angle_alpha	89.973091
_cell_angle_beta	90.019529
_cell_angle_gamma	89.987495
loop_
_atom_site_label
_atom_site_type_symbol
_atom_site_fract_x
_atom_site_fract_y
_atom_site_fract_z
Zn1	Zn	-0.295896	-1.132175	0.418884
Zn2	Zn	0.204104	-0.632175	0.918884
Zn3	Zn	-0.420071	-1.132094	0.295040
Zn4	Zn	0.079929	-0.632094	0.795040
Zn5	Zn	-0.295882	-1.008334	0.295040
Zn6	Zn	0.204118	-0.508334	0.795040
Zn7	Zn	-0.420032	-1.008308	0.418823
Zn8	Zn	0.079968	-0.508308	0.918823
O9	O	-0.357970	-1.070228	0.356947
O10	O	0.142030	-0.570228	0.856947
O11	O	-0.312391	-1.235798	0.402482
O12	O	0.187609	-0.735798	0.902482
O13	O	-0.403607	-1.115654	0.191407
O14	O	0.096393	-0.615654	0.691407
O15	O	-0.191959	-1.024807	0.311493
O16	O	0.308041	-0.524807	0.811493
O17	O	-0.403621	-1.235738	0.311494
O18	O	0.096379	-0.735738	0.811494
O19	O	-0.191970	-1.115793	0.402481
O20	O	0.308030	-0.615793	0.902481
O21	O	-0.312366	-1.024728	0.191407
O22	O	0.187634	-0.524728	0.691407
O23	O	-0.312328	-0.904698	0.311434
O24	O	0.187672	-0.404698	0.811434
O25	O	-0.403555	-1.024762	0.522464
O26	O	0.096445	-0.524762	1.022464
O27	O	-0.403540	-0.904679	0.402377
O28	O	0.096460	-0.404679	0.902377
O29	O	-0.312353	-1.115767	0.522509
O30	O	0.187647	-0.615767	1.022509
O31	O	-0.523990	-1.115629	0.311435
O32	O	-0.023990	-0.615629	0.811435
O33	O	-0.523961	-1.024683	0.402378
O34	O	-0.023961	-0.524683	0.902378
C35	C	-0.357929	-0.877817	0.356899
C36	C	0.142071	-0.377817	0.856899
C37	C	-0.357929	-0.795503	0.356897
C38	C	0.142071	-0.295503	0.856897
C39	C	-0.550922	-1.070164	0.356916
C40	C	-0.050922	-0.570164	0.856916
C41	C	-0.633468	-1.070205	0.356927
C42	C	-0.133468	-0.570205	0.856927
C43	C	-0.357951	-1.070271	0.550109
C44	C	0.142049	-0.570271	1.050109
C45	C	-0.357943	-1.070289	0.632423
C46	C	0.142057	-0.570289	1.132423
C47	C	-0.882282	-1.119790	0.307555
C48	C	-0.382282	-0.619790	0.807555
C49	C	-0.832939	-1.052221	0.289356
C50	C	-0.332939	-0.552221	0.789356
C51	C	-0.930588	-1.070298	0.356984
C52	C	-0.430588	-0.570298	0.856984
C53	C	-0.832850	-1.137817	0.375120
C54	C	-0.332850	-0.637817	0.875120
C55	C	-0.784603	-1.070256	0.356955
C56	C	-0.284603	-0.570256	0.856955
C57	C	-0.882332	-1.002694	0.338751
C58	C	-0.382332	-0.502694	0.838751
C59	C	-0.882248	-1.088335	0.424547
C60	C	-0.382248	-0.588335	0.924547
C61	C	-0.832927	-1.020720	0.406373
C62	C	-0.332927	-0.520720	0.906373
C63	C	-1.014687	-1.070323	0.357000
C64	C	-0.514687	-0.570323	0.857000
C65	C	-0.700507	-1.070223	0.356939
C66	C	-0.200507	-0.570223	0.856939
C67	C	-0.164264	-1.070312	0.356994
C68	C	0.335736	-0.570312	0.856994
C69	C	-0.081719	-1.070348	0.357014
C70	C	0.418281	-0.570348	0.857014
C71	C	-0.357958	-0.496412	0.356945
C72	C	0.142042	0.003588	0.856945
C73	C	-0.300285	-0.527725	0.300007
C74	C	0.199715	-0.027725	0.800007
C75	C	-0.300444	-0.613343	0.299768
C76	C	0.199556	-0.113343	0.799768
C77	C	-0.357943	-0.644795	0.356921
C78	C	0.142057	-0.144795	0.856921
C79	C	-0.436169	-0.613691	0.335594
C80	C	0.063831	-0.113691	0.835594
C81	C	-0.435843	-0.528046	0.335194
C82	C	0.064157	-0.028046	0.835194
C83	C	-0.338088	-0.528023	0.435347
C84	C	0.161912	-0.028023	0.935347
C85	C	-0.336351	-0.613674	0.434923
C86	C	0.163649	-0.113674	0.934923
C87	C	-0.357939	-0.728654	0.356909
C88	C	0.142061	-0.228654	0.856909
C89	C	-0.357967	-0.412553	0.356956
C90	C	0.142033	0.087447	0.856956
C91	C	-0.357997	-0.263390	0.356983
C92	C	0.142003	0.236610	0.856983
C93	C	-0.357972	-0.345704	0.356970
C94	C	0.142028	0.154296	0.856970
C95	C	-0.357935	-1.070228	0.164536
C96	C	0.142065	-0.570228	0.664536
C97	C	-0.357734	-1.070353	0.082223
C98	C	0.142266	-0.570353	0.582223
C99	C	-0.357804	-1.070332	0.931514
C100	C	0.142196	-0.570332	1.431514
C101	C	-0.415003	-1.012877	0.900161
C102	C	0.084997	-0.512877	1.400161
C103	C	-0.415269	-1.013032	0.814542
C104	C	0.084731	-0.513032	1.314542
C105	C	-0.357873	-1.070310	0.783131
C106	C	0.142127	-0.570310	1.283131
C107	C	-0.379128	-1.148339	0.814240
C108	C	0.120872	-0.648339	1.314240
C109	C	-0.379503	-1.148019	0.899885
C110	C	0.120497	-0.648019	1.399885
C111	C	-0.279223	-1.050436	0.899939
C112	C	0.220777	-0.550436	1.399939
C113	C	-0.279677	-1.048700	0.814288
C114	C	0.220323	-0.548700	1.314288
C115	C	-0.357911	-1.070302	0.699272
C116	C	0.142089	-0.570302	1.199272
C117	C	-0.357768	-1.070345	1.015374
C118	C	0.142232	-0.570345	1.515374
H119	H	-0.903953	-1.161609	0.265734
H120	H	-0.403953	-0.661609	0.765734
Br121	Br	-0.240411	-0.647576	0.461738
Br122	Br	0.259589	-0.147576	0.961738
Br123	Br	-0.244664	-0.492055	0.467662
Br124	Br	0.255336	0.007945	0.967662
H125	H	-0.242097	-0.507144	0.313227
H126	H	0.257903	-0.007144	0.813227
H127	H	-0.903975	-0.945560	0.323335
H128	H	-0.403975	-0.445560	0.823335
H129	H	-0.903925	-1.103634	0.481679
H130	H	-0.403925	-0.603634	0.981679
H131	H	-0.436947	-1.164884	0.919868
H132	H	0.063053	-0.664884	1.419868
Br133	Br	-0.796830	-1.026756	0.194107
Br134	Br	-0.296830	-0.526756	0.694107
Br135	Br	-0.797034	-0.950855	0.476028
Br136	Br	-0.297034	-0.450855	0.976028
H137	H	-0.375299	-0.635086	0.479622
H138	H	0.124701	-0.135086	0.979622
H139	H	-0.811115	-1.194934	0.390471
H140	H	-0.311115	-0.694934	0.890471
Br141	Br	-0.203760	-0.648399	0.322049
Br142	Br	0.296240	-0.148399	0.822049
H143	H	-0.313271	-0.506178	0.242251
H144	H	0.186729	-0.006178	0.742251
H145	H	-0.313581	-0.633799	0.241675
H146	H	0.186419	-0.133799	0.741675
Br147	Br	-0.463932	-0.494692	0.239666
Br148	Br	0.036068	0.005308	0.739666
Br149	Br	-0.252964	-0.952986	0.780410
Br150	Br	0.247036	-0.452986	1.280410
H151	H	-0.480269	-0.507332	0.374857
H152	H	0.019731	-0.007332	0.874857
Br153	Br	-0.509715	-0.647632	0.402561
Br154	Br	-0.009715	-0.147632	0.902561
Br155	Br	-0.246951	-0.957247	0.935910
Br156	Br	0.253049	-0.457247	1.435910
H157	H	-0.453317	-0.635109	0.278900
H158	H	0.046683	-0.135109	0.778900
H159	H	-0.380095	-0.507774	0.477771
H160	H	0.119905	-0.007774	0.977771
H161	H	-0.401967	-0.955171	0.793507
H162	H	0.098033	-0.455171	1.293507
H163	H	-0.401837	-0.954842	0.920744
H164	H	0.098163	-0.454842	1.420744
Br165	Br	-0.511481	-1.034503	0.936098
Br166	Br	-0.011481	-0.534503	1.436098
Br167	Br	-0.204872	-1.113365	0.778663
Br168	Br	0.295128	-0.613365	1.278663
Br169	Br	-0.512340	-1.034971	0.780396
Br170	Br	-0.012340	-0.534971	1.280396
Br171	Br	-0.313034	-1.221743	0.934463
Br172	Br	0.186966	-0.721743	1.434463
H173	H	-0.338776	-1.192298	0.793897
H174	H	0.161224	-0.692298	1.293897
Br175	Br	-0.208193	-1.120185	0.933734
Br176	Br	0.291807	-0.620185	1.433734
Br177	Br	-0.473854	-1.176939	0.778503
Br178	Br	0.026146	-0.676939	1.278503
