data_functionalizedCrystal
_audit_creation_method	'MofGen! by Chris Wilmer'
_symmetry_space_group_name_H-M	'P1'
_symmetry_Int_Tables_number	1
_symmetry_cell_setting	triclinic
loop_
_symmetry_equiv_pos_as_xyz
  x,y,z
_cell_length_a	18.101398
_cell_length_b	12.594516
_cell_length_c	18.101389
_cell_angle_alpha	90.014195
_cell_angle_beta	90.024327
_cell_angle_gamma	90.007083
loop_
_atom_site_label
_atom_site_type_symbol
_atom_site_fract_x
_atom_site_fract_y
_atom_site_fract_z
Zn1	Zn	1.132220	-0.423988	0.418861
Zn2	Zn	1.132158	-0.601956	0.295028
Zn3	Zn	1.008379	-0.423977	0.295022
Zn4	Zn	1.008372	-0.601910	0.418817
O5	O	1.070282	-0.512958	0.356932
O6	O	1.235845	-0.447620	0.402455
O7	O	1.115715	-0.578361	0.191394
O8	O	1.024836	-0.275033	0.311465
O9	O	1.235799	-0.578372	0.311476
O10	O	1.115822	-0.275041	0.402449
O11	O	1.024776	-0.447601	0.191390
O12	O	0.904745	-0.447557	0.311422
O13	O	1.024823	-0.578294	0.522455
O14	O	0.904740	-0.578283	0.402374
O15	O	1.115814	-0.447575	0.522488
O16	O	1.115708	-0.750896	0.311433
O17	O	1.024763	-0.750862	0.402380
C18	C	0.877872	-0.512915	0.356893
C19	C	0.795558	-0.512922	0.356894
C20	C	0.496467	-0.512988	0.356956
C21	C	0.527771	-0.430327	0.300011
C22	C	0.613389	-0.430549	0.299768
C23	C	0.644849	-0.512954	0.356925
C24	C	0.613757	-0.625071	0.335607
C25	C	0.528112	-0.624611	0.335211
C26	C	0.528075	-0.484507	0.435354
C27	C	0.613725	-0.482010	0.434926
C28	C	0.728709	-0.512942	0.356909
C29	C	0.412607	-0.513008	0.356971
C30	C	1.070248	-0.789499	0.356919
C31	C	1.070301	-0.907804	0.356938
C32	C	1.119824	-0.977037	0.307525
C33	C	1.137919	-1.047759	0.375121
C34	C	1.052298	-1.047881	0.289385
C35	C	1.088431	-0.976968	0.424569
C36	C	1.002779	-0.977084	0.338788
C37	C	1.020849	-1.047774	0.406431
C38	C	1.263444	-0.513002	0.356971
C39	C	1.345758	-0.513021	0.356988
C40	C	1.070325	-0.512931	0.550094
C41	C	1.070343	-0.512919	0.632408
C42	C	1.070337	-0.235337	0.356961
C43	C	1.070360	-0.117032	0.356973
C44	C	1.070282	-0.512908	0.164521
C45	C	1.070407	-0.512619	0.082208
C46	C	1.070386	-0.512720	0.931499
C47	C	1.012940	-0.594703	0.900153
C48	C	1.013095	-0.595083	0.814535
C49	C	1.070364	-0.512819	0.783116
C50	C	1.148397	-0.543275	0.814224
C51	C	1.148077	-0.543813	0.899869
C52	C	1.050479	-0.400099	0.899917
C53	C	1.048743	-0.400749	0.814267
C54	C	1.070357	-0.512873	0.699257
C55	C	1.070399	-0.512668	1.015359
H56	H	0.634410	-0.347409	0.313131
C57	C	1.207777	-0.465155	0.786731
H58	H	1.185454	-0.413151	0.755961
H59	H	1.230378	-0.431345	0.827855
H60	H	1.244129	-0.502780	0.759401
C61	C	0.501081	-0.657232	0.257787
H62	H	0.542443	-0.670634	0.226871
H63	H	0.471855	-0.719655	0.261469
H64	H	0.472281	-0.601513	0.237248
C65	C	1.171589	-0.653313	0.785274
H66	H	1.218886	-0.671037	0.804406
H67	H	1.136564	-0.704903	0.800711
H68	H	1.173636	-0.651877	0.732842
C69	C	0.934533	-0.569219	0.927953
H70	H	0.936127	-0.508357	0.958930
H71	H	0.903144	-0.555626	0.886965
H72	H	0.915961	-0.627951	0.955133
H73	H	1.103625	-0.945951	0.481762
H74	H	0.507405	-0.688284	0.374879
C75	C	1.207850	-0.466644	0.927891
H76	H	1.208053	-0.466439	0.980375
H77	H	1.254824	-0.488737	0.910272
H78	H	1.197537	-0.397135	0.910321
H79	H	0.978994	-1.078637	0.448281
C80	C	0.499936	-0.317673	0.317843
H81	H	0.468972	-0.320037	0.360175
H82	H	0.540908	-0.272553	0.327359
H83	H	0.472734	-0.290935	0.276993
H84	H	0.994565	-0.372353	0.921502
H85	H	1.037048	-1.079030	0.232242
H86	H	1.161710	-0.945977	0.265775
H87	H	0.633847	-0.449376	0.241676
H88	H	1.195046	-1.078805	0.390492
C89	C	0.641203	-0.370574	0.456664
H90	H	0.622194	-0.352312	0.503900
H91	H	0.693655	-0.370362	0.458316
H92	H	0.624707	-0.320298	0.421191
C93	C	0.498913	-0.375989	0.461546
H94	H	0.518648	-0.360317	0.508951
H95	H	0.513567	-0.322568	0.427535
H96	H	0.446526	-0.378140	0.464316
C97	C	0.641291	-0.710506	0.389876
H98	H	0.672070	-0.678482	0.426101
H99	H	0.600185	-0.743030	0.413355
H100	H	0.668622	-0.762707	0.363648
H101	H	0.991318	-0.377782	0.793933
H102	H	0.945668	-0.946015	0.323397
H103	H	0.635178	-0.649646	0.278913
H104	H	0.506226	-0.448941	0.242257
H105	H	1.026241	-0.678562	0.794057
H106	H	0.955232	-0.576024	0.793502
H107	H	1.087529	-0.336424	0.792879
C108	C	1.170864	-0.655030	0.926874
H109	H	1.180225	-0.699458	0.885503
H110	H	1.214292	-0.649631	0.956116
H111	H	1.132120	-0.684624	0.955654
C112	C	1.030511	-0.706785	0.929244
H113	H	1.072707	-0.703836	0.960405
H114	H	0.989507	-0.732878	0.956485
H115	H	1.040172	-0.752786	0.888785
C116	C	0.642643	-0.557429	0.495315
H117	H	0.674214	-0.609009	0.473650
H118	H	0.669410	-0.517850	0.531101
H119	H	0.602136	-0.591982	0.518440
C120	C	0.500727	-0.565833	0.492675
H121	H	0.470194	-0.616899	0.468985
H122	H	0.541919	-0.600460	0.514516
H123	H	0.473180	-0.530311	0.529878
H124	H	1.092320	-0.339017	0.920190
