data_functionalizedCrystal
_audit_creation_method	'MofGen! by Chris Wilmer'
_symmetry_space_group_name_H-M	'P1'
_symmetry_Int_Tables_number	1
_symmetry_cell_setting	triclinic
loop_
_symmetry_equiv_pos_as_xyz
  x,y,z
_cell_length_a	18.215407
_cell_length_b	19.121063
_cell_length_c	18.215398
_cell_angle_alpha	87.587650
_cell_angle_beta	90.019464
_cell_angle_gamma	92.469446
loop_
_atom_site_label
_atom_site_type_symbol
_atom_site_fract_x
_atom_site_fract_y
_atom_site_fract_z
Zn1	Zn	1.112556	-0.279631	0.428597
Zn2	Zn	1.612556	0.220369	0.928597
Zn3	Zn	1.107209	-0.397081	0.310773
Zn4	Zn	1.607209	0.102919	0.810773
Zn5	Zn	0.989488	-0.279649	0.305545
Zn6	Zn	1.489488	0.220351	0.805545
Zn7	Zn	0.984200	-0.397047	0.433796
Zn8	Zn	1.484200	0.102953	0.933796
O9	O	1.048363	-0.338352	0.369678
O10	O	1.548363	0.161648	0.869678
O11	O	1.214830	-0.295218	0.412979
O12	O	1.714830	0.204782	0.912979
O13	O	1.091569	-0.381525	0.207096
O14	O	1.591569	0.118475	0.707096
O15	O	1.010264	-0.181362	0.317504
O16	O	1.510264	0.318638	0.817504
O17	O	1.210902	-0.381508	0.326414
O18	O	1.710902	0.118492	0.826414
O19	O	1.100681	-0.181349	0.407910
O20	O	1.600681	0.318651	0.907910
O21	O	1.005080	-0.295248	0.203255
O22	O	1.505080	0.204752	0.703255
O23	O	0.885803	-0.295215	0.322546
O24	O	1.385803	0.204785	0.822546
O25	O	1.001251	-0.381450	0.536090
O26	O	1.501251	0.118550	1.036090
O27	O	0.881917	-0.381467	0.416771
O28	O	1.381917	0.118533	0.916771
O29	O	1.095553	-0.295185	0.532270
O30	O	1.595553	0.204815	1.032270
O31	O	1.086441	-0.495361	0.331456
O32	O	1.586441	0.004639	0.831456
O33	O	0.996066	-0.495337	0.421841
O34	O	1.496066	0.004663	0.921841
C35	C	0.857157	-0.338340	0.369656
C36	C	1.357157	0.161660	0.869656
C37	C	0.775358	-0.338352	0.369665
C38	C	1.275358	0.161648	0.869665
C39	C	0.585157	-0.383334	0.418672
C40	C	1.085157	0.116666	0.918672
C41	C	0.508298	-0.383336	0.418682
C42	C	1.008298	0.116664	0.918682
C43	C	0.512321	-0.293383	0.320700
C44	C	1.012321	0.206617	0.820700
C45	C	0.589178	-0.293378	0.320694
C46	C	1.089178	0.206622	0.820694
C47	C	0.625594	-0.338357	0.369680
C48	C	1.125594	0.161643	0.869680
C49	C	0.471878	-0.338365	0.369694
C50	C	0.971878	0.161635	0.869694
C51	C	0.388544	-0.338367	0.369704
C52	C	0.888544	0.161633	0.869704
C53	C	0.708933	-0.338354	0.369671
C54	C	1.208933	0.161646	0.869671
C55	C	1.040119	-0.520833	0.377796
C56	C	1.540119	-0.020833	0.877796
C57	C	1.036660	-0.598899	0.381293
C58	C	1.536660	-0.098899	0.881293
C59	C	1.082124	-0.635565	0.335917
C60	C	1.582124	-0.135565	0.835917
C61	C	1.078875	-0.708916	0.339211
C62	C	1.578875	-0.208916	0.839211
C63	C	1.030157	-0.745601	0.387878
C64	C	1.530157	-0.245601	0.887878
C65	C	0.984691	-0.708930	0.433259
C66	C	1.484691	-0.208930	0.933259
C67	C	0.987944	-0.635580	0.429968
C68	C	1.487944	-0.135580	0.929968
C69	C	1.017982	-0.967071	0.400169
C70	C	1.517982	-0.467071	0.900169
C71	C	1.014730	-1.040427	0.403454
C72	C	1.514730	-0.540427	0.903454
C73	C	1.108916	-1.040407	0.309407
C74	C	1.608916	-0.540407	0.809407
C75	C	1.112162	-0.967056	0.306117
C76	C	1.612162	-0.467056	0.806117
C77	C	1.066698	-0.930392	0.351501
C78	C	1.566698	-0.430392	0.851501
C79	C	1.026833	-0.820578	0.391244
C80	C	1.526833	-0.320578	0.891244
C81	C	1.070026	-0.855416	0.348138
C82	C	1.570026	-0.355416	0.848138
C83	C	1.240315	-0.338365	0.369700
C84	C	1.740315	0.161635	0.869700
C85	C	1.322114	-0.338370	0.369709
C86	C	1.822114	0.161630	0.869709
C87	C	1.048409	-0.338312	0.561629
C88	C	1.548409	0.161688	1.061629
C89	C	1.048428	-0.338294	0.643427
C90	C	1.548428	0.161706	1.143427
C91	C	1.056659	-0.155158	0.361544
C92	C	1.556659	0.344842	0.861544
C93	C	1.060194	-0.077092	0.358078
C94	C	1.560194	0.422908	0.858078
C95	C	1.048363	-0.338342	0.178471
C96	C	1.548363	0.161658	0.678471
C97	C	1.048495	-0.338161	0.096664
C98	C	1.548495	0.161839	0.596664
C99	C	1.093500	-0.383132	0.910485
C100	C	1.593500	0.116868	1.410485
C101	C	1.093488	-0.383157	0.833627
C102	C	1.593488	0.116843	1.333627
C103	C	1.003417	-0.293321	0.829611
C104	C	1.503417	0.206679	1.329611
C105	C	1.003426	-0.293301	0.906468
C106	C	1.503426	0.206699	1.406468
C107	C	1.048472	-0.338205	0.946903
C108	C	1.548472	0.161795	1.446903
C109	C	1.048451	-0.338250	0.793189
C110	C	1.548451	0.161750	1.293189
C111	C	1.048437	-0.338276	0.709856
C112	C	1.548437	0.161724	1.209856
C113	C	1.048485	-0.338180	1.030241
C114	C	1.548485	0.161820	1.530241
H115	H	0.614805	-0.419957	0.458561
H116	H	1.114805	0.080043	0.958561
H117	H	0.966755	-0.256715	0.936120
H118	H	1.466755	0.243285	1.436120
H119	H	0.966744	-0.256761	0.796680
H120	H	1.466744	0.243239	1.296680
O121	O	0.477022	-0.249731	0.273014
O122	O	0.977022	0.250269	0.773014
C123	C	0.495069	-0.265000	0.200317
C124	C	0.995069	0.235000	0.700317
H125	H	0.549655	-0.291991	0.199943
H126	H	1.049655	0.208009	0.699943
H127	H	0.499972	-0.214270	0.165146
H128	H	0.999972	0.285730	0.665146
H129	H	0.450175	-0.301084	0.177078
H130	H	0.950175	0.198916	0.677078
O131	O	0.469128	-0.427094	0.466298
O132	O	0.969128	0.072906	0.966298
C133	C	0.517755	-0.466776	0.509543
C134	C	1.017755	0.033224	1.009543
H135	H	0.572420	-0.469167	0.479495
H136	H	1.072420	0.030833	0.979495
H137	H	0.493053	-0.522125	0.519764
H138	H	0.993053	-0.022125	1.019764
H139	H	0.527113	-0.441126	0.564337
H140	H	1.027113	0.058874	1.064337
H141	H	0.950923	-0.605728	0.466919
H142	H	1.450923	-0.105728	0.966919
O143	O	0.628540	-0.249783	0.273067
O144	O	1.128540	0.250217	0.773067
C145	C	0.671164	-0.289710	0.227231
C146	C	1.171164	0.210290	0.727231
H147	H	0.680281	-0.342968	0.255466
H148	H	1.180281	0.157032	0.755466
H149	H	0.726500	-0.261088	0.216143
H150	H	1.226500	0.238912	0.716143
H151	H	0.641179	-0.297361	0.173021
H152	H	1.141179	0.202639	0.673021
H153	H	1.109695	-0.825545	0.308516
H154	H	1.609695	-0.325545	0.808516
H155	H	1.121792	-0.605701	0.296284
H156	H	1.621792	-0.105701	0.796284
H157	H	1.115897	-0.738766	0.302260
H158	H	1.615897	-0.238766	0.802260
H159	H	1.151831	-0.937189	0.266489
H160	H	1.651831	-0.437189	0.766489
O161	O	1.153004	-1.075994	0.265224
O162	O	1.653004	-0.575994	0.765224
C163	C	1.137774	-1.058119	0.191058
C164	C	1.637774	-0.558119	0.691058
H165	H	1.079876	-1.038004	0.186380
H166	H	1.579876	-0.538004	0.686380
H167	H	1.141998	-1.106376	0.156873
H168	H	1.641998	-0.606376	0.656873
H169	H	1.179132	-1.015524	0.169949
H170	H	1.679132	-0.515524	0.669949
H171	H	0.980962	-0.937225	0.437121
H172	H	1.480962	-0.437225	0.937121
H173	H	0.975067	-1.070294	0.443098
H174	H	1.475067	-0.570294	0.943098
H175	H	0.945027	-0.738805	0.472888
H176	H	1.445027	-0.238805	0.972888
H177	H	0.987166	-0.850455	0.430867
H178	H	1.487166	-0.350455	0.930867
H179	H	1.130178	-0.419697	0.943405
H180	H	1.630178	0.080303	1.443405
H181	H	1.130154	-0.419740	0.803980
H182	H	1.630154	0.080260	1.303980
