data_functionalizedCrystal
_audit_creation_method	'MofGen! by Chris Wilmer'
_symmetry_space_group_name_H-M	'P1'
_symmetry_Int_Tables_number	1
_symmetry_cell_setting	triclinic
loop_
_symmetry_equiv_pos_as_xyz
  x,y,z
_cell_length_a	19.288864
_cell_length_b	13.596369
_cell_length_c	19.288865
_cell_angle_alpha	90.011218
_cell_angle_beta	83.136245
_cell_angle_gamma	90.019175
loop_
_atom_site_label
_atom_site_type_symbol
_atom_site_fract_x
_atom_site_fract_y
_atom_site_fract_z
O1	O	0.921349	0.082118	0.086649
O2	O	0.719088	0.082052	0.098338
O3	O	0.826063	0.082068	-0.008637
O4	O	0.814374	0.082103	0.193624
O5	O	0.826052	-0.081515	-0.008643
O6	O	0.719078	-0.081531	0.098332
O7	O	0.921338	-0.081465	0.086643
Zn8	Zn	0.820206	-0.107470	0.092487
Zn9	Zn	0.820220	0.108057	0.092494
O10	O	0.814364	-0.081480	0.193618
C11	C	0.693207	0.000252	0.097959
C12	C	0.616103	0.000226	0.096830
N13	N	0.820202	-0.254562	0.092481
C14	C	0.571407	0.000253	0.159598
C15	C	0.498960	0.000263	0.158537
C16	C	0.471212	0.000267	0.094705
C17	C	0.515918	0.000235	0.031929
C18	C	0.588364	0.000215	0.032991
C19	C	0.362954	0.057602	0.044528
C20	C	0.290509	0.057629	0.043468
C21	C	0.247767	0.000326	0.091425
C22	C	0.277476	-0.056990	0.140454
C23	C	0.349921	-0.057011	0.141517
C24	C	0.392658	0.000289	0.093546
C25	C	0.124514	0.000363	0.153047
C26	C	0.052066	0.000367	0.151984
C27	C	0.069026	0.000349	0.025374
C28	C	0.141473	0.000335	0.026439
C29	C	0.169212	0.000346	0.090278
C30	C	0.820219	-0.655853	0.092495
C31	C	0.820212	-0.544202	0.092493
C32	C	0.820211	-0.455211	0.092489
C33	C	0.820203	-0.343552	0.092486
C34	C	0.947220	0.000337	0.087022
C35	C	1.024324	0.000370	0.088151
C36	C	0.825682	0.000273	-0.034516
C37	C	0.824553	0.000264	-0.111620
N38	N	0.820230	0.255149	0.092494
C39	C	0.887321	0.000280	-0.156316
C40	C	0.886260	0.000295	-0.228763
C41	C	0.822428	0.000275	-0.256511
C42	C	0.759652	0.000265	-0.211805
C43	C	0.760714	0.000259	-0.139359
C44	C	0.772244	-0.057041	-0.364800
C45	C	0.771185	-0.057042	-0.437245
C46	C	0.819148	0.000296	-0.479956
C47	C	0.868183	0.057621	-0.450216
C48	C	0.869246	0.057616	-0.377771
C49	C	0.821269	0.000281	-0.335065
C50	C	0.880770	0.000329	-0.603209
C51	C	0.879707	0.000350	-0.675657
C52	C	0.753097	0.000310	-0.658697
C53	C	0.754162	0.000299	-0.586250
C54	C	0.818000	0.000304	-0.558511
C55	C	0.814745	0.000316	0.219497
C56	C	0.815874	0.000332	0.296601
H57	H	0.593987	0.000264	0.211580
H58	H	0.709599	0.000246	-0.102967
H59	H	0.939303	0.000287	-0.133736
O60	O	0.942796	0.000524	-0.576289
C61	C	0.981055	0.085252	-0.599145
H62	H	0.943725	0.144453	-0.614090
H63	H	1.019912	0.066120	-0.646485
C64	C	1.066635	0.050966	-0.521620
C65	C	1.020784	0.123681	-0.539970
H66	H	1.091145	0.074670	-0.485120
H67	H	1.040861	-0.006119	-0.506223
H68	H	1.099009	0.035029	-0.561075
H69	H	0.988406	0.139608	-0.500517
H70	H	1.046554	0.180770	-0.555359
H71	H	0.624756	0.000194	-0.018124
H72	H	0.733185	-0.103738	-0.330029
O73	O	0.184796	0.000364	-0.034599
C74	C	0.144774	0.000344	-0.091168
H75	H	0.090658	0.031331	-0.073367
H76	H	0.139647	-0.078136	-0.110748
C77	C	0.247549	0.026421	-0.172421
C78	C	0.181084	0.064487	-0.150559
H79	H	0.269947	0.065983	-0.209059
H80	H	0.274513	0.026431	-0.134310
H81	H	0.243267	-0.038978	-0.188734
H82	H	0.185366	0.129880	-0.134239
H83	H	0.154121	0.064490	-0.188669
H84	H	0.937375	0.000311	-0.265162
H85	H	0.907239	0.104311	-0.484991
O86	O	0.691047	0.000161	-0.685560
C87	C	0.652796	-0.084585	-0.662731
H88	H	0.671563	-0.112832	-0.612547
H89	H	0.660969	-0.143902	-0.704691
C90	C	0.551568	-0.024178	-0.710539
C91	C	0.574615	-0.058867	-0.648899
H92	H	0.503343	-0.008316	-0.702009
H93	H	0.577339	0.032916	-0.725922
H94	H	0.558385	-0.073614	-0.745500
H95	H	0.567806	-0.009426	-0.613942
H96	H	0.548842	-0.115952	-0.633509
O97	O	0.916896	0.113394	-0.348991
C98	C	0.959017	0.163987	-0.402219
H99	H	0.929917	0.170903	-0.450065
H100	H	1.009625	0.121511	-0.416721
C101	C	1.011718	0.258791	-0.317373
C102	C	0.975974	0.267293	-0.376137
H103	H	1.022181	0.322513	-0.301284
H104	H	0.983342	0.224704	-0.281512
H105	H	1.053886	0.223391	-0.329466
H106	H	0.933802	0.302681	-0.364041
H107	H	1.004343	0.301389	-0.411995
H108	H	0.930822	0.000369	-0.712049
H109	H	0.462561	0.000282	0.209652
H110	H	0.147101	0.000358	0.205028
H111	H	0.374107	-0.103683	0.181436
O112	O	0.693206	0.000447	-0.542800
C113	C	0.690045	0.085151	-0.500361
H114	H	0.725652	0.144379	-0.526994
H115	H	0.707855	0.065998	-0.447737
C116	C	0.570702	0.050798	-0.456402
C117	C	0.614431	0.123546	-0.489116
H118	H	0.524060	0.074481	-0.449463
H119	H	0.572832	-0.006271	-0.484992
H120	H	0.585552	0.034844	-0.412552
H121	H	0.599586	0.139491	-0.532969
H122	H	0.612297	0.180619	-0.460533
O123	O	0.404367	0.113367	-0.002087
C124	C	0.362614	0.163950	-0.045591
H125	H	0.307176	0.170880	-0.018003
H126	H	0.361691	0.121459	-0.096432
C127	C	0.461226	0.258729	-0.095589
C128	C	0.393138	0.267248	-0.061701
H129	H	0.480056	0.322447	-0.105529
H130	H	0.489357	0.224648	-0.066281
H131	H	0.460449	0.223316	-0.137952
H132	H	0.393918	0.302650	-0.019335
H133	H	0.365008	0.301338	-0.091002
O134	O	0.261612	0.113423	-0.004063
C135	C	0.214934	0.181764	0.031077
H136	H	0.229466	0.194606	0.085936
H137	H	0.159441	0.151715	0.034560
C138	C	0.201427	0.263887	-0.076727
C139	C	0.219279	0.279666	-0.009350
H140	H	0.204105	0.324276	-0.101665
H141	H	0.232873	0.217842	-0.100402
H142	H	0.155184	0.238843	-0.073815
H143	H	0.265524	0.304698	-0.012263
H144	H	0.187841	0.325718	0.014324
H145	H	0.707679	0.000250	-0.234401
O146	O	0.236063	-0.112685	0.187112
C147	C	0.277821	-0.163295	0.230598
H148	H	0.329486	-0.122776	0.231274
H149	H	0.288301	-0.241043	0.209808
C150	C	0.176029	-0.218056	0.304440
C151	C	0.239484	-0.168285	0.305275
H152	H	0.152380	-0.221138	0.350504
H153	H	0.147896	-0.183962	0.275141
H154	H	0.184772	-0.282840	0.287112
H155	H	0.230740	-0.103498	0.322594
H156	H	0.267615	-0.202368	0.334578
O157	O	0.489050	0.000374	-0.030121
C158	C	0.511930	0.085095	-0.068362
H159	H	0.562132	0.113325	-0.049591
H160	H	0.470006	0.144436	-0.060182
C161	C	0.464086	0.024674	-0.169597
C162	C	0.525748	0.059342	-0.146545
H163	H	0.472607	0.008791	-0.217824
H164	H	0.448669	-0.032402	-0.143833
H165	H	0.429155	0.074131	-0.162774
H166	H	0.560674	0.009881	-0.153360
H167	H	0.541172	0.116410	-0.172312
O168	O	0.723490	-0.112750	-0.466015
C169	C	0.681388	-0.163366	-0.412785
H170	H	0.682234	-0.122840	-0.361149
H171	H	0.702391	-0.241106	-0.407889
C172	C	0.604847	-0.218165	-0.494425
C173	C	0.605881	-0.168384	-0.431005
H174	H	0.558271	-0.221264	-0.505664
H175	H	0.633212	-0.184067	-0.530288
H176	H	0.622352	-0.282943	-0.490337
H177	H	0.588384	-0.103604	-0.435097
H178	H	0.577511	-0.202471	-0.395143
H179	H	0.015674	0.000383	0.203099
H180	H	0.046435	0.000414	-0.026600
