data_functionalizedCrystal
_audit_creation_method	'MofGen! by Chris Wilmer'
_symmetry_space_group_name_H-M	'P1'
_symmetry_Int_Tables_number	1
_symmetry_cell_setting	triclinic
loop_
_symmetry_equiv_pos_as_xyz
  x,y,z
_cell_length_a	27.731993
_cell_length_b	27.732048
_cell_length_c	26.210047
_cell_angle_alpha	89.990787
_cell_angle_beta	89.994829
_cell_angle_gamma	82.631525
loop_
_atom_site_label
_atom_site_type_symbol
_atom_site_fract_x
_atom_site_fract_y
_atom_site_fract_z
O1	O	0.640953	0.057390	-0.042297
O2	O	1.140953	0.557390	0.457703
O3	O	0.500156	0.066163	-0.042329
O4	O	1.000156	0.566163	0.457671
O5	O	0.574927	-0.008621	-0.042302
O6	O	1.074927	0.491379	0.457698
O7	O	0.566182	0.132174	-0.042324
O8	O	1.066182	0.632174	0.457676
O9	O	0.574904	-0.008620	0.042556
O10	O	1.074904	0.491380	0.542556
O11	O	0.500132	0.066164	0.042529
O12	O	1.000132	0.566164	0.542529
O13	O	0.640929	0.057391	0.042561
O14	O	1.140929	0.557391	0.542561
Cu15	Cu	0.570529	0.061777	0.050293
Cu16	Cu	1.070529	0.561777	0.550293
Cu17	Cu	0.570557	0.061776	-0.050061
Cu18	Cu	1.070557	0.561776	0.449939
O19	O	0.566158	0.132175	0.042534
O20	O	1.066158	0.632175	0.542534
C21	C	0.482137	0.065983	0.000096
C22	C	0.982137	0.565983	0.500096
C23	C	0.428480	0.065441	0.000084
C24	C	0.928480	0.565441	0.500084
C25	C	0.045333	0.061510	-0.046147
C26	C	0.545333	0.561510	0.453853
C27	C	0.246991	0.063577	-0.046161
C28	C	0.746991	0.563577	0.453839
O29	O	0.273075	0.063825	-0.085501
O30	O	0.773075	0.563825	0.414499
N31	N	0.272198	0.063836	0.000094
N32	N	0.772198	0.563836	0.500094
C33	C	0.246988	0.063575	0.046356
C34	C	0.746988	0.563575	0.546356
O35	O	0.273056	0.063838	0.085699
O36	O	0.773056	0.563838	0.585699
C37	C	0.045332	0.061505	0.046370
C38	C	0.545332	0.561505	0.546370
C39	C	0.020127	0.061251	0.000112
C40	C	0.520127	0.561251	0.500112
C41	C	0.020128	0.061255	-0.092401
C42	C	0.520128	0.561255	0.407599
C43	C	-0.030284	0.060741	-0.092397
C44	C	0.469716	0.560741	0.407603
C45	C	-0.055490	0.060482	-0.046139
C46	C	0.444510	0.560482	0.453861
C47	C	-0.030285	0.060736	0.000116
C48	C	0.469715	0.560736	0.500116
C49	C	0.020124	0.061240	0.092631
C50	C	0.520124	0.561240	0.592631
C51	C	-0.030293	0.060721	0.092630
C52	C	0.469707	0.560721	0.592630
C53	C	-0.055499	0.060467	0.046372
C54	C	0.444501	0.560467	0.546372
C55	C	-0.105903	0.059963	0.046378
C56	C	0.394097	0.559963	0.546378
N57	N	-0.131110	0.059704	0.000123
N58	N	0.368890	0.559704	0.500123
C59	C	-0.105904	0.059963	-0.046135
C60	C	0.394096	0.559963	0.453865
C61	C	0.352860	0.064663	0.046346
C62	C	0.852860	0.564663	0.546346
C63	C	0.403274	0.065182	0.046343
C64	C	0.903274	0.565182	0.546343
C65	C	0.403273	0.065183	-0.046175
C66	C	0.903273	0.565183	0.453825
C67	C	0.352858	0.064668	-0.046171
C68	C	0.852858	0.564668	0.453829
C69	C	0.327653	0.064404	0.000091
C70	C	0.827653	0.564404	0.500091
C71	C	-0.211772	0.058884	-0.046123
C72	C	0.288228	0.558884	0.453877
C73	C	-0.262189	0.058372	-0.046115
C74	C	0.237811	0.558372	0.453885
C75	C	-0.262183	0.058369	0.046402
C76	C	0.237817	0.558369	0.546402
C77	C	-0.211771	0.058883	0.046394
C78	C	0.288229	0.558883	0.546394
C79	C	-0.186567	0.059139	0.000127
C80	C	0.313433	0.559139	0.500127
O81	O	-0.132018	0.059710	0.085698
O82	O	0.367982	0.559710	0.585698
O83	O	-0.131979	0.059690	-0.085472
O84	O	0.368021	0.559690	0.414528
C85	C	0.095745	0.062024	-0.046151
C86	C	0.595745	0.562024	0.453849
C87	C	0.120950	0.062279	0.000104
C88	C	0.620950	0.562279	0.500104
C89	C	0.095744	0.062019	0.046362
C90	C	0.595744	0.562019	0.546362
C91	C	0.171364	0.062797	0.000101
C92	C	0.671364	0.562797	0.500101
C93	C	0.196570	0.063057	-0.046158
C94	C	0.696570	0.563057	0.453842
C95	C	0.171363	0.062798	-0.092413
C96	C	0.671363	0.562798	0.407587
C97	C	0.120951	0.062284	-0.092409
C98	C	0.620951	0.562284	0.407591
C99	C	0.120951	0.062278	0.092617
C100	C	0.620951	0.562278	0.592617
C101	C	0.171363	0.062793	0.092609
C102	C	0.671363	0.562793	0.592609
C103	C	0.196569	0.063052	0.046351
C104	C	0.696569	0.563052	0.546351
C105	C	0.574732	-0.026628	0.000128
C106	C	1.074732	0.473372	0.500128
C107	C	0.574179	-0.080282	0.000132
C108	C	1.074179	0.419718	0.500132
C109	C	0.614884	-0.419105	0.000115
C110	C	1.114884	0.080895	0.500115
C111	C	0.612833	-0.620765	0.000108
C112	C	1.112833	-0.120765	0.500108
O113	O	0.650055	-0.652028	0.000094
O114	O	1.150055	-0.152028	0.500094
N115	N	0.568497	-0.639880	0.000098
N116	N	1.068497	-0.139880	0.500098
C117	C	0.524670	-0.608576	0.000087
C118	C	1.024670	-0.108576	0.500087
O119	O	0.486912	-0.629462	0.000073
O120	O	0.986912	-0.129462	0.500073
C121	C	0.526721	-0.406918	0.000091
C122	C	1.026721	0.093082	0.500091
C123	C	0.571061	-0.387806	0.000106
C124	C	1.071061	0.112194	0.500106
C125	C	0.659220	-0.399993	0.000129
C126	C	1.159220	0.100007	0.500129
C127	C	0.659732	-0.349581	0.000134
C128	C	1.159732	0.150419	0.500134
C129	C	0.615909	-0.318282	0.000124
C130	C	1.115909	0.181718	0.500124
C131	C	0.571573	-0.337394	0.000110
C132	C	1.071573	0.162606	0.500110
C133	C	0.482895	-0.375616	0.000076
C134	C	0.982895	0.124384	0.500076
C135	C	0.483412	-0.325199	0.000076
C136	C	0.983412	0.174801	0.500076
C137	C	0.527751	-0.306087	0.000091
C138	C	1.027751	0.193913	0.500091
C139	C	0.528262	-0.255683	0.000105
C140	C	1.028262	0.244317	0.500105
N141	N	0.572598	-0.236568	0.000115
N142	N	1.072598	0.263432	0.500115
C143	C	0.616422	-0.267867	0.000124
C144	C	1.116422	0.232133	0.500124
C145	C	0.523596	-0.714450	0.000086
C146	C	1.023596	-0.214450	0.500086
C147	C	0.523083	-0.764865	0.000086
C148	C	1.023083	-0.264865	0.500086
C149	C	0.611246	-0.777049	0.000105
C150	C	1.111246	-0.277049	0.500105
C151	C	0.611759	-0.726634	0.000109
C152	C	1.111759	-0.226634	0.500109
C153	C	0.567932	-0.695335	0.000095
C154	C	1.067932	-0.195335	0.500095
C155	C	0.617494	-0.161998	0.000135
C156	C	1.117494	0.338002	0.500135
C157	C	0.618002	-0.111582	0.000142
C158	C	1.118002	0.388418	0.500142
C159	C	0.529839	-0.099401	0.000119
C160	C	1.029839	0.400599	0.500119
C161	C	0.529331	-0.149814	0.000115
C162	C	1.029331	0.350186	0.500115
C163	C	0.573162	-0.181112	0.000121
C164	C	1.073162	0.318888	0.500121
O165	O	0.491060	-0.224392	0.000114
O166	O	0.991060	0.275608	0.500114
O167	O	0.654174	-0.246972	0.000127
O168	O	1.154174	0.253028	0.500127
C169	C	0.614372	-0.469517	0.000110
C170	C	1.114372	0.030483	0.500110
C171	C	0.570036	-0.488630	0.000096
C172	C	1.070036	0.011370	0.500096
C173	C	0.526213	-0.457331	0.000087
C174	C	1.026213	0.042669	0.500087
C175	C	0.569523	-0.539044	0.000096
C176	C	1.069523	-0.039044	0.500096
C177	C	0.613346	-0.570343	0.000106
C178	C	1.113346	-0.070343	0.500106
C179	C	0.657683	-0.551228	0.000115
C180	C	1.157683	-0.051228	0.500115
C181	C	0.658195	-0.500817	0.000120
C182	C	1.158195	-0.000817	0.500120
C183	C	0.481876	-0.476446	0.000077
C184	C	0.981876	0.023554	0.500077
C185	C	0.481368	-0.526858	0.000073
C186	C	0.981368	-0.026858	0.500073
C187	C	0.525191	-0.558157	0.000083
C188	C	1.025191	-0.058157	0.500083
C189	C	0.658949	0.057570	0.000135
C190	C	1.158949	0.557570	0.500135
C191	C	0.712605	0.058113	0.000143
C192	C	1.212605	0.558113	0.500143
C193	C	0.566353	0.150181	0.000103
C194	C	1.066353	0.650181	0.500103
C195	C	0.566906	0.203836	0.000095
C196	C	1.066906	0.703836	0.500095
N197	N	0.570512	0.061777	0.120877
N198	N	1.070512	0.561777	0.620877
C199	C	0.599646	0.090885	0.473394
C200	C	1.099646	0.590885	0.973394
C201	C	0.599660	0.090887	0.687052
C202	C	1.099660	0.590887	1.187052
O203	O	0.624421	0.115628	0.714676
O204	O	1.124421	0.615628	1.214676
N205	N	0.570564	0.061777	0.713771
N206	N	1.070564	0.561777	1.213771
C207	C	0.541465	0.032663	0.687072
C208	C	1.041465	0.532663	1.187072
O209	O	0.516722	0.007900	0.714701
O210	O	1.016722	0.507900	1.214701
C211	C	0.541455	0.032660	0.473414
C212	C	1.041455	0.532660	0.973414
C213	C	0.570549	0.061775	0.446698
C214	C	1.070549	0.561775	0.946698
C215	C	0.628738	0.119998	0.446677
C216	C	1.128738	0.619998	0.946677
C217	C	0.628733	0.119999	0.393266
C218	C	1.128733	0.619999	0.893266
C219	C	0.599635	0.090888	0.366571
C220	C	1.099635	0.590888	0.866571
C221	C	0.570543	0.061776	0.393287
C222	C	1.070543	0.561776	0.893287
C223	C	0.512359	0.003543	0.446716
C224	C	1.012359	0.503543	0.946716
C225	C	0.512360	0.003544	0.393298
C226	C	1.012360	0.503544	0.893298
C227	C	0.541454	0.032659	0.366582
C228	C	1.041454	0.532659	0.866582
C229	C	0.541440	0.032667	0.313180
C230	C	1.041440	0.532667	0.813180
N231	N	0.570536	0.061776	0.286461
N232	N	1.070536	0.561776	0.786461
C233	C	0.599634	0.090887	0.313156
C234	C	1.099634	0.590887	0.813156
C235	C	0.541472	0.032668	0.799245
C236	C	1.041472	0.532668	1.299245
C237	C	0.541474	0.032669	0.852659
C238	C	1.041474	0.532669	1.352659
C239	C	0.599669	0.090892	0.852636
C240	C	1.099669	0.590892	1.352636
C241	C	0.599664	0.090893	0.799221
C242	C	1.099664	0.590893	1.299221
C243	C	0.570568	0.061777	0.772526
C244	C	1.070568	0.561777	1.272526
C245	C	0.599619	0.090888	0.200989
C246	C	1.099619	0.590888	0.700989
C247	C	0.599610	0.090888	0.147572
C248	C	1.099610	0.590888	0.647572
C249	C	0.541417	0.032664	0.147601
C250	C	1.041417	0.532664	0.647601
C251	C	0.541424	0.032665	0.201012
C252	C	1.041424	0.532665	0.701012
C253	C	0.570529	0.061778	0.227705
C254	C	1.070529	0.561778	0.727705
O255	O	0.516696	0.007934	0.285523
O256	O	1.016696	0.507934	0.785523
O257	O	0.624382	0.115638	0.285519
O258	O	1.124382	0.615638	0.785519
C259	C	0.599652	0.090884	0.526805
C260	C	1.099652	0.590884	1.026805
C261	C	0.570560	0.061772	0.553521
C262	C	1.070560	0.561772	1.053521
C263	C	0.541463	0.032661	0.526826
C264	C	1.041463	0.532661	1.026826
C265	C	0.570562	0.061773	0.606935
C266	C	1.070562	0.561773	1.106935
C267	C	0.599659	0.090884	0.633631
C268	C	1.099659	0.590884	1.133631
C269	C	0.628755	0.119993	0.606912
C270	C	1.128755	0.619993	1.106912
C271	C	0.628750	0.119995	0.553500
C272	C	1.128750	0.619995	1.053500
C273	C	0.512367	0.003552	0.553545
C274	C	1.012367	0.503552	1.053545
C275	C	0.512374	0.003553	0.606956
C276	C	1.012374	0.503553	1.106956
C277	C	0.541472	0.032664	0.633651
C278	C	1.041472	0.532664	1.133651
N279	N	0.570571	0.061780	0.879355
N280	N	1.070571	0.561780	1.379355
H281	H	0.100433	0.062077	-0.130077
H282	H	0.600433	0.562077	0.369923
Br283	Br	0.717157	-0.593716	0.000132
Br284	Br	1.217157	-0.093716	0.500132
H285	H	0.191894	0.063012	-0.130078
H286	H	0.691894	0.563012	0.369922
H287	H	0.423804	0.065395	-0.083840
H288	H	0.923804	0.565395	0.416160
Br289	Br	0.422395	-0.433975	0.000062
Br290	Br	0.922395	0.066025	0.500062
H291	H	0.623355	0.114601	0.777472
H292	H	1.123355	0.614601	1.277472
Br293	Br	0.668210	0.159524	0.357017
Br294	Br	1.168210	0.659524	0.857017
H295	H	0.647864	-0.711077	0.000121
H296	H	1.147864	-0.211077	0.500121
H297	H	0.652436	0.143703	0.468407
H298	H	1.152436	0.643703	0.968407
H299	H	0.623359	0.114597	0.874380
H300	H	1.123359	0.614597	1.374380
H301	H	0.040646	0.061465	-0.130072
H302	H	0.540646	0.561465	0.369928
Br303	Br	0.318660	0.064312	0.109136
Br304	Br	0.818660	0.564312	0.609136
H305	H	0.446789	-0.391168	0.000061
H306	H	0.946789	0.108832	0.500061
H307	H	0.652441	0.143703	0.531753
H308	H	1.152441	0.643703	1.031753
H309	H	0.332339	0.064461	-0.083838
H310	H	0.832339	0.564461	0.416162
H311	H	0.423791	0.065396	0.084011
H312	H	0.923791	0.565396	0.584011
H313	H	0.517727	0.008963	0.222765
H314	H	1.017727	0.508963	0.722765
H315	H	0.517725	0.008964	0.125856
H316	H	1.017725	0.508964	0.625856
H317	H	0.652445	0.143699	0.628656
H318	H	1.152445	0.643699	1.128656
Br319	Br	0.719910	-0.323652	0.000140
Br320	Br	1.219910	0.176348	0.500140
Br321	Br	0.054318	0.061586	0.155414
Br322	Br	0.554318	0.561586	0.655414
H323	H	0.486977	-0.780421	0.000083
H324	H	0.986977	-0.280421	0.500083
Br325	Br	0.678181	-0.085647	0.000162
Br326	Br	1.178181	0.414353	0.500162
Br327	Br	0.205563	0.063142	0.155394
Br328	Br	0.705563	0.563142	0.655394
H329	H	-0.191249	0.059100	0.084061
H330	H	0.308751	0.559100	0.584061
Br331	Br	0.501970	-0.006841	0.763025
Br332	Br	1.001970	0.493159	1.263025
Br333	Br	-0.064496	0.060359	0.155418
Br334	Br	0.435504	0.560359	0.655418
H335	H	-0.282715	0.058159	0.084064
H336	H	0.217285	0.558159	0.584064
H337	H	0.100433	0.062064	0.130287
H338	H	0.600433	0.562064	0.630287
H339	H	0.517777	0.008967	0.874407
H340	H	1.017777	0.508967	1.374407
Br341	Br	0.639092	0.130409	0.111318
Br342	Br	1.139092	0.630409	0.611318
Br343	Br	-0.177574	0.059232	-0.108914
Br344	Br	0.322426	0.559232	0.391086
Br345	Br	0.676980	-0.204466	0.000142
Br346	Br	1.176980	0.295534	0.500142
Br347	Br	0.472882	-0.035960	0.643207
Br348	Br	0.972882	0.464040	1.143207
H349	H	0.447722	-0.299717	0.000064
H350	H	0.947722	0.200283	0.500064
H351	H	0.493226	-0.165375	0.000117
H352	H	0.993226	0.334625	0.500117
H353	H	0.694908	-0.425472	0.000135
H354	H	1.194908	0.074528	0.500135
H355	H	-0.050801	0.060532	-0.130065
H356	H	0.449199	0.560532	0.369935
Br357	Br	0.464111	-0.671980	0.000066
Br358	Br	0.964111	-0.171980	0.500066
Br359	Br	0.670720	-0.819536	0.000117
Br360	Br	1.170720	-0.319536	0.500117
Br361	Br	0.470368	-0.056915	0.000106
Br362	Br	0.970368	0.443085	0.500106
Br363	Br	0.718373	-0.474887	0.000137
Br364	Br	1.218373	0.025113	0.500137
H365	H	0.445259	-0.542414	0.000065
H366	H	0.945259	-0.042414	0.500065
H367	H	0.623320	0.114595	0.222715
H368	H	1.123320	0.614595	0.722715
H369	H	0.488669	-0.020166	0.468459
H370	H	0.988669	0.479834	0.968459
H371	H	0.488666	-0.020167	0.371567
H372	H	0.988666	0.479833	0.871567
H373	H	0.488673	-0.020155	0.531815
H374	H	0.988673	0.479845	1.031815
H375	H	-0.282709	0.058167	-0.083786
H376	H	0.217291	0.558167	0.416214
