data_functionalizedCrystal
_audit_creation_method	'MofGen! by Chris Wilmer'
_symmetry_space_group_name_H-M	'P1'
_symmetry_Int_Tables_number	1
_symmetry_cell_setting	triclinic
loop_
_symmetry_equiv_pos_as_xyz
  x,y,z
_cell_length_a	11.026607
_cell_length_b	9.730223
_cell_length_c	10.654550
_cell_angle_alpha	90.001418
_cell_angle_beta	96.535460
_cell_angle_gamma	89.999350
loop_
_atom_site_label
_atom_site_type_symbol
_atom_site_fract_x
_atom_site_fract_y
_atom_site_fract_z
O1	O	1.614589	0.114287	0.526874
O2	O	1.260778	0.114290	0.466879
O3	O	1.445819	0.114283	0.315903
O4	O	1.429549	0.114294	0.677850
O5	O	1.445819	-0.114297	0.315903
O6	O	1.260779	-0.114290	0.466879
O7	O	1.614590	-0.114292	0.526875
Zn8	Zn	1.437684	-0.150583	0.496877
Zn9	Zn	1.437684	0.150580	0.496877
O10	O	1.429549	-0.114286	0.677850
C11	C	1.215474	-0.000000	0.455811
C12	C	1.080483	0.000001	0.422816
N13	N	1.437693	-0.356120	0.496878
C14	C	1.444624	-0.000005	0.268846
C15	C	1.441050	-0.000000	0.128627
C16	C	1.007444	0.000004	0.513920
C17	C	0.867922	0.000005	0.479820
C18	C	1.659893	0.000000	0.537943
C19	C	1.794885	0.000008	0.570937
C20	C	1.512063	-0.571952	0.589893
C21	C	1.512065	-0.428069	0.589902
C22	C	1.363306	-0.428061	0.403848
C23	C	1.363299	-0.571941	0.403845
C24	C	1.597951	-0.571956	0.697307
C25	C	1.597953	-0.428073	0.697315
N26	N	1.437684	0.356117	0.496867
C27	C	1.549999	-0.000005	0.072791
C28	C	1.546633	0.000005	-0.058961
C29	C	1.325361	0.000018	-0.079029
C30	C	1.328727	0.000018	0.052720
C31	C	1.677749	-0.000019	0.084376
C32	C	1.674383	-0.000009	-0.047376
C33	C	1.430744	0.000005	0.724907
C34	C	1.434318	0.000009	0.865126
H35	H	1.048204	-0.000001	0.617161
H36	H	1.240011	0.000041	0.098176
H37	H	0.827168	0.000037	0.376572
N38	N	1.738081	-0.126751	-0.088867
H39	H	1.735669	-0.126801	-0.183914
H40	H	1.825763	-0.126784	-0.049255
H41	H	1.712991	0.098685	-0.084638
H42	H	0.835638	0.000002	0.674186
N43	N	1.026508	-0.000020	0.286057
H44	H	0.934489	-0.000022	0.281083
H45	H	1.054523	0.084714	0.242802
N46	N	1.283086	-0.649527	0.303504
H47	H	1.235977	-0.582116	0.244571
H48	H	1.335594	-0.709215	0.254015
N49	N	1.743935	0.126676	0.137647
H50	H	1.771036	0.183220	0.066389
H51	H	1.687346	0.183117	0.185232
H52	H	1.689510	-0.616591	0.677705
N53	N	1.283087	-0.350466	0.303515
H54	H	1.294376	-0.248403	0.317630
H55	H	1.306348	-0.375620	0.217453
H56	H	1.568011	-0.610998	0.789847
H57	H	1.559703	-0.383446	0.783586
N58	N	1.724966	-0.376339	0.683999
H59	H	1.781643	-0.457033	0.678041
H60	H	1.723131	-0.318631	0.605016
H61	H	1.233911	0.000034	-0.140848
H62	H	1.718429	-0.098715	0.128833
