data_functionalizedCrystal
_audit_creation_method	'MofGen! by Chris Wilmer'
_symmetry_space_group_name_H-M	'P1'
_symmetry_Int_Tables_number	1
_symmetry_cell_setting	triclinic
loop_
_symmetry_equiv_pos_as_xyz
  x,y,z
_cell_length_a	14.909383
_cell_length_b	18.215407
_cell_length_c	18.215399
_cell_angle_alpha	89.982632
_cell_angle_beta	93.273811
_cell_angle_gamma	86.723416
loop_
_atom_site_label
_atom_site_type_symbol
_atom_site_fract_x
_atom_site_fract_y
_atom_site_fract_z
Zn1	Zn	-0.359196	1.141995	-0.433005
Zn2	Zn	-0.510051	1.149011	-0.317053
Zn3	Zn	-0.359218	1.018929	-0.309959
Zn4	Zn	-0.509993	1.025998	-0.440080
O5	O	-0.434614	1.083983	-0.375024
O6	O	-0.379223	1.245911	-0.417632
O7	O	-0.490076	1.131733	-0.213129
O8	O	-0.232982	1.029359	-0.320352
O9	O	-0.490055	1.251065	-0.332442
O10	O	-0.232966	1.119775	-0.410754
O11	O	-0.379259	1.036162	-0.207917
O12	O	-0.379203	0.916882	-0.327212
O13	O	-0.489956	1.041408	-0.542124
O14	O	-0.489977	0.922076	-0.422811
O15	O	-0.379166	1.126631	-0.536927
O16	O	-0.636276	1.138588	-0.339302
O17	O	-0.636233	1.048211	-0.429690
C18	C	-0.434587	0.892776	-0.375010
C19	C	-0.434596	0.810977	-0.375023
C20	C	-0.377005	0.620104	-0.419461
C21	C	-0.377013	0.543246	-0.419464
C22	C	-0.492249	0.548616	-0.330602
C23	C	-0.492236	0.625473	-0.330596
C24	C	-0.434615	0.661215	-0.375029
C25	C	-0.434636	0.507500	-0.375038
C26	C	-0.434645	0.424167	-0.375041
C27	C	-0.434605	0.744553	-0.375026
C28	C	-0.668985	1.094948	-0.386049
C29	C	-0.769250	1.099706	-0.390791
C30	C	-0.957829	1.014582	-0.305478
C31	C	-1.052036	1.019051	-0.309931
C32	C	-1.051875	1.113114	-0.404144
C33	C	-0.957668	1.108646	-0.399691
C34	C	-0.910647	1.059378	-0.350358
C35	C	-0.816438	1.054906	-0.345909
C36	C	-0.816279	1.148973	-0.440118
C37	C	-0.910486	1.153441	-0.444571
C38	C	-0.199328	1.072996	-0.363972
C39	C	-0.099063	1.068314	-0.359263
C40	C	-0.434552	1.084025	-0.566974
C41	C	-0.434526	1.084043	-0.648772
C42	C	-0.434643	1.275938	-0.375039
C43	C	-0.434655	1.357737	-0.375045
C44	C	-0.376784	1.128433	-0.834258
C45	C	-0.376757	1.128440	-0.911116
C46	C	-0.492128	1.039699	-0.916517
C47	C	-0.492149	1.039688	-0.839661
C48	C	-0.434478	1.084059	-0.798533
C49	C	-0.434431	1.084078	-0.952247
C50	C	-0.434403	1.084086	-1.035580
C51	C	-0.434505	1.084051	-0.715196
C52	C	-0.434611	1.083981	-0.183818
C53	C	-0.434384	1.084094	-0.102009
H54	H	-0.330099	0.509776	-0.455643
H55	H	-0.539150	0.658946	-0.294410
C56	C	-0.364274	1.226831	-0.747254
C57	C	-0.313384	1.177197	-0.789049
H58	H	-0.325129	1.256936	-0.719349
H59	H	-0.398631	1.200403	-0.714979
H60	H	-0.403566	1.256822	-0.779092
H61	H	-0.274097	1.147201	-0.757210
H62	H	-0.279012	1.203627	-0.821327
C63	C	-0.787127	1.272187	-0.474713
C64	C	-0.764416	1.198217	-0.489454
H65	H	-0.755112	1.302584	-0.505175
H66	H	-0.771708	1.282253	-0.424555
H67	H	-0.849965	1.281891	-0.484426
H68	H	-0.701578	1.188512	-0.479736
H69	H	-0.779829	1.188147	-0.539624
C70	C	-0.967446	0.922043	-0.212810
C71	C	-0.906138	0.960423	-0.251259
H72	H	-0.935533	0.888609	-0.179335
H73	H	-1.004193	0.895622	-0.246587
H74	H	-1.004181	0.955871	-0.186421
H75	H	-0.869407	0.926595	-0.277652
H76	H	-0.869376	0.986846	-0.217477
H77	H	-0.948783	1.193556	-0.484735
H78	H	-0.329775	1.164573	-0.940199
H79	H	-0.539130	1.003548	-0.810573
C80	C	-0.543328	1.000316	-1.036732
C81	C	-0.555525	0.990934	-0.961728
H82	H	-0.582473	0.970214	-1.064640
H83	H	-0.482722	0.986714	-1.046478
H84	H	-0.556533	1.050385	-1.049946
H85	H	-0.542314	0.940866	-0.948512
H86	H	-0.616145	1.004532	-0.951977
C87	C	-0.606153	0.561644	-0.242765
C88	C	-0.555591	0.509327	-0.281768
H89	H	-0.645256	0.537388	-0.212616
H90	H	-0.640698	0.593254	-0.276408
H91	H	-0.566793	0.589764	-0.212812
H92	H	-0.594952	0.481210	-0.311726
H93	H	-0.521044	0.477704	-0.248122
C94	C	-0.263096	0.607073	-0.507293
C95	C	-0.313663	0.659392	-0.468296
H96	H	-0.223986	0.631328	-0.537438
H97	H	-0.302446	0.578954	-0.537244
H98	H	-0.228550	0.575463	-0.473641
H99	H	-0.348214	0.691000	-0.501948
H100	H	-0.274308	0.687524	-0.438343
H101	H	-0.778155	1.014788	-0.305742
H102	H	-1.090448	0.982574	-0.273385
C103	C	-1.196223	1.161729	-0.452790
C104	C	-1.103571	1.167268	-0.458365
H105	H	-1.228135	1.195160	-0.486268
H106	H	-1.211676	1.173265	-0.404088
H107	H	-1.211693	1.113007	-0.464246
H108	H	-1.088100	1.215989	-0.446904
H109	H	-1.088111	1.155738	-0.507078
