data_functionalizedCrystal
_audit_creation_method	'MofGen! by Chris Wilmer'
_symmetry_space_group_name_H-M	'P1'
_symmetry_Int_Tables_number	1
_symmetry_cell_setting	triclinic
loop_
_symmetry_equiv_pos_as_xyz
  x,y,z
_cell_length_a	19.805407
_cell_length_b	12.645330
_cell_length_c	19.805398
_cell_angle_alpha	89.978153
_cell_angle_beta	90.013121
_cell_angle_gamma	89.973813
loop_
_atom_site_label
_atom_site_type_symbol
_atom_site_fract_x
_atom_site_fract_y
_atom_site_fract_z
Zn1	Zn	1.034694	0.422053	0.382751
Zn2	Zn	1.034622	0.599335	0.269577
Zn3	Zn	0.921521	0.422086	0.269576
Zn4	Zn	0.921472	0.599275	0.382723
O5	O	0.978077	0.510687	0.326157
O6	O	1.129401	0.445581	0.367751
O7	O	1.019609	0.575861	0.174860
O8	O	0.936584	0.273734	0.284601
O9	O	1.129348	0.575829	0.284601
O10	O	1.019732	0.273710	0.367750
O11	O	0.936514	0.445637	0.174859
O12	O	0.826798	0.445579	0.284573
O13	O	0.936501	0.575728	0.477444
O14	O	0.826762	0.575759	0.367702
O15	O	1.019684	0.445524	0.477464
O16	O	1.019562	0.747674	0.284574
O17	O	0.936431	0.747630	0.367703
C18	C	0.802221	0.510667	0.326135
C19	C	0.726989	0.510684	0.326142
C20	C	0.978002	0.786117	0.326150
C21	C	0.978031	0.903947	0.326170
C22	C	0.691644	0.578571	0.369357
C23	C	0.620956	0.578573	0.369366
C24	C	0.585614	0.510692	0.326157
C25	C	0.620964	0.442798	0.282940
C26	C	0.691651	0.442791	0.282934
C27	C	0.335890	0.442821	0.282962
C28	C	0.265198	0.442835	0.282970
C29	C	0.265195	0.578602	0.369394
C30	C	0.335882	0.578596	0.369389
C31	C	0.371226	0.510698	0.326174
C32	C	0.447875	0.510695	0.326166
C33	C	0.508966	0.510699	0.326162
C34	C	0.925934	1.071528	0.378629
C35	C	0.925679	0.948968	0.378459
C36	C	0.958729	0.948537	0.254838
C37	C	0.958399	1.071135	0.255158
C38	C	1.049714	1.071037	0.344468
C39	C	1.049286	0.948431	0.346027
C40	C	1.154620	0.510708	0.326179
C41	C	1.229852	0.510717	0.326189
C42	C	0.978095	0.510615	0.502700
C43	C	0.978103	0.510585	0.577932
C44	C	0.978148	1.234182	0.326181
C45	C	0.978117	1.116352	0.326198
C46	C	0.978098	0.510682	0.150301
C47	C	0.978222	0.510414	0.075069
C48	C	1.021477	0.578224	1.039721
C49	C	1.021458	0.578253	0.969032
C50	C	0.978187	0.510465	0.933694
C51	C	0.934927	0.442652	0.969047
C52	C	0.934943	0.442630	1.039734
C53	C	0.934861	0.442743	0.683974
C54	C	0.934850	0.442769	0.613282
C55	C	1.021377	0.578366	0.613272
C56	C	1.021393	0.578344	0.683959
C57	C	0.978131	0.510535	0.719306
C58	C	0.978150	0.510506	0.795955
C59	C	0.978170	0.510488	0.857046
H60	H	0.720414	0.633851	0.404541
O61	O	1.063301	0.644360	0.578903
C62	C	1.024735	0.712825	0.537996
H63	H	0.971429	0.719362	0.559298
H64	H	1.049189	0.794410	0.537187
H65	H	1.022401	0.680070	0.484426
H66	H	1.063842	0.919283	0.398523
O67	O	0.586726	0.644631	0.411359
C68	C	0.633078	0.704533	0.449500
H69	H	0.683457	0.708128	0.421770
H70	H	0.612638	0.788079	0.456620
H71	H	0.640619	0.665835	0.500953
H72	H	0.899720	0.387411	1.068514
H73	H	1.056673	0.633483	0.940254
H74	H	0.364654	0.633875	0.404572
H75	H	0.236410	0.633884	0.404584
H76	H	0.236425	0.387552	0.247783
H77	H	1.090218	0.917778	0.310619
H78	H	1.067318	1.101884	0.395600
H79	H	0.995538	0.919376	0.214704
O80	O	0.370113	0.376834	0.240922
C81	C	0.323758	0.316907	0.202800
H82	H	0.273362	0.360337	0.200410
H83	H	0.344168	0.305476	0.149483
H84	H	0.316262	0.236451	0.227678
O85	O	1.096019	1.105756	0.298877
C86	C	1.063912	1.170637	0.250664
H87	H	1.015381	1.204166	0.273016
H88	H	1.099003	1.238332	0.236084
H89	H	1.051390	1.121880	0.203905
H90	H	1.056717	0.633420	1.068488
O91	O	0.586530	0.376952	0.240991
C92	C	0.516560	0.391494	0.250274
H93	H	0.506891	0.473354	0.272349
H94	H	0.489681	0.384194	0.199585
H95	H	0.496529	0.328693	0.286391
H96	H	1.056631	0.633539	0.712728
H97	H	0.906943	0.917925	0.239080
O98	O	0.892746	0.376889	0.579057
C99	C	0.854574	0.317017	0.625412
H100	H	0.852227	0.360419	0.675797
H101	H	0.801246	0.305721	0.604985
H102	H	0.879382	0.236500	0.632939
O103	O	0.892760	0.377030	0.718328
C104	C	0.849039	0.437375	0.759212
H105	H	0.844841	0.520878	0.737903
H106	H	0.796958	0.399043	0.760002
H107	H	0.869962	0.440999	0.812790
O108	O	0.725883	0.376818	0.240887
C109	C	0.679533	0.316890	0.202760
H110	H	0.629132	0.360310	0.200375
H111	H	0.699943	0.305476	0.149441
H112	H	0.672044	0.236426	0.227631
H113	H	0.899691	0.387464	0.940269
H114	H	0.937755	0.918817	0.431351
H115	H	0.937893	1.100943	0.431695
H116	H	0.872606	0.919733	0.366354
O117	O	0.863043	1.108439	0.364263
C118	C	0.866001	1.174659	0.307051
H119	H	0.912606	1.154128	0.275925
H120	H	0.818772	1.162677	0.275047
H121	H	0.869015	1.260716	0.323916
O122	O	0.896007	1.105426	0.236589
C123	C	0.901286	1.167572	0.177706
H124	H	0.949582	1.146005	0.149588
H125	H	0.855847	1.152153	0.143770
H126	H	0.902696	1.254807	0.192145
O127	O	1.001689	1.106490	0.206879
C128	C	0.980789	1.069007	0.143182
H129	H	0.924608	1.049609	0.144831
H130	H	0.990328	1.132408	0.103379
H131	H	1.010531	0.994696	0.129826
