data_functionalizedCrystal
_audit_creation_method	'MofGen! by Chris Wilmer'
_symmetry_space_group_name_H-M	'P1'
_symmetry_Int_Tables_number	1
_symmetry_cell_setting	triclinic
loop_
_symmetry_equiv_pos_as_xyz
  x,y,z
_cell_length_a	10.723022
_cell_length_b	14.519709
_cell_length_c	9.798715
_cell_angle_alpha	89.995905
_cell_angle_beta	89.996609
_cell_angle_gamma	84.073685
loop_
_atom_site_label
_atom_site_type_symbol
_atom_site_fract_x
_atom_site_fract_y
_atom_site_fract_z
O1	O	1.655979	0.129340	-0.113485
O2	O	1.292711	0.141723	-0.113490
O3	O	1.483976	0.001342	-0.113475
O4	O	1.464713	0.269721	-0.113500
O5	O	1.483962	0.001342	0.113507
O6	O	1.292696	0.141723	0.113492
O7	O	1.655965	0.129340	0.113497
Zn8	Zn	1.474328	0.135531	0.149533
Zn9	Zn	1.474347	0.135532	-0.149526
O10	O	1.464699	0.269721	0.113482
C11	C	1.246212	0.140822	0.000000
C12	C	1.107683	0.138127	-0.000001
C13	C	1.059879	0.057174	0.000005
C14	C	0.916702	0.054387	0.000004
C15	C	1.483071	-0.033022	0.000016
C16	C	1.480381	-0.135417	0.000017
C17	C	1.470477	-0.510363	-0.000019
C18	C	1.473228	-0.406041	-0.000009
C19	C	1.475429	-0.322894	0.000000
C20	C	1.478180	-0.218565	0.000008
C21	C	1.702463	0.130241	0.000003
C22	C	1.840992	0.132936	-0.000004
C23	C	1.465604	0.304085	-0.000012
C24	C	1.468294	0.406480	-0.000022
N25	N	1.474325	0.135530	0.353632
N26	N	1.474361	0.135525	-0.353626
C27	C	1.554634	0.076329	0.421415
C28	C	1.554654	0.076326	0.578578
H29	H	0.882147	0.202251	-0.000002
F30	F	1.384465	0.201774	0.429854
F31	F	1.022636	0.226022	-0.000020
H32	H	1.623372	0.025642	0.363098
F33	F	0.862903	-0.036211	0.000021
F34	F	1.384490	0.201784	0.570196
F35	F	1.144926	-0.030721	0.000010
F36	F	1.644533	0.010079	0.654765
