data_functionalizedCrystal
_audit_creation_method	'MofGen! by Chris Wilmer'
_symmetry_space_group_name_H-M	'P1'
_symmetry_Int_Tables_number	1
_symmetry_cell_setting	triclinic
loop_
_symmetry_equiv_pos_as_xyz
  x,y,z
_cell_length_a	16.704493
_cell_length_b	21.606444
_cell_length_c	21.606444
_cell_angle_alpha	59.999875
_cell_angle_beta	94.162411
_cell_angle_gamma	62.460513
loop_
_atom_site_label
_atom_site_type_symbol
_atom_site_fract_x
_atom_site_fract_y
_atom_site_fract_z
Zr1	Zr	-0.105333	0.677474	0.590301
O2	O	-0.233487	0.806589	0.484284
O3	O	-0.066051	0.548357	0.622802
O4	O	-0.233498	0.677476	0.613402
O5	O	0.066050	0.677468	0.501099
O6	O	-0.233503	0.677481	0.715251
O7	O	-0.066040	0.677469	0.493685
O8	O	0.066029	0.446509	0.732067
O9	O	-0.233483	0.908440	0.484283
O10	O	-0.049297	0.601469	0.712672
O11	O	0.049284	0.601465	0.642196
O12	O	-0.147864	0.753486	0.631128
O13	O	-0.049283	0.753482	0.560652
Zr14	Zr	0.105327	0.677479	0.764565
Zr15	Zr	-0.105341	0.677481	0.752740
Zr16	Zr	0.105334	0.677472	0.602127
Zr17	Zr	-0.105326	0.839914	0.590300
Zr18	Zr	0.105320	0.515039	0.764566
O19	O	0.066045	0.806597	0.732064
O20	O	-0.233498	0.806599	0.715250
O21	O	0.066055	0.806587	0.501098
O22	O	0.233480	0.548364	0.870582
O23	O	-0.066062	0.548367	0.853768
O24	O	0.233491	0.548354	0.639616
O25	O	-0.066057	0.677485	0.853767
O26	O	0.233492	0.677477	0.741464
O27	O	0.233496	0.677473	0.639615
O28	O	0.066033	0.677484	0.861182
O29	O	-0.233489	0.908445	0.613400
O30	O	0.233482	0.446508	0.741466
O31	O	0.233476	0.446513	0.870583
O32	O	0.066023	0.446515	0.861184
O33	O	-0.066030	0.908439	0.493683
O34	O	-0.066036	0.908444	0.622799
O35	O	0.147857	0.601467	0.723738
O36	O	0.049277	0.601471	0.794214
O37	O	-0.049290	0.753489	0.712670
O38	O	0.049290	0.753485	0.642195
C39	C	-0.000012	0.474289	0.677435
C40	C	-0.000015	0.405329	0.677435
C41	C	-0.051474	0.372933	0.714221
C42	C	-0.051468	0.308133	0.714224
C43	C	-0.000007	0.275734	0.677436
C44	C	0.051459	0.308132	0.640650
C45	C	0.051458	0.372927	0.640652
C46	C	0.051467	0.046823	0.640641
C47	C	0.051462	-0.017974	0.640640
C48	C	-0.051458	-0.017971	0.714214
C49	C	-0.051459	0.046824	0.714216
C50	C	0.000010	0.079213	0.677433
C51	C	0.000004	0.149475	0.677431
C52	C	-0.000006	0.205477	0.677433
C53	C	-0.263516	0.677479	0.662642
C54	C	-0.352950	0.677479	0.657622
C55	C	-0.521002	0.677469	0.760430
C56	C	-0.605033	0.677470	0.755716
C57	C	-0.605041	0.677475	0.643484
C58	C	-0.521010	0.677474	0.648198
C59	C	-0.478994	0.677473	0.706672
C60	C	-0.394966	0.677479	0.711382
C61	C	-0.394971	0.677477	0.599154
C62	C	-0.479002	0.677478	0.594440
C63	C	0.263510	0.677475	0.692225
C64	C	0.352944	0.677474	0.697245
C65	C	0.000006	0.677468	0.474248
C66	C	0.000009	0.677465	0.405289
C67	C	0.000005	0.880665	0.677431
C68	C	0.000008	0.949625	0.677431
C69	C	0.051457	0.598114	0.415454
C70	C	0.051458	0.598116	0.350657
C71	C	0.000005	0.677471	0.275694
C72	C	-0.051444	0.756828	0.265530
C73	C	-0.051439	0.756825	0.330327
C74	C	-0.051466	0.756843	0.004211
C75	C	-0.051470	0.756840	-0.060587
C76	C	0.051430	0.598135	0.024540
C77	C	0.051436	0.598132	0.089337
C78	C	-0.000009	0.677488	0.079168
C79	C	-0.000007	0.677485	0.149429
C80	C	-0.000003	0.677475	0.205434
C81	C	-0.000013	0.677485	0.880618
C82	C	-0.000016	0.677488	0.949578
C83	C	-0.000021	0.474297	0.880620
C84	C	-0.000028	0.405340	0.949580
C85	C	0.263501	0.474287	0.692226
C86	C	0.352932	0.405326	0.697247
C87	C	0.263492	0.474295	0.895412
C88	C	0.352919	0.405337	0.969391
C89	C	-0.263498	0.880658	0.459455
C90	C	-0.352926	0.949616	0.385475
C91	C	0.000015	0.880656	0.474246
C92	C	0.000021	0.949613	0.405286
C93	C	-0.263508	0.880667	0.662640
C94	C	-0.352939	0.949628	0.657619
C95	C	-0.051494	0.372956	0.939399
C96	C	-0.051519	0.308172	1.004187
C97	C	-0.000072	0.275770	1.079155
C98	C	0.051395	0.308160	1.089334
C99	C	0.051415	0.372947	1.024547
C100	C	0.446393	0.372942	0.742169
C101	C	0.530431	0.308155	0.746884
C102	C	0.521006	0.275749	0.706681
C103	C	0.427535	0.308138	0.661753
C104	C	0.343499	0.372929	0.657034
C105	C	0.343458	0.372956	1.040928
C106	C	0.427476	0.308172	1.110445
C107	C	0.520956	0.275766	1.108425
C108	C	0.530416	0.308153	1.036881
C109	C	0.446398	0.372941	0.967365
C110	C	-0.343464	0.982005	0.313939
C111	C	-0.427483	1.046809	0.244421
C112	C	-0.520963	1.079219	0.246441
C113	C	-0.530423	1.046827	0.317985
C114	C	-0.446405	0.982028	0.387501
C115	C	0.051478	0.982004	0.415466
C116	C	0.051480	1.046806	0.350677
C117	C	0.000031	1.079211	0.275709
C118	C	-0.051433	1.046817	0.265530
C119	C	-0.051440	0.982021	0.330318
C120	C	-0.343482	0.982014	0.697833
C121	C	-0.427504	1.046801	0.693130
C122	C	-0.520982	1.079206	0.648210
C123	C	-0.530436	1.046813	0.607996
C124	C	-0.446415	0.982022	0.612703
H125	H	-0.093364	-0.044352	0.744168
Br126	Br	-0.414621	1.090754	0.147337
H127	H	0.606538	0.281759	1.035248
Br128	Br	0.635066	0.187818	0.713093
Br129	Br	0.121304	0.416888	0.590731
Br130	Br	0.121308	0.938043	0.517201
H131	H	0.419876	0.281743	0.629021
H132	H	-0.093369	0.281756	0.744179
H133	H	0.267402	0.399287	0.620456
Br134	Br	-0.121277	0.938065	0.316489
Br135	Br	-0.000108	0.187843	1.167074
Br136	Br	-0.634979	1.167162	0.152090
Br137	Br	0.459211	0.416904	0.796744
Br138	Br	-0.216630	0.938051	0.758801
H139	H	0.454116	0.399297	0.909120
Br140	Br	0.121326	0.090766	0.590727
Br141	Br	-0.657296	1.090819	0.320713
H142	H	-0.486798	0.677477	0.808037
H143	H	0.589361	0.223012	1.165035
Br144	Br	-0.121250	1.090802	0.163782
Br145	Br	0.121297	0.490421	0.364458
H146	H	-0.419787	1.073168	0.725877
H147	H	0.093392	1.073170	0.358980
H148	H	0.093281	0.281769	1.150382
H149	H	-0.093371	0.821464	-0.121627
H150	H	-0.093332	0.821440	0.204490
Br151	Br	-0.459264	0.938075	0.484583
H152	H	-0.454129	0.955661	0.579953
H153	H	-0.093320	0.821440	0.322046
Br154	Br	0.657271	0.264211	0.807862
Br155	Br	-0.216609	0.938032	0.311175
Br156	Br	-0.635001	1.167138	0.641829
Br157	Br	0.121274	0.416885	1.038378
Br158	Br	0.216603	0.416927	1.043691
Br159	Br	-0.121285	0.864542	-0.009598
Br160	Br	-0.657307	1.090807	0.547028
Br161	Br	-0.662039	0.677459	0.828679
H162	H	-0.513218	0.677475	0.546833
Br163	Br	-0.121326	0.416903	0.764144
H164	H	0.419757	0.281809	1.168693
Br165	Br	-0.121309	0.090797	0.764138
Br166	Br	-0.337949	0.677483	0.790735
Br167	Br	-0.662058	0.677459	0.564140
H168	H	0.000045	1.131972	0.222961
H169	H	0.093331	0.533513	0.150373
H170	H	0.093371	-0.044352	0.610681
H171	H	0.093365	0.281744	0.610701
H172	H	-0.360761	0.677484	0.555379
H173	H	0.093360	0.533494	0.476489
Br174	Br	-0.121326	0.416919	0.837665
H175	H	0.093321	0.533519	0.032815
H176	H	-0.093430	0.281808	0.995884
