data_functionalizedCrystal
_audit_creation_method	'MofGen! by Chris Wilmer'
_symmetry_space_group_name_H-M	'P1'
_symmetry_Int_Tables_number	1
_symmetry_cell_setting	triclinic
loop_
_symmetry_equiv_pos_as_xyz
  x,y,z
_cell_length_a	27.732043
_cell_length_b	26.210047
_cell_length_c	27.731996
_cell_angle_alpha	90.001499
_cell_angle_beta	82.631092
_cell_angle_gamma	90.000725
loop_
_atom_site_label
_atom_site_type_symbol
_atom_site_fract_x
_atom_site_fract_y
_atom_site_fract_z
O1	O	0.640922	0.042337	0.057501
O2	O	0.974255	0.375671	0.390834
O3	O	1.307588	0.709004	0.724168
O4	O	0.500126	0.042361	0.066249
O5	O	0.833460	0.375694	0.399582
O6	O	1.166793	0.709028	0.732916
O7	O	0.574910	0.042337	-0.008524
O8	O	0.908243	0.375671	0.324810
O9	O	1.241577	0.709004	0.658143
O10	O	0.566138	0.042361	0.132274
O11	O	0.899472	0.375694	0.465607
O12	O	1.232805	0.709028	0.798940
O13	O	0.574896	-0.042521	-0.008512
O14	O	0.908229	0.290813	0.324821
O15	O	1.241562	0.624146	0.658155
O16	O	0.500112	-0.042497	0.066261
O17	O	0.833445	0.290836	0.399594
O18	O	1.166779	0.624169	0.732927
O19	O	0.640907	-0.042521	0.057513
O20	O	0.974241	0.290813	0.390846
O21	O	1.307574	0.624146	0.724179
Cu22	Cu	0.570508	-0.050257	0.061888
Cu23	Cu	0.903842	0.283076	0.395221
Cu24	Cu	1.237175	0.616409	0.728554
Cu25	Cu	0.570525	0.050097	0.061874
Cu26	Cu	0.903859	0.383431	0.395207
Cu27	Cu	1.237192	0.716764	0.728541
O28	O	0.566124	-0.042497	0.132285
O29	O	0.899457	0.290836	0.465619
O30	O	1.232790	0.624169	0.798952
C31	C	0.482112	-0.000065	0.066072
C32	C	0.815446	0.333268	0.399405
C33	C	1.148779	0.666601	0.732738
C34	C	0.428457	-0.000057	0.065520
C35	C	0.761791	0.333276	0.398853
C36	C	1.095124	0.666610	0.732186
N37	N	0.570500	-0.120841	0.061897
N38	N	0.903833	0.212492	0.395230
N39	N	1.237167	0.545826	0.728564
C40	C	0.574723	-0.000093	-0.026525
C41	C	0.908056	0.333240	0.306808
C42	C	1.241389	0.666573	0.640142
C43	C	0.574180	-0.000099	-0.080181
C44	C	0.907513	0.333235	0.253152
C45	C	1.240847	0.666568	0.586485
C46	C	0.658922	-0.000093	0.057690
C47	C	0.992255	0.333240	0.391023
C48	C	1.325588	0.666573	0.724357
C49	C	0.712576	-0.000099	0.058242
C50	C	1.045910	0.333235	0.391575
C51	C	1.379243	0.666568	0.724909
C52	C	1.045306	0.046183	0.061608
C53	C	1.378639	0.379516	0.394942
C54	C	1.711972	0.712850	0.728275
C55	C	1.246965	0.046192	0.063661
C56	C	1.580298	0.379526	0.396994
C57	C	1.913631	0.712859	0.730328
O58	O	1.273048	0.085532	0.063900
O59	O	1.606381	0.418865	0.397234
O60	O	1.939715	0.752198	0.730567
N61	N	1.272174	-0.000063	0.063926
N62	N	1.605507	0.333270	0.397259
N63	N	1.938840	0.666603	0.730592
C64	C	1.246965	-0.046325	0.063674
C65	C	1.580298	0.287009	0.397008
C66	C	1.913632	0.620342	0.730341
O67	O	1.273035	-0.085668	0.063941
O68	O	1.606368	0.247666	0.397275
O69	O	1.939701	0.580999	0.730608
C70	C	1.045308	-0.046333	0.061618
C71	C	1.378641	0.287000	0.394951
C72	C	1.711974	0.620333	0.728285
C73	C	1.020101	-0.000075	0.061358
C74	C	1.353434	0.333259	0.394691
C75	C	1.686767	0.666592	0.728025
C76	C	1.020099	0.092438	0.061348
C77	C	1.353432	0.425771	0.394681
C78	C	1.686766	0.759105	0.728015
C79	C	0.969687	0.092435	0.060837
C80	C	1.303020	0.425769	0.394171
C81	C	1.636353	0.759102	0.727504
C82	C	0.944482	0.046177	0.060587
C83	C	1.277815	0.379511	0.393921
C84	C	1.611148	0.712844	0.727254
C85	C	0.969689	-0.000077	0.060848
C86	C	1.303022	0.333256	0.394181
C87	C	1.636355	0.666589	0.727514
C88	C	1.020100	-0.092594	0.061363
C89	C	1.353434	0.240739	0.394696
C90	C	1.686767	0.574073	0.728030
C91	C	0.969683	-0.092592	0.060848
C92	C	1.303016	0.240741	0.394181
C93	C	1.636350	0.574075	0.727514
C94	C	0.944476	-0.046333	0.060588
C95	C	1.277809	0.287000	0.393921
C96	C	1.611143	0.620333	0.727254
C97	C	0.894071	-0.046338	0.060087
C98	C	1.227405	0.286995	0.393420
C99	C	1.560738	0.620329	0.726754
N100	N	0.868862	-0.000082	0.059822
N101	N	1.202196	0.333251	0.393156
N102	N	1.535529	0.666584	0.726489
C103	C	0.894068	0.046175	0.060072
C104	C	1.227401	0.379509	0.393406
C105	C	1.560734	0.712842	0.726739
C106	C	1.352838	-0.046317	0.064755
C107	C	1.686171	0.287017	0.398088
C108	C	2.019505	0.620350	0.731421
C109	C	1.403252	-0.046315	0.065270
C110	C	1.736586	0.287019	0.398603
C111	C	2.069919	0.620352	0.731936
C112	C	1.403248	0.046203	0.065255
C113	C	1.736582	0.379536	0.398589
C114	C	2.069915	0.712869	0.731922
C115	C	1.352833	0.046200	0.064744
C116	C	1.686166	0.379533	0.398077
C117	C	2.019500	0.712867	0.731411
C118	C	1.327629	-0.000061	0.064490
C119	C	1.660963	0.333272	0.397823
C120	C	1.994296	0.666606	0.731157
C121	C	0.788198	0.046166	0.059001
C122	C	1.121532	0.379499	0.392334
C123	C	1.454865	0.712833	0.725667
C124	C	0.737782	0.046159	0.058492
C125	C	1.071115	0.379493	0.391826
C126	C	1.404448	0.712826	0.725159
C127	C	0.737790	-0.046358	0.058504
C128	C	1.071123	0.286976	0.391837
C129	C	1.404457	0.620309	0.725170
C130	C	0.788202	-0.046351	0.059015
C131	C	1.121535	0.286982	0.392348
C132	C	1.454869	0.620316	0.725682
C133	C	0.813405	-0.000085	0.059262
C134	C	1.146739	0.333248	0.392595
C135	C	1.480072	0.666582	0.725928
O136	O	0.867958	-0.085657	0.059842
O137	O	1.201291	0.247677	0.393175
O138	O	1.534624	0.581010	0.726509
O139	O	0.867991	0.085513	0.059794
O140	O	1.201324	0.418846	0.393127
O141	O	1.534657	0.752179	0.726461
C142	C	1.095718	0.046186	0.062119
C143	C	1.429051	0.379519	0.395452
C144	C	1.762385	0.712853	0.728785
C145	C	1.120925	-0.000069	0.062379
C146	C	1.454258	0.333264	0.395712
C147	C	1.787591	0.666598	0.729046
C148	C	1.095720	-0.046327	0.062129
C149	C	1.429053	0.287007	0.395462
C150	C	1.762386	0.620340	0.728796
C151	C	1.171339	-0.000067	0.062894
C152	C	1.504672	0.333266	0.396227
C153	C	1.838006	0.666600	0.729561
C154	C	1.196544	0.046191	0.063144
C155	C	1.529877	0.379524	0.396477
C156	C	1.863211	0.712857	0.729811
C157	C	1.171335	0.092446	0.062879
C158	C	1.504668	0.425780	0.396213
C159	C	1.838002	0.759113	0.729546
C160	C	1.120923	0.092444	0.062369
C161	C	1.454256	0.425777	0.395702
C162	C	1.787590	0.759110	0.729036
C163	C	1.120928	-0.092582	0.062394
C164	C	1.454262	0.240751	0.395727
C165	C	1.787595	0.574084	0.729060
C166	C	1.171341	-0.092576	0.062905
C167	C	1.504674	0.240758	0.396238
C168	C	1.838007	0.574091	0.729572
C169	C	1.196546	-0.046318	0.063155
C170	C	1.529879	0.287015	0.396488
C171	C	1.863212	0.620349	0.729822
C172	C	0.603636	-0.473366	0.028772
C173	C	0.936970	-0.140032	0.362105
C174	C	1.270303	0.193301	0.695439
C175	C	0.603647	-0.687024	0.028765
C176	C	0.936980	-0.353691	0.362099
C177	C	1.270314	-0.020358	0.695432
O178	O	0.631802	-0.714655	0.000603
O179	O	0.965135	-0.381322	0.333937
O180	O	1.298469	-0.047988	0.667270
N181	N	0.570528	-0.713735	0.061863
N182	N	0.903861	-0.380402	0.395197
N183	N	1.237195	-0.047068	0.728530
C184	C	0.537402	-0.687028	0.094963
C185	C	0.870735	-0.353695	0.428297
C186	C	1.204069	-0.020361	0.761630
O187	O	0.509229	-0.714650	0.123112
O188	O	0.842563	-0.381316	0.456445
O189	O	1.175896	-0.047983	0.789778
C190	C	0.537390	-0.473370	0.094967
C191	C	0.870723	-0.140037	0.428301
C192	C	1.204056	0.193296	0.761634
C193	C	0.570514	-0.446662	0.061870
C194	C	0.903847	-0.113329	0.395204
C195	C	1.237180	0.220004	0.728537
C196	C	0.636757	-0.446657	-0.004322
C197	C	0.970091	-0.113324	0.329011
C198	C	1.303424	0.220009	0.662344
C199	C	0.636756	-0.393246	-0.004319
C200	C	0.970089	-0.059913	0.329015
C201	C	1.303423	0.273421	0.662348
C202	C	0.603634	-0.366543	0.028780
C203	C	0.936967	-0.033209	0.362113
C204	C	1.270300	0.300124	0.695446
C205	C	0.570513	-0.393251	0.061874
C206	C	0.903846	-0.059917	0.395208
C207	C	1.237179	0.273416	0.728541
C208	C	0.504262	-0.446664	0.128065
C209	C	0.837595	-0.113331	0.461398
C210	C	1.170928	0.220002	0.794731
C211	C	0.504261	-0.393246	0.128062
C212	C	0.837594	-0.059913	0.461395
C213	C	1.170927	0.273420	0.794729
C214	C	0.537385	-0.366538	0.094965
C215	C	0.870718	-0.033205	0.428298
C216	C	1.204052	0.300128	0.761632
C217	C	0.537389	-0.313136	0.094976
C218	C	0.870722	0.020197	0.428310
C219	C	1.204055	0.353531	0.761643
N220	N	0.570508	-0.286425	0.061878
N221	N	0.903841	0.046908	0.395212
N222	N	1.237174	0.380241	0.728545
C223	C	0.603630	-0.313128	0.028780
C224	C	0.936963	0.020205	0.362113
C225	C	1.270297	0.353538	0.695447
C226	C	0.537412	-0.799201	0.094959
C227	C	0.870745	-0.465868	0.428293
C228	C	1.204078	-0.132535	0.761626
C229	C	0.537415	-0.852615	0.094959
C230	C	0.870749	-0.519282	0.428292
C231	C	1.204082	-0.185949	0.761626
C232	C	0.603660	-0.852608	0.028760
C233	C	0.936993	-0.519275	0.362094
C234	C	1.270326	-0.185941	0.695427
C235	C	0.603658	-0.799193	0.028763
C236	C	0.936991	-0.465859	0.362097
C237	C	1.270325	-0.132526	0.695430
C238	C	0.570531	-0.772490	0.061861
C239	C	0.903864	-0.439157	0.395195
C240	C	1.237197	-0.105824	0.728528
C241	C	0.603625	-0.200961	0.028791
C242	C	0.936959	0.132373	0.362124
C243	C	1.270292	0.465706	0.695457
C244	C	0.603622	-0.147544	0.028799
C245	C	0.936956	0.185789	0.362132
C246	C	1.270289	0.519122	0.695465
C247	C	0.537377	-0.147557	0.094996
C248	C	0.870710	0.185777	0.428329
C249	C	1.204043	0.519110	0.761662
C250	C	0.537381	-0.200968	0.094989
C251	C	0.870714	0.132365	0.428323
C252	C	1.204048	0.465699	0.761656
C253	C	0.570507	-0.227669	0.061883
C254	C	0.903840	0.105665	0.395216
C255	C	1.237174	0.438998	0.728550
O256	O	0.509245	-0.285472	0.123120
O257	O	0.842578	0.047861	0.456453
O258	O	1.175912	0.381194	0.789787
O259	O	0.631791	-0.285498	0.000629
O260	O	0.965125	0.047836	0.333962
O261	O	1.298458	0.381169	0.667295
C262	C	0.603637	-0.526777	0.028768
C263	C	0.936971	-0.193444	0.362102
C264	C	1.270304	0.139890	0.695435
C265	C	0.570516	-0.553485	0.061863
C266	C	0.903850	-0.220152	0.395196
C267	C	1.237183	0.113182	0.728530
C268	C	0.537394	-0.526782	0.094961
C269	C	0.870727	-0.193449	0.428295
C270	C	1.204061	0.139885	0.761628
C271	C	0.570520	-0.606899	0.061863
C272	C	0.903853	-0.273566	0.395196
C273	C	1.237187	0.059767	0.728529
C274	C	0.603642	-0.633603	0.028764
C275	C	0.936976	-0.300269	0.362098
C276	C	1.270309	0.033064	0.695431
C277	C	0.636761	-0.606892	-0.004334
C278	C	0.970095	-0.273558	0.328999
C279	C	1.303428	0.059775	0.662333
C280	C	0.636760	-0.553480	-0.004330
C281	C	0.970093	-0.220147	0.329003
C282	C	1.303427	0.113186	0.662337
C283	C	0.504275	-0.553493	0.128059
C284	C	0.837608	-0.220159	0.461393
C285	C	1.170942	0.113174	0.794726
C286	C	0.504279	-0.606904	0.128053
C287	C	0.837613	-0.273571	0.461387
C288	C	1.170946	0.059762	0.794720
C289	C	0.537402	-0.633608	0.094955
C290	C	0.870735	-0.300274	0.428288
C291	C	1.204068	0.033059	0.761621
N292	N	0.570538	0.120681	0.061861
N293	N	0.903871	0.454015	0.395194
N294	N	1.237204	0.787348	0.728527
C295	C	0.570773	0.046183	-0.412904
C296	C	0.904106	0.379516	-0.079571
C297	C	1.237440	0.712850	0.253763
C298	C	0.568712	0.046192	-0.614562
C299	C	0.902045	0.379526	-0.281229
C300	C	1.235379	0.712859	0.052104
O301	O	0.568431	0.085532	-0.640638
O302	O	0.901765	0.418865	-0.307305
O303	O	1.235098	0.752198	0.026028
N304	N	0.568448	-0.000063	-0.639773
N305	N	0.901781	0.333270	-0.306440
N306	N	1.235115	0.666603	0.026894
C307	C	0.568696	-0.046325	-0.614566
C308	C	0.902030	0.287009	-0.281232
C309	C	1.235363	0.620342	0.052101
O310	O	0.568420	-0.085668	-0.640635
O311	O	0.901753	0.247666	-0.307302
O312	O	1.235086	0.580999	0.026031
C313	C	0.570754	-0.046333	-0.412908
C314	C	0.904087	0.287000	-0.079575
C315	C	1.237421	0.620333	0.253759
C316	C	0.571023	-0.000075	-0.387700
C317	C	0.904356	0.333259	-0.054367
C318	C	1.237689	0.666592	0.278966
C319	C	0.571041	0.092438	-0.387696
C320	C	0.904375	0.425771	-0.054363
C321	C	1.237708	0.759105	0.278970
C322	C	0.571559	0.092435	-0.337285
C323	C	0.904892	0.425769	-0.003952
C324	C	1.238226	0.759102	0.329381
C325	C	0.571809	0.046177	-0.312082
C326	C	0.905142	0.379511	0.021252
C327	C	1.238475	0.712844	0.354585
C328	C	0.571541	-0.000077	-0.337289
C329	C	0.904874	0.333256	-0.003956
C330	C	1.238207	0.666589	0.329377
C331	C	0.570999	-0.092594	-0.387701
C332	C	0.904332	0.240739	-0.054368
C333	C	1.237665	0.574073	0.278966
C334	C	0.571512	-0.092592	-0.337283
C335	C	0.904845	0.240741	-0.003950
C336	C	1.238179	0.574075	0.329383
C337	C	0.571781	-0.046333	-0.312076
C338	C	0.905114	0.287000	0.021258
C339	C	1.238447	0.620333	0.354591
C340	C	0.572308	-0.046338	-0.261674
C341	C	0.905641	0.286995	0.071659
C342	C	1.238975	0.620329	0.404992
N343	N	0.572572	-0.000082	-0.236464
N344	N	0.905905	0.333251	0.096870
N345	N	1.239239	0.666584	0.430203
C346	C	0.572322	0.046175	-0.261667
C347	C	0.905656	0.379509	0.071666
C348	C	1.238989	0.712842	0.404999
C349	C	0.567617	-0.046317	-0.720439
C350	C	0.900950	0.287017	-0.387106
C351	C	1.234284	0.620350	-0.053772
C352	C	0.567104	-0.046315	-0.770853
C353	C	0.900437	0.287019	-0.437520
C354	C	1.233770	0.620352	-0.104187
C355	C	0.567118	0.046203	-0.770846
C356	C	0.900452	0.379536	-0.437513
C357	C	1.233785	0.712869	-0.104180
C358	C	0.567635	0.046200	-0.720431
C359	C	0.900969	0.379533	-0.387098
C360	C	1.234302	0.712867	-0.053765
C361	C	0.567881	-0.000061	-0.695228
C362	C	0.901214	0.333272	-0.361895
C363	C	1.234548	0.666606	-0.028562
C364	C	0.573410	0.046166	-0.155800
C365	C	0.906744	0.379499	0.177533
C366	C	1.240077	0.712833	0.510866
C367	C	0.573930	0.046159	-0.105385
C368	C	0.907264	0.379492	0.227948
C369	C	1.240597	0.712826	0.561282
C370	C	0.573913	-0.046358	-0.105396
C371	C	0.907246	0.286976	0.227937
C372	C	1.240580	0.620309	0.561271
C373	C	0.573396	-0.046351	-0.155807
C374	C	0.906729	0.286982	0.177526
C375	C	1.240062	0.620316	0.510859
C376	C	0.573143	-0.000085	-0.181008
C377	C	0.906476	0.333248	0.152325
C378	C	1.239809	0.666582	0.485659
O379	O	0.572584	-0.085657	-0.235567
O380	O	0.905917	0.247677	0.097767
O381	O	1.239250	0.581010	0.431100
O382	O	0.572588	0.085513	-0.235587
O383	O	0.905922	0.418846	0.097746
O384	O	1.239255	0.752179	0.431079
C385	C	0.570255	0.046186	-0.463315
C386	C	0.903588	0.379519	-0.129982
C387	C	1.236922	0.712853	0.203352
C388	C	0.569987	-0.000069	-0.488523
C389	C	0.903320	0.333264	-0.155189
C390	C	1.236654	0.666598	0.178144
C391	C	0.570237	-0.046327	-0.463319
C392	C	0.903570	0.287007	-0.129986
C393	C	1.236903	0.620340	0.203348
C394	C	0.569473	-0.000067	-0.538937
C395	C	0.902807	0.333266	-0.205604
C396	C	1.236140	0.666600	0.127730
C397	C	0.569224	0.046191	-0.564141
C398	C	0.902557	0.379524	-0.230807
C399	C	1.235890	0.712857	0.102526
C400	C	0.569488	0.092446	-0.538930
C401	C	0.902821	0.425780	-0.205597
C402	C	1.236154	0.759113	0.127737
C403	C	0.570005	0.092444	-0.488519
C404	C	0.903339	0.425777	-0.155185
C405	C	1.236672	0.759110	0.178148
C406	C	0.569973	-0.092582	-0.488530
C407	C	0.903306	0.240751	-0.155197
C408	C	1.236639	0.574084	0.178137
C409	C	0.569455	-0.092576	-0.538941
C410	C	0.902789	0.240758	-0.205608
C411	C	1.236122	0.574091	0.127725
C412	C	0.569206	-0.046318	-0.564145
C413	C	0.902539	0.287015	-0.230811
C414	C	1.235872	0.620349	0.102522
C415	C	0.566311	-0.000065	0.150287
C416	C	0.899645	0.333268	0.483620
C417	C	1.232978	0.666601	0.816954
C418	C	0.566854	-0.000057	0.203943
C419	C	0.900187	0.333276	0.537276
C420	C	1.233521	0.666610	0.870610
H421	H	0.808713	0.083840	0.059202
H422	H	1.142046	0.417174	0.392536
H423	H	1.475379	0.750507	0.725869
H424	H	0.663727	-0.371503	-0.031270
H425	H	0.997061	-0.038170	0.302063
H426	H	1.330394	0.295163	0.635396
O427	O	0.942402	-0.142436	0.060638
O428	O	1.275736	0.190898	0.393971
O429	O	1.609069	0.524231	0.727305
H430	H	0.956550	-0.164701	0.027803
H431	H	1.289883	0.168633	0.361136
H432	H	1.623216	0.501966	0.694470
H433	H	0.569240	-0.130248	-0.559461
H434	H	0.902574	0.203085	-0.226128
H435	H	1.235907	0.536419	0.107205
H436	H	0.570177	-0.130252	-0.468014
H437	H	0.903510	0.203082	-0.134681
H438	H	1.236843	0.536415	0.198652
H439	H	0.949168	0.130104	0.060624
H440	H	1.282501	0.463437	0.393957
H441	H	1.615835	0.796770	0.727290
H442	H	0.574150	0.083830	-0.084863
H443	H	0.907483	0.417164	0.248470
H444	H	1.240817	0.750497	0.581803
O445	O	0.672492	-0.475455	-0.040018
O446	O	1.005825	-0.142122	0.293316
O447	O	1.339158	0.191212	0.626649
H448	H	0.695522	-0.447901	-0.063023
H449	H	1.028856	-0.114568	0.270311
H450	H	1.362189	0.218765	0.603644
O451	O	0.815389	-0.096245	0.059299
O452	O	1.148722	0.237088	0.392632
O453	O	1.482056	0.570421	0.725966
H454	H	0.833802	-0.098455	0.092492
H455	H	1.167135	0.234878	0.425825
H456	H	1.500468	0.568211	0.759158
O457	O	0.710596	-0.096247	0.058234
O458	O	1.043930	0.237087	0.391568
O459	O	1.377263	0.570420	0.724901
H460	H	0.736591	-0.128415	0.058505
H461	H	1.069924	0.204918	0.391838
H462	H	1.403257	0.538252	0.725172
O463	O	0.639343	-0.118737	-0.006908
O464	O	0.972676	0.214596	0.326426
O465	O	1.306009	0.547930	0.659759
H466	H	0.662684	-0.094401	0.013274
H467	H	0.996017	0.238932	0.346607
H468	H	1.329350	0.572266	0.679941
O469	O	1.093740	0.142337	0.062070
O470	O	1.427074	0.475670	0.395403
O471	O	1.760407	0.809003	0.728737
H472	H	1.119745	0.174499	0.062320
H473	H	1.453078	0.507832	0.395654
H474	H	1.786412	0.841165	0.728987
O475	O	0.639359	-0.229756	-0.006910
O476	O	0.972692	0.103577	0.326424
O477	O	1.306025	0.436911	0.659757
H478	H	0.662391	-0.202204	-0.029915
H479	H	0.995724	0.131130	0.303419
H480	H	1.329058	0.464463	0.636752
H481	H	1.332313	0.083868	0.064532
H482	H	1.665646	0.417201	0.397866
H483	H	1.998980	0.750535	0.731199
O484	O	0.710595	0.096054	0.058196
O485	O	1.043928	0.429387	0.391530
O486	O	1.377262	0.762721	0.724863
H487	H	0.736596	0.128219	0.058446
H488	H	1.069930	0.461552	0.391779
H489	H	1.403263	0.794886	0.725112
O490	O	0.501684	-0.770403	0.130664
O491	O	0.835017	-0.437070	0.463998
O492	O	1.168350	-0.103736	0.797331
H493	H	0.478662	-0.797955	0.153680
H494	H	0.811995	-0.464622	0.487013
H495	H	1.145328	-0.131289	0.820346
O496	O	0.672489	-0.635702	-0.040030
O497	O	1.005822	-0.302368	0.293304
O498	O	1.339155	0.030965	0.626637
H499	H	0.695526	-0.608160	-0.063044
H500	H	1.028859	-0.274827	0.270290
H501	H	1.362192	0.058506	0.603623
H502	H	1.100412	-0.130252	0.062188
H503	H	1.433745	0.203082	0.395521
H504	H	1.767079	0.536415	0.728854
O505	O	0.468559	-0.635702	0.163768
O506	O	0.801892	-0.302368	0.497101
O507	O	1.135225	0.030965	0.830434
H508	H	0.430924	-0.625452	0.157872
H509	H	0.764257	-0.292118	0.491206
H510	H	1.097590	0.041215	0.824539
O511	O	0.566818	-0.096207	-0.798041
O512	O	0.900151	0.237126	-0.464707
O513	O	1.233485	0.570459	-0.131374
H514	H	0.567073	-0.128371	-0.772040
H515	H	0.900406	0.204963	-0.438706
H516	H	1.233740	0.538296	-0.105373
O517	O	0.573139	0.096066	-0.182977
O518	O	0.906472	0.429399	0.150356
O519	O	1.239806	0.762733	0.483690
H520	H	0.539942	0.098291	-0.201382
H521	H	0.873276	0.431625	0.131952
H522	H	1.206609	0.764958	0.465285
O523	O	1.047280	0.142334	0.061621
O524	O	1.380614	0.475667	0.394955
O525	O	1.713947	0.809001	0.728288
H526	H	1.021274	0.174492	0.061357
H527	H	1.354608	0.507826	0.394691
H528	H	1.687941	0.841159	0.728024
O529	O	0.571836	0.142328	-0.310098
O530	O	0.905169	0.475662	0.023236
O531	O	1.238503	0.808995	0.356569
H532	H	0.571568	0.174490	-0.336099
H533	H	0.904901	0.507824	-0.002765
H534	H	1.238235	0.841157	0.330568
O535	O	1.198519	-0.142476	0.063192
O536	O	1.531853	0.190857	0.396525
O537	O	1.865186	0.524191	0.729859
H538	H	1.226046	-0.144698	0.030468
H539	H	1.559379	0.188635	0.363801
H540	H	1.892712	0.521968	0.697134
O541	O	0.639375	-0.770383	-0.006940
O542	O	0.972708	-0.437050	0.326394
O543	O	1.306041	-0.103717	0.659727
H544	H	0.677011	-0.780630	-0.001047
H545	H	1.010345	-0.447297	0.332286
H546	H	1.343678	-0.113963	0.665619
H547	H	1.423770	-0.083983	0.065489
H548	H	1.757104	0.249350	0.398822
H549	H	2.090437	0.582684	0.732156
H550	H	1.423779	0.083867	0.065461
H551	H	1.757112	0.417201	0.398794
H552	H	2.090446	0.750534	0.732127
H553	H	1.332322	-0.083990	0.064546
H554	H	1.665655	0.249343	0.397879
H555	H	1.998989	0.582677	0.731213
O556	O	0.639383	-0.881413	-0.006944
O557	O	0.972716	-0.548080	0.326390
O558	O	1.306050	-0.214747	0.659723
H559	H	0.633814	-0.923041	-0.001383
H560	H	0.967147	-0.589708	0.331950
H561	H	1.300481	-0.256375	0.665284
H562	H	0.570224	0.130112	-0.467999
H563	H	0.903557	0.463446	-0.134666
H564	H	1.236891	0.796779	0.198667
O565	O	0.468547	-0.524700	0.163764
O566	O	0.801881	-0.191367	0.497097
O567	O	1.135214	0.141967	0.830430
H568	H	0.445204	-0.500368	0.143582
H569	H	0.778537	-0.167035	0.476916
H570	H	1.111870	0.166298	0.810249
H571	H	0.570836	0.130109	-0.408212
H572	H	0.904169	0.463442	-0.074878
H573	H	1.237503	0.796775	0.258455
H574	H	0.566915	0.083867	-0.791376
H575	H	0.900249	0.417201	-0.458042
H576	H	1.233582	0.750534	-0.124709
H577	H	0.510448	-0.874358	0.121915
H578	H	0.843781	-0.541024	0.455248
H579	H	1.177114	-0.207691	0.788581
H580	H	0.574118	-0.084019	-0.084867
H581	H	0.907452	0.249314	0.248467
H582	H	1.240785	0.582647	0.581800
H583	H	0.477289	-0.468403	0.155015
H584	H	0.810622	-0.135069	0.488348
H585	H	1.143955	0.198264	0.821682
H586	H	1.040616	-0.130263	0.061573
H587	H	1.373949	0.203070	0.394906
H588	H	1.707282	0.536404	0.728240
H589	H	0.477283	-0.371508	0.155014
H590	H	0.810616	-0.038175	0.488347
H591	H	1.143949	0.295159	0.821681
O592	O	0.501657	-0.229780	0.130686
O593	O	0.834990	0.103553	0.464020
O594	O	1.168323	0.436887	0.797353
H595	H	0.478623	-0.202235	0.153700
H596	H	0.811957	0.131098	0.487034
H597	H	1.145290	0.464431	0.820367
H598	H	0.510410	-0.125806	0.121945
H599	H	0.843743	0.207527	0.455279
H600	H	1.177077	0.540860	0.788612
O601	O	1.198526	0.142341	0.063141
O602	O	1.531859	0.475674	0.396475
O603	O	1.865192	0.809007	0.729808
H604	H	1.237817	0.134565	0.063534
H605	H	1.571150	0.467899	0.396868
H606	H	1.904484	0.801232	0.730201
H607	H	0.663733	-0.531738	-0.031281
H608	H	0.997066	-0.198405	0.302053
H609	H	1.330399	0.134928	0.635386
H610	H	0.567853	0.083868	-0.699911
H611	H	0.901187	0.417201	-0.366577
H612	H	1.234520	0.750535	-0.033244
H613	H	0.567819	-0.083990	-0.699923
H614	H	0.901153	0.249343	-0.366590
H615	H	1.234486	0.582677	-0.033257
O616	O	0.570707	-0.142488	-0.414882
O617	O	0.904040	0.190846	-0.081549
O618	O	1.237373	0.524179	0.251785
H619	H	0.537838	-0.164655	-0.400646
H620	H	0.871171	0.168679	-0.067312
H621	H	1.204505	0.502012	0.266021
O622	O	0.571783	-0.142489	-0.310099
O623	O	0.905116	0.190845	0.023234
O624	O	1.238449	0.524178	0.356567
H625	H	0.571514	-0.174651	-0.336102
H626	H	0.904848	0.158682	-0.002768
H627	H	1.238181	0.492016	0.330565
O628	O	0.573107	-0.096242	-0.183001
O629	O	0.906441	0.237091	0.150333
O630	O	1.239774	0.570425	0.483666
H631	H	0.573366	-0.128408	-0.157003
H632	H	0.906699	0.204925	0.176331
H633	H	1.240032	0.538259	0.509664
H634	H	0.569286	0.130111	-0.559460
H635	H	0.902620	0.463444	-0.226126
H636	H	1.235953	0.796778	0.107207
