data_functionalizedCrystal
_audit_creation_method	'MofGen! by Chris Wilmer'
_symmetry_space_group_name_H-M	'P1'
_symmetry_Int_Tables_number	1
_symmetry_cell_setting	triclinic
loop_
_symmetry_equiv_pos_as_xyz
  x,y,z
_cell_length_a	19.188930
_cell_length_b	14.421503
_cell_length_c	15.944545
_cell_angle_alpha	90.002190
_cell_angle_beta	83.320476
_cell_angle_gamma	89.978519
loop_
_atom_site_label
_atom_site_type_symbol
_atom_site_fract_x
_atom_site_fract_y
_atom_site_fract_z
O1	O	0.926418	-0.077414	0.104855
O2	O	0.723143	-0.077351	0.118971
O3	O	0.830334	-0.077373	-0.010383
O4	O	0.819227	-0.077392	0.234209
O5	O	0.830316	0.076850	-0.010364
O6	O	0.723125	0.076872	0.118991
O7	O	0.926400	0.076809	0.104874
Cu8	Cu	0.824761	0.090923	0.111934
Cu9	Cu	0.824782	-0.091464	0.111911
O10	O	0.819210	0.076831	0.234228
C11	C	0.697122	-0.000231	0.118524
C12	C	0.619614	-0.000207	0.117152
N13	N	0.824752	0.219204	0.111949
N14	N	0.824798	-0.219746	0.111889
C15	C	0.574885	-0.000227	0.193052
C16	C	0.502058	-0.000237	0.191763
C17	C	0.473963	-0.000246	0.114569
C18	C	0.518702	-0.000220	0.038658
C19	C	0.591528	-0.000201	0.039949
N20	N	0.365838	-0.052767	0.055557
N21	N	0.296656	-0.052788	0.054335
C22	C	0.254544	-0.000302	0.110673
N23	N	0.284227	0.052193	0.168292
N24	N	0.353415	0.052210	0.169516
C25	C	0.394997	-0.000266	0.113160
C26	C	0.130847	-0.000332	0.185181
C27	C	0.058019	-0.000336	0.183889
C28	C	0.074665	-0.000328	0.030781
C29	C	0.147492	-0.000315	0.032076
C30	C	0.175578	-0.000321	0.109278
C31	C	0.952422	-0.000313	0.105321
C32	C	1.029930	-0.000343	0.106694
C33	C	0.829865	-0.000261	-0.041666
C34	C	0.828485	-0.000258	-0.134907
C35	C	0.775178	0.468868	0.171736
C36	C	0.838267	0.530649	0.187808
C37	C	0.824769	0.408365	0.111929
C38	C	0.761695	0.530678	0.095878
C39	C	0.824779	0.591087	0.111912
C40	C	0.887890	0.468786	0.128038
C41	C	0.811277	0.468809	0.036076
C42	C	0.874412	0.530563	0.052115
C43	C	0.824761	0.303104	0.111942
C44	C	0.824794	0.696346	0.111899
C45	C	0.757919	-0.000254	-0.405276
C46	C	0.791949	-0.076306	-0.354827
C47	C	0.823563	-0.000282	-0.470532
C48	C	0.791949	0.075747	-0.354835
C49	C	0.825978	-0.000269	-0.305628
C50	C	0.857576	-0.076396	-0.421312
C51	C	0.857566	0.075724	-0.421323
C52	C	0.891644	-0.000346	-0.370908
C53	C	0.822171	-0.000291	-0.565529
C54	C	0.827376	-0.000267	-0.210634
C55	C	0.819679	-0.000283	0.265511
C56	C	0.821059	-0.000292	0.358752
H57	H	0.465632	-0.000251	0.253573
H58	H	0.051791	-0.000393	-0.032072
H59	H	0.849689	0.557812	0.251948
N60	N	0.686998	-0.000331	-0.424640
N61	N	0.646931	-0.065711	-0.400247
H62	H	0.596843	-0.065769	-0.413923
H63	H	0.764207	0.140040	-0.325809
N64	N	0.892344	-0.157149	-0.457565
N65	N	0.955466	-0.171096	-0.449237
H66	H	0.980020	-0.228128	-0.474840
N67	N	0.757175	-0.156940	-0.318414
N68	N	0.693901	-0.170471	-0.326142
H69	H	0.669337	-0.227417	-0.300428
N70	N	0.962620	-0.000426	-0.351745
N71	N	1.002696	-0.065787	-0.376289
H72	H	1.052824	-0.065849	-0.362755
N73	N	0.892296	0.156359	-0.457784
N74	N	0.897239	0.168875	-0.535823
H75	H	0.921762	0.225830	-0.561576
N76	N	0.603562	-0.000236	0.271917
N77	N	0.563611	-0.000256	0.339682
H78	H	0.583864	-0.000262	0.395382
H79	H	0.733283	0.441779	0.222353
H80	H	0.941246	0.441714	0.141684
N81	N	0.489996	-0.000219	-0.040187
N82	N	0.424973	-0.000237	-0.041331
H83	H	0.404699	-0.000231	-0.097017
H84	H	0.153716	-0.000323	0.248044
N85	N	0.637222	-0.000166	-0.037585
N86	N	0.634635	0.064849	-0.088974
H87	H	0.666908	0.064874	-0.143734
N88	N	0.012336	-0.000346	0.261432
N89	N	0.037427	-0.000349	0.330352
H90	H	0.005163	-0.000355	0.385119
N91	N	0.193176	-0.000297	-0.045464
N92	N	0.168086	-0.000300	-0.114384
H93	H	0.200350	-0.000284	-0.169151
H94	H	0.916399	0.557482	0.001527
N95	N	0.796919	0.434714	-0.044363
N96	N	0.740271	0.454516	-0.071662
H97	H	0.730123	0.430436	-0.128472
H98	H	0.708351	0.557866	0.082309
