data_functionalizedCrystal
_audit_creation_method	'MofGen! by Chris Wilmer'
_symmetry_space_group_name_H-M	'P1'
_symmetry_Int_Tables_number	1
_symmetry_cell_setting	triclinic
loop_
_symmetry_equiv_pos_as_xyz
  x,y,z
_cell_length_a	19.805407
_cell_length_b	16.959454
_cell_length_c	16.959447
_cell_angle_alpha	89.973264
_cell_angle_beta	89.983607
_cell_angle_gamma	90.020075
loop_
_atom_site_label
_atom_site_type_symbol
_atom_site_fract_x
_atom_site_fract_y
_atom_site_fract_z
Zn1	Zn	1.034744	-0.314666	-0.446972
Zn2	Zn	1.534744	0.185334	0.053028
Zn3	Zn	1.034678	-0.446858	-0.314802
Zn4	Zn	1.534678	0.053142	0.185198
Zn5	Zn	0.921565	-0.314698	-0.314805
Zn6	Zn	1.421565	0.185302	0.185195
Zn7	Zn	0.921535	-0.446806	-0.446936
Zn8	Zn	1.421535	0.053194	0.053064
O9	O	0.978131	-0.380757	-0.380879
O10	O	1.478131	0.119243	0.119121
O11	O	1.129452	-0.332210	-0.429453
O12	O	1.629452	0.167790	0.070547
O13	O	1.019658	-0.429362	-0.204191
O14	O	1.519658	0.070638	0.295809
O15	O	0.936619	-0.204083	-0.332354
O16	O	1.436619	0.295917	0.167646
O17	O	1.129403	-0.429331	-0.332348
O18	O	1.629403	0.070669	0.167652
O19	O	1.019771	-0.204059	-0.429456
O20	O	1.519771	0.295941	0.070544
O21	O	0.936555	-0.332264	-0.204193
O22	O	1.436555	0.167736	0.295807
O23	O	0.826845	-0.332214	-0.332318
O24	O	1.326845	0.167786	0.167682
O25	O	0.936567	-0.429243	-0.557551
O26	O	1.436567	0.070757	-0.057551
O27	O	0.826822	-0.429273	-0.429394
O28	O	1.326822	0.070727	0.070606
O29	O	1.019742	-0.332160	-0.557578
O30	O	1.519742	0.167840	-0.057578
O31	O	1.019629	-0.557462	-0.332313
O32	O	1.519629	-0.057462	0.167687
O33	O	0.936503	-0.557424	-0.429391
O34	O	1.436503	-0.057424	0.070609
C35	C	0.802275	-0.380742	-0.380853
C36	C	1.302275	0.119258	0.119147
C37	C	0.727043	-0.380755	-0.380861
C38	C	1.227043	0.119245	0.119139
C39	C	0.691705	-0.431370	-0.431326
C40	C	1.191705	0.068630	0.068674
C41	C	0.621016	-0.431371	-0.431338
C42	C	1.121016	0.068629	0.068662
C43	C	0.585667	-0.380761	-0.380879
C44	C	1.085667	0.119239	0.119121
C45	C	0.621010	-0.330140	-0.330411
C46	C	1.121010	0.169860	0.169589
C47	C	0.691697	-0.330135	-0.330404
C48	C	1.191697	0.169865	0.169596
C49	C	0.335937	-0.330158	-0.330437
C50	C	0.835937	0.169842	0.169563
C51	C	0.265245	-0.330168	-0.330446
C52	C	0.765245	0.169832	0.169554
C53	C	0.265256	-0.431393	-0.431370
C54	C	0.765256	0.068607	0.068630
C55	C	0.335943	-0.431388	-0.431364
C56	C	0.835943	0.068612	0.068636
C57	C	0.371280	-0.380765	-0.380899
C58	C	0.871280	0.119235	0.119101
C59	C	0.447928	-0.380763	-0.380889
C60	C	0.947928	0.119237	0.119111
C61	C	0.509020	-0.380766	-0.380884
C62	C	1.009020	0.119234	0.119116
C63	C	0.978074	-0.586123	-0.380865
C64	C	1.478074	-0.086123	0.119135
C65	C	0.978112	-0.673980	-0.380886
C66	C	1.478112	-0.173980	0.119114
C67	C	0.934910	-1.045466	-0.431422
C68	C	1.434910	-0.545466	0.068578
C69	C	1.021540	-1.045445	-0.330416
C70	C	1.521540	-0.545445	0.169584
C71	C	1.021516	-0.962900	-0.330409
C72	C	1.521516	-0.462900	0.169591
C73	C	0.978188	-0.921633	-0.380908
C74	C	1.478188	-0.421633	0.119092
C75	C	0.934883	-0.962912	-0.431414
C76	C	1.434883	-0.462912	0.068586
C77	C	1.064815	-0.921614	-0.279897
C78	C	1.564815	-0.421614	0.220103
C79	C	1.064793	-0.839063	-0.279887
C80	C	1.564793	-0.339063	0.220113
C81	C	1.021467	-0.797795	-0.330391
C82	C	1.521467	-0.297795	0.169609
C83	C	0.978162	-0.839079	-0.380900
C84	C	1.478162	-0.339079	0.119100
C85	C	0.934833	-0.797813	-0.431400
C86	C	1.434833	-0.297813	0.068600
C87	C	0.891531	-0.839095	-0.481913
C88	C	1.391531	-0.339095	0.018087
C89	C	0.891558	-0.921644	-0.481918
C90	C	1.391558	-0.421644	0.018082
C91	C	1.021440	-0.715247	-0.330387
C92	C	1.521440	-0.215247	0.169613
C93	C	0.934807	-0.715259	-0.431392
C94	C	1.434807	-0.215259	0.068608
C95	C	1.154673	-0.380773	-0.380905
C96	C	1.654673	0.119227	0.119095
C97	C	1.229905	-0.380780	-0.380916
C98	C	1.729905	0.119220	0.119084
C99	C	0.978159	-0.380692	-0.587047
C100	C	1.478159	0.119308	-0.087047
C101	C	0.978171	-0.380664	-0.674904
C102	C	1.478171	0.119336	-0.174904
C103	C	0.978206	-0.174589	-0.380909
C104	C	1.478206	0.325411	0.119091
C105	C	0.978238	-0.086732	-0.380922
C106	C	1.478238	0.413268	0.119078
C107	C	0.934946	-0.431127	-1.046368
C108	C	1.434946	0.068873	-0.546368
C109	C	1.021557	-0.330034	-1.046391
C110	C	1.521557	0.169966	-0.546391
C111	C	1.021539	-0.330051	-0.963845
C112	C	1.521539	0.169949	-0.463845
C113	C	0.978225	-0.380607	-0.922557
C114	C	1.478225	0.119393	-0.422557
C115	C	0.934929	-0.431147	-0.963814
C116	C	1.434929	0.068853	-0.463814
C117	C	1.064839	-0.279517	-0.922581
C118	C	1.564839	0.220483	-0.422581
C119	C	1.064823	-0.279533	-0.840030
C120	C	1.564823	0.220467	-0.340030
C121	C	1.021505	-0.330086	-0.798740
C122	C	1.521505	0.169914	-0.298740
C123	C	0.978207	-0.380627	-0.840003
C124	C	1.478207	0.119373	-0.340003
C125	C	0.934893	-0.431184	-0.798715
C126	C	1.434893	0.068816	-0.298715
C127	C	0.891590	-0.481722	-0.839976
C128	C	1.391590	0.018278	-0.339976
C129	C	0.891610	-0.481700	-0.922525
C130	C	1.391610	0.018300	-0.422525
C131	C	1.021485	-0.330107	-0.716192
C132	C	1.521485	0.169893	-0.216192
C133	C	0.934875	-0.431204	-0.716161
C134	C	1.434875	0.068796	-0.216161
C135	C	0.978141	-0.380765	-0.175512
C136	C	1.478141	0.119235	0.324488
C137	C	0.978261	-0.380570	-0.087656
C138	C	1.478261	0.119430	0.412344
H139	H	0.592223	-0.288929	-0.289329
H140	H	1.092223	0.211071	0.210671
C141	C	0.887276	-1.090877	-0.486981
C142	C	1.387276	-0.590877	0.013019
N143	N	0.851396	-1.125081	-0.528827
N144	N	1.351396	-0.625081	-0.028827
C145	C	1.069195	-0.274420	-1.091811
C146	C	1.569195	0.225580	-0.591811
N147	N	1.105075	-0.232525	-1.126024
N148	N	1.605075	0.267475	-0.626024
C149	C	1.112463	-0.967012	-0.224341
C150	C	1.612463	-0.467012	0.275659
N151	N	1.148351	-1.001210	-0.182491
N152	N	1.648351	-0.501210	0.317509
C153	C	1.069115	-0.274520	-0.670808
C154	C	1.569115	0.225480	-0.170808
N155	N	1.104991	-0.232647	-0.636626
N156	N	1.604991	0.267353	-0.136626
H157	H	1.056812	-1.079050	-0.289297
H158	H	1.556812	-0.579050	0.210703
C159	C	1.112422	-0.793660	-0.224317
C160	C	1.612422	-0.293660	0.275683
N161	N	1.148296	-0.759461	-0.182460
N162	N	1.648296	-0.259461	0.317540
C163	C	0.843946	-0.537332	-0.794548
C164	C	1.343946	-0.037332	-0.294548
N165	N	0.808061	-0.579216	-0.760329
N166	N	1.308061	-0.079216	-0.260329
H167	H	0.856358	-0.522848	-0.956127
H168	H	1.356358	-0.022848	-0.456127
H169	H	1.100107	-0.238362	-0.956204
H170	H	1.600107	0.261638	-0.456204
C171	C	0.374823	-0.487065	-0.486871
C172	C	0.874823	0.012935	0.013129
N173	N	0.404106	-0.528999	-0.528683
N174	N	0.904106	-0.028999	-0.028683
C175	C	0.887311	-0.486710	-1.091755
C176	C	1.387311	0.013290	-0.591755
N177	N	0.851431	-0.528575	-1.125942
N178	N	1.351431	-0.028575	-0.625942
C179	C	1.112449	-0.223932	-0.794650
C180	C	1.612449	0.276068	-0.294650
N181	N	1.148318	-0.182050	-0.760470
N182	N	1.648318	0.317950	-0.260470
H183	H	0.720481	-0.472585	-0.472414
H184	H	1.220481	0.027415	0.027586
C185	C	0.887149	-0.669872	-0.486956
C186	C	1.387149	-0.169872	0.013044
N187	N	0.851256	-0.635688	-0.528810
N188	N	1.351256	-0.135688	-0.028810
H189	H	0.236465	-0.288950	-0.289356
H190	H	0.736465	0.211050	0.210644
H191	H	1.056693	-0.681638	-0.289255
H192	H	1.556693	-0.181638	0.210745
C193	C	0.582147	-0.487067	-0.486839
C194	C	1.082147	0.012933	0.013161
N195	N	0.552872	-0.529024	-0.528640
N196	N	1.052872	-0.029024	-0.028640
H197	H	0.236476	-0.472610	-0.472464
H198	H	0.736476	0.027390	0.027536
C199	C	0.843922	-0.967061	-0.537469
C200	C	1.343922	-0.467061	-0.037469
N201	N	0.808039	-1.001272	-0.579306
N202	N	1.308039	-0.501272	-0.079306
H203	H	0.364699	-0.288943	-0.289339
H204	H	0.864699	0.211057	0.210661
C205	C	0.843871	-0.793691	-0.537460
C206	C	1.343871	-0.293691	-0.037460
N207	N	0.807975	-0.759490	-0.579298
N208	N	1.307975	-0.259490	-0.079298
C209	C	0.730568	-0.274457	-0.274886
C210	C	1.230568	0.225543	0.225114
N211	N	0.759846	-0.232516	-0.233070
N212	N	1.259846	0.267484	0.266930
H213	H	0.899596	-0.472366	-0.682550
H214	H	1.399596	0.027634	-0.182550
