data_functionalizedCrystal
_audit_creation_method	'MofGen! by Chris Wilmer'
_symmetry_space_group_name_H-M	'P1'
_symmetry_Int_Tables_number	1
_symmetry_cell_setting	triclinic
loop_
_symmetry_equiv_pos_as_xyz
  x,y,z
_cell_length_a	21.295412
_cell_length_b	16.120530
_cell_length_c	16.120484
_cell_angle_alpha	90.167327
_cell_angle_beta	87.129412
_cell_angle_gamma	92.913341
loop_
_atom_site_label
_atom_site_type_symbol
_atom_site_fract_x
_atom_site_fract_y
_atom_site_fract_z
Zn1	Zn	-0.419034	-1.254440	0.395622
Zn2	Zn	-0.318813	-1.247291	0.534678
Zn3	Zn	-0.308192	-1.115389	0.388585
Zn4	Zn	-0.418458	-1.108292	0.527575
O5	O	-0.366124	-1.181353	0.461615
O6	O	-0.410425	-1.369857	0.419985
O7	O	-0.229315	-1.229772	0.515326
O8	O	-0.318692	-1.139796	0.273155
O9	O	-0.336794	-1.364605	0.522149
O10	O	-0.400127	-1.241956	0.278325
O11	O	-0.221512	-1.132864	0.407992
O12	O	-0.318134	-0.998082	0.401104
O13	O	-0.506624	-1.127701	0.510043
O14	O	-0.399145	-0.992869	0.503220
O15	O	-0.507047	-1.235075	0.413098
O16	O	-0.336235	-1.222891	0.650099
O17	O	-0.409444	-1.120769	0.644880
C18	C	-0.357425	-0.965303	0.450628
C19	C	-0.353719	-0.872875	0.445948
C20	C	-0.373944	-1.170307	0.677662
C21	C	-0.377313	-1.165658	0.770092
C22	C	-0.530314	-1.181394	0.461563
C23	C	-0.600282	-1.181412	0.461541
C24	C	-1.099960	-1.237407	0.410934
C25	C	-1.034218	-1.237399	0.410954
C26	C	-1.001121	-1.181489	0.461435
C27	C	-1.033772	-1.125597	0.511916
C28	C	-1.099513	-1.125611	0.511901
N29	N	-0.895199	-1.108350	0.464136
N30	N	-0.832747	-1.108339	0.464146
C31	C	-0.803046	-1.181443	0.461484
N32	N	-0.838155	-1.254561	0.458797
N33	N	-0.900612	-1.254572	0.458783
C34	C	-0.929835	-1.181468	0.461457
C35	C	-0.699118	-1.237328	0.411032
C36	C	-0.633375	-1.237321	0.411058
C37	C	-0.632930	-1.125512	0.512016
C38	C	-0.698672	-1.125525	0.511995
C39	C	-0.731762	-1.181432	0.461499
C40	C	-0.202573	-1.181363	0.461609
C41	C	-0.132603	-1.181519	0.461405
C42	C	-0.374859	-1.398247	0.472645
C43	C	-0.378580	-1.490674	0.477345
C44	C	-0.346957	-0.703648	0.437384
C45	C	-0.385340	-0.659895	0.485906
C46	C	-0.381578	-0.565732	0.481141
C47	C	-0.350718	-0.797820	0.442148
C48	C	-0.358289	-1.192465	0.244725
C49	C	-0.354950	-1.197200	0.152299
C50	C	-0.383478	-1.157174	0.939324
C51	C	-0.348787	-1.205681	0.983073
C52	C	-0.352217	-1.200961	1.077239
C53	C	-0.380049	-1.161893	0.845149
H54	H	-1.126898	-1.282934	0.369820
H55	H	-0.415751	-1.112103	0.972587
H56	H	-0.311273	-0.670390	0.392269
C57	C	-0.734580	-1.064034	0.567508
N58	N	-0.761626	-1.017716	0.609323
C59	C	-0.998303	-1.298879	0.355425
N60	N	-0.971254	-1.345185	0.313599
H61	H	-1.006820	-1.080076	0.553019
C62	C	-0.433547	-0.704827	0.546867
N63	N	-0.469853	-0.738673	0.592784
H64	H	-0.726061	-1.282850	0.369915
C65	C	-0.305178	-1.266569	0.938134
N66	N	-0.272330	-1.312424	0.904281
H67	H	-1.126091	-1.080099	0.553001
H68	H	-0.606798	-1.282838	0.369961
H69	H	-0.605983	-1.079991	0.553122
