data_functionalizedCrystal
_audit_creation_method	'MofGen! by Chris Wilmer'
_symmetry_space_group_name_H-M	'P1'
_symmetry_Int_Tables_number	1
_symmetry_cell_setting	triclinic
loop_
_symmetry_equiv_pos_as_xyz
  x,y,z
_cell_length_a	10.654551
_cell_length_b	10.654550
_cell_length_c	9.730223
_cell_angle_alpha	90.001418
_cell_angle_beta	89.999052
_cell_angle_gamma	84.485087
loop_
_atom_site_label
_atom_site_type_symbol
_atom_site_fract_x
_atom_site_fract_y
_atom_site_fract_z
O1	O	1.667832	0.176401	0.114269
O2	O	1.302354	0.193206	0.114275
O3	O	1.493496	0.002064	0.114266
O4	O	1.476690	0.367543	0.114277
O5	O	1.493496	0.002064	-0.114314
O6	O	1.302354	0.193206	-0.114305
O7	O	1.667832	0.176401	-0.114311
Zn8	Zn	1.485093	0.184804	-0.150600
Zn9	Zn	1.485093	0.184803	0.150564
O10	O	1.476690	0.367543	-0.114303
C11	C	1.255556	0.191972	-0.000014
C12	C	1.116113	0.188279	-0.000012
C13	C	0.919581	0.183062	-0.124612
C14	C	1.050601	0.186542	-0.124613
C15	C	1.050595	0.186549	0.124598
C16	C	0.919576	0.183077	0.124596
C17	C	0.854078	0.181312	-0.249222
C18	C	0.919586	0.183045	-0.373832
C19	C	1.050607	0.186525	-0.373832
C20	C	1.116119	0.188273	-0.249222
C21	C	1.492262	-0.044734	-0.000022
C22	C	1.488570	-0.184177	-0.000017
C23	C	1.601112	-0.263662	-0.000023
C24	C	1.597635	-0.394683	-0.000013
C25	C	1.369066	-0.366720	0.000003
C26	C	1.372544	-0.235702	0.000003
C27	C	1.717138	-0.212137	-0.000043
C28	C	1.829689	-0.291624	-0.000051
C29	C	1.826212	-0.422645	-0.000041
C30	C	1.710185	-0.474179	-0.000024
C31	C	1.714630	0.177635	-0.000019
C32	C	1.854073	0.181327	-0.000013
C33	C	1.477924	0.414341	-0.000012
C34	C	1.481616	0.553784	-0.000008
N35	N	1.485103	0.184803	-0.356137
C36	C	1.561925	0.261675	-0.571970
C37	C	1.561927	0.261683	-0.428087
C38	C	1.408263	0.107919	-0.428077
C39	C	1.408255	0.107919	-0.571957
C40	C	1.650646	0.350445	-0.571975
C41	C	1.650648	0.350453	-0.428092
N42	N	1.485093	0.184794	0.356100
H43	H	0.866238	0.181669	0.226057
H44	H	1.103938	0.187949	-0.475295
Cl45	Cl	1.280831	0.192660	-0.249228
H46	H	1.274602	-0.408691	0.000015
Cl47	Cl	1.231060	-0.135771	0.000011
H48	H	1.103946	0.187971	0.226049
Cl49	Cl	1.311641	0.011286	-0.662379
Cl50	Cl	1.721517	-0.047427	-0.000059
Cl51	Cl	1.803573	0.302786	-0.367804
Cl52	Cl	1.967702	-0.522567	-0.000036
Cl53	Cl	0.689367	0.176939	-0.249230
Cl54	Cl	1.796669	0.289515	-0.640901
Cl55	Cl	1.975543	-0.226839	-0.000054
Cl56	Cl	0.837229	0.180864	-0.530474
Cl57	Cl	1.705819	-0.638893	-0.000073
H58	H	1.345702	0.045332	-0.369483
Cl59	Cl	1.602895	0.503349	-0.632263
H60	H	1.611136	0.445027	-0.383464
