data_functionalizedCrystal
_audit_creation_method	'MofGen! by Chris Wilmer'
_symmetry_space_group_name_H-M	'P1'
_symmetry_Int_Tables_number	1
_symmetry_cell_setting	triclinic
loop_
_symmetry_equiv_pos_as_xyz
  x,y,z
_cell_length_a	16.109301
_cell_length_b	10.654550
_cell_length_c	15.186229
_cell_angle_alpha	89.996404
_cell_angle_beta	89.999362
_cell_angle_gamma	83.973206
loop_
_atom_site_label
_atom_site_type_symbol
_atom_site_fract_x
_atom_site_fract_y
_atom_site_fract_z
O1	O	1.104090	0.161419	-0.073173
O2	O	0.862148	0.181507	-0.073187
O3	O	0.988682	-0.011352	-0.073174
O4	O	0.977556	0.354278	-0.073185
O5	O	0.988673	-0.011354	0.073284
O6	O	0.862139	0.181504	0.073271
O7	O	1.104082	0.161416	0.073285
Zn8	Zn	0.983109	0.171460	0.096531
Zn9	Zn	0.983120	0.171463	-0.096433
O10	O	0.977548	0.354275	0.073272
C11	C	0.831164	0.180692	0.000040
C12	C	0.738854	0.178253	0.000035
C13	C	0.517228	0.287019	0.000042
C14	C	0.430494	0.284717	0.000048
C15	C	0.449008	0.055896	0.000051
C16	C	0.535741	0.058199	0.000052
C17	C	0.569848	0.173764	0.000043
C18	C	0.396382	0.169159	0.000048
C19	C	0.302341	0.166662	0.000054
C20	C	0.663895	0.176262	0.000038
C21	C	0.987861	-0.058140	0.000054
C22	C	0.985417	-0.197550	0.000053
C23	C	1.059918	-0.278046	0.000057
C24	C	1.057616	-0.409036	0.000046
C25	C	0.906306	-0.379020	0.000031
C26	C	0.908608	-0.248033	0.000035
C27	C	1.145364	-0.606070	-0.051264
C28	C	1.219869	-0.686572	-0.051245
C29	C	1.287407	-0.657317	0.000083
C30	C	1.280443	-0.547563	0.051414
C31	C	1.205937	-0.467068	0.051402
C32	C	1.138402	-0.496322	0.000054
C33	C	0.820866	-0.050997	0.051353
C34	C	0.746359	0.029500	0.051348
C35	C	0.678814	0.000249	0.000025
C36	C	0.685769	-0.109507	-0.051292
C37	C	0.760277	-0.190004	-0.051287
C38	C	0.827822	-0.160745	0.000034
C39	C	1.135066	0.162231	0.000056
C40	C	1.227376	0.164671	0.000055
C41	C	0.978369	0.401063	0.000042
C42	C	0.980813	0.540473	0.000037
N43	N	0.983108	0.171457	0.228224
N44	N	0.983129	0.171457	-0.228126
C45	C	1.039156	0.086088	0.453952
C46	C	1.039159	0.086085	0.546142
C47	C	0.927074	0.256830	0.546140
C48	C	0.927068	0.256826	0.453952
C49	C	0.983114	0.171456	0.407860
C50	C	0.983122	0.171457	0.592238
C51	C	0.983125	0.171455	0.692194
C52	C	0.983111	0.171457	0.307898
H53	H	0.578586	-0.034032	0.000055
H54	H	0.740696	0.118862	0.093145
H55	H	1.122460	-0.236948	0.000069
O56	O	0.550263	0.399352	-0.000077
C57	C	0.561011	0.595607	-0.075976
C58	C	0.523534	0.468443	-0.075944
H59	H	0.539429	0.651491	-0.137318
H60	H	0.539368	0.651651	-0.014725
H61	H	0.632038	0.577775	-0.075935
H62	H	0.452505	0.486159	-0.076017
H63	H	0.545242	0.412439	-0.137190
H64	H	0.881427	0.326344	0.416421
O65	O	0.415736	-0.056248	0.000014
C66	C	0.290326	-0.161209	0.000063
C67	C	0.327892	-0.034116	0.000088
H68	H	0.219300	-0.143360	0.000141
H69	H	0.311886	-0.217189	-0.061243
H70	H	0.311992	-0.217178	0.061341
H71	H	0.306244	0.021955	-0.061150
H72	H	0.306337	0.021768	0.061434
H73	H	0.387654	0.376940	0.000049
H74	H	1.200266	-0.377712	0.093198
H75	H	1.335439	-0.523762	0.093216
H76	H	1.084793	0.016568	0.583667
H77	H	1.348071	-0.722871	0.000097
O78	O	1.226646	-0.793048	-0.101245
C79	C	1.221809	-0.881037	-0.247098
C80	C	1.214129	-0.760350	-0.190588
H81	H	1.211676	-0.854645	-0.319340
H82	H	1.286667	-0.933561	-0.238341
H83	H	1.172708	-0.944268	-0.225431
H84	H	1.263184	-0.697024	-0.212218
H85	H	1.149244	-0.707925	-0.199349
O86	O	0.831770	-0.428271	0.000061
C87	C	0.761163	-0.616760	0.000002
C88	C	0.845634	-0.561156	-0.000016
H89	H	0.772342	-0.724204	-0.000079
H90	H	0.724291	-0.583702	0.061307
H91	H	0.724313	-0.583524	-0.061278
H92	H	0.882551	-0.594367	0.061223
H93	H	0.882442	-0.594208	-0.061361
O94	O	1.079787	-0.634317	-0.101241
C95	C	0.984664	-0.568636	-0.218924
C96	C	1.058944	-0.536498	-0.162403
H97	H	0.967778	-0.489557	-0.268374
H98	H	1.002416	-0.660862	-0.255664
H99	H	0.928765	-0.579251	-0.174526
H100	H	1.114874	-0.525818	-0.206737
H101	H	1.041123	-0.444300	-0.125655
H102	H	0.765940	-0.279365	-0.093086
H103	H	0.630761	-0.133341	-0.093065
O104	O	0.872556	0.339804	0.590778
C105	C	0.761412	0.509204	0.581045
C106	C	0.823097	0.415282	0.530385
H107	H	0.721420	0.570270	0.532239
H108	H	0.719515	0.455029	0.624187
H109	H	0.797682	0.571904	0.624222
H110	H	0.786894	0.352558	0.487160
H111	H	0.864993	0.469535	0.487298
O112	O	0.886516	-0.022800	0.101243
C113	C	0.981643	-0.088413	0.218937
C114	C	0.907301	-0.120517	0.162497
H115	H	0.998460	-0.167385	0.268486
H116	H	1.037584	-0.077916	0.174570
H117	H	0.963882	0.003891	0.255578
H118	H	0.924983	-0.212831	0.125848
H119	H	0.851381	-0.130931	0.206909
H120	H	1.084791	0.016573	0.416427
H121	H	0.618142	0.065794	0.000037
