data_functionalizedCrystal
_audit_creation_method	'MofGen! by Chris Wilmer'
_symmetry_space_group_name_H-M	'P1'
_symmetry_Int_Tables_number	1
_symmetry_cell_setting	triclinic
loop_
_symmetry_equiv_pos_as_xyz
  x,y,z
_cell_length_a	10.540535
_cell_length_b	10.540539
_cell_length_c	13.930277
_cell_angle_alpha	89.997612
_cell_angle_beta	89.995168
_cell_angle_gamma	84.524567
loop_
_atom_site_label
_atom_site_type_symbol
_atom_site_fract_x
_atom_site_fract_y
_atom_site_fract_z
O1	O	1.685896	0.178872	-0.079773
O2	O	1.316482	0.195734	-0.079786
O3	O	1.509617	0.002597	-0.079778
O4	O	1.492761	0.372010	-0.079781
O5	O	1.509590	0.002592	0.079883
O6	O	1.316455	0.195730	0.079875
O7	O	1.685869	0.178868	0.079888
Zn8	Zn	1.501157	0.187298	0.105232
Zn9	Zn	1.501193	0.187304	-0.105130
O10	O	1.492734	0.372005	0.079880
C11	C	1.269165	0.194469	0.000043
C12	C	1.128217	0.190689	0.000038
C13	C	1.091546	0.049675	0.000043
C14	C	0.944946	0.045698	0.000415
C15	C	0.918866	0.255057	0.091046
C16	C	1.065631	0.258057	0.091113
C17	C	1.065546	0.260114	-0.090459
C18	C	0.919200	0.253592	-0.091645
C19	C	1.508339	-0.044709	0.000051
C20	C	1.504557	-0.185657	0.000045
C21	C	1.359640	-0.369081	-0.000318
C22	C	1.363474	-0.222463	0.000042
C23	C	1.572438	-0.247318	0.091223
C24	C	1.567623	-0.393862	0.091299
C25	C	1.570523	-0.394376	-0.090266
C26	C	1.571822	-0.247394	-0.091471
C27	C	1.733185	0.180133	0.000057
C28	C	1.874134	0.183913	0.000056
C29	C	1.494011	0.419311	0.000049
C30	C	1.497793	0.560259	0.000048
N31	N	1.501142	0.187293	0.248798
N32	N	1.501218	0.187299	-0.248696
C33	C	1.415669	0.272791	0.701064
C34	C	1.586752	0.101807	0.701040
C35	C	1.586737	0.101803	0.600544
C36	C	1.501188	0.187295	0.550304
C37	C	1.415654	0.272792	0.600558
C38	C	1.672277	0.016316	0.550282
C39	C	1.672267	0.016309	0.449780
C40	C	1.586711	0.101797	0.399537
C41	C	1.501173	0.187297	0.449798
C42	C	1.415624	0.272789	0.399558
C43	C	1.330079	0.358284	0.449817
C44	C	1.330098	0.358280	0.550316
C45	C	1.586691	0.101801	0.299038
C46	C	1.415609	0.272790	0.299053
H47	H	1.088661	0.361432	0.095000
N48	N	1.118828	0.194413	0.181555
H49	H	1.096832	0.103256	0.183332
H50	H	1.214494	0.195810	0.182453
N51	N	1.501143	-0.431231	0.181572
H52	H	1.475234	-0.352541	0.220941
H53	H	1.422847	-0.474316	0.163825
N54	N	1.510066	-0.436166	-0.181809
H55	H	1.434912	-0.484938	-0.165660
H56	H	1.480200	-0.358732	-0.221375
H57	H	1.676045	-0.224966	0.094616
H58	H	1.522155	-0.206533	-0.158922
N59	N	1.509941	-0.190914	0.181098
H60	H	1.554286	-0.231204	0.239377
H61	H	1.516444	-0.095945	0.182049
N62	N	0.906087	-0.028009	-0.085959
H63	H	0.984256	-0.058203	-0.124619
H64	H	0.862224	-0.103981	-0.063903
H65	H	1.346016	0.342396	0.741987
N66	N	0.907230	-0.027631	0.087330
H67	H	0.811733	-0.030525	0.087932
H68	H	0.950434	-0.117305	0.084705
N69	N	1.285818	-0.406968	-0.086920
H70	H	1.197455	-0.360559	-0.085764
H71	H	1.331354	-0.383807	-0.147312
H72	H	1.674684	-0.223174	-0.096974
N73	N	0.856144	0.389858	0.095198
H74	H	0.797988	0.406144	0.037999
H75	H	0.804781	0.402003	0.156271
H76	H	1.310061	-0.179857	-0.065318
H77	H	1.345939	0.342405	0.258153
H78	H	1.656409	0.032207	0.741949
N79	N	0.854257	0.387222	-0.099298
H80	H	0.794439	0.404566	-0.043177
H81	H	0.920603	0.450306	-0.098683
H82	H	1.260452	0.427887	0.591243
N83	N	1.705507	-0.456925	-0.091081
H84	H	1.719536	-0.514373	-0.033264
H85	H	1.720208	-0.509007	-0.151605
H86	H	0.887952	0.206243	0.159023
N87	N	1.292212	-0.167150	0.086763
H88	H	1.351796	-0.121373	0.128307
H89	H	1.218910	-0.105046	0.065103
N90	N	1.237804	0.450482	0.395622
H91	H	1.183611	0.504641	0.442704
H92	H	1.286904	0.507074	0.353917
N93	N	1.702015	-0.457417	0.096789
H94	H	1.764121	-0.390201	0.099154
H95	H	1.711669	-0.511733	0.156550
H96	H	1.108016	0.216114	-0.159450
H97	H	1.304124	-0.399289	0.064697
H98	H	1.741935	-0.053284	0.591191
N99	N	0.881333	0.185023	-0.180819
H100	H	0.835176	0.109140	-0.161906
H101	H	0.823352	0.245043	-0.221429
N102	N	1.764525	-0.075897	0.395575
H103	H	1.818721	-0.130055	0.442653
H104	H	1.715412	-0.132490	0.353890
H105	H	1.133526	-0.004474	-0.065199
N106	N	1.149091	-0.020868	0.086344
H107	H	1.198810	0.038122	0.125437
H108	H	1.078879	-0.051592	0.127065
N109	N	1.094928	0.397543	-0.091635
H110	H	1.148565	0.414804	-0.033865
H111	H	1.143142	0.414631	-0.152205
N112	N	1.678953	0.009611	0.244829
H113	H	1.733155	-0.044542	0.291906
H114	H	1.629849	-0.046986	0.203142
