data_functionalizedCrystal
_audit_creation_method	'MofGen! by Chris Wilmer'
_symmetry_space_group_name_H-M	'P1'
_symmetry_Int_Tables_number	1
_symmetry_cell_setting	triclinic
loop_
_symmetry_equiv_pos_as_xyz
  x,y,z
_cell_length_a	13.897449
_cell_length_b	21.295417
_cell_length_c	13.897441
_cell_angle_alpha	90.035375
_cell_angle_beta	90.023394
_cell_angle_gamma	90.030528
loop_
_atom_site_label
_atom_site_type_symbol
_atom_site_fract_x
_atom_site_fract_y
_atom_site_fract_z
Zn1	Zn	1.474622	-0.250575	0.545418
Zn2	Zn	1.474482	-0.355854	0.384106
Zn3	Zn	1.313311	-0.250604	0.384129
Zn4	Zn	1.313259	-0.355812	0.545351
O5	O	1.393919	-0.303211	0.464751
O6	O	1.609585	-0.264546	0.524038
O7	O	1.453066	-0.341922	0.249127
O8	O	1.334790	-0.162511	0.405561
O9	O	1.609482	-0.341894	0.405522
O10	O	1.453304	-0.162490	0.524060
O11	O	1.334654	-0.264596	0.249144
O12	O	1.178323	-0.264555	0.405497
O13	O	1.334701	-0.341822	0.680341
O14	O	1.178284	-0.341851	0.523946
O15	O	1.453254	-0.264505	0.680390
O16	O	1.453015	-0.443938	0.405457
O17	O	1.334565	-0.443907	0.523924
C18	C	1.143304	-0.303202	0.464717
C19	C	1.036090	-0.303213	0.464725
C20	C	0.949021	-0.303215	0.464742
C21	C	0.839788	-0.303219	0.464771
C22	C	1.393796	-0.466763	0.464702
C23	C	1.393831	-0.536731	0.464713
C24	C	1.455507	-0.569530	0.526459
C25	C	1.455541	-0.635272	0.526483
C26	C	1.393910	-0.668214	0.464744
C27	C	1.332223	-0.635407	0.402993
C28	C	1.332183	-0.569666	0.402978
N29	N	1.386621	-0.771480	0.380326
N30	N	1.386663	-0.833932	0.380343
C31	C	1.394022	-0.866288	0.464787
N32	N	1.401356	-0.833834	0.549215
N33	N	1.401318	-0.771377	0.549197
C34	C	1.393945	-0.739499	0.464754
C35	C	1.455738	-0.970372	0.526564
C36	C	1.455765	-1.036116	0.526590
C37	C	1.332452	-1.036250	0.403091
C38	C	1.332420	-0.970508	0.403074
C39	C	1.394068	-0.937573	0.464809
C40	C	1.645512	-0.303222	0.464785
C41	C	1.752726	-0.303226	0.464800
C42	C	1.393987	-0.303156	0.716344
C43	C	1.394016	-0.303132	0.823558
C44	C	1.394068	-0.139021	0.464821
C45	C	1.394132	-0.069053	0.464851
C46	C	1.393906	-0.303221	0.214136
C47	C	1.394064	-0.303068	0.106923
C48	C	1.394043	-0.303090	1.019853
C49	C	1.394025	-0.303115	0.910620
H50	H	1.505702	-0.542716	0.576730
H51	H	1.282202	-0.943801	0.352790
O52	O	1.522071	-0.670660	0.593075
H53	H	1.564936	-0.636713	0.635995
O54	O	1.265665	-0.534291	0.336364
H55	H	1.216543	-0.504348	0.379479
H56	H	1.282265	-1.063071	0.352827
H57	H	1.282040	-0.662233	0.352726
H58	H	1.505932	-0.943555	0.576836
O59	O	1.522284	-1.071497	0.593196
H60	H	1.597991	-1.058850	0.576711
