data_functionalizedCrystal
_audit_creation_method	'MofGen! by Chris Wilmer'
_symmetry_space_group_name_H-M	'P1'
_symmetry_Int_Tables_number	1
_symmetry_cell_setting	triclinic
loop_
_symmetry_equiv_pos_as_xyz
  x,y,z
_cell_length_a	19.805407
_cell_length_b	12.759400
_cell_length_c	19.805398
_cell_angle_alpha	90.021572
_cell_angle_beta	89.984135
_cell_angle_gamma	89.985315
loop_
_atom_site_label
_atom_site_type_symbol
_atom_site_fract_x
_atom_site_fract_y
_atom_site_fract_z
Zn1	Zn	1.034766	0.418308	-0.382740
Zn2	Zn	1.534766	0.918308	0.117260
Zn3	Zn	1.034711	0.593996	-0.269560
Zn4	Zn	1.534711	1.093996	0.230440
Zn5	Zn	0.921588	0.418332	-0.269565
Zn6	Zn	1.421588	0.918332	0.230435
Zn7	Zn	0.921567	0.593945	-0.382707
Zn8	Zn	1.421567	1.093945	0.117293
O9	O	0.978158	0.506145	-0.326143
O10	O	1.478158	1.006145	0.173857
O11	O	1.129475	0.441625	-0.367739
O12	O	1.629475	0.941625	0.132261
O13	O	1.019691	0.570725	-0.174844
O14	O	1.519691	1.070725	0.325156
O15	O	0.936633	0.271308	-0.284593
O16	O	1.436633	0.771308	0.215407
O17	O	1.129435	0.570702	-0.284586
O18	O	1.629435	1.070702	0.215414
O19	O	1.019784	0.271290	-0.367743
O20	O	1.519784	0.771290	0.132257
O21	O	0.936580	0.441665	-0.174848
O22	O	1.436580	0.941665	0.325152
O23	O	0.826869	0.441616	-0.284561
O24	O	1.326869	0.941616	0.215439
O25	O	0.936598	0.570615	-0.477428
O26	O	1.436598	1.070615	0.022572
O27	O	0.826854	0.570639	-0.367687
O28	O	1.326854	1.070639	0.132313
O29	O	1.019764	0.441575	-0.477452
O30	O	1.519764	0.941575	0.022548
O31	O	1.019671	0.741010	-0.284554
O32	O	1.519671	1.241010	0.215446
O33	O	0.936545	0.740973	-0.367682
O34	O	1.436545	1.240973	0.132318
C35	C	0.802302	0.506125	-0.326121
C36	C	1.302302	1.006125	0.173879
C37	C	0.727070	0.506142	-0.326128
C38	C	1.227070	1.006142	0.173872
C39	C	0.978118	0.779113	-0.326129
C40	C	1.478118	1.279113	0.173871
C41	C	0.978163	0.895889	-0.326146
C42	C	1.478163	1.395889	0.173854
C43	C	0.978185	0.506087	-0.502686
C44	C	1.478185	1.006087	-0.002686
C45	C	0.978196	0.506062	-0.577918
C46	C	1.478196	1.006062	-0.077918
C47	C	0.691736	0.573425	-0.369341
C48	C	1.191736	1.073425	0.130659
C49	C	0.621047	0.573427	-0.369351
C50	C	1.121047	1.073427	0.130649
C51	C	0.585695	0.506150	-0.326143
C52	C	1.085695	1.006150	0.173857
C53	C	0.621034	0.438859	-0.282928
C54	C	1.121034	0.938859	0.217072
C55	C	0.691721	0.438853	-0.282922
C56	C	1.191721	0.938853	0.217078
C57	C	0.335961	0.438883	-0.282950
C58	C	0.835961	0.938883	0.217050
C59	C	0.265269	0.438896	-0.282958
C60	C	0.765269	0.938896	0.217042
C61	C	0.265287	0.573456	-0.369379
C62	C	0.765287	1.073456	0.130621
C63	C	0.335974	0.573450	-0.369373
C64	C	0.835974	1.073450	0.130627
C65	C	0.371307	0.506156	-0.326161
C66	C	0.871307	1.006156	0.173839
C67	C	0.447956	0.506154	-0.326152
C68	C	0.947956	1.006154	0.173848
C69	C	0.509047	0.506157	-0.326148
C70	C	1.009047	1.006157	0.173852
C71	C	1.154701	0.506166	-0.326165
C72	C	1.654701	1.006166	0.173835
C73	C	1.229933	0.506175	-0.326175
C74	C	1.729933	1.006175	0.173825
C75	C	0.978217	0.232112	-0.326172
C76	C	1.478217	0.732112	0.173828
C77	C	0.978242	0.115335	-0.326184
C78	C	1.478242	0.615335	0.173816
C79	C	1.021495	0.950736	-0.282908
C80	C	1.521495	1.450736	0.217092
C81	C	1.021536	1.060460	-0.282929
C82	C	1.521536	1.560460	0.217071
C83	C	0.934908	1.060481	-0.369426
C84	C	1.434908	1.560481	0.130574
C85	C	0.934871	0.950759	-0.369408
C86	C	1.434871	1.450759	0.130592
C87	C	1.071507	0.950724	-0.232968
C88	C	1.571507	1.450724	0.267032
C89	C	1.071548	1.060448	-0.232989
C90	C	1.571548	1.560448	0.267011
C91	C	1.021582	0.438685	-1.039723
C92	C	1.521582	0.938685	-0.539723
C93	C	1.021572	0.438717	-0.969034
C94	C	1.521572	0.938717	-0.469034
C95	C	0.978265	0.505916	-0.933680
C96	C	1.478265	1.005916	-0.433680
C97	C	0.934972	0.573095	-0.969017
C98	C	1.434972	1.073095	-0.469017
C99	C	0.934986	0.573067	-1.039705
C100	C	1.434986	1.073067	-0.539705
C101	C	0.934913	0.573209	-0.683944
C102	C	1.434913	1.073209	-0.183944
C103	C	0.934900	0.573229	-0.613252
C104	C	1.434900	1.073229	-0.113252
C105	C	1.021499	0.438859	-0.613274
C106	C	1.521499	0.938859	-0.113274
C107	C	1.021513	0.438831	-0.683961
C108	C	1.521513	0.938831	-0.183961
C109	C	0.978222	0.506013	-0.719292
C110	C	1.478222	1.006013	-0.219292
C111	C	0.978235	0.505979	-0.795941
C112	C	1.478235	1.005979	-0.295941
C113	C	0.978249	0.505946	-0.857033
C114	C	1.478249	1.005946	-0.357033
C115	C	0.978171	0.506127	-0.150287
C116	C	1.478171	1.006127	0.349713
C117	C	0.978291	0.505856	-0.075055
C118	C	1.478291	1.005856	0.424945
H119	H	0.720515	0.628213	-0.404524
H120	H	1.220515	1.128213	0.095476
H121	H	0.899592	0.906104	-0.404621
H122	H	1.399592	1.406104	0.095379
F123	F	0.729326	0.367239	-0.236930
F124	F	1.229326	0.867239	0.263070
F125	F	1.136635	1.104829	-0.257601
F126	F	1.636635	1.604829	0.242399
F127	F	0.888837	1.118887	-0.415468
F128	F	1.388837	1.618887	0.084532
H129	H	0.899630	0.627950	-0.584468
H130	H	1.399630	1.127950	-0.084468
F131	F	0.888841	0.644714	-0.721537
F132	F	1.388841	1.144714	-0.221537
F133	F	1.139999	0.911698	-0.251373
F134	F	1.639999	1.411698	0.248627
H135	H	1.052749	0.916764	-0.183150
H136	H	1.552749	1.416764	0.316850
F137	F	0.583407	0.367252	-0.236947
F138	F	1.083407	0.867252	0.263053
F139	F	1.067610	0.367316	-0.721584
F140	F	1.567610	0.867316	-0.221584
F141	F	0.888883	0.644616	-0.931389
F142	F	1.388883	1.144616	-0.431389
F143	F	0.373595	0.645059	-0.415358
F144	F	0.873595	1.145059	0.084642
F145	F	0.583445	0.645039	-0.415345
F146	F	1.083445	1.145039	0.084655
F147	F	0.227677	0.645077	-0.415370
F148	F	0.727677	1.145077	0.084630
H149	H	1.057551	1.090297	-0.180559
H150	H	1.557551	1.590297	0.319441
H151	H	0.899734	0.627766	-1.068472
H152	H	1.399734	1.127766	-0.568472
H153	H	0.236486	0.384105	-0.247773
H154	H	0.736486	0.884105	0.252227
H155	H	1.056843	0.383957	-1.068503
H156	H	1.556843	0.883957	-0.568503
H157	H	1.056826	0.384023	-0.940270
H158	H	1.556826	0.884023	-0.440270
F159	F	0.373556	0.367260	-0.236961
F160	F	0.873556	0.867260	0.263039
H161	H	1.056750	0.384159	-0.584498
H162	H	1.556750	0.884159	-0.084498
