data_functionalizedCrystal
_audit_creation_method	'MofGen! by Chris Wilmer'
_symmetry_space_group_name_H-M	'P1'
_symmetry_Int_Tables_number	1
_symmetry_cell_setting	triclinic
loop_
_symmetry_equiv_pos_as_xyz
  x,y,z
_cell_length_a	16.109301
_cell_length_b	12.376897
_cell_length_c	16.109301
_cell_angle_alpha	102.669145
_cell_angle_beta	96.538468
_cell_angle_gamma	77.337959
loop_
_atom_site_label
_atom_site_type_symbol
_atom_site_fract_x
_atom_site_fract_y
_atom_site_fract_z
O1	O	1.088928	0.093940	-0.092649
O2	O	0.846863	0.093957	-0.105945
O3	O	0.974547	0.093936	0.021732
O4	O	0.961244	0.093960	-0.220326
O5	O	1.002962	-0.094061	-0.006721
O6	O	0.875278	-0.094041	-0.134398
O7	O	1.117343	-0.094057	-0.121101
Zn8	Zn	1.000822	-0.123898	-0.132267
Zn9	Zn	0.963384	0.123797	-0.094779
O10	O	0.989659	-0.094037	-0.248779
C11	C	0.830095	-0.000040	-0.119633
C12	C	0.737799	-0.000034	-0.118017
N13	N	1.026378	-0.292943	-0.157851
C14	C	0.428803	-0.000047	-0.188502
C15	C	0.515522	-0.000040	-0.190026
C16	C	0.535395	-0.000040	-0.038537
C17	C	0.448676	-0.000039	-0.037012
C18	C	0.395383	-0.000048	-0.111998
C19	C	0.568821	-0.000043	-0.115047
C20	C	0.662846	-0.000036	-0.116699
C21	C	0.301352	-0.000053	-0.110346
C22	C	0.878479	-0.648004	-0.009794
C23	C	0.860578	-0.529673	0.008114
C24	C	0.902027	-0.470485	-0.033376
C25	C	0.961379	-0.529639	-0.092777
C26	C	0.979286	-0.647981	-0.110682
C27	C	1.002834	-0.470462	-0.134264
C28	C	1.062186	-0.529616	-0.193664
C29	C	1.080089	-0.647947	-0.211567
C30	C	1.038641	-0.707135	-0.170077
C31	C	0.984927	-0.352120	-0.116358
C32	C	1.085734	-0.352097	-0.217246
C33	C	1.103634	-0.470428	-0.235154
C34	C	1.134110	-0.000058	-0.107414
C35	C	1.226405	-0.000056	-0.109029
C36	C	0.988216	-0.000063	0.038481
C37	C	0.986601	-0.000064	0.130776
N38	N	0.937834	0.292842	-0.069189
C39	C	0.975990	-0.000035	-0.265527
C40	C	0.977603	-0.000026	-0.357821
C41	C	1.058607	-0.000051	0.353050
C42	C	1.057081	-0.000042	0.439772
C43	C	0.905591	-0.000036	0.419898
C44	C	0.907117	-0.000037	0.333180
C45	C	0.983627	-0.000051	0.299757
C46	C	0.980577	-0.000040	0.473198
C47	C	0.978922	-0.000030	0.567225
C48	C	0.985282	-0.000059	0.205724
H49	H	0.385413	-0.000054	-0.249560
Cl50	Cl	0.812848	-0.000027	0.266179
Cl51	Cl	1.154712	-0.722309	-0.286233
H52	H	0.421466	-0.000036	0.025290
H53	H	1.120906	-0.000060	0.325841
Cl54	Cl	0.602400	-0.000041	0.055723
Cl55	Cl	1.151345	-0.000040	0.506766
H56	H	0.936601	-0.303968	-0.067995
H57	H	0.887448	-0.374135	-0.018792
H58	H	0.843299	-0.000028	0.447122
Cl59	Cl	0.557531	-0.000035	-0.286206
H60	H	0.844744	-0.696206	0.023986
Cl61	Cl	0.785946	-0.455317	0.082763
Cl62	Cl	1.061135	-0.855900	-0.192595
H63	H	1.151960	-0.518608	-0.283520
H64	H	1.119485	-0.303906	-0.251030
