data_functionalizedCrystal
_audit_creation_method	'MofGen! by Chris Wilmer'
_symmetry_space_group_name_H-M	'P1'
_symmetry_Int_Tables_number	1
_symmetry_cell_setting	triclinic
loop_
_symmetry_equiv_pos_as_xyz
  x,y,z
_cell_length_a	21.395364
_cell_length_b	17.637651
_cell_length_c	21.395356
_cell_angle_alpha	78.758589
_cell_angle_beta	89.976411
_cell_angle_gamma	101.233403
loop_
_atom_site_label
_atom_site_type_symbol
_atom_site_fract_x
_atom_site_fract_y
_atom_site_fract_z
Zn1	Zn	0.907528	-0.314481	-0.303822
Zn2	Zn	0.886273	-0.446703	-0.177838
Zn3	Zn	0.802736	-0.314537	-0.199050
Zn4	Zn	0.781554	-0.446696	-0.282579
O5	O	0.844523	-0.380604	-0.240823
O6	O	0.992390	-0.332000	-0.287123
O7	O	0.875161	-0.429197	-0.092970
O8	O	0.834396	-0.203885	-0.230716
O9	O	0.976774	-0.429143	-0.194563
O10	O	0.911387	-0.203844	-0.307692
O11	O	0.813787	-0.332095	-0.108554
O12	O	0.712245	-0.332089	-0.210118
O13	O	0.798296	-0.429131	-0.373080
O14	O	0.696683	-0.429185	-0.271486
O15	O	0.890848	-0.331993	-0.388687
O16	O	0.854622	-0.557346	-0.173965
O17	O	0.777686	-0.557341	-0.250918
C18	C	0.681729	-0.380643	-0.240799
C19	C	0.612082	-0.380678	-0.240800
C20	C	0.587509	-0.330179	-0.289045
C21	C	0.522077	-0.330158	-0.289051
C22	C	0.481218	-0.380650	-0.240816
C23	C	0.505798	-0.431153	-0.192563
C24	C	0.571230	-0.431167	-0.192555
C25	C	0.366099	-0.451856	-0.224358
C26	C	0.300668	-0.451843	-0.224370
C27	C	0.279404	-0.380607	-0.240837
C28	C	0.323580	-0.309381	-0.257306
C29	C	0.389012	-0.309395	-0.257298
C30	C	0.410267	-0.380640	-0.240819
C31	C	0.183883	-0.330080	-0.289091
C32	C	0.118450	-0.330058	-0.289093
C33	C	0.102172	-0.431061	-0.192607
C34	C	0.167605	-0.431076	-0.192603
C35	C	0.208456	-0.380587	-0.240849
C36	C	0.811566	-0.586033	-0.207848
C37	C	0.797524	-0.673916	-0.193762
C38	C	0.951603	-0.962551	-0.348028
C39	C	0.938389	-1.045131	-0.334781
C40	C	0.858272	-1.045281	-0.254549
C41	C	0.871482	-0.962699	-0.267787
C42	C	0.918147	-0.921341	-0.314527
C43	C	0.838026	-0.921489	-0.234286
C44	C	0.851233	-0.838915	-0.247525
C45	C	0.897895	-0.797551	-0.294265
C46	C	0.931354	-0.838767	-0.327766
C47	C	0.791358	-0.962849	-0.187549
C48	C	0.757902	-0.921639	-0.154048
C49	C	0.771111	-0.839064	-0.167284
C50	C	0.817774	-0.797700	-0.214024
C51	C	0.737652	-0.797848	-0.133783
C52	C	0.750859	-0.715274	-0.147022
C53	C	0.830980	-0.715126	-0.227263
C54	C	1.007952	-0.380566	-0.240847
C55	C	1.077596	-0.380550	-0.240857
C56	C	0.844580	-0.380555	-0.404254
C57	C	0.844604	-0.380534	-0.473898
C58	C	0.877625	-0.174374	-0.273940
C59	C	0.891732	-0.086491	-0.288052
C60	C	0.812658	-0.329968	-0.514717
C61	C	0.812658	-0.329953	-0.580155
C62	C	0.844617	-0.380497	-0.604773
C63	C	0.876565	-0.431073	-0.563944
C64	C	0.876558	-0.431092	-0.498507
C65	C	0.900077	-0.386694	-0.707465
C66	C	0.900086	-0.386670	-0.772902
C67	C	0.844636	-0.380443	-0.806602
C68	C	0.789179	-0.374224	-0.774860
C69	C	0.789172	-0.374243	-0.709423
C70	C	0.844627	-0.380482	-0.675728
C71	C	0.812687	-0.329858	-0.918377
C72	C	0.812686	-0.329849	-0.983815
C73	C	0.876598	-0.430965	-0.967604
C74	C	0.876593	-0.430978	-0.902166
C75	C	0.844640	-0.380421	-0.877557
C76	C	0.844511	-0.380596	-0.078036
C77	C	0.844644	-0.380394	-0.008428
H78	H	0.424977	-0.251400	-0.270705
O79	O	0.091943	-0.275583	-0.341127
H80	H	0.102323	-0.289236	-0.388092
H81	H	0.868985	-0.681450	-0.265319
O82	O	0.911025	-0.485630	-0.454483
H83	H	0.876524	-0.525877	-0.418198
O84	O	0.912147	-0.708488	-0.308542
H85	H	0.868360	-0.686754	-0.324640
O86	O	0.778190	-0.275442	-0.488178
H87	H	0.783555	-0.283944	-0.435818
O88	O	0.778230	-0.275301	-1.027843
H89	H	0.740666	-0.310682	-1.051956
O90	O	0.389020	-0.528701	-0.206589
H91	H	0.419014	-0.527386	-0.164349
H92	H	0.969359	-0.805092	-0.365823
H93	H	0.786646	-0.288772	-0.613397
O94	O	0.959898	-0.393371	-0.807138
H95	H	0.998451	-0.397718	-0.772711
H96	H	0.723615	-0.681721	-0.119742
H97	H	0.945236	-0.391758	-0.680033
O98	O	0.058113	-0.485523	-0.140580
H99	H	0.008484	-0.477033	-0.148691
O100	O	0.300657	-0.232539	-0.275061
H101	H	0.270646	-0.233854	-0.317290
H102	H	0.989608	-0.928876	-0.386084
O103	O	0.911071	-0.485482	-0.994144
H104	H	0.905712	-0.476971	-1.046506
H105	H	0.965627	-1.078681	-0.362074
H106	H	0.820276	-1.078966	-0.216494
H107	H	0.744028	-0.369149	-0.802298
H108	H	0.719905	-0.955324	-0.115994
H109	H	0.217148	-0.288964	-0.328372
O110	O	0.495569	-0.275688	-0.341093
H111	H	0.472224	-0.235401	-0.319574
H112	H	0.699653	-0.831534	-0.095731
H113	H	0.187611	-0.472201	-0.153319
H114	H	0.620767	-0.289066	-0.328330
H115	H	0.264705	-0.509840	-0.210964
O116	O	0.911066	-0.485501	-0.858136
H117	H	0.933298	-0.520638	-0.886246
O118	O	0.911039	-0.485587	-0.590491
H119	H	0.905683	-0.477073	-0.642853
H120	H	0.780601	-1.030086	-0.176777
O121	O	0.729366	-0.367530	-0.675185
H122	H	0.690806	-0.363197	-0.709607
H123	H	0.472527	-0.472264	-0.153290
H124	H	0.786668	-0.288692	-0.898339
O125	O	0.597740	-0.485638	-0.140519
H126	H	0.558338	-0.520748	-0.106978
