data_functionalizedCrystal
_audit_creation_method	'MofGen! by Chris Wilmer'
_symmetry_space_group_name_H-M	'P1'
_symmetry_Int_Tables_number	1
_symmetry_cell_setting	triclinic
loop_
_symmetry_equiv_pos_as_xyz
  x,y,z
_cell_length_a	18.101390
_cell_length_b	10.686220
_cell_length_c	18.101280
_cell_angle_alpha	85.492154
_cell_angle_beta	90.107706
_cell_angle_gamma	85.648180
loop_
_atom_site_label
_atom_site_type_symbol
_atom_site_fract_x
_atom_site_fract_y
_atom_site_fract_z
Zn1	Zn	-0.332529	-1.928340	-0.207874
Zn2	Zn	-0.209017	-1.927772	-0.331758
Zn3	Zn	-0.218215	-1.717300	-0.217422
Zn4	Zn	-0.342326	-1.716827	-0.341215
O5	O	-0.275521	-1.822560	-0.274567
O6	O	-0.308195	-2.104867	-0.216354
O7	O	-0.106606	-1.899812	-0.316629
O8	O	-0.233128	-1.745730	-0.112501
O9	O	-0.217451	-2.104449	-0.307371
O10	O	-0.317114	-1.900781	-0.105487
O11	O	-0.113364	-1.745179	-0.232627
O12	O	-0.242628	-1.540635	-0.241796
O13	O	-0.444657	-1.744925	-0.323489
O14	O	-0.333812	-1.540287	-0.332747
O15	O	-0.437459	-1.900323	-0.225524
O16	O	-0.226951	-1.899354	-0.436666
O17	O	-0.324893	-1.744374	-0.443614
C18	C	-0.290282	-1.494670	-0.289334
C19	C	-0.296614	-1.354397	-0.295670
C20	C	-0.276001	-1.821785	-0.467015
C21	C	-0.276226	-1.821569	-0.549339
C22	C	-0.468680	-1.822635	-0.274496
C23	C	-0.550993	-1.822667	-0.274466
C24	C	-0.850080	-1.822735	-0.274416
C25	C	-0.814213	-1.920828	-0.212967
C26	C	-0.728607	-1.920523	-0.212769
C27	C	-0.701699	-1.822702	-0.274441
C28	C	-0.738711	-1.689820	-0.259228
C29	C	-0.824329	-1.690407	-0.258774
C30	C	-0.817169	-1.856354	-0.351279
C31	C	-0.731387	-1.859273	-0.350748
C32	C	-0.617841	-1.822676	-0.274456
C33	C	-0.933939	-1.822753	-0.274400
C34	C	-0.083111	-1.822558	-0.274581
C35	C	-0.000787	-1.822771	-0.274392
C36	C	-0.260704	-2.151730	-0.259743
C37	C	-0.254390	-2.292002	-0.253425
C38	C	-0.275054	-1.823372	-0.081366
C39	C	-0.274855	-1.823718	0.000964
C40	C	-0.275315	-1.822997	0.151638
C41	C	-0.328248	-1.920402	0.187398
C42	C	-0.328747	-1.919706	0.272982
C43	C	-0.275767	-1.822290	0.299987
C44	C	-0.302593	-1.689347	0.262409
C45	C	-0.302721	-1.690320	0.176809
C46	C	-0.195561	-1.857221	0.185213
C47	C	-0.196108	-1.859746	0.270984
C48	C	-0.276022	-1.821882	0.383827
C49	C	-0.275062	-1.823396	0.067798
H50	H	-0.703190	-2.019067	-0.221605
C51	C	-0.408593	-1.888798	0.298831
C52	C	-0.446261	-1.983650	0.351964
C53	C	-0.526109	-1.952742	0.377818
C54	C	-0.568290	-1.826983	0.350540
C55	C	-0.530623	-1.732123	0.297405
C56	C	-0.450775	-1.763031	0.271550
H57	H	-0.415035	-2.076751	0.372159
H58	H	-0.553993	-2.022964	0.417152
H59	H	-0.627399	-1.804103	0.369679
H60	H	-0.561848	-1.639021	0.277209
H61	H	-0.422891	-1.692808	0.232216
C62	C	-0.381723	-1.651167	0.147577
C63	C	-0.419079	-1.521273	0.162296
C64	C	-0.498083	-1.482122	0.133070
C65	C	-0.539730	-1.572865	0.089123
C66	C	-0.502373	-1.702768	0.074401
C67	C	-0.423370	-1.741919	0.103628
H68	H	-0.388250	-1.454091	0.194830
H69	H	-0.525736	-1.385959	0.143968
H70	H	-0.598213	-1.543884	0.067488
H71	H	-0.533203	-1.769950	0.041868
H72	H	-0.395716	-1.838082	0.092730
C73	C	-0.199009	-1.364800	-0.198013
C74	C	-0.115631	-1.346717	-0.204762
C75	C	-0.060249	-1.419523	-0.149349
C76	C	-0.088246	-1.510414	-0.087186
C77	C	-0.171628	-1.528501	-0.080434
C78	C	-0.227010	-1.455694	-0.135847
H79	H	-0.094902	-1.279431	-0.250781
H80	H	0.001476	-1.406133	-0.154348
H81	H	-0.047249	-1.564310	-0.046165
H82	H	-0.192357	-1.595787	-0.034415
H83	H	-0.288735	-1.469085	-0.130848
H84	H	-0.156062	-1.786262	0.161735
C85	C	-0.351997	-1.281594	-0.351085
C86	C	-0.358468	-1.136621	-0.357564
C87	C	-0.413850	-1.063818	-0.412978
C88	C	-0.462762	-1.135989	-0.461914
C89	C	-0.456294	-1.280970	-0.455436
C90	C	-0.400911	-1.353773	-0.400022
H91	H	-0.322258	-1.083189	-0.321337
H92	H	-0.418638	-0.956493	-0.417772
H93	H	-0.503759	-1.082096	-0.502935
H94	H	-0.492503	-1.334402	-0.491663
H95	H	-0.396123	-1.461098	-0.395228
H96	H	-0.311298	-2.018282	0.298803
C97	C	-0.852890	-1.651873	-0.183112
C98	C	-0.896806	-1.742837	-0.133321
C99	C	-0.925363	-1.704306	-0.057658
C100	C	-0.910004	-1.574809	-0.031784
C101	C	-0.866085	-1.483836	-0.081576
C102	C	-0.837529	-1.522368	-0.157240
H103	H	-0.908178	-1.838706	-0.152474
H104	H	-0.957874	-1.771650	-0.020799
H105	H	-0.931143	-1.546285	0.024227
H106	H	-0.854713	-1.387968	-0.062424
H107	H	-0.805017	-1.455024	-0.194099
H108	H	-0.310813	-2.019486	0.171631
H109	H	-0.713067	-1.793002	-0.398508
H110	H	-0.721815	-1.614760	-0.302869
H111	H	-0.386887	-1.897998	0.164532
C112	C	-0.253326	-1.588893	0.144165
C113	C	-0.213892	-1.507266	0.195999
C114	C	-0.164500	-1.405840	0.163359
C115	C	-0.154541	-1.386040	0.078884
C116	C	-0.193976	-1.467669	0.027044
C117	C	-0.243369	-1.569096	0.059685
H118	H	-0.221263	-1.521921	0.258537
H119	H	-0.135307	-1.345412	0.201735
H120	H	-0.117978	-1.310958	0.054722
H121	H	-0.186606	-1.453014	-0.035494
H122	H	-0.272561	-1.629523	0.021309
H123	H	-0.265611	-1.614579	0.279354
H124	H	-0.840745	-1.784911	-0.396991
H125	H	-0.708995	-1.898290	-0.155707
H126	H	-0.830390	-2.019694	-0.221624
H127	H	-0.175977	-1.957599	0.296077
C128	C	-0.163869	-1.986245	0.162368
C129	C	-0.210011	-2.062182	0.112922
C130	C	-0.178329	-2.191211	0.090076
C131	C	-0.100506	-2.244303	0.116676
C132	C	-0.054360	-2.168366	0.166124
C133	C	-0.086041	-2.039336	0.188970
H134	H	-0.267624	-2.022881	0.093229
H135	H	-0.212490	-2.247425	0.053471
H136	H	-0.077054	-2.339819	0.099764
H137	H	0.003253	-2.207667	0.185817
H138	H	-0.051881	-1.983123	0.225575
H139	H	-0.360591	-1.659656	0.282170
C140	C	-0.139539	-1.770657	0.295869
C141	C	-0.126002	-1.759247	0.379002
C142	C	-0.069437	-1.670141	0.403885
C143	C	-0.026408	-1.592445	0.345635
C144	C	-0.039944	-1.603853	0.262496
C145	C	-0.096509	-1.692958	0.237613
H146	H	-0.157855	-1.816764	0.422127
H147	H	-0.059417	-1.661697	0.465430
H148	H	0.015465	-1.526484	0.364055
H149	H	-0.008091	-1.546336	0.219371
H150	H	-0.106529	-1.701403	0.176068
C151	C	-0.844487	-1.891187	-0.136311
C152	C	-0.833065	-1.763116	-0.106254
C153	C	-0.863361	-1.733475	-0.029606
C154	C	-0.905079	-1.831905	0.016985
C155	C	-0.916503	-1.959985	-0.013071
C156	C	-0.886207	-1.989626	-0.089719
H157	H	-0.802182	-1.690244	-0.140744
H158	H	-0.854904	-1.638661	-0.007356
H159	H	-0.927505	-1.809963	0.073725
H160	H	-0.947386	-2.032857	0.021419
H161	H	-0.894664	-2.084440	-0.111968
H162	H	-0.718444	-1.660767	-0.203880
H163	H	-0.834570	-1.951539	-0.366295
C164	C	-0.857065	-1.588388	-0.317064
C165	C	-0.836254	-1.594519	-0.399219
C166	C	-0.868996	-1.492523	-0.457515
C167	C	-0.922550	-1.384396	-0.433656
C168	C	-0.943365	-1.378261	-0.351497
C169	C	-0.910622	-1.480257	-0.293201
H170	H	-0.796607	-1.674564	-0.416885
H171	H	-0.853588	-1.497065	-0.518335
H172	H	-0.946788	-1.308893	-0.476811
H173	H	-0.983011	-1.298216	-0.333832
H174	H	-0.926031	-1.475715	-0.232382
C175	C	-0.698056	-1.991383	-0.366395
C176	C	-0.644133	-2.065745	-0.310171
C177	C	-0.610800	-2.197858	-0.325814
C178	C	-0.631390	-2.255610	-0.397681
C179	C	-0.685316	-2.181248	-0.453910
C180	C	-0.718649	-2.049134	-0.438267
H181	H	-0.628888	-2.022994	-0.256966
H182	H	-0.570881	-2.252905	-0.284189
H183	H	-0.606715	-2.353408	-0.409261
H184	H	-0.700560	-2.223999	-0.507115
H185	H	-0.758568	-1.994087	-0.479892
