data_functionalizedCrystal
_audit_creation_method	'MofGen! by Chris Wilmer'
_symmetry_space_group_name_H-M	'P1'
_symmetry_Int_Tables_number	1
_symmetry_cell_setting	triclinic
loop_
_symmetry_equiv_pos_as_xyz
  x,y,z
_cell_length_a	12.645330
_cell_length_b	12.759401
_cell_length_c	12.759393
_cell_angle_alpha	89.979899
_cell_angle_beta	90.030312
_cell_angle_gamma	89.989407
loop_
_atom_site_label
_atom_site_type_symbol
_atom_site_fract_x
_atom_site_fract_y
_atom_site_fract_z
Zn1	Zn	-0.422033	-1.606278	0.594015
Zn2	Zn	0.077967	-1.106278	1.094015
Zn3	Zn	-0.599335	-1.606178	0.418337
Zn4	Zn	-0.099335	-1.106178	0.918337
Zn5	Zn	-0.422081	-1.430579	0.418351
Zn6	Zn	0.077919	-0.930579	0.918351
Zn7	Zn	-0.599249	-1.430576	0.593976
Zn8	Zn	-0.099249	-0.930576	1.093976
O9	O	-0.510675	-1.518403	0.506170
O10	O	-0.010675	-1.018403	1.006170
O11	O	-0.445568	-1.753286	0.570722
O12	O	0.054432	-1.253286	1.070722
O13	O	-0.575878	-1.582843	0.271318
O14	O	-0.075878	-1.082843	0.771318
O15	O	-0.273727	-1.453929	0.441676
O16	O	0.226273	-0.953929	0.941676
O17	O	-0.575832	-1.753212	0.441652
O18	O	-0.075832	-1.253212	0.941652
O19	O	-0.273692	-1.583014	0.570735
O20	O	0.226308	-1.083014	1.070735
O21	O	-0.445650	-1.453831	0.271328
O22	O	0.054350	-0.953831	0.771328
O23	O	-0.445567	-1.283557	0.441638
O24	O	0.054433	-0.783557	0.941638
O25	O	-0.575685	-1.453924	0.741002
O26	O	-0.075685	-0.953924	1.241002
O27	O	-0.575731	-1.283555	0.570668
O28	O	-0.075731	-0.783555	1.070668
O29	O	-0.445485	-1.583012	0.741031
O30	O	0.054515	-1.083012	1.241031
O31	O	-0.747671	-1.582841	0.441614
O32	O	-0.247671	-1.082841	0.941614
O33	O	-0.747608	-1.453827	0.570655
O34	O	-0.247608	-0.953827	1.070655
C35	C	-0.510646	-1.245435	0.506151
C36	C	-0.010646	-0.745435	1.006151
C37	C	-0.510659	-1.128659	0.506168
C38	C	-0.010659	-0.628659	1.006168
C39	C	-0.442951	-1.073836	0.573477
C40	C	0.057049	-0.573836	1.073477
C41	C	-0.442958	-0.964112	0.573482
C42	C	0.057042	-0.464112	1.073482
C43	C	-0.578389	-0.964043	0.438866
C44	C	-0.078389	-0.464043	0.938866
C45	C	-0.578376	-1.073765	0.438856
C46	C	-0.078376	-0.573765	0.938856
C47	C	-0.786104	-1.518351	0.506152
C48	C	-0.286104	-1.018351	1.006152
C49	C	-0.903934	-1.518426	0.506179
C50	C	-0.403934	-1.018426	1.006179
C51	C	-0.948811	-1.599681	0.425069
C52	C	-0.448811	-1.099681	0.925069
C53	C	-1.071372	-1.599495	0.424780
C54	C	-0.571372	-1.099495	0.924780
C55	C	-1.071940	-1.407708	0.476431
C56	C	-0.571940	-0.907708	0.976431
C57	C	-0.949342	-1.408125	0.475813
C58	C	-0.449342	-0.908125	0.975813
C59	C	-0.949006	-1.547030	0.617301
C60	C	-0.449006	-1.047030	1.117301
C61	C	-1.071611	-1.549526	0.616737
C62	C	-0.571611	-1.049526	1.116737
C63	C	-0.234169	-1.518483	0.506211
C64	C	0.265831	-1.018483	1.006211
C65	C	-0.116339	-1.518517	0.506229
C66	C	0.383661	-1.018517	1.006229
C67	C	-0.510570	-1.518479	0.780203
C68	C	-0.010570	-1.018479	1.280203
C69	C	-0.510526	-1.518512	0.896980
C70	C	-0.010526	-1.018512	1.396980
C71	C	-0.510695	-0.792436	0.506186
C72	C	-0.010695	-0.292436	1.006186
C73	C	-0.510678	-0.909213	0.506183
C74	C	-0.010678	-0.409213	1.006183
C75	C	-0.510702	-1.518387	0.233203
C76	C	-0.010702	-1.018387	0.733203
C77	C	-0.510448	-1.518558	0.116426
C78	C	-0.010448	-1.018558	0.616426
C79	C	-0.442680	-1.585754	1.061590
C80	C	0.057320	-1.085754	1.561590
C81	C	-0.442721	-1.585734	0.951866
C82	C	0.057279	-1.085734	1.451866
C83	C	-0.578301	-1.451313	0.951824
C84	C	-0.078301	-0.951313	1.451824
C85	C	-0.578265	-1.451339	1.061546
C86	C	-0.078265	-0.951339	1.561546
H87	H	-0.387822	-0.919480	0.628291
H88	H	0.112178	-0.419480	1.128291
H89	H	-0.918081	-1.580958	0.343203
H90	H	-0.418081	-1.080958	0.843203
Cl91	Cl	-0.663518	-0.895027	0.354254
Cl92	Cl	-0.163518	-0.395027	0.854254
Cl93	Cl	-1.116790	-1.570263	0.297682
Cl94	Cl	-0.616790	-1.070263	0.797682
H95	H	-0.387458	-1.640488	1.106270
H96	H	0.112542	-1.140488	1.606270
Cl97	Cl	-0.663545	-1.366805	0.882825
Cl98	Cl	-0.163545	-0.866805	1.382825
Cl99	Cl	-1.117719	-1.726335	0.453533
Cl100	Cl	-0.617719	-1.226335	0.953533
Cl101	Cl	-0.903506	-1.311445	0.563072
Cl102	Cl	-0.403506	-0.811445	1.063072
Cl103	Cl	-0.903192	-1.726887	0.453455
Cl104	Cl	-0.403192	-1.226887	0.953455
H105	H	-0.633513	-1.118403	0.384039
H106	H	-0.133513	-0.618403	0.884039
H107	H	-0.920833	-1.383923	0.394594
H108	H	-0.420833	-0.883923	0.894594
H109	H	-0.633456	-1.396619	1.106195
H110	H	-0.133456	-0.896619	1.606195
H111	H	-0.387808	-1.118527	0.628283
H112	H	0.112192	-0.618527	1.128283
Cl113	Cl	-1.116910	-1.311723	0.564855
Cl114	Cl	-0.616910	-0.811723	1.064855
H115	H	-1.102214	-1.494711	0.680400
H116	H	-0.602214	-0.994711	1.180400
H117	H	-0.919976	-1.487856	0.677731
H118	H	-0.419976	-0.987856	1.177731
Cl119	Cl	-1.119471	-1.369732	0.352432
Cl120	Cl	-0.619471	-0.869732	0.852432
Cl121	Cl	-0.901172	-1.669630	0.659214
Cl122	Cl	-0.401172	-1.169630	1.159214
H123	H	-1.100622	-1.631072	0.639211
H124	H	-0.600622	-1.131072	1.139211
H125	H	-0.387538	-1.640453	0.907223
H126	H	0.112462	-1.140453	1.407223
