data_functionalizedCrystal
_audit_creation_method	'MofGen! by Chris Wilmer'
_symmetry_space_group_name_H-M	'P1'
_symmetry_Int_Tables_number	1
_symmetry_cell_setting	triclinic
loop_
_symmetry_equiv_pos_as_xyz
  x,y,z
_cell_length_a	10.723024
_cell_length_b	17.699077
_cell_length_c	16.176319
_cell_angle_alpha	89.993140
_cell_angle_beta	89.994397
_cell_angle_gamma	83.874223
loop_
_atom_site_label
_atom_site_type_symbol
_atom_site_fract_x
_atom_site_fract_y
_atom_site_fract_z
O1	O	0.157762	1.005077	-0.068733
O2	O	0.178299	0.784827	-0.068737
O3	O	-0.013633	0.900032	-0.068732
O4	O	0.349694	0.889872	-0.068739
O5	O	-0.013645	0.900016	0.068761
O6	O	0.178287	0.784811	0.068756
O7	O	0.157750	1.005061	0.068760
Cu8	Cu	0.168017	0.894934	0.081312
Cu9	Cu	0.168032	0.894953	-0.081290
O10	O	0.349682	0.889856	0.068755
C11	C	0.177559	0.756618	0.000009
C12	C	0.175355	0.672585	0.000007
C13	C	0.174310	0.633103	0.074956
C14	C	0.172219	0.554147	0.074957
C15	C	0.171182	0.514675	0.000008
C16	C	0.172224	0.554163	-0.074946
C17	C	0.174305	0.633118	-0.074946
C18	C	0.163827	0.235747	-0.074947
C19	C	0.161748	0.156786	-0.074942
C20	C	0.161740	0.156776	0.074955
C21	C	0.163822	0.235731	0.074955
C22	C	0.164856	0.275213	0.000002
C23	C	0.167121	0.360826	0.000002
C24	C	0.168927	0.429062	0.000008
C25	C	-0.060126	0.899285	0.000013
C26	C	-0.198642	0.897073	0.000010
C27	C	-0.274732	0.961535	0.000010
C28	C	-0.417896	0.959250	0.000007
C29	C	0.396175	0.890603	0.000007
C30	C	0.534691	0.892815	0.000005
C31	C	0.158490	1.033270	0.000012
C32	C	0.160694	1.117303	0.000008
N33	N	0.168006	0.894927	0.195677
N34	N	0.168033	0.894967	-0.195655
C35	C	0.083053	0.945955	0.238944
C36	C	0.083052	0.945959	0.325491
C37	C	0.168011	0.894937	0.368770
C38	C	0.252968	0.843903	0.325497
C39	C	0.252962	0.843896	0.238952
C40	C	0.252991	0.843929	0.674526
C41	C	0.252993	0.843942	0.761077
C42	C	0.083081	0.945992	0.761065
C43	C	0.083075	0.945985	0.674519
C44	C	0.168027	0.894949	0.631254
C45	C	0.168026	0.894944	0.537410
C46	C	0.168019	0.894945	0.462612
H47	H	0.160892	0.124620	0.135986
H48	H	0.013904	0.987546	0.796300
H49	H	0.013876	0.987510	0.360718
O50	O	0.164769	0.273960	0.147834
C51	C	0.163428	0.222178	0.213988
H52	H	0.122459	0.168827	0.192017
H53	H	0.103465	0.249480	0.266407
H54	H	0.263271	0.206355	0.237034
O55	O	0.335540	0.794433	0.196829
C56	C	0.412455	0.835355	0.146764
H57	H	0.362634	0.894320	0.133790
H58	H	0.432254	0.803863	0.085911
H59	H	0.504672	0.840974	0.180106
H60	H	0.175164	0.665234	0.135988
O61	O	-0.495708	1.025161	0.000043
C62	C	-0.423817	1.087375	0.000022
H63	H	-0.326598	1.068736	0.026054
H64	H	-0.472071	1.134909	0.039939
H65	H	-0.414649	1.108788	-0.065940
H66	H	0.322178	0.802391	0.796314
H67	H	-0.239487	0.840192	0.000004
O68	O	0.175105	0.671523	-0.147730
C69	C	0.068299	0.725222	-0.152205
H70	H	-0.007836	0.707027	-0.109671
H71	H	0.032067	0.728814	-0.218494
H72	H	0.094297	0.783247	-0.132071
O73	O	-0.387454	0.826922	-0.000106
C74	C	-0.409953	0.784511	-0.071329
H75	H	-0.508758	0.802515	-0.095071
H76	H	-0.400477	0.721431	-0.055316
H77	H	-0.338817	0.795292	-0.121189
H78	H	0.322138	0.802357	0.360740
O79	O	0.335637	0.794331	0.632634
C80	C	0.410603	0.749292	0.689394
H81	H	0.411948	0.780337	0.751077
H82	H	0.510279	0.738256	0.664384
H83	H	0.370204	0.692863	0.698620
H84	H	0.013876	0.987506	0.203712
H85	H	0.171347	0.522005	0.135987
O86	O	-0.225867	1.029350	-0.000098
C87	C	-0.151480	1.034629	-0.071317
H88	H	-0.119010	0.975128	-0.095059
H89	H	-0.066265	1.065163	-0.055301
H90	H	-0.209010	1.067863	-0.121180
O91	O	0.160682	0.118563	-0.147825
C92	C	0.162072	0.170338	-0.213982
H93	H	0.124062	0.229549	-0.192012
H94	H	0.100913	0.152019	-0.266395
H95	H	0.262359	0.171314	-0.237035
O96	O	0.000284	0.995469	0.632584
C97	C	-0.123142	0.982470	0.653861
H98	H	-0.123496	0.921853	0.677625
H99	H	-0.185913	0.990859	0.597009
H100	H	-0.159822	1.024183	0.704151
O101	O	0.165014	0.274160	-0.147704
C102	C	0.274259	0.311800	-0.152205
H103	H	0.310576	0.320959	-0.087132
H104	H	0.251430	0.369123	-0.183936
H105	H	0.349107	0.275757	-0.189186
H106	H	0.171371	0.522019	-0.135970
