data_functionalizedCrystal
_audit_creation_method	'MofGen! by Chris Wilmer'
_symmetry_space_group_name_H-M	'P1'
_symmetry_Int_Tables_number	1
_symmetry_cell_setting	triclinic
loop_
_symmetry_equiv_pos_as_xyz
  x,y,z
_cell_length_a	9.065215
_cell_length_b	10.868271
_cell_length_c	9.065215
_cell_angle_alpha	90.000445
_cell_angle_beta	85.014697
_cell_angle_gamma	90.003841
loop_
_atom_site_label
_atom_site_type_symbol
_atom_site_fract_x
_atom_site_fract_y
_atom_site_fract_z
O1	O	1.960402	0.102305	0.216330
O2	O	1.531117	0.102311	0.234080
O3	O	1.754635	0.102303	0.010562
O4	O	1.736884	0.102313	0.439848
O5	O	1.754614	-0.102342	0.010569
O6	O	1.531096	-0.102334	0.234088
O7	O	1.960382	-0.102339	0.216337
Zn8	Zn	1.745736	-0.134828	0.225213
Zn9	Zn	1.745763	0.134800	0.225204
O10	O	1.736863	-0.102331	0.439855
C11	C	1.476120	-0.000011	0.232379
C12	C	1.312277	-0.000009	0.227281
N13	N	1.745728	-0.318843	0.225219
C14	C	1.745739	-0.430180	0.225219
C15	C	1.745759	-0.569858	0.225206
C16	C	2.015379	-0.000015	0.218038
C17	C	2.179222	-0.000009	0.223136
C18	C	1.752920	-0.000018	-0.044421
C19	C	1.747822	-0.000015	-0.208264
N20	N	1.745782	0.318814	0.225187
C21	C	1.738579	-0.000008	0.494838
C22	C	1.743677	-0.000003	0.658681
