data_functionalizedCrystal
_audit_creation_method	'MofGen! by Chris Wilmer'
_symmetry_space_group_name_H-M	'P1'
_symmetry_Int_Tables_number	1
_symmetry_cell_setting	triclinic
loop_
_symmetry_equiv_pos_as_xyz
  x,y,z
_cell_length_a	6.817900
_cell_length_b	15.866870
_cell_length_c	14.858572
_cell_angle_alpha	112.093349
_cell_angle_beta	104.524003
_cell_angle_gamma	102.655915
loop_
_atom_site_label
_atom_site_type_symbol
_atom_site_fract_x
_atom_site_fract_y
_atom_site_fract_z
V1	V	-4.065742	-0.133334	-0.335668
O2	O	-4.024422	0.005786	-0.282457
O3	O	-4.044008	-0.263781	-0.378402
O4	O	-4.022016	-0.131555	-0.461520
O5	O	-4.046567	-0.127355	-0.198764
V6	V	-4.545308	-0.116661	-0.313823
O7	O	-4.335678	-0.169906	-0.383586
O8	O	-4.725569	-0.080089	-0.265904
O9	O	-4.343835	0.013786	-0.271088
O10	O	-4.704024	-0.255781	-0.367033
O11	O	-4.681880	-0.122640	-0.450726
O12	O	-4.365828	-0.118440	-0.187971
C13	C	-3.895345	-0.295573	-0.384726
C14	C	-3.958894	-0.402217	-0.420506
C15	C	-3.935468	-0.683610	-0.088619
C16	C	-3.995192	-0.783823	-0.122270
C17	C	-4.088163	-0.811550	-0.302100
C18	C	-4.028436	-0.711337	-0.268463
C19	C	-3.952093	-0.647375	-0.161721
C20	C	-4.045061	-0.675101	-0.341565
C21	C	-3.985349	-0.574898	-0.307931
C22	C	-3.909012	-0.510929	-0.201194
C23	C	-3.892381	-0.547171	-0.128087
C24	C	-4.121418	-0.739066	-0.448307
C25	C	-4.138044	-0.702830	-0.521409
C26	C	-4.078317	-0.602624	-0.487775
C27	C	-4.001980	-0.538656	-0.381038
C28	C	-4.094948	-0.566383	-0.560882
C29	C	-4.035236	-0.466179	-0.527248
C30	C	-3.942268	-0.438452	-0.347404
C31	C	-3.867290	-0.126905	-0.490749
C32	C	-3.913000	-0.126314	-0.593930
C33	C	-4.080298	-0.124154	-0.971758
C34	C	-4.033742	-0.124755	-0.866634
C35	C	-3.996650	-0.125235	-0.782847
C36	C	-3.950091	-0.125834	-0.677716
C37	C	-4.155841	0.045573	-0.264763
C38	C	-4.071532	0.152216	-0.228990
C39	C	-4.183896	-0.123093	-0.158737
C40	C	-4.117424	-0.123679	-0.055554
H41	H	-4.150336	-0.863641	-0.389009
Br42	Br	-4.241665	-0.789644	-0.666268
Br43	Br	-3.838614	-0.351635	-0.202536
Br44	Br	-3.831813	-0.596793	0.056248
Br45	Br	-3.788727	-0.460354	0.016780
Br46	Br	-3.972622	-0.832996	-0.023047
Br47	Br	-4.202474	-0.875059	-0.493955
Br48	Br	-4.198597	-0.653200	-0.705741
Br49	Br	-4.057819	-0.416997	-0.626458
H50	H	-3.860402	-0.429338	-0.173811
