data_functionalizedCrystal
_audit_creation_method	'MofGen! by Chris Wilmer'
_symmetry_space_group_name_H-M	'P1'
_symmetry_Int_Tables_number	1
_symmetry_cell_setting	triclinic
loop_
_symmetry_equiv_pos_as_xyz
  x,y,z
_cell_length_a	19.188930
_cell_length_b	13.101039
_cell_length_c	19.188930
_cell_angle_alpha	86.654199
_cell_angle_beta	83.144779
_cell_angle_gamma	93.360061
loop_
_atom_site_label
_atom_site_type_symbol
_atom_site_fract_x
_atom_site_fract_y
_atom_site_fract_z
O1	O	0.930013	0.085556	0.083287
O2	O	1.263346	0.418890	0.416620
O3	O	1.596680	0.752223	0.749953
O4	O	0.726699	0.085488	0.095024
O5	O	1.060032	0.418821	0.428358
O6	O	1.393365	0.752154	0.761691
O7	O	0.834222	0.085504	-0.012499
O8	O	1.167555	0.418837	0.320834
O9	O	1.500889	0.752171	0.654167
O10	O	0.822489	0.085540	0.190810
O11	O	1.155823	0.418873	0.524144
O12	O	1.489156	0.752207	0.857477
O13	O	0.826507	-0.084927	-0.004772
O14	O	1.159841	0.248406	0.328561
O15	O	1.493174	0.581740	0.661895
O16	O	0.718984	-0.084943	0.102752
O17	O	1.052317	0.248390	0.436085
O18	O	1.385651	0.581723	0.769418
O19	O	0.922298	-0.084875	0.091014
O20	O	1.255632	0.248459	0.424348
O21	O	1.588965	0.581792	0.757681
Zn22	Zn	0.819416	-0.111969	0.098110
Zn23	Zn	1.152749	0.221365	0.431443
Zn24	Zn	1.486083	0.554698	0.764776
Zn25	Zn	0.829581	0.112582	0.087929
Zn26	Zn	1.162914	0.445915	0.421262
Zn27	Zn	1.496247	0.779248	0.754595
O28	O	0.814775	-0.084891	0.198538
O29	O	1.148108	0.248442	0.531871
O30	O	1.481441	0.581776	0.865204
C31	C	0.696830	0.000263	0.098508
C32	C	1.030163	0.333596	0.431842
C33	C	1.363496	0.666930	0.765175
C34	C	0.619324	0.000236	0.097369
C35	C	0.952657	0.333569	0.430702
C36	C	1.285991	0.666903	0.764035
N37	N	0.812484	-0.265218	0.105058
N38	N	1.145818	0.068115	0.438391
N39	N	1.479151	0.401448	0.771724
C40	C	0.803053	-0.474262	0.114517
C41	C	1.136386	-0.140929	0.447850
C42	C	1.469720	0.192404	0.781184
C43	C	0.845947	-0.525131	0.071518
C44	C	1.179280	-0.191798	0.404851
C45	C	1.512614	0.141535	0.738185
C46	C	0.840699	-0.641451	0.076781
C47	C	1.174033	-0.308117	0.410115
C48	C	1.507366	0.025216	0.743448
C49	C	0.808300	-0.357933	0.109255
C50	C	1.141633	-0.024599	0.442588
C51	C	1.474966	0.308734	0.775921
C52	C	0.574401	0.000263	0.160458
C53	C	0.907735	0.333597	0.493792
C54	C	1.241068	0.666930	0.827125
C55	C	0.501578	0.000274	0.159386
C56	C	0.834911	0.333608	0.492720
C57	C	1.168245	0.666941	0.826053
C58	C	0.473682	0.000279	0.095220
C59	C	0.807015	0.333612	0.428553
C60	C	1.140348	0.666945	0.761887
C61	C	0.518614	0.000246	0.032122
C62	C	0.851947	0.333579	0.365456
C63	C	1.185281	0.666912	0.698789
C64	C	0.591435	0.000224	0.033197
C65	C	0.924768	0.333558	0.366530
C66	C	1.258102	0.666891	0.699863
N67	N	0.368329	0.058316	0.043542
N68	N	0.701662	0.391650	0.376875
N69	N	1.034995	0.724983	0.710208
N70	N	0.299151	0.058339	0.042525
N71	N	0.632484	0.391672	0.375858
N72	N	0.965818	0.725005	0.709192
C73	C	0.254276	0.000341	0.091979
C74	C	0.587609	0.333674	0.425312
C75	C	0.920943	0.667007	0.758646
N76	N	0.281191	-0.057668	0.142498
N77	N	0.614524	0.275666	0.475831
N78	N	0.947857	0.608999	0.809165
N79	N	0.350375	-0.057686	0.143516
N80	N	0.683708	0.275648	0.476850
N81	N	1.017041	0.608981	0.810183
C82	C	0.394720	0.000301	0.094048
C83	C	0.728053	0.333634	0.427381
C84	C	1.061387	0.666968	0.760715
C85	C	0.130389	0.000379	0.153911
C86	C	0.463722	0.333712	0.487244
C87	C	0.797056	0.667045	0.820577
C88	C	0.057565	0.000383	0.152836
C89	C	0.390898	0.333717	0.486169
C90	C	0.724231	0.667050	0.819503
C91	C	0.074603	0.000365	0.025570
C92	C	0.407936	0.333698	0.358903
C93	C	0.741269	0.667032	0.692236
C94	C	0.147425	0.000350	0.026647
C95	C	0.480758	0.333683	0.359980
C96	C	0.814092	0.667017	0.693313
C97	C	0.175314	0.000362	0.090819
C98	C	0.508647	0.333695	0.424152
C99	C	0.841981	0.667028	0.757485
C100	C	0.952167	0.000352	0.087530
C101	C	1.285500	0.333685	0.420863
C102	C	1.618834	0.667019	0.754197
C103	C	1.029673	0.000386	0.088669
C104	C	1.363007	0.333719	0.422002
C105	C	1.696340	0.667053	0.755336
C106	C	0.829985	0.000285	-0.034646
C107	C	1.163318	0.333619	0.298687
C108	C	1.496651	0.666952	0.632020
C109	C	0.828843	0.000276	-0.112151
C110	C	1.162177	0.333609	0.221183
C111	C	1.495510	0.666943	0.554516
N112	N	0.836518	0.265831	0.080975
N113	N	1.169851	0.599164	0.414308
N114	N	1.503185	0.932498	0.747642
C115	C	0.891935	0.000293	-0.157075
C116	C	1.225268	0.333626	0.176258
C117	C	1.558602	0.666959	0.509591
C118	C	0.890864	0.000309	-0.229900
C119	C	1.224197	0.333642	0.103434
C120	C	1.557531	0.666975	0.436767
C121	C	0.826697	0.000288	-0.257795
C122	C	1.160030	0.333621	0.075538
C123	C	1.493364	0.666954	0.408871
C124	C	0.763597	0.000277	-0.212861
C125	C	1.096931	0.333610	0.120472
C126	C	1.430264	0.666944	0.453806
C127	C	0.764671	0.000271	-0.140039
C128	C	1.098004	0.333605	0.193295
C129	C	1.431337	0.666938	0.526628
N130	N	0.775024	-0.057730	-0.363170
N131	N	1.108357	0.275603	-0.029837
N132	N	1.441690	0.608937	0.303497
N133	N	0.774008	-0.057727	-0.432349
N134	N	1.107342	0.275607	-0.099015
N135	N	1.440675	0.608940	0.234318
C136	C	0.823460	0.000307	-0.477205
C137	C	1.156793	0.333641	-0.143872
C138	C	1.490126	0.666974	0.189462
N139	N	0.873975	0.058325	-0.450270
N140	N	1.207308	0.391658	-0.116937
N141	N	1.540642	0.724992	0.216397
N142	N	0.874992	0.058317	-0.381085
N143	N	1.208326	0.391650	-0.047752
N144	N	1.541659	0.724984	0.285582
C145	C	0.825526	0.000295	-0.336758
C146	C	1.158860	0.333628	-0.003425
C147	C	1.492193	0.666961	0.329908
C148	C	0.885395	0.000343	-0.601095
C149	C	1.218728	0.333676	-0.267762
C150	C	1.552061	0.667009	0.065572
C151	C	0.884321	0.000365	-0.673921
C152	C	1.217655	0.333698	-0.340587
C153	C	1.550988	0.667032	-0.007254
C154	C	0.757052	0.000323	-0.656880
C155	C	1.090386	0.333656	-0.323547
C156	C	1.423719	0.666990	0.009787
C157	C	0.758128	0.000311	-0.584056
C158	C	1.091461	0.333644	-0.250723
C159	C	1.424795	0.666978	0.082610
C160	C	0.822301	0.000316	-0.556168
C161	C	1.155634	0.333649	-0.222835
C162	C	1.488967	0.666983	0.110498
C163	C	0.819012	0.000330	0.220685
C164	C	1.152346	0.333663	0.554018
C165	C	1.485679	0.666996	0.887351
C166	C	0.820154	0.000346	0.298189
C167	C	1.153487	0.333679	0.631522
C168	C	1.486820	0.667012	0.964855
H169	H	0.886611	-0.481323	0.030753
H170	H	1.219944	-0.147990	0.364086
H171	H	1.553278	0.185344	0.697420
H172	H	0.495897	0.000263	-0.020123
H173	H	0.829230	0.333597	0.313210
H174	H	1.162563	0.666930	0.646544
O175	O	0.457865	0.000444	0.220621
O176	O	0.791198	0.333777	0.553955
O177	O	1.124531	0.667110	0.887288
C178	C	0.419271	0.088741	0.219801
C179	C	0.752604	0.422074	0.553134
C180	C	1.085938	0.755408	0.886467
H181	H	0.417104	0.118153	0.163056
H182	H	0.750437	0.451486	0.496389
H183	H	1.083771	0.784820	0.829722
H184	H	0.363551	0.068917	0.246872
H185	H	0.696884	0.402250	0.580205
H186	H	1.030218	0.735584	0.913539
H187	H	0.445948	0.150550	0.248810
H188	H	0.779282	0.483884	0.582144
H189	H	1.112615	0.817217	0.915477
O190	O	0.634980	0.000250	-0.028158
O191	O	0.968313	0.333583	0.305175
O192	O	1.301647	0.666917	0.638508
C193	C	0.594745	0.000225	-0.085024
C194	C	0.928079	0.333558	0.248309
C195	C	1.261412	0.666892	0.581642
H196	H	0.541807	0.032504	-0.068601
H197	H	0.875140	0.365837	0.264733
H198	H	1.208473	0.699171	0.598066
H199	H	0.623996	0.049695	-0.131460
H200	H	0.957330	0.383028	0.201874
H201	H	1.290663	0.716362	0.535207
H202	H	0.585899	-0.081541	-0.100997
H203	H	0.919232	0.251792	0.232337
H204	H	1.252565	0.585126	0.565670
H205	H	0.935701	0.000384	-0.710499
H206	H	1.269034	0.333717	-0.377165
H207	H	1.602367	0.667051	-0.043832
H208	H	0.944190	0.000300	-0.134374
H209	H	1.277523	0.333633	0.198959
H210	H	1.610856	0.666967	0.532293
H211	H	0.762393	-0.518066	0.155280
H212	H	1.095726	-0.184732	0.488614
H213	H	1.429059	0.148601	0.821947
O214	O	0.601407	0.000406	0.222835
O215	O	0.934741	0.333739	0.556168
O216	O	1.268074	0.667073	0.889501
C217	C	0.582461	0.088702	0.257264
C218	C	0.915794	0.422035	0.590597
C219	C	1.249127	0.755368	0.923930
H220	H	0.533356	0.118140	0.237044
H221	H	0.866689	0.451473	0.570377
H222	H	1.200022	0.784807	0.903710
H223	H	0.571260	0.068866	0.316338
H224	H	0.904594	0.402199	0.649671
H225	H	1.237927	0.735533	0.983004
H226	H	0.627443	0.150496	0.246251
H227	H	0.960777	0.483829	0.579584
H228	H	1.294110	0.817163	0.912917
O229	O	0.047399	0.000417	-0.036703
O230	O	0.380732	0.333750	0.296630
O231	O	0.714066	0.667083	0.629963
C232	C	-0.026510	0.000412	-0.024123
C233	C	0.306823	0.333746	0.309210
C234	C	0.640157	0.667079	0.642543
H235	H	-0.042307	0.032687	0.028953
H236	H	0.291026	0.366020	0.362286
H237	H	0.624360	0.699354	0.695620
H238	H	-0.046492	0.049896	-0.067412
H239	H	0.286842	0.383230	0.265921
H240	H	0.620175	0.716563	0.599255
H241	H	-0.050496	-0.081347	-0.023740
H242	H	0.282837	0.251987	0.309594
H243	H	0.616171	0.585320	0.642927
O244	O	0.157367	0.000334	0.216307
O245	O	0.490701	0.333667	0.549641
O246	O	0.824034	0.667000	0.882974
C247	C	0.102097	0.000375	0.271764
C248	C	0.435431	0.333709	0.605097
C249	C	0.768764	0.667042	0.938430
H250	H	0.051216	-0.031883	0.253806
H251	H	0.384549	0.301450	0.587140
H252	H	0.717883	0.634784	0.920473
H253	H	0.114929	-0.049104	0.318820
H254	H	0.448262	0.284229	0.652153
H255	H	0.781595	0.617562	0.985486
H256	H	0.095456	0.082144	0.287509
H257	H	0.428789	0.415477	0.620842
H258	H	0.762122	0.748810	0.954176
O259	O	0.013861	0.000548	0.214074
O260	O	0.347194	0.333882	0.547407
O261	O	0.680527	0.667215	0.880740
C262	C	-0.024738	0.088840	0.213259
C263	C	0.308595	0.422174	0.546592
C264	C	0.641928	0.755507	0.879925
H265	H	-0.026915	0.118251	0.156515
H266	H	0.306419	0.451584	0.489848
H267	H	0.639752	0.784918	0.823182
H268	H	-0.080455	0.069010	0.240337
H269	H	0.252878	0.402344	0.573671
H270	H	0.586212	0.735677	0.907004
H271	H	0.001940	0.150653	0.242264
H272	H	0.335273	0.483987	0.575598
H273	H	0.668607	0.817320	0.908931
H274	H	0.184003	0.000333	-0.024728
H275	H	0.517336	0.333667	0.308605
H276	H	0.850669	0.667000	0.641938
H277	H	0.706752	0.000292	-0.547477
H278	H	1.040085	0.333625	-0.214144
H279	H	1.373418	0.666958	0.119190
H280	H	0.942243	0.000326	-0.266485
H281	H	1.275576	0.333659	0.066849
H282	H	1.608909	0.666993	0.400182
H283	H	0.711352	0.000262	-0.235579
H284	H	1.044686	0.333596	0.097755
H285	H	1.378019	0.666929	0.431088
H286	H	0.713292	0.000258	-0.103460
H287	H	1.046626	0.333591	0.229873
H288	H	1.379959	0.666924	0.563206
O289	O	0.947793	0.000411	-0.574118
O290	O	1.281126	0.333744	-0.240785
O291	O	1.614459	0.667078	0.092549
C292	C	1.003251	0.000418	-0.629390
C293	C	1.336584	0.333751	-0.296057
C294	C	1.669918	0.667085	0.037277
H295	H	0.985290	0.032680	-0.680261
H296	H	1.318623	0.366013	-0.346928
H297	H	1.651956	0.699346	-0.013594
H298	H	1.050301	0.049919	-0.616544
H299	H	1.383635	0.383252	-0.283210
H300	H	1.716968	0.716586	0.050123
H301	H	1.019008	-0.081336	-0.636059
H302	H	1.352341	0.251997	-0.302726
H303	H	1.685675	0.585331	0.030608
H304	H	0.704806	0.000311	-0.679592
H305	H	1.038140	0.333644	-0.346259
H306	H	1.371473	0.666978	-0.012925
