data_functionalizedCrystal
_audit_creation_method	'MofGen! by Chris Wilmer'
_symmetry_space_group_name_H-M	'P1'
_symmetry_Int_Tables_number	1
_symmetry_cell_setting	triclinic
loop_
_symmetry_equiv_pos_as_xyz
  x,y,z
_cell_length_a	16.120530
_cell_length_b	18.050589
_cell_length_c	16.120256
_cell_angle_alpha	92.877403
_cell_angle_beta	90.128265
_cell_angle_gamma	87.123928
loop_
_atom_site_label
_atom_site_type_symbol
_atom_site_fract_x
_atom_site_fract_y
_atom_site_fract_z
Zn1	Zn	1.247404	-0.376262	-0.534589
Zn2	Zn	1.497404	-0.126262	-0.284589
Zn3	Zn	1.747404	0.123738	-0.034589
Zn4	Zn	1.997404	0.373738	0.215411
Zn5	Zn	1.254344	-0.494483	-0.395538
Zn6	Zn	1.504344	-0.244483	-0.145538
Zn7	Zn	1.754344	0.005517	0.104462
Zn8	Zn	2.004344	0.255517	0.354462
Zn9	Zn	1.115396	-0.363709	-0.388506
Zn10	Zn	1.365396	-0.113709	-0.138506
Zn11	Zn	1.615396	0.136291	0.111494
Zn12	Zn	1.865396	0.386291	0.361494
Zn13	Zn	1.108300	-0.493803	-0.527508
Zn14	Zn	1.358300	-0.243803	-0.277508
Zn15	Zn	1.608300	0.006197	-0.027508
Zn16	Zn	1.858300	0.256197	0.222492
O17	O	1.181361	-0.432065	-0.461535
O18	O	1.431361	-0.182065	-0.211535
O19	O	1.681361	0.067935	0.038465
O20	O	1.931361	0.317935	0.288465
O21	O	1.364690	-0.397483	-0.522050
O22	O	1.614690	-0.147483	-0.272050
O23	O	1.864690	0.102517	-0.022050
O24	O	2.114690	0.352517	0.227950
O25	O	1.241786	-0.472167	-0.278239
O26	O	1.491786	-0.222167	-0.028239
O27	O	1.741786	0.027833	0.221761
O28	O	1.991786	0.277833	0.471761
O29	O	1.132972	-0.261454	-0.407905
O30	O	1.382972	-0.011454	-0.157905
O31	O	1.632972	0.238546	0.092095
O32	O	1.882972	0.488546	0.342095
O33	O	1.369789	-0.484340	-0.419890
O34	O	1.619789	-0.234340	-0.169890
O35	O	1.869789	0.015660	0.080110
O36	O	2.119789	0.265660	0.330110
O37	O	1.229958	-0.270677	-0.515232
O38	O	1.479958	-0.020677	-0.265232
O39	O	1.729958	0.229323	-0.015232
O40	O	1.979958	0.479323	0.234768
O41	O	1.139701	-0.376088	-0.273073
O42	O	1.389701	-0.126088	-0.023073
O43	O	1.639701	0.123912	0.226927
O44	O	1.889701	0.373912	0.476927
O45	O	0.998089	-0.375428	-0.401038
O46	O	1.248089	-0.125428	-0.151038
O47	O	1.498089	0.124572	0.098962
O48	O	1.748089	0.374572	0.348962
O49	O	1.120879	-0.483180	-0.644814
O50	O	1.370879	-0.233180	-0.394814
O51	O	1.620879	0.016820	-0.144814
O52	O	1.870879	0.266820	0.105186
O53	O	0.992875	-0.471007	-0.503162
O54	O	1.242875	-0.221007	-0.253162
O55	O	1.492875	0.028993	-0.003162
O56	O	1.742875	0.278993	0.246838
O57	O	1.223078	-0.396823	-0.650016
O58	O	1.473078	-0.146823	-0.400016
O59	O	1.723078	0.103177	-0.150016
O60	O	1.973078	0.353177	0.099984
O61	O	1.234905	-0.598314	-0.413024
O62	O	1.484905	-0.348314	-0.163024
O63	O	1.734905	-0.098314	0.086976
O64	O	1.984905	0.151686	0.336976
O65	O	1.127608	-0.597814	-0.509981
O66	O	1.377608	-0.347814	-0.259981
O67	O	1.627608	-0.097814	-0.009981
O68	O	1.877608	0.152186	0.240019
C69	C	0.965310	-0.421782	-0.450569
C70	C	1.215310	-0.171782	-0.200569
C71	C	1.465310	0.078218	0.049431
C72	C	1.715310	0.328218	0.299431
C73	C	0.872881	-0.417402	-0.445898
C74	C	1.122881	-0.167402	-0.195898
C75	C	1.372881	0.082598	0.054102
C76	C	1.622881	0.332598	0.304102
C77	C	0.703652	-0.409388	-0.437376
C78	C	0.953652	-0.159388	-0.187376
C79	C	1.203652	0.090612	0.062624
C80	C	1.453652	0.340612	0.312624
C81	C	0.659907	-0.454798	-0.485756
C82	C	0.909907	-0.204798	-0.235756
C83	C	1.159907	0.045202	0.014244
C84	C	1.409907	0.295202	0.264244
C85	C	0.565742	-0.450339	-0.481014
C86	C	0.815742	-0.200339	-0.231014
C87	C	1.065742	0.049661	0.018986
C88	C	1.315742	0.299661	0.268986
C89	C	0.797826	-0.413846	-0.442116
C90	C	1.047826	-0.163846	-0.192116
C91	C	1.297826	0.086154	0.057884
C92	C	1.547826	0.336154	0.307884
C93	C	1.181261	-0.625011	-0.461516
C94	C	1.431261	-0.375011	-0.211516
C95	C	1.681261	-0.125011	0.038484
C96	C	1.931261	0.124989	0.288484
C97	C	1.181293	-0.707560	-0.461540
C98	C	1.431293	-0.457560	-0.211540
C99	C	1.681293	-0.207560	0.038460
C100	C	1.931293	0.042440	0.288460
C101	C	1.123000	-0.906767	-0.514249
C102	C	1.373000	-0.656767	-0.264249
C103	C	1.623000	-0.406767	-0.014249
C104	C	1.873000	-0.156767	0.235751
C105	C	1.106577	-0.951987	-0.437343
C106	C	1.356577	-0.701987	-0.187343
C107	C	1.606577	-0.451987	0.062657
C108	C	1.856577	-0.201987	0.312657
C109	C	1.181374	-0.858694	-0.461555
C110	C	1.431374	-0.608694	-0.211555
C111	C	1.681374	-0.358694	0.038445
C112	C	1.931374	-0.108694	0.288445
C113	C	1.197838	-0.960558	-0.538472
C114	C	1.447838	-0.710558	-0.288472
C115	C	1.697838	-0.460558	-0.038472
C116	C	1.947838	-0.210558	0.211528
C117	C	1.181451	-1.004684	-0.461576
C118	C	1.431451	-0.754684	-0.211576
C119	C	1.681451	-0.504684	0.038424
C120	C	1.931451	-0.254684	0.288424
C121	C	1.164914	-0.902823	-0.384607
C122	C	1.414914	-0.652823	-0.134607
C123	C	1.664914	-0.402823	0.115393
C124	C	1.914914	-0.152823	0.365393
C125	C	1.256206	-0.911394	-0.485789
C126	C	1.506206	-0.661394	-0.235789
C127	C	1.756206	-0.411394	0.014211
C128	C	2.006206	-0.161394	0.264211
C129	C	1.239815	-0.956591	-0.408832
C130	C	1.489815	-0.706591	-0.158832
C131	C	1.739815	-0.456591	0.091168
C132	C	1.989815	-0.206591	0.341168
C133	C	1.181328	-0.774593	-0.461544
C134	C	1.431328	-0.524593	-0.211544
C135	C	1.681328	-0.274593	0.038456
C136	C	1.931328	-0.024593	0.288456
C137	C	1.181498	-1.088783	-0.461579
C138	C	1.431498	-0.838783	-0.211579
C139	C	1.681498	-0.588783	0.038421
C140	C	1.931498	-0.338783	0.288421
C141	C	1.398256	-0.442388	-0.472545
C142	C	1.648256	-0.192388	-0.222545
C143	C	1.898256	0.057612	0.027455
C144	C	2.148256	0.307612	0.277455
C145	C	1.490683	-0.446787	-0.477236
C146	C	1.740683	-0.196787	-0.227236
C147	C	1.990683	0.053213	0.022764
C148	C	2.240683	0.303213	0.272764
C149	C	1.170413	-0.441326	-0.678431
C150	C	1.420413	-0.191326	-0.428431
C151	C	1.670413	0.058674	-0.178431
C152	C	1.920413	0.308674	0.071569
C153	C	1.165747	-0.445273	-0.770859
C154	C	1.415747	-0.195273	-0.520859
C155	C	1.665747	0.054727	-0.270859
C156	C	1.915747	0.304727	-0.020859
C157	C	1.181483	-0.238366	-0.461574
C158	C	1.431483	0.011634	-0.211574
C159	C	1.681483	0.261634	0.038426
C160	C	1.931483	0.511634	0.288426
C161	C	1.181535	-0.155823	-0.461590
C162	C	1.431535	0.094177	-0.211590
C163	C	1.681535	0.344177	0.038410
C164	C	1.931535	0.594177	0.288410
C165	C	1.205689	-0.411464	-0.983841
C166	C	1.455689	-0.161464	-0.733841
C167	C	1.705689	0.088536	-0.483841
C168	C	1.955689	0.338536	-0.233841
C169	C	1.157201	-0.452447	-0.940079
C170	C	1.407201	-0.202447	-0.690079
C171	C	1.657201	0.047553	-0.440079
C172	C	1.907201	0.297553	-0.190079
C173	C	1.161958	-0.448454	-0.845916
C174	C	1.411958	-0.198454	-0.595916
C175	C	1.661958	0.051546	-0.345916
C176	C	1.911958	0.301546	-0.095916
C177	C	1.200934	-0.415455	-1.078013
C178	C	1.450934	-0.165455	-0.828013
C179	C	1.700934	0.084545	-0.578013
C180	C	1.950934	0.334545	-0.328013
C181	C	1.192314	-0.422788	-0.245486
C182	C	1.442314	-0.172788	0.004514
C183	C	1.692314	0.077212	0.254514
C184	C	1.942314	0.327212	0.504514
C185	C	1.197141	-0.418639	-0.153067
C186	C	1.447141	-0.168639	0.096933
C187	C	1.697141	0.081361	0.346933
C188	C	1.947141	0.331361	0.596933
H189	H	1.043330	-0.969982	-0.416864
H190	H	1.293330	-0.719982	-0.166864
H191	H	1.543330	-0.469982	0.083136
H192	H	1.793330	-0.219982	0.333136
C193	C	0.704844	-0.511861	-0.546497
C194	C	0.954844	-0.261861	-0.296497
C195	C	1.204844	-0.011861	-0.046497
C196	C	1.454844	0.238139	0.203503
H197	H	0.763157	-0.507422	-0.541743
H198	H	1.013157	-0.257422	-0.291743
H199	H	1.263157	-0.007422	-0.041743
H200	H	1.513157	0.242578	0.208257
H201	H	0.687871	-0.502822	-0.601699
H202	H	0.937871	-0.252822	-0.351699
H203	H	1.187871	-0.002822	-0.101699
H204	H	1.437871	0.247178	0.148301
H205	H	0.691241	-0.560553	-0.533502
H206	H	0.941241	-0.310553	-0.283502
H207	H	1.191241	-0.060553	-0.033502
H208	H	1.441241	0.189447	0.216498
C209	C	1.056233	-0.877211	-0.574356
C210	C	1.306233	-0.627211	-0.324356
C211	C	1.556233	-0.377211	-0.074356
C212	C	1.806233	-0.127211	0.175644
H213	H	1.081885	-0.851273	-0.616420
H214	H	1.331885	-0.601273	-0.366420
H215	H	1.581885	-0.351273	-0.116420
H216	H	1.831885	-0.101273	0.133580
H217	H	1.017619	-0.844484	-0.544612
H218	H	1.267619	-0.594484	-0.294612
H219	H	1.517619	-0.344484	-0.044612
H220	H	1.767619	-0.094484	0.205388
H221	H	1.028011	-0.917649	-0.599129
H222	H	1.278011	-0.667649	-0.349129
H223	H	1.528011	-0.417649	-0.099129
H224	H	1.778011	-0.167649	0.150871
C225	C	1.146035	-0.868874	-0.296717
C226	C	1.396035	-0.618874	-0.046717
C227	C	1.646035	-0.368874	0.203283
C228	C	1.896035	-0.118874	0.453283
H229	H	1.146092	-0.816271	-0.297252
H230	H	1.396092	-0.566271	-0.047252
H231	H	1.646092	-0.316271	0.202748
H232	H	1.896092	-0.066271	0.452748
H233	H	1.187279	-0.886321	-0.259247
H234	H	1.437279	-0.636321	-0.009247
H235	H	1.687279	-0.386321	0.240753
H236	H	1.937279	-0.136321	0.490753
H237	H	1.093071	-0.883077	-0.279438
H238	H	1.343071	-0.633077	-0.029438
H239	H	1.593071	-0.383077	0.220562
H240	H	1.843071	-0.133077	0.470562
H241	H	1.112113	-0.490527	-0.973333
H242	H	1.362113	-0.240527	-0.723333
H243	H	1.612113	0.009473	-0.473333
H244	H	1.862113	0.259473	-0.223333
H245	H	0.670386	-0.367167	-0.392399
H246	H	0.920386	-0.117167	-0.142399
H247	H	1.170386	0.132833	0.107601
H248	H	1.420386	0.382833	0.357601
C249	C	1.306547	-0.985956	-0.348577
C250	C	1.556547	-0.735956	-0.098577
C251	C	1.806547	-0.485956	0.151423
C252	C	2.056547	-0.235956	0.401423
H253	H	1.294741	-0.965987	-0.293987
H254	H	1.544741	-0.715987	-0.043987
H255	H	1.794741	-0.465987	0.206013
H256	H	2.044741	-0.215987	0.456013
H257	H	1.359540	-0.971394	-0.365316
H258	H	1.609540	-0.721394	-0.115316
H259	H	1.859540	-0.471394	0.134684
H260	H	2.109540	-0.221394	0.384684
H261	H	1.306515	-1.038611	-0.349242
H262	H	1.556515	-0.788611	-0.099242
H263	H	1.806515	-0.538611	0.150758
H264	H	2.056515	-0.288611	0.400758
C265	C	1.341641	-0.887111	-0.513486
C266	C	1.591641	-0.637111	-0.263486
C267	C	1.841641	-0.387111	-0.013486
C268	C	2.091641	-0.137111	0.236514
H269	H	1.353233	-0.906961	-0.568165
H270	H	1.603233	-0.656961	-0.318165
H271	H	1.853233	-0.406961	-0.068165
H272	H	2.103233	-0.156961	0.181835
H273	H	1.383225	-0.904959	-0.476606
H274	H	1.633225	-0.654959	-0.226606
H275	H	1.883225	-0.404959	0.023394
H276	H	2.133225	-0.154959	0.273394
H277	H	1.341170	-0.834434	-0.512789
H278	H	1.591170	-0.584434	-0.262789
H279	H	1.841170	-0.334434	-0.012789
H280	H	2.091170	-0.084434	0.237211
C281	C	1.266597	-0.360024	-0.938925
C282	C	1.516597	-0.110024	-0.688925
C283	C	1.766597	0.139976	-0.438925
C284	C	2.016597	0.389976	-0.188925
H285	H	1.261847	-0.364065	-0.880612
H286	H	1.511847	-0.114065	-0.630612
H287	H	1.761847	0.135935	-0.380612
H288	H	2.011847	0.385935	-0.130612
H289	H	1.253768	-0.310135	-0.952482
H290	H	1.503768	-0.060135	-0.702482
H291	H	1.753768	0.189865	-0.452482
H292	H	2.003768	0.439865	-0.202482
H293	H	1.321760	-0.374153	-0.955954
H294	H	1.571760	-0.124153	-0.705954
H295	H	1.821760	0.125847	-0.455954
H296	H	2.071760	0.375847	-0.205954
H297	H	1.211732	-0.985778	-0.603511
H298	H	1.461732	-0.735778	-0.353511
H299	H	1.711732	-0.485778	-0.103511
H300	H	1.961732	-0.235778	0.146489
