data_functionalizedCrystal
_audit_creation_method	'MofGen! by Chris Wilmer'
_symmetry_space_group_name_H-M	'P1'
_symmetry_Int_Tables_number	1
_symmetry_cell_setting	triclinic
loop_
_symmetry_equiv_pos_as_xyz
  x,y,z
_cell_length_a	12.645331
_cell_length_b	18.101395
_cell_length_c	12.645323
_cell_angle_alpha	89.971733
_cell_angle_beta	89.977324
_cell_angle_gamma	90.030083
loop_
_atom_site_label
_atom_site_type_symbol
_atom_site_fract_x
_atom_site_fract_y
_atom_site_fract_z
Zn1	Zn	1.620632	-0.294844	-0.599421
Zn2	Zn	2.120632	0.205156	-0.099421
Zn3	Zn	1.620473	-0.418694	-0.422151
Zn4	Zn	2.120473	0.081306	0.077849
Zn5	Zn	1.443347	-0.294869	-0.422166
Zn6	Zn	1.943347	0.205131	0.077834
Zn7	Zn	1.443287	-0.418646	-0.599366
Zn8	Zn	1.943287	0.081354	-0.099366
O9	O	1.531935	-0.356763	-0.510776
O10	O	2.031935	0.143237	-0.010776
O11	O	1.768958	-0.311283	-0.575923
O12	O	2.268958	0.188717	-0.075923
O13	O	1.596935	-0.402299	-0.273805
O14	O	2.096935	0.097701	0.226195
O15	O	1.466956	-0.191233	-0.445708
O16	O	1.966956	0.308767	0.054292
O17	O	1.768841	-0.402275	-0.445683
O18	O	2.268841	0.097725	0.054317
O19	O	1.597207	-0.191214	-0.575937
O20	O	2.097207	0.308786	-0.075937
O21	O	1.466801	-0.311325	-0.273816
O22	O	1.966801	0.188675	0.226184
O23	O	1.294992	-0.311278	-0.445655
O24	O	1.794992	0.188722	0.054345
O25	O	1.466854	-0.402193	-0.747721
O26	O	1.966854	0.097807	-0.247721
O27	O	1.294948	-0.402217	-0.575843
O28	O	1.794948	0.097783	-0.075843
O29	O	1.597149	-0.311236	-0.747761
O30	O	2.097149	0.188764	-0.247761
O31	O	1.596877	-0.522321	-0.445630
O32	O	2.096877	-0.022321	0.054370
O33	O	1.466699	-0.522285	-0.575829
O34	O	1.966699	-0.022285	-0.075829
C35	C	1.256505	-0.356746	-0.510745
C36	C	1.756505	0.143254	-0.010745
C37	C	1.138675	-0.356756	-0.510757
C38	C	1.638675	0.143244	-0.010757
C39	C	0.971103	-0.299284	-0.429308
C40	C	1.471103	0.200716	0.070692
C41	C	1.093663	-0.299432	-0.428949
C42	C	1.593663	0.200568	0.071051
C43	C	1.094129	-0.434770	-0.480236
C44	C	1.594129	0.065230	0.019764
C45	C	0.971530	-0.434456	-0.479680
C46	C	1.471530	0.065544	0.020320
C47	C	0.971532	-0.336957	-0.623043
C48	C	1.471532	0.163043	-0.123043
C49	C	1.094139	-0.335215	-0.622419
C50	C	1.594139	0.164785	-0.122419
C51	C	1.531793	-0.549174	-0.510745
C52	C	2.031793	-0.049174	-0.010745
C53	C	1.531829	-0.631488	-0.510767
C54	C	2.031829	-0.131488	-0.010767
C55	C	1.532062	-0.930579	-0.510824
C56	C	2.032062	-0.430579	-0.010824
C57	C	1.450348	-0.899262	-0.592945
C58	C	1.950348	-0.399262	-0.092945
C59	C	1.449960	-0.813644	-0.592688
C60	C	1.949960	-0.313644	-0.092688
C61	C	1.531946	-0.782196	-0.510797
C62	C	2.031946	-0.282196	-0.010797
C63	C	1.501694	-0.813349	-0.399071
C64	C	2.001694	-0.313349	0.100929
C65	C	1.501167	-0.898994	-0.399562
C66	C	2.001167	-0.398994	0.100438
C67	C	1.644207	-0.898924	-0.539445
C68	C	2.144207	-0.398924	-0.039445
C69	C	1.643548	-0.813273	-0.541895
C70	C	2.143548	-0.313273	-0.041895
C71	C	1.531883	-0.698337	-0.510774
C72	C	2.031883	-0.198337	-0.010774
C73	C	1.532123	-1.014438	-0.510839
C74	C	2.032123	-0.514438	-0.010839
C75	C	1.808440	-0.356781	-0.510807
C76	C	2.308440	0.143219	-0.010807
C77	C	1.926270	-0.356789	-0.510821
C78	C	2.426270	0.143211	-0.010821
C79	C	1.532013	-0.356706	-0.787281
C80	C	2.032013	0.143294	-0.287281
C81	C	1.532046	-0.356682	-0.905112
C82	C	2.032046	0.143318	-0.405112
C83	C	1.532106	-0.163601	-0.510830
C84	C	2.032106	0.336399	-0.010830
C85	C	1.532179	-0.081287	-0.510854
C86	C	2.032179	0.418713	-0.010854
C87	C	1.449825	-0.413633	-1.072650
C88	C	1.949825	0.086367	-0.572650
C89	C	1.450040	-0.413915	-0.950090
C90	C	1.950040	0.086085	-0.450090
C91	C	1.643739	-0.377863	-0.949630
C92	C	2.143739	0.122137	-0.449630
C93	C	1.643288	-0.378220	-1.072228
C94	C	2.143288	0.121780	-0.572228
C95	C	1.503631	-0.278231	-1.072316
C96	C	2.003631	0.221769	-0.572316
C97	C	1.501139	-0.278701	-0.949710
C98	C	2.001139	0.221299	-0.449710
C99	C	1.531918	-0.356767	-0.235346
C100	C	2.031918	0.143233	0.264654
C101	C	1.532090	-0.356583	-0.117517
C102	C	2.032090	0.143417	0.382483
H103	H	1.123262	-0.277805	-0.645434
H104	H	1.623262	0.222195	-0.145434
H105	H	1.705087	-0.919175	-0.479633
H106	H	2.205087	-0.419175	0.020367
Cl107	Cl	1.678776	-0.781833	-0.668843
Cl108	Cl	2.178776	-0.281833	-0.168843
H109	H	1.423605	-0.258923	-1.103222
H110	H	1.923605	0.241077	-0.603222
Cl111	Cl	1.742524	-0.780211	-0.456287
Cl112	Cl	2.242524	-0.280211	0.043713
H113	H	1.706675	-0.337625	-0.920498
H114	H	2.206675	0.162375	-0.420498
Cl115	Cl	1.138867	-0.319666	-0.300552
Cl116	Cl	1.638867	0.180334	0.199448
Cl117	Cl	1.322166	-0.393447	-0.903612
Cl118	Cl	1.822166	0.106553	-0.403612
Cl119	Cl	1.686790	-0.932189	-0.663086
Cl120	Cl	2.186790	-0.432189	-0.163086
Cl121	Cl	1.376464	-0.780338	-0.360967
Cl122	Cl	1.876464	-0.280338	0.139033
Cl123	Cl	1.479273	-0.930988	-0.721268
Cl124	Cl	1.979273	-0.430988	-0.221268
Cl125	Cl	1.478481	-0.502743	-1.120301
Cl126	Cl	1.978481	-0.002743	-0.620301
H127	H	1.468888	-0.792579	-0.675532
H128	H	1.968888	-0.292579	-0.175532
Cl129	Cl	1.321564	-0.393363	-1.118146
Cl130	Cl	1.821564	0.106637	-0.618146
Cl131	Cl	1.479104	-0.503586	-0.904816
Cl132	Cl	1.979104	-0.003586	-0.404816
Cl133	Cl	0.927290	-0.460418	-0.353016
Cl134	Cl	1.427290	0.039582	0.146984
H135	H	1.668278	-0.434540	-0.918936
H136	H	2.168278	0.065460	-0.418936
Cl137	Cl	1.374228	-0.254040	-0.904799
Cl138	Cl	1.874228	0.245960	-0.404799
H139	H	1.124783	-0.374044	-0.686401
H140	H	1.624783	0.125956	-0.186401
H141	H	1.556682	-0.233948	-0.919092
H142	H	2.056682	0.266052	-0.419092
H143	H	1.667414	-0.435497	-1.100834
H144	H	2.167414	0.064503	-0.600834
Cl145	Cl	1.596138	-0.212606	-1.117115
Cl146	Cl	2.096138	0.287394	-0.617115
H147	H	1.123783	-0.241582	-0.448080
H148	H	1.623783	0.258418	0.051920
Cl149	Cl	0.925644	-0.209695	-0.458523
Cl150	Cl	1.425644	0.290305	0.041477
H151	H	1.706659	-0.338471	-1.101910
H152	H	2.206659	0.161529	-0.601910
H153	H	0.940251	-0.312246	-0.346636
H154	H	1.440251	0.187754	0.153364
Cl155	Cl	1.139126	-0.502691	-0.569027
Cl156	Cl	1.639126	-0.002691	-0.069027
H157	H	1.124778	-0.451877	-0.399076
H158	H	1.624778	0.048123	0.100924
Cl159	Cl	0.925733	-0.502849	-0.567336
Cl160	Cl	1.425733	-0.002849	-0.067336
H161	H	0.942539	-0.378842	-0.683778
H162	H	1.442539	0.121158	-0.183778
Cl163	Cl	0.923866	-0.250658	-0.665895
Cl164	Cl	1.423866	0.249342	-0.165895
H165	H	1.367728	-0.920848	-0.574226
H166	H	1.867728	-0.420848	-0.074226
H167	H	1.419189	-0.919036	-0.375318
H168	H	1.919189	-0.419036	0.124682
Cl169	Cl	1.321620	-0.782106	-0.563423
Cl170	Cl	1.821620	-0.282106	-0.063423
H171	H	1.558102	-0.919713	-0.336289
H172	H	2.058102	-0.419713	0.163711
Cl173	Cl	1.590688	-0.781903	-0.302022
Cl174	Cl	2.090688	-0.281903	0.197978
