data_functionalizedCrystal
_audit_creation_method	'MofGen! by Chris Wilmer'
_symmetry_space_group_name_H-M	'P1'
_symmetry_Int_Tables_number	1
_symmetry_cell_setting	triclinic
loop_
_symmetry_equiv_pos_as_xyz
  x,y,z
_cell_length_a	17.699083
_cell_length_b	17.699083
_cell_length_c	7.540329
_cell_angle_alpha	90.003072
_cell_angle_beta	89.995522
_cell_angle_gamma	83.283015
loop_
_atom_site_label
_atom_site_type_symbol
_atom_site_fract_x
_atom_site_fract_y
_atom_site_fract_z
O1	O	0.095710	1.004074	-0.147237
O2	O	0.108163	0.783696	-0.147296
O3	O	-0.008253	0.900111	-0.147249
O4	O	0.212126	0.887659	-0.147284
O5	O	-0.008254	0.900104	0.147716
O6	O	0.108161	0.783689	0.147669
O7	O	0.095709	1.004067	0.147728
Cu8	Cu	0.101935	0.893878	0.174631
Cu9	Cu	0.101936	0.893886	-0.174199
O10	O	0.212124	0.887652	0.147681
C11	C	0.107716	0.755495	0.000179
C12	C	0.106377	0.671477	0.000157
C13	C	-0.036451	0.899662	0.000233
C14	C	-0.120469	0.898323	0.000234
C15	C	-0.169090	0.966656	0.000254
C16	C	-0.248033	0.965394	0.000238
C17	C	-0.278354	0.895798	0.000214
C18	C	-0.229727	0.827459	0.000188
C19	C	-0.150785	0.828722	0.000192
C20	C	-0.548090	0.822364	0.000173
C21	C	-0.627038	0.821106	0.000175
C22	C	-0.645338	0.959036	0.000219
C23	C	-0.566396	0.960299	0.000223
C24	C	-0.517776	0.891961	0.000187
C25	C	-0.432177	0.893330	0.000201
C26	C	-0.363951	0.894427	0.000213
C27	C	0.174710	0.622856	0.000147
C28	C	0.173448	0.543913	0.000170
C29	C	0.103852	0.513592	0.000191
C30	C	0.035513	0.562219	0.000207
C31	C	0.036776	0.641161	0.000196
C32	C	0.030418	0.243856	0.000251
C33	C	0.029160	0.164908	0.000256
C34	C	0.167090	0.146608	0.000226
C35	C	0.168353	0.225550	0.000215
C36	C	0.100015	0.274170	0.000240
C37	C	0.101384	0.359769	0.000218
C38	C	0.102481	0.427995	0.000200
C39	C	0.240322	0.888102	0.000195
C40	C	0.324340	0.889440	0.000183
C41	C	0.096156	1.032268	0.000249
C42	C	0.097494	1.116286	0.000259
N43	N	0.101933	0.893877	0.419980
N44	N	0.101932	0.893892	-0.419548
H45	H	-0.144409	1.023330	0.000285
Br46	Br	-0.058941	0.521071	0.000252
H47	H	-0.287618	1.021038	0.000259
Br48	Br	0.269168	0.663998	0.000101
Br49	Br	-0.270875	0.733005	0.000126
H50	H	-0.111198	0.773078	0.000175
Br51	Br	-0.525250	1.054754	0.000254
H52	H	-0.684934	1.014680	0.000239
Br53	Br	-0.482115	0.729619	0.000113
H54	H	-0.651721	0.764429	0.000159
Br55	Br	0.266191	0.477929	0.000151
H56	H	0.225025	0.250232	0.000190
H57	H	0.222734	0.107012	0.000215
Br58	Br	-0.065299	0.123759	0.000279
H59	H	-0.018868	0.680748	0.000203
Br60	Br	-0.062327	0.309831	0.000289
