data_functionalizedCrystal
_audit_creation_method	'MofGen! by Chris Wilmer'
_symmetry_space_group_name_H-M	'P1'
_symmetry_Int_Tables_number	1
_symmetry_cell_setting	triclinic
loop_
_symmetry_equiv_pos_as_xyz
  x,y,z
_cell_length_a	19.121102
_cell_length_b	12.759399
_cell_length_c	12.759393
_cell_angle_alpha	89.969094
_cell_angle_beta	92.461703
_cell_angle_gamma	92.430450
loop_
_atom_site_label
_atom_site_type_symbol
_atom_site_fract_x
_atom_site_fract_y
_atom_site_fract_z
Zn1	Zn	1.073807	0.486843	0.662511
Zn2	Zn	1.073733	0.662554	0.486825
Zn3	Zn	0.956348	0.479387	0.479354
Zn4	Zn	0.956342	0.654973	0.654974
O5	O	1.015058	0.570939	0.570916
O6	O	1.172082	0.516444	0.645486
O7	O	1.058134	0.638309	0.338811
O8	O	0.971963	0.333357	0.503677
O9	O	1.172028	0.645538	0.516411
O10	O	1.058259	0.338835	0.638242
O11	O	0.971892	0.503737	0.333322
O12	O	0.858062	0.496386	0.496369
O13	O	0.971952	0.632618	0.802997
O14	O	0.858058	0.625389	0.625397
O15	O	1.058253	0.509093	0.808534
O16	O	1.058128	0.808567	0.509103
O17	O	0.971881	0.802998	0.632641
C18	C	0.832576	0.559257	0.559255
C19	C	0.754509	0.554284	0.554292
C20	C	1.015015	0.843904	0.570889
C21	C	1.015060	0.960683	0.570917
C22	C	1.015110	0.570842	0.844953
C23	C	1.015133	0.570800	0.961731
C24	C	0.717849	0.619214	0.619032
C25	C	0.644497	0.614528	0.614373
C26	C	0.607807	0.544916	0.544968
C27	C	0.644472	0.479980	0.480225
C28	C	0.717822	0.484661	0.484890
C29	C	0.386334	0.527411	0.527533
C30	C	0.312979	0.522737	0.522871
C31	C	0.313009	0.657284	0.657021
C32	C	0.386361	0.661964	0.661675
C33	C	0.423020	0.597023	0.596936
C34	C	0.532829	0.540127	0.540202
C35	C	0.497996	0.601808	0.601708
C36	C	1.198252	0.582668	0.582623
C37	C	1.276319	0.587666	0.587611
C38	C	1.015120	0.296910	0.570967
C39	C	1.015147	0.180135	0.570989
C40	C	1.060020	1.018414	0.506670
C41	C	1.060065	1.128141	0.506708
C42	C	0.970185	1.122397	0.635243
C43	C	0.970144	1.012672	0.635209
C44	C	1.015046	0.570963	0.297948
C45	C	1.015159	0.570717	0.181179
C46	C	1.060073	0.506470	1.019478
C47	C	1.060085	0.506426	1.129203
C48	C	0.970214	0.635050	1.123424
C49	C	0.970199	0.635088	1.013701
H50	H	0.747717	0.675902	0.675546
H51	H	0.933599	0.687472	0.966681
H52	H	1.096658	0.454120	0.977167
H53	H	0.416230	0.718651	0.718190
Cl54	Cl	0.598413	0.696158	0.695765
Cl55	Cl	1.116489	0.953060	0.425849
H56	H	1.096677	1.175140	0.454394
Cl57	Cl	0.266920	0.738920	0.738400
H58	H	1.096678	0.454040	1.176216
Cl59	Cl	0.763909	0.403029	0.403501
H60	H	0.933614	1.164740	0.687586
H61	H	0.933633	0.687393	1.165751
Cl62	Cl	0.266854	0.435226	0.435604
Cl63	Cl	0.432410	0.445768	0.446149
H64	H	0.502947	0.483452	0.483690
Cl65	Cl	0.913622	0.940092	0.715990
H66	H	0.614592	0.423296	0.423719
H67	H	0.527873	0.658480	0.658222
