data_functionalizedCrystal
_audit_creation_method	'MofGen! by Chris Wilmer'
_symmetry_space_group_name_H-M	'P1'
_symmetry_Int_Tables_number	1
_symmetry_cell_setting	triclinic
loop_
_symmetry_equiv_pos_as_xyz
  x,y,z
_cell_length_a	15.995292
_cell_length_b	15.995343
_cell_length_c	15.072220
_cell_angle_alpha	89.994148
_cell_angle_beta	89.986330
_cell_angle_gamma	83.478900
loop_
_atom_site_label
_atom_site_type_symbol
_atom_site_fract_x
_atom_site_fract_y
_atom_site_fract_z
O1	O	1.111023	0.107690	-0.073816
O2	O	1.611023	0.607690	0.426184
O3	O	0.867241	0.121068	-0.073814
O4	O	1.367241	0.621068	0.426186
O5	O	0.995799	-0.007511	-0.073798
O6	O	1.495799	0.492489	0.426202
O7	O	0.982465	0.236268	-0.073831
O8	O	1.482465	0.736268	0.426169
O9	O	0.995768	-0.007504	0.073767
O10	O	1.495768	0.492496	0.573767
O11	O	0.867209	0.121075	0.073751
O12	O	1.367209	0.621075	0.573751
O13	O	1.110991	0.107697	0.073749
O14	O	1.610991	0.607697	0.573749
Zn15	Zn	0.989095	0.114387	0.097179
Zn16	Zn	1.489095	0.614387	0.597179
Zn17	Zn	0.989137	0.114378	-0.097244
Zn18	Zn	1.489137	0.614378	0.402756
O19	O	0.982433	0.236275	0.073734
O20	O	1.482433	0.736275	0.573734
C21	C	0.836029	0.120527	-0.000031
C22	C	1.336029	0.620527	0.499969
C23	C	0.743077	0.118895	-0.000029
C24	C	1.243077	0.618895	0.499971
C25	C	0.405338	0.112893	-0.000038
C26	C	0.905338	0.612893	0.499962
C27	C	0.428648	0.205698	-0.000380
C28	C	0.928648	0.705698	0.499620
C29	C	0.525324	0.207462	-0.000044
C30	C	1.025324	0.707462	0.499956
C31	C	0.572894	0.115871	-0.000034
C32	C	1.072894	0.615871	0.499966
C33	C	0.543775	0.069477	0.084236
C34	C	1.043775	0.569477	0.584236
C35	C	0.446985	0.068360	0.084303
C36	C	0.946985	0.568360	0.584303
C37	C	0.447166	0.066457	-0.083506
C38	C	0.947166	0.566457	0.416494
C39	C	0.543658	0.069896	-0.084616
C40	C	1.043658	0.569896	0.415384
C41	C	0.667590	0.117549	-0.000029
C42	C	1.167590	0.617549	0.499971
C43	C	0.310643	0.111213	-0.000037
C44	C	0.810643	0.611213	0.499963
C45	C	0.995233	-0.038702	-0.000013
C46	C	1.495233	0.461298	0.499987
C47	C	0.993584	-0.131652	-0.000006
C48	C	1.493584	0.368348	0.499994
C49	C	1.142203	0.108238	-0.000036
C50	C	1.642203	0.608238	0.499964
C51	C	1.235156	0.109870	-0.000043
C52	C	1.735156	0.609870	0.499957
C53	C	0.990590	-0.301838	-0.000027
C54	C	1.490590	0.198162	0.499973
C55	C	0.897791	-0.325164	-0.000028
C56	C	1.397791	0.174836	0.499972
C57	C	0.896045	-0.421842	-0.000372
C58	C	1.396045	0.078158	0.499628
C59	C	0.987642	-0.469397	-0.000046
C60	C	1.487642	0.030603	0.499954
C61	C	1.034321	-0.440312	-0.084143
C62	C	1.534321	0.059688	0.415857
C63	C	1.035422	-0.343520	-0.084204
C64	C	1.535422	0.156480	0.415796
C65	C	1.036744	-0.343616	0.083611
C66	C	1.536744	0.156384	0.583611
C67	C	1.033318	-0.440111	0.084706
C68	C	1.533318	0.059889	0.584706
C69	C	0.985980	-0.564095	-0.000059
C70	C	1.485980	-0.064095	0.499941
C71	C	0.992255	-0.207140	-0.000019
C72	C	1.492255	0.292860	0.499981
C73	C	0.982999	0.267467	-0.000053
C74	C	1.482999	0.767467	0.499947
C75	C	0.984648	0.360417	-0.000066
C76	C	1.484648	0.860417	0.499934
N77	N	0.989073	0.114393	0.229868
N78	N	1.489073	0.614393	0.729868
N79	N	0.989166	0.114365	-0.229933
N80	N	1.489166	0.614365	0.270067
C81	C	0.989135	0.114374	0.589070
C82	C	1.489135	0.614374	1.089070
C83	C	0.920115	0.182944	0.551455
C84	C	1.420115	0.682944	1.051455
C85	C	0.920274	0.183194	0.448629
C86	C	1.420274	0.683194	0.948629
C87	C	0.989104	0.114384	0.410866
C88	C	1.489104	0.614384	0.910866
C89	C	1.076470	0.133447	0.448153
C90	C	1.576470	0.633447	0.948153
C91	C	1.076083	0.133934	0.551011
C92	C	1.576083	0.633934	1.051011
C93	C	0.971568	0.026538	0.551182
C94	C	1.471568	0.526538	1.051182
C95	C	0.969563	0.027125	0.448319
C96	C	1.469563	0.527125	0.948319
C97	C	0.989091	0.114387	0.310152
C98	C	1.489091	0.614387	0.810152
C99	C	0.989154	0.114373	0.689783
C100	C	1.489154	0.614373	1.189783
H101	H	0.420153	0.100497	0.147289
H102	H	0.920153	0.600497	0.647289
H103	H	1.091565	0.197992	0.574983
H104	H	1.591565	0.697992	1.074983
C105	C	1.129016	-0.324702	0.084720
C106	C	1.629016	0.175298	0.584720
H107	H	1.156579	-0.350115	0.135404
H108	H	1.656579	0.149885	0.635404
H109	H	1.130774	-0.265575	0.086894
H110	H	1.630774	0.234425	0.586894
H111	H	1.156625	-0.346762	0.032542
H112	H	1.656625	0.153238	0.532542
H113	H	1.101734	-0.472172	-0.087036
H114	H	1.601734	0.027828	0.412964
C115	C	0.427324	-0.023557	0.089491
C116	C	0.927324	0.476443	0.589491
H117	H	0.478472	-0.060050	0.091556
H118	H	0.978472	0.439950	0.591556
H119	H	0.395995	-0.036273	0.038680
H120	H	0.895995	0.463727	0.538680
H121	H	0.395389	-0.031055	0.141457
H122	H	0.895389	0.468945	0.641457
H123	H	0.562240	0.103676	-0.146959
H124	H	1.062240	0.603676	0.353041
H125	H	1.016569	-0.026291	0.422617
H126	H	1.516569	0.473709	0.922617
H127	H	0.861808	-0.297151	0.060272
H128	H	1.361808	0.202849	0.560272
C129	C	0.586825	-0.021571	0.088491
C130	C	1.086825	0.478429	0.588491
H131	H	0.568323	-0.048462	0.139936
H132	H	1.068323	0.451538	0.639936
H133	H	0.646106	-0.021080	0.091018
H134	H	1.146106	0.478920	0.591018
H135	H	0.572587	-0.051349	0.037142
H136	H	1.072587	0.448651	0.537142
C137	C	1.039555	-0.042397	0.584048
C138	C	1.539555	0.457603	1.084048
H139	H	1.078461	-0.017815	0.620682
H140	H	1.578461	0.482185	1.120682
H141	H	1.068339	-0.068843	0.534585
H142	H	1.568339	0.431157	1.034585
H143	H	1.013804	-0.083053	0.617174
H144	H	1.513804	0.416947	1.117174
C145	C	0.551046	0.256552	-0.081642
C146	C	1.051046	0.756552	0.418358
H147	H	0.502369	0.275598	-0.115293
H148	H	1.002369	0.775598	0.384707
H149	H	0.588848	0.220822	-0.117291
H150	H	1.088848	0.720822	0.382709
H151	H	0.577775	0.303542	-0.062677
H152	H	1.077775	0.803542	0.437323
C153	C	0.390835	0.254027	-0.082013
C154	C	0.890835	0.754027	0.417987
H155	H	0.360488	0.218044	-0.116617
H156	H	0.860488	0.718044	0.383383
H157	H	0.434800	0.272498	-0.116714
H158	H	0.934800	0.772498	0.383286
H159	H	0.353868	0.301352	-0.063064
H160	H	0.853868	0.801352	0.436936
H161	H	0.563820	0.101701	0.146943
H162	H	1.063820	0.601701	0.646943
H163	H	0.931178	0.247759	0.577284
H164	H	1.431178	0.747759	1.077284
H165	H	0.859498	-0.440855	0.059895
H166	H	1.359498	0.059145	0.559895
H167	H	0.418851	0.095461	-0.147377
H168	H	0.918851	0.595461	0.352623
C169	C	1.147518	0.067783	0.415107
C170	C	1.647518	0.567783	0.915107
H171	H	1.199778	0.080497	0.438440
H172	H	1.699778	0.580497	0.938440
H173	H	1.149518	0.068965	0.352134
H174	H	1.649518	0.568965	0.852134
H175	H	1.137093	0.013372	0.434376
H176	H	1.637093	0.513372	0.934376
C177	C	0.588191	-0.020419	-0.091481
C178	C	1.088191	0.479581	0.408519
H179	H	0.625358	-0.031320	-0.042631
H180	H	1.125358	0.468680	0.457369
H181	H	0.619266	-0.026448	-0.145262
H182	H	1.119266	0.473552	0.354738
H183	H	0.547415	-0.059214	-0.090762
H184	H	1.047415	0.440786	0.409238
C185	C	0.850000	-0.285991	-0.081367
C186	C	1.350000	0.214009	0.418633
H187	H	0.886358	-0.255486	-0.115329
H188	H	1.386358	0.244514	0.384671
H189	H	0.802822	-0.248978	-0.062146
H190	H	1.302822	0.251022	0.437854
H191	H	0.831351	-0.329345	-0.116817
H192	H	1.331351	0.170655	0.383183
H193	H	0.433175	-0.001853	-0.084068
H194	H	0.933175	0.498147	0.415932
H195	H	1.100155	-0.473073	0.090037
H196	H	1.600155	0.026927	0.590037
H197	H	1.002318	-0.460393	-0.146969
H198	H	1.502318	0.039607	0.353031
H199	H	1.092321	0.196775	0.422375
H200	H	1.592321	0.696775	0.922375
H201	H	0.859707	-0.440269	-0.061014
H202	H	1.359707	0.059731	0.438986
H203	H	1.007452	-0.315343	0.147377
H204	H	1.507452	0.184657	0.647377
H205	H	0.399615	0.241274	0.059705
H206	H	0.899615	0.741274	0.559705
C207	C	0.992291	-0.307317	-0.169444
C208	C	1.492291	0.192683	0.330556
H209	H	0.974259	-0.351786	-0.203707
H210	H	1.474259	0.148214	0.296293
H211	H	1.030974	-0.279290	-0.202996
H212	H	1.530974	0.220710	0.297004
H213	H	0.945014	-0.268550	-0.154213
H214	H	1.445014	0.231450	0.345787
C215	C	0.987418	-0.465199	0.168759
C216	C	1.487418	0.034801	0.668759
H217	H	0.940614	-0.493407	0.152280
H218	H	1.440614	0.006593	0.652280
H219	H	0.968369	-0.416136	0.201796
H220	H	1.468369	0.083864	0.701796
H221	H	1.024959	-0.501559	0.204050
H222	H	1.524959	-0.001559	0.704050
C223	C	1.127349	-0.323845	-0.089096
C224	C	1.627349	0.176155	0.410904
H225	H	1.163857	-0.374989	-0.091040
H226	H	1.663857	0.125011	0.408960
H227	H	1.139912	-0.292481	-0.038252
H228	H	1.639912	0.207519	0.461748
H229	H	1.134992	-0.291940	-0.141045
H230	H	1.634992	0.208060	0.358955
C231	C	0.550177	0.256817	0.081708
C232	C	1.050177	0.756817	0.581708
H233	H	0.501160	0.275861	0.114846
H234	H	1.001160	0.775861	0.614846
H235	H	0.577013	0.303804	0.062934
H236	H	1.077013	0.803804	0.562934
H237	H	0.587682	0.221219	0.117797
H238	H	1.087682	0.721219	0.617797
H239	H	0.855332	0.171839	0.423421
H240	H	1.355332	0.671839	0.923421
H241	H	0.931491	0.248376	0.424006
H242	H	1.431491	0.748376	0.924006
C243	C	0.887355	0.001785	0.586259
C244	C	1.387355	0.501785	1.086259
H245	H	0.862119	0.044794	0.624342
H246	H	1.362119	0.544794	1.124342
H247	H	0.897138	-0.049536	0.618300
H248	H	1.397138	0.450464	1.118300
H249	H	0.850843	-0.005150	0.537767
H250	H	1.350843	0.494850	1.037767
C251	C	0.832101	0.167869	0.584917
C252	C	1.332101	0.667869	1.084917
H253	H	0.836655	0.119626	0.622133
H254	H	1.336655	0.619626	1.122133
H255	H	0.797013	0.159126	0.535723
H256	H	1.297013	0.659126	1.035723
H257	H	0.808339	0.215556	0.617562
H258	H	1.308339	0.715556	1.117562
C259	C	1.147544	0.069032	0.584628
C260	C	1.647544	0.569032	1.084628
H261	H	1.176688	0.042491	0.535419
H262	H	1.676688	0.542491	1.035419
H263	H	1.124523	0.027892	0.619664
H264	H	1.624523	0.527892	1.119664
H265	H	1.185521	0.096684	0.619526
H266	H	1.685521	0.596684	1.119526
C267	C	0.882743	0.007577	0.415405
C268	C	1.382743	0.507577	0.915405
H269	H	0.858500	0.052398	0.378984
H270	H	1.358500	0.552398	0.878984
H271	H	0.847126	0.001415	0.464857
H272	H	1.347126	0.501415	0.964857
H273	H	0.889044	-0.043139	0.382047
H274	H	1.389044	0.456861	0.882047
