data_functionalizedCrystal
_audit_creation_method	'MofGen! by Chris Wilmer'
_symmetry_space_group_name_H-M	'P1'
_symmetry_Int_Tables_number	1
_symmetry_cell_setting	triclinic
loop_
_symmetry_equiv_pos_as_xyz
  x,y,z
_cell_length_a	10.654544
_cell_length_b	12.837942
_cell_length_c	11.892095
_cell_angle_alpha	85.697431
_cell_angle_beta	86.062164
_cell_angle_gamma	90.343104
loop_
_atom_site_label
_atom_site_type_symbol
_atom_site_fract_x
_atom_site_fract_y
_atom_site_fract_z
O1	O	1.690989	-0.139145	-0.094032
O2	O	1.327025	-0.153029	-0.094028
O3	O	1.500936	0.004873	-0.094023
O4	O	1.517078	-0.297047	-0.094037
O5	O	1.486433	-0.008272	0.093984
O6	O	1.312522	-0.166174	0.093979
O7	O	1.676486	-0.152290	0.093975
Zn8	Zn	1.492202	-0.161319	0.123828
Zn9	Zn	1.511310	-0.144000	-0.123880
O10	O	1.502575	-0.310193	0.093970
C11	C	1.272864	-0.158582	-0.000024
C12	C	1.133088	-0.155533	-0.000022
C13	C	1.117253	-0.169876	0.204949
C14	C	1.043670	-0.175617	0.307431
C15	C	0.912339	-0.172750	0.307426
C16	C	0.854589	-0.164137	0.204928
C17	C	0.928172	-0.158395	0.102447
C18	C	1.059505	-0.161267	0.102462
C19	C	0.944007	-0.144045	-0.102522
C20	C	1.075338	-0.146920	-0.102520
C21	C	0.886257	-0.135431	-0.205020
C22	C	0.959840	-0.129697	-0.307504
C23	C	1.091179	-0.132567	-0.307495
C24	C	1.148921	-0.141178	-0.205002
C25	C	1.488232	0.036960	-0.000020
C26	C	1.471970	0.152155	-0.000021
C27	C	1.730647	-0.146737	-0.000031
C28	C	1.870424	-0.149786	-0.000040
C29	C	1.515280	-0.342280	-0.000035
C30	C	1.531542	-0.457473	-0.000041
C31	C	1.667476	0.391709	-0.000047
C32	C	1.652202	0.499945	-0.000049
C33	C	1.426149	0.476864	-0.000035
C34	C	1.441423	0.368629	-0.000033
C35	C	1.562090	0.326055	-0.000037
C36	C	1.577363	0.217817	-0.000028
C37	C	1.351312	0.194739	-0.000021
C38	C	1.336038	0.302975	-0.000023
N39	N	1.479170	-0.173139	0.292881
N40	N	1.524350	-0.132173	-0.292934
C41	C	1.615023	-0.049868	0.529533
C42	C	1.605924	-0.058138	0.647875
C43	C	1.451867	-0.197941	0.647908
C44	C	1.460966	-0.189672	0.529567
C45	C	1.542548	-0.115634	0.470383
C46	C	1.551653	-0.107370	0.352039
C47	C	1.397590	-0.247168	0.352075
C48	C	1.388491	-0.255437	0.470417
H49	H	0.747652	-0.161789	0.204934
H50	H	1.765727	0.357045	-0.000040
C51	C	0.741789	-0.132280	-0.205022
N52	N	0.632974	-0.129911	-0.205026
C53	C	1.362101	-0.279351	0.713030
N54	N	1.294479	-0.340663	0.762082
H55	H	1.265498	0.141270	-0.000005
H56	H	1.618085	-0.047088	0.303853
C57	C	1.704769	0.031568	0.464429
N58	N	1.772366	0.092909	0.415394
H59	H	1.738019	0.553398	-0.000060
C60	C	1.293425	0.523714	-0.000019
N61	N	1.193454	0.559003	0.000001
C62	C	1.685649	0.014213	0.712935
N63	N	1.745698	0.068713	0.761939
C64	C	1.203309	0.349818	-0.000005
N65	N	1.103335	0.385098	0.000017
H66	H	1.322065	-0.315715	0.518618
H67	H	1.338580	-0.300722	0.303902
H68	H	0.852427	-0.177433	0.390876
H69	H	1.224189	-0.172226	0.204963
H70	H	0.912809	-0.122679	-0.390950
C71	C	1.107203	-0.185140	0.420174
N72	N	1.155052	-0.192329	0.505091
H73	H	1.151083	-0.127888	-0.390949
H74	H	1.255857	-0.143521	-0.204984
C75	C	1.710098	0.170988	-0.000036
N76	N	1.810079	0.135720	-0.000048
