data_functionalizedCrystal
_audit_creation_method	'MofGen! by Chris Wilmer'
_symmetry_space_group_name_H-M	'P1'
_symmetry_Int_Tables_number	1
_symmetry_cell_setting	triclinic
loop_
_symmetry_equiv_pos_as_xyz
  x,y,z
_cell_length_a	16.776229
_cell_length_b	17.699083
_cell_length_c	17.699077
_cell_angle_alpha	96.718205
_cell_angle_beta	89.993415
_cell_angle_gamma	90.007545
loop_
_atom_site_label
_atom_site_type_symbol
_atom_site_fract_x
_atom_site_fract_y
_atom_site_fract_z
O1	O	-0.066279	-0.095691	1.004081
O2	O	-0.066283	-0.108149	0.783702
O3	O	-0.066274	0.008269	0.900118
O4	O	-0.066288	-0.212109	0.887666
O5	O	0.066302	0.008276	0.900103
O6	O	0.066293	-0.108142	0.783687
O7	O	0.066297	-0.095684	1.004066
Zn8	Zn	0.087345	-0.101912	0.893874
Zn9	Zn	-0.087331	-0.101921	0.893894
O10	O	0.066288	-0.212102	0.887650
C11	C	0.000004	-0.107700	0.755498
C12	C	0.000003	-0.106363	0.671479
C13	C	0.000014	0.036470	0.899664
C14	C	0.000015	0.120488	0.898326
N15	N	0.206556	-0.101905	0.893866
N16	N	-0.206542	-0.101922	0.893909
C17	C	0.248277	-0.050376	0.945430
C18	C	0.331729	-0.050376	0.945434
C19	C	0.373459	-0.101908	0.893877
C20	C	0.331732	-0.153439	0.842307
C21	C	0.248281	-0.153435	0.842300
C22	C	0.668279	-0.153454	0.842334
C23	C	0.751735	-0.153455	0.842347
C24	C	0.751727	-0.050394	0.945469
C25	C	0.668276	-0.050390	0.945462
C26	C	0.626557	-0.101919	0.893889
C27	C	0.536068	-0.101918	0.893885
C28	C	0.463946	-0.101913	0.893885
C29	C	-0.000002	-0.240303	0.888104
C30	C	-0.000008	-0.324321	0.889443
C31	C	0.000017	0.169110	0.966659
C32	C	0.000010	0.248054	0.965397
C33	C	0.000006	0.278373	0.895800
C34	C	0.000001	0.229744	0.827461
C35	C	0.000003	0.150803	0.828724
C36	C	-0.000005	0.548107	0.822366
C37	C	-0.000004	0.627055	0.821108
C38	C	0.000002	0.645358	0.959039
C39	C	0.000003	0.566417	0.960302
C40	C	-0.000006	0.517795	0.891963
C41	C	0.000000	0.432196	0.893333
C42	C	0.000006	0.363971	0.894430
C43	C	0.072271	-0.105729	0.632003
C44	C	0.072272	-0.104461	0.553061
C45	C	0.000004	-0.103832	0.513595
C46	C	-0.072270	-0.104463	0.553076
C47	C	-0.072270	-0.105726	0.632018
C48	C	-0.072271	-0.099370	0.234713
C49	C	-0.072265	-0.098110	0.155766
C50	C	0.072271	-0.098105	0.155756
C51	C	0.072271	-0.099367	0.234698
C52	C	-0.000002	-0.099995	0.274173
C53	C	-0.000002	-0.101369	0.359772
C54	C	0.000003	-0.102464	0.427997
C55	C	0.000008	-0.096133	1.032271
C56	C	0.000004	-0.097470	1.116289
H57	H	0.214306	-0.008416	0.987417
H58	H	0.000005	0.684956	1.014683
H59	H	0.785704	-0.008434	0.987460
H60	H	0.000014	0.287639	1.021041
H61	H	0.000010	0.541735	1.016974
H62	H	-0.000006	0.651737	0.764431
H63	H	-0.131118	-0.097597	0.123635
H64	H	-0.000012	0.508528	0.766721
O65	O	0.000006	0.262440	0.752393
H66	H	0.000017	0.325502	0.762993
O67	O	0.150225	-0.097423	0.113175
H68	H	0.200476	-0.098083	0.153880
O69	O	-0.150220	-0.103788	0.510515
H70	H	-0.138080	-0.102813	0.448988
H71	H	0.785710	-0.195420	0.800360
O72	O	0.000009	0.098354	0.755023
H73	H	0.000015	0.132697	0.706415
H74	H	0.634317	-0.195411	0.800344
O75	O	-0.150219	-0.100055	0.277285
H76	H	-0.200468	-0.099415	0.236576
H77	H	0.131121	-0.106247	0.664130
H78	H	0.131121	-0.103932	0.520925
H79	H	0.214312	-0.195394	0.800310
O80	O	0.000013	0.136409	1.041725
H81	H	0.000004	0.183485	1.089028
H82	H	-0.131118	-0.106244	0.664158
O83	O	0.150221	-0.100062	0.277258
H84	H	0.184885	-0.048254	0.268955
O85	O	0.376732	0.005188	1.001063
H86	H	0.333695	0.041010	1.036924
O87	O	0.376734	-0.209026	0.786699
H88	H	0.441772	-0.200379	0.795372
H89	H	0.634303	-0.008431	0.987447
