data_functionalizedCrystal
_audit_creation_method	'MofGen! by Chris Wilmer'
_symmetry_space_group_name_H-M	'P1'
_symmetry_Int_Tables_number	1
_symmetry_cell_setting	triclinic
loop_
_symmetry_equiv_pos_as_xyz
  x,y,z
_cell_length_a	10.489716
_cell_length_b	19.188930
_cell_length_c	8.965430
_cell_angle_alpha	89.996700
_cell_angle_beta	89.995014
_cell_angle_gamma	83.836959
loop_
_atom_site_label
_atom_site_type_symbol
_atom_site_fract_x
_atom_site_fract_y
_atom_site_fract_z
O1	O	1.691874	0.098414	-0.124046
O2	O	1.320467	0.107678	-0.124054
O3	O	1.516889	0.001462	-0.124021
O4	O	1.495453	0.204630	-0.124079
O5	O	1.516866	0.001472	0.124058
O6	O	1.320444	0.107688	0.124025
O7	O	1.691851	0.098424	0.124033
Cu8	Cu	1.506146	0.103057	0.146681
Cu9	Cu	1.506173	0.103045	-0.146701
O10	O	1.495430	0.204641	0.124000
C11	C	1.272939	0.106987	-0.000015
C12	C	1.131355	0.104905	-0.000016
C13	C	1.032224	0.170040	-0.000039
C14	C	0.955637	0.135626	0.122294
C15	C	0.955666	0.135601	-0.122292
C16	C	1.056632	0.070518	0.122417
C17	C	1.056667	0.070502	-0.122279
C18	C	0.980129	0.036041	0.000084
C19	C	1.516183	-0.024549	0.000023
C20	C	1.514099	-0.102067	0.000036
C21	C	1.629353	-0.146225	0.000045
C22	C	1.627395	-0.219061	0.000021
C23	C	1.510177	-0.247738	0.000018
C24	C	1.394908	-0.203571	0.000000
C25	C	1.396869	-0.130735	0.000009
N26	N	1.420570	-0.356335	0.084442
N27	N	1.418715	-0.425526	0.084437
C28	C	1.504262	-0.467186	-0.000012
N29	N	1.591753	-0.437042	-0.084437
N30	N	1.593612	-0.367845	-0.084425
C31	C	1.508038	-0.326714	0.000007
C32	C	1.617401	-0.590321	-0.000031
C33	C	1.615438	-0.663159	-0.000064
C34	C	1.382948	-0.647667	-0.000070
C35	C	1.384914	-0.574831	-0.000052
C36	C	1.502144	-0.546163	-0.000025
C37	C	1.739379	0.099115	-0.000010
C38	C	1.880964	0.101198	-0.000018
C39	C	1.496135	0.230651	-0.000047
C40	C	1.498219	0.308170	-0.000070
N41	N	1.506136	0.103065	0.353030
C42	C	1.415268	0.152172	0.450320
C43	C	1.530447	0.166295	0.549732
C44	C	1.390998	0.088952	0.549746
C45	C	1.621374	0.117220	0.450252
C46	C	1.481848	0.039850	0.450258
C47	C	1.597111	0.053946	0.549624
N48	N	1.506167	0.103044	0.646949
H49	H	1.055627	0.226697	0.000059
H50	H	0.911530	0.163127	0.225699
Cl51	Cl	1.251967	-0.075220	-0.000002
Cl52	Cl	0.944352	-0.051495	0.000217
Cl53	Cl	1.771762	0.135732	0.383071
Cl54	Cl	1.764772	-0.554278	0.000011
Cl55	Cl	1.240648	0.070535	0.617224
H56	H	1.100553	0.043042	0.225942
Cl57	Cl	1.760343	-0.718673	-0.000062
H58	H	1.674053	0.012408	0.592952
H59	H	1.287507	-0.671014	-0.000080
H60	H	1.461246	-0.013584	0.406529
Cl61	Cl	1.240015	-0.519315	-0.000057
Cl62	Cl	1.296740	0.216341	0.382991
H63	H	1.551014	0.219745	0.593425
H64	H	1.299469	-0.226923	-0.000006
H65	H	1.100786	0.043023	-0.225689
H66	H	0.911577	0.163106	-0.225699
H67	H	1.724810	-0.122888	0.000062
H68	H	1.721252	-0.255021	0.000023
