data_functionalizedCrystal
_audit_creation_method	'MofGen! by Chris Wilmer'
_symmetry_space_group_name_H-M	'P1'
_symmetry_Int_Tables_number	1
_symmetry_cell_setting	triclinic
loop_
_symmetry_equiv_pos_as_xyz
  x,y,z
_cell_length_a	10.654541
_cell_length_b	10.654550
_cell_length_c	9.730217
_cell_angle_alpha	90.000006
_cell_angle_beta	89.997325
_cell_angle_gamma	95.515570
loop_
_atom_site_label
_atom_site_type_symbol
_atom_site_fract_x
_atom_site_fract_y
_atom_site_fract_z
O1	O	0.176396	-1.667838	-0.114187
O2	O	0.193202	-1.302359	-0.114212
O3	O	0.002060	-1.493503	-0.114190
O4	O	0.367539	-1.476694	-0.114208
O5	O	0.002060	-1.493490	0.114390
O6	O	0.193202	-1.302346	0.114368
O7	O	0.176396	-1.667825	0.114393
Zn8	Zn	0.184799	-1.485084	0.150673
Zn9	Zn	0.184799	-1.485100	-0.150491
O10	O	0.367539	-1.476681	0.114372
C11	C	-0.044738	-1.492263	0.000099
C12	C	-0.184182	-1.488572	0.000096
C13	C	0.191968	-1.255555	0.000075
C14	C	0.188276	-1.116112	0.000066
C15	C	0.177630	-1.714629	0.000103
C16	C	0.181322	-1.854072	0.000104
C17	C	-0.212153	-1.717137	0.000129
C18	C	-0.291647	-1.829680	0.000149
C19	C	-0.422665	-1.826204	0.000144
C20	C	-0.474190	-1.710173	0.000116
C21	C	-0.394696	-1.597630	0.000097
C22	C	-0.263676	-1.601118	0.000106
C23	C	-0.366725	-1.369069	0.000054
C24	C	-0.235707	-1.372541	0.000068
C25	C	-0.418251	-1.253037	0.000026
C26	C	-0.338756	-1.140492	0.000017
C27	C	-0.207731	-1.143972	0.000023
C28	C	-0.156213	-1.259998	0.000049
C29	C	0.414337	-1.477921	0.000080
C30	C	0.553780	-1.481612	0.000073
N31	N	0.184799	-1.485081	0.356209
C32	C	0.300818	-1.036625	0.000064
C33	C	0.297342	-0.905604	0.000088
C34	C	0.068772	-0.933569	0.000110
C35	C	0.072250	-1.064588	0.000095
N36	N	0.184790	-1.485113	-0.356028
C37	C	0.015583	-1.654440	0.643953
C38	C	-0.069024	-1.739092	0.572003
C39	C	-0.069028	-1.739076	0.428123
C40	C	0.015588	-1.654401	0.356190
C41	C	0.100195	-1.569749	0.428139
C42	C	0.100187	-1.569772	0.572023
C43	C	0.269406	-1.400430	0.428159
C44	C	0.269405	-1.400438	0.572039
C45	C	0.354022	-1.315755	0.356225
C46	C	0.438625	-1.231095	0.428175
C47	C	0.438624	-1.231114	0.572063
C48	C	0.354012	-1.315786	0.643988
H49	H	-0.249680	-1.924150	0.000183
H50	H	0.395294	-1.078571	0.000050
H51	H	-0.143012	-1.052325	0.000001
C52	C	-0.162102	-1.832230	0.651127
C53	C	-0.305141	-1.828888	0.631345
C54	C	-0.398216	-1.922029	0.710462
C55	C	-0.348253	-2.018511	0.809360
C56	C	-0.205207	-2.021857	0.829147
C57	C	-0.112132	-1.928717	0.750030
H58	H	-0.342133	-1.757463	0.558131
H59	H	-0.504109	-1.919551	0.695814
H60	H	-0.417153	-2.087459	0.867927
H61	H	-0.168215	-2.093283	0.902361
H62	H	-0.006239	-1.931194	0.764678
H63	H	0.507526	-1.162185	0.630637
H64	H	0.015567	-1.654452	0.761107
C65	C	-0.162094	-1.832191	0.348972
C66	C	-0.305135	-1.828857	0.368756
C67	C	-0.398202	-1.921972	0.289605
C68	C	-0.348227	-2.018422	0.190669
C69	C	-0.205179	-2.021760	0.170880
C70	C	-0.112113	-1.928645	0.250031
H71	H	-0.342136	-1.757456	0.441999
H72	H	-0.504096	-1.919501	0.304255
H73	H	-0.417120	-2.087351	0.132077
H74	H	-0.168178	-2.093161	0.097638
H75	H	-0.006219	-1.931116	0.235382
H76	H	-0.380719	-1.046028	-0.000015
H77	H	-0.025693	-0.891602	0.000142
H78	H	-0.105472	-1.719978	0.000152
H79	H	-0.019401	-1.129309	0.000100
H80	H	0.015591	-1.654403	0.239035
H81	H	-0.049533	-1.262843	0.000062
H82	H	-0.487390	-1.917847	0.000149
H83	H	-0.580873	-1.707354	0.000096
H84	H	-0.524933	-1.250216	0.000014
H85	H	0.354021	-1.315750	0.239071
H86	H	0.388985	-0.840891	0.000090
H87	H	0.507518	-1.162165	0.369598
H88	H	0.354000	-1.315805	0.761143
