data_functionalizedCrystal
_audit_creation_method	'MofGen! by Chris Wilmer'
_symmetry_space_group_name_H-M	'P1'
_symmetry_Int_Tables_number	1
_symmetry_cell_setting	triclinic
loop_
_symmetry_equiv_pos_as_xyz
  x,y,z
_cell_length_a	18.760490
_cell_length_b	14.628931
_cell_length_c	14.628931
_cell_angle_alpha	60.000028
_cell_angle_beta	90.018495
_cell_angle_gamma	60.024305
loop_
_atom_site_label
_atom_site_type_symbol
_atom_site_fract_x
_atom_site_fract_y
_atom_site_fract_z
Zr1	Zr	0.686539	1.000945	-0.119861
O2	O	0.572746	1.191590	-0.265839
O3	O	0.721423	0.810257	-0.075110
O4	O	0.721423	1.000963	-0.265816
O5	O	0.572746	1.000885	0.075299
O6	O	0.838701	1.001025	-0.265799
O7	O	0.572746	1.000884	-0.075133
O8	O	0.838701	0.659888	0.075339
O9	O	0.572746	1.342022	-0.265839
O10	O	0.823824	0.888752	-0.056012
O11	O	0.736300	0.888706	0.056240
O12	O	0.736300	1.113237	-0.168291
O13	O	0.648776	1.113191	-0.056039
Zr14	Zr	0.873584	1.001045	0.120088
Zr15	Zr	0.873584	1.001044	-0.119833
Zr16	Zr	0.686538	1.000945	0.120060
Zr17	Zr	0.686538	1.240867	-0.119861
Zr18	Zr	0.873585	0.761123	0.120089
O19	O	0.838700	1.191732	0.075338
O20	O	0.838701	1.191731	-0.265799
O21	O	0.572745	1.191591	0.075298
O22	O	0.987377	0.810400	0.266066
O23	O	0.987378	0.810399	-0.075071
O24	O	0.721422	0.810258	0.266027
O25	O	0.987377	1.001105	-0.075071
O26	O	0.838700	1.001027	0.266044
O27	O	0.721422	1.000964	0.266026
O28	O	0.987377	1.001105	0.075360
O29	O	0.721422	1.342101	-0.265817
O30	O	0.838701	0.659888	0.266044
O31	O	0.987377	0.659967	0.266066
O32	O	0.987378	0.659967	0.075361
O33	O	0.572745	1.342023	-0.075134
O34	O	0.721422	1.342102	-0.075111
O35	O	0.823823	0.888753	0.168519
O36	O	0.911347	0.888799	0.056266
O37	O	0.823823	1.113284	-0.056013
O38	O	0.736299	1.113237	0.056240
C39	C	0.780062	0.700889	0.000114
C40	C	0.780062	0.599036	0.000115
C41	C	0.718660	0.632353	-0.078654
C42	C	0.718659	0.527084	-0.078656
C43	C	0.546096	1.000870	0.000079
C44	C	0.466690	1.000828	0.000067
C45	C	0.130702	1.001127	-0.082727
C46	C	0.130818	1.001127	0.083029
C47	C	0.205465	1.001063	0.083011
C48	C	0.242734	1.001029	0.000123
C49	C	0.205357	1.001059	-0.082746
C50	C	0.242852	1.001020	0.165885
C51	C	0.317504	1.000954	0.165871
C52	C	0.354771	1.000929	0.082978
C53	C	0.317389	1.000961	0.000104
C54	C	0.354658	1.000926	-0.082783
C55	C	0.317274	1.000967	-0.165662
C56	C	0.242624	1.001034	-0.165639
C57	C	0.429421	1.000863	0.082955
C58	C	0.429313	1.000858	-0.082802
C59	C	1.014027	1.001119	0.000149
C60	C	1.093433	1.001161	0.000160
C61	C	0.780062	1.000994	-0.299991
C62	C	0.780062	1.000994	-0.401844
C63	C	0.780061	1.301101	0.000113
C64	C	0.780061	1.402954	0.000113
C65	C	0.736644	1.112353	-0.502951
C66	C	0.736643	1.112355	-0.608222
C67	C	0.780061	1.000996	0.300219
C68	C	0.780061	1.000996	0.402071
C69	C	1.014028	0.701013	0.000149
C70	C	1.093434	0.599202	0.000161
C71	C	0.780062	0.700890	0.300219
C72	C	0.780062	0.599037	0.402072
C73	C	1.014027	0.701014	0.300254
C74	C	1.093433	0.599203	0.402119
C75	C	0.546096	1.300975	-0.300026
C76	C	0.466690	1.402786	-0.401891
C77	C	0.546095	1.300976	0.000078
C78	C	0.466689	1.402787	0.000066
C79	C	0.780061	1.301100	-0.299992
C80	C	0.780061	1.402953	-0.401845
C81	C	1.085037	0.551366	-0.058451
C82	C	1.159640	0.455717	-0.058463
C83	C	1.242639	0.407899	0.000146
C84	C	1.251034	0.455745	0.058760
C85	C	1.176432	0.551398	0.058764
C86	C	1.176417	0.551416	0.391361
C87	C	1.251035	0.455767	0.487065
C88	C	1.242666	0.407901	0.593525
C89	C	1.159673	0.455698	0.604281
C90	C	1.085058	0.551351	0.508578
C91	C	0.383706	1.450585	-0.391133
C92	C	0.309088	1.546263	-0.486837
C93	C	0.317457	1.594135	-0.593297
C94	C	0.400450	1.546332	-0.604053
C95	C	0.475065	1.450662	-0.508350
C96	C	0.475086	1.450633	0.058669
C97	C	0.400483	1.546309	0.058654
C98	C	0.317484	1.594130	0.000042
C99	C	0.309089	1.546280	-0.058568
C100	C	0.383691	1.450613	-0.058559
C101	C	0.823479	0.553651	0.503179
C102	C	0.823480	0.448381	0.608451
H103	H	0.832629	0.374594	0.067557
H104	H	0.860653	0.409348	0.695187
H105	H	1.303378	0.330011	0.000135
Cl106	Cl	1.187003	0.611515	0.132466
H107	H	0.241501	1.585231	-0.106288
H108	H	0.459651	1.000837	-0.150303
Cl109	Cl	0.373120	1.390467	-0.132230
Cl110	Cl	0.722674	0.463196	0.464249
Cl111	Cl	0.861230	0.434675	0.104230
H112	H	1.183248	0.590374	0.304684
H113	H	0.666089	0.555434	-0.146090
H114	H	1.318622	0.416797	0.106477
Cl115	Cl	0.204765	1.606334	-0.473290
Cl116	Cl	1.355358	0.395694	0.473517
Cl117	Cl	0.476418	1.000800	0.187143
Cl118	Cl	0.410956	1.606522	-0.737898
H119	H	1.017462	0.590298	-0.106191
Cl120	Cl	0.880865	0.613985	0.516508
H121	H	1.303430	0.330014	0.671443
H122	H	1.152872	0.416711	0.690973
Cl123	Cl	0.679245	1.259560	-0.742135
Cl124	Cl	0.364140	1.000912	-0.269853
H125	H	0.256693	1.672035	-0.671216
H126	H	0.212182	1.001065	-0.233115
Cl127	Cl	1.149067	0.395583	-0.132149
H128	H	0.817230	0.905652	-0.511196
Cl129	Cl	0.837460	0.853792	-0.388514
H130	H	0.100260	1.001165	-0.150209
Cl131	Cl	0.722664	0.538718	0.388743
H132	H	1.017491	0.590247	0.517353
H133	H	0.376875	1.411614	-0.304457
Cl134	Cl	0.579386	1.390574	-0.521894
Cl135	Cl	0.579418	1.390542	0.132356
H136	H	0.666096	0.738811	-0.146093
H137	H	0.407335	1.585252	0.106385
H138	H	0.100475	1.001146	0.150518
Cl139	Cl	0.196006	1.001050	0.270088
H140	H	0.256745	1.672028	0.000043
H141	H	0.347937	1.000923	0.233354
H142	H	0.699477	1.207690	-0.511577
