data_functionalizedCrystal
_audit_creation_method	'MofGen! by Chris Wilmer'
_symmetry_space_group_name_H-M	'P1'
_symmetry_Int_Tables_number	1
_symmetry_cell_setting	triclinic
loop_
_symmetry_equiv_pos_as_xyz
  x,y,z
_cell_length_a	16.109301
_cell_length_b	15.072220
_cell_length_c	16.109298
_cell_angle_alpha	89.995736
_cell_angle_beta	83.460834
_cell_angle_gamma	90.009777
loop_
_atom_site_label
_atom_site_type_symbol
_atom_site_fract_x
_atom_site_fract_y
_atom_site_fract_z
O1	O	1.103141	0.073716	0.106862
O2	O	1.603141	0.573716	0.606862
O3	O	0.861079	0.073728	0.120161
O4	O	1.361079	0.573728	0.620161
O5	O	0.988761	0.073728	-0.007520
O6	O	1.488761	0.573728	0.492480
O7	O	0.975459	0.073716	0.234543
O8	O	1.475459	0.573716	0.734543
O9	O	0.988729	-0.073837	-0.007513
O10	O	1.488729	0.426163	0.492487
O11	O	0.861047	-0.073837	0.120168
O12	O	1.361047	0.426163	0.620168
O13	O	1.103109	-0.073849	0.106869
O14	O	1.603109	0.426151	0.606869
Zn15	Zn	0.982073	-0.097272	0.113520
Zn16	Zn	1.482073	0.402728	0.613520
Zn17	Zn	0.982115	0.097151	0.113510
Zn18	Zn	1.482115	0.597151	0.613510
O19	O	0.975427	-0.073849	0.234550
O20	O	1.475427	0.426151	0.734550
C21	C	0.830088	-0.000052	0.119626
C22	C	1.330088	0.499948	0.619626
C23	C	0.737793	-0.000047	0.118011
C24	C	1.237793	0.499953	0.618011
N25	N	0.982051	-0.229961	0.113526
N26	N	1.482051	0.270039	0.613526
C27	C	0.515520	-0.000061	0.190019
C28	C	1.015520	0.499939	0.690019
C29	C	0.428799	-0.000066	0.188495
C30	C	0.928799	0.499934	0.688495
C31	C	0.448675	-0.000055	0.037006
C32	C	0.948675	0.499945	0.537006
C33	C	0.535394	-0.000056	0.038531
C34	C	1.035394	0.499944	0.538531
C35	C	0.568814	-0.000054	0.115039
C36	C	1.068814	0.499946	0.615039
C37	C	0.395375	-0.000059	0.111990
C38	C	0.895375	0.499941	0.611990
C39	C	0.301349	-0.000065	0.110337
C40	C	0.801349	0.499935	0.610337
C41	C	0.662846	-0.000050	0.116693
C42	C	1.162846	0.499950	0.616693
C43	C	0.982113	-0.589163	0.113507
C44	C	1.482113	-0.089163	0.613507
C45	C	0.913564	-0.551555	0.181598
C46	C	1.413564	-0.051555	0.681598
C47	C	0.913721	-0.448730	0.181846
C48	C	1.413721	0.051270	0.681846
C49	C	0.982082	-0.410958	0.113516
C50	C	1.482082	0.089042	0.613516
C51	C	1.068826	-0.448256	0.132440
C52	C	1.568826	0.051744	0.632440
C53	C	1.068442	-0.551114	0.132924
C54	C	1.568442	-0.051114	0.632924
C55	C	0.964692	-0.551257	0.026291
C56	C	1.464692	-0.051257	0.526291
C57	C	0.962701	-0.448394	0.026873
C58	C	1.462701	0.051606	0.526873
C59	C	0.982069	-0.310245	0.113520
C60	C	1.482069	0.189755	0.613520
C61	C	0.982131	-0.689876	0.113505
C62	C	1.482131	-0.189876	0.613505
C63	C	1.134100	-0.000067	0.107404
C64	C	1.634100	0.499933	0.607404
C65	C	1.226395	-0.000066	0.109019
C66	C	1.726395	0.499934	0.609019
C67	C	0.988207	-0.000051	-0.038491
C68	C	1.488207	0.499949	0.461509
C69	C	0.986593	-0.000040	-0.130787
C70	C	1.486593	0.499960	0.369213
N71	N	0.982144	0.229840	0.113498
N72	N	1.482144	0.729840	0.613498
C73	C	0.981343	0.080379	-0.429859
C74	C	1.481343	0.580379	0.070141
C75	C	0.982870	0.080385	-0.343139
C76	C	1.482870	0.580385	0.156861
C77	C	0.982848	-0.080498	-0.343117
C78	C	1.482848	0.419502	0.156883
C79	C	0.981326	-0.080504	-0.429836
C80	C	1.481326	0.419496	0.070164
C81	C	0.980569	-0.000062	-0.473205
C82	C	1.480569	0.499938	0.026795
C83	C	0.983619	-0.000051	-0.299766
C84	C	1.483619	0.499949	0.200234
C85	C	0.985276	-0.000045	-0.205740
C86	C	1.485276	0.499955	0.294260
C87	C	0.978914	-0.000068	-0.567236
C88	C	1.478914	0.499932	-0.067236
C89	C	0.975981	-0.000068	0.265521
C90	C	1.475981	0.499932	0.765521
C91	C	0.977595	-0.000073	0.357817
C92	C	1.477595	0.499927	0.857817
H93	H	0.542727	-0.000066	0.252317
H94	H	1.042727	0.499934	0.752317
O95	O	0.371315	-0.000071	0.269364
O96	O	0.871315	0.499929	0.769364
H97	H	0.409126	-0.000064	0.322818
H98	H	0.909126	0.499936	0.822818
H99	H	0.983501	0.145889	-0.307852
H100	H	1.483501	0.645889	0.192148
H101	H	0.924532	-0.577398	0.245955
H102	H	1.424532	-0.077398	0.745955
O103	O	0.980532	0.167137	-0.476638
O104	O	1.480532	0.667137	0.023362
H105	H	0.923200	0.170981	-0.508710
H106	H	1.423200	0.670981	-0.008710
H107	H	0.983463	-0.145991	-0.307796
H108	H	1.483463	0.354009	0.192204
O109	O	0.980489	-0.167269	-0.476597
O110	O	1.480489	0.332731	0.023403
H111	H	0.981258	-0.223204	-0.431871
H112	H	1.481258	0.276796	0.068129
O113	O	0.412627	-0.000056	-0.045511
O114	O	0.912627	0.499944	0.454489
H115	H	0.434052	0.060087	-0.081544
H116	H	0.934052	0.560087	0.418456
H117	H	0.578789	-0.000053	-0.022530
H118	H	1.078789	0.499947	0.477470
O119	O	0.828309	-0.415317	0.166934
O120	O	1.328309	0.084683	0.666934
H121	H	0.786518	-0.472627	0.159482
H122	H	1.286518	0.027373	0.659482
O123	O	0.827873	-0.584358	0.166934
O124	O	1.327873	-0.084358	0.666934
H125	H	0.833222	-0.627821	0.110961
H126	H	1.333222	-0.127821	0.610961
O127	O	0.928452	-0.416117	0.267575
O128	O	1.428452	0.083883	0.767575
H129	H	0.989646	-0.441029	0.283135
H130	H	1.489646	0.058971	0.783135
O131	O	1.088784	-0.582895	0.217173
O132	O	1.588784	-0.082895	0.717173
H133	H	1.041139	-0.557452	0.266638
H134	H	1.541139	-0.057452	0.766638
O135	O	1.138039	-0.584076	0.069739
O136	O	1.638039	-0.084076	0.569739
H137	H	1.171826	-0.526547	0.038977
H138	H	1.671826	-0.026547	0.538977
O139	O	1.138016	-0.415850	0.068501
O140	O	1.638016	0.084150	0.568501
H141	H	1.111247	-0.372710	0.022449
H142	H	1.611247	0.127290	0.522449
O143	O	1.030887	-0.583533	-0.040819
O144	O	1.530887	-0.083533	0.459181
H145	H	1.000945	-0.622215	-0.087934
H146	H	1.500945	-0.122215	0.412066
O147	O	1.089657	-0.414145	0.215737
O148	O	1.589657	0.085855	0.715737
H149	H	1.038368	-0.370639	0.243785
H150	H	1.538368	0.129361	0.743785
O151	O	0.878178	-0.416107	0.007846
O152	O	1.378178	0.083893	0.507846
H153	H	0.864945	-0.442854	-0.053481
H154	H	1.364945	0.057146	0.446519
O155	O	0.882713	-0.585642	0.002182
O156	O	1.382713	-0.085642	0.502182
H157	H	0.831193	-0.565034	0.049945
H158	H	1.331193	-0.065034	0.549945
O159	O	1.024557	-0.414357	-0.043385
O160	O	1.524557	0.085643	0.456615
H161	H	1.021412	-0.340835	-0.045407
H162	H	1.521412	0.159165	0.454593
