data_functionalizedCrystal
_audit_creation_method	'MofGen! by Chris Wilmer'
_symmetry_space_group_name_H-M	'P1'
_symmetry_Int_Tables_number	1
_symmetry_cell_setting	triclinic
loop_
_symmetry_equiv_pos_as_xyz
  x,y,z
_cell_length_a	16.625546
_cell_length_b	12.759401
_cell_length_c	12.759393
_cell_angle_alpha	89.981504
_cell_angle_beta	90.036194
_cell_angle_gamma	89.977371
loop_
_atom_site_label
_atom_site_type_symbol
_atom_site_fract_x
_atom_site_fract_y
_atom_site_fract_z
Zn1	Zn	-0.320951	-1.606199	0.593948
Zn2	Zn	0.179049	-1.106199	1.093948
Zn3	Zn	-0.455807	-1.606069	0.418253
Zn4	Zn	0.044193	-1.106069	0.918253
Zn5	Zn	-0.320993	-1.430501	0.418287
Zn6	Zn	0.179007	-0.930501	0.918287
Zn7	Zn	-0.455745	-1.430465	0.593895
Zn8	Zn	0.044255	-0.930465	1.093895
O9	O	-0.388374	-1.518308	0.506096
O10	O	0.111626	-1.018308	1.006096
O11	O	-0.338848	-1.753203	0.570649
O12	O	0.161152	-1.253203	1.070649
O13	O	-0.437968	-1.582740	0.271237
O14	O	0.062032	-1.082740	0.771237
O15	O	-0.208155	-1.453876	0.441625
O16	O	0.291845	-0.953876	0.941625
O17	O	-0.437927	-1.753107	0.441568
O18	O	0.062073	-1.253107	0.941568
O19	O	-0.208124	-1.582961	0.570682
O20	O	0.291876	-1.082961	1.070682
O21	O	-0.338920	-1.453751	0.271261
O22	O	0.161080	-0.953751	0.771261
O23	O	-0.338860	-1.283475	0.441574
O24	O	0.161140	-0.783475	0.941574
O25	O	-0.437821	-1.453816	0.740923
O26	O	0.062179	-0.953816	1.240923
O27	O	-0.437862	-1.283449	0.570592
O28	O	0.062138	-0.783449	1.070592
O29	O	-0.338788	-1.582927	0.740962
O30	O	0.161212	-1.082927	1.240962
O31	O	-0.568632	-1.582706	0.441517
O32	O	-0.068632	-1.082706	0.941517
O33	O	-0.568586	-1.453691	0.570560
O34	O	-0.068586	-0.953691	1.070560
C35	C	-0.388359	-1.245341	0.506081
C36	C	0.111641	-0.745341	1.006081
C37	C	-0.388372	-1.128564	0.506100
C38	C	0.111628	-0.628564	1.006100
C39	C	-0.597865	-1.518209	0.506052
C40	C	-0.097865	-1.018209	1.006052
C41	C	-0.687486	-1.518263	0.506068
C42	C	-0.187486	-1.018263	1.006068
C43	C	-0.388293	-1.518382	0.780129
C44	C	0.111707	-1.018382	1.280129
C45	C	-0.388258	-1.518413	0.896906
C46	C	0.111742	-1.018413	1.396906
C47	C	-1.015662	-1.518446	0.506177
C48	C	-0.515662	-1.018446	1.006177
C49	C	-0.924353	-1.518392	0.506150
C50	C	-0.424353	-1.018392	1.006150
C51	C	-0.851577	-1.518353	0.506122
C52	C	-0.351577	-1.018353	1.006122
C53	C	-0.760262	-1.518301	0.506096
C54	C	-0.260262	-1.018301	1.006096
C55	C	-0.178065	-1.518437	0.506163
C56	C	0.321935	-1.018437	1.006163
C57	C	-0.088444	-1.518492	0.506191
C58	C	0.411556	-1.018492	1.006191
C59	C	-0.388390	-1.792342	0.506111
C60	C	0.111610	-1.292342	1.006111
C61	C	-0.388396	-1.909118	0.506117
C62	C	0.111604	-1.409118	1.006117
C63	C	-0.440005	-1.073717	0.573169
C64	C	0.059995	-0.573717	1.073169
C65	C	-0.440015	-0.963992	0.573180
C66	C	0.059985	-0.463992	1.073180
C67	C	-0.336758	-0.963974	0.439045
C68	C	0.163242	-0.463974	0.939045
C69	C	-0.336744	-1.073696	0.439040
C70	C	0.163256	-0.573696	0.939040
C71	C	-0.491634	-1.128585	0.640229
C72	C	0.008366	-0.628585	1.140229
C73	C	-0.543271	-1.073737	0.707303
C74	C	-0.043271	-0.573737	1.207303
C75	C	-0.543282	-0.964013	0.707314
C76	C	-0.043282	-0.464013	1.207314
C77	C	-0.491654	-0.909137	0.640252
C78	C	0.008346	-0.409137	1.140252
C79	C	-0.388397	-1.518296	0.233128
C80	C	0.111603	-1.018296	0.733128
C81	C	-0.388204	-1.518468	0.116352
C82	C	0.111796	-1.018468	0.616352
C83	C	-0.336687	-1.585650	0.951790
C84	C	0.163313	-1.085650	1.451790
C85	C	-0.336657	-1.585675	1.061514
C86	C	0.163343	-1.085675	1.561514
C87	C	-0.439778	-1.451223	1.061461
C88	C	0.060222	-0.951223	1.561461
C89	C	-0.439803	-1.451194	0.951739
C90	C	0.060197	-0.951194	1.451739
C91	C	-0.285142	-1.652870	0.896957
C92	C	0.214858	-1.152870	1.396957
C93	C	-0.233567	-1.720113	0.951841
C94	C	0.266433	-1.220113	1.451841
C95	C	-0.233538	-1.720138	1.061565
C96	C	0.266462	-1.220138	1.561565
C97	C	-0.285084	-1.652920	1.116405
C98	C	0.214916	-1.152920	1.616405
H99	H	-0.491633	-1.217928	0.640226
H100	H	0.008367	-0.717928	1.140226
H101	H	-0.285046	-1.652934	1.205750
H102	H	0.214954	-1.152934	1.705750
Cl103	Cl	-0.491662	-0.771196	0.640277
Cl104	Cl	0.008338	-0.271196	1.140277
H105	H	-0.585322	-0.919358	0.761936
H106	H	-0.085322	-0.419358	1.261936
H107	H	-0.294726	-0.919285	0.384446
H108	H	0.205274	-0.419285	0.884446
H109	H	-0.191537	-1.774883	1.106249
H110	H	0.308463	-1.274883	1.606249
Cl111	Cl	-0.271833	-1.142653	0.354723
Cl112	Cl	0.228167	-0.642653	0.854723
H113	H	-0.481744	-1.396497	1.106120
H114	H	0.018256	-0.896497	1.606120
Cl115	Cl	-0.608166	-1.142722	0.791610
Cl116	Cl	-0.108166	-0.642722	1.291610
H117	H	-0.285162	-1.652859	0.807614
H118	H	0.214838	-1.152859	1.307614
Cl119	Cl	-0.168758	-1.804595	0.882901
Cl120	Cl	0.331242	-1.304595	1.382901
H121	H	-0.481784	-1.396427	0.907051
H122	H	0.018216	-0.896427	1.407051
