data_functionalizedCrystal
_audit_creation_method	'MofGen! by Chris Wilmer'
_symmetry_space_group_name_H-M	'P1'
_symmetry_Int_Tables_number	1
_symmetry_cell_setting	triclinic
loop_
_symmetry_equiv_pos_as_xyz
  x,y,z
_cell_length_a	9.130313
_cell_length_b	10.654549
_cell_length_c	10.654543
_cell_angle_alpha	95.516525
_cell_angle_beta	89.998265
_cell_angle_gamma	89.999516
loop_
_atom_site_label
_atom_site_type_symbol
_atom_site_fract_x
_atom_site_fract_y
_atom_site_fract_z
O1	O	0.121755	1.667830	-0.176399
O2	O	0.621755	2.167830	0.323601
O3	O	0.121764	1.302351	-0.193206
O4	O	0.621764	1.802351	0.306794
O5	O	0.121762	1.493498	-0.002062
O6	O	0.621762	1.993498	0.497938
O7	O	0.121756	1.476683	-0.367542
O8	O	0.621756	1.976683	0.132458
O9	O	-0.121837	1.493496	-0.002053
O10	O	0.378163	1.993496	0.497947
O11	O	-0.121835	1.302349	-0.193196
O12	O	0.378165	1.802349	0.306804
O13	O	-0.121844	1.667828	-0.176390
O14	O	0.378156	2.167828	0.323610
Cu15	Cu	-0.144082	1.485088	-0.184792
Cu16	Cu	0.355918	1.985088	0.315208
Cu17	Cu	0.144002	1.485090	-0.184803
Cu18	Cu	0.644002	1.985090	0.315197
O19	O	-0.121843	1.476681	-0.367533
O20	O	0.378157	1.976681	0.132467
C21	C	-0.000035	1.255552	-0.191967
C22	C	0.499965	1.755552	0.308033
C23	C	-0.000031	1.116109	-0.188275
C24	C	0.499969	1.616109	0.311725
N25	N	-0.346705	1.485096	-0.184784
N26	N	0.153295	1.985096	0.315216
C27	C	-0.000033	1.492264	0.044740
C28	C	0.499967	1.992264	0.544740
C29	C	-0.000021	1.488575	0.184184
C30	C	0.499979	1.988575	0.684184
N31	N	0.346624	1.485093	-0.184802
N32	N	0.846624	1.985093	0.315198
C33	C	0.423276	1.569893	-0.100331
C34	C	0.923276	2.069893	0.399669
C35	C	0.576612	1.569898	-0.100325
C36	C	1.076612	2.069898	0.399675
C37	C	0.576633	1.400292	-0.269263
C38	C	1.076633	1.900292	0.230737
C39	C	0.423299	1.400293	-0.269274
C40	C	0.923299	1.900293	0.230726
C41	C	-0.000043	1.714627	-0.177628
C42	C	0.499957	2.214627	0.322372
C43	C	-0.000037	1.854070	-0.181320
C44	C	0.499963	2.354070	0.318680
C45	C	-0.000031	2.064587	-0.072256
C46	C	0.499969	2.564587	0.427744
C47	C	-0.000029	1.933567	-0.068778
C48	C	0.499971	2.433567	0.431222
C49	C	-0.000032	1.905600	-0.297348
C50	C	0.499968	2.405600	0.202652
C51	C	-0.000023	2.036618	-0.300825
C52	C	0.499977	2.536618	0.199175
C53	C	-0.000018	1.601119	0.263670
C54	C	0.499982	2.101119	0.763670
C55	C	0.000009	1.597646	0.394691
C56	C	0.500009	2.097646	0.894691
C57	C	0.000023	1.369075	0.366728
C58	C	0.500023	1.869075	0.866728
C59	C	0.000007	1.372550	0.235709
C60	C	0.500007	1.872550	0.735709
C61	C	-0.000027	1.477921	0.585665
C62	C	0.499973	1.977921	1.085665
C63	C	0.000022	1.481628	0.446224
C64	C	0.500022	1.981628	0.946224
H65	H	0.639018	1.638952	-0.031543
H66	H	1.139018	2.138952	0.468457
O67	O	0.651281	1.318086	-0.351360
O68	O	1.151281	1.818086	0.148640
C69	C	0.739966	1.385849	-0.429623
C70	C	1.239966	1.885849	0.070377
H71	H	0.762931	1.483763	-0.380689
H72	H	1.262931	1.983763	0.119311
H73	H	0.847792	1.333571	-0.448896
H74	H	1.347792	1.833571	0.051104
H75	H	0.680889	1.395005	-0.522566
H76	H	1.180889	1.895005	-0.022566
H77	H	-0.000038	1.695594	0.221723
H78	H	0.499962	2.195594	0.721723
H79	H	0.360885	1.331238	-0.338066
H80	H	0.860885	1.831238	0.161934
H81	H	-0.000031	2.129306	0.019389
H82	H	0.499969	2.629306	0.519389
H83	H	-0.000027	1.891625	0.025696
H84	H	0.499973	2.391625	0.525696
H85	H	-0.000028	1.840863	-0.388982
H86	H	0.499972	2.340863	0.111018
H87	H	-0.000020	2.078566	-0.395307
H88	H	0.499980	2.578566	0.104693
O89	O	-0.000058	1.707088	0.471723
O90	O	0.499942	2.207088	0.971723
C91	C	-0.000047	1.810233	0.398144
C92	C	0.499953	2.310233	0.898144
H93	H	-0.046179	1.779201	0.300658
H94	H	0.453821	2.279201	0.800658
H95	H	-0.070771	1.889154	0.445787
H96	H	0.429229	2.389154	0.945787
H97	H	0.116814	1.845749	0.388491
H98	H	0.616814	2.345749	0.888491
O99	O	-0.000028	1.256482	0.416990
O100	O	0.499972	1.756482	0.916990
C101	C	0.000019	1.277545	0.549675
C102	C	0.500019	1.777545	1.049675
H103	H	-0.046100	1.375287	0.579590
H104	H	0.453900	1.875287	1.079590
H105	H	-0.070698	1.203237	0.590546
H106	H	0.429302	1.703237	1.090546
H107	H	0.116889	1.271143	0.586183
H108	H	0.616889	1.771143	1.086183
O109	O	-0.000190	1.263303	0.158358
O110	O	0.499810	1.763303	0.658358
C111	C	-0.126376	1.258456	0.081766
C112	C	0.373624	1.758456	0.581766
H113	H	-0.168450	1.358199	0.074289
H114	H	0.331550	1.858199	0.574289
H115	H	-0.098004	1.212540	-0.016289
H116	H	0.401996	1.712540	0.483711
H117	H	-0.214709	1.200710	0.125363
H118	H	0.285291	1.700710	0.625363
O119	O	0.348635	1.652324	-0.018456
O120	O	0.848635	2.152324	0.481544
C121	C	0.259977	1.730265	-0.086599
C122	C	0.759977	2.230265	0.413401
H123	H	0.237010	1.680921	-0.184338
H124	H	0.737010	2.180921	0.315662
H125	H	0.152149	1.749779	-0.034390
H126	H	0.652149	2.249779	0.465610
H127	H	0.319077	1.823118	-0.096169
H128	H	0.819077	2.323118	0.403831
