data_functionalizedCrystal
_audit_creation_method	'MofGen! by Chris Wilmer'
_symmetry_space_group_name_H-M	'P1'
_symmetry_Int_Tables_number	1
_symmetry_cell_setting	triclinic
loop_
_symmetry_equiv_pos_as_xyz
  x,y,z
_cell_length_a	12.827893
_cell_length_b	12.759394
_cell_length_c	12.827885
_cell_angle_alpha	89.968776
_cell_angle_beta	89.980728
_cell_angle_gamma	90.014808
loop_
_atom_site_label
_atom_site_type_symbol
_atom_site_fract_x
_atom_site_fract_y
_atom_site_fract_z
Zn1	Zn	1.597674	-0.418216	-0.590838
Zn2	Zn	1.597569	-0.593932	-0.416094
Zn3	Zn	1.422915	-0.418268	-0.416112
Zn4	Zn	1.422902	-0.593854	-0.590794
O5	O	1.510265	-0.506068	-0.503460
O6	O	1.743896	-0.441537	-0.567669
O7	O	1.574363	-0.570684	-0.269860
O8	O	1.446146	-0.271240	-0.439316
O9	O	1.743819	-0.570634	-0.439285
O10	O	1.574541	-0.271202	-0.567686
O11	O	1.446045	-0.441624	-0.269873
O12	O	1.276677	-0.441548	-0.439273
O13	O	1.446124	-0.570501	-0.737036
O14	O	1.276668	-0.570551	-0.567611
O15	O	1.574528	-0.441461	-0.737069
O16	O	1.574350	-0.740943	-0.439243
O17	O	1.446023	-0.740885	-0.567594
C18	C	1.238755	-0.506047	-0.503440
C19	C	1.122602	-0.506064	-0.503456
C20	C	0.950750	-0.442163	-0.440081
C21	C	1.070800	-0.442145	-0.440063
C22	C	1.510202	-0.779035	-0.503434
C23	C	1.510271	-0.895812	-0.503458
C24	C	1.643999	-0.895818	-0.369906
C25	C	1.710890	-0.950682	-0.303143
C26	C	1.710951	-1.060404	-0.303171
C27	C	1.644116	-1.115264	-0.369973
C28	C	1.577225	-1.060400	-0.436736
C29	C	1.577169	-0.950676	-0.436698
C30	C	1.443504	-1.060393	-0.570292
C31	C	1.443436	-0.950672	-0.570260
C32	C	1.376670	-1.115253	-0.637094
C33	C	1.309772	-1.060389	-0.703854
C34	C	1.309712	-0.950661	-0.703822
C35	C	1.376545	-0.895808	-0.637024
C36	C	1.782835	-0.506089	-0.503480
C37	C	1.898988	-0.506098	-0.503489
C38	C	1.510336	-0.505967	-0.776030
C39	C	1.510366	-0.505924	-0.892183
C40	C	1.510356	-0.232034	-0.503508
C41	C	1.510395	-0.115257	-0.503528
C42	C	1.573912	-0.442058	-0.943984
C43	C	1.573944	-0.442012	-1.064034
C44	C	1.510254	-0.506092	-0.231950
C45	C	1.510426	-0.505839	-0.115797
H46	H	1.643942	-0.806477	-0.369863
Cl47	Cl	1.053888	-0.590586	-0.587271
H48	H	0.943550	-0.560815	-0.557766
H49	H	1.115314	-0.387412	-0.385773
H50	H	1.765308	-0.906006	-0.248755
Cl51	Cl	1.657950	-0.357595	-1.132806
H52	H	1.455981	-0.560560	-0.936711
H53	H	1.255246	-0.905997	-0.758193
H54	H	1.456024	-0.560524	-1.071256
H55	H	0.906189	-0.387437	-0.385813
Cl56	Cl	1.795048	-1.129379	-0.219244
H57	H	1.376729	-1.204595	-0.637117
Cl58	Cl	1.643753	-1.253199	-0.369563
H59	H	1.376497	-0.806467	-0.636984
Cl60	Cl	1.225768	-1.129360	-0.787830
Cl61	Cl	1.657847	-0.357661	-0.875245
