data_functionalizedCrystal
_audit_creation_method	'MofGen! by Chris Wilmer'
_symmetry_space_group_name_H-M	'P1'
_symmetry_Int_Tables_number	1
_symmetry_cell_setting	triclinic
loop_
_symmetry_equiv_pos_as_xyz
  x,y,z
_cell_length_a	15.995292
_cell_length_b	19.188924
_cell_length_c	14.472310
_cell_angle_alpha	89.996838
_cell_angle_beta	89.985801
_cell_angle_gamma	83.305290
loop_
_atom_site_label
_atom_site_type_symbol
_atom_site_fract_x
_atom_site_fract_y
_atom_site_fract_z
O1	O	1.110695	0.089798	-0.076870
O2	O	1.610695	0.589798	0.423130
O3	O	0.866872	0.100954	-0.076867
O4	O	1.366872	0.600954	0.423133
O5	O	0.995823	-0.006263	-0.076858
O6	O	1.495823	0.493737	0.423142
O7	O	0.981745	0.197016	-0.076879
O8	O	1.481745	0.697016	0.423121
O9	O	0.995790	-0.006257	0.076824
O10	O	1.495790	0.493743	0.576824
O11	O	0.866839	0.100960	0.076815
O12	O	1.366839	0.600960	0.576815
O13	O	1.110662	0.089805	0.076812
O14	O	1.610662	0.589805	0.576812
Cu15	Cu	0.988748	0.095383	0.090846
Cu16	Cu	1.488748	0.595383	0.590846
Cu17	Cu	0.988787	0.095376	-0.090901
Cu18	Cu	1.488787	0.595376	0.409099
O19	O	0.981711	0.197022	0.076803
O20	O	1.481711	0.697022	0.576803
C21	C	0.835662	0.100503	-0.000026
C22	C	1.335662	0.600503	0.499974
C23	C	0.742714	0.099142	-0.000024
C24	C	1.242714	0.599142	0.499976
C25	C	0.404994	0.094138	-0.000034
C26	C	0.904994	0.594138	0.499966
C27	C	0.428021	0.171524	-0.000385
C28	C	0.928021	0.671524	0.499615
C29	C	0.524691	0.172995	-0.000035
C30	C	1.024691	0.672995	0.499965
C31	C	0.572541	0.096621	-0.000030
C32	C	1.072541	0.596621	0.499970
C33	C	0.543563	0.057935	0.087731
C34	C	1.043563	0.557935	0.587731
C35	C	0.446776	0.057003	0.087801
C36	C	0.946776	0.557003	0.587801
C37	C	0.446964	0.055416	-0.086964
C38	C	0.946964	0.555416	0.413036
C39	C	0.543446	0.058284	-0.088120
C40	C	1.043446	0.558284	0.411880
C41	C	0.667232	0.098020	-0.000024
C42	C	1.167232	0.598020	0.499976
C43	C	0.310303	0.092736	-0.000033
C44	C	0.810303	0.592736	0.499967
C45	C	0.995351	-0.032272	-0.000016
C46	C	1.495351	0.467728	0.499984
C47	C	0.993986	-0.109780	-0.000014
C48	C	1.493986	0.390220	0.499986
C49	C	0.993366	-0.146184	-0.083786
C50	C	1.493366	0.353816	0.416214
C51	C	0.992071	-0.219010	-0.083793
C52	C	1.492071	0.280990	0.416207
C53	C	0.991412	-0.255431	-0.000023
C54	C	1.491412	0.244569	0.499977
C55	C	0.992027	-0.219018	0.083761
C56	C	1.492027	0.280982	0.583761
C57	C	0.993314	-0.146192	0.083765
C58	C	1.493314	0.353808	0.583765
N59	N	1.037028	-0.374983	0.062325
N60	N	1.537028	0.125017	0.562325
N61	N	1.035808	-0.444164	0.062315
N62	N	1.535808	0.055836	0.562315
C63	C	0.987534	-0.474849	-0.000032
C64	C	1.487534	0.025151	0.499968
N65	N	0.940537	-0.433740	-0.062381
N66	N	1.440537	0.066260	0.437619
N67	N	0.941762	-0.364553	-0.062374
N68	N	1.441762	0.135447	0.437626
C69	C	0.990017	-0.334397	-0.000018
C70	C	1.490017	0.165603	0.499982
C71	C	0.985509	-0.590219	-0.083817
C72	C	1.485509	-0.090219	0.416183
C73	C	0.984209	-0.663045	-0.083821
C74	C	1.484209	-0.163045	0.416179
C75	C	0.984173	-0.663053	0.083735
C76	C	1.484173	-0.163053	0.583735
C77	C	0.985465	-0.590227	0.083736
C78	C	1.485465	-0.090227	0.583736
C79	C	0.986137	-0.553814	-0.000043
C80	C	1.486137	-0.053814	0.499957
C81	C	1.141873	0.090255	-0.000032
C82	C	1.641873	0.590255	0.499968
C83	C	1.234821	0.091617	-0.000039
C84	C	1.734821	0.591617	0.499961
C85	C	0.982183	0.223031	-0.000041
C86	C	1.482183	0.723031	0.499959
C87	C	0.983549	0.300539	-0.000050
C88	C	1.483549	0.800539	0.499950
N89	N	0.988726	0.095388	0.218677
N90	N	1.488726	0.595388	0.718677
N91	N	0.988815	0.095365	-0.218732
N92	N	1.488815	0.595365	0.281268
C93	C	0.988786	0.095373	0.592768
C94	C	1.488786	0.595373	1.092768
C95	C	0.919557	0.152550	0.553597
C96	C	1.419557	0.652550	1.053597
C97	C	0.919715	0.152759	0.446509
C98	C	1.419715	0.652759	0.946509
C99	C	0.988755	0.095380	0.407177
C100	C	1.488755	0.595380	0.907177
C101	C	1.076064	0.111277	0.446011
C102	C	1.576064	0.611277	0.946011
C103	C	1.075674	0.111683	0.553132
C104	C	1.575674	0.611683	1.053132
C105	C	0.971486	0.022129	0.553305
C106	C	1.471486	0.522129	1.053305
C107	C	0.969481	0.022618	0.446178
C108	C	1.469481	0.522618	0.946178
C109	C	0.988744	0.095383	0.302289
C110	C	1.488744	0.595383	0.802289
C111	C	0.988803	0.095372	0.697656
C112	C	1.488803	0.595372	1.197656
H113	H	0.433181	-0.001546	-0.087553
H114	H	0.933181	0.498454	0.412447
H115	H	0.986051	-0.560570	-0.152035
H116	H	1.486051	-0.060570	0.347965
Br117	Br	0.381200	0.221241	-0.105288
Br118	Br	0.881200	0.721241	0.394712
Br119	Br	1.102167	0.199290	0.401272
Br120	Br	1.602167	0.699290	0.901272
Br121	Br	0.983359	-0.712451	-0.197522
Br122	Br	1.483359	-0.212451	0.302478
Br123	Br	1.164006	0.044834	0.596323
Br124	Br	1.664006	0.544834	1.096323
Br125	Br	0.938041	0.243360	0.403765
Br126	Br	1.438041	0.743360	0.903765
Br127	Br	1.055636	-0.048790	0.595521
Br128	Br	1.555636	0.451210	1.095521
Br129	Br	0.399634	0.095732	-0.197832
Br130	Br	0.899634	0.595732	0.302168
Br131	Br	0.556243	0.223490	-0.104892
Br132	Br	1.056243	0.723490	0.395108
Br133	Br	0.598736	-0.034634	-0.096948
Br134	Br	1.098736	0.465366	0.403052
H135	H	0.983630	-0.692705	0.151942
H136	H	1.483630	-0.192705	0.651942
H137	H	0.542968	0.203481	0.062976
H138	H	1.042968	0.703481	0.562976
H139	H	0.985976	-0.560587	0.151953
H140	H	1.485976	-0.060587	0.651953
H141	H	0.419846	0.083801	0.153400
H142	H	0.919846	0.583801	0.653400
Br143	Br	0.994275	-0.096770	-0.197485
Br144	Br	1.494275	0.403230	0.302515
H145	H	1.090960	0.165099	0.578102
H146	H	1.590960	0.665099	1.078102
H147	H	0.854809	0.143290	0.420255
H148	H	1.354809	0.643290	0.920255
H149	H	0.432434	0.000263	0.091792
H150	H	0.932434	0.500263	0.591792
Br151	Br	1.163964	0.043710	0.403552
Br152	Br	1.663964	0.543710	0.903552
Br153	Br	0.597009	-0.035742	0.093176
Br154	Br	1.097009	0.464258	0.593176
H155	H	0.909218	0.006840	0.580376
H156	H	1.409218	0.506840	1.080376
H157	H	0.854439	0.143237	0.579387
H158	H	1.354439	0.643237	1.079387
Br159	Br	0.862436	0.002507	0.403880
Br160	Br	1.362436	0.502507	0.903880
H161	H	1.016650	-0.021923	0.419408
H162	H	1.516650	0.478077	0.919408
H163	H	0.398879	0.201190	0.062193
H164	H	0.898879	0.701190	0.562193
H165	H	0.563508	0.084805	0.153039
H166	H	1.063508	0.584805	0.653039
H167	H	0.561925	0.086451	-0.153045
H168	H	1.061925	0.586451	0.346955
Br169	Br	0.937673	0.242637	0.598416
Br170	Br	1.437673	0.742637	1.098416
H171	H	0.991562	-0.248655	-0.152012
H172	H	1.491562	0.251345	0.347988
Br173	Br	0.991122	-0.268443	0.197450
Br174	Br	1.491122	0.231557	0.697450
H175	H	0.993815	-0.116552	0.151985
H176	H	1.493815	0.383448	0.651985
