data_functionalizedCrystal
_audit_creation_method	'MofGen! by Chris Wilmer'
_symmetry_space_group_name_H-M	'P1'
_symmetry_Int_Tables_number	1
_symmetry_cell_setting	triclinic
loop_
_symmetry_equiv_pos_as_xyz
  x,y,z
_cell_length_a	18.215407
_cell_length_b	12.759400
_cell_length_c	18.215399
_cell_angle_alpha	90.021909
_cell_angle_beta	90.017368
_cell_angle_gamma	90.011727
loop_
_atom_site_label
_atom_site_type_symbol
_atom_site_fract_x
_atom_site_fract_y
_atom_site_fract_z
Zn1	Zn	1.125126	-0.418349	0.416098
Zn2	Zn	1.458459	-0.085015	0.749432
Zn3	Zn	1.791793	0.248318	1.082765
Zn4	Zn	1.125057	-0.594046	0.293045
Zn5	Zn	1.458391	-0.260713	0.626378
Zn6	Zn	1.791724	0.072621	0.959712
Zn7	Zn	1.002059	-0.418374	0.293051
Zn8	Zn	1.335392	-0.085041	0.626384
Zn9	Zn	1.668725	0.248293	0.959718
Zn10	Zn	1.002047	-0.593978	0.416075
Zn11	Zn	1.335381	-0.260645	0.749409
Zn12	Zn	1.668714	0.072688	1.082742
O13	O	1.063572	-0.506187	0.354567
O14	O	1.396906	-0.172853	0.687901
O15	O	1.730239	0.160480	1.021234
O16	O	1.228101	-0.441673	0.399782
O17	O	1.561435	-0.108340	0.733116
O18	O	1.894768	0.224993	1.066449
O19	O	1.108717	-0.570782	0.190062
O20	O	1.442051	-0.237448	0.523395
O21	O	1.775384	0.095885	0.856728
O22	O	1.018417	-0.271350	0.309386
O23	O	1.351751	0.061984	0.642719
O24	O	1.685084	0.395317	0.976052
O25	O	1.228051	-0.570757	0.309376
O26	O	1.561384	-0.237424	0.642709
O27	O	1.894717	0.095909	0.976042
O28	O	1.108835	-0.271331	0.399788
O29	O	1.442168	0.062002	0.733121
O30	O	1.775501	0.395336	1.066455
O31	O	1.018351	-0.441716	0.190066
O32	O	1.351684	-0.108383	0.523399
O33	O	1.685017	0.224951	0.856733
O34	O	0.899073	-0.441650	0.309363
O35	O	1.232406	-0.108317	0.642697
O36	O	1.565740	0.225016	0.976030
O37	O	1.018398	-0.570642	0.519063
O38	O	1.351731	-0.237309	0.852396
O39	O	1.685065	0.096025	1.185729
O40	O	0.899065	-0.570666	0.399749
O41	O	1.232398	-0.237333	0.733082
O42	O	1.565731	0.096000	1.066415
O43	O	1.108824	-0.441608	0.519080
O44	O	1.442157	-0.108274	0.852413
O45	O	1.775490	0.225059	1.185746
O46	O	1.108706	-0.741058	0.309353
O47	O	1.442040	-0.407725	0.642686
O48	O	1.775373	-0.074391	0.976020
O49	O	1.018331	-0.741008	0.399743
O50	O	1.351665	-0.407675	0.733076
O51	O	1.684998	-0.074342	1.066410
C52	C	0.872366	-0.506154	0.354555
C53	C	1.205699	-0.172821	0.687888
C54	C	1.539033	0.160512	1.021221
C55	C	0.790567	-0.506166	0.354566
C56	C	1.123901	-0.172833	0.687900
C57	C	1.457234	0.160501	1.021233
C58	C	0.602399	-0.439090	0.401716
C59	C	0.935732	-0.105757	0.735049
C60	C	1.269065	0.227576	1.068382
C61	C	0.525540	-0.439099	0.401718
C62	C	0.858873	-0.105766	0.735051
C63	C	1.192207	0.227567	1.068385
C64	C	0.525498	-0.573313	0.307432
C65	C	0.858831	-0.239979	0.640765
C66	C	1.192165	0.093354	0.974099
C67	C	0.602355	-0.573298	0.307427
C68	C	0.935689	-0.239964	0.640760
C69	C	1.269022	0.093369	0.974093
C70	C	0.640804	-0.506188	0.354572
C71	C	0.974137	-0.172855	0.687906
C72	C	1.307470	0.160479	1.021239
C73	C	0.487088	-0.506212	0.354581
C74	C	0.820421	-0.172879	0.687914
C75	C	1.153754	0.160455	1.021247
C76	C	0.403754	-0.506222	0.354583
C77	C	0.737087	-0.172889	0.687916
C78	C	1.070421	0.160444	1.021250
C79	C	0.724143	-0.506176	0.354569
C80	C	1.057476	-0.172843	0.687903
C81	C	1.390809	0.160491	1.021236
C82	C	1.063530	-0.779154	0.354561
C83	C	1.396863	-0.445821	0.687894
C84	C	1.730197	-0.112487	1.021228
C85	C	1.063579	-0.895931	0.354583
C86	C	1.396913	-0.562597	0.687916
C87	C	1.730246	-0.229264	1.021249
C88	C	1.016511	-0.950805	0.401611
C89	C	1.349844	-0.617472	0.734945
C90	C	1.683178	-0.284138	1.068278
C91	C	1.016550	-1.060529	0.401618
C92	C	1.349883	-0.727196	0.734952
C93	C	1.683217	-0.393862	1.068285
C94	C	1.110732	-1.060495	0.307566
C95	C	1.444065	-0.727161	0.640899
C96	C	1.777399	-0.393828	0.974232
C97	C	1.110689	-0.950773	0.307556
C98	C	1.444022	-0.617439	0.640889
C99	C	1.777355	-0.284106	0.974222
C100	C	0.969402	-0.895963	0.448638
C101	C	1.302735	-0.562630	0.781972
C102	C	1.636068	-0.229296	1.115305
C103	C	0.922330	-0.950838	0.495672
C104	C	1.255663	-0.617504	0.829005
C105	C	1.588997	-0.284171	1.162338
C106	C	0.922369	-1.060562	0.495679
C107	C	1.255702	-0.727228	0.829012
C108	C	1.589036	-0.393895	1.162345
C109	C	0.969480	-1.115411	0.448652
C110	C	1.302813	-0.782078	0.781986
C111	C	1.636146	-0.448745	1.115319
C112	C	1.255525	-0.506220	0.354581
C113	C	1.588859	-0.172887	0.687914
C114	C	1.922192	0.160447	1.021247
C115	C	1.337324	-0.506234	0.354586
C116	C	1.670657	-0.172901	0.687920
C117	C	2.003991	0.160433	1.021253
C118	C	1.063617	-0.506114	0.546520
C119	C	1.396951	-0.172781	0.879854
C120	C	1.730284	0.160552	1.213187
C121	C	1.063636	-0.506083	0.628319
C122	C	1.396970	-0.172750	0.961653
C123	C	1.730303	0.160583	1.294986
C124	C	1.063635	-0.232154	0.354590
C125	C	1.396968	0.101180	0.687923
C126	C	1.730302	0.434513	1.021257
C127	C	1.063662	-0.115377	0.354600
C128	C	1.396995	0.217956	0.687933
C129	C	1.730328	0.551290	1.021266
C130	C	1.063570	-0.506183	0.163361
C131	C	1.396903	-0.172850	0.496695
C132	C	1.730237	0.160484	0.830028
C133	C	1.063694	-0.505918	0.081563
C134	C	1.397027	-0.172585	0.414896
C135	C	1.730360	0.160749	0.748229
C136	C	1.110738	-0.438832	0.816523
C137	C	1.444071	-0.105499	1.149857
C138	C	1.777404	0.227834	1.483190
C139	C	1.110747	-0.438802	0.893382
C140	C	1.444080	-0.105469	1.226716
C141	C	1.777413	0.227865	1.560049
C142	C	1.016587	-0.573172	0.893353
C143	C	1.349920	-0.239839	1.226687
C144	C	1.683254	0.093495	1.560020
C145	C	1.016575	-0.573197	0.816496
C146	C	1.349908	-0.239863	1.149829
C147	C	1.683242	0.093470	1.483163
C148	C	1.063655	-0.506028	0.778083
C149	C	1.396988	-0.172695	1.111416
C150	C	1.730321	0.160638	1.444750
C151	C	1.063675	-0.505973	0.931799
C152	C	1.397009	-0.172640	1.265132
C153	C	1.730342	0.160693	1.598466
C154	C	1.063684	-0.505940	1.015133
C155	C	1.397018	-0.172607	1.348466
C156	C	1.730351	0.160726	1.681799
C157	C	1.063645	-0.506059	0.694744
C158	C	1.396978	-0.172726	1.028077
C159	C	1.730311	0.160607	1.361411
H160	H	0.494184	-0.627952	0.269048
H161	H	0.827518	-0.294619	0.602382
H162	H	1.160851	0.038715	0.935715
O163	O	0.969365	-0.777619	0.448622
O164	O	1.302698	-0.444285	0.781955
O165	O	1.636031	-0.110952	1.115288
H166	H	0.954515	-0.748755	0.393095
H167	H	1.287849	-0.415421	0.726428
H168	H	1.621182	-0.082088	1.059761
H169	H	1.149085	-0.384083	0.924677
H170	H	1.482419	-0.050749	1.258010
H171	H	1.815752	0.282584	1.591344
O172	O	0.871518	-0.891675	0.546383
O173	O	1.204851	-0.558342	0.879716
O174	O	1.538184	-0.225008	1.213049
H175	H	0.813774	-0.912795	0.533704
H176	H	1.147108	-0.579462	0.867037
H177	H	1.480441	-0.246129	1.200370
H178	H	0.633701	-0.384442	0.440103
H179	H	0.967034	-0.051109	0.773436
H180	H	1.300368	0.282225	1.106769
O181	O	1.161472	-0.891592	0.256842
O182	O	1.494805	-0.558258	0.590175
O183	O	1.828138	-0.224925	0.923508
H184	H	1.198869	-0.841542	0.289819
H185	H	1.532202	-0.508209	0.623153
H186	H	1.865536	-0.174876	0.956486
H187	H	0.978229	-0.627915	0.785197
H188	H	1.311562	-0.294581	1.118530
H189	H	1.644896	0.038752	1.451863
O190	O	0.871602	-1.119754	0.546402
O191	O	1.204935	-0.786420	0.879735
O192	O	1.538269	-0.453087	1.213068
H193	H	0.838843	-1.063181	0.579102
H194	H	1.172176	-0.729848	0.912435
H195	H	1.505509	-0.396515	1.245769
O196	O	0.484114	-0.366732	0.452566
O197	O	0.817448	-0.033399	0.785900
O198	O	1.150781	0.299935	1.119233
H199	H	0.523765	-0.320072	0.485349
H200	H	0.857098	0.013261	0.818683
H201	H	1.190431	0.346595	1.152016
O202	O	0.969522	-1.233758	0.448650
O203	O	1.302855	-0.900424	0.781983
O204	O	1.636189	-0.567091	1.115316
H205	H	0.984380	-1.262641	0.504169
H206	H	1.317713	-0.929308	0.837503
H207	H	1.651046	-0.595974	1.170836
O208	O	0.643787	-0.645667	0.256575
O209	O	0.977120	-0.312333	0.589908
O210	O	1.310454	0.021000	0.923241
H211	H	0.604141	-0.692344	0.223799
H212	H	0.937474	-0.359011	0.557132
H213	H	1.270808	-0.025678	0.890465
O214	O	1.161562	-1.119646	0.256867
O215	O	1.494896	-0.786313	0.590200
O216	O	1.828229	-0.452980	0.923533
H217	H	1.153695	-1.205162	0.264786
H218	H	1.487029	-0.871829	0.598119
H219	H	1.820362	-0.538495	0.931452
H220	H	1.149071	-0.384137	0.785250
H221	H	1.482404	-0.050804	1.118583
H222	H	1.815738	0.282530	1.451917
O223	O	0.965810	-0.645618	0.934783
O224	O	1.299144	-0.312285	1.268116
O225	O	1.632477	0.021049	1.601450
H226	H	0.973731	-0.634319	0.994685
H227	H	1.307065	-0.300986	1.328019
H228	H	1.640398	0.032347	1.661352
