data_functionalizedCrystal
_audit_creation_method	'MofGen! by Chris Wilmer'
_symmetry_space_group_name_H-M	'P1'
_symmetry_Int_Tables_number	1
_symmetry_cell_setting	triclinic
loop_
_symmetry_equiv_pos_as_xyz
  x,y,z
_cell_length_a	16.109301
_cell_length_b	8.559649
_cell_length_c	15.186229
_cell_angle_alpha	89.998040
_cell_angle_beta	89.999362
_cell_angle_gamma	76.620073
loop_
_atom_site_label
_atom_site_type_symbol
_atom_site_fract_x
_atom_site_fract_y
_atom_site_fract_z
O1	O	1.090045	0.205389	-0.073169
O2	O	0.846355	0.230949	-0.073183
O3	O	0.989670	-0.014444	-0.073174
O4	O	0.946731	0.450782	-0.073178
O5	O	0.989661	-0.014447	0.073283
O6	O	0.846347	0.230946	0.073274
O7	O	1.090037	0.205386	0.073288
Zn8	Zn	0.968191	0.218165	0.096534
Zn9	Zn	0.968202	0.218170	-0.096429
O10	O	0.946723	0.450779	0.073279
C11	C	0.815442	0.229912	0.000044
C12	C	0.723344	0.226808	0.000039
C13	C	0.492255	0.365202	0.000048
C14	C	0.405721	0.362273	0.000053
C15	C	0.444145	0.071122	0.000052
C16	C	0.530677	0.074053	0.000053
C17	C	0.554729	0.221098	0.000046
C18	C	0.381663	0.215238	0.000051
C19	C	0.287840	0.212061	0.000057
C20	C	0.648558	0.224275	0.000042
C21	C	0.992919	-0.073977	0.000053
C22	C	1.002605	-0.251362	0.000049
C23	C	1.120950	0.206423	0.000059
C24	C	1.213048	0.209527	0.000059
C25	C	0.943473	0.510312	0.000050
C26	C	0.933787	0.687697	0.000049
N27	N	0.968189	0.218161	0.228227
N28	N	0.968210	0.218161	-0.228122
C29	C	1.031666	0.109538	0.453954
C30	C	1.031669	0.109534	0.546144
C31	C	0.904727	0.326790	0.546145
C32	C	0.904722	0.326785	0.453957
C33	C	0.968196	0.218161	0.407864
C34	C	0.968204	0.218162	0.592241
C35	C	0.968207	0.218159	0.692198
C36	C	0.968192	0.218161	0.307901
H37	H	0.581547	-0.043302	0.000054
H38	H	0.867458	-0.228771	0.000048
C39	C	1.147024	0.074925	0.649813
C40	C	1.101438	-0.009863	0.596809
H41	H	1.190094	0.001206	0.681094
H42	H	1.172677	0.141442	0.613846
H43	H	1.109217	0.139609	0.690456
H44	H	1.139244	-0.074539	0.556161
H45	H	1.075784	-0.076408	0.632778
C46	C	1.136583	-0.335508	0.075347
C47	C	1.092155	-0.364127	0.000059
H48	H	1.191864	-0.405133	0.075354
H49	H	1.141600	-0.227110	0.075335
H50	H	1.106420	-0.354902	0.126414
H51	H	1.122315	-0.344722	-0.051009
H52	H	1.087142	-0.472551	0.000063
C53	C	0.445581	0.652695	0.000060
C54	C	0.518694	0.526831	0.000052
H55	H	0.461903	0.752479	0.000070
H56	H	0.412631	0.645506	-0.051011
H57	H	0.412629	0.645472	0.051136
H58	H	0.551643	0.534047	-0.051027
H59	H	0.551657	0.534023	0.051128
C60	C	0.779243	0.541520	0.536886
C61	C	0.834959	0.446188	0.596812
H62	H	0.736168	0.615225	0.568166
H63	H	0.810173	0.599020	0.500927
H64	H	0.753593	0.474965	0.500931
H65	H	0.860615	0.512742	0.632763
H66	H	0.804025	0.388684	0.632786
H67	H	1.083349	0.021087	0.416427
H68	H	0.853032	0.415239	0.416428
H69	H	0.424550	-0.048597	0.000063
C70	C	0.286118	0.527879	-0.075236
C71	C	0.337048	0.520676	0.000049
H72	H	0.243720	0.625672	-0.075233
H73	H	0.320673	0.522974	-0.126300
H74	H	0.259410	0.439885	-0.075223
H75	H	0.363761	0.608664	0.000033
H76	H	0.302488	0.525596	0.051126
