data_functionalizedCrystal
_audit_creation_method	'MofGen! by Chris Wilmer'
_symmetry_space_group_name_H-M	'P1'
_symmetry_Int_Tables_number	1
_symmetry_cell_setting	triclinic
loop_
_symmetry_equiv_pos_as_xyz
  x,y,z
_cell_length_a	10.540514
_cell_length_b	10.540539
_cell_length_c	10.268362
_cell_angle_alpha	89.999200
_cell_angle_beta	90.005154
_cell_angle_gamma	84.520326
loop_
_atom_site_label
_atom_site_type_symbol
_atom_site_fract_x
_atom_site_fract_y
_atom_site_fract_z
O1	O	1.685907	0.178741	0.108310
O2	O	1.316490	0.195631	0.108308
O3	O	1.509626	0.002479	0.108308
O4	O	1.492770	0.371893	0.108311
O5	O	1.509608	0.002485	-0.108293
O6	O	1.316471	0.195637	-0.108292
O7	O	1.685888	0.178748	-0.108291
Cu8	Cu	1.501178	0.187193	-0.128069
Cu9	Cu	1.501200	0.187185	0.128086
O10	O	1.492752	0.371900	-0.108290
C11	C	1.269177	0.194374	0.000008
C12	C	1.128227	0.190605	0.000007
C13	C	1.508353	-0.044821	0.000010
C14	C	1.504571	-0.185769	0.000017
C15	C	1.057522	0.328745	0.000011
C16	C	0.910908	0.324871	0.000510
C17	C	0.935900	0.115474	0.123463
C18	C	1.082440	0.120328	0.123560
C19	C	1.082821	0.118291	-0.122764
C20	C	0.935842	0.116958	-0.124380
C21	C	1.359652	-0.369182	0.000502
C22	C	1.363486	-0.222564	0.000015
C23	C	1.572457	-0.247429	-0.123673
C24	C	1.567642	-0.393973	-0.123777
C25	C	1.570532	-0.394499	0.122538
C26	C	1.571832	-0.247517	0.124174
C27	C	1.733201	0.180004	0.000013
C28	C	1.874151	0.183774	0.000022
C29	C	1.494025	0.419199	0.000011
C30	C	1.497807	0.560147	0.000012
N31	N	1.501172	0.187198	-0.308235
C32	C	1.501181	0.187199	-0.426077
C33	C	1.501197	0.187187	-0.573915
N34	N	1.501216	0.187171	0.308252
H35	H	0.868237	0.378590	-0.087958
H36	H	1.309679	-0.180801	-0.088799
F37	F	1.293666	-0.166872	0.115906
H38	H	1.672437	-0.441734	0.123371
H39	H	1.110672	0.170206	0.216188
F40	F	1.507417	-0.193515	0.243792
F41	F	1.095442	0.402274	-0.115226
F42	F	1.145191	-0.012302	0.130440
H43	H	1.304139	-0.399382	-0.087701
F44	F	1.700261	-0.456687	-0.131125
F45	F	0.904223	-0.017467	-0.134613
F46	F	1.286812	-0.406558	0.116440
F47	F	0.880322	0.176745	0.244000
H48	H	1.517455	-0.422165	-0.216238
F49	F	0.856367	0.394777	0.116854
F50	F	0.906736	-0.019981	0.129012
H51	H	1.525284	-0.204822	-0.215719
F52	F	1.097036	0.400919	0.115547
H53	H	1.676065	-0.225084	-0.128271
H54	H	0.894839	0.166872	-0.215704
F55	F	1.510851	-0.435725	0.245076
F56	F	1.144607	-0.014882	-0.124338
H57	H	1.114307	0.164278	-0.216358
H58	H	1.674694	-0.223305	0.131643
