data_functionalizedCrystal
_audit_creation_method	'MofGen! by Chris Wilmer'
_symmetry_space_group_name_H-M	'P1'
_symmetry_Int_Tables_number	1
_symmetry_cell_setting	triclinic
loop_
_symmetry_equiv_pos_as_xyz
  x,y,z
_cell_length_a	19.121063
_cell_length_b	19.077241
_cell_length_c	19.076919
_cell_angle_alpha	90.113904
_cell_angle_beta	94.606347
_cell_angle_gamma	85.144908
loop_
_atom_site_label
_atom_site_type_symbol
_atom_site_fract_x
_atom_site_fract_y
_atom_site_fract_z
Zn1	Zn	-0.255845	-1.046918	-0.451026
Zn2	Zn	-0.005845	-0.796918	-0.201026
Zn3	Zn	0.244155	-0.546918	0.048974
Zn4	Zn	0.494155	-0.296918	0.298974
Zn5	Zn	-0.368787	-1.046538	-0.338137
Zn6	Zn	-0.118787	-0.796538	-0.088137
Zn7	Zn	0.131213	-0.546538	0.161863
Zn8	Zn	0.381213	-0.296538	0.411863
Zn9	Zn	-0.255474	-0.934150	-0.328788
Zn10	Zn	-0.005474	-0.684150	-0.078788
Zn11	Zn	0.244526	-0.434150	0.171212
Zn12	Zn	0.494526	-0.184150	0.421212
Zn13	Zn	-0.378188	-0.923939	-0.451257
Zn14	Zn	-0.128188	-0.673939	-0.201257
Zn15	Zn	0.121812	-0.423939	0.048743
Zn16	Zn	0.371812	-0.173939	0.298743
O17	O	-0.314574	-0.987886	-0.392302
O18	O	-0.064574	-0.737886	-0.142302
O19	O	0.185426	-0.487886	0.107698
O20	O	0.435426	-0.237886	0.357698
O21	O	-0.267049	-1.145369	-0.439867
O22	O	-0.017049	-0.895369	-0.189867
O23	O	0.232951	-0.645369	0.060133
O24	O	0.482951	-0.395369	0.310133
O25	O	-0.349667	-1.035743	-0.238399
O26	O	-0.099667	-0.785743	0.011601
O27	O	0.150333	-0.535743	0.261601
O28	O	0.400333	-0.285743	0.511601
O29	O	-0.156900	-0.953541	-0.340994
O30	O	0.093100	-0.703541	-0.090994
O31	O	0.343100	-0.453541	0.159006
O32	O	0.593100	-0.203541	0.409006
O33	O	-0.350027	-1.145090	-0.356928
O34	O	-0.100027	-0.895090	-0.106928
O35	O	0.149973	-0.645090	0.143072
O36	O	0.399973	-0.395090	0.393072
O37	O	-0.157173	-1.036392	-0.430801
O38	O	0.092827	-0.786392	-0.180801
O39	O	0.342827	-0.536392	0.069199
O40	O	0.592827	-0.286392	0.319199
O41	O	-0.266416	-0.953173	-0.231530
O42	O	-0.016416	-0.703173	0.018470
O43	O	0.233584	-0.453173	0.268470
O44	O	0.483584	-0.203173	0.518470
O45	O	-0.275531	-0.834294	-0.341218
O46	O	-0.025531	-0.584294	-0.091218
O47	O	0.224469	-0.334294	0.158782
O48	O	0.474469	-0.084294	0.408782
O49	O	-0.366048	-0.936138	-0.549724
O50	O	-0.116048	-0.686138	-0.299724
O51	O	0.133952	-0.436138	-0.049724
O52	O	0.383952	-0.186138	0.200276
O53	O	-0.365688	-0.826792	-0.431195
O54	O	-0.115688	-0.576792	-0.181195
O55	O	0.134312	-0.326792	0.068805
O56	O	0.384312	-0.076792	0.318805
O57	O	-0.276164	-1.026490	-0.549554
O58	O	-0.026164	-0.776490	-0.299554
O59	O	0.223836	-0.526490	-0.049554
O60	O	0.473836	-0.276490	0.200446
O61	O	-0.468657	-1.025842	-0.357152
O62	O	-0.218657	-0.775842	-0.107152
O63	O	0.031343	-0.525842	0.142848
O64	O	0.281343	-0.275842	0.392848
O65	O	-0.475563	-0.935770	-0.440260
O66	O	-0.225563	-0.685770	-0.190260
O67	O	0.024437	-0.435770	0.059740
O68	O	0.274437	-0.185770	0.309740
C69	C	-0.321590	-0.805003	-0.385218
C70	C	-0.071590	-0.555003	-0.135218
C71	C	0.178410	-0.305003	0.114782
C72	C	0.428410	-0.055003	0.364782
C73	C	-0.324609	-0.726763	-0.382204
C74	C	-0.074609	-0.476763	-0.132204
C75	C	0.175391	-0.226763	0.117796
C76	C	0.425391	0.023237	0.367796
C77	C	-0.282899	-0.690146	-0.424042
C78	C	-0.032899	-0.440146	-0.174042
C79	C	0.217101	-0.190146	0.075958
C80	C	0.467101	0.059854	0.325958
C81	C	-0.285733	-0.616631	-0.421205
C82	C	-0.035733	-0.366631	-0.171205
C83	C	0.214267	-0.116631	0.078795
C84	C	0.464267	0.133369	0.328795
C85	C	-0.330279	-0.579735	-0.376533
C86	C	-0.080279	-0.329735	-0.126533
C87	C	0.169721	-0.079735	0.123467
C88	C	0.419721	0.170265	0.373467
C89	C	-0.371990	-0.616358	-0.334690
C90	C	-0.121990	-0.366358	-0.084690
C91	C	0.128010	-0.116358	0.165310
C92	C	0.378010	0.133642	0.415310
C93	C	-0.369153	-0.689871	-0.337524
C94	C	-0.119153	-0.439871	-0.087524
C95	C	0.130847	-0.189871	0.162476
C96	C	0.380847	0.060129	0.412476
C97	C	-0.343387	-0.359859	-0.363414
C98	C	-0.093387	-0.109859	-0.113414
C99	C	0.156613	0.140141	0.136586
C100	C	0.406613	0.390141	0.386586
C101	C	-0.346222	-0.286341	-0.360585
C102	C	-0.096222	-0.036341	-0.110585
C103	C	0.153778	0.213659	0.139415
C104	C	0.403778	0.463659	0.389415
C105	C	-0.259963	-0.286620	-0.447099
C106	C	-0.009963	-0.036620	-0.197099
C107	C	0.240037	0.213380	0.052901
C108	C	0.490037	0.463380	0.302901
C109	C	-0.257133	-0.360134	-0.449932
C110	C	-0.007133	-0.110134	-0.199932
C111	C	0.242867	0.139866	0.050068
C112	C	0.492867	0.389866	0.300068
C113	C	-0.298841	-0.396750	-0.408087
C114	C	-0.048841	-0.146750	-0.158087
C115	C	0.201159	0.103250	0.091913
C116	C	0.451159	0.353250	0.341913
N117	N	-0.333178	-0.504592	-0.373633
N118	N	-0.083178	-0.254592	-0.123633
N119	N	0.166822	-0.004592	0.126367
N120	N	0.416822	0.245408	0.376367
N121	N	-0.295938	-0.471893	-0.410983
N122	N	-0.045938	-0.221893	-0.160983
N123	N	0.204062	0.028107	0.089017
N124	N	0.454062	0.278107	0.339017
C125	C	-0.497682	-0.979675	-0.399762
C126	C	-0.247682	-0.729675	-0.149762
C127	C	0.002318	-0.479675	0.100238
C128	C	0.252318	-0.229675	0.350238
C129	C	-0.576015	-0.976226	-0.402979
C130	C	-0.326015	-0.726226	-0.152979
C131	C	-0.076015	-0.476226	0.097021
C132	C	0.173985	-0.226226	0.347021
C133	C	-0.609197	-1.021534	-0.361259
C134	C	-0.359197	-0.771534	-0.111259
C135	C	-0.109197	-0.521534	0.138741
C136	C	0.140803	-0.271534	0.388741
C137	C	-0.682800	-1.018294	-0.364289
C138	C	-0.432800	-0.768294	-0.114289
C139	C	-0.182800	-0.518294	0.135711
C140	C	0.067200	-0.268294	0.385711
C141	C	-0.723218	-0.969741	-0.409036
C142	C	-0.473218	-0.719741	-0.159036
C143	C	-0.223218	-0.469741	0.090964
C144	C	0.026782	-0.219741	0.340964
C145	C	-0.690031	-0.924431	-0.450761
C146	C	-0.440031	-0.674431	-0.200761
C147	C	-0.190031	-0.424431	0.049239
C148	C	0.059969	-0.174431	0.299239
C149	C	-0.616430	-0.927675	-0.447734
C150	C	-0.366430	-0.677675	-0.197734
C151	C	-0.116430	-0.427675	0.052266
C152	C	0.133570	-0.177675	0.302266
C153	C	-0.945627	-0.957602	-0.420342
C154	C	-0.695627	-0.707602	-0.170342
C155	C	-0.445627	-0.457602	0.079658
C156	C	-0.195627	-0.207602	0.329658
C157	C	-1.019233	-0.954360	-0.423365
C158	C	-0.769233	-0.704360	-0.173365
C159	C	-0.519233	-0.454360	0.076635
C160	C	-0.269233	-0.204360	0.326635
C161	C	-1.011996	-1.048225	-0.336893
C162	C	-0.761996	-0.798225	-0.086893
C163	C	-0.511996	-0.548225	0.163107
C164	C	-0.261996	-0.298225	0.413107
C165	C	-0.938394	-1.051462	-0.333867
C166	C	-0.688394	-0.801462	-0.083867
C167	C	-0.438394	-0.551462	0.166133
C168	C	-0.188394	-0.301462	0.416133
C169	C	-0.905214	-1.006153	-0.375595
C170	C	-0.655214	-0.756153	-0.125595
C171	C	-0.405214	-0.506153	0.124405
C172	C	-0.155214	-0.256153	0.374405
C173	C	-0.798452	-0.966427	-0.412133
C174	C	-0.548452	-0.716427	-0.162133
C175	C	-0.298452	-0.466427	0.087867
C176	C	-0.048452	-0.216427	0.337867
C177	C	-0.829981	-1.009472	-0.372501
C178	C	-0.579981	-0.759472	-0.122501
C179	C	-0.329981	-0.509472	0.127499
C180	C	-0.079981	-0.259472	0.377499
C181	C	-0.130750	-0.996148	-0.384829
C182	C	0.119250	-0.746148	-0.134829
C183	C	0.369250	-0.496148	0.115171
C184	C	0.619250	-0.246148	0.365171
C185	C	-0.052416	-0.999669	-0.381645
C186	C	0.197584	-0.749669	-0.131645
C187	C	0.447584	-0.499669	0.118355
C188	C	0.697584	-0.249669	0.368355
C189	C	-0.322196	-0.980218	-0.575893
C190	C	-0.072196	-0.730218	-0.325893
C191	C	0.177804	-0.480218	-0.075893
C192	C	0.427804	-0.230218	0.174107
C193	C	-0.325444	-0.976950	-0.654128
C194	C	-0.075444	-0.726950	-0.404128
C195	C	0.174556	-0.476950	-0.154128
C196	C	0.424556	-0.226950	0.095872
C197	C	-0.307526	-0.171484	-0.399409
C198	C	-0.057526	0.078516	-0.149409
C199	C	0.192474	0.328516	0.100591
C200	C	0.442474	0.578516	0.350591
C201	C	-0.304513	-0.249724	-0.402422
C202	C	-0.054513	0.000276	-0.152422
C203	C	0.195487	0.250276	0.097578
C204	C	0.445487	0.500276	0.347578
C205	C	-0.280174	-1.022454	-0.690796
C206	C	-0.030174	-0.772454	-0.440796
C207	C	0.219826	-0.522454	-0.190796
C208	C	0.469826	-0.272454	0.059204
C209	C	-0.283224	-1.019375	-0.764306
C210	C	-0.033224	-0.769375	-0.514306
C211	C	0.216776	-0.519375	-0.264306
C212	C	0.466776	-0.269375	-0.014306
C213	C	-0.331547	-0.970795	-0.801147
C214	C	-0.081547	-0.720795	-0.551147
C215	C	0.168453	-0.470795	-0.301147
C216	C	0.418453	-0.220795	-0.051147
C217	C	-0.376819	-0.925286	-0.764474
C218	C	-0.126819	-0.675286	-0.514474
C219	C	0.123181	-0.425286	-0.264474
C220	C	0.373181	-0.175286	-0.014474
C221	C	-0.373766	-0.928362	-0.690965
C222	C	-0.123766	-0.678362	-0.440965
C223	C	0.126234	-0.428362	-0.190965
C224	C	0.376234	-0.178362	0.059035
C225	C	-0.345695	-0.956548	-1.021005
C226	C	-0.095695	-0.706548	-0.771005
C227	C	0.154305	-0.456548	-0.521005
C228	C	0.404305	-0.206548	-0.271005
C229	C	-0.348746	-0.953477	-1.094519
C230	C	-0.098746	-0.703477	-0.844519
C231	C	0.151254	-0.453477	-0.594519
C232	C	0.401254	-0.203477	-0.344519
C233	C	-0.255150	-1.047565	-1.094346
C234	C	-0.005150	-0.797565	-0.844346
C235	C	0.244850	-0.547565	-0.594346
C236	C	0.494850	-0.297565	-0.344346
C237	C	-0.252103	-1.050639	-1.020836
C238	C	-0.002103	-0.800639	-0.770836
C239	C	0.247897	-0.550639	-0.520836
C240	C	0.497897	-0.300639	-0.270836
C241	C	-0.297373	-1.005128	-0.984169
C242	C	-0.047373	-0.755128	-0.734169
C243	C	0.202627	-0.505128	-0.484169
C244	C	0.452627	-0.255128	-0.234169
N245	N	-0.334667	-0.967648	-0.876286
N246	N	-0.084667	-0.717648	-0.626286
N247	N	0.165333	-0.467648	-0.376286
N248	N	0.415333	-0.217648	-0.126286
N249	N	-0.294249	-1.008272	-0.909031
N250	N	-0.044249	-0.758272	-0.659031
N251	N	0.205751	-0.508272	-0.409031
N252	N	0.455751	-0.258272	-0.159031
C253	C	-0.306928	-0.995567	-0.209425
C254	C	-0.056928	-0.745567	0.040575
C255	C	0.193072	-0.495567	0.290575
C256	C	0.443072	-0.245567	0.540575
C257	C	-0.303477	-0.998980	-0.131187
C258	C	-0.053477	-0.748980	0.118813
C259	C	0.196523	-0.498980	0.368813
C260	C	0.446523	-0.248980	0.618813
H261	H	-0.246627	-0.720181	-0.460421
H262	H	0.003373	-0.470181	-0.210421
H263	H	0.253373	-0.220181	0.039579
H264	H	0.503373	0.029819	0.289579
C265	C	-0.785518	-1.062877	-0.323279
C266	C	-0.535518	-0.812877	-0.073279
C267	C	-0.285518	-0.562877	0.176721
C268	C	-0.035518	-0.312877	0.426721
N269	N	-0.752022	-1.103100	-0.286202
N270	N	-0.502022	-0.853100	-0.036202
N271	N	-0.252022	-0.603100	0.213798
N272	N	-0.002022	-0.353100	0.463798
C273	C	-0.415038	-0.730149	-0.291501
C274	C	-0.165038	-0.480149	-0.041501
C275	C	0.084962	-0.230149	0.208499
C276	C	0.334962	0.019851	0.458499
N277	N	-0.449599	-0.760486	-0.256833
N278	N	-0.199599	-0.510486	-0.006833
N279	N	0.050401	-0.260486	0.243167
N280	N	0.300401	-0.010486	0.493167
H281	H	-0.408258	-0.586311	-0.298313
H282	H	-0.158258	-0.336311	-0.048313
H283	H	0.091742	-0.086311	0.201687
H284	H	0.341742	0.163689	0.451687
C285	C	-0.564743	-1.074945	-0.312032
C286	C	-0.314743	-0.824945	-0.062032
C287	C	-0.064743	-0.574945	0.187968
C288	C	0.185257	-0.324945	0.437968
N289	N	-0.531261	-1.115178	-0.274954
N290	N	-0.281261	-0.865178	-0.024954
N291	N	-0.031261	-0.615178	0.225046
N292	N	0.218739	-0.365178	0.475046
C293	C	-0.239851	-0.576356	-0.467232
C294	C	0.010149	-0.326356	-0.217232
C295	C	0.260149	-0.076356	0.032768
C296	C	0.510149	0.173644	0.282768
N297	N	-0.205291	-0.546020	-0.501902
N298	N	0.044709	-0.296020	-0.251902
N299	N	0.294709	-0.046020	-0.001902
N300	N	0.544709	0.203980	0.248098
H301	H	-0.388099	-0.913915	-1.124513
H302	H	-0.138099	-0.663915	-0.874513
H303	H	0.111901	-0.413915	-0.624513
H304	H	0.361901	-0.163915	-0.374513
C305	C	-0.893938	-1.104856	-0.284623
C306	C	-0.643938	-0.854856	-0.034623
C307	C	-0.393938	-0.604856	0.215377
C308	C	-0.143938	-0.354856	0.465377
N309	N	-0.860454	-1.145066	-0.247523
N310	N	-0.610454	-0.895066	0.002477
N311	N	-0.360454	-0.645066	0.252477
N312	N	-0.110454	-0.395066	0.502477
C313	C	-0.389270	-0.400128	-0.317386
C314	C	-0.139270	-0.150128	-0.067386
C315	C	0.110730	0.099872	0.182614
C316	C	0.360730	0.349872	0.432614
N317	N	-0.423833	-0.430460	-0.282716
N318	N	-0.173833	-0.180460	-0.032716
N319	N	0.076167	0.069540	0.217284
N320	N	0.326167	0.319540	0.467284
C321	C	-0.842920	-0.913012	-0.461346
C322	C	-0.592920	-0.663012	-0.211346
C323	C	-0.342920	-0.413012	0.038654
C324	C	-0.092920	-0.163012	0.288654
N325	N	-0.876416	-0.872779	-0.498411
N326	N	-0.626416	-0.622779	-0.248411
N327	N	-0.376416	-0.372779	0.001589
N328	N	-0.126416	-0.122779	0.251589
H329	H	-0.722946	-0.884901	-0.487198
H330	H	-0.472946	-0.634901	-0.237198
H331	H	-0.222946	-0.384901	0.012802
H332	H	0.027054	-0.134901	0.262802
C333	C	-1.048501	-1.098063	-0.290999
C334	C	-0.798501	-0.848063	-0.040999
C335	C	-0.548501	-0.598063	0.209001
C336	C	-0.298501	-0.348063	0.459001
N337	N	-1.075997	-1.135604	-0.256430
N338	N	-0.825997	-0.885604	-0.006430
N339	N	-0.575997	-0.635604	0.243570
N340	N	-0.325997	-0.385604	0.493570
H341	H	-0.709813	-1.055189	-0.330316
H342	H	-0.459813	-0.805189	-0.080316
H343	H	-0.209813	-0.555189	0.169684
H344	H	0.040187	-0.305189	0.419684
H345	H	-0.382501	-0.256302	-0.324207
H346	H	-0.132501	-0.006302	-0.074207
H347	H	0.117499	0.243698	0.175793
H348	H	0.367499	0.493698	0.425793
H349	H	-0.220861	-0.390170	-0.486312
H350	H	0.029139	-0.140170	-0.236312
H351	H	0.279139	0.109830	0.013688
H352	H	0.529139	0.359830	0.263688
C353	C	-0.233424	-1.069434	-0.804638
C354	C	0.016576	-0.819434	-0.554638
C355	C	0.266576	-0.569434	-0.304638
C356	C	0.516576	-0.319434	-0.054638
N357	N	-0.195913	-1.107141	-0.835015
N358	N	0.054087	-0.857141	-0.585015
N359	N	0.304087	-0.607141	-0.335015
N360	N	0.554087	-0.357141	-0.085015
H361	H	-0.212755	-1.090200	-0.990845
H362	H	0.037245	-0.840200	-0.740845
H363	H	0.287245	-0.590200	-0.490845
H364	H	0.537245	-0.340200	-0.240845
H365	H	-0.382566	-0.919499	-0.991160
H366	H	-0.132566	-0.669499	-0.741160
H367	H	0.117434	-0.419499	-0.491160
H368	H	0.367434	-0.169499	-0.241160
C369	C	-0.214075	-0.246337	-0.493113
C370	C	0.035925	0.003663	-0.243113
C371	C	0.285925	0.253663	0.006887
C372	C	0.535925	0.503663	0.256887
N373	N	-0.179505	-0.215996	-0.527767
N374	N	0.070495	0.034004	-0.277767
N375	N	0.320495	0.284004	-0.027767
N376	N	0.570495	0.534004	0.222233
C377	C	-1.063693	-0.900950	-0.472597
C378	C	-0.813693	-0.650950	-0.222597
C379	C	-0.563693	-0.400950	0.027403
C380	C	-0.313693	-0.150950	0.277403
N381	N	-1.097180	-0.860724	-0.509677
N382	N	-0.847180	-0.610724	-0.259677
N383	N	-0.597180	-0.360724	-0.009677
N384	N	-0.347180	-0.110724	0.240323
C385	C	-0.579931	-0.877832	-0.493630
C386	C	-0.329931	-0.627832	-0.243630
C387	C	-0.079931	-0.377832	0.006370
C388	C	0.170069	-0.127832	0.256370
N389	N	-0.552440	-0.840290	-0.528202
N390	N	-0.302440	-0.590290	-0.278202
N391	N	-0.052440	-0.340290	-0.028202
N392	N	0.197560	-0.090290	0.221798
H393	H	-0.918618	-0.920709	-0.454317
H394	H	-0.668618	-0.670709	-0.204317
H395	H	-0.418618	-0.420709	0.045683
H396	H	-0.168618	-0.170709	0.295683
H397	H	-0.240826	-1.062015	-0.660805
H398	H	0.009174	-0.812015	-0.410805
H399	H	0.259174	-0.562015	-0.160805
H400	H	0.509174	-0.312015	0.089195
H401	H	-0.416163	-0.885729	-0.794476
H402	H	-0.166163	-0.635729	-0.544476
H403	H	0.083837	-0.385729	-0.294476
H404	H	0.333837	-0.135729	-0.044476
C405	C	-0.423567	-0.878306	-0.650631
C406	C	-0.173567	-0.628306	-0.400631
C407	C	0.076433	-0.378306	-0.150631
C408	C	0.326433	-0.128306	0.099369
N409	N	-0.461078	-0.840600	-0.620252
N410	N	-0.211078	-0.590600	-0.370252
N411	N	0.038922	-0.340600	-0.120252
N412	N	0.288922	-0.090600	0.129748
C413	C	-0.205349	-1.097615	-1.134685
C414	C	0.044651	-0.847615	-0.884685
C415	C	0.294651	-0.597615	-0.634685
C416	C	0.544651	-0.347615	-0.384685
N417	N	-0.167833	-1.135312	-1.165068
N418	N	0.082167	-0.885312	-0.915068
N419	N	0.332167	-0.635312	-0.665068
N420	N	0.582167	-0.385312	-0.415068
