data_functionalizedCrystal
_audit_creation_method	'MofGen! by Chris Wilmer'
_symmetry_space_group_name_H-M	'P1'
_symmetry_Int_Tables_number	1
_symmetry_cell_setting	triclinic
loop_
_symmetry_equiv_pos_as_xyz
  x,y,z
_cell_length_a	11.792241
_cell_length_b	10.654550
_cell_length_c	9.730223
_cell_angle_alpha	90.001139
_cell_angle_beta	90.001360
_cell_angle_gamma	84.339159
loop_
_atom_site_label
_atom_site_type_symbol
_atom_site_fract_x
_atom_site_fract_y
_atom_site_fract_z
O1	O	-1.507304	-0.172127	0.114153
O2	O	-1.177004	-0.189867	0.114184
O3	O	-1.349749	0.001764	0.114163
O4	O	-1.334560	-0.363758	0.114174
O5	O	-1.349737	0.001753	-0.114417
O6	O	-1.176993	-0.189878	-0.114396
O7	O	-1.507293	-0.172138	-0.114427
Zn8	Zn	-1.342141	-0.181010	-0.150703
Zn9	Zn	-1.342156	-0.180995	0.150460
O10	O	-1.334549	-0.363769	-0.114406
C11	C	-1.134705	-0.188758	-0.000102
C12	C	-1.008684	-0.185423	-0.000090
C13	C	-1.549592	-0.173247	-0.000138
C14	C	-1.675614	-0.176582	-0.000141
C15	C	-1.348628	0.048553	-0.000126
C16	C	-1.345291	0.187987	-0.000120
C17	C	-0.777957	-0.179290	-0.000129
C18	C	-0.906351	-0.182697	-0.000107
C19	C	-1.335670	-0.410558	-0.000114
C20	C	-1.339006	-0.549992	-0.000111
N21	N	-1.342140	-0.181018	-0.356240
C22	C	-1.447000	0.267760	-0.000134
C23	C	-1.443858	0.398772	-0.000124
C24	C	-1.237290	0.370224	-0.000092
C25	C	-1.240433	0.239215	-0.000093
C26	C	-1.551859	0.216532	-0.000162
C27	C	-1.653577	0.296307	-0.000178
C28	C	-1.650435	0.427319	-0.000168
C29	C	-1.545575	0.478556	-0.000142
C30	C	-1.411574	-0.257697	-0.428183
C31	C	-1.411591	-0.257673	-0.572066
C32	C	-1.272729	-0.104290	-0.572049
C33	C	-1.272719	-0.104308	-0.428169
C34	C	-1.480995	-0.334407	-0.356254
C35	C	-1.550434	-0.411093	-0.428198
C36	C	-1.550451	-0.411069	-0.572081
C37	C	-1.481029	-0.334360	-0.644020
N38	N	-1.342167	-0.180977	0.355997
H39	H	-1.738949	0.254580	-0.000164
C40	C	-1.196337	-0.019964	-0.349024
C41	C	-1.104354	-0.079686	-0.250120
C42	C	-1.027974	0.004665	-0.170975
C43	C	-1.043578	0.148736	-0.190735
C44	C	-1.135566	0.208465	-0.289643
C45	C	-1.211945	0.124115	-0.368788
H46	H	-1.092799	-0.186343	-0.235488
H47	H	-0.959879	-0.039551	-0.097756
H48	H	-0.987037	0.211177	-0.132147
H49	H	-1.147120	0.315122	-0.304274
H50	H	-1.280041	0.168331	-0.442006
H51	H	-1.554429	0.109857	-0.000174
H52	H	-1.607000	-0.473501	-0.630654
H53	H	-1.733258	0.492268	-0.000166
C54	C	-1.121952	0.426585	-0.000076
C55	C	-1.091380	0.512720	-0.118770
C56	C	-0.976040	0.569079	-0.118758
C57	C	-0.891272	0.539302	-0.000051
C58	C	-0.921842	0.453162	0.118653
C59	C	-1.037182	0.396804	0.118641
H60	H	-1.154132	0.534766	-0.206653
H61	H	-0.953411	0.632845	-0.206631
H62	H	-0.805891	0.581022	-0.000041
H63	H	-0.859090	0.431116	0.206535
H64	H	-1.059811	0.333037	0.206513
H65	H	-1.480986	-0.334438	-0.239098
C66	C	-1.626798	-0.495465	-0.349071
C67	C	-1.718766	-0.435773	-0.250131
C68	C	-1.795133	-0.520146	-0.171008
C69	C	-1.779533	-0.664211	-0.190824
C70	C	-1.687562	-0.723911	-0.289768
C71	C	-1.611195	-0.639538	-0.368892
H72	H	-1.730317	-0.329120	-0.235458
H73	H	-1.863216	-0.475951	-0.097763
H74	H	-1.836065	-0.726669	-0.132252
H75	H	-1.676011	-0.830564	-0.304442
H76	H	-1.543112	-0.683733	-0.442137
H77	H	-1.543025	0.585236	-0.000120
C78	C	-1.196356	-0.019930	-0.651179
C79	C	-1.196357	-0.019918	-0.809441
C80	C	-1.119975	0.064437	-0.888568
C81	C	-1.043593	0.148781	-0.809433
C82	C	-1.043588	0.148772	-0.651161
C83	C	-1.119970	0.064417	-0.572034
H84	H	-1.252903	-0.082356	-0.868030
H85	H	-1.119979	0.064443	-1.005732
H86	H	-0.987051	0.211225	-0.868007
H87	H	-0.987043	0.211210	-0.592572
H88	H	-1.119966	0.064411	-0.454870
H89	H	-1.157612	0.174261	-0.000083
H90	H	-1.481059	-0.334335	-0.761179
