data_functionalizedCrystal
_audit_creation_method	'MofGen! by Chris Wilmer'
_symmetry_space_group_name_H-M	'P1'
_symmetry_Int_Tables_number	1
_symmetry_cell_setting	triclinic
loop_
_symmetry_equiv_pos_as_xyz
  x,y,z
_cell_length_a	6.817900
_cell_length_b	9.514072
_cell_length_c	16.305550
_cell_angle_alpha	91.345430
_cell_angle_beta	103.455250
_cell_angle_gamma	118.843421
loop_
_atom_site_label
_atom_site_type_symbol
_atom_site_fract_x
_atom_site_fract_y
_atom_site_fract_z
V1	V	-4.111542	-0.223563	-0.263696
O2	O	-4.010274	0.009348	-0.257997
O3	O	-4.146313	-0.441947	-0.262547
O4	O	-4.061870	-0.220736	-0.378405
O5	O	-4.095303	-0.213393	-0.141336
V6	V	-4.584558	-0.195632	-0.248982
O7	O	-4.395849	-0.284833	-0.295974
O8	O	-4.750448	-0.134362	-0.216704
O9	O	-4.326580	0.022752	-0.250131
O10	O	-4.803222	-0.428543	-0.254681
O11	O	-4.718194	-0.205802	-0.371342
O12	O	-4.411024	-0.198459	-0.134273
C13	C	-4.011588	-0.495165	-0.258556
C14	C	-4.121296	-0.673700	-0.258381
C15	C	-3.903870	-0.212987	-0.406343
C16	C	-3.945092	-0.212120	-0.500122
C17	C	-4.094898	-0.208764	-0.840858
C18	C	-3.855048	-0.198798	-0.799900
C19	C	-3.812451	-0.200364	-0.702409
C20	C	-4.020575	-0.210428	-0.671815
C21	C	-4.248125	-0.369042	-0.722913
C22	C	-4.289646	-0.368145	-0.820460
C23	C	-4.093423	-0.061383	-0.794576
C24	C	-4.045014	-0.060128	-0.696730
C25	C	-3.978587	-0.211375	-0.576280
C26	C	-4.136900	-0.207829	-0.936394
C27	C	-4.124650	0.075961	-0.254120
C28	C	-3.994181	0.254495	-0.254301
C29	C	-4.232367	-0.206213	-0.106330
C30	C	-4.170381	-0.207072	-0.012550
H31	H	-3.642443	-0.086321	-0.667047
O32	O	-3.738812	-0.646011	-0.249798
H33	H	-3.706287	-0.691588	-0.305560
H34	H	-3.850356	-0.304685	-0.831727
O35	O	-4.376674	-0.773196	-0.262873
H36	H	-4.469025	-0.867412	-0.320838
H37	H	-3.705193	-0.084217	-0.811922
O38	O	-3.778598	-0.342241	-0.681236
H39	H	-3.792648	-0.410011	-0.740672
H40	H	-4.296069	-0.479717	-0.851173
O41	O	-4.526938	-0.386577	-0.857605
H42	H	-4.611562	-0.396104	-0.805881
H43	H	-4.406279	-0.382143	-0.704039
H44	H	-4.235270	-0.480644	-0.706433
O45	O	-3.911607	0.097821	-0.811798
H46	H	-3.820257	0.073672	-0.853541
H47	H	-3.879206	0.057192	-0.662003
H48	H	-4.191549	-0.058154	-0.675376
O49	O	-4.324301	-0.069167	-0.830130
H50	H	-4.407643	-0.078225	-0.778056
