data_functionalizedCrystal
_audit_creation_method	'MofGen! by Chris Wilmer'
_symmetry_space_group_name_H-M	'P1'
_symmetry_Int_Tables_number	1
_symmetry_cell_setting	triclinic
loop_
_symmetry_equiv_pos_as_xyz
  x,y,z
_cell_length_a	21.395364
_cell_length_b	29.839131
_cell_length_c	21.395355
_cell_angle_alpha	89.979828
_cell_angle_beta	89.975448
_cell_angle_gamma	90.056371
loop_
_atom_site_label
_atom_site_type_symbol
_atom_site_fract_x
_atom_site_fract_y
_atom_site_fract_z
Zn1	Zn	0.957813	-0.178726	-0.354254
Zn2	Zn	0.957696	-0.253841	-0.249474
Zn3	Zn	0.853028	-0.178746	-0.249491
Zn4	Zn	0.852977	-0.253849	-0.354214
O5	O	0.905378	-0.216291	-0.301858
O6	O	1.045475	-0.188679	-0.340365
O7	O	0.943783	-0.243885	-0.161798
O8	O	0.866998	-0.115876	-0.263412
O9	O	1.045389	-0.243866	-0.263383
O10	O	0.943983	-0.115862	-0.340381
O11	O	0.866884	-0.188712	-0.161811
O12	O	0.765343	-0.188720	-0.263373
O13	O	0.866912	-0.243879	-0.441897
O14	O	0.765306	-0.243898	-0.340313
O15	O	0.943934	-0.188687	-0.441927
O16	O	0.943734	-0.316710	-0.263344
O17	O	0.866798	-0.316716	-0.340296
C18	C	0.742591	-0.216313	-0.301841
C19	C	0.672949	-0.216333	-0.301848
C20	C	0.640303	-0.187644	-0.341994
C21	C	0.574868	-0.187632	-0.341997
C22	C	0.542081	-0.216317	-0.301859
C23	C	0.574735	-0.245008	-0.261705
C24	C	0.640169	-0.245016	-0.261699
C25	C	0.438346	-0.256775	-0.296820
C26	C	0.372913	-0.256768	-0.296830
C27	C	0.340260	-0.216292	-0.301873
C28	C	0.373048	-0.175823	-0.306919
C29	C	0.438483	-0.175831	-0.306914
C30	C	0.471129	-0.216311	-0.301861
C31	C	0.236662	-0.187588	-0.342024
C32	C	0.171225	-0.187575	-0.342022
C33	C	0.171093	-0.244955	-0.261734
C34	C	0.236529	-0.244964	-0.261733
C35	C	0.269309	-0.216281	-0.301881
C36	C	0.905265	-0.333013	-0.301827
C37	C	0.905274	-0.382948	-0.301835
C38	C	0.945512	-0.692575	-0.261848
C39	C	0.945589	-0.880248	-0.261872
O40	O	0.979711	-0.904500	-0.227850
N41	N	0.905508	-0.903733	-0.301905
C42	C	0.865408	-0.880296	-0.341939
O43	O	0.831323	-0.904577	-0.375994
C44	C	0.865334	-0.692624	-0.341917
C45	C	0.905413	-0.669142	-0.301876
C46	C	0.985588	-0.669093	-0.221811
C47	C	0.985566	-0.622178	-0.221803
C48	C	0.945467	-0.598744	-0.261832
C49	C	0.905391	-0.622226	-0.301868
C50	C	0.825238	-0.669188	-0.381953
C51	C	0.825224	-0.622267	-0.381945
C52	C	0.865303	-0.598785	-0.341904
C53	C	0.865271	-0.551878	-0.341889
N54	N	0.905351	-0.528393	-0.301856
C55	C	0.945450	-0.551827	-0.261827
C56	C	0.865449	-0.978827	-0.341946
C57	C	0.865466	-1.025744	-0.341951
C58	C	0.945648	-1.025694	-0.261885
C59	C	0.945627	-0.978775	-0.261878
C60	C	0.905530	-0.955342	-0.301913
C61	C	0.945400	-0.453301	-0.261813
C62	C	0.945372	-0.406381	-0.261806
C63	C	0.865193	-0.406436	-0.341874
C64	C	0.865218	-0.453352	-0.341878
C65	C	0.905326	-0.476783	-0.301845
O66	O	0.831172	-0.527597	-0.375898
O67	O	0.979540	-0.527537	-0.227786
C68	C	0.945534	-0.739491	-0.261856
C69	C	0.905458	-0.762973	-0.301893
C70	C	0.865359	-0.739539	-0.341921
C71	C	0.905475	-0.809891	-0.301897
C72	C	0.945574	-0.833324	-0.261869
C73	C	0.985654	-0.809840	-0.221835
C74	C	0.985632	-0.762924	-0.221827
C75	C	0.825278	-0.763024	-0.381955
C76	C	0.825303	-0.809939	-0.381959
C77	C	0.865402	-0.833373	-0.341930
C78	C	1.068802	-0.216269	-0.301876
C79	C	1.138443	-0.216260	-0.301884
C80	C	0.905430	-0.216282	-0.465282
C81	C	0.905452	-0.216278	-0.534923
C82	C	0.905509	-0.099112	-0.301903
C83	C	0.905565	-0.049178	-0.301922
C84	C	0.945556	-0.187538	-0.567652
C85	C	0.945555	-0.187518	-0.633088
C86	C	0.905457	-0.216247	-0.665791
C87	C	0.865346	-0.244989	-0.633054
C88	C	0.865343	-0.245005	-0.567620
C89	C	0.900471	-0.256699	-0.769455
C90	C	0.900478	-0.256685	-0.834888
C91	C	0.905461	-0.216200	-0.867612
C92	C	0.910451	-0.175728	-0.834895
C93	C	0.910449	-0.175743	-0.769461
C94	C	0.905455	-0.216234	-0.736744
C95	C	0.945566	-0.187436	-0.971294
C96	C	0.945561	-0.187416	-1.036731
C97	C	0.865355	-0.244891	-1.036696
C98	C	0.865357	-0.244907	-0.971260
C99	C	0.905466	-0.216180	-0.938563
C100	C	0.905362	-0.216267	-0.139071
C101	C	0.905462	-0.216145	-0.069430
H102	H	0.978009	-0.387264	-0.229198
H103	H	0.792572	-0.603190	-0.414548
H104	H	0.896245	-0.289659	-0.742817
H105	H	0.896418	-0.289639	-0.861521
N106	N	0.539648	-0.156692	-0.385306
H107	H	0.493222	-0.161041	-0.379218
H108	H	0.551129	-0.124596	-0.375642
N109	N	0.822087	-0.275969	-0.668322
H110	H	0.828172	-0.271597	-0.714741
H111	H	0.831792	-0.308057	-0.656890
H112	H	0.978211	-0.164112	-0.659741
N113	N	0.337554	-0.300414	-0.291384
H114	H	0.291147	-0.294269	-0.292156
H115	H	0.348979	-0.320542	-0.327561
N116	N	0.135742	-0.275895	-0.218442
H117	H	0.147119	-0.268871	-0.173693
H118	H	0.089346	-0.271523	-0.224588
H119	H	0.792598	-0.688299	-0.414555
N120	N	0.821985	-0.478682	-0.385056
H121	H	0.796578	-0.456716	-0.410411
H122	H	0.847485	-0.498112	-0.414081
N123	N	0.272028	-0.156656	-0.385324
H124	H	0.260697	-0.124543	-0.375679
H125	H	0.318421	-0.161059	-0.379208
H126	H	0.464927	-0.289737	-0.292713
N127	N	0.821941	-0.381157	-0.385042
H128	H	0.828014	-0.347872	-0.378959
H129	H	0.831675	-0.389332	-0.429801
N130	N	1.028841	-0.694364	-0.178634
H131	H	1.054223	-0.672362	-0.153275
H132	H	1.003359	-0.713860	-0.149615
H133	H	0.144646	-0.164211	-0.374713
H134	H	0.832795	-0.959751	-0.374548
H135	H	0.792660	-0.829054	-0.414564
H136	H	1.018302	-0.828928	-0.189241
H137	H	1.018268	-0.743809	-0.189223
H138	H	0.465176	-0.142879	-0.311020
N139	N	0.988834	-0.156461	-0.936025
H140	H	0.982757	-0.160838	-0.889606
H141	H	1.033567	-0.163457	-0.947493
N142	N	0.782025	-0.737753	-0.425129
H143	H	0.756640	-0.759753	-0.450487
H144	H	0.753033	-0.718324	-0.399592
N145	N	0.915832	-0.132096	-0.734172
H146	H	0.918991	-0.106445	-0.764827
H147	H	0.877661	-0.127936	-0.707007
H148	H	0.263109	-0.268327	-0.229044
N149	N	0.539374	-0.275949	-0.218419
H150	H	0.569987	-0.294126	-0.192984
H151	H	0.512238	-0.257629	-0.189474
N152	N	0.988813	-0.156554	-0.532387
H153	H	1.014219	-0.138344	-0.563054
H154	H	0.963333	-0.135772	-0.505229
H155	H	0.666749	-0.268378	-0.229007
N156	N	0.988653	-0.478573	-0.218635
H157	H	1.033412	-0.470361	-0.228402
H158	H	0.978882	-0.470419	-0.173877
H159	H	0.914510	-0.142761	-0.861537
N160	N	0.988813	-0.156408	-1.072027
H161	H	1.033572	-0.163382	-1.060660
H162	H	0.982676	-0.160764	-1.118431
N163	N	0.822100	-0.275874	-1.071959
H164	H	0.828184	-0.271503	-1.118378
H165	H	0.831814	-0.307961	-1.060526
H166	H	0.832704	-0.268313	-0.944611
N167	N	0.822078	-0.276003	-0.532323
H168	H	0.831767	-0.308098	-0.543714
H169	H	0.828175	-0.271618	-0.485919
N170	N	0.675659	-0.156708	-0.385294
H171	H	0.645045	-0.138532	-0.410727
H172	H	0.702828	-0.135893	-0.359842
H173	H	1.018203	-0.603062	-0.189201
N174	N	0.988856	-0.953450	-0.218694
H175	H	1.014259	-0.975418	-0.193339
H176	H	1.017835	-0.933951	-0.244223
N177	N	0.988896	-1.050972	-0.218709
H178	H	0.982822	-1.084257	-0.224791
H179	H	1.033636	-1.042730	-0.228504
H180	H	0.832824	-1.044859	-0.374550
H181	H	0.346464	-0.142864	-0.311026
