data_functionalizedCrystal
_audit_creation_method	'MofGen! by Chris Wilmer'
_symmetry_space_group_name_H-M	'P1'
_symmetry_Int_Tables_number	1
_symmetry_cell_setting	triclinic
loop_
_symmetry_equiv_pos_as_xyz
  x,y,z
_cell_length_a	19.288864
_cell_length_b	14.185569
_cell_length_c	15.711784
_cell_angle_alpha	107.179389
_cell_angle_beta	101.362524
_cell_angle_gamma	76.905400
loop_
_atom_site_label
_atom_site_type_symbol
_atom_site_fract_x
_atom_site_fract_y
_atom_site_fract_z
O1	O	0.938184	0.083741	0.127439
O2	O	0.739661	0.083673	0.141955
O3	O	0.812505	0.083696	0.008966
O4	O	0.865339	0.083717	0.260429
O5	O	0.834025	-0.083132	-0.030316
O6	O	0.761181	-0.083155	0.102673
O7	O	0.959704	-0.083087	0.088157
Cu8	Cu	0.862407	-0.098354	0.091829
Cu9	Cu	0.836957	0.098939	0.138284
O10	O	0.886859	-0.083111	0.221147
C11	C	0.724425	0.000250	0.121845
C12	C	0.646965	0.000224	0.120435
N13	N	0.880312	-0.237119	0.059154
C14	C	0.622290	0.000246	0.198476
C15	C	0.549503	0.000257	0.197159
C16	C	0.501391	0.000266	0.117803
C17	C	0.526074	0.000238	0.039751
C18	C	0.598861	0.000217	0.041067
C19	C	0.369577	0.058741	0.069187
C20	C	0.296791	0.058768	0.067876
C21	C	0.276891	0.000326	0.113740
C22	C	0.329787	-0.058131	0.160933
C23	C	0.402574	-0.058152	0.162249
C24	C	0.422464	0.000288	0.116367
C25	C	0.173294	0.000359	0.190358
C26	C	0.100506	0.000364	0.189038
C27	C	0.077076	0.000354	0.031629
C28	C	0.149864	0.000340	0.032950
C29	C	0.197968	0.000347	0.112318
C30	C	0.766442	-0.604806	0.266913
C31	C	0.780011	-0.709823	0.242168
C32	C	0.844545	-0.709763	0.124450
C33	C	0.830978	-0.604744	0.149182
C34	C	0.791927	-0.552273	0.220415
C35	C	0.856463	-0.552211	0.102684
C36	C	0.842901	-0.447201	0.127418
C37	C	0.803853	-0.394723	0.198650
C38	C	0.778365	-0.447263	0.245149
C39	C	0.895518	-0.604684	0.031455
C40	C	0.921004	-0.552151	-0.015043
C41	C	0.907437	-0.447139	0.009686
C42	C	0.868389	-0.394662	0.080918
C43	C	0.932925	-0.394600	-0.036813
C44	C	0.919363	-0.289590	-0.012079
C45	C	0.854827	-0.289651	0.105652
C46	C	0.974939	0.000338	0.108269
C47	C	1.052398	0.000371	0.109680
C48	C	0.814634	0.000281	-0.042846
C49	C	0.788907	0.000277	-0.138705
N50	N	0.819056	0.237705	0.170952
C51	C	0.692058	0.000250	-0.263282
C52	C	0.716239	0.000254	-0.173209
C53	C	0.837425	0.000291	-0.194269
C54	C	0.813254	0.000283	-0.284347
C55	C	0.740570	0.000263	-0.318845
C56	C	0.861767	0.000295	-0.339910
C57	C	0.837598	0.000292	-0.429979
C58	C	0.764916	0.000276	-0.464484
C59	C	0.716401	0.000260	-0.408914
C60	C	0.934450	0.000322	-0.305408
C61	C	0.982962	0.000335	-0.360971
C62	C	0.958794	0.000324	-0.451043
C63	C	0.886113	0.000308	-0.485548
C64	C	1.007309	0.000340	-0.506613
C65	C	0.983140	0.000336	-0.596682
C66	C	0.861943	0.000304	-0.575617
C67	C	0.884730	0.000307	0.272959
C68	C	0.910456	0.000317	0.368820
H69	H	0.529410	0.000272	0.260711
O70	O	0.391028	0.121782	0.019711
H71	H	0.424466	0.072477	-0.032012
O72	O	0.625474	0.000193	-0.043113
H73	H	0.684171	0.000172	-0.028866
O74	O	0.946817	-0.232908	-0.062246
H75	H	0.983600	-0.185030	-0.014742
O76	O	0.674171	0.000246	0.284078
H77	H	0.728931	0.000235	0.271887
O78	O	0.459612	-0.121222	0.213133
H79	H	0.492494	-0.071953	0.266059
O80	O	0.886667	-0.766359	0.047626
H81	H	0.858121	-0.746209	-0.014919
O82	O	0.025194	0.000364	-0.053967
H83	H	-0.029567	0.000388	-0.041771
H84	H	0.657218	0.000221	-0.437010
H85	H	1.022643	0.000352	-0.641922
H86	H	0.746559	-0.404540	0.303148
O87	O	0.239751	0.121816	0.016972
H88	H	0.204729	0.176730	0.064230
O89	O	0.073894	0.000380	0.273216
H90	H	0.015201	0.000379	0.258966
O91	O	0.474187	0.000247	-0.045844
H92	H	0.419426	0.000276	-0.033647
H93	H	0.169952	0.000327	-0.030598
H94	H	0.676729	0.000242	-0.127971
O95	O	1.085699	0.000375	-0.469390
H96	H	1.115372	0.000392	-0.523158
O97	O	0.783550	0.000265	-0.612843
H98	H	0.760870	0.068252	-0.637371
O99	O	0.613663	0.000227	-0.300505
H100	H	0.583985	0.000222	-0.246737
O101	O	0.724321	-0.548198	0.343743
H102	H	0.708878	-0.602366	0.371927
O103	O	0.960520	0.000326	-0.208262
H104	H	1.001827	-0.067657	-0.205077
H105	H	0.792814	-0.309217	0.218789
O106	O	0.308339	-0.121179	0.210400
H107	H	0.248840	-0.111358	0.201549
H108	H	0.745238	0.000278	-0.537822
O109	O	0.812698	-0.233030	0.182472
H110	H	0.841238	-0.253154	0.245030
O111	O	0.915818	0.000309	-0.157060
H112	H	0.924477	0.000304	-0.085096
H113	H	0.759255	-0.752589	0.280040
H114	H	1.042142	0.000346	-0.332871
H115	H	0.964727	-0.437335	-0.094806
O116	O	0.910155	-0.717946	0.004779
H117	H	0.886254	-0.745646	-0.066225
O118	O	0.225188	0.000346	0.275952
H119	H	0.195801	0.000344	0.329995
O120	O	0.963119	-0.608745	-0.091873
H121	H	0.968266	-0.690591	-0.101266
