data_functionalizedCrystal
_audit_creation_method	'MofGen! by Chris Wilmer'
_symmetry_space_group_name_H-M	'P1'
_symmetry_Int_Tables_number	1
_symmetry_cell_setting	triclinic
loop_
_symmetry_equiv_pos_as_xyz
  x,y,z
_cell_length_a	10.540514
_cell_length_b	10.540539
_cell_length_c	9.130313
_cell_angle_alpha	90.000859
_cell_angle_beta	89.999226
_cell_angle_gamma	84.520326
loop_
_atom_site_label
_atom_site_type_symbol
_atom_site_fract_x
_atom_site_fract_y
_atom_site_fract_z
O1	O	1.685899	0.178742	-0.121810
O2	O	1.316482	0.195631	-0.121808
O3	O	1.509618	0.002479	-0.121808
O4	O	1.492762	0.371894	-0.121811
O5	O	1.509616	0.002485	0.121791
O6	O	1.316479	0.195637	0.121790
O7	O	1.685896	0.178747	0.121789
Cu8	Cu	1.501187	0.187192	0.144032
Cu9	Cu	1.501190	0.187186	-0.144052
O10	O	1.492760	0.371899	0.121788
C11	C	1.269177	0.194374	-0.000009
C12	C	1.128227	0.190605	-0.000008
C13	C	1.057522	0.328745	-0.000013
C14	C	0.910908	0.324871	-0.000573
C15	C	0.935891	0.115475	-0.138852
C16	C	1.082430	0.120329	-0.138961
C17	C	1.082830	0.118290	0.138066
C18	C	0.935851	0.116958	0.139883
C19	C	1.508353	-0.044821	-0.000011
C20	C	1.504571	-0.185769	-0.000019
C21	C	1.359652	-0.369182	-0.000565
C22	C	1.363486	-0.222564	-0.000016
C23	C	1.572466	-0.247429	0.139088
C24	C	1.567651	-0.393973	0.139205
C25	C	1.570523	-0.394498	-0.137812
C26	C	1.571822	-0.247516	-0.139651
C27	C	1.733201	0.180004	-0.000014
C28	C	1.874151	0.183774	-0.000024
C29	C	1.494025	0.419199	-0.000012
C30	C	1.497807	0.560147	-0.000014
N31	N	1.501195	0.187196	0.346655
N32	N	1.501193	0.187173	-0.346674
C33	C	1.586738	0.101698	0.423307
C34	C	1.586734	0.101682	0.576644
C35	C	1.415641	0.272675	0.576662
C36	C	1.415639	0.272683	0.423328
C37	C	1.685521	0.002980	0.423298
C38	C	1.685518	0.002965	0.576634
H39	H	1.130086	0.016397	0.139407
N40	N	1.709710	-0.217850	0.145983
H41	H	1.767506	-0.299987	0.144620
H42	H	1.729149	-0.164026	0.058778
N43	N	1.702046	-0.457533	0.147616
H44	H	1.699968	-0.553132	0.147766
H45	H	1.752237	-0.431525	0.060182
N46	N	0.906323	-0.021792	-0.145191
H47	H	0.946943	-0.063825	-0.235291
H48	H	0.941233	-0.068102	-0.054832
N49	N	1.644642	-0.119180	0.639643
H50	H	1.715608	-0.161756	0.701915
H51	H	1.566025	-0.099317	0.701855
H52	H	1.783079	0.024741	0.618250
H53	H	1.777700	0.033923	0.375738
N54	N	1.510002	-0.191022	0.276229
H55	H	1.574816	-0.148944	0.336097
H56	H	1.437728	-0.125585	0.248460
N57	N	1.501180	-0.431320	0.276942
H58	H	1.411773	-0.387334	0.279291
H59	H	1.497484	-0.526705	0.278318
N60	N	1.323362	0.364898	0.340669
H61	H	1.372363	0.421583	0.277052
H62	H	1.266741	0.315756	0.277135
N63	N	1.095331	0.402991	0.131827
H64	H	1.048895	0.491339	0.129703
H65	H	1.072149	0.357737	0.224148
H66	H	0.868244	0.378590	0.098922
N67	N	1.292243	-0.167237	0.132302
H68	H	1.294438	-0.071654	0.133208
H69	H	1.200865	-0.188390	0.127947
H70	H	1.345983	0.342276	0.639107
H71	H	1.087750	0.383961	-0.099422
N72	N	0.903832	-0.019279	0.151536
H73	H	0.944734	-0.059704	0.242364
H74	H	0.808322	-0.020818	0.157668
N75	N	0.855617	0.395705	-0.133176
H76	H	0.926502	0.429565	-0.191497
H77	H	0.809878	0.335838	-0.196216
H78	H	1.110656	0.170208	-0.243135
N79	N	1.510052	-0.436290	-0.277478
H80	H	1.434899	-0.485055	-0.252834
H81	H	1.480179	-0.358855	-0.337841
H82	H	1.522144	-0.206655	-0.242559
N83	N	1.146032	-0.014076	-0.146802
H84	H	1.078840	-0.076212	-0.150179
H85	H	1.200384	-0.023992	-0.237935
N86	N	1.708078	-0.215456	-0.150791
H87	H	1.728234	-0.160207	-0.065095
H88	H	1.767216	-0.296697	-0.149596
N89	N	1.124515	0.179188	0.277517
H90	H	1.220553	0.176292	0.279522
H91	H	1.086454	0.270757	0.281667
H92	H	1.672428	-0.441733	-0.138748
H93	H	1.663812	-0.094599	0.381678
H94	H	1.303921	-0.397779	-0.100320
N95	N	0.879502	0.177522	-0.276230
H96	H	0.896357	0.270240	-0.277967
H97	H	0.919861	0.132814	-0.364890
N98	N	0.881565	0.183114	0.275913
H99	H	0.786303	0.178662	0.278707
H100	H	0.921692	0.139709	0.365478
N101	N	1.292721	-0.166124	-0.132101
H102	H	1.334424	-0.202951	-0.224310
H103	H	1.201258	-0.187075	-0.128352
N104	N	1.286118	-0.409173	0.130830
H105	H	1.341908	-0.472869	0.190709
H106	H	1.259137	-0.331930	0.192834
