data_functionalizedCrystal
_audit_creation_method	'MofGen! by Chris Wilmer'
_symmetry_space_group_name_H-M	'P1'
_symmetry_Int_Tables_number	1
_symmetry_cell_setting	triclinic
loop_
_symmetry_equiv_pos_as_xyz
  x,y,z
_cell_length_a	19.077105
_cell_length_b	17.640280
_cell_length_c	19.077174
_cell_angle_alpha	80.587117
_cell_angle_beta	85.483752
_cell_angle_gamma	76.093206
loop_
_atom_site_label
_atom_site_type_symbol
_atom_site_fract_x
_atom_site_fract_y
_atom_site_fract_z
Zn1	Zn	1.160252	-0.384045	-0.375464
Zn2	Zn	1.660252	0.115955	0.124536
Zn3	Zn	1.177382	-0.510689	-0.235687
Zn4	Zn	1.677382	-0.010689	0.264313
Zn5	Zn	1.035723	-0.372996	-0.254771
Zn6	Zn	1.535723	0.127004	0.245229
Zn7	Zn	1.064267	-0.510637	-0.348814
Zn8	Zn	1.564267	-0.010637	0.151186
O9	O	1.109406	-0.444592	-0.303684
O10	O	1.609406	0.055408	0.196316
O11	O	1.261980	-0.405490	-0.360089
O12	O	1.761980	0.094510	0.139911
O13	O	1.153814	-0.487822	-0.140364
O14	O	1.653814	0.012178	0.359636
O15	O	1.033127	-0.263858	-0.289922
O16	O	1.533127	0.236142	0.210078
O17	O	1.274565	-0.498535	-0.257395
O18	O	1.774565	0.001465	0.242605
O19	O	1.124619	-0.271975	-0.378594
O20	O	1.624619	0.228025	0.121406
O21	O	1.049737	-0.386659	-0.154385
O22	O	1.549737	0.113341	0.345615
O23	O	0.940054	-0.386609	-0.264080
O24	O	1.440054	0.113391	0.235920
O25	O	1.081777	-0.498447	-0.450203
O26	O	1.581777	0.001553	0.049797
O27	O	0.961025	-0.487733	-0.333172
O28	O	1.461025	0.012267	0.166828
O29	O	1.152297	-0.405440	-0.469783
O30	O	1.652297	0.094560	0.030217
O31	O	1.181492	-0.621287	-0.231553
O32	O	1.681492	-0.121287	0.268447
O33	O	1.098386	-0.621249	-0.314667
O34	O	1.598386	-0.121249	0.185333
C35	C	0.924752	-0.435967	-0.297805
C36	C	1.424752	0.064033	0.202195
C37	C	0.845761	-0.432297	-0.295304
C38	C	1.345761	0.067703	0.204696
C39	C	0.819597	-0.483296	-0.330018
C40	C	1.319597	0.016704	0.169982
C41	C	0.745374	-0.479838	-0.327672
C42	C	1.245374	0.020162	0.172328
C43	C	0.697317	-0.425383	-0.290609
C44	C	1.197317	0.074617	0.209391
C45	C	0.723485	-0.374379	-0.255894
C46	C	1.223485	0.125621	0.244106
C47	C	0.797706	-0.377834	-0.258244
C48	C	1.297706	0.122166	0.241756
C49	C	0.474165	-0.409392	-0.279736
C50	C	0.974165	0.090608	0.220264
C51	C	0.399940	-0.405942	-0.277387
C52	C	0.899940	0.094058	0.222613
C53	C	0.421835	-0.511400	-0.349167
C54	C	0.921835	-0.011400	0.150833
C55	C	0.496057	-0.514854	-0.351510
C56	C	0.996057	-0.014854	0.148490
C57	C	0.522218	-0.463847	-0.316798
C58	C	1.022218	0.036153	0.183202
N59	N	0.621450	-0.421849	-0.288208
N60	N	1.121450	0.078151	0.211792
N61	N	0.598083	-0.467378	-0.319203
N62	N	1.098083	0.032622	0.180797
C63	C	1.144915	-0.649948	-0.268163
C64	C	1.644915	-0.149948	0.231837
C65	C	1.160172	-0.737804	-0.252992
C66	C	1.660172	-0.237804	0.247008
C67	C	0.993803	-1.026769	-0.419197
C68	C	1.493803	-0.526769	0.080803
C69	C	1.008140	-1.109322	-0.404919
C70	C	1.508140	-0.609322	0.095081
C71	C	1.094738	-1.109303	-0.318465
C72	C	1.594738	-0.609303	0.181535
C73	C	1.080411	-1.026749	-0.332738
C74	C	1.580411	-0.526749	0.167262
C75	C	1.029942	-0.985488	-0.383104
C76	C	1.529942	-0.485488	0.116896
C77	C	1.116551	-0.985468	-0.296645
C78	C	1.616551	-0.485468	0.203355
C79	C	1.102222	-0.902920	-0.310914
C80	C	1.602222	-0.402920	0.189086
C81	C	1.051754	-0.861653	-0.361275
C82	C	1.551754	-0.361653	0.138725
C83	C	1.015614	-0.902940	-0.397372
C84	C	1.515614	-0.402940	0.102628
C85	C	1.167015	-1.026729	-0.246275
C86	C	1.667015	-0.526729	0.253725
C87	C	1.203155	-0.985448	-0.210182
C88	C	1.703155	-0.485448	0.289818
C89	C	1.188830	-0.902899	-0.224455
C90	C	1.688830	-0.402899	0.275545
C91	C	1.138362	-0.861633	-0.274817
C92	C	1.638362	-0.361633	0.225183
C93	C	1.224970	-0.861612	-0.188358
C94	C	1.724970	-0.361612	0.311642
C95	C	1.210641	-0.779065	-0.202627
C96	C	1.710641	-0.279065	0.297373
C97	C	1.124033	-0.779085	-0.289086
C98	C	1.624033	-0.279085	0.210914
C99	C	1.294781	-0.453251	-0.309586
C100	C	1.794781	0.046749	0.190414
C101	C	1.373777	-0.456941	-0.312101
C102	C	1.873777	0.043059	0.187899
C103	C	1.118310	-0.453170	-0.486075
C104	C	1.618310	0.046830	0.013925
C105	C	1.122104	-0.456826	-0.563799
C106	C	1.622104	0.043174	-0.063799
C107	C	1.073778	-0.238436	-0.339360
C108	C	1.573778	0.261564	0.160640
C109	C	1.058596	-0.150585	-0.354562
C110	C	1.558596	0.349415	0.145438
C111	C	1.069702	-0.405875	-0.607614
C112	C	1.569702	0.094125	-0.107614
C113	C	1.073266	-0.409316	-0.680643
C114	C	1.573266	0.090684	-0.180643
C115	C	1.129235	-0.463705	-0.709857
C116	C	1.629235	0.036295	-0.209857
C117	C	1.181640	-0.514662	-0.666036
C118	C	1.681640	-0.014662	-0.166036
C119	C	1.178073	-0.511224	-0.593008
C120	C	1.678073	-0.011224	-0.093008
C121	C	1.145711	-0.479639	-0.927484
C122	C	1.645711	0.020361	-0.427484
C123	C	1.149275	-0.483071	-1.000518
C124	C	1.649275	0.016929	-0.500518
C125	C	1.040900	-0.377726	-1.015120
C126	C	1.540900	0.122274	-0.515120
C127	C	1.037340	-0.374289	-0.942090
C128	C	1.537340	0.125711	-0.442090
C129	C	1.089743	-0.425249	-0.898275
C130	C	1.589743	0.074751	-0.398275
N131	N	1.132880	-0.467222	-0.784504
N132	N	1.632880	0.032778	-0.284504
N133	N	1.086094	-0.421735	-0.823628
N134	N	1.586094	0.078265	-0.323628
C135	C	1.100568	-0.435992	-0.122014
C136	C	1.600568	0.064008	0.377986
C137	C	1.096873	-0.432120	-0.044333
C138	C	1.596873	0.067880	0.455667
H139	H	0.819006	-0.336302	-0.229980
H140	H	1.319006	0.163698	0.270020
H141	H	1.266056	-0.895219	-0.147345
H142	H	1.766056	-0.395219	0.352655
C143	C	1.235722	-0.567271	-0.544812
C144	C	1.735722	-0.067271	-0.044812
N145	N	1.279145	-0.609489	-0.508512
N146	N	1.779145	-0.109489	-0.008512
C147	C	0.968383	-1.154729	-0.444633
C148	C	1.468383	-0.654729	0.055367
N149	N	0.938439	-1.188929	-0.474544
N150	N	1.438439	-0.688929	0.025456
C151	C	1.035992	-0.770848	-0.376972
C152	C	1.535992	-0.270848	0.123028
N153	N	1.024122	-0.702453	-0.388796
N154	N	1.524122	-0.202453	0.111204
C155	C	1.203388	-0.535654	-0.879306
C156	C	1.703388	-0.035654	-0.379306
N157	N	1.246845	-0.577833	-0.843019
N158	N	1.746845	-0.077833	-0.343019
C159	C	0.960085	-0.857548	-0.452768
C160	C	1.460085	-0.357548	0.047232
N161	N	0.918257	-0.823358	-0.494484
N162	N	1.418257	-0.323358	0.005516
C163	C	1.150249	-1.154699	-0.263061
C164	C	1.650249	-0.654699	0.236939
N165	N	1.192062	-1.188891	-0.221331
N166	N	1.692062	-0.688891	0.278669
H167	H	1.240069	-0.745453	-0.173235
H168	H	1.740069	-0.245453	0.326765
H169	H	0.684350	-0.330038	-0.225719
H170	H	1.184350	0.169962	0.274281
C171	C	0.347077	-0.346035	-0.236613
C172	C	0.847077	0.153965	0.263387
N173	N	0.307261	-0.300916	-0.205902
N174	N	0.807261	0.199084	0.294098
C175	C	1.210846	-0.542910	-1.032650
C176	C	1.710846	-0.042910	-0.532650
N177	N	1.257219	-0.587977	-1.056853
N178	N	1.757219	-0.087977	-0.556853
H179	H	0.952712	-0.993173	-0.460215
H180	H	1.452712	-0.493173	0.039785
C181	C	1.008131	-0.346042	-0.575486
C182	C	1.508131	0.153958	-0.075486
N183	N	0.961751	-0.300976	-0.551289
N184	N	1.461751	0.199024	-0.051289
H185	H	1.178682	-1.093945	-0.234661
H186	H	1.678682	-0.593945	0.265339
C187	C	1.258666	-1.030844	-0.154779
C188	C	1.758666	-0.530844	0.345221
N189	N	1.300478	-1.065036	-0.113048
N190	N	1.800478	-0.565036	0.386952
H191	H	1.030592	-0.367829	-0.716313
H192	H	1.530592	0.132171	-0.216313
H193	H	1.082942	-0.745489	-0.330104
H194	H	1.582942	-0.245489	0.169896
C195	C	0.975768	-0.314458	-0.909960
C196	C	1.475768	0.185542	-0.409960
N197	N	0.929392	-0.269392	-0.885761
N198	N	1.429392	0.230608	-0.385761
C199	C	0.983257	-0.321679	-1.063320
C200	C	1.483257	0.178321	-0.563320
N201	N	0.939836	-0.279464	-1.099625
N202	N	1.439836	0.220536	-0.599625
C203	C	1.243076	-0.574662	-0.698137
C204	C	1.743076	-0.074662	-0.198137
N205	N	1.289306	-0.619916	-0.722303
N206	N	1.789306	-0.119916	-0.222303
H207	H	0.724076	-0.521367	-0.355940
H208	H	1.224076	-0.021367	0.144060
C209	C	0.872454	-0.543201	-0.370791
C210	C	1.372454	-0.043201	0.129209
N211	N	0.912264	-0.588321	-0.401505
N212	N	1.412264	-0.088321	0.098495
C213	C	0.548915	-0.574761	-0.392279
C214	C	1.048915	-0.074761	0.107721
N215	N	0.588729	-0.619888	-0.422984
N216	N	1.088729	-0.119888	0.077016
H217	H	0.400526	-0.552926	-0.377428
H218	H	0.900526	-0.052926	0.122572
H219	H	0.495457	-0.367864	-0.251465
H220	H	0.995457	0.132136	0.248535
