data_functionalizedCrystal
_audit_creation_method	'MofGen! by Chris Wilmer'
_symmetry_space_group_name_H-M	'P1'
_symmetry_Int_Tables_number	1
_symmetry_cell_setting	triclinic
loop_
_symmetry_equiv_pos_as_xyz
  x,y,z
_cell_length_a	21.395362
_cell_length_b	10.686285
_cell_length_c	21.395356
_cell_angle_alpha	85.610420
_cell_angle_beta	89.964122
_cell_angle_gamma	85.645931
loop_
_atom_site_label
_atom_site_type_symbol
_atom_site_fract_x
_atom_site_fract_y
_atom_site_fract_z
Zn1	Zn	0.977029	-0.501825	-0.335536
Zn2	Zn	0.985028	-0.712833	-0.222749
Zn3	Zn	0.872263	-0.501920	-0.230734
Zn4	Zn	0.880294	-0.712823	-0.327454
O5	O	0.928654	-0.607350	-0.279118
O6	O	1.065767	-0.529781	-0.320616
O7	O	0.970055	-0.684898	-0.136129
O8	O	0.879451	-0.325336	-0.251360
O9	O	1.071643	-0.684807	-0.237751
O10	O	0.956423	-0.325267	-0.328358
O11	O	0.887207	-0.529941	-0.141995
O12	O	0.785651	-0.529932	-0.243524
O13	O	0.893140	-0.684790	-0.416206
O14	O	0.791552	-0.684882	-0.314583
O15	O	0.964211	-0.529771	-0.422144
O16	O	0.977844	-0.889403	-0.229914
O17	O	0.900896	-0.889396	-0.306841
C18	C	0.765868	-0.607417	-0.279043
C19	C	0.696229	-0.607476	-0.279025
C20	C	0.941127	-0.935182	-0.266648
C21	C	0.946520	-1.075430	-0.261334
C22	C	0.666609	-0.688265	-0.315962
C23	C	0.601173	-0.688234	-0.315991
C24	C	0.565359	-0.607427	-0.279071
C25	C	0.594987	-0.526622	-0.242132
C26	C	0.660422	-0.526647	-0.242109
C27	C	0.461254	-0.597282	-0.223051
C28	C	0.395820	-0.597266	-0.223073
C29	C	0.363535	-0.607345	-0.279144
C30	C	0.396693	-0.617466	-0.335193
C31	C	0.462128	-0.617490	-0.335170
C32	C	0.494406	-0.607391	-0.279093
C33	C	0.262962	-0.688105	-0.316115
C34	C	0.197524	-0.688065	-0.316146
C35	C	0.191339	-0.526460	-0.242281
C36	C	0.256775	-0.526493	-0.242257
C37	C	0.292583	-0.607322	-0.279172
C38	C	1.092074	-0.607284	-0.279194
C39	C	1.161715	-0.607256	-0.279227
C40	C	0.928679	-0.607269	-0.442545
C41	C	0.928691	-0.607235	-0.512187
C42	C	0.916149	-0.278238	-0.291652
C43	C	0.910820	-0.137991	-0.296993
C44	C	0.965748	-0.526315	-1.017084
C45	C	0.965744	-0.526346	-0.951648
C46	C	0.928738	-0.607067	-0.915832
C47	C	0.891744	-0.687786	-0.945458
C48	C	0.891754	-0.687762	-1.010893
C49	C	0.872653	-0.617091	-0.811757
C50	C	0.872642	-0.617106	-0.746323
C51	C	0.928709	-0.607147	-0.714008
C52	C	0.984788	-0.597148	-0.747136
C53	C	0.984797	-0.597124	-0.812571
C54	C	0.928724	-0.607102	-0.844879
C55	C	0.965699	-0.526472	-0.613437
C56	C	0.965697	-0.526511	-0.547998
C57	C	0.891691	-0.687945	-0.541810
C58	C	0.891699	-0.687913	-0.607247
C59	C	0.928702	-0.607169	-0.643056
C60	C	0.928660	-0.607340	-0.116331
C61	C	0.928757	-0.607019	-0.046703
H62	H	0.577051	-0.754022	-0.346071
H63	H	0.995829	-0.460725	-0.642594
C64	C	1.006389	-0.437733	-0.515418
H65	H	1.028422	-0.389637	-0.546120
H66	H	1.035523	-0.485990	-0.488067
H67	H	0.980322	-0.382778	-0.491975
C68	C	1.046478	-0.586143	-0.849012
H69	H	1.038450	-0.587549	-0.892610
H70	H	1.075439	-0.654775	-0.835685
H71	H	1.063592	-0.509315	-0.841230
C72	C	0.693005	-0.437782	-0.201473
H73	H	0.662307	-0.389653	-0.179486
H74	H	0.716482	-0.382881	-0.227564
H75	H	0.720324	-0.485998	-0.172288
H76	H	0.826993	-0.625201	-0.838062
H77	H	0.162180	-0.460659	-0.212224
C78	C	0.863961	-1.065410	-0.343734
H79	H	0.866367	-0.977508	-0.341300
H80	H	0.822691	-1.087048	-0.333703
H81	H	0.873926	-1.086878	-0.385040
H82	H	0.981208	-1.129169	-0.226732
H83	H	0.173409	-0.753851	-0.346228
H84	H	0.861562	-0.753675	-0.512649
C85	C	0.289360	-0.437640	-0.201617
H86	H	0.258661	-0.389516	-0.179628
H87	H	0.312836	-0.382734	-0.227706
H88	H	0.316679	-0.485859	-0.172434
H89	H	0.292118	-0.753915	-0.346178
H90	H	0.995882	-0.460573	-1.046237
C91	C	0.851036	-0.776573	-0.906064
H92	H	0.856323	-0.765020	-0.862851
H93	H	0.863429	-0.861344	-0.913559
H94	H	0.808237	-0.758115	-0.917474
H95	H	0.861630	-0.753483	-1.035007
C96	C	1.006428	-0.437553	-0.919061
H97	H	1.028462	-0.389455	-0.949760
H98	H	1.035560	-0.485799	-0.891704
H99	H	0.980353	-0.382601	-0.895624
C100	C	0.359353	-0.586223	-0.161417
H101	H	0.315761	-0.587695	-0.169457
H102	H	0.367135	-0.509377	-0.144338
H103	H	0.372663	-0.654832	-0.132417
C104	C	0.810960	-0.628102	-0.709886
H105	H	0.818982	-0.626674	-0.666288
H106	H	0.793851	-0.704927	-0.717670
H107	H	0.781995	-0.559468	-0.723215
C108	C	0.851000	-0.776673	-0.639829
H109	H	0.828955	-0.824746	-0.609129
H110	H	0.877058	-0.831630	-0.663273
H111	H	0.821868	-0.728397	-0.667180
H112	H	0.487535	-0.589069	-0.177389
C113	C	0.361191	-0.628541	-0.396877
H114	H	0.390310	-0.634576	-0.430251
H115	H	0.332941	-0.556227	-0.405201
H116	H	0.338426	-0.701673	-0.393233
C117	C	1.046464	-0.586187	-0.711600
H118	H	1.038430	-0.587645	-0.667884
H119	H	1.063577	-0.509356	-0.725261
H120	H	1.075432	-0.654814	-0.719721
H121	H	0.489122	-0.625727	-0.380807
C122	C	0.705994	-0.777160	-0.356575
H123	H	0.678977	-0.825262	-0.378582
H124	H	0.733576	-0.832084	-0.330468
H125	H	0.729721	-0.728962	-0.385742
C126	C	0.555595	-0.437737	-0.201522
H127	H	0.512381	-0.449301	-0.206821
H128	H	0.563122	-0.352987	-0.213981
H129	H	0.566973	-0.456102	-0.158705
