data_functionalizedCrystal
_audit_creation_method	'MofGen! by Chris Wilmer'
_symmetry_space_group_name_H-M	'P1'
_symmetry_Int_Tables_number	1
_symmetry_cell_setting	triclinic
loop_
_symmetry_equiv_pos_as_xyz
  x,y,z
_cell_length_a	12.759401
_cell_length_b	12.645329
_cell_length_c	12.759393
_cell_angle_alpha	89.968524
_cell_angle_beta	89.980326
_cell_angle_gamma	90.017141
loop_
_atom_site_label
_atom_site_type_symbol
_atom_site_fract_x
_atom_site_fract_y
_atom_site_fract_z
Zn1	Zn	1.606231	-0.422000	-0.594017
Zn2	Zn	1.606115	-0.599304	-0.418337
Zn3	Zn	1.430533	-0.422053	-0.418352
Zn4	Zn	1.430512	-0.599219	-0.593975
O5	O	1.518348	-0.510644	-0.506170
O6	O	1.753237	-0.445533	-0.570723
O7	O	1.582785	-0.575849	-0.271318
O8	O	1.453897	-0.273698	-0.441678
O9	O	1.753152	-0.575798	-0.441653
O10	O	1.582982	-0.273660	-0.570738
O11	O	1.453785	-0.445623	-0.271329
O12	O	1.283509	-0.445541	-0.441638
O13	O	1.453861	-0.575653	-0.741002
O14	O	1.283493	-0.575704	-0.570667
O15	O	1.582961	-0.445451	-0.741032
O16	O	1.582764	-0.747640	-0.441612
O17	O	1.453748	-0.747578	-0.570652
C18	C	1.245380	-0.510620	-0.506150
C19	C	1.128604	-0.510635	-0.506166
C20	C	1.073719	-0.442770	-0.439104
C21	C	0.963995	-0.442795	-0.439118
C22	C	0.964050	-0.578552	-0.573265
C23	C	1.073772	-0.578532	-0.573246
C24	C	0.813985	-0.404798	-0.315304
C25	C	0.759096	-0.336917	-0.248251
C26	C	0.794711	-0.233452	-0.232292
C27	C	0.885212	-0.197847	-0.283401
C28	C	0.940094	-0.265723	-0.350462
C29	C	0.904481	-0.369203	-0.366401
C30	C	1.223784	-0.616518	-0.697060
C31	C	1.278669	-0.684389	-0.764128
C32	C	1.243057	-0.787856	-0.780098
C33	C	1.152553	-0.823456	-0.729007
C34	C	1.097668	-0.755585	-0.661940
C35	C	1.133288	-0.652119	-0.645968
C36	C	1.518270	-0.786074	-0.506149
C37	C	1.518333	-0.903904	-0.506175
C38	C	1.437131	-0.948791	-0.587307
C39	C	1.437467	-1.071350	-0.587659
C40	C	1.629255	-1.071670	-0.536009
C41	C	1.628688	-0.949072	-0.536564
C42	C	1.489784	-0.949204	-0.395076
C43	C	1.487438	-1.071812	-0.395702
C44	C	1.792381	-0.510669	-0.506191
C45	C	1.909158	-0.510680	-0.506200
C46	C	1.518421	-0.510537	-0.780204
C47	C	1.518452	-0.510491	-0.896980
C48	C	1.518455	-0.234139	-0.506215
C49	C	1.518500	-0.116309	-0.506233
C50	C	1.451306	-0.442670	-0.951848
C51	C	1.451331	-0.442637	-1.061572
C52	C	1.585656	-0.578250	-1.061552
C53	C	1.585626	-0.578287	-0.951830
C54	C	1.327483	-0.404696	-1.211522
C55	C	1.260346	-0.336859	-1.266393
C56	C	1.244248	-0.233430	-1.230803
C57	C	1.295301	-0.197818	-1.140344
C58	C	1.362446	-0.265649	-1.085478
C59	C	1.378524	-0.369093	-1.121067
C60	C	1.709476	-0.616217	-0.801877
C61	C	1.776626	-0.684045	-0.747010
C62	C	1.792735	-0.787475	-0.782598
C63	C	1.741700	-0.823084	-0.873061
C64	C	1.674549	-0.755256	-0.927928
C65	C	1.658439	-0.651827	-0.892333
C66	C	1.518335	-0.510674	-0.233203
C67	C	1.518507	-0.510421	-0.116427
H68	H	0.685410	-0.365915	-0.206638
C69	C	1.661328	-0.910319	-0.646263
H70	H	1.674803	-0.969503	-0.690070
H71	H	1.722882	-0.868415	-0.640773
H72	H	1.606419	-0.869148	-0.675632
H73	H	1.456469	-1.100598	-0.669988
H74	H	1.754821	-0.907304	-0.902041
C75	C	1.659551	-0.652809	-1.121889
H76	H	1.649962	-0.643066	-1.195094
H77	H	1.644145	-0.724042	-1.103894
H78	H	1.730145	-0.637298	-1.103912
C79	C	1.691596	-0.502506	-0.762618
H80	H	1.644238	-0.467234	-0.808209
H81	H	1.756464	-0.465640	-0.761495
H82	H	1.662991	-0.504513	-0.693895
C83	C	1.418601	-0.226494	-0.985981
H84	H	1.460894	-0.281707	-0.958404
H85	H	1.368019	-0.206094	-0.935232
H86	H	1.461549	-0.167530	-1.002928
H87	H	1.123551	-0.907705	-0.742017
H88	H	0.919392	-0.633830	-0.627880
H89	H	1.218778	-0.365864	-1.340046
H90	H	1.632996	-0.784257	-1.001589
H91	H	0.750013	-0.178182	-0.177695
C92	C	1.866602	-0.862083	-0.722244
H93	H	1.894693	-0.826068	-0.663270
H94	H	1.922096	-0.883816	-0.766957
H95	H	1.828573	-0.922392	-0.699256
H96	H	1.410349	-0.918384	-0.367903
H97	H	1.287746	-0.843110	-0.834723
C98	C	1.345180	-0.518472	-1.250670
H99	H	1.305171	-0.529955	-1.312407
H100	H	1.323884	-0.567111	-1.198042
H101	H	1.417411	-0.528534	-1.265735
H102	H	0.784986	-0.489051	-0.328281
H103	H	1.691457	-1.100783	-0.478749
C104	C	1.713234	-0.908941	-0.460198
H105	H	1.747781	-0.967567	-0.428980
H106	H	1.681294	-0.867272	-0.407140
H107	H	1.762806	-0.867239	-0.497378
H108	H	1.396609	-0.387466	-0.907193
H109	H	1.818193	-0.655038	-0.673358
C110	C	1.326532	-1.112143	-0.562549
H111	H	1.326589	-1.187272	-0.562733
H112	H	1.278840	-1.086993	-0.613987
H113	H	1.305732	-1.087340	-0.495426
H114	H	1.354707	-0.919418	-0.568902
H115	H	1.282198	-0.113591	-1.111381
H116	H	1.455822	-0.917905	-0.669160
C117	C	1.170397	-0.158812	-1.291158
H118	H	1.142296	-0.194835	-1.350123
H119	H	1.208420	-0.098505	-1.314141
H120	H	1.114896	-0.137083	-1.246443
H121	H	1.013772	-0.236731	-0.392083
C122	C	0.924378	-0.084030	-0.265850
H123	H	0.878736	-0.048708	-0.218585
H124	H	0.925467	-0.047364	-0.330840
H125	H	0.993099	-0.085805	-0.237274
H126	H	1.118360	-0.387482	-0.384486
H127	H	1.352347	-0.655385	-0.805750
C128	C	0.998113	-0.794743	-0.605741
H129	H	0.984763	-0.866088	-0.624851
H130	H	0.940274	-0.751930	-0.625631
H131	H	1.007895	-0.790386	-0.532063
H132	H	1.653886	-1.102287	-0.616338
H133	H	1.252794	-0.532269	-0.684055
H134	H	1.542285	-1.102431	-0.332054
C135	C	1.377411	-1.111406	-0.365266
H136	H	1.350501	-1.154861	-0.419692
H137	H	1.332190	-1.052643	-0.355059
H138	H	1.381693	-1.151216	-0.302250
H139	H	1.548920	-0.920164	-0.334629
