data_functionalizedCrystal
_audit_creation_method	'MofGen! by Chris Wilmer'
_symmetry_space_group_name_H-M	'P1'
_symmetry_Int_Tables_number	1
_symmetry_cell_setting	triclinic
loop_
_symmetry_equiv_pos_as_xyz
  x,y,z
_cell_length_a	21.395362
_cell_length_b	25.639239
_cell_length_c	21.395356
_cell_angle_alpha	89.973562
_cell_angle_beta	89.964230
_cell_angle_gamma	90.054564
loop_
_atom_site_label
_atom_site_type_symbol
_atom_site_fract_x
_atom_site_fract_y
_atom_site_fract_z
Zn1	Zn	0.957774	-0.207953	-0.354582
Zn2	Zn	0.957677	-0.295384	-0.249803
Zn3	Zn	0.853004	-0.207988	-0.249783
Zn4	Zn	0.852944	-0.295384	-0.354508
O5	O	0.905350	-0.251677	-0.302169
O6	O	1.045439	-0.219536	-0.340722
O7	O	0.943777	-0.283805	-0.162122
O8	O	0.866968	-0.134818	-0.263708
O9	O	1.045368	-0.283771	-0.263741
O10	O	0.943942	-0.134793	-0.340703
O11	O	0.866874	-0.219596	-0.162108
O12	O	0.765318	-0.219596	-0.263636
O13	O	0.866865	-0.283771	-0.442195
O14	O	0.765274	-0.283805	-0.340576
O15	O	0.943884	-0.219536	-0.442250
O16	O	0.943718	-0.368549	-0.263669
O17	O	0.866771	-0.368549	-0.340596
C18	C	0.742562	-0.251705	-0.302096
C19	C	0.672921	-0.251729	-0.302080
C20	C	0.640201	-0.285207	-0.342083
C21	C	0.574766	-0.285194	-0.342111
C22	C	0.542053	-0.251709	-0.302125
C23	C	0.574780	-0.218225	-0.262119
C24	C	0.640214	-0.218235	-0.262097
C25	C	0.438337	-0.247503	-0.245720
C26	C	0.372904	-0.247497	-0.245741
C27	C	0.340232	-0.251675	-0.302194
C28	C	0.373001	-0.255871	-0.358627
C29	C	0.438435	-0.255881	-0.358605
C30	C	0.471100	-0.251694	-0.302145
C31	C	0.236560	-0.285141	-0.342231
C32	C	0.171123	-0.285124	-0.342259
C33	C	0.171139	-0.218157	-0.262262
C34	C	0.236574	-0.218171	-0.262238
C35	C	0.269281	-0.251666	-0.302222
C36	C	0.905244	-0.387520	-0.302140
C37	C	0.905257	-0.445634	-0.302149
C38	C	0.945521	-0.805984	-0.262182
C39	C	0.945545	-0.860589	-0.262190
O40	O	0.979670	-0.888815	-0.228177
N41	N	0.905460	-0.887916	-0.302211
C42	C	0.865352	-0.860637	-0.342230
O43	O	0.831260	-0.888895	-0.376271
C44	C	0.865332	-0.806033	-0.342224
C45	C	0.905415	-0.778709	-0.302196
C46	C	0.985601	-0.778659	-0.222158
C47	C	0.985576	-0.724059	-0.222149
C48	C	0.945470	-0.696783	-0.262164
C49	C	0.905390	-0.724108	-0.302187
C50	C	0.825228	-0.778755	-0.382246
C51	C	0.825211	-0.724148	-0.382237
C52	C	0.865294	-0.696823	-0.342209
C53	C	0.865259	-0.642232	-0.342193
N54	N	0.905344	-0.614904	-0.302173
C55	C	0.945450	-0.642180	-0.262158
C56	C	0.865400	-0.975307	-0.342239
C57	C	0.865417	-1.029910	-0.342242
C58	C	0.945610	-1.029858	-0.262204
C59	C	0.945590	-0.975254	-0.262198
C60	C	0.905485	-0.947980	-0.302219
C61	C	0.945393	-0.527515	-0.262142
C62	C	0.945362	-0.472909	-0.262134
C63	C	0.865172	-0.472966	-0.342175
C64	C	0.865200	-0.527567	-0.342180
C65	C	0.905315	-0.554840	-0.302162
O66	O	0.831153	-0.613971	-0.376190
O67	O	0.979542	-0.613915	-0.228128
C68	C	1.068773	-0.251650	-0.302242
C69	C	1.138414	-0.251638	-0.302274
C70	C	0.905379	-0.251650	-0.465592
C71	C	0.905391	-0.251638	-0.535234
C72	C	0.905473	-0.115304	-0.302212
C73	C	0.905525	-0.057190	-0.302230
C74	C	0.945504	-0.284962	-1.037038
C75	C	0.945493	-0.284979	-0.971603
C76	C	0.905451	-0.251555	-0.938872
C77	C	0.865405	-0.218122	-0.971583
C78	C	0.865413	-0.218110	-1.037017
C79	C	0.900533	-0.204469	-0.835216
C80	C	0.900529	-0.204480	-0.769783
C81	C	0.905422	-0.251592	-0.737051
C82	C	0.910332	-0.298695	-0.769761
C83	C	0.910340	-0.298683	-0.835195
C84	C	0.905437	-0.251565	-0.867920
C85	C	0.945450	-0.285044	-0.633396
C86	C	0.945435	-0.285061	-0.567960
C87	C	0.865350	-0.218200	-0.567941
C88	C	0.865362	-0.218187	-0.633376
C89	C	0.905416	-0.251608	-0.666100
C90	C	0.905357	-0.251667	-0.139381
C91	C	0.905466	-0.251531	-0.069741
H92	H	0.263215	-0.190912	-0.229661
H93	H	0.978063	-0.312259	-0.660041
N94	N	0.988616	-0.321124	-0.532684
H95	H	1.013990	-0.342292	-0.563346
H96	H	1.017623	-0.299840	-0.505553
H97	H	0.548120	-0.312456	-0.374689
H98	H	0.144484	-0.312385	-0.374839
H99	H	0.465113	-0.259296	-0.404555
H100	H	1.018263	-0.800861	-0.189573
N101	N	0.988868	-1.059286	-0.219046
H102	H	1.017893	-1.081896	-0.244553
H103	H	1.014219	-1.033662	-0.193695
N104	N	0.915571	-0.349526	-0.734488
H105	H	0.956097	-0.367324	-0.745884
H106	H	0.914779	-0.342366	-0.688080
H107	H	0.978229	-0.953010	-0.229605
N108	N	0.988683	-0.321032	-0.936318
H109	H	0.963200	-0.345273	-0.909148
H110	H	1.014049	-0.342168	-0.967016
N111	N	0.822187	-0.182120	-0.668651
H112	H	0.828269	-0.187183	-0.715069
H113	H	0.777430	-0.190267	-0.657190
N114	N	0.915632	-0.349481	-0.870475
H115	H	0.918731	-0.379330	-0.839816
H116	H	0.877455	-0.354336	-0.897603
H117	H	0.832736	-0.953103	-0.374827
H118	H	0.144505	-0.190891	-0.229707
N119	N	0.822164	-0.182142	-0.532654
H120	H	0.777391	-0.190266	-0.544017
H121	H	0.828283	-0.187234	-0.486249
H122	H	0.792585	-0.800993	-0.414837
H123	H	0.792554	-0.701943	-0.414829
H124	H	0.832771	-1.052153	-0.374831
N125	N	0.895249	-0.153679	-0.734506
H126	H	0.892146	-0.123832	-0.765169
H127	H	0.856643	-0.154441	-0.707332
H128	H	0.346228	-0.244083	-0.199789
H129	H	0.832563	-0.549816	-0.374776
H130	H	0.832516	-0.450750	-0.374753
H131	H	0.548141	-0.190960	-0.229563
H132	H	0.263191	-0.312411	-0.374791
N133	N	0.988700	-0.321010	-1.072333
H134	H	1.014061	-0.342192	-1.041683
H135	H	0.963177	-0.345207	-1.099460
N136	N	0.895251	-0.153653	-0.870517
H137	H	0.892145	-0.123816	-0.839869
H138	H	0.933434	-0.148786	-0.897687
N139	N	0.822223	-0.182067	-0.936283
H140	H	0.796860	-0.160885	-0.966932
H141	H	0.793207	-0.203357	-0.909109
N142	N	0.675477	-0.321331	-0.385206
H143	H	0.644816	-0.342538	-0.410553
H144	H	0.702683	-0.300088	-0.414241
N145	N	0.337773	-0.260381	-0.419522
H146	H	0.291349	-0.259736	-0.410976
H147	H	0.349282	-0.230180	-0.447595
N148	N	0.822226	-0.182051	-1.072291
H149	H	0.831984	-0.144694	-1.060920
H150	H	0.828328	-0.187160	-1.118698
N151	N	0.473573	-0.242993	-0.184827
H152	H	0.442886	-0.240339	-0.149082
H153	H	0.500672	-0.274848	-0.178932
H154	H	0.666855	-0.190971	-0.229521
H155	H	0.978061	-0.549714	-0.229556
N156	N	0.988598	-0.443438	-0.218962
H157	H	1.014010	-0.469006	-0.193618
H158	H	1.017567	-0.420739	-0.244501
N159	N	1.028818	-0.694591	-0.178986
H160	H	1.054229	-0.720162	-0.153646
H161	H	1.057787	-0.671897	-0.204531
