data_functionalizedCrystal
_audit_creation_method	'MofGen! by Chris Wilmer'
_symmetry_space_group_name_H-M	'P1'
_symmetry_Int_Tables_number	1
_symmetry_cell_setting	triclinic
loop_
_symmetry_equiv_pos_as_xyz
  x,y,z
_cell_length_a	12.645330
_cell_length_b	16.625548
_cell_length_c	16.625539
_cell_angle_alpha	89.988279
_cell_angle_beta	89.975479
_cell_angle_gamma	90.018732
loop_
_atom_site_label
_atom_site_type_symbol
_atom_site_fract_x
_atom_site_fract_y
_atom_site_fract_z
Zn1	Zn	-0.421885	1.232708	-0.455805
Zn2	Zn	-0.088552	1.566041	-0.122472
Zn3	Zn	0.244782	1.899374	0.210861
Zn4	Zn	-0.599165	1.232642	-0.320977
Zn5	Zn	-0.265832	1.565975	0.012356
Zn6	Zn	0.067502	1.899309	0.345690
Zn7	Zn	-0.421935	1.097878	-0.320998
Zn8	Zn	-0.088602	1.431211	0.012335
Zn9	Zn	0.244732	1.764544	0.345668
Zn10	Zn	-0.599126	1.097863	-0.455780
Zn11	Zn	-0.265792	1.431196	-0.122446
Zn12	Zn	0.067541	1.764530	0.210887
O13	O	-0.510528	1.165273	-0.388390
O14	O	-0.177194	1.498606	-0.055057
O15	O	0.156139	1.831939	0.278277
O16	O	-0.445397	1.345531	-0.437922
O17	O	-0.112064	1.678865	-0.104589
O18	O	0.221270	2.012198	0.228745
O19	O	-0.575693	1.214744	-0.208148
O20	O	-0.242359	1.548077	0.125186
O21	O	0.090974	1.881411	0.458519
O22	O	-0.273581	1.115797	-0.338901
O23	O	0.059752	1.449130	-0.005567
O24	O	0.393086	1.782463	0.327766
O25	O	-0.575644	1.345483	-0.338864
O26	O	-0.242311	1.678817	-0.005531
O27	O	0.091023	2.012150	0.327802
O28	O	-0.273544	1.214856	-0.437943
O29	O	0.059789	1.548189	-0.104609
O30	O	0.393122	1.881522	0.228724
O31	O	-0.445482	1.115733	-0.208163
O32	O	-0.112149	1.449067	0.125170
O33	O	0.221184	1.782400	0.458503
O34	O	-0.445444	0.985043	-0.338876
O35	O	-0.112111	1.318377	-0.005542
O36	O	0.221223	1.651710	0.327791
O37	O	-0.575577	1.115772	-0.568615
O38	O	-0.242243	1.449105	-0.235282
O39	O	0.091090	1.782438	0.098051
O40	O	-0.575625	0.985032	-0.437899
O41	O	-0.242292	1.318366	-0.104565
O42	O	0.091041	1.651699	0.228768
O43	O	-0.445359	1.214841	-0.568634
O44	O	-0.112025	1.548175	-0.235301
O45	O	0.221308	1.881508	0.098032
O46	O	-0.747507	1.214730	-0.338839
O47	O	-0.414174	1.548063	-0.005506
O48	O	-0.080840	1.881397	0.327827
O49	O	-0.747478	1.115708	-0.437878
O50	O	-0.414145	1.449041	-0.104545
O51	O	-0.080811	1.782375	0.228789
C52	C	-0.510537	0.955782	-0.388387
C53	C	-0.177203	1.289115	-0.055054
C54	C	0.156130	1.622448	0.278280
C55	C	-0.510566	0.866161	-0.388405
C56	C	-0.177233	1.199494	-0.055072
C57	C	0.156101	1.532827	0.278262
C58	C	-0.785957	1.165232	-0.388371
C59	C	-0.452624	1.498565	-0.055038
C60	C	-0.119291	1.831899	0.278296
C61	C	-0.903787	1.165289	-0.388390
C62	C	-0.570454	1.498622	-0.055057
C63	C	-0.237121	1.831955	0.278277
C64	C	-1.071326	1.227483	-0.325958
C65	C	-0.737992	1.560817	0.007375
C66	C	-0.404659	1.894150	0.340709
C67	C	-0.948765	1.227686	-0.326111
C68	C	-0.615432	1.561019	0.007222
C69	C	-0.282099	1.894352	0.340556
C70	C	-0.948171	1.188327	-0.473380
C71	C	-0.614838	1.521660	-0.140047
C72	C	-0.281504	1.854993	0.193286
C73	C	-1.070769	1.188820	-0.473049
C74	C	-0.737436	1.522154	-0.139716
C75	C	-0.404102	1.855487	0.193618
C76	C	-1.071125	1.080032	-0.366669
C77	C	-0.737792	1.413365	-0.033335
C78	C	-0.404459	1.746698	0.299998
C79	C	-0.948521	1.080440	-0.364763
C80	C	-0.615188	1.413774	-0.031429
C81	C	-0.281854	1.747107	0.301904
C82	C	-0.510458	1.165312	-0.598699
C83	C	-0.177124	1.498645	-0.265366
C84	C	0.156209	1.831979	0.067968
C85	C	-0.510428	1.165329	-0.688320
C86	C	-0.177095	1.498662	-0.354987
C87	C	0.156239	1.831996	-0.021654
C88	C	-0.234022	1.165335	-0.388427
C89	C	0.099311	1.498668	-0.055094
C90	C	0.432644	1.832002	0.278240
C91	C	-0.116192	1.165362	-0.388443
C92	C	0.217141	1.498695	-0.055109
C93	C	0.550474	1.832028	0.278224
C94	C	-0.510519	1.375581	-0.388394
C95	C	-0.177186	1.708915	-0.055060
C96	C	0.156147	2.042248	0.278273
C97	C	-0.510516	1.465203	-0.388395
C98	C	-0.177183	1.798536	-0.055062
C99	C	0.156151	2.131869	0.278272
C100	C	-0.510565	1.793378	-0.388400
C101	C	-0.177232	2.126711	-0.055067
C102	C	0.156101	2.460045	0.278267
C103	C	-0.510555	1.702070	-0.388396
C104	C	-0.177221	2.035403	-0.055063
C105	C	0.156112	2.368736	0.278271
C106	C	-0.510540	1.629293	-0.388397
C107	C	-0.177207	1.962627	-0.055064
C108	C	0.156127	2.295960	0.278270
C109	C	-0.510530	1.537979	-0.388394
C110	C	-0.177197	1.871312	-0.055061
C111	C	0.156136	2.204646	0.278272
C112	C	-0.510404	1.165342	-0.761103
C113	C	-0.177071	1.498675	-0.427769
C114	C	0.156262	1.832009	-0.094436
C115	C	-0.510365	1.165361	-0.852411
C116	C	-0.177032	1.498694	-0.519078
C117	C	0.156302	1.832028	-0.185745
C118	C	-0.510328	1.165380	-0.925188
C119	C	-0.176994	1.498713	-0.591854
C120	C	0.156339	1.832047	-0.258521
C121	C	-0.510289	1.165400	-1.016502
C122	C	-0.176956	1.498733	-0.683169
C123	C	0.156377	1.832067	-0.349835
C124	C	-0.510521	1.165280	-0.178899
C125	C	-0.177188	1.498613	0.154434
C126	C	0.156146	1.831946	0.487767
C127	C	-0.510252	1.165419	-0.089279
C128	C	-0.176919	1.498752	0.244055
C129	C	0.156415	1.832086	0.577388
H130	H	-1.100877	1.213250	-0.262754
H131	H	-0.767543	1.546583	0.070579
H132	H	-0.434210	1.879917	0.403912
H133	H	-1.100445	1.145555	-0.521208
H134	H	-0.767112	1.478889	-0.187875
H135	H	-0.433779	1.812222	0.145458
H136	H	-1.102048	1.290345	-0.340198
H137	H	-0.768714	1.623679	-0.006865
H138	H	-0.435381	1.957012	0.326468
C139	C	-1.021882	1.322548	-0.513008
C140	C	-0.688549	1.655881	-0.179675
C141	C	-0.355215	1.989215	0.153659
C142	C	-1.109258	1.273021	-0.497938
C143	C	-0.775925	1.606355	-0.164605
C144	C	-0.442592	1.939688	0.168729
H145	H	-1.045642	1.374532	-0.528367
H146	H	-0.712309	1.707866	-0.195034
H147	H	-0.378976	2.041199	0.138299
H148	H	-0.980665	1.300069	-0.555151
H149	H	-0.647332	1.633403	-0.221818
H150	H	-0.313999	1.966736	0.111515
H151	H	-0.980091	1.326640	-0.465718
H152	H	-0.646757	1.659974	-0.132385
H153	H	-0.313424	1.993307	0.200949
H154	H	-1.151046	1.268924	-0.545230
H155	H	-0.817713	1.602257	-0.211896
H156	H	-0.484379	1.935591	0.121437
H157	H	-1.150493	1.295505	-0.455791
H158	H	-0.817159	1.628839	-0.122458
H159	H	-0.483826	1.962172	0.210876
C160	C	-0.995686	1.364130	-0.357132
C161	C	-0.662353	1.697464	-0.023798
C162	C	-0.329019	2.030797	0.309535
C163	C	-0.909044	1.313001	-0.345565
C164	C	-0.575711	1.646334	-0.012232
C165	C	-0.242378	1.979668	0.321102
H166	H	-0.971162	1.416800	-0.369150
H167	H	-0.637829	1.750134	-0.035817
H168	H	-0.304495	2.083467	0.297517
H169	H	-1.037273	1.365486	-0.309563
H170	H	-0.703940	1.698819	0.023770
H171	H	-0.370606	2.032153	0.357103
H172	H	-1.037374	1.344784	-0.400537
H173	H	-0.704040	1.678118	-0.067203
H174	H	-0.370707	2.011451	0.266130
H175	H	-0.867361	1.332343	-0.302156
H176	H	-0.534027	1.665677	0.031177
H177	H	-0.200694	1.999010	0.364511
H178	H	-0.867440	1.311648	-0.393139
H179	H	-0.534107	1.644981	-0.059806
H180	H	-0.200773	1.978315	0.273528
C181	C	-0.996380	1.045562	-0.229412
C182	C	-0.663047	1.378895	0.103922
C183	C	-0.329714	1.712228	0.437255
C184	C	-0.909414	1.057041	-0.280303
C185	C	-0.576081	1.390374	0.053031
C186	C	-0.242748	1.723708	0.386364
H187	H	-0.972242	1.031140	-0.177261
H188	H	-0.638909	1.364473	0.156072
H189	H	-0.305576	1.697806	0.489406
H190	H	-1.039775	1.003816	-0.250190
H191	H	-0.706442	1.337149	0.083143
H192	H	-0.373108	1.670483	0.416477
H193	H	-1.036092	1.093951	-0.226261
H194	H	-0.702759	1.427284	0.107073
H195	H	-0.369426	1.760617	0.440406
H196	H	-0.869706	1.008650	-0.283458
H197	H	-0.536373	1.341983	0.049875
H198	H	-0.203039	1.675316	0.383208
H199	H	-0.866002	1.098790	-0.259519
H200	H	-0.532669	1.432123	0.073814
H201	H	-0.199335	1.765456	0.407147
C202	C	-0.938490	1.031989	-0.500582
C203	C	-0.605157	1.365322	-0.167248
C204	C	-0.271823	1.698656	0.166085
C205	C	-0.907210	1.014583	-0.421695
C206	C	-0.573877	1.347916	-0.088362
C207	C	-0.240543	1.681249	0.244971
H208	H	-0.912991	0.991330	-0.535732
H209	H	-0.579657	1.324663	-0.202399
H210	H	-0.246324	1.657996	0.130934
H211	H	-0.910210	1.082555	-0.516252
H212	H	-0.576877	1.415889	-0.182919
H213	H	-0.243544	1.749222	0.150415
H214	H	-1.013486	1.033873	-0.503261
H215	H	-0.680153	1.367206	-0.169927
H216	H	-0.346820	1.700539	0.163406
H217	H	-0.832213	1.012705	-0.419015
H218	H	-0.498879	1.346038	-0.085682
H219	H	-0.165546	1.679372	0.247652
H220	H	-0.935485	0.964003	-0.406021
H221	H	-0.602152	1.297336	-0.072687
H222	H	-0.268818	1.630669	0.260646
H223	H	-0.919034	1.144457	-0.521183
H224	H	-0.585701	1.477791	-0.187850
H225	H	-0.252368	1.811124	0.145484
C226	C	-1.168561	0.957961	-0.388311
C227	C	-0.835228	1.291294	-0.054978
C228	C	-0.501894	1.624627	0.278355
C229	C	-1.110300	1.017547	-0.428103
C230	C	-0.776967	1.350881	-0.094770
C231	C	-0.443634	1.684214	0.238564
H232	H	-1.192743	0.919391	-0.426242
H233	H	-0.859410	1.252724	-0.092909
H234	H	-0.526076	1.586058	0.240424
H235	H	-1.227501	0.981829	-0.362149
H236	H	-0.894168	1.315162	-0.028815
H237	H	-0.560835	1.648496	0.304518
H238	H	-1.124941	0.932242	-0.349565
H239	H	-0.791607	1.265576	-0.016231
H240	H	-0.458274	1.598909	0.317102
H241	H	-1.153923	1.043270	-0.466846
H242	H	-0.820590	1.376603	-0.133512
H243	H	-0.487257	1.709937	0.199821
H244	H	-1.051352	0.993677	-0.454279
H245	H	-0.718018	1.327010	-0.120945
H246	H	-0.384685	1.660343	0.212388
H247	H	-0.918761	1.213272	-0.263092
H248	H	-0.585427	1.546606	0.070242
H249	H	-0.252094	1.879939	0.403575
H250	H	-0.917375	1.249994	-0.492133
H251	H	-0.584042	1.583328	-0.158799
H252	H	-0.250709	1.916661	0.174534
H253	H	-1.102134	1.059080	-0.305774
H254	H	-0.768801	1.392413	0.027560
H255	H	-0.435467	1.725747	0.360893
