data_functionalizedCrystal
_audit_creation_method	'MofGen! by Chris Wilmer'
_symmetry_space_group_name_H-M	'P1'
_symmetry_Int_Tables_number	1
_symmetry_cell_setting	triclinic
loop_
_symmetry_equiv_pos_as_xyz
  x,y,z
_cell_length_a	15.944545
_cell_length_b	23.532407
_cell_length_c	14.421503
_cell_angle_alpha	89.999621
_cell_angle_beta	89.995153
_cell_angle_gamma	83.172425
loop_
_atom_site_label
_atom_site_type_symbol
_atom_site_fract_x
_atom_site_fract_y
_atom_site_fract_z
O1	O	1.113914	0.073425	-0.077061
O2	O	1.363914	0.323425	0.172939
O3	O	1.613914	0.573425	0.422939
O4	O	1.863914	0.823425	0.672939
O5	O	0.869287	0.082484	-0.077078
O6	O	1.119287	0.332484	0.172922
O7	O	1.369287	0.582484	0.422922
O8	O	1.619287	0.832484	0.672922
O9	O	0.998977	-0.004949	-0.077052
O10	O	1.248977	0.245051	0.172948
O11	O	1.498977	0.495051	0.422948
O12	O	1.748977	0.745051	0.672948
O13	O	0.984224	0.160858	-0.077087
O14	O	1.234224	0.410858	0.172913
O15	O	1.484224	0.660858	0.422913
O16	O	1.734224	0.910858	0.672913
O17	O	0.998956	-0.004936	0.077171
O18	O	1.248956	0.245064	0.327171
O19	O	1.498956	0.495064	0.577171
O20	O	1.748956	0.745064	0.827171
O21	O	0.869266	0.082497	0.077146
O22	O	1.119266	0.332497	0.327146
O23	O	1.369266	0.582497	0.577146
O24	O	1.619266	0.832497	0.827146
O25	O	1.113892	0.073438	0.077162
O26	O	1.363892	0.323438	0.327162
O27	O	1.613892	0.573438	0.577162
O28	O	1.863892	0.823438	0.827162
Cu29	Cu	0.991577	0.077969	0.091236
Cu30	Cu	1.241577	0.327969	0.341236
Cu31	Cu	1.491577	0.577969	0.591236
Cu32	Cu	1.741577	0.827969	0.841236
Cu33	Cu	0.991602	0.077953	-0.091151
Cu34	Cu	1.241602	0.327953	0.158849
Cu35	Cu	1.491602	0.577953	0.408849
Cu36	Cu	1.741602	0.827953	0.658849
O37	O	0.984202	0.160871	0.077136
O38	O	1.234202	0.410871	0.327136
O39	O	1.484202	0.660871	0.577136
O40	O	1.734202	0.910871	0.827136
C41	C	0.837986	0.082115	0.000032
C42	C	1.087986	0.332115	0.250032
C43	C	1.337986	0.582115	0.500032
C44	C	1.587986	0.832115	0.750032
C45	C	0.744749	0.080990	0.000027
C46	C	0.994749	0.330990	0.250027
C47	C	1.244749	0.580990	0.500027
C48	C	1.494749	0.830990	0.750027
C49	C	0.998591	-0.026160	0.000062
C50	C	1.248591	0.223840	0.250062
C51	C	1.498591	0.473840	0.500062
C52	C	1.748591	0.723840	0.750062
C53	C	0.997461	-0.089381	0.000069
C54	C	1.247461	0.160619	0.250069
C55	C	1.497461	0.410619	0.500069
C56	C	1.747461	0.660619	0.750069
C57	C	0.474601	0.023431	0.000049
C58	C	0.724601	0.273431	0.250049
C59	C	0.974601	0.523431	0.500049
C60	C	1.224601	0.773431	0.750049
C61	C	0.524938	0.051188	0.076085
C62	C	0.774938	0.301188	0.326085
C63	C	1.024938	0.551188	0.576085
C64	C	1.274938	0.801188	0.826085
C65	C	0.409139	0.076975	0.000044
C66	C	0.659139	0.326975	0.250044
C67	C	0.909139	0.576975	0.500044
C68	C	1.159139	0.826975	0.750044
C69	C	0.524940	0.051189	-0.075967
C70	C	0.774940	0.301189	0.174033
C71	C	1.024940	0.551189	0.424033
C72	C	1.274940	0.801189	0.674033
C73	C	0.574036	0.078945	0.000034
C74	C	0.824036	0.328945	0.250034
C75	C	1.074036	0.578945	0.500034
C76	C	1.324036	0.828945	0.750034
C77	C	0.458248	0.104718	0.076143
C78	C	0.708248	0.354718	0.326143
C79	C	0.958248	0.604718	0.576143
C80	C	1.208248	0.854718	0.826143
C81	C	0.458246	0.104711	-0.075978
C82	C	0.708246	0.354711	0.174022
C83	C	0.958246	0.604711	0.424022
C84	C	1.208246	0.854711	0.674022
C85	C	0.508550	0.132507	0.000078
C86	C	0.758550	0.382507	0.250078
C87	C	1.008550	0.632507	0.500078
C88	C	1.258550	0.882507	0.750078
C89	C	0.314146	0.075839	0.000050
C90	C	0.564146	0.325839	0.250050
C91	C	0.814146	0.575839	0.500050
C92	C	1.064146	0.825839	0.750050
C93	C	0.669025	0.080085	0.000034
C94	C	0.919025	0.330085	0.250034
C95	C	1.169025	0.580085	0.500034
C96	C	1.419025	0.830085	0.750034
C97	C	1.067124	-0.488215	0.000023
C98	C	1.317124	-0.238215	0.250023
C99	C	1.567124	0.011785	0.500023
C100	C	1.817124	0.261785	0.750023
C101	C	1.066075	-0.547620	0.000016
C102	C	1.316075	-0.297620	0.250016
C103	C	1.566075	-0.047620	0.500016
C104	C	1.816075	0.202380	0.750016
O105	O	1.130653	-0.584115	-0.000014
O106	O	1.380653	-0.334115	0.249986
O107	O	1.630653	-0.084115	0.499986
O108	O	1.880653	0.165885	0.749986
N109	N	0.988974	-0.570543	0.000011
N110	N	1.238974	-0.320543	0.250011
N111	N	1.488974	-0.070543	0.500011
N112	N	1.738974	0.179457	0.750011
C113	C	0.912918	-0.534059	0.000005
C114	C	1.162918	-0.284059	0.250005
C115	C	1.412918	-0.034059	0.500005
C116	C	1.662918	0.215941	0.750005
O117	O	0.847241	-0.559012	-0.000001
O118	O	1.097241	-0.309012	0.249999
O119	O	1.347241	-0.059012	0.499999
O120	O	1.597241	0.190988	0.749999
C121	C	0.913968	-0.474656	0.000005
C122	C	1.163968	-0.224656	0.250005
C123	C	1.413968	0.025344	0.500005
C124	C	1.663968	0.275344	0.750005
C125	C	0.991074	-0.451736	0.000019
C126	C	1.241074	-0.201736	0.250019
C127	C	1.491074	0.048264	0.500019
C128	C	1.741074	0.298264	0.750019
C129	C	1.144224	-0.465295	0.000036
C130	C	1.394224	-0.215295	0.250036
C131	C	1.644224	0.034705	0.500036
C132	C	1.894224	0.284705	0.750036
C133	C	1.145273	-0.405894	0.000045
C134	C	1.395273	-0.155894	0.250045
C135	C	1.645273	0.094106	0.500045
C136	C	1.895273	0.344106	0.750045
C137	C	1.069222	-0.369415	0.000041
C138	C	1.319222	-0.119415	0.250041
C139	C	1.569222	0.130585	0.500041
C140	C	1.819222	0.380585	0.750041
C141	C	0.992123	-0.392336	0.000028
C142	C	1.242123	-0.142336	0.250028
C143	C	1.492123	0.107664	0.500028
C144	C	1.742123	0.357664	0.750028
C145	C	0.837913	-0.438173	-0.000008
C146	C	1.087913	-0.188173	0.249992
C147	C	1.337913	0.061827	0.499992
C148	C	1.587913	0.311827	0.749992
C149	C	0.838970	-0.378766	-0.000009
C150	C	1.088970	-0.128766	0.249991
C151	C	1.338970	0.121234	0.499991
C152	C	1.588970	0.371234	0.749991
C153	C	0.916075	-0.355846	0.000005
C154	C	1.166075	-0.105846	0.250005
C155	C	1.416075	0.144154	0.500005
C156	C	1.666075	0.394154	0.750005
C157	C	0.917121	-0.296456	0.000033
C158	C	1.167121	-0.046456	0.250033
C159	C	1.417121	0.203544	0.500033
C160	C	1.667121	0.453544	0.750033
N161	N	0.994222	-0.273532	0.000037
N162	N	1.244222	-0.023532	0.250037
N163	N	1.494222	0.226468	0.500037
N164	N	1.744222	0.476468	0.750037
C165	C	1.070272	-0.310012	0.000041
C166	C	1.320272	-0.060012	0.250041
C167	C	1.570272	0.189988	0.500041
C168	C	1.820272	0.439988	0.750041
C169	C	0.910718	-0.658810	0.000002
C170	C	1.160718	-0.408810	0.250002
C171	C	1.410718	-0.158810	0.500002
C172	C	1.660718	0.091190	0.750002
C173	C	0.909667	-0.718212	0.000008
C174	C	1.159667	-0.468212	0.250008
C175	C	1.409667	-0.218212	0.500008
C176	C	1.659667	0.031788	0.750008
C177	C	1.062825	-0.731768	0.000018
C178	C	1.312825	-0.481768	0.250018
C179	C	1.562825	-0.231768	0.500018
C180	C	1.812825	0.018232	0.750018
C181	C	1.063875	-0.672365	0.000018
C182	C	1.313875	-0.422365	0.250018
C183	C	1.563875	-0.172365	0.500018
C184	C	1.813875	0.077635	0.750018
C185	C	0.987819	-0.635886	0.000006
C186	C	1.237819	-0.385886	0.250006
C187	C	1.487819	-0.135886	0.500006
C188	C	1.737819	0.114114	0.750006
C189	C	1.072470	-0.185267	0.000060
C190	C	1.322470	0.064733	0.250060
C191	C	1.572470	0.314733	0.500060
C192	C	1.822470	0.564733	0.750060
C193	C	1.073512	-0.125860	0.000073
C194	C	1.323512	0.124140	0.250073
C195	C	1.573512	0.374140	0.500073
C196	C	1.823512	0.624140	0.750073
C197	C	0.920355	-0.112309	0.000059
C198	C	1.170355	0.137691	0.250059
C199	C	1.420355	0.387691	0.500059
C200	C	1.670355	0.637691	0.750059
C201	C	0.919312	-0.171710	0.000051
C202	C	1.169312	0.078290	0.250051
C203	C	1.419312	0.328290	0.500051
C204	C	1.669312	0.578290	0.750051
C205	C	0.995376	-0.208188	0.000049
C206	C	1.245376	0.041812	0.250049
C207	C	1.495376	0.291812	0.500049
C208	C	1.745376	0.541812	0.750049
O209	O	0.852577	-0.259926	0.000059
O210	O	1.102577	-0.009926	0.250059
O211	O	1.352577	0.240074	0.500059
O212	O	1.602577	0.490074	0.750059
O213	O	1.135938	-0.285050	0.000034
O214	O	1.385938	-0.035050	0.250034
O215	O	1.635938	0.214950	0.500034
O216	O	1.885938	0.464950	0.750034
C217	C	1.145194	0.073807	0.000050
C218	C	1.395194	0.323807	0.250050
C219	C	1.645194	0.573807	0.500050
C220	C	1.895194	0.823807	0.750050
C221	C	1.238431	0.074933	0.000049
C222	C	1.488431	0.324933	0.250049
C223	C	1.738431	0.574933	0.500049
C224	C	1.988431	0.824933	0.750049
C225	C	0.984589	0.182082	0.000020
C226	C	1.234589	0.432082	0.250020
C227	C	1.484589	0.682082	0.500020
C228	C	1.734589	0.932082	0.750020
C229	C	0.985718	0.245303	0.000007
C230	C	1.235718	0.495303	0.250007
C231	C	1.485718	0.745303	0.500007
C232	C	1.735718	0.995303	0.750007
N233	N	0.991565	0.077979	0.219517
N234	N	1.241565	0.327979	0.469517
N235	N	1.491565	0.577979	0.719517
N236	N	1.741565	0.827979	0.969517
N237	N	0.991621	0.077938	-0.219433
N238	N	1.241621	0.327938	0.030567
N239	N	1.491621	0.577938	0.280567
N240	N	1.741621	0.827938	0.530567
C241	C	0.931586	0.118390	0.469159
C242	C	1.181586	0.368390	0.719159
C243	C	1.431586	0.618390	0.969159
C244	C	1.681586	0.868390	1.219159
C245	C	1.007393	0.129445	0.530964
C246	C	1.257393	0.379445	0.780964
C247	C	1.507393	0.629445	1.030964
C248	C	1.757393	0.879445	1.280964
C249	C	0.991586	0.077966	0.408678
C250	C	1.241586	0.327966	0.658678
C251	C	1.491586	0.577966	0.908678
C252	C	1.741586	0.827966	1.158678
C253	C	0.915798	0.066924	0.530967
C254	C	1.165798	0.316924	0.780967
C255	C	1.415798	0.566924	1.030967
C256	C	1.665798	0.816924	1.280967
C257	C	0.991599	0.077954	0.591400
C258	C	1.241599	0.327954	0.841400
C259	C	1.491599	0.577954	1.091400
C260	C	1.741599	0.827954	1.341400
C261	C	1.067431	0.089047	0.469123
C262	C	1.317431	0.339047	0.719123
C263	C	1.567431	0.589047	0.969123
C264	C	1.817431	0.839047	1.219123
C265	C	0.975786	0.026503	0.469121
C266	C	1.225786	0.276503	0.719121
C267	C	1.475786	0.526503	0.969121
C268	C	1.725786	0.776503	1.219121
C269	C	1.051648	0.037536	0.530898
C270	C	1.301648	0.287536	0.780898
C271	C	1.551648	0.537536	1.030898
C272	C	1.801648	0.787536	1.280898
C273	C	0.991577	0.077974	0.303417
C274	C	1.241577	0.327974	0.553417
C275	C	1.491577	0.577974	0.803417
C276	C	1.741577	0.827974	1.053417
C277	C	0.991616	0.077945	0.696659
C278	C	1.241616	0.327945	0.946659
C279	C	1.491616	0.577945	1.196659
C280	C	1.741616	0.827945	1.446659
H281	H	0.459336	-0.022681	0.000132
H282	H	0.709336	0.227319	0.250132
H283	H	0.959336	0.477319	0.500132
H284	H	1.209336	0.727319	0.750132
H285	H	0.554057	0.028562	-0.140246
H286	H	0.804057	0.278562	0.109754
H287	H	1.054057	0.528562	0.359754
H288	H	1.304057	0.778562	0.609754
H289	H	0.554051	0.028580	0.140378
H290	H	0.804051	0.278580	0.390378
H291	H	1.054051	0.528580	0.640378
H292	H	1.304051	0.778580	0.890378
H293	H	0.962387	-0.017000	0.441935
H294	H	1.212387	0.233000	0.691935
H295	H	1.462387	0.483000	0.941935
H296	H	1.712387	0.733000	1.191935
H297	H	0.880898	0.152603	0.442051
H298	H	1.130898	0.402603	0.692051
H299	H	1.380898	0.652603	0.942051
H300	H	1.630898	0.902603	1.192051
H301	H	1.020769	0.172961	0.558128
H302	H	1.270769	0.422961	0.808128
H303	H	1.520769	0.672961	1.058128
H304	H	1.770769	0.922961	1.308128
H305	H	0.856526	-0.190372	0.000065
H306	H	1.106526	0.059628	0.250065
H307	H	1.356526	0.309628	0.500065
H308	H	1.606526	0.559628	0.750065
H309	H	0.429239	0.127319	0.140495
H310	H	0.679239	0.377319	0.390495
H311	H	0.929239	0.627319	0.640495
H312	H	1.179239	0.877319	0.890495
H313	H	0.523653	0.178656	0.000112
H314	H	0.773653	0.428656	0.250112
H315	H	1.023653	0.678656	0.500112
H316	H	1.273653	0.928656	0.750112
H317	H	1.136303	-0.107203	0.000087
H318	H	1.386303	0.142797	0.250087
H319	H	1.636303	0.392797	0.500087
H320	H	1.886303	0.642797	0.750087
H321	H	1.124749	-0.761481	0.000017
H322	H	1.374749	-0.511481	0.250017
H323	H	1.624749	-0.261481	0.500017
H324	H	1.874749	-0.011481	0.750017
H325	H	1.134408	-0.214960	0.000055
H326	H	1.384408	0.035040	0.250055
H327	H	1.634408	0.285040	0.500055
H328	H	1.884408	0.535040	0.750055
H329	H	0.851701	0.057590	0.558136
H330	H	1.101701	0.307590	0.808136
H331	H	1.351701	0.557590	1.058136
H332	H	1.601701	0.807590	1.308136
H333	H	1.131542	0.098433	0.442071
H334	H	1.381542	0.348433	0.692071
H335	H	1.631542	0.598433	0.942071
H336	H	1.881542	0.848433	1.192071
H337	H	0.846880	-0.736868	0.000013
H338	H	1.096880	-0.486868	0.250013
H339	H	1.346880	-0.236868	0.500013
H340	H	1.596880	0.013132	0.750013
H341	H	1.208060	-0.387239	0.000052
H342	H	1.458060	-0.137239	0.250052
H343	H	1.708060	0.112761	0.500052
H344	H	1.958060	0.362761	0.750052
H345	H	0.429118	0.127299	-0.140272
H346	H	0.679118	0.377299	0.109728
H347	H	0.929118	0.627299	0.359728
H348	H	1.179118	0.877299	0.609728
H349	H	0.848781	-0.629111	0.000000
H350	H	1.098781	-0.379111	0.250000
H351	H	1.348781	-0.129111	0.500000
H352	H	1.598781	0.120889	0.750000
H353	H	1.102449	0.003343	0.557836
H354	H	1.352449	0.253343	0.807836
H355	H	1.602449	0.503343	1.057836
H356	H	1.852449	0.753343	1.307836
H357	H	1.126661	-0.653708	0.000029
H358	H	1.376661	-0.403708	0.250029
H359	H	1.626661	-0.153708	0.500029
H360	H	1.876661	0.096292	0.750029
H361	H	0.777034	-0.349067	-0.000019
H362	H	1.027034	-0.099067	0.249981
H363	H	1.277034	0.150933	0.499981
H364	H	1.527034	0.400933	0.749981
H365	H	1.206157	-0.494991	0.000036
H366	H	1.456157	-0.244991	0.250036
H367	H	1.706157	0.005009	0.500036
H368	H	1.956157	0.255009	0.750036
H369	H	0.858437	-0.082597	0.000059
H370	H	1.108437	0.167403	0.250059
H371	H	1.358437	0.417403	0.500059
H372	H	1.608437	0.667403	0.750059
H373	H	0.775125	-0.456824	-0.000025
H374	H	1.025125	-0.206824	0.249975
H375	H	1.275125	0.043176	0.499975
H376	H	1.525125	0.293176	0.749975
