data_functionalizedCrystal
_audit_creation_method	'MofGen! by Chris Wilmer'
_symmetry_space_group_name_H-M	'P1'
_symmetry_Int_Tables_number	1
_symmetry_cell_setting	triclinic
loop_
_symmetry_equiv_pos_as_xyz
  x,y,z
_cell_length_a	10.723023
_cell_length_b	14.519731
_cell_length_c	9.198806
_cell_angle_alpha	89.995832
_cell_angle_beta	89.996513
_cell_angle_gamma	84.078200
loop_
_atom_site_label
_atom_site_type_symbol
_atom_site_fract_x
_atom_site_fract_y
_atom_site_fract_z
O1	O	1.655992	0.129343	-0.120881
O2	O	2.155992	0.629343	0.379119
O3	O	1.292725	0.141724	-0.120888
O4	O	1.792725	0.641724	0.379112
O5	O	1.483976	0.001346	-0.120871
O6	O	1.983976	0.501346	0.379129
O7	O	1.464741	0.269722	-0.120898
O8	O	1.964741	0.769722	0.379102
O9	O	1.483961	0.001345	0.120914
O10	O	1.983961	0.501345	0.620914
O11	O	1.292710	0.141724	0.120897
O12	O	1.792710	0.641724	0.620897
O13	O	1.655977	0.129342	0.120904
O14	O	2.155977	0.629342	0.620904
Cu15	Cu	1.474342	0.135533	0.142977
Cu16	Cu	1.974342	0.635533	0.642977
Cu17	Cu	1.474360	0.135534	-0.142961
Cu18	Cu	1.974360	0.635534	0.357039
O19	O	1.464726	0.269721	0.120887
O20	O	1.964726	0.769721	0.620887
C21	C	1.246226	0.140823	0.000004
C22	C	1.746226	0.640823	0.500004
C23	C	1.107697	0.138128	0.000002
C24	C	1.607697	0.638128	0.500002
C25	C	1.483067	-0.033019	0.000022
C26	C	1.983067	0.466981	0.500022
C27	C	1.480367	-0.135413	0.000023
C28	C	1.980367	0.364587	0.500023
C29	C	1.045928	0.136926	0.125253
C30	C	1.545928	0.636926	0.625253
C31	C	0.902751	0.134140	0.125254
C32	C	1.402751	0.634140	0.625254
C33	C	1.478172	-0.218568	0.000019
C34	C	1.978172	0.281432	0.500019
C35	C	1.475430	-0.322891	0.000008
C36	C	1.975430	0.177109	0.500008
C37	C	1.473254	-0.406041	-0.000001
C38	C	1.973254	0.093959	0.499999
C39	C	1.470512	-0.510370	-0.000010
C40	C	1.970512	-0.010370	0.499990
C41	C	1.702476	0.130243	0.000009
C42	C	2.202476	0.630243	0.500009
C43	C	1.841005	0.132939	0.000001
C44	C	2.341005	0.632939	0.500001
C45	C	1.465635	0.304085	-0.000009
C46	C	1.965635	0.804085	0.499991
C47	C	1.468336	0.406479	-0.000019
C48	C	1.968336	0.906479	0.499981
N49	N	1.474339	0.135532	0.344091
N50	N	1.974339	0.635532	0.844091
N51	N	1.474373	0.135527	-0.344075
N52	N	1.974373	0.635527	0.155925
C53	C	1.554642	0.076331	0.416295
C54	C	2.054642	0.576331	0.916295
C55	C	1.554661	0.076328	0.583708
C56	C	2.054661	0.576328	1.083708
H57	H	0.849630	0.133112	0.232485
H58	H	1.349630	0.633112	0.732485
H59	H	1.405623	0.186218	0.593842
H60	H	1.905623	0.686218	1.093842
H61	H	1.623375	0.025645	0.354175
H62	H	2.123375	0.525645	0.854175
N63	N	1.645744	0.009192	0.665941
N64	N	2.145744	0.509192	1.165941
H65	H	1.632849	0.018708	0.773878
H66	H	2.132849	0.518708	1.273878
H67	H	1.630949	-0.056297	0.639425
H68	H	2.130949	0.443703	1.139425
N69	N	1.383286	0.202670	0.426367
N70	N	1.883286	0.702670	0.926367
H71	H	1.329691	0.242177	0.355182
H72	H	1.829691	0.742177	0.855182
H73	H	1.327953	0.167071	0.489531
H74	H	1.827953	0.667071	0.989531
H75	H	1.099045	0.137954	0.232484
H76	H	1.599045	0.637954	0.732484
H77	H	0.894116	0.133978	-0.107236
H78	H	1.394116	0.633978	0.392764
N79	N	1.037348	0.136751	-0.142042
N80	N	1.537348	0.636751	0.357958
H81	H	0.973355	0.192768	-0.147844
H82	H	1.473355	0.692768	0.352156
H83	H	1.098322	0.137901	-0.225548
H84	H	1.598322	0.637901	0.274452
