data_functionalizedCrystal
_audit_creation_method	'MofGen! by Chris Wilmer'
_symmetry_space_group_name_H-M	'P1'
_symmetry_Int_Tables_number	1
_symmetry_cell_setting	triclinic
loop_
_symmetry_equiv_pos_as_xyz
  x,y,z
_cell_length_a	10.540514
_cell_length_b	10.540539
_cell_length_c	13.930277
_cell_angle_alpha	89.993191
_cell_angle_beta	90.007194
_cell_angle_gamma	84.520326
loop_
_atom_site_label
_atom_site_type_symbol
_atom_site_fract_x
_atom_site_fract_y
_atom_site_fract_z
O1	O	1.685912	0.178730	0.079838
O2	O	1.316495	0.195619	0.079837
O3	O	1.509631	0.002467	0.079836
O4	O	1.492775	0.371882	0.079839
O5	O	1.509603	0.002497	-0.079826
O6	O	1.316466	0.195649	-0.079825
O7	O	1.685883	0.178759	-0.079824
Zn8	Zn	1.501170	0.187209	-0.105174
Zn9	Zn	1.501208	0.187170	0.105187
O10	O	1.492747	0.371911	-0.079823
C11	C	1.269177	0.194374	0.000006
C12	C	1.128227	0.190605	0.000005
C13	C	1.057522	0.328745	0.000008
C14	C	0.910908	0.324871	0.000376
C15	C	0.935906	0.115461	0.091008
C16	C	1.082445	0.120315	0.091079
C17	C	1.082816	0.118304	-0.090492
C18	C	0.935836	0.116972	-0.091683
C19	C	1.508353	-0.044821	0.000007
C20	C	1.504571	-0.185769	0.000012
C21	C	1.359652	-0.369182	0.000370
C22	C	1.363486	-0.222564	0.000011
C23	C	1.572451	-0.247415	-0.091162
C24	C	1.567636	-0.393959	-0.091239
C25	C	1.570538	-0.394512	0.090326
C26	C	1.571837	-0.247530	0.091532
C27	C	1.733201	0.180004	0.000009
C28	C	1.874151	0.183774	0.000016
C29	C	1.494025	0.419199	0.000008
C30	C	1.497807	0.560147	0.000009
N31	N	1.501154	0.187235	-0.248740
C32	C	1.578912	0.264876	-0.700999
C33	C	1.423542	0.109411	-0.700990
C34	C	1.423523	0.109432	-0.600494
C35	C	1.501201	0.187174	-0.550246
C36	C	1.578898	0.264896	-0.600494
C37	C	1.345836	0.031702	-0.550239
C38	C	1.345815	0.031718	-0.449737
C39	C	1.423488	0.109468	-0.399487
C40	C	1.501187	0.187194	-0.449741
C41	C	1.578865	0.264937	-0.399493
C42	C	1.656559	0.342671	-0.449745
C43	C	1.656571	0.342647	-0.550244
C44	C	1.423476	0.109492	-0.298988
C45	C	1.578851	0.264957	-0.298988
N46	N	1.501234	0.187134	0.248753
H47	H	0.868233	0.378600	-0.064836
Br48	Br	0.895517	-0.054443	-0.101305
Br49	Br	1.105954	0.422563	-0.108264
H50	H	1.130452	0.018841	0.094964
H51	H	1.719810	0.405963	-0.408820
Br52	Br	1.274462	-0.151561	0.108945
Br53	Br	1.240422	-0.073799	-0.618436
Br54	Br	1.107915	0.420766	0.108605
H55	H	1.360222	0.046199	-0.258078
Br56	Br	0.865049	0.193579	0.204309
H57	H	1.672443	-0.441747	0.090940
H58	H	0.913592	0.011829	0.094134
H59	H	1.114298	0.164301	-0.159483
H60	H	1.674700	-0.223319	0.097038
H61	H	0.894829	0.166895	-0.159001
Br62	Br	1.761997	0.448138	-0.618448
H63	H	0.869188	0.378346	0.065987
Br64	Br	1.266847	-0.420108	-0.107664
H65	H	1.309675	-0.180791	-0.065456
H66	H	1.517445	-0.422142	-0.159394
Br67	Br	1.684266	0.370482	-0.230802
Br68	Br	1.736745	-0.473932	-0.098145
Br69	Br	1.494440	-0.447097	0.205507
H70	H	1.676059	-0.225070	-0.094552
Br71	Br	1.161601	-0.051513	-0.091972
H72	H	1.525275	-0.204799	-0.159012
Br73	Br	1.489763	-0.178619	0.203970
Br74	Br	1.266772	-0.416855	0.109349
H75	H	1.110681	0.170183	0.159358
H76	H	1.642164	0.328169	-0.741918
H77	H	1.360308	0.046109	-0.741908
Br78	Br	1.240355	-0.073753	-0.381547
