data_functionalizedCrystal
_audit_creation_method	'MofGen! by Chris Wilmer'
_symmetry_space_group_name_H-M	'P1'
_symmetry_Int_Tables_number	1
_symmetry_cell_setting	triclinic
loop_
_symmetry_equiv_pos_as_xyz
  x,y,z
_cell_length_a	10.489741
_cell_length_b	11.026607
_cell_length_c	8.965430
_cell_angle_alpha	90.003347
_cell_angle_beta	90.006097
_cell_angle_gamma	83.437405
loop_
_atom_site_label
_atom_site_type_symbol
_atom_site_fract_x
_atom_site_fract_y
_atom_site_fract_z
O1	O	1.731788	-0.171542	0.124106
O2	O	1.364135	-0.187645	0.124093
O3	O	1.517491	-0.002674	0.124093
O4	O	1.578432	-0.356513	0.124106
O5	O	1.517477	-0.002689	-0.123986
O6	O	1.364121	-0.187660	-0.123985
O7	O	1.731774	-0.171557	-0.123973
Cu8	Cu	1.547946	-0.179610	-0.146631
Cu9	Cu	1.547963	-0.179592	0.146751
O10	O	1.578418	-0.356528	-0.123973
C11	C	1.316329	-0.186436	0.000052
C12	C	1.173899	-0.182798	0.000048
C13	C	1.779580	-0.172766	0.000071
C14	C	1.922010	-0.176405	0.000086
C15	C	2.016039	-0.294096	0.000075
C16	C	2.095943	-0.238492	0.122383
C17	C	2.095889	-0.238479	-0.122203
C18	C	2.000038	-0.120752	0.122496
C19	C	1.999978	-0.120756	-0.122201
C20	C	2.079836	-0.065066	0.000138
C21	C	1.506241	0.042627	0.000055
C22	C	1.472726	0.177634	0.000059
C23	C	1.589668	-0.401830	0.000069
C24	C	1.623183	-0.536837	0.000074
N25	N	1.547943	-0.179622	-0.352980
C26	C	1.565266	0.250631	0.000065
C27	C	1.530629	0.390168	0.000069
C28	C	1.477914	-0.265833	-0.549690
C29	C	1.426915	-0.156073	-0.450231
C30	C	1.598883	-0.289373	-0.450231
C31	C	1.496904	-0.069755	-0.549630
C32	C	1.668940	-0.203127	-0.549639
C33	C	1.617971	-0.093288	-0.450225
N34	N	1.547974	-0.179571	0.353100
H35	H	2.137924	-0.288286	0.225788
O36	O	1.950016	-0.061471	0.245961
C37	C	1.758815	0.008529	0.384448
C38	C	1.815299	-0.058648	0.244579
H39	H	1.649887	0.010856	0.383362
H40	H	1.799134	-0.041302	0.488607
H41	H	1.785615	0.105853	0.384870
H42	H	1.788520	-0.155973	0.244013
H43	H	1.774982	-0.008722	0.140483
H44	H	1.987676	-0.390862	0.000202
H45	H	2.137818	-0.288304	-0.225610
O46	O	1.405445	0.438632	0.000135
C47	C	1.184314	0.398791	0.000037
C48	C	1.326026	0.343743	-0.000003
H49	H	1.120063	0.322099	-0.000106
H50	H	1.163924	0.457478	0.103886
H51	H	1.164046	0.457564	-0.103755
H52	H	1.346394	0.284913	0.103719
H53	H	1.346345	0.285126	-0.103921
O54	O	1.949375	-0.061508	-0.245402
C55	C	1.808077	0.108258	-0.341338
C56	C	1.865584	0.041497	-0.201682
H57	H	1.740300	0.191536	-0.306040
H58	H	1.888582	0.138690	-0.412674
H59	H	1.752707	0.043907	-0.408700
H60	H	1.920942	0.105777	-0.134203
H61	H	1.785023	0.011045	-0.130456
O62	O	1.650129	-0.400220	-0.398295
C63	C	1.634099	-0.616375	-0.389838
C64	C	1.575971	-0.490922	-0.448792
H65	H	1.574152	-0.689738	-0.430614
H66	H	1.736650	-0.637265	-0.432455
H67	H	1.634481	-0.614980	-0.262693
H68	H	1.575499	-0.492225	-0.575932
H69	H	1.473452	-0.470082	-0.406060
H70	H	2.107947	0.031789	0.000194
H71	H	1.677191	-0.020281	-0.406829
O72	O	1.690330	0.201814	0.000266
C73	C	1.857037	0.074109	0.128839
C74	C	1.715367	0.129286	0.128778
H75	H	1.877331	0.015479	0.232745
H76	H	1.877387	0.015293	0.025089
H77	H	1.921303	0.150789	0.128770
H78	H	1.651009	0.052685	0.128899
H79	H	1.695121	0.188133	0.232518
H80	H	1.728059	0.422363	0.000190
H81	H	1.367857	0.218442	0.000066
H82	H	1.418609	-0.338676	-0.593362
H83	H	1.324603	-0.136166	-0.406555
H84	H	1.453715	0.023102	-0.593109
H85	H	1.771231	-0.223074	-0.593342
