data_functionalizedCrystal
_audit_creation_method	'MofGen! by Chris Wilmer'
_symmetry_space_group_name_H-M	'P1'
_symmetry_Int_Tables_number	1
_symmetry_cell_setting	triclinic
loop_
_symmetry_equiv_pos_as_xyz
  x,y,z
_cell_length_a	14.395555
_cell_length_b	14.395555
_cell_length_c	14.395555
_cell_angle_alpha	90.002623
_cell_angle_beta	60.001260
_cell_angle_gamma	60.000749
loop_
_atom_site_label
_atom_site_type_symbol
_atom_site_fract_x
_atom_site_fract_y
_atom_site_fract_z
Zr1	Zr	1.016746	-0.121871	0.894946
O2	O	1.210542	-0.270205	0.746622
O3	O	0.822950	-0.076396	0.940411
O4	O	1.016737	-0.270192	0.940418
O5	O	1.016762	0.076458	0.746614
O6	O	1.016730	-0.270184	1.093292
O7	O	1.016755	-0.076409	0.746615
O8	O	0.670081	0.076482	1.093279
O9	O	1.363411	-0.270207	0.746627
O10	O	0.902656	-0.056998	1.073894
O11	O	0.902666	0.057079	0.959805
O12	O	1.130826	-0.171091	0.959814
O13	O	1.130836	-0.057014	0.845725
Zr14	Zr	1.016746	0.121948	1.138760
Zr15	Zr	1.016735	-0.121858	1.138762
Zr16	Zr	1.016757	0.121935	0.894944
Zr17	Zr	1.260555	-0.121874	0.894953
Zr18	Zr	0.772937	0.121952	1.138753
O19	O	1.210542	0.076473	1.093295
O20	O	1.210526	-0.270187	1.093298
O21	O	1.210557	0.076455	0.746620
O22	O	0.822950	0.270283	1.287084
O23	O	0.822935	-0.076378	1.287086
O24	O	0.822966	0.270264	0.940408
O25	O	1.016730	-0.076380	1.287092
O26	O	1.016755	0.270269	1.093288
O27	O	1.016762	0.270261	0.940414
O28	O	1.016737	0.076487	1.287091
O29	O	1.363403	-0.270197	0.940428
O30	O	0.670089	0.270275	1.093278
O31	O	0.670081	0.270285	1.287079
O32	O	0.670072	0.076492	1.287081
O33	O	1.363420	-0.076414	0.746625
O34	O	1.363411	-0.076404	0.940427
O35	O	0.902666	0.171168	1.073892
O36	O	0.902656	0.057091	1.187982
O37	O	1.130826	-0.057002	1.073901
O38	O	1.130836	0.057076	0.959812
C39	C	0.711778	0.000043	1.016844
C40	C	0.608274	0.000045	1.016841
C41	C	1.016732	-0.304925	1.016855
C42	C	1.016728	-0.408427	1.016856
C43	C	1.016760	0.000023	0.711876
C44	C	1.016764	0.000017	0.608369
C45	C	0.547688	0.062248	0.954638
C46	C	0.561941	-0.045029	0.909556
C47	C	0.409625	0.107290	1.061895
C48	C	0.623954	-0.107296	0.971697
C49	C	0.471575	0.045100	1.124095
C50	C	0.485875	-0.062241	1.079040
C51	C	1.321714	0.000034	1.016862
C52	C	1.425218	0.000033	1.016865
C53	C	0.892319	-0.406807	1.079063
C54	C	0.954515	-0.499835	0.971789
C55	C	0.954537	-0.499827	1.124104
C56	C	1.078924	-0.500092	0.909518
C57	C	1.078928	-0.500069	1.061911
C58	C	1.141214	-0.593115	0.954572
C59	C	1.016760	0.305002	1.016851
C60	C	1.016764	0.408504	1.016850
C61	C	1.141173	-0.062181	0.485579
C62	C	1.078977	-0.107255	0.454742
C63	C	1.078955	0.045082	0.454783
C64	C	0.954568	-0.045119	0.578896
C65	C	0.954564	0.107278	0.578934
C66	C	0.892278	0.062231	0.548170
C67	C	1.016732	0.000055	1.321830
C68	C	1.016728	0.000060	1.425337
C69	C	0.711764	0.000060	1.321821
C70	C	0.608256	0.000067	1.425325
C71	C	0.711792	0.305007	1.016842
C72	C	0.608293	0.408510	1.016838
C73	C	0.711778	0.305023	1.321819
C74	C	0.608274	0.408532	1.425322
C75	C	1.321714	-0.304946	0.711887
C76	C	1.425218	-0.408455	0.608384
C77	C	1.321728	0.000018	0.711885
C78	C	1.425236	0.000011	0.608381
C79	C	1.321700	-0.304929	1.016864
C80	C	1.425199	-0.408433	1.016868
C81	C	0.547697	0.062244	1.548117
C82	C	0.409590	0.107299	1.578974
C83	C	0.561988	-0.045040	1.578885
C84	C	0.471449	0.045186	1.454818
C85	C	0.623920	-0.107214	1.454733
C86	C	0.485822	-0.062185	1.485516
C87	C	0.547711	0.406894	0.954628
C88	C	0.409609	0.499919	1.061903
C89	C	0.561948	0.499916	0.909593
C90	C	0.471491	0.500173	1.124176
C91	C	0.623905	0.500155	0.971788
C92	C	0.485812	0.593198	1.079128
C93	C	0.547671	0.531322	1.423704
C94	C	0.409573	0.562122	1.516691
C95	C	0.561844	0.562159	1.516764
C96	C	0.471477	0.437969	1.516946
C97	C	0.623822	0.438009	1.517004
C98	C	0.485734	0.468736	1.610009
H99	H	0.574918	0.114773	0.901964
H100	H	1.131562	0.083177	0.401279
N101	N	0.752984	-0.301143	1.148637
H102	H	0.705493	-0.300893	1.229326
H103	H	0.706259	-0.300332	1.114362
H104	H	0.317987	0.500849	1.100018
H105	H	0.901938	-0.500768	0.933673
N106	N	0.450164	-0.132012	1.148723
H107	H	0.530381	-0.212982	1.114569
H108	H	0.379432	-0.131007	1.148878
H109	H	0.317968	0.615605	1.517592
H110	H	0.599129	-0.083148	0.818862
H111	H	0.599126	0.500826	0.818896
H112	H	0.458784	0.672829	1.131814
H113	H	0.317952	0.197982	1.632510
H114	H	0.458688	0.443084	1.689639
N115	N	0.583582	0.565009	1.318052
H116	H	0.503457	0.610945	1.317153
H117	H	0.654387	0.494319	1.248439
H118	H	0.715451	0.384529	1.516060
N119	N	0.611470	-0.095555	1.649611
H120	H	0.552525	-0.037599	1.727808
H121	H	0.703943	-0.117705	1.611519
N122	N	0.745289	0.498881	0.921284
H123	H	0.780311	0.497830	0.840227
H124	H	0.814399	0.428836	0.922428
H125	H	0.902032	0.197950	0.632446
N126	N	0.422002	0.367257	1.515831
H127	H	0.492697	0.297337	1.445434
H128	H	0.341442	0.413721	1.515628
H129	H	0.458804	-0.114797	1.459859
H130	H	0.598875	0.615788	1.517757
N131	N	0.421868	0.095817	1.384185
H132	H	0.492503	0.095581	1.314271
H133	H	0.341281	0.176560	1.430709
H134	H	0.574769	0.114931	1.573559
N135	N	0.745332	-0.227308	1.383814
H136	H	0.780387	-0.261286	1.429827
H137	H	0.814408	-0.226337	1.313565
H138	H	0.574794	0.327132	0.902104
H139	H	0.715518	-0.198039	0.933498
H140	H	0.434406	0.083246	1.214768
H141	H	0.786993	0.114836	0.573824
N142	N	0.288290	0.227441	1.112390
H143	H	0.310870	0.274360	1.065337
H144	H	0.254357	0.261838	1.192939
H145	H	1.131468	-0.499276	0.818775
H146	H	0.434112	0.499354	1.214919
H147	H	1.131459	-0.499093	1.100053
N148	N	1.280451	-0.698912	0.884656
H149	H	1.327194	-0.699774	0.803637
H150	H	1.278968	-0.768318	0.885896
H151	H	0.901935	-0.500720	1.214809
H152	H	1.246371	-0.114861	0.460139
N153	N	1.148620	-0.227384	0.383855
H154	H	1.225772	-0.246526	0.305676
H155	H	1.085657	-0.234022	0.376775
N156	N	0.884965	-0.095721	0.649563
H157	H	0.885442	-0.095457	0.719482
H158	H	0.931628	-0.176472	0.603068
