data_functionalizedCrystal
_audit_creation_method	'MofGen! by Chris Wilmer'
_symmetry_space_group_name_H-M	'P1'
_symmetry_Int_Tables_number	1
_symmetry_cell_setting	triclinic
loop_
_symmetry_equiv_pos_as_xyz
  x,y,z
_cell_length_a	9.065215
_cell_length_b	9.065218
_cell_length_c	9.730223
_cell_angle_alpha	89.999690
_cell_angle_beta	90.000226
_cell_angle_gamma	94.984709
loop_
_atom_site_label
_atom_site_type_symbol
_atom_site_fract_x
_atom_site_fract_y
_atom_site_fract_z
O1	O	-0.216351	1.960391	-0.114290
O2	O	-0.234097	1.531106	-0.114291
O3	O	-0.010581	1.754624	-0.114285
O4	O	-0.439867	1.736873	-0.114296
O5	O	-0.010587	1.754621	0.114295
O6	O	-0.234103	1.531103	0.114289
O7	O	-0.216356	1.960388	0.114290
Zn8	Zn	-0.225230	1.745745	0.150581
Zn9	Zn	-0.225223	1.745749	-0.150583
O10	O	-0.439872	1.736870	0.114284
C11	C	-0.232394	1.476118	-0.000002
C12	C	-0.227295	1.312275	-0.000002
C13	C	-0.494856	1.738576	-0.000007
C14	C	-0.658699	1.743674	-0.000012
C15	C	0.044403	1.752917	0.000003
C16	C	0.208246	1.747819	-0.000002
C17	C	-0.218059	2.015376	-0.000003
C18	C	-0.223159	2.179219	-0.000011
N19	N	-0.225235	1.745754	0.356118
N20	N	-0.225207	1.745752	-0.356119
C21	C	-0.126296	1.844753	0.428046
C22	C	-0.126278	1.844749	0.571929
C23	C	-0.324151	1.646741	0.571942
C24	C	-0.324160	1.646739	0.428062
C25	C	-0.012060	1.959076	0.428040
C26	C	-0.012042	1.959072	0.571923
H27	H	-0.404711	1.566113	0.369499
O28	O	-0.420193	1.550710	0.642045
C29	C	-0.398941	1.571907	0.784462
H30	H	-0.345430	1.688483	0.804112
H31	H	-0.323759	1.487411	0.825283
C32	C	-0.615292	1.408549	0.834210
C33	C	-0.549581	1.551734	0.858346
H34	H	-0.708212	1.396099	0.879788
H35	H	-0.629608	1.394263	0.738261
H36	H	-0.552626	1.338152	0.868228
H37	H	-0.612238	1.622127	0.824313
H38	H	-0.535279	1.566031	0.954291
H39	H	0.101467	1.933358	0.388989
O40	O	-0.055746	2.087064	0.374974
C41	C	-0.200638	2.106636	0.419858
H42	H	-0.224548	2.041401	0.518709
H43	H	-0.283348	2.065150	0.337313
C44	C	-0.185516	2.352301	0.325447
C45	C	-0.214878	2.272188	0.446865
H46	H	-0.194304	2.454421	0.342101
H47	H	-0.087902	2.339114	0.295203
H48	H	-0.254445	2.317713	0.256672
H49	H	-0.145939	2.306764	0.515631
H50	H	-0.312482	2.285384	0.477121
O51	O	0.116017	1.915542	0.624985
C52	C	0.135774	1.770680	0.580135
H53	H	0.070552	1.746660	0.481294
H54	H	0.094398	1.687948	0.662701
C55	C	0.381456	1.786144	0.674525
C56	C	0.301360	1.756647	0.553120
H57	H	0.483598	1.777484	0.657866
H58	H	0.368145	1.883738	0.704747
H59	H	0.346960	1.717197	0.743318
H60	H	0.335844	1.825605	0.484335
H61	H	0.314681	1.659064	0.522886
O62	O	-0.042569	2.094525	0.618595
C63	C	0.076675	2.156040	0.699073
H64	H	0.181797	2.103301	0.669340
H65	H	0.051581	2.134003	0.812400
C66	C	-0.030284	2.389020	0.710580
C67	C	0.098831	2.324254	0.674053
H68	H	-0.016620	2.492783	0.695153
H69	H	-0.110625	2.347576	0.656365
H70	H	-0.051183	2.370641	0.805018
H71	H	0.119717	2.342617	0.579614
H72	H	0.179176	2.365705	0.728253
