data_functionalizedCrystal
_audit_creation_method	'MofGen! by Chris Wilmer'
_symmetry_space_group_name_H-M	'P1'
_symmetry_Int_Tables_number	1
_symmetry_cell_setting	triclinic
loop_
_symmetry_equiv_pos_as_xyz
  x,y,z
_cell_length_a	19.188930
_cell_length_b	19.188925
_cell_length_c	18.266242
_cell_angle_alpha	89.993996
_cell_angle_beta	89.977082
_cell_angle_gamma	83.143665
loop_
_atom_site_label
_atom_site_type_symbol
_atom_site_fract_x
_atom_site_fract_y
_atom_site_fract_z
O1	O	0.926148	0.087169	-0.061116
O2	O	1.259481	0.420502	0.272218
O3	O	1.592814	0.753836	0.605551
O4	O	0.722836	0.098903	-0.061065
O5	O	1.056169	0.432237	0.272268
O6	O	1.389503	0.765570	0.605601
O7	O	0.830361	-0.008620	-0.061088
O8	O	1.163694	0.324714	0.272245
O9	O	1.497028	0.658047	0.605579
O10	O	0.818623	0.194692	-0.061093
O11	O	1.151956	0.528025	0.272240
O12	O	1.485289	0.861359	0.605573
O13	O	0.830343	-0.008625	0.060674
O14	O	1.163676	0.324708	0.394007
O15	O	1.497009	0.658041	0.727341
O16	O	0.722818	0.098898	0.060697
O17	O	1.056151	0.432231	0.394030
O18	O	1.389485	0.765564	0.727363
O19	O	0.926129	0.087163	0.060646
O20	O	1.259463	0.420497	0.393980
O21	O	1.592796	0.753830	0.727313
Zn22	Zn	0.824471	0.093030	0.080004
Zn23	Zn	1.157804	0.426363	0.413337
Zn24	Zn	1.491137	0.759696	0.746670
Zn25	Zn	0.824495	0.093037	-0.080423
Zn26	Zn	1.157828	0.426370	0.252910
Zn27	Zn	1.491161	0.759704	0.586244
O28	O	0.818605	0.194687	0.060669
O29	O	1.151938	0.528020	0.394002
O30	O	1.485271	0.861353	0.727335
C31	C	0.696816	0.098520	-0.000178
C32	C	1.030149	0.431854	0.333155
C33	C	1.363483	0.765187	0.666489
C34	C	0.619311	0.097380	-0.000159
C35	C	0.952645	0.430713	0.333175
C36	C	1.285978	0.764046	0.666508
C37	C	0.829972	-0.034634	-0.000207
C38	C	1.163306	0.298700	0.333126
C39	C	1.496639	0.632033	0.666459
C40	C	0.828833	-0.112138	-0.000209
C41	C	1.162167	0.221195	0.333125
C42	C	1.495500	0.554528	0.666458
C43	C	0.884297	-0.673909	-0.000241
C44	C	1.217631	-0.340575	0.333093
C45	C	1.550964	-0.007242	0.666426
C46	C	0.885374	-0.601085	-0.000234
C47	C	1.218707	-0.267752	0.333099
C48	C	1.552040	0.065581	0.666432
C49	C	0.822282	-0.556151	-0.000219
C50	C	1.155615	-0.222818	0.333114
C51	C	1.488948	0.110516	0.666448
C52	C	0.758108	-0.584045	-0.000191
C53	C	1.091441	-0.250712	0.333142
C54	C	1.424775	0.082622	0.666475
C55	C	0.757033	-0.656867	-0.000190
C56	C	1.090367	-0.323534	0.333143
C57	C	1.423700	0.009800	0.666476
N58	N	0.776612	-0.435469	-0.041652
N59	N	1.109945	-0.102135	0.291681
N60	N	1.443278	0.231198	0.625014
N61	N	0.777637	-0.366291	-0.041655
N62	N	1.110970	-0.032958	0.291679
N63	N	1.444303	0.300375	0.625012
C64	C	0.825516	-0.336742	-0.000220
C65	C	1.158849	-0.003408	0.333113
C66	C	1.492182	0.329925	0.666446
N67	N	0.872341	-0.378984	0.041208
N68	N	1.205674	-0.045651	0.374541
N69	N	1.539008	0.287682	0.707874
N70	N	0.871318	-0.448168	0.041207
N71	N	1.204651	-0.114835	0.374540
N72	N	1.537985	0.218498	0.707873
C73	C	0.823440	-0.477187	-0.000220
C74	C	1.156773	-0.143853	0.333114
C75	C	1.490106	0.189480	0.666447
C76	C	0.890852	-0.229893	-0.000236
C77	C	1.224185	0.103441	0.333097
C78	C	1.557519	0.436774	0.666431
C79	C	0.891926	-0.157068	-0.000225
C80	C	1.225259	0.176265	0.333108
C81	C	1.558593	0.509599	0.666442
C82	C	0.764659	-0.140029	-0.000189
C83	C	1.097992	0.193305	0.333144
C84	C	1.431325	0.526638	0.666477
C85	C	0.763587	-0.212852	-0.000193
C86	C	1.096920	0.120481	0.333140
C87	C	1.430253	0.453814	0.666474
C88	C	0.826685	-0.257780	-0.000220
C89	C	1.160019	0.075553	0.333114
C90	C	1.493352	0.408886	0.666447
C91	C	0.574386	0.160471	-0.000172
C92	C	0.907720	0.493804	0.333161
C93	C	1.241053	0.827137	0.666495
C94	C	0.501563	0.159399	-0.000180
C95	C	0.834896	0.492732	0.333153
C96	C	1.168229	0.826066	0.666487
C97	C	0.473667	0.095233	-0.000189
C98	C	0.807001	0.428566	0.333144
C99	C	1.140334	0.761900	0.666477
C100	C	0.518602	0.032134	-0.000172
C101	C	0.851936	0.365467	0.333161
C102	C	1.185269	0.698800	0.666494
C103	C	0.591424	0.033207	-0.000157
C104	C	0.924758	0.366540	0.333176
C105	C	1.258091	0.699874	0.666510
N106	N	0.365694	0.046188	-0.041659
N107	N	0.699028	0.379521	0.291675
N108	N	1.032361	0.712854	0.625008
N109	N	0.296516	0.045172	-0.041675
N110	N	0.629849	0.378506	0.291659
N111	N	0.963182	0.711839	0.624992
C112	C	0.254259	0.091995	-0.000234
C113	C	0.587592	0.425328	0.333099
C114	C	0.920925	0.758661	0.666432
N115	N	0.283792	0.139882	0.041214
N116	N	0.617126	0.473215	0.374547
N117	N	0.950459	0.806548	0.707881
N118	N	0.352977	0.140899	0.041227
N119	N	0.686310	0.474233	0.374560
N120	N	1.019644	0.807566	0.707894
C121	C	0.394705	0.094062	-0.000206
C122	C	0.728038	0.427395	0.333128
C123	C	1.061371	0.760728	0.666461
C124	C	0.130369	0.153928	-0.000255
C125	C	0.463702	0.487261	0.333078
C126	C	0.797036	0.820595	0.666412
C127	C	0.057544	0.152854	-0.000258
C128	C	0.390878	0.486187	0.333075
C129	C	0.724211	0.819520	0.666408
C130	C	0.074586	0.025586	-0.000258
C131	C	0.407919	0.358920	0.333075
C132	C	0.741252	0.692253	0.666409
C133	C	0.147409	0.026663	-0.000247
C134	C	0.480742	0.359996	0.333086
C135	C	0.814075	0.693329	0.666419
C136	C	0.175296	0.090835	-0.000249
C137	C	0.508629	0.424169	0.333084
C138	C	0.841962	0.757502	0.666417
C139	C	0.952150	0.087546	-0.000243
C140	C	1.285483	0.420880	0.333091
C141	C	1.618816	0.754213	0.666424
C142	C	1.029654	0.088687	-0.000267
C143	C	1.362987	0.422020	0.333067
C144	C	1.696321	0.755354	0.666400
C145	C	0.818993	0.220700	-0.000213
C146	C	1.152326	0.554034	0.333120
C147	C	1.485660	0.887367	0.666453
C148	C	0.820132	0.298205	-0.000217
C149	C	1.153466	0.631538	0.333116
C150	C	1.486799	0.964872	0.666450
N151	N	0.824460	0.093024	0.189491
N152	N	1.157793	0.426358	0.522824
N153	N	1.491126	0.759691	0.856157
N154	N	0.824512	0.093037	-0.189910
N155	N	1.157845	0.426370	0.143423
N156	N	1.491178	0.759703	0.476757
C157	C	0.872087	0.045436	0.227790
C158	C	1.205420	0.378770	0.561123
C159	C	1.538754	0.712103	0.894456
C160	C	0.872092	0.045433	0.304435
C161	C	1.205425	0.378766	0.637768
C162	C	1.538758	0.712100	0.971101
C163	C	0.824475	0.093030	0.342778
C164	C	1.157808	0.426363	0.676111
C165	C	1.491142	0.759697	1.009444
C166	C	0.776839	0.140621	0.304469
C167	C	1.110172	0.473955	0.637803
C168	C	1.443505	0.807288	0.971136
C169	C	0.776831	0.140619	0.227826
C170	C	1.110164	0.473952	0.561159
C171	C	1.443498	0.807285	0.894493
N172	N	0.815398	0.154838	0.463110
N173	N	1.148732	0.488171	0.796443
N174	N	1.482065	0.821504	1.129776
N175	N	0.815410	0.154838	0.535918
N176	N	1.148743	0.488171	0.869251
N177	N	1.482076	0.821505	1.202584
C178	C	0.824495	0.093040	0.573700
C179	C	1.157828	0.426373	0.907033
C180	C	1.491161	0.759707	1.240367
N181	N	0.833581	0.031240	0.535924
N182	N	1.166915	0.364573	0.869257
N183	N	1.500248	0.697906	1.202590
N184	N	0.833573	0.031240	0.463109
N185	N	1.166906	0.364573	0.796442
N186	N	1.500240	0.697906	1.129775
C187	C	0.824478	0.093038	0.425885
C188	C	1.157811	0.426371	0.759218
C189	C	1.491145	0.759705	1.092551
C190	C	0.872130	0.045445	0.695106
C191	C	1.205463	0.378778	1.028439
C192	C	1.538796	0.712111	1.361773
C193	C	0.872129	0.045440	0.771752
C194	C	1.205463	0.378774	1.105086
C195	C	1.538796	0.712107	1.438419
C196	C	0.776880	0.140635	0.771786
C197	C	1.110213	0.473968	1.105119
C198	C	1.443546	0.807301	1.438452
C199	C	0.776877	0.140633	0.695141
C200	C	1.110210	0.473966	1.028474
C201	C	1.443543	0.807300	1.361808
C202	C	0.824505	0.093039	0.656806
C203	C	1.157839	0.426372	0.990139
C204	C	1.491172	0.759705	1.323472
H205	H	0.937626	-0.578376	-0.000253
H206	H	1.270959	-0.245042	0.333080
H207	H	1.604293	0.088291	0.666413
H208	H	0.051874	-0.026659	-0.000311
H209	H	0.385207	0.306674	0.333022
H210	H	0.718541	0.640008	0.666355
C211	C	0.161048	0.224513	-0.000250
C212	C	0.494382	0.557847	0.333084
C213	C	0.827715	0.891180	0.666417
H214	H	0.123859	0.261936	-0.000248
H215	H	0.457193	0.595270	0.333085
H216	H	0.790526	0.928603	0.666419
H217	H	0.189124	0.227580	-0.042706
H218	H	0.522457	0.560914	0.290627
H219	H	0.855790	0.894247	0.623960
H220	H	0.189080	0.227574	0.042221
H221	H	0.522413	0.560908	0.375554
H222	H	0.855747	0.894241	0.708888
C223	C	0.686449	-0.687543	-0.000173
C224	C	1.019782	-0.354210	0.333161
C225	C	1.353116	-0.020877	0.666494
H226	H	0.649026	-0.650355	-0.000167
H227	H	0.982359	-0.317021	0.333167
H228	H	1.315693	0.016312	0.666500
H229	H	0.683379	-0.715605	0.042286
H230	H	1.016712	-0.382271	0.375619
H231	H	1.350045	-0.048938	0.708953
H232	H	0.683393	-0.715589	-0.042641
H233	H	1.016726	-0.382256	0.290692
H234	H	1.350059	-0.048922	0.624025
C235	C	0.960256	-0.279316	-0.000256
C236	C	1.293589	0.054018	0.333077
C237	C	1.626923	0.387351	0.666411
H238	H	0.998626	-0.252275	-0.000258
H239	H	1.331960	0.081058	0.333075
H240	H	1.665293	0.414392	0.666409
H241	H	0.962489	-0.308073	-0.042718
H242	H	1.295822	0.025260	0.290615
H243	H	1.629156	0.358593	0.623948
H244	H	0.962475	-0.308082	0.042209
H245	H	1.295808	0.025252	0.375542
H246	H	1.629142	0.358585	0.708876
H247	H	0.706738	-0.547455	-0.000176
H248	H	1.040072	-0.214121	0.333157
H249	H	1.373405	0.119212	0.666490
H250	H	0.628003	-0.018171	-0.000147
H251	H	0.961337	0.315162	0.333187
H252	H	1.294670	0.648496	0.666520
H253	H	0.020966	0.204232	-0.000265
H254	H	0.354299	0.537566	0.333068
H255	H	0.687633	0.870899	0.666402
H256	H	0.183988	-0.024713	-0.000241
H257	H	0.517321	0.308620	0.333093
H258	H	0.850655	0.641953	0.666426
H259	H	0.738107	0.179386	0.803004
H260	H	1.071440	0.512720	1.136337
H261	H	1.404773	0.846053	1.469671
H262	H	0.713288	-0.103444	-0.000170
H263	H	1.046621	0.229890	0.333163
H264	H	1.379954	0.563223	0.666496
C265	C	0.724493	0.192988	0.653010
C266	C	1.057827	0.526321	0.986343
C267	C	1.391160	0.859654	1.319677
H268	H	0.696138	0.221339	0.686821
H269	H	1.029472	0.554672	1.020154
H270	H	1.362805	0.888006	1.353487
H271	H	0.695506	0.167944	0.623129
H272	H	1.028839	0.501278	0.956462
H273	H	1.362173	0.834611	1.289795
H274	H	0.749521	0.221992	0.623096
H275	H	1.082854	0.555325	0.956429
H276	H	1.416188	0.888658	1.289763
C277	C	0.962511	-0.126393	-0.000253
C278	C	1.295844	0.206940	0.333081
C279	C	1.629178	0.540274	0.666414
H280	H	0.999933	-0.163583	-0.000276
H281	H	1.333267	0.169751	0.333058
H282	H	1.666600	0.503084	0.666391
H283	H	0.965577	-0.098344	0.042207
H284	H	1.298911	0.234989	0.375541
H285	H	1.632244	0.568322	0.708874
H286	H	0.965574	-0.098335	-0.042720
H287	H	1.298907	0.234998	0.290613
H288	H	1.632241	0.568332	0.623947
C289	C	0.924507	-0.006913	0.652931
C290	C	1.257841	0.326420	0.986264
C291	C	1.591174	0.659753	1.319597
H292	H	0.917687	-0.000094	0.601799
H293	H	1.251021	0.333239	0.935132
H294	H	1.584354	0.666572	1.268466
H295	H	0.917069	-0.053492	0.665502
H296	H	1.250402	0.279841	0.998835
H297	H	1.583735	0.613175	1.332169
H298	H	0.971084	0.000555	0.665466
H299	H	1.304417	0.333888	0.998799
H300	H	1.637750	0.667222	1.332133
C301	C	0.693004	-0.243529	-0.000178
C302	C	1.026338	0.089804	0.333155
C303	C	1.359671	0.423137	0.666488
H304	H	0.655582	-0.206340	-0.000174
H305	H	0.988915	0.126993	0.333159
H306	H	1.322249	0.460327	0.666492
H307	H	0.689933	-0.271588	0.042282
H308	H	1.023266	0.061745	0.375616
H309	H	1.356600	0.395079	0.708949
H310	H	0.689947	-0.271577	-0.042645
H311	H	1.023281	0.061756	0.290688
H312	H	1.356614	0.395089	0.624021
H313	H	0.464977	0.210777	-0.000189
H314	H	0.798311	0.544110	0.333145
H315	H	1.131644	0.877444	0.666478
C316	C	0.953701	-0.723328	-0.000270
C317	C	1.287034	-0.389995	0.333063
C318	C	1.620368	-0.056661	0.666396
H319	H	0.943873	-0.770693	-0.000274
H320	H	1.277207	-0.437360	0.333059
H321	H	1.610540	-0.104027	0.666393
H322	H	0.980024	-0.714900	0.042179
H323	H	1.313357	-0.381566	0.375512
H324	H	1.646691	-0.048233	0.708846
H325	H	0.980019	-0.714887	-0.042749
H326	H	1.313352	-0.381554	0.290585
H327	H	1.646685	-0.048221	0.623918
C328	C	0.605059	0.231058	-0.000161
C329	C	0.938392	0.564391	0.333173
C330	C	1.271725	0.897724	0.666506
H331	H	0.567869	0.268479	-0.000162
H332	H	0.901202	0.601813	0.333171
H333	H	1.234535	0.935146	0.666505
H334	H	0.633140	0.234128	-0.042613
H335	H	0.966473	0.567462	0.290721
H336	H	1.299806	0.900795	0.624054
H337	H	0.633084	0.234117	0.042315
H338	H	0.966417	0.567451	0.375648
H339	H	1.299751	0.900784	0.708982
C340	C	0.924485	-0.006911	0.346576
C341	C	1.257818	0.326422	0.679909
C342	C	1.591152	0.659755	1.013242
H343	H	0.917665	-0.000094	0.397712
H344	H	1.250998	0.333239	0.731045
H345	H	1.584331	0.666572	1.064379
H346	H	0.971054	0.000560	0.333989
H347	H	1.304387	0.333893	0.667322
H348	H	1.637721	0.667227	1.000656
H349	H	0.917049	-0.053497	0.334030
H350	H	1.250382	0.279837	0.667363
H351	H	1.583715	0.613170	1.000697
H352	H	0.910867	0.006681	0.196579
H353	H	1.244201	0.340014	0.529913
H354	H	1.577534	0.673347	0.863246
C355	C	0.724448	0.192965	0.346640
C356	C	1.057781	0.526298	0.679973
C357	C	1.391114	0.859632	1.013307
H358	H	0.696073	0.221300	0.312850
H359	H	1.029406	0.554633	0.646184
H360	H	1.362739	0.887967	0.979517
H361	H	0.749459	0.221976	0.376528
H362	H	1.082793	0.555309	0.709861
H363	H	1.416126	0.888642	1.043194
H364	H	0.695471	0.167902	0.376550
H365	H	1.028805	0.501235	0.709884
H366	H	1.362138	0.834569	1.043217
C367	C	0.487920	-0.038447	-0.000187
C368	C	0.821254	0.294886	0.333146
C369	C	1.154587	0.628219	0.666480
H370	H	0.438115	-0.030051	-0.000206
H371	H	0.771449	0.303282	0.333127
H372	H	1.104782	0.636616	0.666460
H373	H	0.503329	-0.064421	0.042276
H374	H	0.836662	0.268913	0.375610
H375	H	1.169995	0.602246	0.708943
H376	H	0.503381	-0.064412	-0.042651
H377	H	0.836715	0.268922	0.290682
H378	H	1.170048	0.602255	0.624015
C379	C	0.724443	0.192973	0.185695
C380	C	1.057777	0.526306	0.519029
C381	C	1.391110	0.859639	0.852362
H382	H	0.696086	0.221323	0.219505
H383	H	1.029419	0.554656	0.552839
H384	H	1.362753	0.887989	0.886172
H385	H	0.695458	0.167929	0.155812
H386	H	1.028791	0.501262	0.489145
H387	H	1.362125	0.834596	0.822479
H388	H	0.749472	0.221978	0.155784
H389	H	1.082805	0.555311	0.489117
H390	H	1.416138	0.888644	0.822450
H391	H	0.910911	0.006685	0.802936
H392	H	1.244245	0.340018	1.136269
H393	H	1.577578	0.673351	1.469603
