data_functionalizedCrystal
_audit_creation_method	'MofGen! by Chris Wilmer'
_symmetry_space_group_name_H-M	'P1'
_symmetry_Int_Tables_number	1
_symmetry_cell_setting	triclinic
loop_
_symmetry_equiv_pos_as_xyz
  x,y,z
_cell_length_a	14.853569
_cell_length_b	27.731996
_cell_length_c	13.330367
_cell_angle_alpha	89.989375
_cell_angle_beta	89.994419
_cell_angle_gamma	83.128476
loop_
_atom_site_label
_atom_site_type_symbol
_atom_site_fract_x
_atom_site_fract_y
_atom_site_fract_z
O1	O	1.195319	0.063112	-0.083391
O2	O	0.932735	0.070629	-0.083405
O3	O	1.072207	-0.003490	-0.083376
O4	O	1.055847	0.137230	-0.083420
O5	O	1.072187	-0.003492	0.083471
O6	O	0.932715	0.070627	0.083442
O7	O	1.195299	0.063110	0.083456
Cu8	Cu	1.064005	0.066868	0.098684
Cu9	Cu	1.064029	0.066870	-0.098633
O10	O	1.055827	0.137229	0.083427
C11	C	0.899142	0.070287	0.000017
C12	C	0.799075	0.069266	0.000013
C13	C	0.763438	0.024759	0.000023
C14	C	0.740686	0.112814	0.000007
C15	C	0.646668	0.111856	0.000008
C16	C	0.611030	0.067349	0.000019
C17	C	0.669412	0.023800	0.000028
C18	C	0.588279	0.155405	0.000010
C19	C	0.494255	0.154449	0.000012
C20	C	0.458616	0.109941	0.000015
C21	C	0.517004	0.066390	0.000023
C22	C	0.481367	0.021882	0.000034
C23	C	0.539753	-0.021669	0.000034
C24	C	0.633773	-0.020708	0.000031
C25	C	0.364596	0.108980	0.000019
C26	C	0.387340	0.020923	0.000038
C27	C	1.071861	-0.021500	0.000051
C28	C	1.070849	-0.075161	0.000061
C29	C	1.064491	-0.407906	-0.090937
C30	C	1.060647	-0.609582	-0.090954
O31	O	1.060121	-0.635655	-0.168303
N32	N	1.060159	-0.634803	-0.000007
C33	C	1.060626	-0.609600	0.090952
O34	O	1.060113	-0.635679	0.168308
C35	C	1.064463	-0.407925	0.090968
C36	C	1.064960	-0.382708	0.000015
C37	C	1.064988	-0.382689	-0.181883
C38	C	1.065953	-0.332273	-0.181877
C39	C	1.066423	-0.307075	-0.090926
C40	C	1.065926	-0.332292	0.000020
C41	C	1.064923	-0.382723	0.181926
C42	C	1.065880	-0.332300	0.181922
C43	C	1.066378	-0.307083	0.090968
C44	C	1.067362	-0.256678	0.090977
N45	N	1.067850	-0.231457	0.000030
C46	C	1.067380	-0.256656	-0.090922
C47	C	1.058613	-0.715483	0.090936
C48	C	1.057655	-0.765902	0.090932
C49	C	1.057675	-0.765880	-0.090974
C50	C	1.058639	-0.715461	-0.090969
C51	C	1.059101	-0.690263	-0.000011
C52	C	1.069410	-0.150779	-0.090904
C53	C	1.070379	-0.100359	-0.090890
C54	C	1.070354	-0.100385	0.091015
C55	C	1.069390	-0.150801	0.091003
C56	C	1.068914	-0.175997	0.000035
O57	O	1.067878	-0.230573	0.168285
O58	O	1.067873	-0.230567	-0.168266
C59	C	1.063525	-0.458322	-0.090942
C60	C	1.063029	-0.483539	0.000004
C61	C	1.063498	-0.458340	0.090956
C62	C	1.062071	-0.533958	0.000000
C63	C	1.061602	-0.559156	-0.090951
C64	C	1.062090	-0.533936	-0.181899
C65	C	1.063056	-0.483520	-0.181893
C66	C	1.063010	-0.483561	0.181903
C67	C	1.062045	-0.533976	0.181890
C68	C	1.061576	-0.559175	0.090939
C69	C	1.228892	0.063452	0.000032
C70	C	1.328959	0.064473	0.000029
C71	C	1.056173	0.155239	-0.000002
C72	C	1.057186	0.208900	-0.000019
N73	N	1.063995	0.066867	0.237465
N74	N	1.064046	0.066868	-0.237414
C75	C	1.002268	0.099677	0.710075
C76	C	1.125814	0.034060	0.710069
C77	C	1.125804	0.034058	0.605050
C78	C	1.064026	0.066867	0.552540
C79	C	1.002258	0.099678	0.605047
C80	C	1.187576	0.001252	0.552535
C81	C	1.187569	0.001249	0.447510
C82	C	1.125787	0.034056	0.394998
C83	C	1.064016	0.066868	0.447511
C84	C	1.002238	0.099677	0.395001
C85	C	0.940462	0.132486	0.447513
C86	C	0.940475	0.132485	0.552534
C87	C	1.125773	0.034058	0.289976
C88	C	1.002227	0.099677	0.289972
H89	H	0.317063	0.144439	0.000027
N90	N	0.696743	-0.067678	0.000039
H91	H	0.761712	-0.060316	0.000041
H92	H	0.685270	-0.087072	0.061897
H93	H	1.064520	-0.403246	0.255990
H94	H	1.176116	0.007350	0.752826
H95	H	1.061647	-0.554504	0.255961
N96	N	0.935587	0.135061	0.233338
H97	H	0.896457	0.155842	0.282542
H98	H	0.969784	0.156467	0.189749
H99	H	1.061712	-0.554462	-0.255955
N100	N	1.068877	-0.178005	0.189098
H101	H	1.012572	-0.195041	0.193155
H102	H	1.124422	-0.202783	0.193080
H103	H	1.237869	-0.025466	0.404761
H104	H	0.446724	0.189911	0.000010
N105	N	0.873857	0.167869	0.609180
H106	H	0.908008	0.189304	0.652733
H107	H	0.834729	0.188621	0.559923
H108	H	0.890165	0.159202	0.404746
H109	H	1.069018	-0.171287	-0.164978
H110	H	0.951969	0.126389	0.752833
N111	N	1.059122	-0.688307	0.189045
H112	H	1.003048	-0.693206	0.228807
H113	H	1.114897	-0.700986	0.228720
N114	N	0.779121	0.160815	-0.000010
H115	H	0.727869	0.188257	-0.000016
H116	H	0.817631	0.163129	0.061842
N117	N	1.254212	-0.034129	0.609168
H118	H	1.244841	-0.029152	0.683666
H119	H	1.244296	-0.068432	0.590826
H120	H	1.176074	0.007347	0.247225
H121	H	1.070741	-0.079860	0.165066
H122	H	1.064602	-0.403200	-0.255950
H123	H	0.358333	-0.015320	0.000041
H124	H	1.063393	-0.463049	0.255968
N125	N	1.063593	-0.456326	-0.279993
H126	H	1.063148	-0.479945	-0.337603
H127	H	1.008084	-0.431523	-0.283965
H128	H	1.066243	-0.311786	0.255992
H129	H	0.510725	-0.057907	0.000037
N130	N	0.826403	-0.022213	0.000021
H131	H	0.891374	-0.014855	0.000014
H132	H	0.814933	-0.041609	0.061879
N133	N	0.626712	0.203406	0.000000
H134	H	0.665218	0.205762	0.061845
H135	H	0.665169	0.205739	-0.061897
H136	H	1.070786	-0.079830	-0.164959
H137	H	1.059043	-0.694933	-0.165031
N138	N	1.066485	-0.305078	-0.279977
H139	H	1.066038	-0.328698	-0.337587
H140	H	1.010974	-0.280276	-0.283944
H141	H	1.057294	-0.786406	-0.165030
H142	H	1.057264	-0.786430	0.164996
