data_functionalizedCrystal
_audit_creation_method	'MofGen! by Chris Wilmer'
_symmetry_space_group_name_H-M	'P1'
_symmetry_Int_Tables_number	1
_symmetry_cell_setting	triclinic
loop_
_symmetry_equiv_pos_as_xyz
  x,y,z
_cell_length_a	19.902436
_cell_length_b	15.698487
_cell_length_c	19.902436
_cell_angle_alpha	60.004762
_cell_angle_beta	90.000557
_cell_angle_gamma	60.003211
loop_
_atom_site_label
_atom_site_type_symbol
_atom_site_fract_x
_atom_site_fract_y
_atom_site_fract_z
Zr1	Zr	0.647261	0.932482	-0.088246
O2	O	0.539982	1.110165	-0.195514
O3	O	0.680145	0.754781	-0.055363
O4	O	0.680145	0.932475	-0.195531
O5	O	0.539985	0.932482	0.055222
O6	O	0.790711	0.932492	-0.195544
O7	O	0.539982	0.932470	-0.055346
O8	O	0.790711	0.614628	0.055192
O9	O	0.539985	1.250346	-0.195514
O10	O	0.776687	0.827891	-0.041348
O11	O	0.694175	0.827888	0.041177
O12	O	0.694175	1.037101	-0.123853
O13	O	0.611663	1.037097	-0.041328
Zr14	Zr	0.823605	0.932528	0.088076
Zr15	Zr	0.823601	0.932509	-0.088267
Zr16	Zr	0.647265	0.932502	0.088096
Zr17	Zr	0.647265	1.156055	-0.088246
Zr18	Zr	0.823600	0.708956	0.088075
O19	O	0.790721	1.110230	0.055192
O20	O	0.790714	1.110202	-0.195544
O21	O	0.539989	1.110192	0.055222
O22	O	0.930884	0.754845	0.195344
O23	O	0.930877	0.754818	-0.055392
O24	O	0.680151	0.754808	0.195374
O25	O	0.930881	0.932528	-0.055392
O26	O	0.790721	0.932535	0.195361
O27	O	0.680155	0.932518	0.195374
O28	O	0.930884	0.932540	0.055176
O29	O	0.680152	1.250367	-0.195531
O30	O	0.790714	0.614644	0.195360
O31	O	0.930881	0.614665	0.195344
O32	O	0.930877	0.614649	0.055175
O33	O	0.539989	1.250361	-0.055346
O34	O	0.680155	1.250382	-0.055362
O35	O	0.776691	0.827909	0.123683
O36	O	0.859203	0.827913	0.041158
O37	O	0.776691	1.037122	-0.041347
O38	O	0.694179	1.037119	0.041178
C39	C	0.735427	0.652850	-0.000085
C40	C	0.735425	0.557938	-0.000086
C41	C	0.735425	0.480856	-0.000084
C42	C	0.735431	0.384151	-0.000082
C43	C	0.514859	0.932472	-0.000059
C44	C	0.439998	0.932461	-0.000050
C45	C	0.167950	0.932520	-0.000096
C46	C	0.248490	0.800547	0.051701
C47	C	0.326393	0.800464	0.051993
C48	C	0.302916	0.932490	-0.000074
C49	C	0.248799	0.998038	0.037888
C50	C	0.171237	0.997194	0.038267
C51	C	0.170094	0.999890	-0.089879
C52	C	0.248972	0.997410	-0.089737
C53	C	0.379191	0.932480	-0.000061
C54	C	0.091673	0.932534	-0.000106
C55	C	0.956007	0.932538	-0.000111
C56	C	1.030868	0.932549	-0.000120
C57	C	0.735427	0.932481	-0.220663
C58	C	0.735426	0.932473	-0.295525
C59	C	0.735439	1.212160	-0.000085
C60	C	0.735440	1.307072	-0.000085
C61	C	0.735431	0.932495	-0.432604
C62	C	0.787477	0.800531	-0.409078
C63	C	0.787758	0.800479	-0.486928
C64	C	0.735435	0.932515	-0.567567
C65	C	0.773123	0.998440	-0.565285
C66	C	0.773514	0.997567	-0.487046
C67	C	0.645668	0.999491	-0.487729
C68	C	0.645806	0.997035	-0.564661
C69	C	0.735437	0.932534	-0.643845
C70	C	0.735431	0.932480	-0.356327
C71	C	0.735438	0.932529	0.220492
C72	C	0.735440	0.932537	0.295354
C73	C	0.956001	0.652883	-0.000111
C74	C	1.030860	0.557982	-0.000120
C75	C	0.735433	0.652874	0.220492
C76	C	0.735433	0.557970	0.295354
C77	C	0.956007	0.652907	0.220466
C78	C	1.030868	0.558014	0.295319
C79	C	0.514859	1.212103	-0.220636
C80	C	0.439998	1.306996	-0.295489
C81	C	0.514865	1.212127	-0.000059
C82	C	0.440006	1.307028	-0.000050
C83	C	0.735433	1.212136	-0.220662
C84	C	0.735433	1.307040	-0.295524
C85	C	1.022942	0.513404	-0.043199
C86	C	1.093273	0.424247	-0.043224
C87	C	1.171522	0.379663	-0.000165
C88	C	1.179438	0.424249	0.042915
C89	C	1.109108	0.513411	0.042935
C90	C	0.778505	0.513413	0.373584
C91	C	0.778502	0.424253	0.443932
C92	C	0.735431	0.379646	0.436047
C93	C	0.692353	0.424211	0.357808
C94	C	0.692352	0.513376	0.287463
C95	C	1.109101	0.513453	0.287394
C96	C	1.179447	0.424304	0.357720
C97	C	1.171559	0.379711	0.435970
C98	C	1.093317	0.424280	0.443894
C99	C	1.022972	0.513434	0.373569
C100	C	0.361765	1.351568	-0.287564
C101	C	0.291419	1.440745	-0.357890
C102	C	0.299307	1.485343	-0.436140
C103	C	0.377549	1.440767	-0.444064
C104	C	0.447893	1.351598	-0.373739
C105	C	0.447924	1.351615	0.043021
C106	C	0.377593	1.440797	0.043027
C107	C	0.299344	1.485384	-0.000035
C108	C	0.291428	1.440794	-0.043111
C109	C	0.361758	1.351619	-0.043121
C110	C	0.778513	1.351619	-0.287613
C111	C	0.778529	1.440780	-0.357947
C112	C	0.735460	1.485366	-0.436191
C113	C	0.692379	1.440778	-0.444101
C114	C	0.692368	1.351612	-0.373768
H115	H	0.365779	0.749055	0.026518
O116	O	0.250746	0.731905	0.018156
H117	H	0.194486	0.791110	-0.035790
H118	H	0.384054	1.477088	0.078108
O119	O	0.645900	1.303539	-0.382312
H120	H	0.653127	1.234037	-0.320266
H121	H	0.813609	1.477074	-0.351491
H122	H	0.657285	0.387878	0.351401
O123	O	1.084813	0.376163	0.528294
H124	H	1.146876	0.306670	0.575856
H125	H	0.813585	1.315331	-0.223909
O126	O	0.735463	1.581552	-0.512049
H127	H	0.772648	1.605066	-0.493394
H128	H	1.228782	0.307061	-0.000186
H129	H	0.242083	1.557996	-0.000020
O130	O	1.247434	0.283534	0.511818
H131	H	1.284581	0.317765	0.511760
H132	H	0.355326	1.315261	-0.223855
O133	O	1.117619	0.561555	0.202999
H134	H	1.183843	0.515593	0.209317
H135	H	0.617650	0.948959	-0.564184
H136	H	0.657280	0.549642	0.223767
H137	H	0.355300	1.315319	-0.078193
O138	O	0.207030	1.488888	-0.089556
H139	H	0.159462	1.558378	-0.082301
O140	O	1.263836	0.376148	0.089365
H141	H	1.311404	0.306649	0.082117
O142	O	0.938553	0.561488	-0.089656
H143	H	0.890968	0.630976	-0.082410
O144	O	0.386050	1.488876	-0.528466
H145	H	0.420198	1.414026	-0.535632
H146	H	0.227718	1.477023	-0.351422
H147	H	0.853300	0.749265	-0.369291
O148	O	0.532274	1.303510	-0.382291
H149	H	0.525933	1.349498	-0.448520
H150	H	0.242022	1.557950	-0.493396
O151	O	0.378107	0.731927	0.139722
H152	H	0.385080	0.792473	0.147751
O153	O	0.875464	0.732366	-0.484766
H154	H	0.917843	0.699342	-0.428050
H155	H	0.511631	1.315319	0.078093
H156	H	1.115566	0.549695	0.078019
H157	H	1.243148	0.388024	0.351253
O158	O	0.938592	0.561470	0.382121
H159	H	0.944933	0.515462	0.448349
O160	O	0.249488	0.732262	0.138902
H161	H	0.192872	0.791911	0.145513
H162	H	0.657313	1.477093	-0.507817
H163	H	0.171432	0.950623	0.104335
H164	H	0.603789	1.093340	-0.622085
H165	H	0.229035	1.095112	0.001978
O166	O	0.095678	1.125442	-0.008468
H167	H	0.097683	1.167938	0.021638
O168	O	0.298393	0.937751	0.124580
H169	H	0.352473	0.941899	0.123687
O170	O	0.735450	0.283454	0.511923
H171	H	0.772651	0.259958	0.567643
H172	H	0.614156	0.956949	-0.451312
O173	O	0.166255	0.943767	-0.131791
H174	H	0.108355	0.949416	-0.134975
H175	H	0.813579	0.549723	0.380020
H176	H	0.286296	0.949617	-0.118097
H177	H	0.113324	1.097112	-0.128653
O178	O	0.224416	1.125009	-0.145165
H179	H	0.250389	1.144236	-0.109511
H180	H	0.762503	0.748780	-0.485661
H181	H	0.813584	0.387978	0.507630
H182	H	0.839558	0.951280	-0.450627
O183	O	0.754201	0.731521	-0.357073
H184	H	0.700216	0.790530	-0.347429
H185	H	0.737019	1.095536	-0.622078
O186	O	0.726534	1.125831	-0.512630
H187	H	0.703641	1.188206	-0.580778
H188	H	1.086811	0.387955	-0.078304
H189	H	0.838534	0.953223	-0.566964
H190	H	0.606712	1.096703	-0.507622
