data_functionalizedCrystal
_audit_creation_method	'MofGen! by Chris Wilmer'
_symmetry_space_group_name_H-M	'P1'
_symmetry_Int_Tables_number	1
_symmetry_cell_setting	triclinic
loop_
_symmetry_equiv_pos_as_xyz
  x,y,z
_cell_length_a	19.077236
_cell_length_b	15.299816
_cell_length_c	19.076919
_cell_angle_alpha	77.689900
_cell_angle_beta	90.112677
_cell_angle_gamma	83.008515
loop_
_atom_site_label
_atom_site_type_symbol
_atom_site_fract_x
_atom_site_fract_y
_atom_site_fract_z
Zn1	Zn	1.100674	-0.327586	0.486529
Zn2	Zn	1.434007	0.005747	0.819862
Zn3	Zn	1.767341	0.339080	1.153195
Zn4	Zn	1.124025	-0.472208	0.389324
Zn5	Zn	1.457359	-0.138875	0.722657
Zn6	Zn	1.790692	0.194459	1.055991
Zn7	Zn	0.987829	-0.327113	0.364242
Zn8	Zn	1.321162	0.006220	0.697576
Zn9	Zn	1.654495	0.339554	1.030909
Zn10	Zn	1.003402	-0.484247	0.503752
Zn11	Zn	1.336735	-0.150914	0.837086
Zn12	Zn	1.670069	0.182419	1.170419
O13	O	1.053982	-0.402789	0.435962
O14	O	1.387316	-0.069455	0.769295
O15	O	1.720649	0.263878	1.102629
O16	O	1.201479	-0.341930	0.476923
O17	O	1.534813	-0.008597	0.810256
O18	O	1.868146	0.324737	1.143590
O19	O	1.109213	-0.447724	0.286931
O20	O	1.442547	-0.114391	0.620264
O21	O	1.775880	0.218943	0.953598
O22	O	0.986508	-0.200890	0.362759
O23	O	1.319841	0.132443	0.696092
O24	O	1.653174	0.465777	1.029425
O25	O	1.218635	-0.448183	0.405507
O26	O	1.551968	-0.114850	0.738841
O27	O	1.885302	0.218484	1.072174
O28	O	1.069415	-0.201238	0.452602
O29	O	1.402748	0.132096	0.785935
O30	O	1.736082	0.465429	1.119269
O31	O	1.009150	-0.341124	0.268504
O32	O	1.342484	-0.007790	0.601837
O33	O	1.675817	0.325543	0.935170
O34	O	0.892187	-0.352798	0.379460
O35	O	1.225520	-0.019465	0.712793
O36	O	1.558854	0.313869	1.046127
O37	O	1.013051	-0.468702	0.600534
O38	O	1.346384	-0.135369	0.933867
O39	O	1.679717	0.197964	1.267200
O40	O	0.903629	-0.468244	0.481957
O41	O	1.236962	-0.134910	0.815291
O42	O	1.570295	0.198423	1.148624
O43	O	1.084516	-0.353604	0.587879
O44	O	1.417849	-0.020271	0.921213
O45	O	1.751183	0.313062	1.254546
O46	O	1.124314	-0.600091	0.422208
O47	O	1.457648	-0.266757	0.755542
O48	O	1.790981	0.066576	1.088875
O49	O	1.035693	-0.608936	0.506278
O50	O	1.369026	-0.275603	0.839612
O51	O	1.702360	0.057731	1.172945
C52	C	0.872573	-0.411777	0.429857
C53	C	1.205907	-0.078443	0.763190
C54	C	1.539240	0.254890	1.096523
C55	C	0.794968	-0.415644	0.427264
C56	C	1.128301	-0.082311	0.760598
C57	C	1.461635	0.251022	1.093931
C58	C	0.749587	-0.362236	0.463311
C59	C	1.082920	-0.028903	0.796644
C60	C	1.416254	0.304430	1.129978
C61	C	0.676668	-0.365866	0.460869
C62	C	1.010002	-0.032532	0.794202
C63	C	1.343335	0.300801	1.127535
C64	C	0.649132	-0.422908	0.422384
C65	C	0.982466	-0.089575	0.755717
C66	C	1.315799	0.243758	1.089050
C67	C	0.694519	-0.476318	0.386333
C68	C	1.027852	-0.142985	0.719666
C69	C	1.361186	0.190348	1.052999
C70	C	0.767436	-0.472683	0.388771
C71	C	1.100769	-0.139350	0.722104
C72	C	1.434103	0.193983	1.055438
C73	C	0.432011	-0.439697	0.411091
C74	C	0.765344	-0.106363	0.744424
C75	C	1.098678	0.226970	1.077758
C76	C	0.359089	-0.443329	0.408657
C77	C	0.692422	-0.109996	0.741990
C78	C	1.025755	0.223337	1.075324
C79	C	0.341243	-0.332875	0.483192
C80	C	0.674576	0.000458	0.816526
C81	C	1.007909	0.333791	1.149859
C82	C	0.414162	-0.329250	0.485631
C83	C	0.747496	0.004084	0.818964
C84	C	1.080829	0.337417	1.152298
C85	C	0.459542	-0.382656	0.449577
C86	C	0.792875	-0.049322	0.782910
C87	C	1.126209	0.284011	1.116244
N88	N	0.574598	-0.426622	0.419888
N89	N	0.907931	-0.093288	0.753222
N90	N	1.241265	0.240045	1.086555
N91	N	0.534074	-0.378937	0.452069
N92	N	0.867408	-0.045604	0.785402
N93	N	1.200741	0.287730	1.118735
C94	C	1.084246	-0.637258	0.468850
C95	C	1.417579	-0.303924	0.802183
C96	C	1.750913	0.029409	1.135517
C97	C	1.097256	-0.737563	0.482946
C98	C	1.430589	-0.404229	0.816279
C99	C	1.763923	-0.070896	1.149612
C100	C	0.961448	-1.019866	0.335475
C101	C	1.294782	-0.686533	0.668808
C102	C	1.628115	-0.353199	1.002141
C103	C	0.949221	-0.925625	0.322233
C104	C	1.282554	-0.592292	0.655566
C105	C	1.615888	-0.258958	0.988900
C106	C	0.986229	-0.878605	0.362410
C107	C	1.319562	-0.545271	0.695743
C108	C	1.652896	-0.211938	1.029076
C109	C	1.035466	-0.925835	0.415831
C110	C	1.368799	-0.592502	0.749164
C111	C	1.702132	-0.259168	1.082498
C112	C	1.047690	-1.020086	0.429078
C113	C	1.381023	-0.686753	0.762411
C114	C	1.714357	-0.353419	1.095745
C115	C	1.072471	-0.878825	0.456013
C116	C	1.405804	-0.545491	0.789346
C117	C	1.739137	-0.212158	1.122680
C118	C	1.121707	-0.926055	0.509434
C119	C	1.455041	-0.592722	0.842768
C120	C	1.788374	-0.259388	1.176101
C121	C	1.133930	-1.020296	0.522679
C122	C	1.467263	-0.686963	0.856012
C123	C	1.800596	-0.353630	1.189345
C124	C	1.096922	-1.067317	0.482502
C125	C	1.430255	-0.733983	0.815835
C126	C	1.763589	-0.400650	1.149169
C127	C	1.060246	-0.784574	0.442766
C128	C	1.393580	-0.451240	0.776099
C129	C	1.726913	-0.117907	1.109433
C130	C	1.146488	-0.784793	0.536369
C131	C	1.479821	-0.451460	0.869703
C132	C	1.813155	-0.118127	1.203036
C133	C	1.158715	-0.879035	0.549611
C134	C	1.492048	-0.545701	0.882945
C135	C	1.825382	-0.212368	1.216278
C136	C	1.236100	-0.393766	0.442092
C137	C	1.569433	-0.060433	0.775425
C138	C	1.902767	0.272900	1.108758
C139	C	1.313708	-0.389922	0.444704
C140	C	1.647041	-0.056588	0.778037
C141	C	1.980374	0.276745	1.111370
C142	C	1.047916	-0.412549	0.620611
C143	C	1.381249	-0.079216	0.953945
C144	C	1.714582	0.254118	1.287278
C145	C	1.045330	-0.416708	0.699298
C146	C	1.378664	-0.083375	1.032631
C147	C	1.711997	0.249958	1.365965
C148	C	1.023619	-0.167404	0.402961
C149	C	1.356953	0.165930	0.736295
C150	C	1.690286	0.499263	1.069628
C151	C	1.010680	-0.067097	0.388899
C152	C	1.344014	0.266237	0.722232
C153	C	1.677347	0.599570	1.055565
C154	C	1.060057	-0.392999	0.252023
C155	C	1.393391	-0.059666	0.585356
C156	C	1.726724	0.273668	0.918690
C157	C	1.062745	-0.388579	0.173306
C158	C	1.396078	-0.055245	0.506639
C159	C	1.729412	0.278088	0.839972
C160	C	1.081322	-0.358740	0.729678
C161	C	1.414655	-0.025407	1.063011
C162	C	1.747989	0.307927	1.396345
C163	C	1.078884	-0.362645	0.803612
C164	C	1.412217	-0.029312	1.136945
C165	C	1.745551	0.304022	1.470278
C166	C	1.040458	-0.424524	0.847165
C167	C	1.373791	-0.091190	1.180498
C168	C	1.707125	0.242143	1.513831
C169	C	1.004462	-0.482495	0.816780
C170	C	1.337795	-0.149162	1.150113
C171	C	1.671128	0.184172	1.483446
C172	C	1.006896	-0.478585	0.742846
C173	C	1.340230	-0.145251	1.076180
C174	C	1.673563	0.188082	1.409513
C175	C	1.029183	-0.442640	1.068987
C176	C	1.362517	-0.109306	1.402321
C177	C	1.695850	0.224027	1.735654
C178	C	1.026753	-0.446547	1.142925
C179	C	1.360087	-0.113214	1.476259
C180	C	1.693420	0.220119	1.809592
C181	C	1.101175	-0.326696	1.129752
C182	C	1.434508	0.006638	1.463086
C183	C	1.767842	0.339971	1.796419
C184	C	1.103609	-0.322795	1.055819
C185	C	1.436943	0.010539	1.389152
C186	C	1.770276	0.343872	1.722486
C187	C	1.067610	-0.380763	1.025440
C188	C	1.400944	-0.047429	1.358773
C189	C	1.734277	0.285904	1.692106
N190	N	1.037967	-0.428519	0.922737
N191	N	1.371300	-0.095186	1.256071
N192	N	1.704633	0.238148	1.589404
N193	N	1.070098	-0.376763	0.949868
N194	N	1.403431	-0.043429	1.283201
N195	N	1.736764	0.289904	1.616534
H196	H	0.672093	-0.522759	0.354993
H197	H	1.005427	-0.189426	0.688327
H198	H	1.338760	0.143908	1.021660
Cl199	Cl	0.824487	-0.539829	0.343454
Cl200	Cl	1.157821	-0.206495	0.676788
Cl201	Cl	1.491154	0.126838	1.010121
H202	H	1.176622	-0.746510	0.569086
H203	H	1.509955	-0.413177	0.902420
H204	H	1.843288	-0.079844	1.235753
H205	H	1.134902	-0.272409	1.020363
H206	H	1.468235	0.060924	1.353696
H207	H	1.801569	0.394258	1.687030
H208	H	0.976271	-0.801869	0.351624
H209	H	1.309605	-0.468536	0.684958
H210	H	1.642938	-0.135202	1.018291
Cl211	Cl	1.112442	-1.185781	0.499004
Cl212	Cl	1.445775	-0.852448	0.832337
Cl213	Cl	1.779109	-0.519114	1.165670
H214	H	0.468951	-0.483185	0.381734
H215	H	0.802285	-0.149851	0.715067
H216	H	1.135618	0.183482	1.048401
H217	H	1.174019	-1.058749	0.566181
H218	H	1.507352	-0.725416	0.899514
H219	H	1.840685	-0.392082	1.232847
Cl220	Cl	0.998352	-0.725210	0.375609
Cl221	Cl	1.331685	-0.391877	0.708942
Cl222	Cl	1.665019	-0.058543	1.042276
Cl223	Cl	0.887319	-0.866257	0.255085
Cl224	Cl	1.220652	-0.532924	0.588418
Cl225	Cl	1.553986	-0.199591	0.921752
Cl226	Cl	0.914920	-1.078982	0.284984
Cl227	Cl	1.248253	-0.745649	0.618318
Cl228	Cl	1.581586	-0.412315	0.951651
H229	H	1.112615	-0.308354	0.694222
H230	H	1.445949	0.024979	1.027556
H231	H	1.779282	0.358313	1.360889
Cl232	Cl	1.124169	-0.289805	0.841807
Cl233	Cl	1.457502	0.043529	1.175141
Cl234	Cl	1.790836	0.376862	1.508474
H235	H	1.198804	-0.917503	0.593108
H236	H	1.532137	-0.584170	0.926441
H237	H	1.865471	-0.250836	1.259774
H238	H	0.772001	-0.315789	0.494652
H239	H	1.105334	0.017545	0.827985
H240	H	1.438667	0.350878	1.161319
H241	H	1.130482	-0.279501	1.154495
H242	H	1.463816	0.053833	1.487829
H243	H	1.797149	0.387166	1.821162
Cl244	Cl	0.978438	-0.524339	1.197677
Cl245	Cl	1.311772	-0.191006	1.531010
Cl246	Cl	1.645105	0.142328	1.864343
H247	H	0.999882	-0.489854	1.044264
H248	H	1.333216	-0.156521	1.377597
H249	H	1.666549	0.176813	1.710931
Cl250	Cl	0.448773	-0.257542	0.534019
Cl251	Cl	0.782107	0.075792	0.867353
Cl252	Cl	1.115440	0.409125	1.200686
H253	H	0.977580	-0.525780	0.718111
H254	H	1.310913	-0.192447	1.051444
H255	H	1.644246	0.140886	1.384778
Cl256	Cl	0.956151	-0.560283	0.871532
Cl257	Cl	1.289485	-0.226950	1.204865
Cl258	Cl	1.622818	0.106384	1.538198
H259	H	0.304287	-0.289394	0.512545
H260	H	0.637620	0.043940	0.845878
H261	H	0.970953	0.377273	1.179211
Cl262	Cl	0.324476	-0.515068	0.360292
Cl263	Cl	0.657809	-0.181734	0.693625
Cl264	Cl	0.991143	0.151599	1.026958
Cl265	Cl	0.619621	-0.298724	0.506189
Cl266	Cl	0.952954	0.034609	0.839523
Cl267	Cl	1.286287	0.367943	1.172856
