data_functionalizedCrystal
_audit_creation_method	'MofGen! by Chris Wilmer'
_symmetry_space_group_name_H-M	'P1'
_symmetry_Int_Tables_number	1
_symmetry_cell_setting	triclinic
loop_
_symmetry_equiv_pos_as_xyz
  x,y,z
_cell_length_a	15.711784
_cell_length_b	14.971486
_cell_length_c	14.048226
_cell_angle_alpha	90.006640
_cell_angle_beta	89.993661
_cell_angle_gamma	78.398535
loop_
_atom_site_label
_atom_site_type_symbol
_atom_site_fract_x
_atom_site_fract_y
_atom_site_fract_z
O1	O	1.147446	-0.490746	-0.079207
O2	O	0.895712	-0.422615	-0.079199
O3	O	1.028326	-0.328681	-0.079196
O4	O	1.014832	-0.584680	-0.079209
O5	O	1.028310	-0.328667	0.079125
O6	O	0.895696	-0.422601	0.079123
O7	O	1.147430	-0.490733	0.079115
Zn8	Zn	1.021560	-0.456665	0.104256
Zn9	Zn	1.021581	-0.456683	-0.104340
O10	O	1.014816	-0.584667	0.079112
C11	C	0.863488	-0.411478	-0.000037
C12	C	0.767496	-0.378304	-0.000034
C13	C	0.642419	-0.253416	-0.000026
C14	C	0.732617	-0.284597	-0.000029
C15	C	0.712182	-0.440868	-0.000041
C16	C	0.621980	-0.409700	-0.000043
C17	C	0.587106	-0.315973	-0.000035
C18	C	0.566667	-0.472257	-0.000051
C19	C	0.476473	-0.441091	-0.000048
C20	C	0.441592	-0.347368	-0.000037
C21	C	0.496912	-0.284807	-0.000032
C22	C	0.601543	-0.565983	-0.000053
C23	C	0.546230	-0.628541	-0.000061
C24	C	0.456034	-0.597375	-0.000065
C25	C	0.421153	-0.503652	-0.000053
C26	C	0.400714	-0.659936	-0.000070
C27	C	0.310520	-0.628770	-0.000067
C28	C	0.330959	-0.472486	-0.000050
C29	C	1.027714	-0.295153	-0.000036
C30	C	1.025906	-0.195266	-0.000036
C31	C	1.179653	-0.501869	-0.000049
C32	C	1.275646	-0.535043	-0.000059
C33	C	1.015427	-0.618195	-0.000050
C34	C	1.017236	-0.718082	-0.000056
N35	N	1.021552	-0.456655	0.246616
C36	C	1.103813	-0.163446	-0.000038
C37	C	1.102109	-0.069591	-0.000048
C38	C	1.022496	-0.007557	-0.000049
C39	C	0.944583	-0.039382	-0.000050
C40	C	0.946288	-0.133236	-0.000047
C41	C	0.941034	0.156238	-0.000053
C42	C	0.939328	0.250098	-0.000054
C43	C	1.096855	0.219883	-0.000054
C44	C	1.098560	0.126029	-0.000051
C45	C	1.020646	0.094210	-0.000050
N46	N	1.021596	-0.456688	-0.246700
C47	C	1.080292	-0.415092	0.296435
C48	C	1.080298	-0.415093	0.396093
C49	C	1.021567	-0.456664	0.445930
C50	C	0.962821	-0.498227	0.396104
C51	C	0.962812	-0.498220	0.296448
C52	C	0.962846	-0.498242	0.603818
C53	C	0.962856	-0.498251	0.703481
C54	C	1.080332	-0.415115	0.703463
C55	C	1.080323	-0.415108	0.603807
C56	C	1.021578	-0.456673	0.553988
H57	H	0.429123	-0.736249	-0.000067
Br58	Br	0.235447	-0.713669	-0.000065
Br59	Br	0.831282	0.334287	-0.000051
H60	H	0.879761	0.011134	-0.000056
H61	H	1.168643	-0.213949	-0.000032
Br62	Br	0.593567	-0.755737	-0.000071
Br63	Br	1.160061	-0.358711	0.771078
H64	H	0.614023	-0.177094	-0.000030
H65	H	0.914979	-0.532063	0.255886
H66	H	0.882848	-0.159141	-0.000046
Br67	Br	0.319184	-0.305068	-0.000022
H68	H	0.777651	-0.233648	-0.000026
Br69	Br	0.883106	-0.554637	0.463735
H70	H	1.163387	0.075522	-0.000044
Br71	Br	0.835293	0.113056	-0.000056
H72	H	1.128121	-0.381245	0.255865
Br73	Br	0.449574	-0.157604	-0.000021
H74	H	0.302563	-0.396165	-0.000054
Br75	Br	0.759519	-0.568065	-0.000051
Br76	Br	1.160015	-0.358682	0.463708
Br77	Br	1.160036	-0.358702	0.536168
Br78	Br	1.207845	-0.026411	-0.000050
H79	H	0.674985	-0.591356	-0.000051
Br80	Br	0.883146	-0.554670	0.771109
Br81	Br	0.883114	-0.554648	0.536209
H82	H	1.160295	0.245793	-0.000057
