data_functionalizedCrystal
_audit_creation_method	'MofGen! by Chris Wilmer'
_symmetry_space_group_name_H-M	'P1'
_symmetry_Int_Tables_number	1
_symmetry_cell_setting	triclinic
loop_
_symmetry_equiv_pos_as_xyz
  x,y,z
_cell_length_a	8.597340
_cell_length_b	12.837942
_cell_length_c	7.088668
_cell_angle_alpha	96.315902
_cell_angle_beta	89.217760
_cell_angle_gamma	90.035652
loop_
_atom_site_label
_atom_site_type_symbol
_atom_site_fract_x
_atom_site_fract_y
_atom_site_fract_z
O1	O	2.087171	0.143726	-0.184842
O2	O	1.639368	0.160095	-0.111068
O3	O	1.853339	0.001004	-0.146330
O4	O	1.873200	0.302817	-0.149579
O5	O	1.822170	-0.018006	-0.459187
O6	O	1.608199	0.141085	-0.423924
O7	O	2.056002	0.124716	-0.497698
Cu8	Cu	1.829255	0.131165	-0.489377
Cu9	Cu	1.866116	0.153646	-0.119388
O10	O	1.842031	0.283807	-0.462435
C11	C	1.566069	0.149891	-0.257988
C12	C	1.394095	0.147796	-0.229656
C13	C	1.831046	-0.047123	-0.301652
C14	C	1.811038	-0.162206	-0.298353
C15	C	2.051581	-0.403092	-0.337941
C16	C	2.032788	-0.511223	-0.334842
C17	C	1.754664	-0.486601	-0.289042
C18	C	1.773456	-0.378470	-0.292141
C19	C	1.921919	-0.336720	-0.316594
C20	C	1.940708	-0.228587	-0.319707
C21	C	1.662586	-0.203966	-0.273893
C22	C	1.643794	-0.312097	-0.270794
C23	C	2.129302	0.134920	-0.350774
C24	C	2.301277	0.137016	-0.379093
C25	C	1.864325	0.331935	-0.307109
C26	C	1.884334	0.447018	-0.310396
N27	N	1.803340	0.115352	-0.749609
N28	N	1.892041	0.169451	0.140842
H29	H	1.353376	0.129382	-0.528715
H30	H	1.711458	0.059291	-0.816167
O31	O	1.536796	-0.139337	-0.253092
C32	C	1.585205	-0.034947	-0.261124
H33	H	1.713181	-0.027155	-0.222000
H34	H	1.512582	0.019534	-0.156848
H35	H	1.568998	-0.012807	-0.411014
H36	H	2.138374	-0.565260	-0.352219
H37	H	1.633794	-0.520612	-0.269113
O38	O	1.331865	0.157081	-0.051177
C39	C	1.235071	0.246261	-0.025014
H40	H	1.271229	0.303687	-0.129263
H41	H	1.246676	0.285519	0.126385
H42	H	1.109041	0.221690	-0.051005
O43	O	2.084983	-0.188055	-0.343122
C44	C	2.181124	-0.212139	-0.194280
H45	H	2.105861	-0.227776	-0.066785
H46	H	2.261974	-0.143305	-0.152308
H47	H	2.253279	-0.284808	-0.243386
O48	O	2.195906	-0.362696	-0.361630
C49	C	2.306317	-0.444471	-0.379865
H50	H	2.258057	-0.514343	-0.311717
H51	H	2.418050	-0.416316	-0.305947
H52	H	2.332128	-0.468877	-0.536673
O53	O	1.499689	-0.352767	-0.246808
C54	C	1.496615	-0.404702	-0.081585
H55	H	1.619915	-0.428302	-0.046972
H56	H	1.420921	-0.477747	-0.106158
H57	H	1.446524	-0.350055	0.041977
O58	O	2.001583	0.236470	-0.779962
C59	C	1.969564	0.338787	-0.823428
H60	H	1.896123	0.334594	-0.956733
H61	H	2.083486	0.380881	-0.848816
H62	H	1.903195	0.383624	-0.699886
