data_functionalizedCrystal
_audit_creation_method	'MofGen! by Chris Wilmer'
_symmetry_space_group_name_H-M	'P1'
_symmetry_Int_Tables_number	1
_symmetry_cell_setting	triclinic
loop_
_symmetry_equiv_pos_as_xyz
  x,y,z
_cell_length_a	10.489741
_cell_length_b	10.723022
_cell_length_c	9.798715
_cell_angle_alpha	89.998022
_cell_angle_beta	89.998999
_cell_angle_gamma	84.503200
loop_
_atom_site_label
_atom_site_type_symbol
_atom_site_fract_x
_atom_site_fract_y
_atom_site_fract_z
O1	O	1.693939	0.176061	-0.113403
O2	O	1.322733	0.192587	-0.113424
O3	O	1.516899	0.002753	-0.113408
O4	O	1.499772	0.365895	-0.113419
O5	O	1.516885	0.002752	0.113574
O6	O	1.322718	0.192586	0.113558
O7	O	1.693924	0.176060	0.113579
Zn8	Zn	1.508319	0.184323	0.149607
Zn9	Zn	1.508338	0.184324	-0.149452
O10	O	1.499758	0.365894	0.113563
C11	C	1.275194	0.191338	0.000065
C12	C	1.133567	0.187604	0.000057
C13	C	1.515646	-0.043748	0.000082
C14	C	1.511918	-0.182305	0.000077
C15	C	1.399949	-0.230934	0.000068
C16	C	1.396094	-0.374139	0.000063
C17	C	1.065505	0.066818	0.000073
C18	C	0.973349	0.123876	-0.111840
C19	C	0.973368	0.123905	0.111947
C20	C	1.043276	0.244712	-0.111949
C21	C	1.043306	0.244724	0.111939
C22	C	0.951177	0.301870	-0.000002
C23	C	1.741463	0.177308	0.000088
C24	C	1.883090	0.181043	0.000087
C25	C	1.501011	0.412395	0.000071
C26	C	1.504739	0.550952	0.000067
N27	N	1.508315	0.184322	0.353707
N28	N	1.508352	0.184315	-0.353551
C29	C	1.589840	0.104264	0.421490
C30	C	1.589861	0.104260	0.578653
H31	H	1.306943	-0.166549	0.000071
H32	H	1.300226	-0.416010	0.000049
C33	C	1.132672	-0.067342	-0.000074
N34	N	1.183265	-0.168389	-0.000191
H35	H	1.600611	-0.407186	0.000024
C36	C	1.637571	-0.269281	0.000083
N37	N	1.732217	-0.334791	0.000085
H38	H	0.942373	0.072769	-0.206453
C39	C	1.084884	0.313691	-0.239920
N40	N	1.116227	0.365640	-0.336310
C41	C	1.414052	0.276917	0.567711
N42	N	1.343023	0.346663	0.508396
H43	H	0.901688	0.401268	-0.000066
C44	C	0.931557	0.054834	0.239769
N45	N	0.900070	0.002801	0.336039
H46	H	1.074313	0.295789	0.206556
H47	H	1.659619	0.035722	0.363174
H48	H	1.438528	0.252855	0.412026
C49	C	1.684156	0.011661	0.657399
N50	N	1.755181	-0.058089	0.716715
