data_functionalizedCrystal
_audit_creation_method	'MofGen! by Chris Wilmer'
_symmetry_space_group_name_H-M	'P1'
_symmetry_Int_Tables_number	1
_symmetry_cell_setting	triclinic
loop_
_symmetry_equiv_pos_as_xyz
  x,y,z
_cell_length_a	8.559649
_cell_length_b	10.654550
_cell_length_c	9.130313
_cell_angle_alpha	89.999890
_cell_angle_beta	90.000329
_cell_angle_gamma	77.131784
loop_
_atom_site_label
_atom_site_type_symbol
_atom_site_fract_x
_atom_site_fract_y
_atom_site_fract_z
O1	O	-2.119647	0.042562	0.121776
O2	O	-1.655161	-0.022224	0.121782
O3	O	-1.898084	0.194011	0.121773
O4	O	-1.876725	-0.173673	0.121785
O5	O	-1.898081	0.194006	-0.121825
O6	O	-1.655158	-0.022230	-0.121816
O7	O	-2.119644	0.042557	-0.121823
Cu8	Cu	-1.887401	0.010163	-0.144062
Cu9	Cu	-1.887405	0.010170	0.144021
O10	O	-1.876722	-0.173679	-0.121814
C11	C	-1.595684	-0.027137	-0.000016
C12	C	-1.418466	-0.041751	-0.000013
C13	C	-1.896514	0.240645	-0.000024
C14	C	-1.891822	0.379603	-0.000019
C15	C	-2.179121	0.047469	-0.000022
C16	C	-2.356339	0.062084	-0.000015
C17	C	-1.878292	-0.220312	-0.000013
C18	C	-1.882984	-0.359271	-0.000009
N19	N	-1.887410	0.010160	-0.346685
C20	C	-2.034851	0.473864	-0.000026
C21	C	-2.030432	0.604428	-0.000015
C22	C	-1.739944	0.546458	0.000002
C23	C	-1.744364	0.415896	0.000002
C24	C	-2.202562	0.507333	-0.000042
C25	C	-2.198144	0.637898	-0.000032
C26	C	-1.995004	0.105884	-0.423341
C27	C	-1.995000	0.105898	-0.576678
C28	C	-1.779803	-0.085545	-0.576689
C29	C	-1.779800	-0.085553	-0.423355
C30	C	-2.119251	0.216409	-0.423336
C31	C	-2.119247	0.216423	-0.576672
N32	N	-1.887408	0.010183	0.346644
H33	H	-1.438727	0.162162	-0.000010
H34	H	-1.336069	-0.141836	-0.000003
H35	H	-1.627896	0.339151	0.000028
H36	H	-1.619888	0.576024	0.000020
C37	C	-2.291173	0.476821	0.137673
N38	N	-2.357910	0.453839	0.241400
H39	H	-2.255966	0.477221	-0.105224
H40	H	-2.248830	0.688779	0.105147
H41	H	-2.261334	0.686183	-0.101976
C42	C	-1.661562	-0.190939	-0.339039
N43	N	-1.572549	-0.270355	-0.275532
H44	H	-2.235137	0.197791	-0.375778
C45	C	-1.661436	-0.190823	-0.661041
N46	N	-1.572279	-0.270120	-0.724573
H47	H	-2.092000	0.310126	-0.381718
H48	H	-2.080468	0.303640	-0.624221
H49	H	-2.241903	0.207575	-0.618290
