data_functionalizedCrystal
_audit_creation_method	'MofGen! by Chris Wilmer'
_symmetry_space_group_name_H-M	'P1'
_symmetry_Int_Tables_number	1
_symmetry_cell_setting	triclinic
loop_
_symmetry_equiv_pos_as_xyz
  x,y,z
_cell_length_a	17.699104
_cell_length_b	15.021413
_cell_length_c	17.699083
_cell_angle_alpha	90.001380
_cell_angle_beta	96.712734
_cell_angle_gamma	90.008051
loop_
_atom_site_label
_atom_site_type_symbol
_atom_site_fract_x
_atom_site_fract_y
_atom_site_fract_z
O1	O	1.004070	0.074052	-0.095778
O2	O	1.504070	0.574052	0.404222
O3	O	0.783694	0.074050	-0.108214
O4	O	1.283694	0.574050	0.391786
O5	O	0.900108	0.074043	0.008193
O6	O	1.400108	0.574043	0.508193
O7	O	0.887655	0.074059	-0.212185
O8	O	1.387655	0.574059	0.287815
O9	O	0.900090	-0.074021	0.008180
O10	O	1.400090	0.425979	0.508180
O11	O	0.783676	-0.074014	-0.108227
O12	O	1.283676	0.425986	0.391773
O13	O	1.004052	-0.074012	-0.095791
O14	O	1.504052	0.425988	0.404209
Zn15	Zn	0.893861	-0.097522	-0.102011
Zn16	Zn	1.393861	0.402478	0.397989
Zn17	Zn	0.893884	0.097559	-0.101994
Zn18	Zn	1.393884	0.597559	0.398006
O19	O	0.887638	-0.074006	-0.212198
O20	O	1.387638	0.425994	0.287802
C21	C	0.755488	0.000017	-0.107772
C22	C	1.255488	0.500017	0.392228
C23	C	0.671471	0.000016	-0.106427
C24	C	1.171471	0.500016	0.393573
N25	N	0.893851	-0.230659	-0.102022
N26	N	1.393851	0.269341	0.397978
C27	C	0.146600	0.000030	-0.167171
C28	C	0.646600	0.500030	0.332829
C29	C	0.225543	0.000033	-0.168430
C30	C	0.725543	0.500033	0.331570
C31	C	0.274161	0.000028	-0.100095
C32	C	0.774161	0.500028	0.399905
C33	C	0.243831	0.000029	-0.030496
C34	C	0.743831	0.500029	0.469504
C35	C	0.164889	0.000033	-0.029238
C36	C	0.664889	0.500033	0.470762
C37	C	0.562197	0.000015	-0.035569
C38	C	1.062197	0.500015	0.464431
C39	C	0.641144	0.000009	-0.036833
C40	C	1.141144	0.500009	0.463167
C41	C	0.622852	0.000015	-0.174762
C42	C	1.122852	0.500015	0.325238
C43	C	0.543909	0.000019	-0.173503
C44	C	1.043909	0.500019	0.326497
C45	C	0.513587	0.000025	-0.103905
C46	C	1.013587	0.500025	0.396095
C47	C	0.427987	0.000024	-0.102541
C48	C	0.927987	0.500024	0.397459
C49	C	0.359759	0.000023	-0.101459
C50	C	0.859759	0.500023	0.398541
C51	C	0.840465	-0.529671	-0.156267
C52	C	1.340465	-0.029671	0.343733
C53	C	0.825279	-0.470317	-0.088112
C54	C	1.325279	0.029683	0.411888
C55	C	0.893884	-0.587696	-0.101990
C56	C	1.393884	-0.087696	0.398010
C57	C	0.909017	-0.470308	-0.170159
C58	C	1.409017	0.029692	0.329841
C59	C	0.893865	-0.412272	-0.102010
C60	C	1.393865	0.087728	0.397990
C61	C	0.878664	-0.529649	-0.033801
C62	C	1.378664	-0.029649	0.466199
C63	C	0.962432	-0.529645	-0.115893
C64	C	1.462432	-0.029645	0.384107
C65	C	0.947275	-0.470318	-0.047688
C66	C	1.447275	0.029682	0.452312
C67	C	0.893892	-0.688754	-0.101981
C68	C	1.393892	-0.188754	0.398019
C69	C	0.893857	-0.311217	-0.102012
C70	C	1.393857	0.188783	0.397988
C71	C	1.032258	0.000022	-0.096233
C72	C	1.532258	0.500022	0.403767
C73	C	1.116275	0.000029	-0.097578
C74	C	1.616275	0.500029	0.402422
C75	C	0.899653	0.000011	0.036383
C76	C	1.399653	0.500011	0.536383
C77	C	0.898314	0.000010	0.120402
C78	C	1.398314	0.500010	0.620402
N79	N	0.893901	0.230697	-0.101977
N80	N	1.393901	0.730697	0.398023
C81	C	0.888093	0.000029	-0.240388
C82	C	1.388093	0.500029	0.259612
C83	C	0.889431	0.000035	-0.324406
C84	C	1.389431	0.500035	0.175594
C85	C	0.966647	0.000010	0.169017
C86	C	1.466647	0.500010	0.669017
C87	C	0.965385	0.000018	0.247961
C88	C	1.465385	0.500018	0.747961
C89	C	0.895789	0.000020	0.278287
C90	C	1.395789	0.500020	0.778287
C91	C	0.827451	0.000023	0.229665
C92	C	1.327451	0.500023	0.729665
C93	C	0.828714	0.000022	0.150723
C94	C	1.328714	0.500022	0.650723
C95	C	0.822356	0.000030	0.548028
C96	C	1.322356	0.500030	1.048028
C97	C	0.821098	0.000029	0.626976
C98	C	1.321098	0.500029	1.126976
C99	C	0.959026	0.000026	0.645266
C100	C	1.459026	0.500026	1.145266
C101	C	0.960289	0.000025	0.566324
C102	C	1.460289	0.500025	1.066324
C103	C	0.891952	0.000033	0.517709
C104	C	1.391952	0.500033	1.017709
C105	C	0.893321	0.000026	0.432110
C106	C	1.393321	0.500026	0.932110
C107	C	0.894419	0.000020	0.363885
C108	C	1.394419	0.500020	0.863885
H109	H	0.107020	0.000027	-0.222818
H110	H	0.607020	0.500027	0.277182
H111	H	0.647550	0.000014	-0.231432
H112	H	1.147550	0.500014	0.268568
C113	C	0.490434	0.000029	-0.248672
C114	C	0.990434	0.500029	0.251328
H115	H	0.519802	0.000039	-0.290301
H116	H	1.019802	0.500039	0.209699
H117	H	0.459247	-0.051600	-0.251055
H118	H	0.959247	0.448400	0.248945
H119	H	0.459271	0.051673	-0.251039
H120	H	0.959271	0.551673	0.248961
C121	C	0.528848	0.000024	0.040983
C122	C	1.028848	0.500024	0.540983
H123	H	0.474870	0.000039	0.031951
H124	H	0.974870	0.500039	0.531951
H125	H	0.545532	-0.051609	0.069115
H126	H	1.045532	0.448391	0.569115
H127	H	0.545556	0.051664	0.069110
H128	H	1.045556	0.551664	0.569110
C129	C	0.753550	0.000023	0.097242
C130	C	1.253550	0.500023	0.597242
H131	H	0.764269	0.000031	0.045884
H132	H	1.264269	0.500031	0.545884
H133	H	0.724996	-0.051608	0.106417
H134	H	1.224996	0.448392	0.606417
H135	H	0.725017	0.051665	0.106425
H136	H	1.225017	0.551665	0.606425
C137	C	0.926326	-0.435091	-0.248022
C138	C	1.426326	0.064909	0.251978
H139	H	0.971436	-0.400276	-0.241547
H140	H	1.471436	0.099724	0.258453
H141	H	0.933112	-0.483837	-0.280747
H142	H	1.433112	0.016163	0.219253
H143	H	0.885102	-0.399415	-0.269802
H144	H	1.385102	0.100585	0.230198
C145	C	0.258898	0.000023	-0.244983
C146	C	0.758898	0.500023	0.255017
H147	H	0.218637	0.000013	-0.285500
H148	H	0.718637	0.500013	0.214500
H149	H	0.289322	0.051653	-0.248345
H150	H	0.789322	0.551653	0.251655
H151	H	0.289303	-0.051620	-0.248338
H152	H	0.789303	0.448380	0.251662
H153	H	1.021028	0.000015	0.287541
H154	H	1.521028	0.500015	0.787541
H155	H	0.766711	0.000037	0.508455
H156	H	1.266711	0.500037	1.008455
H157	H	0.992445	-0.444423	-0.001747
H158	H	1.492445	0.055577	0.498253
C159	C	0.750897	0.000023	0.263021
C160	C	1.250897	0.500023	0.763021
H161	H	0.759930	0.000014	0.316999
H162	H	1.259930	0.500014	0.816999
H163	H	0.722771	0.051655	0.246328
H164	H	1.222771	0.551655	0.746328
H165	H	0.722764	-0.051618	0.246322
H166	H	1.222764	0.448382	0.746322
H167	H	0.140200	0.000033	0.027432
H168	H	0.640200	0.500033	0.527432
C169	C	0.779416	-0.564885	-0.218194
C170	C	1.279416	-0.064885	0.281806
H171	H	0.802992	-0.599681	-0.253657
H172	H	1.302992	-0.099681	0.246343
H173	H	0.744023	-0.600560	-0.195340
H174	H	1.244023	-0.100560	0.304660
H175	H	0.753578	-0.516130	-0.243797
H176	H	1.253578	-0.016130	0.256203
H177	H	0.680728	0.000007	0.018817
H178	H	1.180728	0.500007	0.518817
C179	C	0.297308	0.000021	0.044671
C180	C	0.797308	0.500021	0.544671
H181	H	0.348667	0.000009	0.033956
H182	H	0.848667	0.500009	0.533956
H183	H	0.288139	0.051652	0.073221
H184	H	0.788139	0.551652	0.573221
H185	H	0.288116	-0.051621	0.073207
H186	H	0.788116	0.448379	0.573207
C187	C	0.746961	-0.435103	-0.072231
C188	C	1.246961	0.064897	0.427769
H189	H	0.709067	-0.455420	-0.110834
H190	H	1.209067	0.044580	0.389166
H191	H	0.735836	-0.456293	-0.024185
H192	H	1.235836	0.043707	0.475815
H193	H	0.747661	-0.371866	-0.071896
H194	H	1.247661	0.128134	0.428104
H195	H	1.020391	-0.555728	-0.127671
H196	H	1.520391	-0.055728	0.372329
C197	C	0.861263	-0.564707	0.044081
C198	C	1.361263	-0.064707	0.544081
H199	H	0.861349	-0.627949	0.043603
H200	H	1.361349	-0.127949	0.543603
H201	H	0.898975	-0.543911	0.082643
H202	H	1.398975	-0.043911	0.582643
H203	H	0.812715	-0.543899	0.054035
H204	H	1.312715	-0.043899	0.554035
H205	H	1.023320	0.000003	0.144333
H206	H	1.523320	0.500003	0.644333
C207	C	1.036842	0.000019	0.532966
C208	C	1.536842	0.500019	1.032966
H209	H	1.027807	0.000010	0.478988
H210	H	1.527807	0.500010	0.978988
H211	H	1.064981	0.051651	0.549661
H212	H	1.564981	0.551651	1.049661
H213	H	1.064963	-0.051622	0.549660
H214	H	1.564963	0.448378	1.049660
C215	C	1.034198	0.000032	0.698745
C216	C	1.534198	0.500032	1.198745
H217	H	1.023482	0.000044	0.750104
H218	H	1.523482	0.500044	1.250104
H219	H	1.062735	-0.051601	0.689566
H220	H	1.562735	0.448399	1.189566
H221	H	1.062745	0.051672	0.689562
H222	H	1.562745	0.551672	1.189562
H223	H	0.764421	0.000029	0.651664
H224	H	1.264421	0.500029	1.151664
