data_functionalizedCrystal
_audit_creation_method	'MofGen! by Chris Wilmer'
_symmetry_space_group_name_H-M	'P1'
_symmetry_Int_Tables_number	1
_symmetry_cell_setting	triclinic
loop_
_symmetry_equiv_pos_as_xyz
  x,y,z
_cell_length_a	19.288859
_cell_length_b	11.892083
_cell_length_c	19.288865
_cell_angle_alpha	93.867455
_cell_angle_beta	96.865014
_cell_angle_gamma	93.889739
loop_
_atom_site_label
_atom_site_type_symbol
_atom_site_fract_x
_atom_site_fract_y
_atom_site_fract_z
O1	O	0.925811	0.094038	-0.082174
O2	O	1.425811	0.594038	0.417826
O3	O	0.723550	0.094037	-0.093867
O4	O	1.223550	0.594037	0.406133
O5	O	0.830524	0.094015	0.013109
O6	O	1.330524	0.594015	0.513109
O7	O	0.818837	0.094060	-0.189150
O8	O	1.318837	0.594060	0.310850
O9	O	0.821598	-0.093991	0.004209
O10	O	1.321598	0.406009	0.504209
O11	O	0.714624	-0.093969	-0.102768
O12	O	1.214624	0.406031	0.397232
O13	O	0.916885	-0.093968	-0.091074
O14	O	1.416885	0.406032	0.408926
Zn15	Zn	0.814337	-0.123818	-0.098334
Zn16	Zn	1.314337	0.376182	0.401666
Zn17	Zn	0.826097	0.123888	-0.086607
Zn18	Zn	1.326097	0.623888	0.413393
O19	O	0.809911	-0.093946	-0.198050
O20	O	1.309911	0.406054	0.301950
C21	C	0.693210	0.000034	-0.097942
C22	C	1.193210	0.500034	0.402058
C23	C	0.616106	0.000032	-0.096814
C24	C	1.116106	0.500032	0.403186
C25	C	0.052066	0.000046	-0.151957
C26	C	0.552066	0.500046	0.348043
C27	C	0.124513	0.000052	-0.153022
C28	C	0.624513	0.500052	0.346978
C29	C	0.169219	0.000036	-0.090254
C30	C	0.669219	0.500036	0.409746
C31	C	0.141474	0.000043	-0.026414
C32	C	0.641474	0.500043	0.473586
C33	C	0.069029	0.000048	-0.025350
C34	C	0.569029	0.500048	0.474650
C35	C	0.287362	-0.065845	-0.046560
C36	C	0.787362	0.434155	0.453440
C37	C	0.359805	-0.065857	-0.047626
C38	C	0.859805	0.434143	0.452374
C39	C	0.392664	0.000026	-0.093532
C40	C	0.892664	0.500026	0.406468
C41	C	0.353070	0.065906	-0.138383
C42	C	0.853070	0.565906	0.361617
C43	C	0.280625	0.065911	-0.137319
C44	C	0.780625	0.565911	0.362681
C45	C	0.247775	0.000032	-0.091400
C46	C	0.747775	0.500032	0.408600
C47	C	0.498956	0.000033	-0.158522
C48	C	0.998956	0.500033	0.341478
C49	C	0.571405	0.000047	-0.159584
C50	C	1.071405	0.500047	0.340416
C51	C	0.588365	0.000026	-0.032974
C52	C	1.088365	0.500026	0.467026
C53	C	0.515918	0.000024	-0.031914
C54	C	1.015918	0.500024	0.468086
C55	C	0.471217	0.000023	-0.094689
C56	C	0.971217	0.500023	0.405311
N57	N	0.806317	-0.292871	-0.106337
N58	N	1.306317	0.207129	0.393663
C59	C	0.750546	-0.470398	-0.162097
C60	C	1.250546	0.029602	0.337903
C61	C	0.756140	-0.352057	-0.156492
C62	C	1.256140	0.147943	0.343508
C63	C	0.850902	-0.352035	-0.061782
C64	C	1.350902	0.147965	0.438218
C65	C	0.845308	-0.470376	-0.067387
C66	C	1.345308	0.029624	0.432613
C67	C	0.795129	-0.529553	-0.117546
C68	C	1.295129	-0.029553	0.382454
C69	C	0.789539	-0.647896	-0.123154
C70	C	1.289539	-0.147896	0.376846
C71	C	0.884297	-0.647872	-0.028441
C72	C	1.384297	-0.147872	0.471559
C73	C	0.889891	-0.529531	-0.022836
C74	C	1.389891	-0.029531	0.477164
C75	C	0.947225	0.000038	-0.086999
C76	C	1.447225	0.500038	0.413001
C77	C	1.024329	0.000047	-0.088126
C78	C	1.524329	0.500047	0.411874
C79	C	0.825684	0.000009	0.034535
C80	C	1.325684	0.500009	0.534535
C81	C	0.824555	-0.000001	0.111638
C82	C	1.324555	0.499999	0.611638
N83	N	0.834124	0.292940	-0.078599
N84	N	1.334124	0.792940	0.421401
C85	C	0.814750	0.000063	-0.219476
C86	C	1.314750	0.500063	0.280524
C87	C	0.815880	0.000080	-0.296579
C88	C	1.315880	0.500080	0.203421
C89	C	0.887323	-0.000006	0.156336
C90	C	1.387323	0.499994	0.656336
C91	C	0.886263	0.000012	0.228784
C92	C	1.386263	0.500012	0.728784
C93	C	0.822431	0.000012	0.256530
C94	C	1.322431	0.500012	0.756530
C95	C	0.759655	0.000024	0.211823
C96	C	1.259655	0.500024	0.711823
C97	C	0.760717	0.000017	0.139377
C98	C	1.260717	0.500017	0.639377
C99	C	0.769124	-0.065843	0.361698
C100	C	1.269124	0.434157	0.861698
C101	C	0.768065	-0.065843	0.434143
C102	C	1.268065	0.434157	0.934143
C103	C	0.819152	0.000037	0.479976
C104	C	1.319152	0.500037	0.979976
C105	C	0.871311	0.065903	0.453358
C106	C	1.371311	0.565903	0.953358
C107	C	0.872373	0.065897	0.380912
C108	C	1.372373	0.565897	0.880912
C109	C	0.821272	0.000020	0.335084
C110	C	1.321272	0.500020	0.835084
C111	C	0.880775	0.000053	0.603231
C112	C	1.380775	0.500053	1.103231
C113	C	0.879713	0.000078	0.675680
C114	C	1.379713	0.500078	1.175680
C115	C	0.753103	0.000079	0.658717
C116	C	1.253103	0.500079	1.158717
C117	C	0.754167	0.000065	0.586270
C118	C	1.254167	0.500065	1.086270
C119	C	0.818005	0.000047	0.558531
C120	C	1.318005	0.500047	1.058531
H121	H	0.147101	0.000041	-0.205003
H122	H	0.647101	0.500041	0.294997
H123	H	0.709602	0.000021	0.102983
H124	H	1.209602	0.500021	0.602983
H125	H	0.719835	-0.303896	-0.192768
H126	H	1.219835	0.196104	0.307232
C127	C	0.190652	0.000019	0.042631
C128	C	0.690652	0.500019	0.542631
N129	N	0.227693	0.000001	0.094638
N130	N	0.727693	0.500001	0.594638
C131	C	0.906068	-0.286919	-0.006584
C132	C	1.406068	0.213081	0.493416
N133	N	0.947611	-0.237873	0.034999
N134	N	1.447611	0.262127	0.534999
C135	C	0.950998	0.000050	0.572717
C136	C	1.450998	0.500050	1.072717
N137	N	1.003891	0.000052	0.549735
N138	N	1.503891	0.500052	1.049735
H139	H	0.930829	0.000080	0.712073
H140	H	1.430829	0.500080	1.212073
C141	C	0.712923	-0.138326	0.311287
C142	C	1.212923	0.361674	0.811287
N143	N	0.670594	-0.192921	0.273319
N144	N	1.170594	0.307079	0.773319
C145	C	0.038517	0.000035	0.044871
C146	C	0.538517	0.500035	0.544871
N147	N	0.015535	0.000019	0.097763
N148	N	0.515535	0.500019	0.597763
C149	C	0.689439	0.000016	0.242344
C150	C	1.189439	0.500016	0.742344
N151	N	0.636550	0.000011	0.265333
N152	N	1.136550	0.500011	0.765333
C153	C	0.237075	0.138390	-0.186647
C154	C	0.737075	0.638390	0.313353
N155	N	0.204274	0.192988	-0.223798
N156	N	0.704274	0.692988	0.276202
C157	C	0.945075	-0.464422	0.032347
C158	C	1.445075	0.035578	0.532347
N159	N	0.986639	-0.415384	0.073913
N160	N	1.486639	0.084616	0.573913
C161	C	0.933342	-0.712952	0.020568
C162	C	1.433342	-0.212952	0.520568
N163	N	0.970282	-0.761972	0.057479
N164	N	1.470282	-0.261972	0.557479
C165	C	0.449784	0.000053	-0.227575
C166	C	0.949784	0.500053	0.272425
N167	N	0.412750	0.000072	-0.279586
N168	N	0.912750	0.500072	0.220414
H169	H	0.939305	-0.000017	0.133756
H170	H	1.439305	0.499983	0.633756
C171	C	0.389210	0.138387	-0.188881
C172	C	0.889210	0.638387	0.311119
N173	N	0.416434	0.192977	-0.226915
N174	N	0.916434	0.692977	0.273085
H175	H	0.015675	0.000050	-0.203074
H176	H	0.515675	0.500050	0.296926
C177	C	0.685116	0.000065	0.537100
C178	C	1.185116	0.500065	1.037100
N179	N	0.633104	0.000069	0.500065
N180	N	1.133104	0.500069	1.000065
H181	H	0.593987	0.000056	-0.211564
H182	H	1.093987	0.500056	0.288436
H183	H	0.624764	0.000022	0.018134
H184	H	1.124764	0.500022	0.518134
C185	C	0.955315	-0.000001	0.277959
C186	C	1.455315	0.499999	0.777959
N187	N	1.007325	-0.000014	0.314996
N188	N	1.507325	0.499986	0.814996
C189	C	0.485405	0.000001	0.038305
C190	C	0.985405	0.500001	0.538305
N191	N	0.462423	-0.000019	0.091197
N192	N	0.962423	0.499981	0.591197
H193	H	0.912911	0.119550	0.490675
H194	H	1.412911	0.619550	0.990675
C195	C	0.403351	-0.138329	0.001709
C196	C	0.903351	0.361671	0.501709
N197	N	0.436149	-0.192915	0.038871
N198	N	0.936149	0.307085	0.538871
C199	C	0.251224	-0.138323	0.003945
C200	C	0.751224	0.361677	0.503945
N201	N	0.224006	-0.192910	0.041984
N202	N	0.724006	0.307090	0.541984
C203	C	0.734340	-0.712989	-0.178328
C204	C	1.234340	-0.212989	0.321672
N205	N	0.692760	-0.762015	-0.219885
N206	N	1.192760	-0.262015	0.280115
H207	H	0.709693	-0.518581	-0.202943
H208	H	1.209693	-0.018581	0.297057
H209	H	0.914841	0.119530	0.359242
H210	H	1.414841	0.619530	0.859242
C211	C	0.682886	0.000083	0.689234
C212	C	1.182886	0.500083	1.189234
N213	N	0.629997	0.000089	0.712222
N214	N	1.129997	0.500089	1.212222
H215	H	0.725591	-0.119469	0.455809
H216	H	1.225591	0.380531	0.955809
