data_functionalizedCrystal
_audit_creation_method	'MofGen! by Chris Wilmer'
_symmetry_space_group_name_H-M	'P1'
_symmetry_Int_Tables_number	1
_symmetry_cell_setting	triclinic
loop_
_symmetry_equiv_pos_as_xyz
  x,y,z
_cell_length_a	14.044191
_cell_length_b	17.038272
_cell_length_c	13.101039
_cell_angle_alpha	86.395263
_cell_angle_beta	93.662449
_cell_angle_gamma	92.151666
loop_
_atom_site_label
_atom_site_type_symbol
_atom_site_fract_x
_atom_site_fract_y
_atom_site_fract_z
O1	O	1.277888	0.185616	0.085166
O2	O	1.777888	0.685616	0.585166
O3	O	1.001367	0.178769	0.085179
O4	O	1.501367	0.678769	0.585179
O5	O	1.137984	0.068263	0.085165
O6	O	1.637984	0.568263	0.585165
O7	O	1.141271	0.296123	0.085181
O8	O	1.641271	0.796123	0.585181
O9	O	1.128183	0.076206	-0.085264
O10	O	1.628183	0.576206	0.414736
O11	O	0.991566	0.186712	-0.085250
O12	O	1.491566	0.686712	0.414750
O13	O	1.268087	0.193559	-0.085263
O14	O	1.768087	0.693559	0.414737
Zn15	Zn	1.128270	0.191397	-0.112315
Zn16	Zn	1.628270	0.691397	0.387685
Zn17	Zn	1.141184	0.180931	0.112232
Zn18	Zn	1.641184	0.680931	0.612232
O19	O	1.131470	0.304066	-0.085248
O20	O	1.631470	0.804066	0.414752
C21	C	0.960911	0.179746	-0.000034
C22	C	1.460911	0.679746	0.499966
C23	C	0.854965	0.170812	-0.000029
C24	C	1.354965	0.670812	0.499971
C25	C	0.608470	0.217839	-0.000036
C26	C	1.108470	0.717839	0.499964
C27	C	0.660990	0.154492	-0.000039
C28	C	1.160990	0.654492	0.499961
C29	C	0.768928	0.163575	-0.000033
C30	C	1.268928	0.663575	0.499967
C31	C	0.500523	0.208758	-0.000041
C32	C	1.000523	0.708758	0.499959
C33	C	1.130094	0.042897	-0.000050
C34	C	1.630094	0.542897	0.499950
C35	C	1.121174	-0.044520	-0.000049
C36	C	1.621174	0.455480	0.499951
C37	C	1.203063	-0.088904	-0.000054
C38	C	1.703063	0.411096	0.499946
C39	C	1.194677	-0.171042	-0.000044
C40	C	1.694677	0.328958	0.499956
C41	C	1.104402	-0.208794	-0.000036
C42	C	1.604402	0.291206	0.499964
C43	C	1.022508	-0.164405	-0.000028
C44	C	1.522508	0.335595	0.499972
C45	C	1.030895	-0.082269	-0.000031
C46	C	1.530895	0.417731	0.499969
C47	C	1.074773	-0.456626	-0.000021
C48	C	1.574773	0.043374	0.499979
C49	C	1.066392	-0.538768	-0.000021
C50	C	1.566392	-0.038768	0.499979
C51	C	1.238562	-0.545400	-0.000035
C52	C	1.738562	-0.045400	0.499965
C53	C	1.246941	-0.463261	-0.000043
C54	C	1.746941	0.036739	0.499957
C55	C	1.165047	-0.418879	-0.000030
C56	C	1.665047	0.081121	0.499970
C57	C	1.095828	-0.292752	-0.000029
C58	C	1.595828	0.207248	0.499971
C59	C	1.173622	-0.334923	-0.000030
C60	C	1.673622	0.165077	0.499970
C61	C	1.308543	0.192582	-0.000048
C62	C	1.808543	0.692582	0.499952
C63	C	1.414490	0.201516	-0.000046
C64	C	1.914490	0.701516	0.499954
C65	C	1.139361	0.329431	-0.000032
C66	C	1.639361	0.829431	0.499968
C67	C	1.148280	0.416848	-0.000026
C68	C	1.648280	0.916848	0.499974
N69	N	1.119464	0.198539	-0.265563
N70	N	1.619464	0.698539	0.234437
C71	C	1.107484	0.208264	-0.474604
C72	C	1.607484	0.708264	0.025396
C73	C	1.161974	0.164061	-0.525486
C74	C	1.661974	0.664061	-0.025486
C75	C	1.155308	0.169472	-0.641804
C76	C	1.655308	0.669472	-0.141804
C77	C	1.114149	0.202854	-0.358276
C78	C	1.614149	0.702854	0.141724
N79	N	1.149997	0.173783	0.265479
N80	N	1.649997	0.673783	0.765479
H81	H	0.644567	0.278888	-0.000029
H82	H	1.144567	0.778888	0.499971
O83	O	1.290833	-0.052362	-0.000013
O84	O	1.790833	0.447638	0.499987
C85	C	1.361308	-0.109152	-0.000037
C86	C	1.861308	0.390848	0.499963
H87	H	1.331945	-0.168231	0.032228
H88	H	1.831945	0.331769	0.532228
H89	H	1.426782	-0.090047	0.049443
H90	H	1.926782	0.409953	0.549443
H91	H	1.382187	-0.115102	-0.081800
H92	H	1.882187	0.384898	0.418200
H93	H	0.624896	0.093435	0.000029
H94	H	1.124896	0.593435	0.500029
O95	O	1.008197	-0.329523	0.000106
O96	O	1.508197	0.170477	0.500106
C97	C	1.003266	-0.380929	0.088388
C98	C	1.503266	0.119071	0.588388
H99	H	1.078444	-0.397474	0.117818
H100	H	1.578444	0.102526	0.617818
H101	H	0.959805	-0.436364	0.068539
H102	H	1.459805	0.063636	0.568539
H103	H	0.967560	-0.350518	0.150192
H104	H	1.467560	0.149482	0.650192
H105	H	1.213631	0.122155	-0.481689
H106	H	1.713631	0.622155	0.018311
O107	O	1.274209	-0.214195	0.000134
O108	O	1.774209	0.285805	0.500134
C109	C	1.279581	-0.266022	0.088393
C110	C	1.779581	0.233978	0.588393
H111	H	1.236804	-0.242258	0.150087
H112	H	1.736804	0.257742	0.650087
H113	H	1.357327	-0.271260	0.118016
H114	H	1.857327	0.228740	0.618016
H115	H	1.248957	-0.326454	0.068447
H116	H	1.748957	0.173546	0.568447
O117	O	1.334710	-0.426718	-0.000009
O118	O	1.834710	0.073282	0.499991
C119	C	1.405189	-0.483505	-0.000041
C120	C	1.905189	0.016495	0.499959
H121	H	1.375836	-0.542583	0.032236
H122	H	1.875836	-0.042583	0.532236
H123	H	1.470669	-0.464393	0.049425
H124	H	1.970669	0.035607	0.549425
H125	H	1.426054	-0.489458	-0.081808
H126	H	1.926054	0.010542	0.418192
H127	H	1.305235	-0.581544	-0.000043
H128	H	1.805235	-0.081544	0.499957
O129	O	1.045918	0.258364	-0.526728
O130	O	1.545918	0.758364	-0.026728
C131	C	1.069341	0.336068	-0.500618
C132	C	1.569341	0.836068	-0.000618
H133	H	1.110471	0.334932	-0.422683
H134	H	1.610471	0.834932	0.077317
H135	H	1.001086	0.369699	-0.497089
H136	H	1.501086	0.869699	0.002911
H137	H	1.115405	0.366406	-0.560969
H138	H	1.615405	0.866406	-0.060969
H139	H	0.992874	-0.569503	-0.000031
H140	H	1.492874	-0.069503	0.499969
O141	O	1.261357	-0.298338	-0.000172
O142	O	1.761357	0.201662	0.499828
C143	C	1.306589	-0.316296	-0.088457
C144	C	1.806589	0.183704	0.411543
H145	H	1.274336	-0.373621	-0.117883
H146	H	1.774336	0.126379	0.382117
H147	H	1.386197	-0.323060	-0.068614
H148	H	1.886197	0.176940	0.431386
H149	H	1.295813	-0.266731	-0.150263
H150	H	1.795813	0.233269	0.349737
H151	H	0.949004	-0.195150	-0.000015
H152	H	1.449004	0.304850	0.499985
O153	O	0.995123	-0.413636	-0.000067
O154	O	1.495123	0.086364	0.499933
C155	C	0.913651	-0.464575	-0.000042
C156	C	1.413651	0.035425	0.499958
H157	H	0.931061	-0.522594	-0.032304
H158	H	1.431061	-0.022594	0.467696
H159	H	0.853023	-0.436223	-0.049525
H160	H	1.353023	0.063777	0.450475
H161	H	0.890987	-0.476096	0.081721
H162	H	1.390987	0.023904	0.581721
O163	O	0.951249	-0.039268	-0.000072
O164	O	1.451249	0.460732	0.499928
C165	C	0.869771	-0.090201	-0.000038
C166	C	1.369771	0.409799	0.499962
H167	H	0.887171	-0.148220	-0.032309
H168	H	1.387171	0.351780	0.467691
H169	H	0.809140	-0.061844	-0.049509
H170	H	1.309140	0.438156	0.450491
H171	H	0.847118	-0.101725	0.081729
H172	H	1.347118	0.398275	0.581729
