data_functionalizedCrystal
_audit_creation_method	'MofGen! by Chris Wilmer'
_symmetry_space_group_name_H-M	'P1'
_symmetry_Int_Tables_number	1
_symmetry_cell_setting	triclinic
loop_
_symmetry_equiv_pos_as_xyz
  x,y,z
_cell_length_a	8.497374
_cell_length_b	10.686220
_cell_length_c	10.686551
_cell_angle_alpha	89.692081
_cell_angle_beta	85.606337
_cell_angle_gamma	85.618062
loop_
_atom_site_label
_atom_site_type_symbol
_atom_site_fract_x
_atom_site_fract_y
_atom_site_fract_z
Zn1	Zn	0.384587	1.972367	0.562457
Zn2	Zn	0.670115	1.956197	0.352746
Zn3	Zn	0.424943	1.746494	0.368780
Zn4	Zn	0.666919	1.762627	0.578522
O5	O	0.536641	1.859421	0.465626
O6	O	0.406912	2.145761	0.521204
O7	O	0.655819	1.914861	0.179330
O8	O	0.198827	1.776473	0.394459
O9	O	0.616688	2.133881	0.367130
O10	O	0.169178	1.942421	0.536752
O11	O	0.475692	1.760793	0.191111
O12	O	0.472593	1.573096	0.410037
O13	O	0.611241	1.803968	0.751934
O14	O	0.650372	1.584948	0.564133
O15	O	0.403813	1.958064	0.740130
O16	O	0.890454	1.930504	0.382709
O17	O	0.888106	1.788288	0.548586
C18	C	0.565516	1.533507	0.490569
C19	C	0.577903	1.394081	0.501270
C20	C	0.946520	1.859407	0.465645
C21	C	1.125164	1.859439	0.465622
C22	C	0.502669	1.884619	0.792821
C23	C	0.488192	1.895357	0.932252
C24	C	0.507655	2.186609	0.440586
C25	C	0.495303	2.326037	0.429916
C26	C	0.570361	1.834394	0.139699
C27	C	0.584372	1.823899	0.000250
H28	H	0.415111	1.374451	0.360630
O29	O	0.695966	1.741091	0.942653
C30	C	0.782462	1.676789	1.033867
H31	H	0.773771	1.735276	1.123374
H32	H	0.911841	1.660522	0.996946
H33	H	0.731718	1.582574	1.055037
O34	O	0.376571	1.977974	0.990118
C35	C	0.273252	1.912336	1.071396
H36	H	0.276327	1.810526	1.039397
H37	H	0.147658	1.957832	1.069526
H38	H	0.312223	1.915573	1.170987
O39	O	0.673449	1.336143	0.583895
C40	C	0.664981	1.205163	0.576532
H41	H	0.548968	1.184219	0.536940
H42	H	0.670487	1.162536	0.674264
H43	H	0.768640	1.162819	0.512441
