data_functionalizedCrystal
_audit_creation_method	'MofGen! by Chris Wilmer'
_symmetry_space_group_name_H-M	'P1'
_symmetry_Int_Tables_number	1
_symmetry_cell_setting	triclinic
loop_
_symmetry_equiv_pos_as_xyz
  x,y,z
_cell_length_a	17.077402
_cell_length_b	21.295418
_cell_length_c	17.077396
_cell_angle_alpha	90.040468
_cell_angle_beta	89.969358
_cell_angle_gamma	89.956563
loop_
_atom_site_label
_atom_site_type_symbol
_atom_site_fract_x
_atom_site_fract_y
_atom_site_fract_z
Zn1	Zn	-0.312114	-0.962333	-0.444330
Zn2	Zn	0.187886	-0.462333	0.055670
Zn3	Zn	-0.443393	-0.962259	-0.313063
Zn4	Zn	0.056607	-0.462259	0.186937
Zn5	Zn	-0.312187	-0.857070	-0.313024
Zn6	Zn	0.187813	-0.357070	0.186976
Zn7	Zn	-0.443384	-0.857035	-0.444233
Zn8	Zn	0.056616	-0.357035	0.055767
O9	O	-0.377769	-0.909674	-0.378663
O10	O	0.122231	-0.409674	0.121337
O11	O	-0.329502	-1.050413	-0.426974
O12	O	0.170498	-0.550413	0.073026
O13	O	-0.426022	-0.948289	-0.203211
O14	O	0.073978	-0.448289	0.296789
O15	O	-0.202330	-0.871079	-0.330467
O16	O	0.297670	-0.371079	0.169533
O17	O	-0.425952	-1.050358	-0.330533
O18	O	0.074048	-0.550358	0.169467
O19	O	-0.202277	-0.948415	-0.426937
O20	O	0.297723	-0.448415	0.073063
O21	O	-0.329625	-0.871007	-0.203183
O22	O	0.170375	-0.371007	0.296817
O23	O	-0.329617	-0.768976	-0.330373
O24	O	0.170383	-0.268976	0.169627
O25	O	-0.425936	-0.871020	-0.554093
O26	O	0.074064	-0.371020	-0.054093
O27	O	-0.426007	-0.768950	-0.426771
O28	O	0.073993	-0.268950	0.073229
O29	O	-0.329493	-0.948382	-0.554164
O30	O	0.170507	-0.448382	-0.054164
O31	O	-0.553238	-0.948255	-0.330438
O32	O	-0.053238	-0.448255	0.169562
O33	O	-0.553232	-0.870948	-0.426808
O34	O	-0.053232	-0.370948	0.073192
C35	C	-0.581717	-0.909607	-0.378634
C36	C	-0.081717	-0.409607	0.121366
C37	C	-0.668967	-0.909636	-0.378648
C38	C	-0.168967	-0.409636	0.121352
C39	C	-0.377819	-0.746123	-0.378558
C40	C	0.122181	-0.246123	0.121442
C41	C	-0.377859	-0.676154	-0.378531
C42	C	0.122141	-0.176154	0.121469
C43	C	-1.044690	-0.950012	-0.428986
C44	C	-0.544690	-0.450012	0.071014
C45	C	-0.962709	-0.949984	-0.428967
C46	C	-0.462709	-0.449984	0.071033
C47	C	-0.921816	-0.909735	-0.378694
C48	C	-0.421816	-0.409735	0.121306
C49	C	-0.962907	-0.869516	-0.328431
C50	C	-0.462907	-0.369516	0.171569
C51	C	-1.044886	-0.869548	-0.328446
C52	C	-0.544886	-0.369548	0.171554
C53	C	-0.792037	-0.869451	-0.328404
C54	C	-0.292037	-0.369451	0.171596
C55	C	-0.710052	-0.869418	-0.328390
C56	C	-0.210052	-0.369418	0.171610
C57	C	-0.709861	-0.949887	-0.428926
C58	C	-0.209861	-0.449887	0.071074
C59	C	-0.791839	-0.949919	-0.428941
C60	C	-0.291839	-0.449919	0.071059
C61	C	-0.832925	-0.909699	-0.378678
C62	C	-0.332925	-0.409699	0.121322
C63	C	-0.428118	-0.643291	-0.428648
C64	C	0.071882	-0.143291	0.071352
C65	C	-0.428102	-0.577549	-0.428677
C66	C	0.071898	-0.077549	0.071323
C67	C	-0.377836	-0.544672	-0.378576
C68	C	0.122164	-0.044672	0.121424
C69	C	-0.327568	-0.577543	-0.328456
C70	C	0.172432	-0.077543	0.171544
C71	C	-0.327579	-0.643284	-0.328433
C72	C	0.172421	-0.143284	0.171567
N73	N	-0.371713	-0.441403	-0.309910
N74	N	0.128287	0.058597	0.190090
N75	N	-0.371706	-0.378951	-0.309933
N76	N	0.128294	0.121049	0.190067
C77	C	-0.377796	-0.346597	-0.378641
C78	C	0.122204	0.153403	0.121359
N79	N	-0.383908	-0.379054	-0.447327
N80	N	0.116092	0.120946	0.052673
N81	N	-0.383919	-0.441511	-0.447302
N82	N	0.116081	0.058489	0.052698
C83	C	-0.377817	-0.473387	-0.378595
C84	C	0.122183	0.026613	0.121405
C85	C	-0.428040	-0.242448	-0.428794
C86	C	0.071960	0.257552	0.071206
C87	C	-0.428018	-0.176705	-0.428825
C88	C	0.071982	0.323295	0.071175
C89	C	-0.327488	-0.176701	-0.328596
C90	C	0.172512	0.323299	0.171404
C91	C	-0.327506	-0.242443	-0.328573
C92	C	0.172494	0.257557	0.171427
C93	C	-0.377786	-0.275313	-0.378670
C94	C	0.122214	0.224687	0.121330
C95	C	-0.173025	-0.909759	-0.378709
C96	C	0.326975	-0.409759	0.121291
C97	C	-0.085775	-0.909795	-0.378728
C98	C	0.414225	-0.409795	0.121272
C99	C	-0.377706	-0.909705	-0.583407
C100	C	0.122294	-0.409705	-0.083407
C101	C	-0.377679	-0.909719	-0.670657
C102	C	0.122321	-0.409719	-0.170657
C103	C	-0.377733	-0.073865	-0.378746
C104	C	0.122267	0.426135	0.121254
C105	C	-0.377751	-0.143833	-0.378724
C106	C	0.122249	0.356167	0.121276
C107	C	-0.427781	-0.950016	-1.046489
C108	C	0.072219	-0.450016	-0.546489
C109	C	-0.427804	-0.950001	-0.964508
C110	C	0.072196	-0.450001	-0.464508
C111	C	-0.377623	-0.909759	-0.923506
C112	C	0.122377	-0.409759	-0.423506
C113	C	-0.327422	-0.869526	-0.964489
C114	C	0.172578	-0.369526	-0.464489
C115	C	-0.327404	-0.869540	-1.046468
C116	C	0.172596	-0.369540	-0.546468
C117	C	-0.327462	-0.869503	-0.793618
C118	C	0.172538	-0.369503	-0.293618
C119	C	-0.327480	-0.869490	-0.711634
C120	C	0.172520	-0.369490	-0.211634
C121	C	-0.427863	-0.949964	-0.711659
C122	C	0.072137	-0.449964	-0.211659
C123	C	-0.427844	-0.949977	-0.793638
C124	C	0.072156	-0.449977	-0.293638
C125	C	-0.377642	-0.909745	-0.834615
C126	C	0.122358	-0.409745	-0.334615
C127	C	-0.377776	-0.909679	-0.174715
C128	C	0.122224	-0.409679	0.325285
C129	C	-0.377582	-0.909788	-0.087465
C130	C	0.122418	-0.409788	0.412535
H131	H	-1.077980	-0.982782	-0.469932
H132	H	-0.577980	-0.482782	0.030068
H133	H	-0.286584	-0.269201	-0.287758
H134	H	0.213416	0.230799	0.212242
F135	F	-0.481628	-0.678270	-0.481969
F136	F	0.018372	-0.178270	0.018031
F137	F	-0.835761	-0.826647	-0.274906
F138	F	-0.335761	-0.326647	0.225094
H139	H	-0.286568	-0.836758	-0.931098
H140	H	0.213432	-0.336758	-0.431098
H141	H	-0.468739	-0.982722	-0.678291
H142	H	0.031261	-0.482722	-0.178291
F143	F	-0.666531	-0.826589	-0.274874
F144	F	-0.166531	-0.326589	0.225126
H145	H	-0.929606	-0.836747	-0.287494
H146	H	-0.429606	-0.336747	0.212506
H147	H	-0.286557	-0.149933	-0.287807
H148	H	0.213443	0.350067	0.212193
F149	F	-0.273972	-0.826726	-1.090078
F150	F	0.226028	-0.326726	-0.590078
H151	H	-1.078336	-0.836799	-0.287521
H152	H	-0.578336	-0.336799	0.212479
F153	F	-0.274068	-0.542553	-0.275138
F154	F	0.225932	-0.042553	0.224862
H155	H	-0.286650	-0.670041	-0.287622
H156	H	0.213350	-0.170041	0.212378
F157	F	-0.481548	-0.277433	-0.482115
F158	F	0.018452	0.222567	0.017885
H159	H	-0.286616	-0.836724	-0.678252
H160	H	0.213384	-0.336724	-0.178252
H161	H	-0.469028	-0.550786	-0.469491
H162	H	0.030972	-0.050786	0.030509
H163	H	-0.286582	-0.836742	-0.826979
H164	H	0.213418	-0.336742	-0.326979
H165	H	-0.468943	-0.149948	-0.469641
H166	H	0.031057	0.350052	0.030359
H167	H	-0.929258	-0.982732	-0.469891
H168	H	-0.429258	-0.482732	0.030109
F169	F	-0.481186	-0.992851	-1.090119
F170	F	0.018814	-0.492851	-0.590119
F171	F	-0.481250	-0.992808	-0.837274
F172	F	0.018750	-0.492808	-0.337274
F173	F	-0.835360	-0.992750	-0.482455
F174	F	-0.335360	-0.492750	0.017545
F175	F	-0.481231	-0.992818	-0.920901
F176	F	0.018769	-0.492818	-0.420901
F177	F	-0.666134	-0.992696	-0.482415
F178	F	-0.166134	-0.492696	0.017585
