data_functionalizedCrystal
_audit_creation_method	'MofGen! by Chris Wilmer'
_symmetry_space_group_name_H-M	'P1'
_symmetry_Int_Tables_number	1
_symmetry_cell_setting	triclinic
loop_
_symmetry_equiv_pos_as_xyz
  x,y,z
_cell_length_a	14.472311
_cell_length_b	11.792241
_cell_length_c	11.792241
_cell_angle_alpha	95.806584
_cell_angle_beta	90.009809
_cell_angle_gamma	90.000108
loop_
_atom_site_label
_atom_site_type_symbol
_atom_site_fract_x
_atom_site_fract_y
_atom_site_fract_z
O1	O	0.076752	-1.506907	0.155576
O2	O	0.076773	-1.176566	0.171609
O3	O	0.076755	-1.349753	-0.001578
O4	O	0.076769	-1.333720	0.328763
O5	O	-0.076927	-1.349741	-0.001600
O6	O	-0.076909	-1.176554	0.171587
O7	O	-0.076930	-1.506895	0.155554
Cu8	Cu	-0.090952	-1.341724	0.163569
Cu9	Cu	0.090795	-1.341738	0.163595
O10	O	-0.076913	-1.333708	0.328741
C11	C	-0.000065	-1.134269	0.170591
C12	C	-0.000057	-1.008255	0.167576
C13	C	-0.000085	-1.348740	-0.043880
C14	C	-0.000084	-1.345726	-0.169894
N15	N	-0.218783	-1.341722	0.163550
C16	C	-0.592874	-1.341739	0.163586
C17	C	-0.553689	-1.434712	0.071231
C18	C	-0.446601	-1.434466	0.070887
C19	C	-0.407283	-1.341731	0.163568
C20	C	-0.446167	-1.223154	0.136974
C21	C	-0.553289	-1.223704	0.136320
C22	C	-0.553376	-1.366277	0.282803
C23	C	-0.446248	-1.368961	0.282022
C24	C	-0.302395	-1.341720	0.163560
C25	C	-0.697762	-1.341743	0.163592
N26	N	0.218626	-1.341749	0.163604
C27	C	-0.000090	-1.549192	0.156572
C28	C	-0.000092	-1.675206	0.159587
C29	C	-0.000084	-0.777543	0.162034
C30	C	-0.000069	-0.905928	0.165113
C31	C	-0.000068	-1.340183	-0.400606
C32	C	-0.000077	-1.343262	-0.272221
C33	C	-0.000070	-1.334721	0.371043
C34	C	-0.000065	-1.337736	0.497057
H35	H	-0.420311	-1.522586	0.086830
H36	H	-0.420986	-1.418713	-0.017570
C37	C	-0.645558	-1.545579	0.188746
C38	C	-0.588462	-1.554073	0.092410
H39	H	-0.667034	-1.619269	0.201816
H40	H	-0.611560	-1.513761	0.253167
H41	H	-0.696811	-1.497957	0.176580
H42	H	-0.537205	-1.601688	0.104579
H43	H	-0.622461	-1.585907	0.027974
H44	H	-0.419481	-1.305688	0.354024
H45	H	-0.580622	-1.419184	-0.016724
H46	H	-0.578286	-1.202188	0.049354
H47	H	-0.420700	-1.152272	0.202420
C48	C	-0.313314	-1.188650	0.023465
C49	C	-0.409975	-1.193419	0.020900
H50	H	-0.290974	-1.170304	-0.048200
H51	H	-0.294003	-1.131866	0.081508
H52	H	-0.289412	-1.260556	0.038807
H53	H	-0.433878	-1.121510	0.005565
H54	H	-0.429295	-1.250206	-0.037161
C55	C	-0.641921	-1.051282	0.167839
C56	C	-0.588303	-1.127449	0.223606
H57	H	-0.663540	-0.991861	0.221721
H58	H	-0.605452	-1.019732	0.111884
H59	H	-0.693144	-1.090598	0.132108
H60	H	-0.537075	-1.088134	0.259330
H61	H	-0.624773	-1.159000	0.279582
H62	H	-0.580389	-1.450934	0.308183
H63	H	-0.578721	-1.298488	0.351541
H64	H	-0.420834	-1.456194	0.302185
