data_functionalizedCrystal
_audit_creation_method	'MofGen! by Chris Wilmer'
_symmetry_space_group_name_H-M	'P1'
_symmetry_Int_Tables_number	1
_symmetry_cell_setting	triclinic
loop_
_symmetry_equiv_pos_as_xyz
  x,y,z
_cell_length_a	23.532407
_cell_length_b	23.532407
_cell_length_c	22.610064
_cell_angle_alpha	89.994501
_cell_angle_beta	89.988412
_cell_angle_gamma	97.151289
loop_
_atom_site_label
_atom_site_type_symbol
_atom_site_fract_x
_atom_site_fract_y
_atom_site_fract_z
O1	O	-0.069127	0.755263	-0.049138
O2	O	0.430873	1.255263	0.450862
O3	O	-0.079131	0.589400	-0.049146
O4	O	0.420869	1.089400	0.450854
O5	O	0.008803	0.677333	-0.049149
O6	O	0.508803	1.177333	0.450851
O7	O	-0.157061	0.667330	-0.049135
O8	O	0.342939	1.167330	0.450865
O9	O	0.008790	0.677318	0.049220
O10	O	0.508790	1.177318	0.549220
O11	O	-0.079143	0.589385	0.049223
O12	O	0.420857	1.089385	0.549223
O13	O	-0.069140	0.755248	0.049231
O14	O	0.430860	1.255248	0.549231
Zn15	Zn	-0.074144	0.672314	0.064846
Zn16	Zn	0.425856	1.172314	0.564846
Zn17	Zn	-0.074127	0.672334	-0.064760
Zn18	Zn	0.425873	1.172334	0.435240
O19	O	-0.157074	0.667315	0.049235
O20	O	0.342926	1.167315	0.549235
C21	C	-0.078882	0.568176	0.000038
C22	C	0.421118	1.068176	0.500038
C23	C	-0.078116	0.504959	0.000034
C24	C	0.421884	1.004959	0.500034
C25	C	-0.022921	0.238792	0.000045
C26	C	0.477079	0.738792	0.500045
C27	C	-0.023632	0.298192	0.000045
C28	C	0.476368	0.798192	0.500045
O29	O	0.020153	0.334937	0.000062
O30	O	0.520153	0.834937	0.500062
N31	N	-0.075909	0.320818	0.000046
N32	N	0.424091	0.820818	0.500046
C33	C	-0.127477	0.284041	0.000052
C34	C	0.372523	0.784041	0.500052
O35	O	-0.172007	0.308740	0.000053
O36	O	0.327993	0.808740	0.500053
C37	C	-0.126765	0.224642	0.000057
C38	C	0.373235	0.724642	0.500057
C39	C	-0.074485	0.202019	0.000050
C40	C	0.425515	0.702019	0.500050
C41	C	0.029354	0.216168	0.000039
C42	C	0.529354	0.716168	0.500039
C43	C	0.030066	0.156772	0.000038
C44	C	0.530066	0.656772	0.500038
C45	C	-0.021499	0.119999	0.000043
C46	C	0.478501	0.619999	0.500043
C47	C	-0.073774	0.142623	0.000049
C48	C	0.426226	0.642623	0.500049
C49	C	-0.178333	0.187865	0.000068
C50	C	0.321667	0.687865	0.500068
C51	C	-0.177616	0.128463	0.000072
C52	C	0.322384	0.628463	0.500072
C53	C	-0.125336	0.105840	0.000066
C54	C	0.374664	0.605840	0.500066
C55	C	-0.124627	0.046454	0.000053
C56	C	0.375373	0.546454	0.500053
N57	N	-0.072351	0.023828	0.000052
N58	N	0.427649	0.523828	0.500052
C59	C	-0.020787	0.060600	0.000048
C60	C	0.479213	0.560600	0.500048
C61	C	-0.128968	0.408783	0.000044
C62	C	0.371032	0.908783	0.500044
C63	C	-0.129681	0.468181	0.000036
C64	C	0.370319	0.968181	0.500036
C65	C	-0.025836	0.482328	0.000030
C66	C	0.474164	0.982328	0.500030
C67	C	-0.025124	0.422929	0.000034
C68	C	0.474876	0.922929	0.500034
C69	C	-0.076692	0.386157	0.000044
C70	C	0.423308	0.886157	0.500044
C71	C	-0.019297	-0.064136	0.000045
C72	C	0.480703	0.435864	0.500045
C73	C	-0.018590	-0.123538	0.000041
C74	C	0.481410	0.376462	0.500041
C75	C	-0.122435	-0.137680	0.000051
C76	C	0.377565	0.362320	0.500051
C77	C	-0.123142	-0.078284	0.000051
C78	C	0.376858	0.421716	0.500051
C79	C	-0.071568	-0.041512	0.000050
C80	C	0.428432	0.458488	0.500050
O81	O	-0.168390	0.009675	0.000039
O82	O	0.331610	0.509675	0.500039
O83	O	0.023737	0.035892	0.000054
O84	O	0.523737	0.535892	0.500054
C85	C	-0.178283	0.667577	0.000052
C86	C	0.321717	1.167577	0.500052
C87	C	-0.241500	0.668343	0.000057
C88	C	0.258500	1.168343	0.500057
C89	C	-0.640603	0.621110	0.000025
C90	C	-0.140603	1.121110	0.500025
C91	C	-0.700004	0.621821	0.000021
C92	C	-0.200004	1.121821	0.500021
O93	O	-0.736748	0.578035	-0.000003
O94	O	-0.236748	1.078035	0.499997
N95	N	-0.722630	0.674097	0.000024
N96	N	-0.222630	1.174097	0.500024
C97	C	-0.685852	0.725666	0.000025
C98	C	-0.185852	1.225666	0.500025
O99	O	-0.710552	0.770196	0.000027
O100	O	-0.210552	1.270196	0.500027
C101	C	-0.626453	0.724953	0.000025
C102	C	-0.126453	1.224953	0.500025
C103	C	-0.603830	0.672674	0.000028
C104	C	-0.103830	1.172674	0.500028
C105	C	-0.617980	0.568834	0.000027
C106	C	-0.117980	1.068834	0.500027
C107	C	-0.558584	0.568123	0.000032
C108	C	-0.058584	1.068123	0.500032
C109	C	-0.521811	0.619687	0.000035
C110	C	-0.021811	1.119687	0.500035
C111	C	-0.544434	0.671963	0.000033
C112	C	-0.044434	1.171963	0.500033
C113	C	-0.589677	0.776521	0.000022
C114	C	-0.089677	1.276521	0.500022
C115	C	-0.530274	0.775804	0.000022
C116	C	-0.030274	1.275804	0.500022
C117	C	-0.507652	0.723525	0.000025
C118	C	-0.007652	1.223525	0.500025
C119	C	-0.448265	0.722816	0.000042
C120	C	0.051735	1.222816	0.500042
N121	N	-0.425639	0.670539	0.000038
N122	N	0.074361	1.170539	0.500038
C123	C	-0.462412	0.618975	0.000035
C124	C	0.037588	1.118975	0.500035
C125	C	-0.810595	0.727157	0.000025
C126	C	-0.310595	1.227157	0.500025
C127	C	-0.869993	0.727870	0.000029
C128	C	-0.369993	1.227870	0.500029
C129	C	-0.884140	0.624025	0.000023
C130	C	-0.384140	1.124025	0.500023
C131	C	-0.824741	0.623313	0.000023
C132	C	-0.324741	1.123313	0.500023
C133	C	-0.787969	0.674881	0.000021
C134	C	-0.287969	1.174881	0.500021
C135	C	-0.337675	0.617485	0.000047
C136	C	0.162325	1.117485	0.500047
C137	C	-0.278273	0.616779	0.000054
C138	C	0.221727	1.116779	0.500054
C139	C	-0.264131	0.720623	0.000057
C140	C	0.235869	1.220623	0.500057
C141	C	-0.323528	0.721330	0.000052
C142	C	0.176472	1.221330	0.500052
C143	C	-0.360299	0.669757	0.000045
C144	C	0.139701	1.169757	0.500045
O145	O	-0.411486	0.766578	0.000063
O146	O	0.088514	1.266578	0.500063
O147	O	-0.437704	0.574452	0.000026
O148	O	0.062296	1.074452	0.500026
C149	C	0.030012	0.677071	0.000032
C150	C	0.530012	1.177071	0.500032
C151	C	0.093229	0.676305	0.000023
C152	C	0.593229	1.176305	0.500023
C153	C	-0.069389	0.776472	0.000047
C154	C	0.430611	1.276472	0.500047
C155	C	-0.070155	0.839689	0.000046
C156	C	0.429845	1.339689	0.500046
N157	N	-0.074155	0.672304	0.153298
N158	N	0.425845	1.172304	0.653298
N159	N	-0.074111	0.672349	-0.153213
N160	N	0.425889	1.172349	0.346787
C161	C	-0.035196	0.711273	0.561938
C162	C	0.464804	1.211273	1.061938
C163	C	-0.035192	0.711276	0.623858
C164	C	0.464808	1.211276	1.123858
O165	O	-0.002076	0.744384	0.655875
O166	O	0.497924	1.244384	1.155875
N167	N	-0.074115	0.672334	0.654835
N168	N	0.425885	1.172334	1.154835
C169	C	-0.113041	0.633383	0.623889
C170	C	0.386959	1.133383	1.123889
O171	O	-0.146148	0.600259	0.655924
O172	O	0.353852	1.100259	1.155924
C173	C	-0.113042	0.633377	0.561971
C174	C	0.386958	1.133377	1.061971
C175	C	-0.074120	0.672326	0.530996
C176	C	0.425880	1.172326	1.030996
C177	C	0.003723	0.750217	0.530964
C178	C	0.503723	1.250217	1.030964
C179	C	0.003718	0.750215	0.469048
C180	C	0.503718	1.250215	0.969048
C181	C	-0.035206	0.711268	0.438107
C182	C	0.464794	1.211268	0.938107
C183	C	-0.074125	0.672323	0.469081
C184	C	0.425875	1.172323	0.969081
C185	C	-0.151965	0.594424	0.531026
C186	C	0.348035	1.094424	1.031026
C187	C	-0.151963	0.594422	0.469103
C188	C	0.348037	1.094422	0.969103
C189	C	-0.113041	0.633370	0.438129
C190	C	0.386959	1.133370	0.938129
C191	C	-0.113055	0.633374	0.376224
C192	C	0.386945	1.133374	0.876224
N193	N	-0.074131	0.672316	0.345246
N194	N	0.425869	1.172316	0.845246
C195	C	-0.035207	0.711263	0.376188
C196	C	0.464793	1.211263	0.876188
C197	C	-0.113036	0.633396	0.753923
C198	C	0.386964	1.133396	1.253923
C199	C	-0.113038	0.633403	0.815841
C200	C	0.386962	1.133403	1.315841
C201	C	-0.035188	0.711296	0.815805
C202	C	0.464812	1.211296	1.315805
C203	C	-0.035189	0.711291	0.753886
C204	C	0.464811	1.211291	1.253886
C205	C	-0.074112	0.672338	0.722946
C206	C	0.425888	1.172338	1.222946
C207	C	-0.035221	0.711255	0.246161
C208	C	0.464779	1.211255	0.746161
C209	C	-0.035231	0.711251	0.184239
C210	C	0.464769	1.211251	0.684239
C211	C	-0.113079	0.633357	0.184281
C212	C	0.386921	1.133357	0.684281
C213	C	-0.113071	0.633363	0.246196
C214	C	0.386929	1.133363	0.746196
C215	C	-0.074137	0.672314	0.277135
C216	C	0.425863	1.172314	0.777135
O217	O	-0.146152	0.600281	0.344167
O218	O	0.353848	1.100281	0.844167
O219	O	-0.002101	0.744376	0.344146
O220	O	0.497899	1.244376	0.844146
H221	H	-0.172252	0.486595	0.000033
H222	H	0.327748	0.986595	0.500033
F223	F	-0.534515	0.512479	0.000030
F224	F	-0.034515	1.012479	0.500030
H225	H	-0.164417	-0.167631	0.000052
H226	H	0.335583	0.332369	0.500052
H227	H	-0.165712	-0.059864	0.000056
H228	H	0.334288	0.440136	0.500056
H229	H	-0.259858	0.574205	0.000059
H230	H	0.240142	1.074205	0.500059
H231	H	-0.367608	0.575489	0.000041
H232	H	0.132392	1.075489	0.500041
F233	F	-0.232503	0.089330	0.000085
F234	F	0.267497	0.589330	0.500085
F235	F	0.029043	0.521475	0.000024
F236	F	0.529043	1.021475	0.500024
F237	F	0.006240	0.752746	0.848747
F238	F	0.506240	1.252746	1.348747
H239	H	-0.647915	0.526842	0.000022
H240	H	-0.147915	1.026842	0.500022
F241	F	0.037055	-0.147611	0.000031
F242	F	0.537055	0.352389	0.500031
F243	F	0.045156	0.791673	0.563886
F244	F	0.545156	1.291673	1.063886
F245	F	0.006196	0.752708	0.151278
F246	F	0.506196	1.252708	0.651278
F247	F	0.085709	0.132703	0.000027
F248	F	0.585709	0.632703	0.500027
F249	F	-0.183858	0.369651	0.000048
F250	F	0.316142	0.869651	0.500048
F251	F	-0.193390	0.552969	0.563980
F252	F	0.306610	1.052969	1.063980
F253	F	-0.800670	0.567670	0.000025
F254	F	-0.300670	1.067670	0.500025
H255	H	-0.144737	0.601677	0.728734
H256	H	0.355263	1.101677	1.228734
H257	H	-0.003517	0.742972	0.271344
H258	H	0.496483	1.242972	0.771344
H259	H	-0.003495	0.743005	0.728671
H260	H	0.496505	1.243005	1.228671
H261	H	-0.144772	0.601648	0.159078
H262	H	0.355228	1.101648	0.659078
F263	F	-0.923287	0.569145	0.000020
F264	F	-0.423287	1.069145	0.500020
F265	F	-0.193391	0.552960	0.436178
F266	F	0.306609	1.052960	0.936178
H267	H	-0.144770	0.601653	0.271416
H268	H	0.355230	1.101653	0.771416
F269	F	0.035594	-0.025010	0.000044
F270	F	0.535594	0.474990	0.500044
H271	H	0.071347	0.246104	0.000037
H272	H	0.571347	0.746104	0.500037
F273	F	0.030518	0.398858	0.000029
F274	F	0.530518	0.898858	0.500029
H275	H	-0.780657	0.769152	0.000027
H276	H	-0.280657	1.269152	0.500027
H277	H	0.035413	0.781929	0.443833
H278	H	0.535413	1.281929	0.943833
F279	F	-0.233977	0.211929	0.000074
F280	F	0.266023	0.711929	0.500074
F281	F	-0.613740	0.832165	0.000009
F282	F	-0.113740	1.332165	0.500009
F283	F	-0.894062	0.783513	0.000035
F284	F	-0.394062	1.283513	0.500035
H285	H	-0.500336	0.817798	0.000017
H286	H	-0.000336	1.317798	0.500017
F287	F	-0.347605	0.776972	0.000068
F288	F	0.152395	1.276972	0.500068
H289	H	-0.234180	0.762605	0.000062
H290	H	0.265820	1.262605	0.500062
F291	F	-0.154471	0.591956	0.848799
F292	F	0.345529	1.091956	1.348799
