data_functionalizedCrystal
_audit_creation_method	'MofGen! by Chris Wilmer'
_symmetry_space_group_name_H-M	'P1'
_symmetry_Int_Tables_number	1
_symmetry_cell_setting	triclinic
loop_
_symmetry_equiv_pos_as_xyz
  x,y,z
_cell_length_a	14.519731
_cell_length_b	15.995292
_cell_length_c	12.996460
_cell_angle_alpha	89.997047
_cell_angle_beta	89.994327
_cell_angle_gamma	83.578735
loop_
_atom_site_label
_atom_site_type_symbol
_atom_site_fract_x
_atom_site_fract_y
_atom_site_fract_z
O1	O	1.223632	0.109848	-0.085562
O2	O	1.723632	0.609848	0.414438
O3	O	0.955131	0.122755	-0.085562
O4	O	1.455131	0.622755	0.414438
O5	O	1.096749	-0.005578	-0.085563
O6	O	1.596749	0.494422	0.414437
O7	O	1.082014	0.238181	-0.085560
O8	O	1.582014	0.738181	0.414440
O9	O	1.096734	-0.005585	0.085570
O10	O	1.596734	0.494415	0.585570
O11	O	0.955117	0.122748	0.085572
O12	O	1.455117	0.622748	0.585572
O13	O	1.223617	0.109841	0.085572
O14	O	1.723617	0.609841	0.585572
Cu15	Cu	1.089366	0.116294	0.101198
Cu16	Cu	1.589366	0.616294	0.601198
Cu17	Cu	1.089383	0.116302	-0.101188
Cu18	Cu	1.589383	0.616302	0.398812
O19	O	1.081999	0.238174	0.085573
O20	O	1.581999	0.738174	0.585573
C21	C	0.920766	0.122147	0.000004
C22	C	1.420766	0.622147	0.500004
C23	C	0.818389	0.120335	0.000004
C24	C	1.318389	0.620335	0.500004
C25	C	0.735248	0.118862	-0.000000
C26	C	1.235248	0.618862	0.500000
C27	C	0.630943	0.117022	-0.000001
C28	C	1.130943	0.617022	0.499999
C29	C	0.547807	0.115562	-0.000001
C30	C	1.047807	0.615562	0.499999
C31	C	0.443495	0.113722	-0.000003
C32	C	0.943495	0.613722	0.499997
C33	C	1.096142	-0.036778	0.000001
C34	C	1.596142	0.463222	0.500001
C35	C	1.094344	-0.129734	-0.000007
C36	C	1.594344	0.370266	0.499993
C37	C	1.087734	-0.467482	0.000003
C38	C	1.587734	0.032518	0.500003
C39	C	1.189950	-0.444010	0.000385
C40	C	1.689950	0.055990	0.500385
C41	C	1.191893	-0.347331	-0.000004
C42	C	1.691893	0.152669	0.499996
C43	C	1.091014	-0.299921	-0.000002
C44	C	1.591014	0.200079	0.499998
C45	C	1.039919	-0.329098	-0.097724
C46	C	1.539919	0.170902	0.402276
C47	C	1.038689	-0.425891	-0.097802
C48	C	1.538689	0.074109	0.402198
C49	C	1.036585	-0.425759	0.096809
C50	C	1.536585	0.074241	0.596809
C51	C	1.040373	-0.329261	0.098097
C52	C	1.540373	0.170739	0.598097
C53	C	1.092862	-0.205222	-0.000007
C54	C	1.592862	0.294778	0.499993
C55	C	1.085883	-0.562181	0.000001
C56	C	1.585883	-0.062181	0.500001
C57	C	1.257983	0.110449	0.000003
C58	C	1.757983	0.610449	0.500003
C59	C	1.360359	0.112261	-0.000003
C60	C	1.860359	0.612261	0.499997
C61	C	1.082606	0.269374	0.000007
C62	C	1.582606	0.769374	0.500007
C63	C	1.084404	0.362330	0.000008
C64	C	1.584404	0.862330	0.500008
N65	N	1.089360	0.116287	0.243545
N66	N	1.589360	0.616287	0.743545
N67	N	1.089396	0.116302	-0.243535
N68	N	1.589396	0.616302	0.256465
C69	C	1.089382	0.116303	0.663359
C70	C	1.589382	0.616303	1.163359
C71	C	1.089373	0.116302	0.546554
C72	C	1.589373	0.616302	1.046554
C73	C	1.089371	0.116296	0.453456
C74	C	1.589371	0.616296	0.953456
C75	C	1.089362	0.116293	0.336643
C76	C	1.589362	0.616293	0.836643
H77	H	1.231910	-0.328246	0.070046
H78	H	1.731910	0.171754	0.570046
H79	H	1.229343	-0.471948	0.070466
H80	H	1.729343	0.028052	0.570466
H81	H	1.229136	-0.472963	-0.069303
H82	H	1.729136	0.027037	0.430697
C83	C	1.079839	-0.463866	0.196875
C84	C	1.579839	0.036134	0.696875
N85	N	1.112429	-0.492567	0.272240
N86	N	1.612429	0.007433	0.772240
H87	H	0.965686	-0.297347	-0.101355
H88	H	1.465686	0.202653	0.398645
C89	C	1.246285	-0.322374	-0.094810
C90	C	1.746285	0.177626	0.405190
N91	N	1.287253	-0.303578	-0.166223
N92	N	1.787253	0.196422	0.333777
C93	C	0.940895	-0.284881	0.106072
C94	C	1.440895	0.215119	0.606072
N95	N	0.865964	-0.251455	0.112070
N96	N	1.365964	0.248545	0.612070
C97	C	1.090612	-0.304076	0.195767
C98	C	1.590612	0.195924	0.695767
N99	N	1.128447	-0.285093	0.269330
N100	N	1.628447	0.214907	0.769330
H101	H	1.075413	-0.308979	-0.170451
H102	H	1.575413	0.191021	0.329549
H103	H	0.963744	-0.440558	-0.102228
H104	H	1.463744	0.059442	0.397772
C105	C	1.086524	-0.462043	-0.196483
C106	C	1.586524	0.037957	0.303517
N107	N	1.122560	-0.489270	-0.270809
N108	N	1.622560	0.010730	0.229191
C109	C	0.934946	-0.444832	0.097712
C110	C	1.434946	0.055168	0.597712
N111	N	0.858395	-0.459207	0.098388
N112	N	1.358395	0.040793	0.598388
