data_functionalizedCrystal
_audit_creation_method	'MofGen! by Chris Wilmer'
_symmetry_space_group_name_H-M	'P1'
_symmetry_Int_Tables_number	1
_symmetry_cell_setting	triclinic
loop_
_symmetry_equiv_pos_as_xyz
  x,y,z
_cell_length_a	29.839134
_cell_length_b	19.077114
_cell_length_c	19.076919
_cell_angle_alpha	85.527261
_cell_angle_beta	92.271451
_cell_angle_gamma	87.676355
loop_
_atom_site_label
_atom_site_type_symbol
_atom_site_fract_x
_atom_site_fract_y
_atom_site_fract_z
Zn1	Zn	0.668652	0.296785	-0.410043
Zn2	Zn	0.668595	0.409938	-0.296892
Zn3	Zn	0.596674	0.292058	-0.292153
Zn4	Zn	0.590358	0.414623	-0.414714
O5	O	0.631070	0.353351	-0.353450
O6	O	0.731511	0.311812	-0.395062
O7	O	0.661674	0.390362	-0.197617
O8	O	0.608889	0.194036	-0.303853
O9	O	0.731469	0.394945	-0.311930
O10	O	0.661772	0.197508	-0.390467
O11	O	0.608834	0.303756	-0.194135
O12	O	0.532970	0.308299	-0.308383
O13	O	0.598124	0.402930	-0.512741
O14	O	0.528330	0.398347	-0.398428
O15	O	0.655647	0.316355	-0.509309
O16	O	0.655549	0.509208	-0.316459
O17	O	0.598069	0.512650	-0.403023
C18	C	0.514349	0.353319	-0.353398
C19	C	0.464415	0.353323	-0.353394
C20	C	0.626129	0.536509	-0.360777
C21	C	0.624056	0.614865	-0.363935
C22	C	0.626188	0.360692	-0.537318
C23	C	0.624107	0.363821	-0.615672
C24	C	0.152362	0.400303	-0.400284
C25	C	-0.035312	0.400324	-0.400316
O26	O	-0.061624	0.440234	-0.440153
N27	N	-0.056375	0.353379	-0.353505
C28	C	-0.030515	0.306421	-0.306684
O29	O	-0.052736	0.266487	-0.266874
C30	C	0.157158	0.306397	-0.306656
C31	C	0.178218	0.353351	-0.353466
C32	C	0.173422	0.447252	-0.447091
C33	C	0.220338	0.447249	-0.447080
C34	C	0.246194	0.400297	-0.400262
C35	C	0.225134	0.353348	-0.353455
C36	C	0.183017	0.259437	-0.259840
C37	C	0.229938	0.259434	-0.259838
C38	C	0.250998	0.306388	-0.306649
C39	C	0.297906	0.306392	-0.306626
N40	N	0.318968	0.353338	-0.353438
C41	C	0.293112	0.400290	-0.400256
C42	C	-0.129047	0.306438	-0.306702
C43	C	-0.175965	0.306445	-0.306708
C44	C	-0.180759	0.400347	-0.400341
C45	C	-0.133840	0.400343	-0.400331
C46	C	-0.107984	0.353384	-0.353514
C47	C	0.391639	0.400280	-0.400229
C48	C	0.438559	0.400275	-0.400212
C49	C	0.443349	0.306371	-0.306581
C50	C	0.396433	0.306378	-0.306596
C51	C	0.370579	0.353336	-0.353425
O52	O	0.324245	0.266498	-0.266816
O53	O	0.315341	0.440208	-0.440071
C54	C	0.105446	0.400306	-0.400295
C55	C	0.084386	0.353357	-0.353489
C56	C	0.110242	0.306405	-0.306671
C57	C	0.037468	0.353364	-0.353495
C58	C	0.011612	0.400316	-0.400313
C59	C	0.032675	0.447262	-0.447125
C60	C	0.079590	0.447259	-0.447113
C61	C	0.089180	0.259459	-0.259859
C62	C	0.042264	0.259467	-0.259873
C63	C	0.016408	0.306419	-0.306691
C64	C	0.748246	0.353383	-0.353503
C65	C	0.798179	0.353397	-0.353526
C66	C	0.653030	0.649864	-0.320387
C67	C	0.651083	0.723488	-0.323362
C68	C	0.620159	0.762113	-0.369881
C69	C	0.591183	0.727110	-0.413434
C70	C	0.593133	0.653487	-0.410462
C71	C	0.611118	0.982498	-0.383600
C72	C	0.609170	1.056126	-0.386567
C73	C	0.669070	1.052499	-0.296495
C74	C	0.671016	0.978875	-0.293525
C75	C	0.642041	0.943878	-0.337080
N76	N	0.618167	0.837369	-0.372921
N77	N	0.644036	0.868623	-0.334043
C78	C	0.636037	1.169479	-0.346120
C79	C	0.638144	1.091124	-0.343019
C80	C	0.653077	0.320217	-0.650697
C81	C	0.651117	0.323154	-0.724318
C82	C	0.620188	0.369699	-0.762913
C83	C	0.591215	0.413304	-0.727883
C84	C	0.593174	0.410363	-0.654263
C85	C	0.611118	0.383324	-0.983285
C86	C	0.609163	0.386263	-1.056910
C87	C	0.669064	0.296113	-1.053340
C88	C	0.671022	0.293179	-0.979719
C89	C	0.642047	0.336781	-0.944695
N90	N	0.618185	0.372703	-0.838166
N91	N	0.644048	0.333773	-0.869443
C92	C	0.635960	0.345987	-0.170296
C93	C	0.638133	0.342660	-0.091935
H94	H	0.370594	0.438516	-0.438363
H95	H	0.678210	0.618420	-0.282503
O96	O	0.697160	0.253782	-1.087472
C97	C	0.688809	0.266368	-1.160728
H98	H	0.653248	0.289849	-1.171686
H99	H	0.713886	0.304748	-1.183133
C100	C	0.737523	0.167709	-1.182219
C101	C	0.693845	0.196544	-1.195679
H102	H	0.740632	0.124640	-1.203780
H103	H	0.743151	0.159231	-1.132866
H104	H	0.758416	0.199699	-1.200891
H105	H	0.672954	0.164558	-1.177000
H106	H	0.688214	0.205015	-1.245030
H107	H	0.692660	1.081002	-0.261036
H108	H	0.583992	1.087573	-0.424460
H109	H	0.152375	0.485487	-0.485220
H110	H	0.696208	0.255280	-0.948300
H111	H	0.569540	0.624992	-0.445925
O112	O	0.240814	0.492922	-0.492461
C113	C	0.267800	0.536780	-0.454081
H114	H	0.255011	0.538841	-0.398724
H115	H	0.304008	0.514882	-0.450816
C116	C	0.281347	0.608952	-0.559336
C117	C	0.265638	0.611488	-0.491348
H118	H	0.280016	0.655034	-0.582325
H119	H	0.263168	0.579403	-0.585194
H120	H	0.311519	0.590701	-0.556605
H121	H	0.235465	0.629730	-0.494080
H122	H	0.283812	0.641042	-0.465491
H123	H	0.566031	0.451198	-0.759313
H124	H	0.583976	0.424167	-1.088332
O125	O	-0.113456	0.445975	-0.445873
C126	C	-0.146344	0.487427	-0.487179
H127	H	-0.179077	0.458658	-0.488510
H128	H	-0.152089	0.539894	-0.463418
C129	C	-0.090086	0.536032	-0.560967
C130	C	-0.130289	0.500694	-0.562606
H131	H	-0.080182	0.544219	-0.607493
H132	H	-0.067928	0.508107	-0.533137
H133	H	-0.094879	0.579750	-0.541162
H134	H	-0.125493	0.456974	-0.582402
H135	H	-0.152445	0.528613	-0.590441
H136	H	-0.107999	0.268197	-0.268574
O137	O	0.468403	0.260741	-0.261034
C138	C	0.439758	0.219286	-0.219728
H139	H	0.405600	0.248054	-0.218397
H140	H	0.435529	0.166820	-0.243491
C141	C	0.502276	0.170683	-0.145942
C142	C	0.460323	0.206019	-0.144302
H143	H	0.514962	0.162496	-0.099416
H144	H	0.521575	0.198609	-0.173771
H145	H	0.498746	0.126965	-0.165747
H146	H	0.463854	0.249739	-0.124505
H147	H	0.441025	0.178099	-0.116467
O148	O	0.162639	0.213755	-0.214347
C149	C	0.195530	0.172327	-0.173021
H150	H	0.228277	0.171095	-0.201804
H151	H	0.201238	0.195912	-0.120466
C152	C	0.139290	0.098390	-0.124642
C153	C	0.179510	0.096873	-0.159996
H154	H	0.129408	0.051847	-0.116605
H155	H	0.117130	0.126302	-0.152482
H156	H	0.144052	0.118048	-0.080850
H157	H	0.174746	0.077224	-0.203791
H158	H	0.201668	0.068956	-0.132164
H159	H	0.696196	0.947428	-0.255645
H160	H	-0.201819	0.438578	-0.438462
H161	H	0.587525	0.954009	-0.419063
O162	O	0.683135	0.274942	-0.613315
C163	C	0.708291	0.237098	-0.660020
H164	H	0.688560	0.236750	-0.712391
H165	H	0.741504	0.263235	-0.668900
C166	C	0.741793	0.161352	-0.563977
C167	C	0.717557	0.160919	-0.628298
H168	H	0.747511	0.114362	-0.544408
H169	H	0.724846	0.186849	-0.532510
H170	H	0.769468	0.183136	-0.571385
H171	H	0.689880	0.139143	-0.620887
H172	H	0.734499	0.135416	-0.659763
H173	H	0.566006	0.758565	-0.451314
O174	O	0.582949	0.425740	-0.949380
C175	C	0.555222	0.467433	-0.999234
H176	H	0.572167	0.471990	-1.051815
H177	H	0.521599	0.441905	-1.006028
C178	C	0.526651	0.535708	-0.908905
C179	C	0.547465	0.541310	-0.973484
H180	H	0.521864	0.581278	-0.893021
H181	H	0.545330	0.507617	-0.875317
H182	H	0.498634	0.514432	-0.914575
H183	H	0.575484	0.562577	-0.967811
H184	H	0.528791	0.569406	-1.007071
H185	H	0.569579	0.445862	-0.625746
O186	O	0.458944	0.445912	-0.445754
C187	C	0.426058	0.487362	-0.487067
H188	H	0.393326	0.458590	-0.488405
H189	H	0.420308	0.539828	-0.463307
C190	C	0.482321	0.535971	-0.560843
C191	C	0.442119	0.500630	-0.562490
H192	H	0.492228	0.544158	-0.607366
H193	H	0.504477	0.508047	-0.533008
H194	H	0.477524	0.579689	-0.541039
H195	H	0.446918	0.456909	-0.582285
H196	H	0.419964	0.528546	-0.590330
O197	O	0.255102	0.213915	-0.214326
C198	C	0.282353	0.252156	-0.170313
H199	H	0.287293	0.306607	-0.197223
H200	H	0.265437	0.257734	-0.118371
C201	C	0.322230	0.145959	-0.122997
C202	C	0.328301	0.212835	-0.156051
H203	H	0.350572	0.121703	-0.114197
H204	H	0.303869	0.120195	-0.152647
H205	H	0.308132	0.150617	-0.079716
H206	H	0.342393	0.208176	-0.199335
H207	H	0.346665	0.238598	-0.126407
H208	H	-0.193107	0.268217	-0.268583
H209	H	0.674677	0.751980	-0.287900
O210	O	0.679195	0.280718	-0.758364
C211	C	0.653714	0.236887	-0.799122
H212	H	0.619039	0.231646	-0.776743
H213	H	0.650095	0.260901	-0.855791
C214	C	0.720198	0.170088	-0.824813
C215	C	0.677611	0.163645	-0.797322
H216	H	0.734939	0.124910	-0.823706
H217	H	0.737365	0.199619	-0.797355
H218	H	0.717176	0.190102	-0.872034
H219	H	0.680633	0.143640	-0.750100
H220	H	0.660445	0.134109	-0.824772
H221	H	0.379285	0.268146	-0.268478
H222	H	0.096733	0.485493	-0.485231
H223	H	0.011615	0.485494	-0.485243
O224	O	0.021866	0.213884	-0.214294
C225	C	0.034764	0.226388	-0.144623
H226	H	0.068136	0.253436	-0.144205
H227	H	0.008008	0.261636	-0.122265
C228	C	-0.001069	0.122676	-0.099799
C229	C	0.039921	0.155892	-0.099285
H230	H	0.002110	0.079192	-0.071830
H231	H	-0.009760	0.114253	-0.146737
H232	H	-0.023362	0.152056	-0.081169
H233	H	0.062212	0.126516	-0.117923
H234	H	0.048616	0.164309	-0.052348
H235	H	0.110227	0.221224	-0.221733
