data_functionalizedCrystal
_audit_creation_method	'MofGen! by Chris Wilmer'
_symmetry_space_group_name_H-M	'P1'
_symmetry_Int_Tables_number	1
_symmetry_cell_setting	triclinic
loop_
_symmetry_equiv_pos_as_xyz
  x,y,z
_cell_length_a	12.759401
_cell_length_b	14.908178
_cell_length_c	14.909227
_cell_angle_alpha	96.422629
_cell_angle_beta	93.314117
_cell_angle_gamma	93.314230
loop_
_atom_site_label
_atom_site_type_symbol
_atom_site_fract_x
_atom_site_fract_y
_atom_site_fract_z
Zn1	Zn	1.616987	-0.330835	0.490927
Zn2	Zn	1.595352	-0.490963	0.330819
Zn3	Zn	1.430530	-0.339606	0.339582
Zn4	Zn	1.430508	-0.482171	0.482148
O5	O	1.518344	-0.410894	0.410869
O6	O	1.761138	-0.352085	0.469694
O7	O	1.564443	-0.478236	0.205311
O8	O	1.464328	-0.211764	0.366999
O9	O	1.745243	-0.469731	0.352064
O10	O	1.601317	-0.205320	0.478192
O11	O	1.443349	-0.367034	0.211749
O12	O	1.283506	-0.358508	0.358487
O13	O	1.464290	-0.454746	0.609983
O14	O	1.283490	-0.463251	0.463230
O15	O	1.601295	-0.343560	0.616432
O16	O	1.564422	-0.616476	0.343552
O17	O	1.443311	-0.610016	0.454733
C18	C	1.245377	-0.410878	0.410858
C19	C	1.128601	-0.410891	0.410873
C20	C	1.073744	-0.465529	0.465311
C21	C	0.964020	-0.465540	0.465321
C22	C	0.964018	-0.356274	0.356445
C23	C	1.073741	-0.356259	0.356441
C24	C	1.073744	-0.528616	0.528167
C25	C	0.964020	-0.528627	0.528176
C26	C	1.501546	-0.646091	0.397258
C27	C	1.494458	-0.746708	0.391466
C28	C	1.623693	-0.928910	0.496490
C29	C	1.617037	-1.023448	0.491051
C30	C	1.474486	-1.030323	0.375153
C31	C	1.481142	-0.935785	0.380592
C32	C	1.555749	-0.885082	0.441262
C33	C	1.562409	-0.790542	0.446696
C34	C	1.419854	-0.797419	0.330804
C35	C	1.413198	-0.891957	0.325364
C36	C	1.792377	-0.410910	0.410881
C37	C	1.909154	-0.410917	0.410886
C38	C	1.535204	-0.397194	0.646970
C39	C	1.542388	-0.391355	0.747582
C40	C	1.535238	-0.174777	0.424552
C41	C	1.542437	-0.074158	0.430383
C42	C	1.501616	-0.424475	0.175690
C43	C	1.494653	-0.430058	0.075093
C44	C	1.623837	-0.325244	0.892749
C45	C	1.617092	-0.330726	0.798215
C46	C	1.474425	-0.446508	0.791489
C47	C	1.481170	-0.441026	0.886023
C48	C	1.555877	-0.380391	0.936650
C49	C	1.562616	-0.374905	1.031186
C50	C	1.419954	-0.490691	1.024458
C51	C	1.413210	-0.496173	0.929924
H52	H	1.109867	-0.505876	0.599384
H53	H	1.101229	-0.596633	0.499090
O54	O	1.635135	-0.315889	1.080274
C55	C	1.699185	-0.160225	1.118169
C56	C	1.617006	-0.226963	1.062515
H57	H	1.684543	-0.088313	1.103845
H58	H	1.781457	-0.177135	1.098653
H59	H	1.692348	-0.165823	1.193270
H60	H	1.623746	-0.221402	0.987400
H61	H	1.534767	-0.210033	1.082107
O62	O	0.910891	-0.303127	0.303545
C63	C	0.922465	-0.194792	0.195512
C64	C	0.982760	-0.254921	0.255396
H65	H	0.980543	-0.155816	0.156553
H66	H	0.877476	-0.145054	0.239847
H67	H	0.864718	-0.239047	0.145752
H68	H	1.040560	-0.210738	0.305163
H69	H	1.027679	-0.304665	0.211004
O70	O	0.931403	-0.494200	0.609472
C71	C	0.982514	-0.429370	0.762185
C72	C	1.019599	-0.468362	0.670178
H73	H	1.053801	-0.408452	0.811286
H74	H	0.930561	-0.482909	0.790403
H75	H	0.935715	-0.367818	0.752955
H76	H	1.066441	-0.529902	0.679332
H77	H	1.071498	-0.414767	0.641991
O78	O	0.921083	-0.613586	0.500743
C79	C	0.953094	-0.768397	0.450869
C80	C	1.001856	-0.672225	0.481900
H81	H	1.018377	-0.815837	0.435644
H82	H	0.899252	-0.767491	0.387276
H83	H	0.905543	-0.793071	0.506783
H84	H	1.049458	-0.647493	0.426048
H85	H	1.055639	-0.673186	0.545517
O86	O	1.682952	-0.277109	0.755477
C87	C	1.698206	-0.161027	0.655892
C88	C	1.623498	-0.221715	0.704220
H89	H	1.650169	-0.116212	0.614455
H90	H	1.746999	-0.205102	0.609166
H91	H	1.752774	-0.116792	0.708337
H92	H	1.568866	-0.265960	0.651840
H93	H	1.574779	-0.177587	0.750963
O94	O	1.634904	-0.741421	0.505709
C95	C	1.775620	-0.744586	0.620063
C96	C	1.693556	-0.800320	0.553280
H97	H	1.823078	-0.792183	0.658529
H98	H	1.733876	-0.697622	0.669958
H99	H	1.830713	-0.702684	0.581090
H100	H	1.638441	-0.842276	0.592177
H101	H	1.735370	-0.847228	0.503386
O102	O	1.340682	-0.941307	0.266551
C103	C	1.190409	-1.048829	0.248109
C104	C	1.272483	-0.993009	0.314816
H105	H	1.135235	-1.090629	0.287106
H106	H	1.232145	-1.095877	0.198286
H107	H	1.143041	-1.001247	0.209548
H108	H	1.319876	-1.040523	0.353440
H109	H	1.230684	-0.945951	0.364580
O110	O	1.401894	-0.505330	0.742167
C111	C	1.328339	-0.565130	0.593543
C112	C	1.410512	-0.498460	0.649291
H113	H	1.335293	-0.559612	0.518442
H114	H	1.246054	-0.548156	0.612968
H115	H	1.342886	-0.637034	0.607956
H116	H	1.396063	-0.426533	0.634907
H117	H	1.492769	-0.515511	0.629857
H118	H	1.352388	-0.545543	0.888691
H119	H	1.118402	-0.311761	0.312119
O120	O	1.354055	-0.544239	1.067245
C121	C	1.301189	-0.587084	1.209898
C122	C	1.375894	-0.526405	1.161558
H123	H	1.318804	-0.572674	1.286159
H124	H	1.313109	-0.661171	1.187143
H125	H	1.216286	-0.572285	1.192173
H126	H	1.460825	-0.541124	1.179260
H127	H	1.363882	-0.452337	1.184317
H128	H	1.684657	-0.275864	0.933971
H129	H	1.672359	-1.059129	0.536028
O130	O	1.696190	-0.879786	0.555498
C131	C	1.836922	-0.882942	0.669840
C132	C	1.754853	-0.938682	0.603066
H133	H	1.884388	-0.930536	0.708302
H134	H	1.795181	-0.835979	0.719738
H135	H	1.892006	-0.841039	0.630861
H136	H	1.699746	-0.980638	0.641969
H137	H	1.796664	-0.985588	0.553168
H138	H	1.413740	-1.071622	0.325763
O139	O	1.353698	-0.754943	0.277187
C140	C	1.173914	-0.728687	0.234786
C141	C	1.248707	-0.776859	0.295546
H142	H	1.089014	-0.746373	0.249620
H143	H	1.185833	-0.751551	0.160727
H144	H	1.191538	-0.652413	0.249072
H145	H	1.231130	-0.853139	0.281340
H146	H	1.236774	-0.753921	0.369586
