data_functionalizedCrystal
_audit_creation_method	'MofGen! by Chris Wilmer'
_symmetry_space_group_name_H-M	'P1'
_symmetry_Int_Tables_number	1
_symmetry_cell_setting	triclinic
loop_
_symmetry_equiv_pos_as_xyz
  x,y,z
_cell_length_a	10.540535
_cell_length_b	10.540539
_cell_length_c	9.730223
_cell_angle_alpha	90.000775
_cell_angle_beta	90.002158
_cell_angle_gamma	84.524567
loop_
_atom_site_label
_atom_site_type_symbol
_atom_site_fract_x
_atom_site_fract_y
_atom_site_fract_z
O1	O	1.685883	0.178868	-0.114208
O2	O	1.316470	0.195729	-0.114226
O3	O	1.509604	0.002592	-0.114215
O4	O	1.492748	0.372005	-0.114219
O5	O	1.509602	0.002597	0.114365
O6	O	1.316467	0.195734	0.114354
O7	O	1.685881	0.178872	0.114372
Zn8	Zn	1.501174	0.187304	0.150655
Zn9	Zn	1.501177	0.187298	-0.150509
O10	O	1.492746	0.372010	0.114361
C11	C	1.269165	0.194469	0.000061
C12	C	1.128217	0.190689	0.000054
C13	C	1.091546	0.049675	0.000061
C14	C	0.944946	0.045698	0.000594
C15	C	0.918880	0.255062	0.130346
C16	C	1.065645	0.258063	0.130442
C17	C	1.065532	0.260109	-0.129505
C18	C	0.919185	0.253587	-0.131204
C19	C	1.508339	-0.044709	0.000073
C20	C	1.504557	-0.185657	0.000065
C21	C	1.359640	-0.369081	-0.000455
C22	C	1.363474	-0.222463	0.000059
C23	C	1.572452	-0.247313	0.130599
C24	C	1.567637	-0.393857	0.130709
C25	C	1.570509	-0.394381	-0.129229
C26	C	1.571808	-0.247399	-0.130955
C27	C	1.733185	0.180133	0.000082
C28	C	1.874134	0.183913	0.000080
C29	C	1.494011	0.419311	0.000070
C30	C	1.497793	0.560259	0.000069
N31	N	1.501181	0.187308	0.356191
N32	N	1.501179	0.187284	-0.356045
C33	C	1.586723	0.101816	0.428122
C34	C	1.586720	0.101800	0.572005
C35	C	1.415628	0.272780	0.572014
C36	C	1.415626	0.272789	0.428133
C37	C	1.672278	0.016335	0.356181
C38	C	1.757828	-0.069163	0.428112
C39	C	1.757825	-0.069178	0.571995
C40	C	1.672272	0.016304	0.643947
H41	H	1.105816	0.210016	0.228192
H42	H	1.088676	0.361437	0.136007
F43	F	1.703703	-0.456112	-0.130374
F44	F	1.672292	0.016350	0.203048
H45	H	0.916492	-0.009669	0.094527
H46	H	1.345969	0.342403	0.369566
F47	F	1.094483	0.395732	-0.131126
F48	F	1.672264	0.016271	0.797081
H49	H	0.915609	-0.009946	-0.092767
H50	H	1.345975	0.342378	0.630606
H51	H	1.133516	-0.004478	-0.093342
H52	H	1.827477	-0.138767	0.369521
H53	H	1.135003	-0.003567	0.093341
H54	H	0.871523	0.356828	0.134822
F55	F	0.878492	0.191265	0.257552
H56	H	1.827475	-0.138802	0.630560
H57	H	0.870137	0.354460	-0.139476
H58	H	1.107992	0.216105	-0.228277
F59	F	1.293646	-0.166775	-0.122246
F60	F	0.881837	0.185890	-0.257173
F61	F	1.286792	-0.406461	-0.122810
H62	H	1.674669	-0.223179	-0.138832
H63	H	1.304134	-0.399286	0.092623
F64	F	1.293150	-0.167875	0.122559
F65	F	1.502044	-0.430715	0.258238
F66	F	1.700256	-0.456561	0.138470
H67	H	1.676060	-0.224960	0.135457
H68	H	1.525287	-0.204710	0.227733
H69	H	1.522130	-0.206542	-0.227520
F70	F	1.510818	-0.435610	-0.258547
