data_functionalizedCrystal
_audit_creation_method	'MofGen! by Chris Wilmer'
_symmetry_space_group_name_H-M	'P1'
_symmetry_Int_Tables_number	1
_symmetry_cell_setting	triclinic
loop_
_symmetry_equiv_pos_as_xyz
  x,y,z
_cell_length_a	13.635800
_cell_length_b	14.777234
_cell_length_c	11.102300
_cell_angle_alpha	82.687077
_cell_angle_beta	108.605850
_cell_angle_gamma	135.500396
loop_
_atom_site_label
_atom_site_type_symbol
_atom_site_fract_x
_atom_site_fract_y
_atom_site_fract_z
V1	V	2.148150	0.178628	0.396221
O2	O	2.030842	-0.008584	0.388715
O3	O	2.227338	0.354190	0.393475
O4	O	2.135119	0.175880	0.569042
O5	O	2.123698	0.170960	0.211933
V6	V	2.375120	0.156235	0.374183
O7	O	2.311226	0.227748	0.444563
O8	O	2.437143	0.107115	0.325840
O9	O	2.184329	-0.019326	0.376928
O10	O	2.551127	0.343447	0.381688
O11	O	2.458270	0.163904	0.558471
O12	O	2.276547	0.158983	0.201361
V13	V	2.648150	0.178628	0.396221
O14	O	2.530842	-0.008584	0.388715
O15	O	2.727338	0.354190	0.393475
O16	O	2.635119	0.175880	0.569042
O17	O	2.623698	0.170960	0.211933
V18	V	2.875120	0.156235	0.374183
O19	O	2.811226	0.227748	0.444563
O20	O	2.937143	0.107115	0.325840
O21	O	2.684329	-0.019326	0.376928
O22	O	3.051127	0.343447	0.381688
O23	O	2.958270	0.163904	0.558471
O24	O	2.776547	0.158983	0.201361
C25	C	2.174628	0.396988	0.387216
C26	C	2.280091	0.540512	0.386123
C27	C	2.242179	0.617664	0.378883
C28	C	2.319279	0.690310	0.276285
C29	C	2.390922	0.723602	0.486787
C30	C	2.355772	0.611254	0.283453
C31	C	2.427428	0.644552	0.494048
C32	C	2.504562	0.717161	0.391430
C33	C	2.056993	0.169535	0.611167
C34	C	2.087665	0.168450	0.752449
C35	C	2.068714	-0.062118	0.383184
C36	C	1.952871	-0.205640	0.384285
C37	C	2.572179	0.937880	0.383177
C38	C	2.466663	0.794351	0.384255
C39	C	1.849097	-0.291508	0.268420
C40	C	1.740240	-0.426362	0.269458
C41	C	1.838950	-0.389466	0.502235
C42	C	1.947798	-0.254615	0.501196
C43	C	2.186347	0.165333	0.159229
C44	C	2.145290	0.166411	0.017946
C45	C	2.197415	0.174388	0.825297
C46	C	2.226225	0.173364	0.958046
C47	C	2.035528	0.160469	0.945088
C48	C	2.006712	0.161483	0.812340
C49	C	2.674628	0.396988	0.387216
C50	C	2.780091	0.540512	0.386123
C51	C	2.556993	0.169535	0.611167
C52	C	2.587665	0.168450	0.752449
C53	C	2.686347	0.165333	0.159229
C54	C	2.645290	0.166411	0.017946
C55	C	2.697415	0.174388	0.825297
C56	C	2.726225	0.173364	0.958046
C57	C	2.535528	0.160469	0.945088
C58	C	2.506712	0.161483	0.812340
H59	H	2.130200	0.574180	0.373458
H60	H	2.032298	-0.184696	0.595553
H61	H	2.417330	0.156637	0.753024
H62	H	2.274610	0.711067	0.184204
H63	H	2.263332	0.180059	0.776538
H64	H	2.469626	0.154800	0.993868
H65	H	2.339931	0.562486	0.197434
H66	H	1.834806	-0.429358	0.597419
H67	H	2.616381	0.760385	0.396699
H68	H	2.472039	0.623762	0.586130
H69	H	2.406799	0.772522	0.572691
H70	H	2.315590	0.178198	1.017353
H71	H	1.853218	-0.251638	0.173224
H72	H	1.655744	-0.496271	0.175110
H73	H	1.969626	0.154800	0.993868
H74	H	1.917330	0.156637	0.753024
H75	H	2.815590	0.178198	1.017353
H76	H	2.763332	0.180059	0.776538
