data_functionalizedCrystal
_audit_creation_method	'MofGen! by Chris Wilmer'
_symmetry_space_group_name_H-M	'P1'
_symmetry_Int_Tables_number	1
_symmetry_cell_setting	triclinic
loop_
_symmetry_equiv_pos_as_xyz
  x,y,z
_cell_length_a	14.908571
_cell_length_b	25.639239
_cell_length_c	14.908694
_cell_angle_alpha	93.266315
_cell_angle_beta	83.592472
_cell_angle_gamma	86.734636
loop_
_atom_site_label
_atom_site_type_symbol
_atom_site_fract_x
_atom_site_fract_y
_atom_site_fract_z
Zn1	Zn	1.413187	-0.275253	-0.591468
Zn2	Zn	1.404309	-0.357334	-0.440091
Zn3	Zn	1.253095	-0.264559	-0.431405
Zn4	Zn	1.261741	-0.357293	-0.582690
O5	O	1.333083	-0.313610	-0.511414
O6	O	1.538674	-0.290634	-0.578697
O7	O	1.376916	-0.340569	-0.312274
O8	O	1.274428	-0.192817	-0.452676
O9	O	1.532151	-0.350938	-0.467481
O10	O	1.392047	-0.200674	-0.570274
O11	O	1.265820	-0.272407	-0.305892
O12	O	1.127577	-0.272368	-0.444164
O13	O	1.289164	-0.350869	-0.710519
O14	O	1.133929	-0.340499	-0.555312
O15	O	1.400431	-0.290594	-0.716969
O16	O	1.385300	-0.430489	-0.458969
O17	O	1.280555	-0.430459	-0.563735
C18	C	1.097911	-0.305269	-0.497844
C19	C	0.997304	-0.301715	-0.492060
C20	C	0.814908	-0.366078	-0.596774
C21	C	0.720379	-0.362740	-0.591343
C22	C	0.713717	-0.291698	-0.475771
C23	C	0.808246	-0.295036	-0.481202
C24	C	0.858838	-0.332228	-0.541705
C25	C	0.953368	-0.335568	-0.547131
C26	C	0.946704	-0.264524	-0.431564
C27	C	0.852176	-0.261186	-0.426133
C28	C	1.332928	-0.449446	-0.511363
C29	C	1.332947	-0.507561	-0.511377
C30	C	1.387780	-0.867941	-0.456969
C31	C	1.387816	-0.922547	-0.456983
O32	O	1.434276	-0.950792	-0.410669
N33	N	1.333245	-0.949857	-0.511483
C34	C	1.278643	-0.922558	-0.565979
O35	O	1.232230	-0.950801	-0.612337
C36	C	1.278612	-0.867953	-0.565969
C37	C	1.333179	-0.840646	-0.511459
C38	C	1.442343	-0.840634	-0.402464
C39	C	1.442306	-0.786032	-0.402449
C40	C	1.387705	-0.758737	-0.456939
C41	C	1.333142	-0.786044	-0.511443
C42	C	1.224015	-0.840655	-0.620469
C43	C	1.223990	-0.786047	-0.620454
C44	C	1.278557	-0.758740	-0.565945
C45	C	1.278504	-0.704146	-0.565918
N46	N	1.333074	-0.676837	-0.511418
C47	C	1.387675	-0.704132	-0.456929
C48	C	1.278712	-1.037231	-0.565996
C49	C	1.278736	-1.091834	-0.566002
C50	C	1.387911	-1.091820	-0.457008
C51	C	1.387881	-1.037216	-0.456998
C52	C	1.333282	-1.009922	-0.511497
C53	C	1.387592	-0.589463	-0.456900
C54	C	1.387547	-0.534856	-0.456887
C55	C	1.278377	-0.534875	-0.565885
C56	C	1.278417	-0.589477	-0.565895
C57	C	1.333032	-0.616770	-0.511400
O58	O	1.232070	-0.675867	-0.612211
O59	O	1.434088	-0.675883	-0.410587
C60	C	1.569173	-0.321983	-0.525037
C61	C	1.669781	-0.325552	-0.530843
C62	C	1.346752	-0.321920	-0.747505
C63	C	1.352577	-0.325461	-0.848113
C64	C	1.333264	-0.177245	-0.511485
C65	C	1.333341	-0.119135	-0.511516
C66	C	1.247818	-0.261140	-1.030521
C67	C	1.253288	-0.264466	-1.125051
C68	C	1.368982	-0.335440	-1.131705
C69	C	1.363512	-0.332114	-1.037175
C70	C	1.302929	-0.294963	-0.986586
C71	C	1.297464	-0.291635	-0.892055
C72	C	1.413153	-0.362612	-0.898709
C73	C	1.418624	-0.365937	-0.993240
C74	C	1.319519	-0.305296	-0.276244
C75	C	1.313869	-0.301614	-0.175646
H76	H	0.994559	-0.365853	-0.596394
H77	H	1.208410	-0.236924	-1.160819
N78	N	0.800481	-0.223197	-0.364344
N79	N	0.716082	-0.220219	-0.359505
H80	H	0.679571	-0.193390	-0.315864
H81	H	1.486810	-0.862852	-0.358092
N82	N	0.866577	-0.404076	-0.658565
N83	N	0.827342	-0.434302	-0.707723
H84	H	0.863831	-0.461139	-0.751363
H85	H	1.233988	-0.611712	-0.610284
N86	N	1.443622	-1.009333	-0.401310
N87	N	1.492361	-1.033716	-0.352661
H88	H	1.531732	-1.014027	-0.313329
H89	H	1.248137	-0.261382	-0.850867
N90	N	1.443707	-1.119710	-0.401368
N91	N	1.527573	-1.116737	-0.412267
H92	H	1.566977	-1.136436	-0.372975
N93	N	1.498031	-0.758134	-0.346765
N94	N	1.497994	-0.709380	-0.346739
H95	H	1.537346	-0.689678	-0.307403
H96	H	1.179530	-0.763827	-0.664837
H97	H	1.198496	-0.230885	-0.989331
H98	H	0.982482	-0.236962	-0.386721
N99	N	1.443289	-0.506971	-0.401194
N100	N	1.492035	-0.531353	-0.352548
H101	H	1.531402	-0.511661	-0.313215
H102	H	1.234243	-1.015011	-0.610373
N103	N	1.443382	-0.617329	-0.401229
N104	N	1.492088	-0.592932	-0.352569
H105	H	1.531486	-0.612611	-0.313246
H106	H	0.684616	-0.390304	-0.636188
H107	H	1.234293	-1.114063	-0.610381
N108	N	1.222619	-0.506979	-0.621543
N109	N	1.257755	-0.479633	-0.681066
H110	H	1.218381	-0.459929	-0.720378
N111	N	1.430845	-0.373390	-1.183401
N112	N	1.435709	-0.376355	-1.267801
H113	H	1.479399	-0.403158	-1.304313
N114	N	1.480494	-0.403884	-1.044931
N115	N	1.485368	-0.406851	-1.129332
H116	H	1.529066	-0.433652	-1.165839
N117	N	1.469465	-0.397149	-0.853817
N118	N	1.464588	-0.394169	-0.769417
H119	H	1.504363	-0.418557	-0.737710
N120	N	1.168269	-0.868532	-0.676155
N121	N	1.119534	-0.844144	-0.724803
H122	H	1.080160	-0.863830	-0.764137
H123	H	0.672509	-0.261415	-0.426519
