data_functionalizedCrystal
_audit_creation_method	'MofGen! by Chris Wilmer'
_symmetry_space_group_name_H-M	'P1'
_symmetry_Int_Tables_number	1
_symmetry_cell_setting	triclinic
loop_
_symmetry_equiv_pos_as_xyz
  x,y,z
_cell_length_a	11.169417
_cell_length_b	12.594516
_cell_length_c	11.169409
_cell_angle_alpha	90.031702
_cell_angle_beta	89.980176
_cell_angle_gamma	89.972390
loop_
_atom_site_label
_atom_site_type_symbol
_atom_site_fract_x
_atom_site_fract_y
_atom_site_fract_z
Zn1	Zn	1.834826	0.423631	-0.678548
Zn2	Zn	1.834658	0.601657	-0.477867
Zn3	Zn	1.634112	0.423696	-0.477882
Zn4	Zn	1.634062	0.601571	-0.678512
O5	O	1.734414	0.512639	-0.578202
O6	O	2.002753	0.447256	-0.651936
O7	O	1.808005	0.578114	-0.309919
O8	O	1.660828	0.274741	-0.504523
O9	O	2.002630	0.578051	-0.504497
O10	O	1.808292	0.274694	-0.651951
O11	O	1.660665	0.447366	-0.309931
O12	O	1.466155	0.447282	-0.504488
O13	O	1.660743	0.577903	-0.846467
O14	O	1.466119	0.577966	-0.651889
O15	O	1.808243	0.447172	-0.846493
O16	O	1.807957	0.750592	-0.504462
O17	O	1.660580	0.750528	-0.651875
C18	C	1.422589	0.512623	-0.578187
C19	C	1.289189	0.512641	-0.578209
C20	C	1.734277	0.789180	-0.578189
C21	C	1.734329	0.907485	-0.578223
C22	C	1.654148	0.976742	-0.658344
C23	C	1.624887	1.047617	-0.548830
C24	C	1.763655	1.047410	-0.687754
C25	C	1.705010	0.976801	-0.468651
C26	C	1.843829	0.976588	-0.607649
C27	C	1.814609	1.047431	-0.498060
C28	C	2.047456	0.512656	-0.578219
C29	C	2.180856	0.512663	-0.578225
C30	C	1.734506	0.512521	-0.891245
C31	C	1.734546	0.512470	-1.024645
C32	C	1.734531	1.235018	-0.578241
C33	C	1.734446	1.116712	-0.578252
C34	C	1.734391	0.512680	-0.266378
C35	C	1.734585	0.512430	-0.132978
H36	H	1.586239	0.945703	-0.726002
Br37	Br	1.998046	0.924549	-0.649176
H38	H	1.532341	1.078839	-0.523966
H39	H	1.680146	0.945914	-0.376009
Br40	Br	1.927715	1.098838	-0.385028
Br41	Br	1.804916	1.099114	-0.842118
