data_functionalizedCrystal
_audit_creation_method	'MofGen! by Chris Wilmer'
_symmetry_space_group_name_H-M	'P1'
_symmetry_Int_Tables_number	1
_symmetry_cell_setting	triclinic
loop_
_symmetry_equiv_pos_as_xyz
  x,y,z
_cell_length_a	18.050591
_cell_length_b	19.120786
_cell_length_c	18.050582
_cell_angle_alpha	92.465003
_cell_angle_beta	90.020922
_cell_angle_gamma	92.460873
loop_
_atom_site_label
_atom_site_type_symbol
_atom_site_fract_x
_atom_site_fract_y
_atom_site_fract_z
Zn1	Zn	1.122689	-0.279748	0.407398
Zn2	Zn	1.117309	-0.397198	0.277904
Zn3	Zn	0.998508	-0.279751	0.283209
Zn4	Zn	0.993167	-0.397160	0.402042
O5	O	1.057918	-0.338464	0.342638
O6	O	1.225899	-0.295342	0.390242
O7	O	1.101533	-0.381635	0.174683
O8	O	1.019469	-0.181461	0.304145
O9	O	1.221946	-0.381632	0.295104
O10	O	1.110704	-0.181458	0.395386
O11	O	1.014251	-0.295347	0.178580
O12	O	0.893876	-0.295311	0.298951
O13	O	1.010365	-0.381569	0.506677
O14	O	0.889951	-0.381571	0.386256
O15	O	1.105524	-0.295306	0.510613
O16	O	1.096354	-0.495482	0.289909
O17	O	1.005147	-0.495455	0.381112
C18	C	0.864967	-0.338438	0.342598
C19	C	0.782421	-0.338444	0.342598
C20	C	0.585086	-0.291481	0.295238
C21	C	0.532780	-0.355544	0.274069
C22	C	0.631290	-0.338465	0.342631
C23	C	0.536513	-0.274424	0.363797
C24	C	0.485304	-0.338480	0.342661
C25	C	0.580070	-0.402562	0.321425
C26	C	0.583809	-0.321399	0.411186
C27	C	0.531524	-0.385506	0.390041
C28	C	0.715389	-0.338455	0.342612
C29	C	0.401207	-0.338497	0.342680
C30	C	1.049607	-0.520954	0.334370
C31	C	1.046119	-0.599024	0.330858
C32	C	1.091947	-0.635640	0.376751
C33	C	1.088667	-0.708995	0.373452
C34	C	1.039563	-0.745733	0.324256
C35	C	0.993730	-0.709112	0.278361
C36	C	0.997007	-0.635758	0.281664
C37	C	1.027291	-0.967217	0.311907
C38	C	1.024019	-1.040576	0.308606
C39	C	1.118955	-1.040454	0.403698
C40	C	1.122231	-0.967099	0.406994
C41	C	1.076395	-0.930484	0.361102
C42	C	1.036210	-0.820713	0.320881
C43	C	1.079744	-0.855505	0.364481
C44	C	1.251623	-0.338491	0.342679
C45	C	1.334168	-0.338502	0.342696
C46	C	1.057949	-0.338433	0.536345
C47	C	1.057962	-0.338420	0.618892
C48	C	1.066282	-0.155262	0.350955
C49	C	1.069846	-0.077191	0.354499
C50	C	1.057933	-0.338444	0.149687
C51	C	1.058073	-0.338260	0.067150
C52	C	1.006255	-0.385265	0.816205
C53	C	1.073236	-0.402439	0.864828
C54	C	1.058001	-0.338366	0.770025
C55	C	0.991057	-0.321173	0.868484
C56	C	1.058032	-0.338316	0.916012
C57	C	1.125016	-0.355573	0.817559
C58	C	1.042793	-0.274278	0.821212
C59	C	1.109822	-0.291427	0.869814
C60	C	1.057981	-0.338397	0.685925
C61	C	1.058059	-0.338285	1.000110
H62	H	0.599207	-0.456743	0.303471
H63	H	1.153644	-0.251744	0.893146
H64	H	0.996232	-0.850634	0.280823
H65	H	0.508210	-0.425291	0.430130
C66	C	0.592236	-0.234745	0.511455
C67	C	0.614067	-0.301872	0.489411
H68	H	0.610922	-0.222684	0.559746
H69	H	0.539647	-0.234189	0.511946
H70	H	0.611346	-0.201835	0.477626
H71	H	0.594952	-0.334783	0.523237
H72	H	0.666667	-0.302433	0.488925
H73	H	1.181657	-0.370156	0.795304
H74	H	0.984029	-1.070485	0.268544
C75	C	0.537673	-0.152189	0.338226
C76	C	0.510556	-0.201305	0.387955
H77	H	0.521653	-0.107048	0.353139
H78	H	0.519435	-0.164640	0.289868
H79	H	0.590323	-0.151562	0.337954
H80	H	0.457906	-0.201936	0.388222
H81	H	0.528791	-0.188851	0.436325
C82	C	1.031573	-0.501476	0.933424
C83	C	1.090624	-0.475572	0.890830
H84	H	1.042306	-0.546625	0.949478
H85	H	0.987613	-0.504662	0.904319
H86	H	1.024760	-0.470714	0.975372
H87	H	1.097434	-0.506332	0.848879
H88	H	1.134597	-0.472391	0.919937
H89	H	1.131936	-0.605733	0.416808
C90	C	0.884713	-0.356290	0.939939
C91	C	0.914616	-0.301565	0.898647
H92	H	0.837519	-0.344190	0.958554
H93	H	0.916864	-0.364055	0.980155
H94	H	0.879466	-0.397738	0.909105
H95	H	0.919868	-0.260118	0.929483
H96	H	0.882458	-0.293792	0.858426
C97	C	1.182861	-0.701507	0.467749
C98	C	1.139058	-0.749243	0.423883
H99	H	1.213978	-0.726356	0.498877
H100	H	1.151770	-0.672913	0.497423
H101	H	1.212552	-0.672884	0.436694
H102	H	1.109363	-0.777862	0.454938
H103	H	1.170153	-0.777849	0.394206
H104	H	1.162215	-0.937188	0.447053
H105	H	1.029890	-0.220116	0.801941
H106	H	0.510391	-0.369990	0.216106
H107	H	1.156270	-1.070273	0.441062
H108	H	0.989971	-0.937411	0.274539
C109	C	0.946560	-0.821610	0.231067
C110	C	0.939756	-0.749492	0.224281
H111	H	0.913242	-0.846537	0.197674
H112	H	0.935119	-0.833614	0.280407
H113	H	0.995934	-0.833590	0.219711
H114	H	0.890383	-0.737511	0.235643
H115	H	0.951192	-0.737484	0.174930
C116	C	0.902840	-0.643242	0.187337
C117	C	0.946632	-0.595507	0.231218
H118	H	0.871741	-0.618391	0.156193
H119	H	0.873138	-0.671858	0.218377
H120	H	0.933946	-0.671841	0.157673
H121	H	0.915527	-0.566910	0.260886
H122	H	0.976337	-0.566879	0.200174
H123	H	0.608531	-0.251791	0.255112
C124	C	0.895313	-0.404323	0.743381
C125	C	0.947230	-0.438871	0.784514
H126	H	0.858875	-0.437418	0.723820
H127	H	0.919699	-0.381620	0.703838
H128	H	0.872147	-0.370509	0.774596
H129	H	0.970400	-0.472681	0.753298
H130	H	0.922841	-0.461586	0.824062
H131	H	1.119722	-0.825591	0.404539
