data_functionalizedCrystal
_audit_creation_method	'MofGen! by Chris Wilmer'
_symmetry_space_group_name_H-M	'P1'
_symmetry_Int_Tables_number	1
_symmetry_cell_setting	triclinic
loop_
_symmetry_equiv_pos_as_xyz
  x,y,z
_cell_length_a	10.723023
_cell_length_b	10.723024
_cell_length_c	9.198806
_cell_angle_alpha	89.997736
_cell_angle_beta	90.002654
_cell_angle_gamma	95.532291
loop_
_atom_site_label
_atom_site_type_symbol
_atom_site_fract_x
_atom_site_fract_y
_atom_site_fract_z
O1	O	1.657188	-0.175020	0.120854
O2	O	1.294035	-0.191775	0.120864
O3	O	1.483988	-0.001821	0.120853
O4	O	1.467235	-0.364974	0.120865
O5	O	1.483974	-0.001820	-0.120932
O6	O	1.294021	-0.191773	-0.120921
O7	O	1.657174	-0.175019	-0.120931
Cu8	Cu	1.475596	-0.183396	-0.143003
Cu9	Cu	1.475613	-0.183398	0.142936
O10	O	1.467221	-0.364972	-0.120920
C11	C	1.247529	-0.190555	-0.000027
C12	C	1.108974	-0.186908	-0.000023
C13	C	1.482762	0.044679	-0.000037
C14	C	1.479114	0.183233	-0.000032
C15	C	1.703680	-0.176239	-0.000037
C16	C	1.842235	-0.179886	-0.000031
N17	N	1.475593	-0.183394	-0.344117
C18	C	1.904005	-0.181511	-0.125280
C19	C	2.047208	-0.185281	-0.125277
C20	C	1.468447	-0.411473	-0.000026
C21	C	1.472095	-0.550027	-0.000022
C22	C	1.585402	0.258216	-0.000033
C23	C	1.581634	0.401420	-0.000028
C24	C	1.555546	-0.103465	-0.583722
C25	C	1.555530	-0.103466	-0.416310
N26	N	1.475625	-0.183390	0.344050
H27	H	2.100330	-0.186673	-0.232508
C28	C	1.712108	0.201730	-0.000040
C29	C	1.745569	0.116006	-0.125596
C30	C	1.872278	0.059522	-0.125603
C31	C	1.965526	0.088762	-0.000053
C32	C	1.932066	0.174490	0.125513
C33	C	1.805357	0.230974	0.125520
H34	H	1.676540	0.094356	-0.218545
H35	H	1.897047	-0.003940	-0.218556
H36	H	2.059324	0.046949	-0.000058
H37	H	2.001096	0.196139	0.218461
H38	H	1.780589	0.294436	0.218473
H39	H	1.672625	0.465852	-0.000035
H40	H	1.381099	0.385548	-0.000031
C41	C	1.352407	0.239717	-0.000026
C42	C	1.259161	0.210474	-0.125576
C43	C	1.132449	0.266954	-0.125569
C44	C	1.098984	0.352676	-0.000013
C45	C	1.192233	0.381924	0.125547
C46	C	1.318945	0.325444	0.125540
H47	H	1.283931	0.147013	-0.218529
H48	H	1.063420	0.245302	-0.218518
H49	H	1.005185	0.394486	-0.000008
H50	H	1.167463	0.445384	0.218500
H51	H	1.387973	0.347095	0.218489
C52	C	2.037231	-0.185020	0.144854
C53	C	1.960936	-0.074490	0.180965
C54	C	1.889182	-0.072602	0.325842
C55	C	1.893722	-0.181243	0.434608
C56	C	1.970020	-0.291781	0.398500
C57	C	2.041774	-0.293669	0.253623
H58	H	1.957572	0.005940	0.100448
H59	H	1.832701	0.009226	0.352571
H60	H	1.840605	-0.179846	0.541855
H61	H	1.973384	-0.372212	0.479017
H62	H	2.098255	-0.375497	0.226894
C63	C	1.383167	-0.275838	-0.572069
C64	C	1.386496	-0.417977	-0.592847
C65	C	1.294035	-0.510428	-0.508971
C66	C	1.198245	-0.460740	-0.404315
C67	C	1.194912	-0.318594	-0.383532
C68	C	1.287374	-0.226143	-0.467409
H69	H	1.457409	-0.454765	-0.670324
H70	H	1.296502	-0.615654	-0.524356
H71	H	1.129799	-0.529178	-0.342225
H72	H	1.123999	-0.281805	-0.306056
H73	H	1.284906	-0.120916	-0.452023
H74	H	1.850871	-0.180119	-0.232513
H75	H	1.623987	-0.035040	-0.645822
H76	H	1.895367	-0.181293	0.107202
H77	H	1.407162	-0.251820	-0.406220
H78	H	1.623949	-0.035034	-0.354197
