data_functionalizedCrystal
_audit_creation_method	'MofGen! by Chris Wilmer'
_symmetry_space_group_name_H-M	'P1'
_symmetry_Int_Tables_number	1
_symmetry_cell_setting	triclinic
loop_
_symmetry_equiv_pos_as_xyz
  x,y,z
_cell_length_a	11.169417
_cell_length_b	16.625539
_cell_length_c	11.169416
_cell_angle_alpha	89.979018
_cell_angle_beta	90.011589
_cell_angle_gamma	89.986584
loop_
_atom_site_label
_atom_site_type_symbol
_atom_site_fract_x
_atom_site_fract_y
_atom_site_fract_z
Zn1	Zn	1.834890	-0.455862	-0.477787
Zn2	Zn	2.168223	-0.122528	-0.144454
Zn3	Zn	2.501557	0.210805	0.188880
Zn4	Zn	1.834801	-0.321042	-0.678493
Zn5	Zn	2.168134	0.012292	-0.345160
Zn6	Zn	2.501467	0.345625	-0.011826
Zn7	Zn	1.634197	-0.321051	-0.477827
Zn8	Zn	1.967531	0.012283	-0.144494
Zn9	Zn	2.300864	0.345616	0.188840
Zn10	Zn	1.634183	-0.455840	-0.678431
Zn11	Zn	1.967517	-0.122507	-0.345098
Zn12	Zn	2.300850	0.210827	-0.011765
O13	O	1.734518	-0.388449	-0.578135
O14	O	2.067851	-0.055115	-0.244801
O15	O	2.401185	0.278218	0.088532
O16	O	2.002828	-0.437983	-0.504420
O17	O	2.336161	-0.104649	-0.171087
O18	O	2.669495	0.228684	0.162246
O19	O	1.808159	-0.208210	-0.651917
O20	O	2.141492	0.125123	-0.318583
O21	O	2.474825	0.458456	0.014750
O22	O	1.660863	-0.338946	-0.309872
O23	O	1.994196	-0.005613	0.023461
O24	O	2.327529	0.327720	0.356795
O25	O	2.002762	-0.338931	-0.651878
O26	O	2.336096	-0.005598	-0.318545
O27	O	2.669429	0.327736	0.014789
O28	O	1.808311	-0.437991	-0.309843
O29	O	2.141644	-0.104658	0.023491
O30	O	2.474978	0.228675	0.356824
O31	O	1.660776	-0.208217	-0.504488
O32	O	1.994110	0.125116	-0.171155
O33	O	2.327443	0.458450	0.162178
O34	O	1.466246	-0.338926	-0.504428
O35	O	1.799579	-0.005592	-0.171095
O36	O	2.132912	0.327741	0.162238
O37	O	1.660839	-0.568675	-0.651773
O38	O	1.994173	-0.235342	-0.318440
O39	O	2.327506	0.097991	0.014894
O40	O	1.466236	-0.437955	-0.651811
O41	O	1.799569	-0.104621	-0.318478
O42	O	2.132902	0.228712	0.014855
O43	O	1.808297	-0.568691	-0.504360
O44	O	2.141631	-0.235358	-0.171027
O45	O	2.474964	0.097975	0.162306
O46	O	1.808145	-0.338910	-0.846434
O47	O	2.141479	-0.005577	-0.513101
O48	O	2.474812	0.327756	-0.179768
O49	O	1.660753	-0.437946	-0.846389
O50	O	1.994086	-0.104613	-0.513056
O51	O	2.327419	0.228721	-0.179722
C52	C	1.422693	-0.388439	-0.578118
C53	C	1.756027	-0.055106	-0.244785
C54	C	2.089360	0.278227	0.088548
C55	C	1.289293	-0.388455	-0.578140
C56	C	1.622627	-0.055121	-0.244807
C57	C	1.955960	0.278212	0.088526
C58	C	1.734577	-0.598758	-0.578055
C59	C	2.067910	-0.265424	-0.244722
C60	C	2.401243	0.067909	0.088611
C61	C	1.734602	-0.688379	-0.578022
C62	C	2.067935	-0.355045	-0.244688
C63	C	2.401268	-0.021712	0.088645
C64	C	1.734621	-0.761161	-0.577995
C65	C	2.067955	-0.427828	-0.244662
C66	C	2.401288	-0.094495	0.088672
C67	C	1.734649	-0.852470	-0.577950
C68	C	2.067983	-0.519136	-0.244617
C69	C	2.401316	-0.185803	0.088716
C70	C	1.734678	-0.925246	-0.577908
C71	C	2.068011	-0.591913	-0.244575
C72	C	2.401344	-0.258580	0.088759
C73	C	1.734708	-1.016561	-0.577865
C74	C	2.068041	-0.683227	-0.244531
C75	C	2.401374	-0.349894	0.088802
C76	C	2.047560	-0.388458	-0.578152
C77	C	2.380894	-0.055125	-0.244818
C78	C	2.714227	0.278208	0.088515
C79	C	2.180960	-0.388462	-0.578159
C80	C	2.514294	-0.055129	-0.244826
C81	C	2.847627	0.278204	0.088508
C82	C	1.734470	-0.388442	-0.889959
C83	C	2.067804	-0.055109	-0.556626
C84	C	2.401137	0.278224	-0.223293
C85	C	1.734560	-0.388467	-1.023359
C86	C	2.067893	-0.055133	-0.690026
C87	C	2.401226	0.278200	-0.356693
C88	C	1.734528	-0.178958	-0.578127
C89	C	2.067862	0.154376	-0.244794
C90	C	2.401195	0.487709	0.088540
C91	C	1.734736	-0.089337	-0.577823
C92	C	2.068069	0.243996	-0.244489
C93	C	2.401402	0.577330	0.088844
C94	C	1.734598	-0.388472	-0.265092
C95	C	2.067932	-0.055139	0.068241
C96	C	2.401265	0.278194	0.401574
C97	C	1.734633	-0.388483	-0.131692
C98	C	2.067966	-0.055149	0.201641
C99	C	2.401299	0.278184	0.534974
