data_functionalizedCrystal
_audit_creation_method	'MofGen! by Chris Wilmer'
_symmetry_space_group_name_H-M	'P1'
_symmetry_Int_Tables_number	1
_symmetry_cell_setting	triclinic
loop_
_symmetry_equiv_pos_as_xyz
  x,y,z
_cell_length_a	23.096457
_cell_length_b	23.096457
_cell_length_c	23.096457
_cell_angle_alpha	90.003586
_cell_angle_beta	60.000185
_cell_angle_gamma	60.005235
loop_
_atom_site_label
_atom_site_type_symbol
_atom_site_fract_x
_atom_site_fract_y
_atom_site_fract_z
Zr1	Zr	0.633737	-0.075974	0.557774
O2	O	0.754520	-0.168414	0.465321
O3	O	0.512952	-0.047640	0.586114
O4	O	0.633736	-0.168424	0.586107
O5	O	0.633738	0.047650	0.465336
O6	O	0.633738	-0.168427	0.681388
O7	O	0.633736	-0.047630	0.465328
O8	O	0.417678	0.047633	0.681400
O9	O	0.849798	-0.168410	0.465324
O10	O	0.562635	-0.035554	0.669310
O11	O	0.562635	0.035555	0.598209
O12	O	0.704842	-0.106652	0.598201
O13	O	0.704842	-0.035543	0.527100
Zr14	Zr	0.633742	0.075981	0.709748
Zr15	Zr	0.633740	-0.075980	0.709736
Zr16	Zr	0.633740	0.075987	0.557787
Zr17	Zr	0.785695	-0.075968	0.557778
Zr18	Zr	0.481785	0.075975	0.709744
O19	O	0.754527	0.047647	0.681409
O20	O	0.754524	-0.168422	0.681391
O21	O	0.754524	0.047655	0.465339
O22	O	0.512960	0.168421	0.802201
O23	O	0.512956	-0.047648	0.802183
O24	O	0.512956	0.168429	0.586132
O25	O	0.633742	-0.047643	0.802186
O26	O	0.633743	0.168431	0.681415
O27	O	0.633742	0.168434	0.586135
O28	O	0.633743	0.047638	0.802194
O29	O	0.849800	-0.168415	0.586113
O30	O	0.417680	0.168422	0.681410
O31	O	0.417682	0.168417	0.802199
O32	O	0.417680	0.047628	0.802189
O33	O	0.849800	-0.047621	0.465334
O34	O	0.849802	-0.047626	0.586123
O35	O	0.562637	0.106659	0.669322
O36	O	0.562637	0.035550	0.740422
O37	O	0.704845	-0.035548	0.669314
O38	O	0.704845	0.035561	0.598213
C39	C	0.443664	-0.000004	0.633757
C40	C	0.379154	-0.000007	0.633755
C41	C	0.633737	0.000011	0.443681
C42	C	0.633736	0.000013	0.379170
C43	C	0.633743	0.190084	0.633777
C44	C	0.633744	0.254595	0.633782
C45	C	0.348854	-0.037128	0.670864
C46	C	0.288231	-0.037122	0.670871
C47	C	0.257924	-0.000005	0.633755
C48	C	0.288229	0.037124	0.596644
C49	C	0.348844	0.037123	0.596644
N50	N	0.195527	-0.005150	0.573350
N51	N	0.137946	-0.005153	0.573352
C52	C	0.075292	0.000001	0.633754
N53	N	0.072401	0.005145	0.694154
N54	N	0.129989	0.005144	0.694152
C55	C	0.192196	0.000000	0.633751
C56	C	-0.020744	-0.037115	0.670874
C57	C	-0.081371	-0.037104	0.670883
C58	C	-0.081366	0.037137	0.596650
C59	C	-0.020746	0.037131	0.596647
C60	C	0.009564	0.000001	0.633758
C61	C	0.823815	0.000012	0.633766
C62	C	0.888325	0.000014	0.633768
C63	C	0.633737	-0.190077	0.633746
C64	C	0.633736	-0.254588	0.633740
C65	C	0.707973	0.247789	0.596667
C66	C	0.707974	0.308404	0.596657
C67	C	0.633742	0.375826	0.633775
C68	C	0.559504	0.382630	0.670892
C69	C	0.559505	0.322015	0.670895
N70	N	0.578488	0.498625	0.694175
N71	N	0.578492	0.556205	0.694171
C72	C	0.633735	0.558459	0.633765
N73	N	0.688986	0.500952	0.573365
N74	N	0.688984	0.443366	0.573372
C75	C	0.633733	0.441557	0.633775
C76	C	0.707970	0.617376	0.596635
C77	C	0.707968	0.677994	0.596623
C78	C	0.559496	0.752220	0.670865
C79	C	0.559500	0.691602	0.670870
C80	C	0.633739	0.624182	0.633757
C81	C	0.559507	0.037119	0.385982
C82	C	0.559506	0.037122	0.325366
C83	C	0.633737	0.000005	0.257939
C84	C	0.707976	-0.037102	0.251129
C85	C	0.707975	-0.037098	0.311744
N86	N	0.688991	-0.060403	0.135140
N87	N	0.688987	-0.060405	0.077560
C88	C	0.633745	-0.000007	0.075306
N89	N	0.578494	0.060392	0.132813
N90	N	0.578496	0.060393	0.190399
C91	C	0.633747	-0.000003	0.192208
C92	C	0.559510	0.037105	0.016395
C93	C	0.559512	0.037110	-0.044223
C94	C	0.707984	-0.037121	-0.118461
C95	C	0.707980	-0.037119	-0.057843
C96	C	0.633741	-0.000008	0.009583
C97	C	0.633743	-0.000003	0.823842
C98	C	0.633744	-0.000006	0.888353
C99	C	0.443668	-0.000011	0.823837
C100	C	0.379159	-0.000017	0.888347
C101	C	0.443668	0.190076	0.633772
C102	C	0.379159	0.254585	0.633776
C103	C	0.443671	0.190069	0.823852
C104	C	0.379163	0.254575	0.888368
C105	C	0.823809	-0.190062	0.443670
C106	C	0.888317	-0.254568	0.379155
C107	C	0.823812	0.000019	0.443686
C108	C	0.888321	0.000024	0.379176
C109	C	0.823812	-0.190069	0.633750
C110	C	0.888321	-0.254578	0.633747
C111	C	0.348863	-0.037141	0.881521
C112	C	0.288259	-0.037160	0.942129
C113	C	0.257947	-0.000050	1.009562
C114	C	0.288248	0.037076	1.016386
C115	C	0.348856	0.037090	0.955779
C116	C	0.348866	0.322001	0.670898
C117	C	0.288262	0.382619	0.670898
C118	C	0.257947	0.375820	0.633781
C119	C	0.288246	0.308397	0.596655
C120	C	0.348853	0.247780	0.596650
C121	C	0.348870	0.247750	0.955785
C122	C	0.288266	0.308355	1.016410
C123	C	0.257953	0.375784	1.009615
C124	C	0.288253	0.382608	0.942191
C125	C	0.348859	0.322004	0.881568
C126	C	0.918617	-0.247743	0.311738
C127	C	0.979240	-0.308348	0.251113
C128	C	1.009556	-0.375777	0.257907
C129	C	0.979252	-0.382601	0.325332
C130	C	0.918635	-0.321997	0.385955
C131	C	0.918623	0.037142	0.386001
C132	C	0.979244	0.037144	0.325393
C133	C	1.009558	0.000032	0.257960
C134	C	0.979254	-0.037091	0.251136
C135	C	0.918638	-0.037097	0.311744
C136	C	0.918616	-0.247756	0.670871
C137	C	0.979221	-0.308363	0.670882
C138	C	1.009534	-0.375791	0.633763
C139	C	0.979232	-0.382611	0.596637
C140	C	0.918624	-0.322005	0.596632
H141	H	0.373528	-0.067359	0.701084
N142	N	0.885958	-0.077133	0.304377
H143	H	0.914363	-0.100639	0.252460
H144	H	0.825114	-0.043056	0.327903
H145	H	0.373510	0.192889	0.566424
H146	H	0.263559	0.067289	1.071298
N147	N	-0.114059	-0.077140	0.710914
H148	H	-0.085656	-0.100661	0.734420
H149	H	-0.103518	-0.114448	0.676828
N150	N	0.479439	0.329357	0.710938
H151	H	0.476137	0.305866	0.748290
H152	H	0.476177	0.305864	0.676852
N153	N	1.074924	0.000056	0.192596
H154	H	1.089532	-0.029083	0.148838
H155	H	1.125173	-0.021044	0.192636
N156	N	0.255547	-0.077171	0.710884
H157	H	0.194703	-0.043137	0.748239
H158	H	0.284002	-0.100693	0.734348
H159	H	0.499064	0.437529	0.701112
H160	H	1.058914	-0.425119	0.208538
N161	N	0.885931	-0.175035	0.710908
H162	H	0.914324	-0.179921	0.734427
H163	H	0.825085	-0.148273	0.748221
N164	N	1.011899	-0.300975	0.178399
H165	H	1.054902	-0.349596	0.141020
H166	H	1.036987	-0.274157	0.172792
H167	H	0.499055	0.807115	0.701082
N168	N	1.011929	0.077175	0.332766
H169	H	1.054940	0.071542	0.284143
H170	H	1.037017	0.057675	0.359578
N171	N	0.479442	0.077152	0.458706
H172	H	0.476133	0.043111	0.485510
H173	H	0.432461	0.100661	0.453766
H174	H	0.373541	0.192851	0.961330
H175	H	0.768420	0.562479	0.566412
N176	N	0.381561	0.329347	0.710927
H177	H	0.424554	0.280721	0.705297
H178	H	0.335271	0.356153	0.762835
N179	N	0.255573	-0.077193	0.934764
H180	H	0.266127	-0.114556	0.958243
H181	H	0.283980	-0.100646	0.882836
N182	N	1.011954	-0.455333	0.332648
H183	H	0.965714	-0.461022	0.359415
H184	H	1.037116	-0.460978	0.359404
H185	H	0.263563	0.437518	0.936670
H186	H	0.373516	0.327571	0.826676
N187	N	0.479439	0.077139	0.089118
H188	H	0.476132	0.114490	0.115924
H189	H	0.476175	0.043049	0.115863
H190	H	0.893964	-0.327569	0.566397
N191	N	0.788039	0.301068	0.556634
H192	H	0.776771	0.349699	0.562267
H193	H	0.820467	0.274261	0.504725
H194	H	1.058885	-0.425135	0.633773
N195	N	0.255586	0.455330	0.710954
H196	H	0.194742	0.482132	0.748306
H197	H	0.266196	0.482085	0.676875
H198	H	0.263554	0.302872	0.566435
N199	N	0.381549	-0.077170	0.808796
H200	H	0.370993	-0.043127	0.781997
H201	H	0.353138	-0.100686	0.813742
H202	H	0.893937	-0.192844	0.306192
N203	N	0.788033	0.670653	0.556589
H204	H	0.835059	0.618745	0.533083
H205	H	0.791258	0.694196	0.590673
N206	N	0.011952	0.077156	0.556608
H207	H	0.054950	0.071523	0.562239
H208	H	-0.034336	0.129062	0.576099
N209	N	0.885954	-0.329364	0.458668
H210	H	0.914359	-0.381278	0.453766
H211	H	0.825110	-0.305844	0.485431
N212	N	0.885934	0.077172	0.458728
H213	H	0.914339	0.100680	0.453844
H214	H	0.896482	0.043088	0.485490
H215	H	0.208603	0.425126	1.058985
N216	N	1.011940	-0.077104	0.178403
H217	H	1.054930	-0.071455	0.141051
H218	H	0.965642	-0.057601	0.172796
N219	N	1.011894	-0.300998	0.710928
H220	H	0.983496	-0.249085	0.734433
H221	H	1.072740	-0.324528	0.676852
H222	H	1.003922	-0.437519	0.566416
N223	N	0.192576	0.441204	0.633790
H224	H	0.177988	0.484941	0.662943
H225	H	0.142319	0.441170	0.654900
N226	N	0.255540	0.077163	0.556616
H227	H	0.212543	0.071530	0.562246
H228	H	0.301829	0.057680	0.504708
H229	H	0.373516	0.067351	0.566424
H230	H	0.263602	0.302786	1.071304
H231	H	0.003933	-0.067346	0.701095
H232	H	-0.106042	0.067359	0.566429
N233	N	0.479447	0.077138	-0.036877
H234	H	0.432421	0.100645	0.015035
H235	H	0.476218	0.043053	-0.060414
H236	H	0.499055	0.697148	0.701097
N237	N	0.788054	0.175083	0.556652
H238	H	0.820524	0.169394	0.504725
H239	H	0.776747	0.137745	0.562338
N240	N	0.479447	0.077137	0.332697
H241	H	0.446983	0.129063	0.359474
H242	H	0.447064	0.057604	0.359449
N243	N	0.788041	-0.077130	0.178407
H244	H	0.776779	-0.071503	0.141041
H245	H	0.820461	-0.129035	0.172792
N246	N	0.788039	-0.077125	0.304400
H247	H	0.835066	-0.100638	0.252488
H248	H	0.791267	-0.114439	0.327931
H249	H	0.768425	-0.067342	-0.173360
N250	N	0.788041	-0.077150	-0.065186
H251	H	0.835068	-0.100666	-0.117098
H252	H	0.791267	-0.114462	-0.041652
H253	H	0.208596	-0.000067	1.058907
H254	H	0.373514	0.067325	0.961346
