data_functionalizedCrystal
_audit_creation_method	'MofGen! by Chris Wilmer'
_symmetry_space_group_name_H-M	'P1'
_symmetry_Int_Tables_number	1
_symmetry_cell_setting	triclinic
loop_
_symmetry_equiv_pos_as_xyz
  x,y,z
_cell_length_a	14.395555
_cell_length_b	14.395555
_cell_length_c	14.628931
_cell_angle_alpha	60.000499
_cell_angle_beta	89.999942
_cell_angle_gamma	59.998876
loop_
_atom_site_label
_atom_site_type_symbol
_atom_site_fract_x
_atom_site_fract_y
_atom_site_fract_z
Zr1	Zr	0.894817	1.016873	-0.119992
O2	O	0.746483	1.210670	-0.265951
O3	O	0.940297	0.823072	-0.075246
O4	O	0.940287	1.016875	-0.265953
O5	O	0.746493	1.016867	0.075188
O6	O	1.093154	1.016882	-0.265957
O7	O	0.746494	1.016867	-0.075244
O8	O	1.093173	0.670203	0.075184
O9	O	0.746475	1.363545	-0.265952
O10	O	1.073768	0.902792	-0.056167
O11	O	0.959685	0.902787	0.056101
O12	O	0.959672	1.130965	-0.168432
O13	O	0.845589	1.130960	-0.056164
Zr14	Zr	1.138623	1.016885	0.119924
Zr15	Zr	1.138623	1.016884	-0.119997
Zr16	Zr	0.894817	1.016874	0.119929
Zr17	Zr	0.894804	1.260692	-0.119994
Zr18	Zr	1.138636	0.773066	0.119926
O19	O	1.093143	1.210686	0.075178
O20	O	1.093143	1.210685	-0.265959
O21	O	0.746483	1.210671	0.075186
O22	O	1.286957	0.823088	0.265883
O23	O	1.286957	0.823087	-0.075254
O24	O	0.940297	0.823073	0.265891
O25	O	1.286947	1.016891	-0.075256
O26	O	1.093153	1.016883	0.265885
O27	O	0.940286	1.016876	0.265889
O28	O	1.286946	1.016891	0.075176
O29	O	0.940268	1.363554	-0.265957
O30	O	1.093173	0.670204	0.265889
O31	O	1.286965	0.670213	0.265884
O32	O	1.286966	0.670212	0.075179
O33	O	0.746474	1.363546	-0.075247
O34	O	0.940267	1.363555	-0.075252
O35	O	1.073768	0.902793	0.168364
O36	O	1.187851	0.902797	0.056096
O37	O	1.073755	1.130971	-0.056169
O38	O	0.959672	1.130966	0.056099
C39	C	1.016737	0.711898	-0.000031
C40	C	1.016743	0.608391	-0.000030
C41	C	0.711757	1.016865	-0.000027
C42	C	0.608255	1.016861	-0.000025
C43	C	1.078935	0.547815	-0.061254
C44	C	1.124015	0.409709	0.044304
C45	C	0.971670	0.562063	-0.105576
C46	C	1.061885	0.471585	0.105590
C47	C	0.909480	0.624012	-0.044366
C48	C	0.954533	0.485915	0.061255
C49	C	0.609876	0.892450	0.061186
C50	C	0.516857	0.954644	0.105552
C51	C	0.516846	0.954672	-0.044359
C52	C	0.516598	1.079054	0.044403
C53	C	0.516602	1.079065	-0.105566
C54	C	0.423565	1.141349	-0.061226
C55	C	1.321684	1.016893	-0.000041
C56	C	1.425185	1.016897	-0.000043
C57	C	1.016721	1.016878	-0.300139
C58	C	1.016721	1.016878	-0.401992
C59	C	1.016703	1.321859	-0.000037
C60	C	1.016697	1.425367	-0.000038
C61	C	0.960122	1.130067	-0.503092
C62	C	0.960120	1.130069	-0.608363
C63	C	1.016720	1.016880	0.300071
C64	C	1.016719	1.016880	0.401924
C65	C	1.321701	0.711912	-0.000038
C66	C	1.425208	0.608409	-0.000039
C67	C	1.016737	0.711899	0.300074
C68	C	1.016742	0.608392	0.401928
C69	C	1.321700	0.711913	0.300067
C70	C	1.425208	0.608411	0.401918
C71	C	0.711740	1.321845	-0.300135
C72	C	0.608233	1.425347	-0.401986
C73	C	0.711740	1.321846	-0.000030
C74	C	0.608232	1.425349	-0.000029
C75	C	1.016704	1.321859	-0.300142
C76	C	1.016698	1.425366	-0.401996
C77	C	1.414762	0.562262	-0.055730
C78	C	1.521741	0.455286	-0.055733
C79	C	1.073338	0.562248	0.503027
C80	C	1.073345	0.455268	0.608300
C81	C	1.527947	0.562268	0.391634
C82	C	1.634929	0.455293	0.496902
H83	H	1.131612	0.574898	-0.112938
O84	O	0.801248	0.733218	-0.089017
C85	C	0.735357	0.701006	-0.025462
H86	H	0.775820	0.591367	0.021212
H87	H	0.645627	0.759080	-0.083581
H88	H	0.731342	0.726524	0.037375
O89	O	0.958843	0.561087	0.391766
C90	C	0.875291	0.584890	0.443644
H91	H	0.900345	0.597077	0.508789
H92	H	0.868127	0.498474	0.486236
H93	H	0.789841	0.678361	0.377860
O94	O	1.530381	0.560862	0.056988
C95	C	1.590170	0.424576	0.139163
H96	H	1.527034	0.398015	0.160971
H97	H	1.644043	0.396515	0.217425
H98	H	1.647778	0.368995	0.105547
H99	H	0.968305	0.448794	0.511289
O100	O	1.131121	0.609698	0.513122
C101	C	1.118233	0.705965	0.405765
H102	H	1.096291	0.689903	0.342410
H103	H	1.201087	0.698145	0.406716
H104	H	1.046904	0.807690	0.381358
H105	H	1.416450	0.568722	0.488655
H106	H	1.121799	0.415584	0.695029
H107	H	0.911671	1.226971	-0.511712
O108	O	1.519400	0.456499	0.608455
C109	C	1.506836	0.512850	0.667422
H110	H	1.594348	0.468890	0.720332
H111	H	1.455584	0.491623	0.724217
H112	H	1.460416	0.623603	0.605402
O113	O	0.517967	1.141560	-0.211948
C114	C	0.616882	1.054184	-0.220333
H115	H	0.684661	0.972869	-0.133860
H116	H	0.650164	1.109829	-0.278662
H117	H	0.595807	1.009201	-0.255258
O118	O	0.926276	0.606221	-0.211991
C119	C	0.925906	0.507681	-0.210427
H120	H	0.993351	0.407633	-0.130667
H121	H	0.945418	0.508988	-0.286424
H122	H	0.838651	0.526740	-0.212928
H123	H	0.911657	1.226975	-0.695093
H124	H	0.689637	0.787250	0.113018
O125	O	1.309529	0.609705	-0.112514
C126	C	1.226143	0.705970	-0.099886
H127	H	1.264147	0.689910	-0.020727
H128	H	1.151113	0.698144	-0.093139
H129	H	1.195740	0.807696	-0.175580
H130	H	0.343931	1.246636	-0.112985
O131	O	1.538285	0.609505	0.288113
C132	C	1.485468	0.585744	0.229358
H133	H	1.481130	0.500417	0.291543
H134	H	1.536870	0.560113	0.176296
H135	H	1.395697	0.677487	0.172726
O136	O	1.232243	0.300504	0.088873
C137	C	1.297557	0.332285	0.024099
H138	H	1.238814	0.423803	-0.063990
H139	H	1.359727	0.246836	0.019541
H140	H	1.346947	0.351915	0.064365
O141	O	1.107312	0.427174	0.212089
C142	C	1.025919	0.508904	0.238694
H143	H	0.960607	0.609481	0.158284
H144	H	1.070086	0.520342	0.293064
H145	H	0.981251	0.462980	0.286247
H146	H	0.901932	0.458886	0.113098
O147	O	1.740156	0.407871	0.486794
C148	C	1.823545	0.311612	0.594148
H149	H	1.785537	0.327660	0.657507
H150	H	1.898563	0.319460	0.593192
H151	H	1.853967	0.209882	0.618553
O152	O	0.515798	0.891741	-0.088902
C153	C	0.514332	0.784133	-0.009040
H154	H	0.550254	0.752622	0.078562
H155	H	0.568454	0.698849	-0.016309
H156	H	0.423107	0.813913	-0.024792
O157	O	1.074364	0.901342	-0.494558
C158	C	0.997852	0.894300	-0.435753
H159	H	0.919454	0.997740	-0.472399
H160	H	1.040991	0.844006	-0.343668
H161	H	0.971242	0.835460	-0.443639
O162	O	0.515892	0.891710	0.212056
C163	C	0.612992	0.760571	0.276325
H164	H	0.645758	0.729794	0.218519
H165	H	0.589718	0.693772	0.337510
H166	H	0.682017	0.752103	0.324915
H167	H	0.517422	1.131597	0.081993
H168	H	1.065180	0.919974	-0.393372
H169	H	1.512976	0.415596	-0.103407
O170	O	1.635096	0.456502	0.056763
C171	C	1.695014	0.512858	0.013675
H172	H	1.748787	0.468898	-0.029179
H173	H	1.752725	0.491634	0.084999
H174	H	1.631983	0.623609	-0.049633
