data_functionalizedCrystal
_audit_creation_method	'MofGen! by Chris Wilmer'
_symmetry_space_group_name_H-M	'P1'
_symmetry_Int_Tables_number	1
_symmetry_cell_setting	triclinic
loop_
_symmetry_equiv_pos_as_xyz
  x,y,z
_cell_length_a	17.038272
_cell_length_b	15.500228
_cell_length_c	17.038272
_cell_angle_alpha	86.957332
_cell_angle_beta	91.111556
_cell_angle_gamma	93.052174
loop_
_atom_site_label
_atom_site_type_symbol
_atom_site_fract_x
_atom_site_fract_y
_atom_site_fract_z
O1	O	-1.045342	0.071837	-0.173934
O2	O	-0.545342	0.571837	0.326066
O3	O	-0.817529	0.071863	-0.171227
O4	O	-0.317529	0.571863	0.328773
O5	O	-0.930082	0.071843	-0.058674
O6	O	-0.430082	0.571843	0.441326
O7	O	-0.932789	0.071857	-0.286487
O8	O	-0.432789	0.571857	0.213513
O9	O	-0.936907	-0.072046	-0.051866
O10	O	-0.436907	0.427954	0.448134
O11	O	-0.824354	-0.072027	-0.164418
O12	O	-0.324354	0.427973	0.335582
O13	O	-1.052167	-0.072052	-0.167125
O14	O	-0.552167	0.427948	0.332875
Cu15	Cu	-0.938883	-0.085178	-0.165150
Cu16	Cu	-0.438883	0.414822	0.334850
Cu17	Cu	-0.930813	0.084988	-0.173202
Cu18	Cu	-0.430813	0.584988	0.326798
O19	O	-0.939614	-0.072033	-0.279678
O20	O	-0.439614	0.427967	0.220322
C21	C	-0.791649	-0.000079	-0.165360
C22	C	-0.291649	0.499921	0.334640
C23	C	-0.704365	-0.000069	-0.158012
C24	C	-0.204365	0.499931	0.341988
C25	C	-0.931031	-0.000101	-0.025977
C26	C	-0.431031	0.499899	0.474023
C27	C	-0.923683	-0.000100	0.061306
C28	C	-0.423683	0.499900	0.561306
N29	N	-0.944566	-0.204864	-0.159487
N30	N	-0.444566	0.295136	0.340513
C31	C	-1.078047	-0.000109	-0.172992
C32	C	-0.578047	0.499891	0.327008
C33	C	-1.165331	-0.000113	-0.180340
C34	C	-0.665331	0.499887	0.319660
C35	C	-0.658755	-0.000066	-0.225476
C36	C	-0.158755	0.499934	0.274524
C37	C	-0.576744	-0.000078	-0.218567
C38	C	-0.076744	0.499922	0.281433
C39	C	-0.540343	-0.000088	-0.144193
C40	C	-0.040343	0.499912	0.355807
C41	C	-0.585959	-0.000094	-0.076724
C42	C	-0.085959	0.499906	0.423276
C43	C	-0.667969	-0.000088	-0.083634
C44	C	-0.167969	0.499912	0.416366
C45	C	-0.292957	-0.000112	-0.119781
C46	C	0.207043	0.499888	0.380219
C47	C	-0.210940	-0.000116	-0.112876
C48	C	0.289060	0.499884	0.387124
C49	C	-0.201731	-0.000102	-0.254720
C50	C	0.298269	0.499898	0.245280
C51	C	-0.283743	-0.000091	-0.261623
C52	C	0.216257	0.499909	0.238377
C53	C	-0.329351	-0.000101	-0.194154
C54	C	0.170649	0.499899	0.305846
C55	C	-0.456515	-0.000098	-0.137129
C56	C	0.043485	0.499902	0.362871
C57	C	-0.413179	-0.000098	-0.201219
C58	C	0.086821	0.499902	0.298781
N59	N	-0.925136	0.204674	-0.178860
N60	N	-0.425136	0.704674	0.321140
C61	C	-0.972933	0.249943	-0.131272
C62	C	-0.472933	0.749943	0.368728
C63	C	-0.968638	0.340516	-0.135549
C64	C	-0.468638	0.840516	0.364451
C65	C	-0.916542	0.385820	-0.187411
C66	C	-0.416542	0.885820	0.312589
C67	C	-0.868744	0.340545	-0.235003
C68	C	-0.368744	0.840545	0.264997
C69	C	-0.873043	0.249973	-0.230730
C70	C	-0.373043	0.749973	0.269270
C71	C	-0.901067	0.659289	-0.202806
C72	C	-0.401067	1.159289	0.297194
C73	C	-0.896769	0.749868	-0.207074
C74	C	-0.396769	1.249868	0.292926
C75	C	-0.996665	0.749833	-0.107621
C76	C	-0.496665	1.249833	0.392379
C77	C	-1.000956	0.659259	-0.103348
C78	C	-0.500956	1.159259	0.396652
C79	C	-0.953160	0.613992	-0.150944
C80	C	-0.453160	1.113992	0.349056
C81	C	-0.912149	0.478401	-0.191782
C82	C	-0.412149	0.978401	0.308218
C83	C	-0.957558	0.521413	-0.146576
C84	C	-0.457558	1.021413	0.353424
C85	C	-0.938664	-0.000087	-0.312375
C86	C	-0.438664	0.499913	0.187625
C87	C	-0.946012	-0.000082	-0.399659
C88	C	-0.446012	0.499918	0.100341
C89	C	-0.991147	-0.000109	0.106916
C90	C	-0.491147	0.499891	0.606916
C91	C	-0.984238	-0.000100	0.188927
C92	C	-0.484238	0.499900	0.688927
C93	C	-0.909864	-0.000088	0.225328
C94	C	-0.409864	0.499912	0.725328
C95	C	-0.842395	-0.000077	0.179712
C96	C	-0.342395	0.499923	0.679712
C97	C	-0.849305	-0.000080	0.097702
C98	C	-0.349305	0.499920	0.597702
C99	C	-0.885453	-0.000074	0.472715
C100	C	-0.385453	0.499926	0.972715
C101	C	-0.878548	-0.000074	0.554732
C102	C	-0.378548	0.499926	1.054732
C103	C	-1.020392	-0.000094	0.563941
C104	C	-0.520392	0.499906	1.063941
C105	C	-1.027295	-0.000102	0.481929
C106	C	-0.527295	0.499898	0.981929
C107	C	-0.959826	-0.000087	0.436320
C108	C	-0.459826	0.499913	0.936320
C109	C	-0.902800	-0.000082	0.309157
C110	C	-0.402800	0.499918	0.809157
C111	C	-0.966891	-0.000087	0.352493
C112	C	-0.466891	0.499913	0.852493
H113	H	-0.688386	-0.000058	-0.286039
H114	H	-0.188386	0.499942	0.213961
H115	H	-0.539612	-0.000075	-0.273503
H116	H	-0.039612	0.499925	0.226497
H117	H	-0.442820	-0.000095	-0.261773
H118	H	0.057180	0.499905	0.238227
H119	H	-1.007558	0.377373	-0.096801
H120	H	-0.507558	0.877373	0.403199
H121	H	-0.164588	-0.000096	-0.309649
H122	H	0.335412	0.499904	0.190351
H123	H	-0.426869	-0.000130	-0.076572
H124	H	0.073131	0.499870	0.423428
C125	C	-1.071241	0.259015	-0.033397
C126	C	-0.571241	0.759015	0.466603
C127	C	-1.030195	0.200149	-0.074261
C128	C	-0.530195	0.700149	0.425739
H129	H	-1.106597	0.228275	0.001796
H130	H	-0.606597	0.728275	0.501796
H131	H	-1.035053	0.294337	-0.004562
H132	H	-0.535053	0.794337	0.495438
H133	H	-1.099922	0.294347	-0.069715
H134	H	-0.599922	0.794347	0.430285
H135	H	-1.001510	0.164822	-0.037944
H136	H	-0.501510	0.664822	0.462056
H137	H	-1.066389	0.164813	-0.103098
H138	H	-0.566389	0.664813	0.396902
C139	C	-0.858123	0.777811	-0.341185
C140	C	-0.358123	1.277811	0.158815
C141	C	-0.839508	0.799673	-0.264087
C142	C	-0.339508	1.299673	0.235913
H143	H	-0.822776	0.808565	-0.376378
H144	H	-0.322776	1.308565	0.123622
H145	H	-0.853836	0.717400	-0.345454
H146	H	-0.353836	1.217400	0.154546
H147	H	-0.910380	0.792656	-0.354013
H148	H	-0.410380	1.292656	0.145987
H149	H	-0.787253	0.784822	-0.251257
H150	H	-0.287253	1.284822	0.248743
H151	H	-0.843788	0.860097	-0.259815
H152	H	-0.343788	1.360097	0.240185
H153	H	-1.039175	-0.000108	0.226060
H154	H	-0.539175	0.499892	0.726060
H155	H	-0.830514	-0.000061	0.435590
H156	H	-0.330514	0.499939	0.935590
H157	H	-0.834123	0.213116	-0.269482
H158	H	-0.334123	0.713116	0.230518
H159	H	-0.781838	-0.000063	0.209356
H160	H	-0.281838	0.499937	0.709356
C161	C	-0.386999	0.073858	-0.048760
C162	C	0.113001	0.573858	0.451240
C163	C	-0.343081	-0.000112	-0.045619
C164	C	0.156919	0.499888	0.454381
H165	H	-0.417948	0.073855	-0.002974
H166	H	0.082052	0.573855	0.497026
H167	H	-0.352427	0.124024	-0.051389
H168	H	0.147573	0.624024	0.448611
H169	H	-0.420416	0.073851	-0.094041
H170	H	0.079584	0.573851	0.405959
H171	H	-0.309659	-0.000101	-0.000340
H172	H	0.190341	0.499899	0.499660
H173	H	-0.377656	-0.050291	-0.042982
H174	H	0.122344	0.449709	0.457018
H175	H	-0.556316	-0.000114	-0.016167
H176	H	-0.056316	0.499886	0.483833
H177	H	-0.313374	-0.000073	-0.322187
H178	H	0.186626	0.499927	0.177813
H179	H	-1.075321	-0.000105	0.601084
H180	H	-0.575321	0.499895	1.101084
C181	C	-0.769055	-0.074057	-0.005616
C182	C	-0.269055	0.425943	0.494384
C183	C	-0.718104	-0.000090	-0.009475
C184	C	-0.218104	0.499910	0.490525
H185	H	-0.800002	-0.074062	0.040172
H186	H	-0.300002	0.425938	0.540172
H187	H	-0.802467	-0.074045	-0.050893
H188	H	-0.302467	0.425955	0.449107
H189	H	-0.739248	-0.124230	-0.003497
H190	H	-0.239248	0.375770	0.496503
H191	H	-0.747912	0.050083	-0.011600
H192	H	-0.247912	0.550083	0.488400
H193	H	-0.684689	-0.000094	0.035814
H194	H	-0.184689	0.499906	0.535814
H195	H	-1.035578	0.786697	-0.068871
H196	H	-0.535578	1.286697	0.431129
H197	H	-0.181306	-0.000123	-0.052309
H198	H	0.318694	0.499877	0.447691
H199	H	-1.043376	0.622375	-0.061119
H200	H	-0.543376	1.122375	0.438881
H201	H	-0.826330	0.377436	-0.277234
H202	H	-0.326330	0.877436	0.222766
H203	H	-0.862148	0.622440	-0.241559
H204	H	-0.362148	1.122440	0.258441
H205	H	-0.999977	0.484524	-0.104354
H206	H	-0.499977	0.984524	0.395646
H207	H	-0.869731	0.515294	-0.234007
H208	H	-0.369731	1.015294	0.265993
H209	H	-1.051711	-0.000123	0.077285
H210	H	-0.551711	0.499877	0.577285
H211	H	-1.087858	-0.000111	0.452298
H212	H	-0.587858	0.499889	0.952298
H213	H	-0.817982	-0.000078	0.584367
H214	H	-0.317982	0.499922	1.084367
C215	C	-0.727027	0.073902	0.061097
C216	C	-0.227027	0.573902	0.561097
C217	C	-0.775146	-0.000072	0.047565
C218	C	-0.275146	0.499928	0.547565
H219	H	-0.681241	0.073906	0.030148
H220	H	-0.181241	0.573906	0.530148
H221	H	-0.754922	0.124065	0.047170
H222	H	-0.254922	0.624065	0.547170
H223	H	-0.712274	0.073893	0.115151
H224	H	-0.212274	0.573893	0.615151
H225	H	-0.789904	-0.000060	-0.006488
H226	H	-0.289904	0.499940	0.493512
H227	H	-0.747246	-0.050248	0.061487
H228	H	-0.247246	0.449752	0.561487
H229	H	-1.027444	-0.000077	0.322851
H230	H	-0.527444	0.499923	0.822851
H231	H	-0.842245	-0.000075	0.338803
H232	H	-0.342245	0.499925	0.838803
