data_functionalizedCrystal
_audit_creation_method	'MofGen! by Chris Wilmer'
_symmetry_space_group_name_H-M	'P1'
_symmetry_Int_Tables_number	1
_symmetry_cell_setting	triclinic
loop_
_symmetry_equiv_pos_as_xyz
  x,y,z
_cell_length_a	27.731994
_cell_length_b	11.792254
_cell_length_c	10.868271
_cell_angle_alpha	89.995741
_cell_angle_beta	89.996632
_cell_angle_gamma	96.590294
loop_
_atom_site_label
_atom_site_type_symbol
_atom_site_fract_x
_atom_site_fract_y
_atom_site_fract_z
O1	O	-0.066279	1.504750	-0.102296
O2	O	-0.073100	1.174189	-0.102296
O3	O	0.000649	1.349768	-0.102315
O4	O	-0.140028	1.329171	-0.102278
O5	O	0.000652	1.349753	0.102330
O6	O	-0.073097	1.174175	0.102348
O7	O	-0.066276	1.504736	0.102349
Zn8	Zn	-0.069686	1.339453	0.134840
Zn9	Zn	-0.069690	1.339472	-0.134788
O10	O	-0.140025	1.329157	0.102367
C11	C	-0.072669	1.131905	0.000026
C12	C	-0.071383	1.005934	0.000024
C13	C	-0.070338	0.903631	0.000019
C14	C	-0.069031	0.775287	0.000018
C15	C	-0.158037	1.329587	0.000049
C16	C	-0.211700	1.330861	0.000063
C17	C	-0.544467	1.338887	-0.111543
C18	C	-0.746153	1.343727	-0.111561
O19	O	-0.772231	1.344408	-0.206432
N20	N	-0.771370	1.344320	-0.000010
C21	C	-0.746162	1.343711	0.111554
O22	O	-0.772237	1.344339	0.206435
C23	C	-0.544476	1.338880	0.111571
C24	C	-0.519262	1.338275	0.000012
C25	C	-0.519253	1.338284	-0.223092
C26	C	-0.468835	1.337068	-0.223087
C27	C	-0.443631	1.336455	-0.111531
C28	C	-0.468844	1.337059	0.000018
C29	C	-0.519268	1.338278	0.223133
C30	C	-0.468843	1.337073	0.223127
C31	C	-0.443630	1.336469	0.111569
C32	C	-0.393221	1.335230	0.111579
N33	N	-0.368005	1.334637	0.000027
C34	C	-0.393209	1.335249	-0.111528
C35	C	-0.852050	1.346246	0.111537
C36	C	-0.902471	1.347452	0.111533
C37	C	-0.902459	1.347470	-0.111582
C38	C	-0.852037	1.346255	-0.111577
C39	C	-0.826833	1.345652	-0.000014
C40	C	-0.287327	1.332694	-0.111507
C41	C	-0.236905	1.331473	-0.111492
C42	C	-0.236921	1.331461	0.111623
C43	C	-0.287339	1.332676	0.111608
C44	C	-0.312541	1.333297	0.000033
O45	O	-0.367112	1.334561	0.206400
O46	O	-0.367124	1.334647	-0.206394
C47	C	-0.594885	1.340103	-0.111548
C48	C	-0.620099	1.340707	0.000001
C49	C	-0.594894	1.340094	0.111556
C50	C	-0.670520	1.341913	-0.000003
C51	C	-0.695725	1.342525	-0.111558
C52	C	-0.670508	1.341932	-0.223109
C53	C	-0.620090	1.340716	-0.223104
C54	C	-0.620111	1.340688	0.223107
C55	C	-0.670529	1.341902	0.223092
C56	C	-0.695734	1.342515	0.111537
C57	C	0.018660	1.349338	0.000000
C58	C	0.072324	1.348064	-0.000022
C59	C	-0.066707	1.547019	0.000024
C60	C	-0.067993	1.672991	0.000017
N61	N	-0.069683	1.339449	0.318854
N62	N	-0.069689	1.339485	-0.318802
C63	C	-0.069689	1.339466	0.569860
C64	C	-0.069687	1.339453	0.430183
H65	H	-0.216378	1.330977	-0.202340
H66	H	-0.922997	1.347922	0.202375
O67	O	-0.311797	1.333076	0.220043
C68	C	-0.304712	1.234418	0.287874
H69	H	-0.269839	1.200770	0.256164
H70	H	-0.336742	1.166250	0.272375
C71	C	-0.343646	1.305514	0.464687
C72	C	-0.300812	1.264193	0.425747
H73	H	-0.341242	1.323877	0.549734
H74	H	-0.348421	1.371980	0.418987
H75	H	-0.370333	1.248700	0.451761
H76	H	-0.274126	1.321011	0.438659
H77	H	-0.296032	1.197736	0.471452
O78	O	-0.827489	1.345822	-0.219870
C79	C	-0.793115	1.443467	-0.226584
H80	H	-0.783816	1.476067	-0.129734
H81	H	-0.808897	1.512785	-0.281630
C82	C	-0.758229	1.372414	-0.409339
C83	C	-0.746805	1.412449	-0.290386
H84	H	-0.729664	1.353283	-0.448700
H85	H	-0.781389	1.306631	-0.404820
H86	H	-0.771382	1.430186	-0.455195
H87	H	-0.733659	1.354673	-0.244528
H88	H	-0.723642	1.478222	-0.294899
H89	H	-0.216391	1.330958	0.202448
H90	H	-0.691055	1.342384	0.313944
H91	H	-0.922990	1.347961	-0.202415
O92	O	-0.827608	1.345441	0.219956
C93	C	-0.845171	1.247411	0.287806
H94	H	-0.862669	1.179033	0.222508
H95	H	-0.873272	1.270331	0.357337
C96	C	-0.781271	1.285714	0.436402
C97	C	-0.802758	1.201728	0.356200
H98	H	-0.755110	1.257536	0.478596
H99	H	-0.769440	1.351761	0.390694
H100	H	-0.804693	1.304806	0.494334
H101	H	-0.779338	1.182647	0.298261
H102	H	-0.814585	1.135676	0.401900
H103	H	-0.448325	1.336583	0.313978
O104	O	-0.595673	1.340186	-0.331582
C105	C	-0.628741	1.340958	-0.430031
H106	H	-0.662774	1.377763	-0.397315
H107	H	-0.638939	1.250006	-0.464328
C108	C	-0.563314	1.369741	-0.575618
C109	C	-0.605112	1.414955	-0.535438
H110	H	-0.548738	1.415381	-0.640641
H111	H	-0.541035	1.369217	-0.509292
H112	H	-0.571819	1.293949	-0.604190
H113	H	-0.596606	1.490740	-0.506852
H114	H	-0.627389	1.415493	-0.601761
O115	O	-0.444416	1.336571	-0.331565
C116	C	-0.477484	1.337362	-0.430014
H117	H	-0.511522	1.374135	-0.397282
H118	H	-0.487673	1.246419	-0.464350
C119	C	-0.412055	1.366234	-0.575588
C120	C	-0.453859	1.411409	-0.535388
H121	H	-0.397482	1.411905	-0.640591
H122	H	-0.389776	1.365698	-0.509262
H123	H	-0.420551	1.290450	-0.604193
H124	H	-0.445361	1.487186	-0.506770
H125	H	-0.476136	1.411960	-0.601712
H126	H	-0.539788	1.338783	0.313976
H127	H	-0.307841	1.333200	-0.202362
H128	H	-0.691039	1.342423	-0.313941
H129	H	-0.599595	1.340192	0.313951
H130	H	-0.539769	1.338786	-0.313939
