data_functionalizedCrystal
_audit_creation_method	'MofGen! by Chris Wilmer'
_symmetry_space_group_name_H-M	'P1'
_symmetry_Int_Tables_number	1
_symmetry_cell_setting	triclinic
loop_
_symmetry_equiv_pos_as_xyz
  x,y,z
_cell_length_a	10.654556
_cell_length_b	12.811415
_cell_length_c	9.730223
_cell_angle_alpha	84.564740
_cell_angle_beta	89.998368
_cell_angle_gamma	84.264596
loop_
_atom_site_label
_atom_site_type_symbol
_atom_site_fract_x
_atom_site_fract_y
_atom_site_fract_z
O1	O	1.667068	0.147458	-0.132614
O2	O	1.301518	0.161497	-0.134377
O3	O	1.493490	0.001752	-0.114454
O4	O	1.475097	0.307203	-0.152537
O5	O	1.493477	0.001748	0.114126
O6	O	1.301506	0.161493	0.094203
O7	O	1.667056	0.147454	0.095967
Zn8	Zn	1.484279	0.154473	0.131377
Zn9	Zn	1.484295	0.154478	-0.169787
O10	O	1.475085	0.307199	0.076044
C11	C	1.254719	0.160463	-0.019960
C12	C	1.115293	0.157374	-0.019580
C13	C	0.918776	0.153029	-0.143627
C14	C	1.049784	0.155924	-0.143996
C15	C	1.049789	0.155919	0.105215
C16	C	0.918785	0.153016	0.105584
C17	C	1.492453	-0.037362	0.004709
C18	C	1.489366	-0.153903	0.019230
C19	C	1.483557	-0.372879	-0.202711
C20	C	1.480657	-0.482379	-0.189074
C21	C	1.480656	-0.482405	0.060140
C22	C	1.483557	-0.372905	0.046503
C23	C	1.485009	-0.318146	-0.084927
C24	C	1.487918	-0.208644	-0.098562
C25	C	1.487909	-0.208671	0.150650
C26	C	1.485008	-0.318171	0.164287
C27	C	1.713855	0.148488	-0.018453
C28	C	1.853282	0.151577	-0.018842
C29	C	1.476122	0.346313	-0.043123
C30	C	1.479208	0.462854	-0.057653
N31	N	1.484277	0.154468	0.336914
N32	N	1.484307	0.154475	-0.375323
C33	C	1.569311	0.083763	0.417658
C34	C	1.569323	0.083763	0.561541
C35	C	1.399264	0.225183	0.543922
C36	C	1.399246	0.225177	0.400042
H37	H	0.865458	0.151833	0.207205
H38	H	1.483821	-0.362770	0.271293
H39	H	1.103138	0.157093	0.206517
C40	C	1.489229	-0.149167	0.278493
C41	C	1.382968	-0.075297	0.276605
C42	C	1.384140	-0.020476	0.394357
H43	H	1.563428	-0.113832	0.279404
H44	H	1.487883	-0.197430	0.358747
H45	H	1.384325	-0.027041	0.196372
H46	H	1.308751	-0.110604	0.275714
H47	H	1.382795	-0.068739	0.474611
H48	H	1.458344	0.014853	0.395258
H49	H	1.312038	0.029644	0.393098
H50	H	1.479470	-0.526939	-0.284986
H51	H	1.489104	-0.164061	-0.205579
H52	H	1.103104	0.157105	-0.245609
C53	C	1.661673	0.006871	0.349381
C54	C	1.736120	-0.055068	0.450900
C55	C	1.821205	-0.125926	0.388061
H56	H	1.714258	0.044911	0.288491
H57	H	1.616296	-0.037236	0.298797
H58	H	1.781493	-0.010967	0.501461
H59	H	1.683570	-0.093131	0.511796
H60	H	1.775829	-0.170033	0.337477
H61	H	1.873781	-0.087877	0.327172
H62	H	1.871719	-0.167967	0.456932
C63	C	1.661448	0.006877	0.649294
C64	C	1.594236	-0.057922	0.739962
C65	C	1.679061	-0.128775	0.820808
H66	H	1.713955	0.044923	0.700780
H67	H	1.712064	-0.035294	0.591136
H68	H	1.543642	-0.015756	0.798113
H69	H	1.541735	-0.095991	0.688513
H70	H	1.729677	-0.170946	0.762650
H71	H	1.731563	-0.090721	0.872285
H72	H	1.633470	-0.172756	0.882327
C73	C	1.306897	0.301787	0.612666
C74	C	1.229771	0.245276	0.702365
C75	C	1.144680	0.315811	0.765727
H76	H	1.256125	0.343925	0.544125
H77	H	1.352273	0.345821	0.663367
H78	H	1.184399	0.201260	0.651666
H79	H	1.280508	0.203141	0.770931
H80	H	1.190056	0.359844	0.816428
H81	H	1.093917	0.357945	0.697177
H82	H	1.092348	0.277479	0.826604
H83	H	1.329996	0.282754	0.334296
C84	C	1.484884	-0.313444	-0.345432
C85	C	1.376255	-0.329022	-0.418668
C86	C	1.377430	-0.274275	-0.550141
H87	H	1.557477	-0.338798	-0.393630
H88	H	1.486752	-0.240374	-0.336736
H89	H	1.374399	-0.402076	-0.427370
H90	H	1.303645	-0.303664	-0.370512
H91	H	1.379298	-0.201206	-0.541445
H92	H	1.450027	-0.299634	-0.598326
H93	H	1.303721	-0.284829	-0.599843
C94	C	1.479012	-0.541672	0.202944
C95	C	1.480872	-0.470302	0.303184
C96	C	1.479340	-0.524859	0.434750
H97	H	1.551003	-0.591867	0.214568
H98	H	1.404699	-0.576887	0.212576
H99	H	1.555177	-0.435104	0.293557
H100	H	1.408887	-0.420106	0.291605
H101	H	1.405027	-0.560074	0.444382
H102	H	1.551332	-0.575051	0.446361
H103	H	1.480590	-0.476442	0.502779
C104	C	0.847892	0.151410	-0.278850
C105	C	0.933301	0.153274	-0.388205
C106	C	0.868055	0.151769	-0.512793
H107	H	0.787530	0.211364	-0.291700
H108	H	0.806074	0.089154	-0.276340
H109	H	0.975099	0.215524	-0.390717
H110	H	0.993666	0.093326	-0.375401
H111	H	0.826237	0.089512	-0.510284
H112	H	0.807695	0.211723	-0.525629
H113	H	0.925996	0.153023	-0.587005
