data_functionalizedCrystal
_audit_creation_method	'MofGen! by Chris Wilmer'
_symmetry_space_group_name_H-M	'P1'
_symmetry_Int_Tables_number	1
_symmetry_cell_setting	triclinic
loop_
_symmetry_equiv_pos_as_xyz
  x,y,z
_cell_length_a	15.944551
_cell_length_b	14.519709
_cell_length_c	13.596369
_cell_angle_alpha	90.006934
_cell_angle_beta	90.000836
_cell_angle_gamma	83.589442
loop_
_atom_site_label
_atom_site_type_symbol
_atom_site_fract_x
_atom_site_fract_y
_atom_site_fract_z
O1	O	-1.114698	-0.118943	-0.081691
O2	O	-0.870169	-0.133607	-0.081716
O3	O	-0.998917	0.007975	-0.081694
O4	O	-0.985950	-0.260525	-0.081713
O5	O	-0.998904	0.007982	0.081889
O6	O	-0.870156	-0.133600	0.081867
O7	O	-1.114685	-0.118936	0.081892
Zn8	Zn	-0.992419	-0.126267	0.107852
Zn9	Zn	-0.992435	-0.126276	-0.107676
O10	O	-0.985937	-0.260518	0.081870
C11	C	-0.838868	-0.132995	0.000073
C12	C	-0.745619	-0.131170	0.000064
C13	C	-1.145986	-0.119548	0.000101
C14	C	-1.239235	-0.121373	0.000104
C15	C	-0.530629	-0.039048	0.000089
C16	C	-0.469677	-0.081830	-0.080569
C17	C	-0.574889	-0.127868	0.000075
C18	C	-0.469687	-0.081844	0.080711
C19	C	-0.409971	-0.124672	0.000091
C20	C	-0.515165	-0.170674	-0.080649
C21	C	-0.515181	-0.170675	0.080703
C22	C	-0.454247	-0.213522	0.000025
C23	C	-0.669894	-0.129706	0.000065
C24	C	-0.314967	-0.122840	0.000094
C25	C	-0.998306	0.042337	0.000098
C26	C	-0.996495	0.144715	0.000098
C27	C	-0.986548	-0.294880	0.000076
C28	C	-0.988359	-0.397258	0.000070
N29	N	-0.992413	-0.126259	0.254944
C30	C	-0.989829	0.519599	0.000072
C31	C	-0.991680	0.415295	0.000080
C32	C	-0.993162	0.332161	0.000086
C33	C	-0.995013	0.227849	0.000092
N34	N	-0.992448	-0.126276	-0.254767
C35	C	-0.992434	-0.126277	0.656235
C36	C	-0.992426	-0.126275	0.544583
C37	C	-0.992424	-0.126269	0.455593
C38	C	-0.992415	-0.126266	0.343934
H39	H	-0.563855	0.034665	-0.000005
C40	C	-0.542246	-0.221384	-0.172878
N41	N	-0.562647	-0.259574	-0.242345
H42	H	-0.449518	-0.044266	-0.148754
C43	C	-0.409588	-0.313204	-0.000044
N44	N	-0.375948	-0.388283	-0.000101
C45	C	-0.442472	-0.031068	0.172831
N46	N	-0.421977	0.007183	0.242213
H47	H	-0.535361	-0.208208	0.148892
