data_functionalizedCrystal
_audit_creation_method	'MofGen! by Chris Wilmer'
_symmetry_space_group_name_H-M	'P1'
_symmetry_Int_Tables_number	1
_symmetry_cell_setting	triclinic
loop_
_symmetry_equiv_pos_as_xyz
  x,y,z
_cell_length_a	10.723022
_cell_length_b	10.489741
_cell_length_c	9.798715
_cell_angle_alpha	89.998999
_cell_angle_beta	89.998022
_cell_angle_gamma	84.503200
loop_
_atom_site_label
_atom_site_type_symbol
_atom_site_fract_x
_atom_site_fract_y
_atom_site_fract_z
O1	O	0.176061	1.693939	-0.113403
O2	O	0.676061	2.193939	0.386597
O3	O	0.192587	1.322733	-0.113424
O4	O	0.692587	1.822733	0.386576
O5	O	0.002753	1.516899	-0.113408
O6	O	0.502753	2.016899	0.386592
O7	O	0.365895	1.499772	-0.113419
O8	O	0.865895	1.999772	0.386581
O9	O	0.002752	1.516885	0.113574
O10	O	0.502752	2.016885	0.613574
O11	O	0.192586	1.322718	0.113558
O12	O	0.692586	1.822718	0.613558
O13	O	0.176060	1.693924	0.113579
O14	O	0.676060	2.193924	0.613579
Zn15	Zn	0.184323	1.508319	0.149607
Zn16	Zn	0.684323	2.008319	0.649607
Zn17	Zn	0.184324	1.508338	-0.149452
Zn18	Zn	0.684324	2.008338	0.350548
O19	O	0.365894	1.499758	0.113563
O20	O	0.865894	1.999758	0.613563
C21	C	-0.043748	1.515646	0.000082
C22	C	0.456252	2.015646	0.500082
C23	C	-0.182305	1.511918	0.000077
C24	C	0.317695	2.011918	0.500077
C25	C	0.191338	1.275194	0.000065
C26	C	0.691338	1.775194	0.500065
C27	C	0.187604	1.133567	0.000057
C28	C	0.687604	1.633567	0.500057
C29	C	-0.400419	1.616708	0.000076
C30	C	0.099581	2.116708	0.500076
C31	C	-0.257214	1.620563	0.000081
C32	C	0.242786	2.120563	0.500081
C33	C	0.066818	1.065505	0.000073
C34	C	0.566818	1.565505	0.500073
C35	C	0.123876	0.973349	-0.111840
C36	C	0.623876	1.473349	0.388160
C37	C	0.123905	0.973368	0.111947
C38	C	0.623905	1.473368	0.611947
C39	C	0.244712	1.043276	-0.111949
C40	C	0.744712	1.543276	0.388051
C41	C	0.244724	1.043306	0.111939
C42	C	0.744724	1.543306	0.611939
C43	C	0.301870	0.951177	-0.000002
C44	C	0.801870	1.451177	0.499998
C45	C	0.412395	1.501011	0.000071
C46	C	0.912395	2.001011	0.500071
C47	C	0.550952	1.504739	0.000067
C48	C	1.050952	2.004739	0.500067
C49	C	0.177308	1.741463	0.000088
C50	C	0.677308	2.241463	0.500088
C51	C	0.181043	1.883090	0.000087
C52	C	0.681043	2.383090	0.500087
N53	N	0.184322	1.508315	0.353707
N54	N	0.684322	2.008315	0.853707
N55	N	0.184315	1.508352	-0.353551
N56	N	0.684315	2.008352	0.146449
C57	C	0.104264	1.589840	0.421490
C58	C	0.604264	2.089840	0.921490
C59	C	0.104260	1.589861	0.578653
C60	C	0.604260	2.089861	1.078653
H61	H	-0.464804	1.709715	0.000087
H62	H	0.035196	2.209715	0.500087
C63	C	-0.362072	1.379086	0.000061
C64	C	0.137928	1.879086	0.500061
N65	N	-0.296562	1.284440	0.000053
N66	N	0.203438	1.784440	0.500053
H67	H	-0.215343	1.716431	0.000039
H68	H	0.284657	2.216431	0.500039
H69	H	0.072769	0.942373	-0.206453
H70	H	0.572769	1.442373	0.293547
C71	C	-0.067342	1.132672	-0.000074
C72	C	0.432658	1.632672	0.499926
N73	N	-0.168389	1.183265	-0.000191
N74	N	0.331611	1.683265	0.499809
C75	C	0.011661	1.684156	0.657399
C76	C	0.511661	2.184156	1.157399
N77	N	-0.058089	1.755181	0.716715
N78	N	0.441911	2.255181	1.216715
H79	H	0.035722	1.659619	0.363174
H80	H	0.535722	2.159619	0.863174
H81	H	0.401268	0.901688	-0.000066
H82	H	0.901268	1.401688	0.499934
C83	C	0.276917	1.414052	0.567711
C84	C	0.776917	1.914052	1.067711
N85	N	0.346663	1.343023	0.508396
N86	N	0.846663	1.843023	1.008396
C87	C	0.313691	1.084884	-0.239920
C88	C	0.813691	1.584884	0.260080
N89	N	0.365640	1.116227	-0.336310
N90	N	0.865640	1.616227	0.163690
H91	H	-0.224167	1.416046	0.000062
H92	H	0.275833	1.916046	0.500062
H93	H	0.295789	1.074313	0.206556
H94	H	0.795789	1.574313	0.706556
H95	H	0.072775	0.942417	0.206561
H96	H	0.572775	1.442417	0.706561
H97	H	0.252855	1.438528	0.412026
H98	H	0.752855	1.938528	0.912026
