data_functionalizedCrystal
_audit_creation_method	'MofGen! by Chris Wilmer'
_symmetry_space_group_name_H-M	'P1'
_symmetry_Int_Tables_number	1
_symmetry_cell_setting	triclinic
loop_
_symmetry_equiv_pos_as_xyz
  x,y,z
_cell_length_a	16.120490
_cell_length_b	16.120484
_cell_length_c	11.169409
_cell_angle_alpha	87.139270
_cell_angle_beta	92.919204
_cell_angle_gamma	90.164100
loop_
_atom_site_label
_atom_site_type_symbol
_atom_site_fract_x
_atom_site_fract_y
_atom_site_fract_z
Zn1	Zn	1.254512	-0.395595	0.798882
Zn2	Zn	1.754512	0.104405	1.298882
Zn3	Zn	1.247346	-0.534674	0.607804
Zn4	Zn	1.747346	-0.034674	1.107804
Zn5	Zn	1.115442	-0.388576	0.587559
Zn6	Zn	1.615442	0.111424	1.087559
Zn7	Zn	1.108364	-0.527541	0.797789
Zn8	Zn	1.608364	-0.027541	1.297789
O9	O	1.181416	-0.461597	0.698009
O10	O	1.681416	0.038403	1.198009
O11	O	1.369927	-0.419968	0.782466
O12	O	1.869927	0.080032	1.282466
O13	O	1.229812	-0.515342	0.437169
O14	O	1.729812	-0.015342	0.937169
O15	O	1.139850	-0.273145	0.607576
O16	O	1.639850	0.226855	1.107576
O17	O	1.364663	-0.522148	0.642081
O18	O	1.864663	-0.022148	1.142081
O19	O	1.242025	-0.278302	0.762835
O20	O	1.742025	0.221698	1.262835
O21	O	1.132902	-0.408004	0.422295
O22	O	1.632902	0.091996	0.922295
O23	O	0.998137	-0.401087	0.606516
O24	O	1.498137	0.098913	1.106516
O25	O	1.127788	-0.509990	0.965883
O26	O	1.627788	-0.009990	1.465883
O27	O	0.992937	-0.503184	0.760971
O28	O	1.492937	-0.003184	1.260971
O29	O	1.235162	-0.413050	0.966686
O30	O	1.735162	0.086950	1.466686
O31	O	1.222949	-0.650090	0.641021
O32	O	1.722949	-0.150090	1.141021
O33	O	1.120839	-0.644849	0.780602
O34	O	1.620839	-0.144849	1.280602
C35	C	0.965364	-0.450600	0.681429
C36	C	1.465364	0.049400	1.181429
C37	C	0.872935	-0.445916	0.674365
C38	C	1.372935	0.054084	1.174365
C39	C	1.170371	-0.677642	0.712918
C40	C	1.670371	-0.177642	1.212918
C41	C	1.165722	-0.770071	0.719342
C42	C	1.665722	-0.270071	1.219342
C43	C	0.659968	-0.485888	0.734648
C44	C	1.159968	0.014112	1.234648
C45	C	0.703711	-0.437371	0.661469
C46	C	1.203711	0.062629	1.161469
C47	C	0.797876	-0.442127	0.668647
C48	C	1.297876	0.057873	1.168647
C49	C	0.565795	-0.481134	0.727471
C50	C	1.065795	0.018866	1.227471
C51	C	1.157240	-0.939300	0.731096
C52	C	1.657240	-0.439300	1.231096
C53	C	1.205741	-0.983060	0.664953
C54	C	1.705741	-0.483060	1.164953
C55	C	1.201022	-1.077225	0.671492
C56	C	1.701022	-0.577225	1.171492
C57	C	1.161958	-0.845127	0.724557
C58	C	1.661958	-0.345127	1.224557
C59	C	1.398311	-0.472636	0.714654
C60	C	1.898311	0.027364	1.214654
C61	C	1.490739	-0.477341	0.721747
C62	C	1.990739	0.022659	1.221747
C63	C	1.181485	-0.461508	1.011050
C64	C	1.681485	0.038492	1.511050
C65	C	1.181514	-0.461470	1.144449
C66	C	1.681514	0.038530	1.644449
C67	C	1.192526	-0.244709	0.683069
C68	C	1.692526	0.255291	1.183069
C69	C	1.197261	-0.152284	0.676703
C70	C	1.697261	0.347716	1.176703
C71	C	1.181399	-0.461628	0.386185
C72	C	1.681399	0.038372	0.886185
C73	C	1.181542	-0.461440	0.252782
C74	C	1.681542	0.038560	0.752782
H75	H	0.670441	-0.392263	0.593428
H76	H	1.170441	0.107737	1.093428
H77	H	0.693237	-0.530993	0.802682
H78	H	1.193237	-0.030993	1.302682
N79	N	1.262262	-0.941355	0.587714
N80	N	1.762262	-0.441355	1.087714
N81	N	1.256290	-0.950782	0.477205
N82	N	1.756290	-0.450782	0.977205
H83	H	1.296202	-0.921327	0.422648
H84	H	1.796202	-0.421327	0.922648
N85	N	1.100698	-0.980997	0.808298
N86	N	1.600698	-0.480997	1.308298
N87	N	1.106638	-0.971586	0.918812
N88	N	1.606638	-0.471586	1.418812
H89	H	1.066703	-1.001041	0.973334
H90	H	1.566703	-0.501041	1.473334
