data_functionalizedCrystal
_audit_creation_method	'MofGen! by Chris Wilmer'
_symmetry_space_group_name_H-M	'P1'
_symmetry_Int_Tables_number	1
_symmetry_cell_setting	triclinic
loop_
_symmetry_equiv_pos_as_xyz
  x,y,z
_cell_length_a	13.032831
_cell_length_b	12.759394
_cell_length_c	12.759387
_cell_angle_alpha	89.968340
_cell_angle_beta	82.805208
_cell_angle_gamma	82.819699
loop_
_atom_site_label
_atom_site_type_symbol
_atom_site_fract_x
_atom_site_fract_y
_atom_site_fract_z
Zn1	Zn	1.597764	-0.622502	-0.797708
Zn2	Zn	1.597655	-0.798205	-0.622012
Zn3	Zn	1.422992	-0.600208	-0.599762
Zn4	Zn	1.422984	-0.775792	-0.775381
O5	O	1.510349	-0.699177	-0.698716
O6	O	1.743992	-0.664520	-0.793057
O7	O	1.574443	-0.771990	-0.472034
O8	O	1.446225	-0.456151	-0.626053
O9	O	1.743912	-0.793608	-0.663974
O10	O	1.574629	-0.472530	-0.771483
O11	O	1.446119	-0.626523	-0.455687
O12	O	1.276749	-0.604790	-0.604403
O13	O	1.446212	-0.755408	-0.925370
O14	O	1.276743	-0.733791	-0.733430
O15	O	1.574622	-0.642787	-0.941773
O16	O	1.574435	-0.942247	-0.642325
O17	O	1.446106	-0.925780	-0.755004
C18	C	1.238827	-0.664440	-0.664080
C19	C	1.122668	-0.649605	-0.649287
C20	C	1.070906	-0.706920	-0.706436
C21	C	0.950850	-0.691588	-0.691149
C22	C	1.510286	-0.972137	-0.698683
C23	C	1.510355	-1.088922	-0.698716
C24	C	1.644085	-1.106028	-0.581496
C25	C	1.710977	-1.169446	-0.522902
C26	C	1.711038	-1.279175	-0.522938
C27	C	1.644202	-1.325489	-0.581577
C28	C	1.577310	-1.262072	-0.640171
C29	C	1.577254	-1.152340	-0.640126
C30	C	1.443587	-1.244966	-0.757396
C31	C	1.443519	-1.135236	-0.757355
C32	C	1.376751	-1.291280	-0.816035
C33	C	1.309852	-1.227862	-0.874625
C34	C	1.309793	-1.118126	-0.874585
C35	C	1.376627	-1.071819	-0.815949
C36	C	1.782932	-0.734051	-0.733488
C37	C	1.899090	-0.748912	-0.748306
C38	C	1.510428	-0.699084	-0.972760
C39	C	1.510462	-0.699045	-1.089541
C40	C	1.510440	-0.425155	-0.698776
C41	C	1.510479	-0.308384	-0.698802
C42	C	1.644184	-0.581782	-1.106643
C43	C	1.711059	-0.523136	-1.170056
C44	C	1.711085	-0.523101	-1.279781
C45	C	1.644225	-0.581715	-1.326094
C46	C	1.577350	-0.640361	-1.262680
C47	C	1.577334	-0.640392	-1.152954
C48	C	1.443624	-0.757616	-1.245578
C49	C	1.443602	-0.757659	-1.135853
C50	C	1.376764	-0.816230	-1.291891
C51	C	1.309892	-0.874883	-1.228477
C52	C	1.309870	-0.874917	-1.118746
C53	C	1.376726	-0.816304	-1.072440
C54	C	1.510330	-0.699201	-0.425746
C55	C	1.510499	-0.698971	-0.308992
H56	H	1.078103	-0.589180	-0.589046
H57	H	1.255445	-1.265581	-0.922370
H58	H	0.943650	-0.809330	-0.808562
O59	O	1.644184	-0.999458	-0.581373
C60	C	1.717491	-0.972176	-0.517029
H61	H	1.778594	-1.043178	-0.510174
H62	H	1.757090	-0.903770	-0.553784
H63	H	1.676070	-0.947518	-0.435102
O64	O	1.377004	-1.397895	-0.816101
C65	C	1.477165	-1.447257	-0.855963
H66	H	1.537334	-1.391687	-0.845713
H67	H	1.495798	-1.523069	-0.810984
H68	H	1.479356	-1.466932	-0.943424
O69	O	1.376566	-0.965228	-0.815715
C70	C	1.349724	-0.925246	-0.711576
H71	H	1.367632	-0.990805	-0.653377
H72	H	1.396834	-0.857845	-0.698920
H73	H	1.263003	-0.894756	-0.698222
O74	O	1.244718	-1.056676	-0.931531
C75	C	1.185770	-1.121092	-0.983315
H76	H	1.182210	-1.198888	-0.939845
H77	H	1.103409	-1.078919	-0.983958
H78	H	1.224022	-1.137556	-1.068013
O79	O	1.775842	-1.124562	-0.465785
C80	C	1.753038	-1.148546	-0.358156
H81	H	1.712912	-1.223118	-0.350857
H82	H	1.828479	-1.161922	-0.320719
H83	H	1.699284	-1.079997	-0.315859
O84	O	1.775977	-0.466302	-1.124902
C85	C	1.761604	-0.478887	-1.014456
H86	H	1.727332	-0.555581	-0.995078
H87	H	1.839881	-0.481807	-0.982753
H88	H	1.705980	-0.409453	-0.976228
H89	H	1.644180	-0.581815	-1.017301
O90	O	0.897739	-0.619361	-0.619387
C91	C	0.924370	-0.518050	-0.645869
H92	H	0.954493	-0.516655	-0.733616
H93	H	0.852536	-0.457033	-0.627828
H94	H	0.987615	-0.498539	-0.597579
H95	H	1.765534	-0.475340	-1.331412
H96	H	1.765513	-1.330811	-0.475231
H97	H	1.376785	-0.816193	-1.381234
H98	H	1.644267	-1.414838	-0.581612
O99	O	1.644406	-0.581595	-1.432700
C100	C	1.717742	-0.517236	-1.478736
H101	H	1.778798	-0.510363	-1.423306
H102	H	1.757396	-0.553985	-1.557201
H103	H	1.676337	-0.435320	-1.492927
O104	O	1.124178	-0.778872	-0.778377
C105	C	1.187336	-0.727142	-0.854341
H106	H	1.203568	-0.649536	-0.819477
H107	H	1.264140	-0.779689	-0.878056
H108	H	1.145375	-0.710373	-0.926914
H109	H	1.255455	-0.922595	-1.266194
O110	O	1.244880	-0.931990	-1.057308
C111	C	1.185865	-0.983692	-1.121717
H112	H	1.228680	-0.992771	-1.205399
H113	H	1.174685	-1.065054	-1.088580
H114	H	1.106508	-0.935062	-1.123256
O115	O	1.376905	-0.816363	-0.965880
C116	C	1.477042	-0.856203	-0.942009
H117	H	1.537251	-0.845950	-1.012939
H118	H	1.495634	-0.811213	-0.870994
H119	H	1.479214	-0.943660	-0.922790
