data_functionalizedCrystal
_audit_creation_method	'MofGen! by Chris Wilmer'
_symmetry_space_group_name_H-M	'P1'
_symmetry_Int_Tables_number	1
_symmetry_cell_setting	triclinic
loop_
_symmetry_equiv_pos_as_xyz
  x,y,z
_cell_length_a	19.121112
_cell_length_b	18.215405
_cell_length_c	19.121242
_cell_angle_alpha	87.589832
_cell_angle_beta	85.216444
_cell_angle_gamma	92.420935
loop_
_atom_site_label
_atom_site_type_symbol
_atom_site_fract_x
_atom_site_fract_y
_atom_site_fract_z
Zn1	Zn	1.092599	0.361733	-0.443640
Zn2	Zn	1.087506	0.479319	-0.325970
Zn3	Zn	0.969930	0.350784	-0.320981
Zn4	Zn	0.974900	0.479267	-0.438582
O5	O	1.031234	0.417776	-0.382293
O6	O	1.190386	0.381936	-0.432236
O7	O	1.067698	0.457707	-0.226846
O8	O	0.986254	0.249255	-0.337280
O9	O	1.186645	0.468325	-0.345784
O10	O	1.076378	0.257300	-0.427398
O11	O	0.981315	0.363273	-0.223181
O12	O	0.872126	0.363223	-0.332376
O13	O	0.994725	0.468237	-0.537715
O14	O	0.875778	0.457619	-0.418778
O15	O	1.081197	0.381886	-0.541431
O16	O	1.072517	0.582293	-0.340880
O17	O	0.989786	0.582255	-0.423615
C18	C	0.848422	0.409228	-0.374487
C19	C	0.770214	0.405590	-0.371164
C20	C	1.031158	0.608977	-0.382256
C21	C	1.031191	0.690778	-0.382267
C22	C	0.327794	0.382509	-0.350118
C23	C	0.401278	0.385932	-0.353244
C24	C	0.439934	0.436864	-0.399719
C25	C	0.405103	0.484372	-0.443075
C26	C	0.331620	0.480945	-0.439952
C27	C	0.661900	0.449670	-0.411398
C28	C	0.735388	0.453095	-0.414516
C29	C	0.731558	0.354654	-0.324686
C30	C	0.658074	0.351234	-0.321564
C31	C	0.623249	0.398739	-0.364923
C32	C	0.515047	0.440366	-0.402914
C33	C	0.548138	0.395234	-0.361731
C34	C	1.039083	0.426277	-0.565817
C35	C	1.042429	0.429900	-0.644024
C36	C	1.214760	0.426357	-0.390130
C37	C	1.292968	0.430014	-0.393470
C38	C	1.031330	0.225829	-0.382347
C39	C	1.031370	0.144033	-0.382369
C40	C	1.074378	0.878976	-0.339273
C41	C	1.074410	0.955837	-0.339292
C42	C	0.988181	0.955830	-0.425368
C43	C	0.988154	0.878971	-0.425352
C44	C	1.031251	0.840545	-0.382301
C45	C	1.031311	0.994266	-0.382335
C46	C	1.031345	1.077602	-0.382355
C47	C	1.031217	0.757204	-0.382282
C48	C	1.063643	0.452894	-1.086444
C49	C	1.060490	0.449485	-1.012960
C50	C	1.013942	0.398611	-0.974317
C51	C	0.970541	0.351147	-1.009163
C52	C	0.973691	0.354560	-1.082645
C53	C	1.002177	0.385849	-0.752352
C54	C	0.999032	0.382438	-0.678864
C55	C	1.088980	0.480778	-0.682667
C56	C	1.092129	0.484183	-0.756151
C57	C	1.048725	0.436722	-0.790989
C58	C	1.010720	0.395123	-0.899205
C59	C	1.051945	0.440214	-0.866101
C60	C	1.023455	0.409256	-0.199485
C61	C	1.020246	0.405433	-0.121284
H62	H	0.296325	0.341035	-0.312273
H63	H	1.109471	0.847692	-0.304220
H64	H	0.966833	0.347204	-0.780708
N65	N	0.436841	0.337401	-0.308955
N66	N	0.402319	0.291934	-0.267459
H67	H	0.427434	0.257657	-0.236176
N68	N	1.099504	0.492163	-0.905573
N69	N	1.164081	0.489926	-0.900141
H70	H	1.197674	0.526611	-0.928025
N71	N	1.133310	0.529248	-0.647069
N72	N	1.130495	0.526196	-0.581460
H73	H	1.161803	0.560431	-0.556317
N74	N	0.618605	0.299195	-0.274092
N75	N	0.627048	0.231902	-0.279230
H76	H	0.599174	0.195148	-0.245699
N77	N	0.296032	0.529473	-0.484223
N78	N	0.230423	0.526408	-0.481428
H79	H	0.205288	0.560680	-0.512697
H80	H	0.953092	0.987125	-0.460417
N81	N	0.508656	0.343198	-0.314270
N82	N	0.468739	0.295584	-0.337372
H83	H	0.440849	0.258835	-0.303851
N84	N	1.118472	0.995081	-0.295339
N85	N	1.156949	0.960761	-0.256910
H86	H	1.188071	0.988476	-0.225867
N87	N	0.944099	0.839699	-0.469300
N88	N	0.944084	0.771075	-0.469281
H89	H	0.912975	0.743338	-0.500320
H90	H	0.932638	0.309727	-0.977694
N91	N	0.774873	0.505110	-0.462009
N92	N	0.817814	0.483276	-0.508631
H93	H	0.845700	0.520008	-0.542173
H94	H	1.101550	0.494319	-1.117902
H95	H	0.972821	0.353700	-0.867734
H96	H	1.095819	0.488142	-0.984596
N97	N	0.554536	0.492405	-0.450369
N98	N	0.546106	0.559700	-0.445223
H99	H	0.573999	0.596453	-0.478738
H100	H	1.130032	0.525611	-0.787609
N101	N	0.767142	0.306138	-0.280402
N102	N	0.832751	0.309202	-0.283193
H103	H	0.857884	0.274935	-0.251917
H104	H	0.633555	0.488355	-0.446701
H105	H	0.961128	0.341005	-0.647403
N106	N	0.929354	0.306077	-1.118225
N107	N	0.887795	0.260657	-1.083716
H108	H	0.856478	0.226417	-1.108843
H109	H	0.436583	0.525839	-0.480919
