data_functionalizedCrystal
_audit_creation_method	'MofGen! by Chris Wilmer'
_symmetry_space_group_name_H-M	'P1'
_symmetry_Int_Tables_number	1
_symmetry_cell_setting	triclinic
loop_
_symmetry_equiv_pos_as_xyz
  x,y,z
_cell_length_a	19.077399
_cell_length_b	19.076808
_cell_length_c	19.076919
_cell_angle_alpha	90.121640
_cell_angle_beta	85.520477
_cell_angle_gamma	94.711600
loop_
_atom_site_label
_atom_site_type_symbol
_atom_site_fract_x
_atom_site_fract_y
_atom_site_fract_z
Zn1	Zn	1.051946	-0.251860	0.345653
Zn2	Zn	1.551946	0.248140	0.845653
Zn3	Zn	1.052243	-0.364642	0.223412
Zn4	Zn	1.552243	0.135358	0.723412
Zn5	Zn	0.938800	-0.251879	0.232507
Zn6	Zn	1.438800	0.248121	0.732507
Zn7	Zn	0.929292	-0.374453	0.345601
Zn8	Zn	1.429292	0.125547	0.845601
O9	O	0.993070	-0.310709	0.286793
O10	O	1.493070	0.189291	0.786793
O11	O	1.150792	-0.262707	0.325653
O12	O	1.650792	0.237293	0.825653
O13	O	1.041298	-0.345586	0.126129
O14	O	1.541298	0.154414	0.626129
O15	O	0.957663	-0.153379	0.251345
O16	O	1.457663	0.346621	0.751345
O17	O	1.151011	-0.345568	0.235843
O18	O	1.651011	0.154432	0.735843
O19	O	1.040791	-0.153365	0.334473
O20	O	1.540791	0.346635	0.834473
O21	O	0.957951	-0.262740	0.132812
O22	O	1.457951	0.237260	0.632812
O23	O	0.838731	-0.272253	0.251294
O24	O	1.338731	0.227747	0.751294
O25	O	0.941459	-0.362289	0.444096
O26	O	1.441459	0.137711	0.944096
O27	O	0.831746	-0.362307	0.334383
O28	O	1.331746	0.137693	0.834383
O29	O	1.031572	-0.272220	0.444135
O30	O	1.531572	0.227780	0.944135
O31	O	1.032079	-0.464441	0.235791
O32	O	1.532079	0.035559	0.735791
O33	O	0.941748	-0.471649	0.325563
O34	O	1.441748	0.028351	0.825563
C35	C	0.809619	-0.318347	0.293820
C36	C	1.309619	0.181653	0.793820
C37	C	0.731137	-0.321633	0.296842
C38	C	1.231137	0.178367	0.796842
C39	C	0.697881	-0.276225	0.255078
C40	C	1.197881	0.223775	0.755078
C41	C	0.624138	-0.279318	0.257917
C42	C	1.124138	0.220682	0.757917
C43	C	0.583652	-0.327816	0.302524
C44	C	1.083652	0.172184	0.802524
C45	C	0.616913	-0.373229	0.344290
C46	C	1.116913	0.126771	0.844290
C47	C	0.690654	-0.370139	0.341447
C48	C	1.190654	0.129861	0.841447
C49	C	0.362721	-0.342096	0.315656
C50	C	0.862721	0.157904	0.815656
C51	C	0.288974	-0.345181	0.318497
C52	C	0.788974	0.154819	0.818497
C53	C	0.296205	-0.251271	0.232123
C54	C	0.796205	0.248729	0.732123
C55	C	0.369947	-0.248182	0.229287
C56	C	0.869947	0.251818	0.729287
C57	C	0.403201	-0.293597	0.271050
C58	C	0.903201	0.206403	0.771050
N59	N	0.508275	-0.330977	0.305429
N60	N	1.008275	0.169023	0.805429
N61	N	0.478577	-0.290439	0.268141
N62	N	0.978577	0.209561	0.768141
C63	C	0.985932	-0.493584	0.279699
C64	C	1.485932	0.006416	0.779699
C65	C	0.982943	-0.571818	0.276685
C66	C	1.482943	-0.071818	0.776685
C67	C	1.024783	-0.608507	0.318588
C68	C	1.524783	-0.108507	0.818588
C69	C	1.021971	-0.682015	0.315757
C70	C	1.521971	-0.182015	0.815757
C71	C	0.977321	-0.718833	0.271021
C72	C	1.477321	-0.218833	0.771021
C73	C	0.935476	-0.682139	0.229117
C74	C	1.435476	-0.182139	0.729117
C75	C	0.938285	-0.608632	0.231951
C76	C	1.438285	-0.108632	0.731951
C77	C	0.964280	-0.938683	0.257901
C78	C	1.464280	-0.438683	0.757901
C79	C	0.961475	-1.012195	0.255068
C80	C	1.461475	-0.512195	0.755068
C81	C	1.047969	-1.012066	0.341710
C82	C	1.547969	-0.512066	0.841710
C83	C	1.050777	-0.938558	0.344538
C84	C	1.550777	-0.438558	0.844538
C85	C	1.008930	-0.901870	0.302637
C86	C	1.508930	-0.401870	0.802637
N87	N	0.974447	-0.793971	0.268125
N88	N	1.474447	-0.293971	0.768125
N89	N	1.011800	-0.826734	0.305537
N90	N	1.511800	-0.326734	0.805537
C91	C	1.177237	-0.303041	0.279739
C92	C	1.677237	0.196959	0.779739
C93	C	1.255718	-0.299773	0.276733
C94	C	1.755718	0.200227	0.776733
C95	C	0.985422	-0.318347	0.470367
C96	C	1.485422	0.181653	0.970367
C97	C	0.982163	-0.321602	0.548595
C98	C	1.482163	0.178398	1.048595
C99	C	1.000254	-0.127119	0.293929
C100	C	1.500254	0.372881	0.793929
C101	C	1.003316	-0.048884	0.296971
C102	C	1.503316	0.451116	0.796971
C103	C	1.000731	-0.303048	0.103934
C104	C	1.500731	0.196952	0.603934
C105	C	1.004135	-0.299589	0.025709
C106	C	1.504135	0.200411	0.525709
C107	C	1.027546	-0.276239	0.585368
C108	C	1.527546	0.223761	1.085368
C109	C	1.024475	-0.279295	0.658872
C110	C	1.524475	0.220705	1.158872
C111	C	0.976024	-0.327717	0.695601
C112	C	1.476024	0.172283	1.195601
C113	C	0.930636	-0.373082	0.658823
C114	C	1.430636	0.126918	1.158823
C115	C	0.933704	-0.370022	0.585321
C116	C	1.433704	0.129978	1.085321
C117	C	0.961815	-0.341894	0.915428
C118	C	1.461815	0.158106	1.415428
C119	C	0.958751	-0.344952	0.988936
C120	C	1.458751	0.155048	1.488936
C121	C	1.052590	-0.251163	0.988980
C122	C	1.552590	0.248837	1.488980
C123	C	1.055657	-0.248111	0.915475
C124	C	1.555657	0.251889	1.415475
C125	C	1.010266	-0.293473	0.878704
C126	C	1.510266	0.206527	1.378704
N127	N	0.972885	-0.330844	0.770734
N128	N	1.472885	0.169156	1.270734
N129	N	1.013402	-0.290343	0.803573
N130	N	1.513402	0.209657	1.303573
H131	H	0.269121	-0.214297	0.198122
H132	H	0.769121	0.285703	0.698122
H133	H	0.730840	-0.236727	0.218760
H134	H	1.230840	0.263273	0.718760
H135	H	0.891183	-0.412506	0.688734
H136	H	1.391183	0.087494	1.188734
C137	C	0.638692	-0.186174	0.172267
C138	C	1.138692	0.313826	0.672267
C139	C	0.587584	-0.229400	0.212014
C140	C	1.087584	0.270600	0.712014
H141	H	0.616123	-0.155353	0.143930
H142	H	1.116123	0.344647	0.643930
H143	H	0.667379	-0.214469	0.142997
H144	H	1.167379	0.285531	0.642997
H145	H	0.667227	-0.159375	0.202920
H146	H	1.167227	0.340625	0.702920
H147	H	0.559051	-0.256202	0.181360
H148	H	1.059051	0.243798	0.681360
H149	H	0.558885	-0.201101	0.241286
H150	H	1.058885	0.298899	0.741286
H151	H	0.717730	-0.407115	0.375455
H152	H	1.217730	0.092885	0.875455
C153	C	0.617178	-0.465737	0.429387
C154	C	1.117178	0.034263	0.929387
C155	C	0.572413	-0.426534	0.393330
C156	C	1.072413	0.073466	0.893330
H157	H	0.589706	-0.498646	0.459663
H158	H	1.089706	0.001354	0.959663
H159	H	0.646017	-0.435027	0.456430
H160	H	1.146017	0.064973	0.956430
H161	H	0.646163	-0.490135	0.396521
H162	H	1.146163	0.009865	0.896521
H163	H	0.543431	-0.402132	0.426196
H164	H	1.043431	0.097868	0.926196
H165	H	0.543562	-0.457249	0.366286
H166	H	1.043562	0.042751	0.866286
H167	H	0.896741	-0.406954	0.555382
H168	H	1.396741	0.093046	1.055382
H169	H	1.061144	-0.578534	0.355014
H170	H	1.561144	-0.078534	0.855014
H171	H	0.925113	-1.042170	0.218638
H172	H	1.425113	-0.542170	0.718638
H173	H	0.899119	-0.712122	0.192694
H174	H	1.399119	-0.212122	0.692694
H175	H	0.402906	-0.208695	0.192958
H176	H	0.902906	0.291305	0.692958
C177	C	0.847040	-0.919741	0.228951
C178	C	1.347040	-0.419741	0.728951
C179	C	0.918289	-0.898366	0.211832
C180	C	1.418289	-0.398366	0.711832
H181	H	0.818648	-0.894852	0.200502
H182	H	1.318648	-0.394852	0.700502
H183	H	0.835157	-0.910077	0.277084
H184	H	1.335157	-0.410077	0.777084
H185	H	0.838992	-0.968790	0.220864
H186	H	1.338992	-0.468790	0.720864
H187	H	0.926338	-0.849317	0.219924
H188	H	1.426338	-0.349317	0.719924
H189	H	0.930175	-0.908025	0.163688
H190	H	1.430175	-0.408025	0.663688
H191	H	0.919294	-0.384385	1.018839
H192	H	1.419294	0.115615	1.518839
C193	C	1.080982	-0.919383	0.463305
C194	C	1.580982	-0.419383	0.963305
C195	C	1.099858	-0.898092	0.393715
C196	C	1.599858	-0.398092	0.893715
H197	H	1.111284	-0.894398	0.493662
H198	H	1.611284	-0.394398	0.993662
H199	H	1.085297	-0.968406	0.467609
H200	H	1.585297	-0.468406	0.967609
H201	H	1.033564	-0.909771	0.475842
H202	H	1.533564	-0.409771	0.975842
H203	H	1.147275	-0.907709	0.381176
H204	H	1.647275	-0.407709	0.881176
H205	H	1.095550	-0.849058	0.389408
H206	H	1.595550	-0.349058	0.889408
H207	H	0.924864	-0.378841	0.885497
H208	H	1.424864	0.121159	1.385497
H209	H	0.256012	-0.384674	0.354826
H210	H	0.756012	0.115326	0.854826
C211	C	0.441561	-0.433718	0.318417
C212	C	0.941561	0.066282	0.818417
C213	C	0.399270	-0.392007	0.361568
C214	C	0.899270	0.107993	0.861568
H215	H	0.464124	-0.464533	0.346765
H216	H	0.964124	0.035467	0.846765
H217	H	0.476222	-0.404396	0.291448
H218	H	0.976222	0.095604	0.791448
H219	H	0.413012	-0.460524	0.287780
H220	H	0.913012	0.039476	0.787780
H221	H	0.427820	-0.365197	0.392201
H222	H	0.927820	0.134803	0.892201
H223	H	0.364605	-0.421333	0.388548
H224	H	0.864605	0.078667	0.888548
C225	C	1.107773	-0.674503	0.401655
C226	C	1.607773	-0.174503	0.901655
C227	C	1.067979	-0.722343	0.361802
C228	C	1.567979	-0.222343	0.861802
H229	H	1.136184	-0.699400	0.430075
H230	H	1.636184	-0.199400	0.930075
H231	H	1.076968	-0.648260	0.430847
H232	H	1.576968	-0.148260	0.930847
H233	H	1.137165	-0.643411	0.371069
H234	H	1.637165	-0.143411	0.871069
H235	H	1.038583	-0.753432	0.392388
H236	H	1.538583	-0.253432	0.892388
H237	H	1.098788	-0.748598	0.332607
H238	H	1.598788	-0.248598	0.832607
H239	H	0.904214	-0.578760	0.197831
H240	H	1.404214	-0.078760	0.697831
C241	C	1.082065	-1.124690	0.375843
C242	C	1.582065	-0.624690	0.875843
C243	C	1.093959	-1.052396	0.387773
C244	C	1.593959	-0.552396	0.887773
H245	H	1.110454	-1.149586	0.404287
H246	H	1.610454	-0.649586	0.904287
H247	H	1.093951	-1.134342	0.327708
H248	H	1.593951	-0.634342	0.827708
H249	H	1.033723	-1.139172	0.387455
H250	H	1.533723	-0.639172	0.887455
H251	H	1.142299	-1.037912	0.376155
H252	H	1.642299	-0.537912	0.876155
H253	H	1.082077	-1.042739	0.435919
H254	H	1.582077	-0.542739	0.935919
C255	C	1.119987	-0.183836	0.592802
C256	C	1.619987	0.316164	1.092802
C257	C	1.080804	-0.223009	0.544999
C258	C	1.580804	0.276991	1.044999
H259	H	1.152862	-0.150970	0.567880
H260	H	1.652862	0.349030	1.067880
H261	H	1.144598	-0.214572	0.619244
H262	H	1.644598	0.285428	1.119244
H263	H	1.089071	-0.159391	0.623696
H264	H	1.589071	0.340609	1.123696
H265	H	1.111720	-0.247459	0.514108
H266	H	1.611720	0.252541	1.014108
H267	H	1.056191	-0.192269	0.518546
H268	H	1.556191	0.307731	1.018546
H269	H	1.061433	-0.242357	0.688809
H270	H	1.561433	0.257643	1.188809
H271	H	1.095113	-0.208682	0.885575
H272	H	1.595113	0.291318	1.385575
H273	H	1.089544	-0.214231	1.018927
H274	H	1.589544	0.285769	1.518927
