data_functionalizedCrystal
_audit_creation_method	'MofGen! by Chris Wilmer'
_symmetry_space_group_name_H-M	'P1'
_symmetry_Int_Tables_number	1
_symmetry_cell_setting	triclinic
loop_
_symmetry_equiv_pos_as_xyz
  x,y,z
_cell_length_a	15.995300
_cell_length_b	10.654550
_cell_length_c	9.130313
_cell_angle_alpha	90.000110
_cell_angle_beta	89.998179
_cell_angle_gamma	96.021645
loop_
_atom_site_label
_atom_site_type_symbol
_atom_site_fract_x
_atom_site_fract_y
_atom_site_fract_z
O1	O	1.111945	-0.161566	-0.121849
O2	O	1.611945	0.338434	0.378151
O3	O	0.868281	-0.181621	-0.121840
O4	O	1.368281	0.318379	0.378160
O5	O	0.995715	0.011220	-0.121839
O6	O	1.495715	0.511220	0.378161
O7	O	0.984511	-0.354408	-0.121850
O8	O	1.484511	0.145592	0.378150
O9	O	0.995714	0.011215	0.121759
O10	O	1.495714	0.511215	0.621759
O11	O	0.868279	-0.181627	0.121759
O12	O	1.368279	0.318373	0.621759
O13	O	1.111944	-0.161571	0.121750
O14	O	1.611944	0.338429	0.621750
Cu15	Cu	0.990111	-0.171599	0.143997
Cu16	Cu	1.490111	0.328401	0.643997
Cu17	Cu	0.990113	-0.171593	-0.144087
Cu18	Cu	1.490113	0.328407	0.355913
O19	O	0.984509	-0.354413	0.121749
O20	O	1.484509	0.145587	0.621749
C21	C	0.837080	-0.180806	-0.000039
C22	C	1.337080	0.319194	0.499961
C23	C	0.744113	-0.178354	-0.000036
C24	C	1.244113	0.321646	0.499964
C25	C	0.573903	-0.173825	-0.000047
C26	C	1.073903	0.326175	0.499953
C27	C	0.527235	-0.311132	-0.000048
C28	C	1.027235	0.188868	0.499952
C29	C	0.430533	-0.308627	-0.000604
C30	C	0.930533	0.191373	0.499396
C31	C	0.406321	-0.169368	-0.000056
C32	C	0.906321	0.330632	0.499944
C33	C	0.447059	-0.101242	-0.138887
C34	C	0.947059	0.398758	0.361113
C35	C	0.543713	-0.104716	-0.139000
C36	C	1.043713	0.395284	0.361000
C37	C	0.543978	-0.102689	0.138027
C38	C	1.043978	0.397311	0.638027
C39	C	0.447034	-0.102702	0.139848
C40	C	0.947034	0.397298	0.639848
C41	C	0.311611	-0.166841	-0.000066
C42	C	0.811611	0.333159	0.499934
C43	C	0.668614	-0.176347	-0.000047
C44	C	1.168614	0.323653	0.499953
C45	C	0.994892	0.058005	-0.000042
C46	C	1.494892	0.558005	0.499958
C47	C	0.992430	0.197415	-0.000047
C48	C	1.492430	0.697415	0.499953
C49	C	1.143145	-0.162387	-0.000054
C50	C	1.643145	0.337613	0.499946
C51	C	1.236112	-0.164839	-0.000067
C52	C	1.736112	0.335161	0.499933
C53	C	0.985333	-0.401197	-0.000052
C54	C	1.485333	0.098803	0.499948
C55	C	0.987794	-0.540608	-0.000057
C56	C	1.487794	-0.040608	0.499943
N57	N	0.990116	-0.171603	0.346619
N58	N	1.490116	0.328397	0.846619
C59	C	1.067462	0.277901	-0.000045
C60	C	1.567462	0.777901	0.499955
C61	C	1.065144	0.408891	-0.000055
C62	C	1.565144	0.908891	0.499945
C63	C	0.912757	0.378896	-0.000063
C64	C	1.412757	0.878896	0.499937
C65	C	0.915075	0.247908	-0.000063
C66	C	1.415075	0.747908	0.499937
C67	C	1.144817	0.227408	-0.000029
C68	C	1.644817	0.727408	0.499971
C69	C	1.219855	0.307895	-0.000026
C70	C	1.719855	0.807895	0.499974
C71	C	1.217537	0.438885	-0.000036
C72	C	1.717537	0.938885	0.499964
C73	C	1.140181	0.489388	-0.000049
C74	C	1.640181	0.989388	0.499951
N75	N	0.990115	-0.171580	-0.346710
N76	N	1.490115	0.328420	0.153290
C77	C	1.046559	-0.086242	0.423272
C78	C	1.546559	0.413758	0.923272
C79	C	1.046556	-0.086226	0.576608
C80	C	1.546556	0.413774	1.076608
C81	C	0.933666	-0.256945	0.576627
C82	C	1.433666	0.243055	1.076627
C83	C	0.933665	-0.256953	0.423293
C84	C	1.433665	0.243047	0.923293
C85	C	1.103010	-0.000891	0.346598
C86	C	1.603010	0.499109	0.846598
C87	C	1.159458	0.084476	0.423250
C88	C	1.659458	0.584476	0.923250
C89	C	1.159455	0.084491	0.576587
C90	C	1.659455	0.584491	1.076587
C91	C	1.103005	-0.000861	0.653271
C92	C	1.603005	0.499139	1.153271
H93	H	0.402995	-0.361923	-0.100707
H94	H	0.902995	0.138077	0.399293
F95	F	0.393731	-0.378603	0.129439
F96	F	0.893731	0.121397	0.629439
H97	H	0.853978	0.182374	-0.000062
H98	H	1.353978	0.682374	0.499938
H99	H	1.205412	0.154009	0.638996
H100	H	1.705412	0.654009	1.138996
F101	F	1.297397	0.524543	-0.000048
F102	F	1.797397	1.024543	0.499952
H103	H	1.103002	-0.000833	0.778129
H104	H	1.603002	0.499167	1.278129
H105	H	0.887707	-0.326437	0.639074
H106	H	1.387707	0.173563	1.139074
F107	F	0.873589	-0.347803	0.341713
F108	F	1.373589	0.152197	0.841713
F109	F	1.302177	0.254145	-0.000029
F110	F	1.802177	0.754145	0.499971
H111	H	1.103018	-0.000898	0.221743
H112	H	1.603018	0.499102	0.721743
H113	H	1.205413	0.153975	0.360806
H114	H	1.705413	0.653975	0.860806
H115	H	0.575171	-0.001455	0.139366
H116	H	1.075171	0.498545	0.639366
F117	F	0.552235	-0.383529	0.129553
F118	F	1.052235	0.116471	0.629553
H119	H	1.138300	0.596050	-0.000073
H120	H	1.638300	1.096050	0.499927
H121	H	0.547160	-0.365488	-0.099457
H122	H	1.047160	0.134512	0.400543
F123	F	0.830436	0.432649	-0.000075
F124	F	1.330436	0.932649	0.499925
H125	H	1.146713	0.120751	-0.000016
H126	H	1.646713	0.620751	0.499984
H127	H	0.562317	-0.153810	-0.243174
H128	H	1.062317	0.346190	0.256826
F129	F	0.585133	0.027068	-0.146741
F130	F	1.085133	0.527068	0.353259
H131	H	0.418945	-0.147943	-0.242596
H132	H	0.918945	0.352057	0.257404
F133	F	0.427854	0.032505	-0.145128
F134	F	0.927854	0.532505	0.354872
H135	H	0.564740	-0.147897	0.243287
H136	H	1.064740	0.352103	0.743287
F137	F	0.426211	0.030004	0.151356
F138	F	0.926211	0.530004	0.651356
F139	F	0.411676	-0.167724	0.274100
F140	F	0.911676	0.332276	0.774100
