data_functionalizedCrystal
_audit_creation_method	'MofGen! by Chris Wilmer'
_symmetry_space_group_name_H-M	'P1'
_symmetry_Int_Tables_number	1
_symmetry_cell_setting	triclinic
loop_
_symmetry_equiv_pos_as_xyz
  x,y,z
_cell_length_a	13.897449
_cell_length_b	13.897447
_cell_length_c	17.640968
_cell_angle_alpha	101.230028
_cell_angle_beta	101.223365
_cell_angle_gamma	90.020810
loop_
_atom_site_label
_atom_site_type_symbol
_atom_site_fract_x
_atom_site_fract_y
_atom_site_fract_z
Zn1	Zn	1.584954	-0.273705	0.446936
Zn2	Zn	1.552233	-0.467631	0.314758
Zn3	Zn	1.391036	-0.306352	0.314769
Zn4	Zn	1.423611	-0.434971	0.446901
O5	O	1.487959	-0.370665	0.380841
O6	O	1.715598	-0.299434	0.429412
O7	O	1.503523	-0.473568	0.204144
O8	O	1.416821	-0.167035	0.332320
O9	O	1.691558	-0.441911	0.332301
O10	O	1.559291	-0.143049	0.429423
O11	O	1.385093	-0.355078	0.204152
O12	O	1.260373	-0.323409	0.332286
O13	O	1.472340	-0.386248	0.557520
O14	O	1.284306	-0.417905	0.429363
O15	O	1.590878	-0.267766	0.557546
O16	O	1.535110	-0.598285	0.332268
O17	O	1.440612	-0.574290	0.429353
C18	C	1.487876	-0.621284	0.380822
C19	C	1.487935	-0.728493	0.380841
C20	C	1.237340	-0.370656	0.380823
C21	C	1.130129	-0.370671	0.380834
C22	C	1.487986	-0.815558	0.380859
C23	C	1.488059	-0.924786	0.380879
C24	C	0.933839	-0.370670	0.380854
C25	C	1.043068	-0.370668	0.380841
C26	C	1.739556	-0.370674	0.380859
C27	C	1.846772	-0.370678	0.380867
C28	C	1.538893	-0.319722	0.587016
C29	C	1.560598	-0.298013	0.674876
C30	C	1.488072	-0.119063	0.380876
C31	C	1.488121	-0.011845	0.380892
C32	C	1.437278	-0.421340	0.175467
C33	C	1.415760	-0.442777	0.087608
C34	C	1.323438	-0.535060	0.963769
C35	C	1.343853	-0.514649	1.046326
C36	C	1.467276	-0.391284	1.046342
C37	C	1.446868	-0.411681	0.963783
C38	C	1.374948	-0.483571	0.922503
C39	C	1.498378	-0.360193	0.922517
C40	C	1.477975	-0.380592	0.839965
C41	C	1.406061	-0.452481	0.798679
C42	C	1.354545	-0.503971	0.839951
C43	C	1.570303	-0.288308	0.963799
C44	C	1.621813	-0.236819	0.922533
C45	C	1.601405	-0.257214	0.839980
C46	C	1.529491	-0.329102	0.798694
C47	C	1.652921	-0.205724	0.798708
C48	C	1.632517	-0.226123	0.716156
C49	C	1.509087	-0.349502	0.716142
H50	H	1.389453	-0.469092	0.731460
H51	H	1.586915	-0.271704	1.031018
C52	C	1.700922	-0.157742	0.967944
C53	C	1.690288	-0.050888	0.956606
C54	C	1.769396	0.028193	1.002014
C55	C	1.859138	0.000419	1.058759
C56	C	1.869776	-0.106439	1.070099
C57	C	1.790668	-0.185520	1.024692
H58	H	1.623852	-0.030324	0.914598
H59	H	1.761520	0.107297	0.993619
H60	H	1.917699	0.058960	1.092373
H61	H	1.936212	-0.127003	1.112108
H62	H	1.798543	-0.264624	1.033087
H63	H	1.264851	-0.593577	0.930156
H64	H	1.295958	-0.562487	0.806338
C65	C	1.287183	-0.571289	1.091720
C66	C	1.309623	-0.548856	1.182524
C67	C	1.252957	-0.605496	1.227917
C68	C	1.173851	-0.684570	1.182507
C69	C	1.151407	-0.707007	1.091697
C70	C	1.208073	-0.650366	1.046304
H71	H	1.368185	-0.490317	1.216144
H72	H	1.269571	-0.588886	1.295140
H73	H	1.131903	-0.726498	1.216110
H74	H	1.092845	-0.765545	1.058077
H75	H	1.191459	-0.666976	0.979081
H76	H	1.450500	-0.408018	0.682529
H77	H	1.711484	-0.147198	0.832331
H78	H	1.525836	-0.332754	1.079964
H79	H	1.674461	-0.184194	0.682557
