data_functionalizedCrystal
_audit_creation_method	'MofGen! by Chris Wilmer'
_symmetry_space_group_name_H-M	'P1'
_symmetry_Int_Tables_number	1
_symmetry_cell_setting	triclinic
loop_
_symmetry_equiv_pos_as_xyz
  x,y,z
_cell_length_a	12.837942
_cell_length_b	17.699097
_cell_length_c	16.776229
_cell_angle_alpha	89.989262
_cell_angle_beta	89.994225
_cell_angle_gamma	89.058685
loop_
_atom_site_label
_atom_site_type_symbol
_atom_site_fract_x
_atom_site_fract_y
_atom_site_fract_z
O1	O	0.131133	1.013706	-0.066355
O2	O	0.631133	1.513706	0.433645
O3	O	0.148171	0.794580	-0.066342
O4	O	0.648171	1.294580	0.433658
O5	O	-0.011239	0.899284	-0.066343
O6	O	0.488761	1.399284	0.433657
O7	O	0.290543	0.909002	-0.066353
O8	O	0.790543	1.409002	0.433647
O9	O	-0.011248	0.899268	0.066233
O10	O	0.488752	1.399268	0.566233
O11	O	0.148161	0.794564	0.066235
O12	O	0.648161	1.294564	0.566235
O13	O	0.131123	1.013690	0.066222
O14	O	0.631123	1.513690	0.566222
Zn15	Zn	0.139641	0.904124	0.087278
Zn16	Zn	0.639641	1.404124	0.587278
Zn17	Zn	0.139654	0.904146	-0.087398
Zn18	Zn	0.639654	1.404146	0.412602
O19	O	0.290533	0.908986	0.066223
O20	O	0.790533	1.408986	0.566223
C21	C	0.147553	0.766330	-0.000052
C22	C	0.647553	1.266330	0.499948
C23	C	0.145715	0.682178	-0.000047
C24	C	0.645715	1.182178	0.499953
C25	C	-0.049856	0.895993	-0.000055
C26	C	0.450144	1.395993	0.499945
C27	C	-0.164909	0.886202	-0.000056
C28	C	0.335091	1.386202	0.499944
C29	C	0.134451	0.165641	-0.072346
C30	C	0.634451	0.665641	0.427654
C31	C	0.136171	0.244711	-0.072342
C32	C	0.636171	0.744711	0.427658
C33	C	0.137028	0.284231	-0.000071
C34	C	0.637028	0.784231	0.499929
C35	C	0.136153	0.244678	0.072200
C36	C	0.636153	0.744678	0.572200
C37	C	0.134426	0.165609	0.072195
C38	C	0.634426	0.665609	0.572195
C39	C	0.143120	0.563554	0.072221
C40	C	0.643120	1.063554	0.572221
C41	C	0.144851	0.642628	0.072220
C42	C	0.644851	1.142628	0.572220
C43	C	0.144866	0.642656	-0.072317
C44	C	0.644866	1.142656	0.427683
C45	C	0.143138	0.563587	-0.072321
C46	C	0.643138	1.063587	0.427679
C47	C	0.142258	0.524040	-0.000050
C48	C	0.642258	1.024040	0.499950
C49	C	0.140391	0.438303	-0.000056
C50	C	0.640391	0.938303	0.499944
C51	C	0.138903	0.369967	-0.000066
C52	C	0.638903	0.869967	0.499934
C53	C	-0.406156	1.003906	-0.000079
C54	C	0.093844	1.503906	0.499921
C55	C	-0.514260	0.994711	-0.000080
C56	C	-0.014260	1.494711	0.499920
C57	C	-0.489221	0.858616	-0.000064
C58	C	0.010779	1.358616	0.499936
C59	C	-0.381118	0.867811	-0.000063
C60	C	0.118882	1.367811	0.499937
C61	C	-0.339590	0.940459	-0.000070
C62	C	0.160410	1.440459	0.499930
C63	C	-0.231484	0.949654	-0.000063
C64	C	0.268516	1.449654	0.499937
C65	C	-0.206448	0.813560	-0.000053
C66	C	0.293552	1.313560	0.499947
C67	C	-0.314551	0.804364	-0.000053
C68	C	0.185449	1.304364	0.499947
C69	C	0.329151	0.912277	-0.000067
C70	C	0.829151	1.412277	0.499933
C71	C	0.444204	0.922068	-0.000071
C72	C	0.944204	1.422068	0.499929
C73	C	0.131741	1.041940	-0.000070
C74	C	0.631741	1.541940	0.499930
C75	C	0.133580	1.126092	-0.000080
C76	C	0.633580	1.626092	0.499920
N77	N	0.139631	0.904115	0.206489
N78	N	0.639631	1.404115	0.706489
N79	N	0.139655	0.904160	-0.206609
N80	N	0.639655	1.404160	0.293391
C81	C	0.069074	0.950496	0.248205
C82	C	0.569074	1.450496	0.748205
C83	C	0.069073	0.950500	0.331658
C84	C	0.569073	1.450500	0.831658
C85	C	0.139635	0.904127	0.373392
C86	C	0.639635	1.404127	0.873392
C87	C	0.210197	0.857741	0.331669
C88	C	0.710197	1.357741	0.831669
C89	C	0.210192	0.857734	0.248219
C90	C	0.710192	1.357734	0.748219
C91	C	0.210217	0.857770	0.668217
C92	C	0.710217	1.357770	1.168217
C93	C	0.210218	0.857783	0.751673
C94	C	0.710218	1.357783	1.251673
C95	C	0.069098	0.950537	0.751655
C96	C	0.569098	1.450537	1.251655
C97	C	0.069093	0.950529	0.668205
C98	C	0.569093	1.450529	1.168205
C99	C	0.139650	0.904140	0.626490
C100	C	0.639650	1.404140	1.126490
C101	C	0.139649	0.904135	0.536001
C102	C	0.639649	1.404135	1.036001
C103	C	0.139642	0.904136	0.463879
C104	C	0.639642	1.404136	0.963879
H105	H	0.136874	0.276908	-0.131188
H106	H	0.636874	0.776908	0.368812
H107	H	-0.152237	0.761897	-0.000038
H108	H	0.347763	1.261897	0.499962
O109	O	0.286344	0.807777	0.796692
O110	O	0.786344	1.307777	1.296692
H111	H	0.335407	0.775519	0.753666
H112	H	0.835407	1.275519	1.253666
H113	H	0.011618	0.988262	0.214231
H114	H	0.511618	1.488262	0.714231
H115	H	0.136844	0.276862	0.131044
H116	H	0.636844	0.776862	0.631044
H117	H	0.142446	0.531413	-0.131172
H118	H	0.642446	1.031413	0.368828
H119	H	0.011638	0.988293	0.634227
H120	H	0.511638	1.488293	1.134227
H121	H	0.267669	0.820000	0.634259
H122	H	0.767669	1.320000	1.134259
O123	O	-0.361363	1.082260	-0.000087
O124	O	0.138637	1.582260	0.499913
H125	H	-0.312724	1.089701	0.053952
H126	H	0.187276	1.589701	0.553952
O127	O	0.145771	0.685257	0.150173
O128	O	0.645771	1.185257	0.650173
H129	H	0.217180	0.719618	0.153629
H130	H	0.717180	1.219618	0.653629
H131	H	0.267647	0.819979	0.365654
H132	H	0.767647	1.319979	0.865654
O133	O	0.286297	0.807713	0.203218
O134	O	0.786297	1.307713	0.703218
H135	H	0.335373	0.775474	0.246256
H136	H	0.835373	1.275474	0.746256
O137	O	-0.186691	1.028008	-0.000082
O138	O	0.313309	1.528008	0.499918
H139	H	-0.213460	1.058876	0.053943
H140	H	0.286540	1.558876	0.553943
H141	H	-0.568455	1.046376	-0.000091
H142	H	-0.068455	1.546376	0.499909
H143	H	-0.348379	0.745216	-0.000051
H144	H	0.151621	1.245216	0.499949
O145	O	0.133507	0.123024	-0.150301
O146	O	0.633507	0.623024	0.349699
H147	H	0.204444	0.136561	-0.184968
H148	H	0.704444	0.636561	0.315032
O149	O	0.145787	0.685309	-0.150271
O150	O	0.645787	1.185309	0.349729
H151	H	0.147115	0.746931	-0.138132
H152	H	0.647115	1.246931	0.361868
O153	O	0.133494	0.122947	0.150138
O154	O	0.633494	0.622947	0.650138
H155	H	0.134391	0.163709	0.200394
H156	H	0.634391	0.663709	0.700394
H157	H	-0.523053	0.799469	-0.000067
H158	H	-0.023053	1.299469	0.499933
H159	H	0.142388	0.531364	0.131068
H160	H	0.642388	1.031364	0.631068
H161	H	0.011619	0.988266	0.365623
H162	H	0.511619	1.488266	0.865623
O163	O	-0.007017	1.000565	0.796646
O164	O	0.492983	1.500565	1.296646
H165	H	0.004827	0.992776	0.861687
H166	H	0.504827	1.492776	1.361687
