data_functionalizedCrystal
_audit_creation_method	'MofGen! by Chris Wilmer'
_symmetry_space_group_name_H-M	'P1'
_symmetry_Int_Tables_number	1
_symmetry_cell_setting	triclinic
loop_
_symmetry_equiv_pos_as_xyz
  x,y,z
_cell_length_a	18.215407
_cell_length_b	12.759400
_cell_length_c	12.759393
_cell_angle_alpha	90.030376
_cell_angle_beta	90.018769
_cell_angle_gamma	90.012088
loop_
_atom_site_label
_atom_site_type_symbol
_atom_site_fract_x
_atom_site_fract_y
_atom_site_fract_z
Zn1	Zn	1.125134	-0.418281	0.594011
Zn2	Zn	1.125062	-0.593999	0.418333
Zn3	Zn	1.002064	-0.418326	0.418347
Zn4	Zn	1.002055	-0.593911	0.593972
O5	O	1.063579	-0.506129	0.506166
O6	O	1.228109	-0.441608	0.570717
O7	O	1.108719	-0.570751	0.271314
O8	O	1.018424	-0.271299	0.441672
O9	O	1.228056	-0.570707	0.441647
O10	O	1.108843	-0.271266	0.570731
O11	O	1.018353	-0.441685	0.271324
O12	O	0.899079	-0.441600	0.441634
O13	O	1.018408	-0.570558	0.740998
O14	O	0.899072	-0.570601	0.570665
O15	O	1.108834	-0.441523	0.741027
O16	O	1.108711	-0.741008	0.441609
O17	O	1.018338	-0.740944	0.570650
C18	C	0.872373	-0.506097	0.506147
C19	C	0.790574	-0.506108	0.506164
C20	C	0.602407	-0.439025	0.573477
C21	C	0.525548	-0.439034	0.573481
C22	C	0.525503	-0.573263	0.438873
C23	C	0.602360	-0.573248	0.438865
C24	C	0.640810	-0.506130	0.506173
C25	C	0.487094	-0.506155	0.506184
C26	C	0.403760	-0.506165	0.506188
C27	C	0.724149	-0.506119	0.506168
C28	C	1.063535	-0.779097	0.506147
C29	C	1.063584	-0.895873	0.506174
C30	C	1.110645	-0.950628	0.573432
C31	C	1.110686	-1.060352	0.573461
C32	C	1.016604	-1.060557	0.438964
C33	C	1.016559	-0.950835	0.438942
C34	C	1.136994	-1.210182	0.697430
C35	C	1.184067	-1.264940	0.764679
C36	C	1.255855	-1.229236	0.780891
C37	C	1.280585	-1.138776	0.729838
C38	C	1.233517	-1.084023	0.662581
C39	C	1.161718	-1.119725	0.646390
C40	C	0.990259	-0.801003	0.314971
C41	C	0.943193	-0.746248	0.247709
C42	C	0.871404	-0.781950	0.231486
C43	C	0.846676	-0.872414	0.282520
C44	C	0.893742	-0.927169	0.349783
C45	C	0.965530	-0.891460	0.366007
C46	C	1.255532	-0.506162	0.506185
C47	C	1.337331	-0.506177	0.506193
C48	C	1.063628	-0.506026	0.780199
C49	C	1.063649	-0.505982	0.896976
C50	C	1.063643	-0.232096	0.506207
C51	C	1.063670	-0.115319	0.506225
C52	C	1.063572	-0.506157	0.233198
C53	C	1.063693	-0.505905	0.116422
C54	C	1.016634	-0.438728	1.061574
C55	C	1.016614	-0.438763	0.951850
C56	C	1.110714	-0.573162	0.951832
C57	C	1.110738	-0.573120	1.061554
C58	C	0.990317	-0.314909	0.801917
C59	C	0.943246	-0.247741	0.747065
C60	C	0.871449	-0.231583	0.782676
C61	C	0.846709	-0.282609	0.873138
C62	C	0.893776	-0.349785	0.927984
C63	C	0.965583	-0.365922	0.892375
C64	C	1.137026	-0.696976	1.211488
C65	C	1.184090	-0.764157	1.266337
C66	C	1.255888	-0.780326	1.230728
C67	C	1.280626	-0.729319	1.140263
C68	C	1.233563	-0.662137	1.085414
C69	C	1.161765	-0.645967	1.121031
H70	H	1.148934	-0.905881	0.628179
H71	H	0.494283	-0.384388	0.628285
H72	H	0.833085	-0.737359	0.176711
H73	H	0.788241	-0.269457	0.902119
O74	O	0.488038	-0.638430	0.373598
C75	C	0.411966	-0.624039	0.388019
H76	H	0.401494	-0.589724	0.469157
H77	H	0.390139	-0.568025	0.325797
C78	C	0.385362	-0.772486	0.278565
C79	C	0.372499	-0.730347	0.378224
H80	H	0.361016	-0.838060	0.272519
H81	H	0.436613	-0.782179	0.268846
H82	H	0.367173	-0.725798	0.226724
H83	H	0.390696	-0.777029	0.430062
H84	H	0.321250	-0.720664	0.387952
H85	H	0.873632	-0.391329	1.001636
O86	O	1.301476	-1.282523	0.846288
C87	C	1.264263	-1.370034	0.887844
H88	H	1.202528	-1.355818	0.884312
H89	H	1.278519	-1.442737	0.840034
C90	C	1.363575	-1.404080	1.006930
C91	C	1.287750	-1.386616	1.002600
H92	H	1.378064	-1.414313	1.077715
H93	H	1.388647	-1.345125	0.978930
H94	H	1.375445	-1.464664	0.967082
H95	H	1.275882	-1.326026	1.042436
H96	H	1.262676	-1.445561	1.030609
O97	O	0.639557	-0.638538	0.373449
C98	C	0.589141	-0.697769	0.314030
H99	H	0.534366	-0.701472	0.357060
H100	H	0.580947	-0.659205	0.234303
C101	C	0.686408	-0.805012	0.245847
C102	C	0.619134	-0.809568	0.298702
H103	H	0.704909	-0.873974	0.236387
H104	H	0.720375	-0.765106	0.285875
H105	H	0.679571	-0.772872	0.179413
H106	H	0.625974	-0.841696	0.365139
H107	H	0.585169	-0.849483	0.258685
O108	O	0.776971	-0.907269	0.266849
C109	C	0.765234	-0.998840	0.326338
H110	H	0.820216	-1.037760	0.343816
H111	H	0.736939	-0.977483	0.403115
C112	C	0.648833	-1.027340	0.242528
C113	C	0.716363	-1.075148	0.263987
H114	H	0.618684	-1.074409	0.204071
H115	H	0.656739	-0.965645	0.202452
H116	H	0.625263	-1.009545	0.306515
H117	H	0.739935	-1.092930	0.200001
H118	H	0.708459	-1.136848	0.304051
O119	O	0.825830	-0.166265	0.729299
C120	C	0.863053	-0.124721	0.641807
H121	H	0.924786	-0.128180	0.656096
H122	H	0.848817	-0.172588	0.569115
C123	C	0.763732	-0.005760	0.607576
C124	C	0.839553	-0.010000	0.625130
H125	H	0.749234	0.065004	0.597285
H126	H	0.738652	-0.033751	0.666518
H127	H	0.751878	-0.045655	0.547001
H128	H	0.851405	0.029884	0.685711
H129	H	0.864635	0.018001	0.566197
H130	H	1.294206	-0.835037	1.275393
O131	O	1.257637	-0.996148	0.613111
C132	C	1.331103	-0.976391	0.641812
H133	H	1.343231	-1.015537	0.720219
H134	H	1.369400	-1.009395	0.579329
C135	C	1.328345	-0.809267	0.555350
C136	C	1.343237	-0.857340	0.651656
H137	H	1.335831	-0.735832	0.561419
H138	H	1.278850	-0.822579	0.536010
H139	H	1.360261	-0.836781	0.503291
H140	H	1.311316	-0.829835	0.703710
H141	H	1.392727	-0.844021	0.671005
H142	H	1.339045	-1.109720	0.743034
H143	H	0.963397	-0.206196	0.673411
H144	H	0.978330	-0.383993	1.106244
H145	H	1.163925	-1.338593	0.806246
H146	H	1.078537	-1.239254	0.684246
O147	O	0.970896	-1.114065	0.373796
C148	C	0.923355	-1.177527	0.433563
H149	H	0.949286	-1.193877	0.513219
H150	H	0.868794	-1.135297	0.445029
C151	C	0.878250	-1.261728	0.277925
C152	C	0.910101	-1.281816	0.375757
H153	H	0.870071	-1.326056	0.242266
H154	H	0.910277	-1.218970	0.237658
H155	H	0.832786	-1.226534	0.287493
H156	H	0.955568	-1.316997	0.366187
H157	H	0.878082	-1.324582	0.416021
H158	H	0.633710	-0.384370	0.628280
H159	H	0.873602	-1.000829	0.391337
O160	O	1.156336	-0.638424	0.898369
C161	C	1.146237	-0.624041	0.789763
H162	H	1.089448	-0.589627	0.774781
H163	H	1.189896	-0.568114	0.758634
C164	C	1.222691	-0.772636	0.751818
C165	C	1.152939	-0.730376	0.733416
H166	H	1.226829	-0.838226	0.717058
H167	H	1.229498	-0.782324	0.824987
H168	H	1.259066	-0.726020	0.725876
H169	H	1.116567	-0.776985	0.759369
H170	H	1.146127	-0.720698	0.660249
O171	O	1.257644	-0.612747	0.997474
C172	C	1.278578	-0.687994	0.922248
H173	H	1.292389	-0.764874	0.963233
H174	H	1.231455	-0.701219	0.864922
C175	C	1.329485	-0.554048	0.811809
C176	C	1.346453	-0.648471	0.862149
H177	H	1.371351	-0.529668	0.774733
H178	H	1.315379	-0.503352	0.862487
H179	H	1.290214	-0.565082	0.764044
H180	H	1.385717	-0.637434	0.909921
H181	H	1.360567	-0.699165	0.811476
O182	O	1.350356	-0.745211	1.105686
C183	C	1.360547	-0.852457	1.083351
H184	H	1.319051	-0.900792	1.129546
H185	H	1.352281	-0.866591	0.995908
C186	C	1.489862	-0.825856	1.057937
C187	C	1.438901	-0.885223	1.114682
H188	H	1.538195	-0.846068	1.077258
H189	H	1.482997	-0.753601	1.072980
H190	H	1.482965	-0.837640	0.985072
H191	H	1.445792	-0.873428	1.187544
H192	H	1.445769	-0.957477	1.099652
H193	H	0.963334	-0.672591	0.206149
H194	H	1.048712	-0.771916	0.328190
H195	H	1.048782	-0.328048	0.772921
H196	H	1.163942	-0.805689	1.339999
H197	H	1.078564	-0.683807	1.240497
