data_functionalizedCrystal
_audit_creation_method	'MofGen! by Chris Wilmer'
_symmetry_space_group_name_H-M	'P1'
_symmetry_Int_Tables_number	1
_symmetry_cell_setting	triclinic
loop_
_symmetry_equiv_pos_as_xyz
  x,y,z
_cell_length_a	19.188930
_cell_length_b	18.266242
_cell_length_c	14.044220
_cell_angle_alpha	89.993114
_cell_angle_beta	91.833172
_cell_angle_gamma	90.022918
loop_
_atom_site_label
_atom_site_type_symbol
_atom_site_fract_x
_atom_site_fract_y
_atom_site_fract_z
O1	O	0.933784	0.061120	-0.118310
O2	O	1.433784	0.561120	0.381690
O3	O	0.731500	0.061071	-0.134236
O4	O	1.231500	0.561071	0.365764
O5	O	0.829606	0.061087	0.011699
O6	O	1.329606	0.561087	0.511699
O7	O	0.835678	0.061103	-0.264245
O8	O	1.335678	0.561103	0.235755
O9	O	0.829587	-0.060675	0.011707
O10	O	1.329587	0.439325	0.511707
O11	O	0.731482	-0.060691	-0.134229
O12	O	1.231482	0.439309	0.365771
O13	O	0.933765	-0.060642	-0.118302
O14	O	1.433765	0.439358	0.381698
Zn15	Zn	0.832620	-0.079999	-0.126264
Zn16	Zn	1.332620	0.420001	0.373736
Zn17	Zn	0.832645	0.080428	-0.126274
Zn18	Zn	1.332645	0.580428	0.373726
O19	O	0.835660	-0.060659	-0.264237
O20	O	1.335660	0.439341	0.235763
C21	C	0.705447	0.000183	-0.133716
C22	C	1.205447	0.500183	0.366284
C23	C	0.627842	0.000164	-0.132168
C24	C	1.127842	0.500164	0.367832
C25	C	0.588444	0.000180	-0.217798
C26	C	1.088444	0.500180	0.282202
C27	C	0.515526	0.000188	-0.216344
C28	C	1.015526	0.500188	0.283656
C29	C	0.482010	0.000194	-0.129254
C30	C	0.982010	0.500194	0.370746
C31	C	0.521417	0.000174	-0.043613
C32	C	1.021417	0.500174	0.456387
C33	C	0.594333	0.000159	-0.045070
C34	C	1.094333	0.500159	0.454930
N35	N	0.369740	0.041661	-0.062688
N36	N	0.869740	0.541661	0.437312
N37	N	0.300473	0.041677	-0.061310
N38	N	0.800473	0.541677	0.438690
C39	C	0.262318	0.000239	-0.124859
C40	C	0.762318	0.500239	0.375141
N41	N	0.296046	-0.041207	-0.189854
N42	N	0.796046	0.458793	0.310146
N43	N	0.365320	-0.041219	-0.191235
N44	N	0.865320	0.458781	0.308765
C45	C	0.402945	0.000211	-0.127665
C46	C	0.902945	0.500211	0.372335
C47	C	0.143854	0.000263	-0.208918
C48	C	0.643854	0.500263	0.291082
C49	C	0.070935	0.000266	-0.207460
C50	C	0.570935	0.500266	0.292540
C51	C	0.076827	0.000259	-0.034727
C52	C	0.576827	0.500259	0.465273
C53	C	0.149744	0.000249	-0.036188
C54	C	0.649744	0.500249	0.463812
C55	C	0.183253	0.000254	-0.123286
C56	C	0.683253	0.500254	0.376714
N57	N	0.832609	-0.189486	-0.126257
N58	N	1.332609	0.310514	0.373743
C59	C	0.876067	-0.227787	-0.061668
C60	C	1.376067	0.272213	0.438332
C61	C	0.876072	-0.304432	-0.061664
C62	C	1.376072	0.195568	0.438336
C63	C	0.832625	-0.342773	-0.126264
C64	C	1.332625	0.157227	0.373736
C65	C	0.789158	-0.304462	-0.190858
C66	C	1.289158	0.195538	0.309142
C67	C	0.789149	-0.227819	-0.190854
C68	C	1.289149	0.272181	0.309146
N69	N	0.828962	-0.463102	-0.210153
N70	N	1.328962	0.036898	0.289847
N71	N	0.828974	-0.535910	-0.210153
N72	N	1.328974	-0.035910	0.289847
C73	C	0.832645	-0.573695	-0.126278
C74	C	1.332645	-0.073695	0.373722
N75	N	0.836318	-0.535922	-0.042400
N76	N	1.336318	-0.035922	0.457600
N77	N	0.836310	-0.463107	-0.042400
N78	N	1.336310	0.036893	0.457600
C79	C	0.832628	-0.425880	-0.126275
C80	C	1.332628	0.074120	0.373725
C81	C	0.876111	-0.695104	-0.061679
C82	C	1.376111	-0.195104	0.438321
C83	C	0.876110	-0.771750	-0.061674
C84	C	1.376110	-0.271750	0.438326
C85	C	0.789200	-0.771778	-0.190876
C86	C	1.289200	-0.271778	0.309124
C87	C	0.789197	-0.695134	-0.190873
C88	C	1.289197	-0.195134	0.309127
C89	C	0.832656	-0.656801	-0.126276
C90	C	1.332656	-0.156801	0.373724
C91	C	0.959819	0.000247	-0.118822
C92	C	1.459819	0.500247	0.381178
C93	C	1.037423	0.000271	-0.120370
C94	C	1.537423	0.500271	0.379630
C95	C	0.826938	0.000206	0.047006
C96	C	1.326938	0.500206	0.547006
C97	C	0.819010	0.000203	0.152199
C98	C	1.319010	0.500203	0.652199
N99	N	0.832662	0.189915	-0.126274
N100	N	1.332662	0.689915	0.373726
C101	C	0.838327	0.000225	-0.299545
C102	C	1.338327	0.500225	0.200455
C103	C	0.846256	0.000233	-0.404737
C104	C	1.346256	0.500233	0.095263
C105	C	0.804514	0.000210	0.344801
C106	C	1.304514	0.500210	0.844801
C107	C	0.860749	0.000226	0.402667
C108	C	1.360749	0.500226	0.902667
C109	C	0.852683	0.000230	0.509837
C110	C	1.352683	0.500230	1.009837
C111	C	0.812578	0.000206	0.237621
C112	C	1.312578	0.500206	0.737621
H113	H	0.483442	0.000200	-0.286076
H114	H	0.983442	0.500200	0.213924
C115	C	0.625299	0.000171	-0.313609
C116	C	1.125299	0.500171	0.186391
N117	N	0.653060	0.000160	-0.385775
N118	N	1.153060	0.500160	0.114225
C119	C	0.933973	0.000233	0.360862
C120	C	1.433973	0.500233	0.860862
N121	N	0.989123	0.000235	0.329370
N122	N	1.489123	0.500235	0.829370
C123	C	0.731295	0.000182	0.386606
C124	C	1.231295	0.500182	0.886606
N125	N	0.676147	0.000155	0.418105
N126	N	1.176147	0.500155	0.918105
C127	C	0.180716	0.000260	-0.304727
C128	C	0.680716	0.500260	0.195273
N129	N	0.208478	0.000256	-0.376891
N130	N	0.708478	0.500256	0.123109
C131	C	0.484548	0.000181	0.052186
C132	C	0.984548	0.500181	0.552186
N133	N	0.456778	0.000185	0.124344
N134	N	0.956778	0.500185	0.624344
H135	H	0.911453	-0.196579	-0.009067
H136	H	1.411453	0.303421	0.490933
C137	C	0.741408	-0.813949	-0.261938
C138	C	1.241408	-0.313949	0.238062
N139	N	0.705410	-0.845715	-0.315464
N140	N	1.205410	-0.345715	0.184536
C141	C	0.027597	0.000274	-0.301665
C142	C	0.527597	0.500274	0.198335
N143	N	-0.005046	0.000277	-0.372622
N144	N	0.494954	0.500277	0.127378
H145	H	0.049539	0.000310	0.036183
H146	H	0.549539	0.500310	0.536183
C147	C	0.637673	0.000145	0.049134
C148	C	1.137673	0.500145	0.549134
N149	N	0.670317	0.000138	0.120090
N150	N	1.170317	0.500138	0.620090
H151	H	0.911462	-0.335623	-0.009066
H152	H	1.411462	0.164377	0.490934
C153	C	0.193084	0.000239	0.058014
C154	C	0.693084	0.500239	0.558014
N155	N	0.225728	0.000231	0.128970
N156	N	0.725728	0.500231	0.628970
C157	C	0.741372	-0.185686	-0.261951
C158	C	1.241372	0.314314	0.238049
N159	N	0.705398	-0.153950	-0.315518
N160	N	1.205398	0.346050	0.184482
C161	C	0.741363	-0.346638	-0.261914
C162	C	1.241363	0.153362	0.238086
N163	N	0.705359	-0.378405	-0.315433
N164	N	1.205359	0.121595	0.184567
H165	H	0.911496	-0.663892	-0.009077
H166	H	1.411496	-0.163892	0.490923
C167	C	0.923908	-0.813881	0.009399
C168	C	1.423908	-0.313881	0.509399
N169	N	0.959907	-0.845615	0.062936
N170	N	1.459907	-0.345615	0.562936
H171	H	0.753811	-0.663947	-0.243471
H172	H	1.253811	-0.163947	0.256529
