data_functionalizedCrystal
_audit_creation_method	'MofGen! by Chris Wilmer'
_symmetry_space_group_name_H-M	'P1'
_symmetry_Int_Tables_number	1
_symmetry_cell_setting	triclinic
loop_
_symmetry_equiv_pos_as_xyz
  x,y,z
_cell_length_a	10.489741
_cell_length_b	17.699083
_cell_length_c	16.776229
_cell_angle_alpha	90.007545
_cell_angle_beta	90.004427
_cell_angle_gamma	83.911094
loop_
_atom_site_label
_atom_site_type_symbol
_atom_site_fract_x
_atom_site_fract_y
_atom_site_fract_z
O1	O	-1.692074	-0.106782	-0.066241
O2	O	-1.320692	-0.116805	-0.066253
O3	O	-1.516876	-0.001673	-0.066240
O4	O	-1.495891	-0.221914	-0.066254
O5	O	-1.516850	-0.001666	0.066337
O6	O	-1.320666	-0.116798	0.066323
O7	O	-1.692048	-0.106775	0.066336
Zn8	Zn	-1.506353	-0.111785	0.087379
Zn9	Zn	-1.506387	-0.111795	-0.087296
O10	O	-1.495865	-0.221907	0.066322
C11	C	-1.516111	0.026533	0.000049
C12	C	-1.513855	0.110565	0.000049
C13	C	-1.273162	-0.116044	0.000033
C14	C	-1.131574	-0.113779	0.000029
C15	C	-1.739579	-0.107535	0.000047
C16	C	-1.881166	-0.109800	0.000047
C17	C	-1.064795	-0.040524	0.000041
C18	C	-0.972038	-0.075133	-0.065327
C19	C	-0.972046	-0.075143	0.065384
C20	C	-1.040682	-0.148418	-0.065393
C21	C	-1.040700	-0.148418	0.065376
C22	C	-0.947970	-0.183080	-0.000008
C23	C	-1.496630	-0.250112	0.000032
C24	C	-1.498886	-0.334145	0.000027
N25	N	-1.506339	-0.111778	0.206590
C26	C	-1.629011	0.158433	0.000054
C27	C	-1.626883	0.237390	0.000047
C28	C	-1.509599	0.268478	0.000040
C29	C	-1.394435	0.220605	0.000033
C30	C	-1.396563	0.141649	0.000034
C31	C	-1.385848	0.539024	0.000026
C32	C	-1.383729	0.617986	0.000027
C33	C	-1.616168	0.634765	0.000039
C34	C	-1.618297	0.555810	0.000040
C35	C	-1.503133	0.507943	0.000028
C36	C	-1.505441	0.422328	0.000035
C37	C	-1.507290	0.354091	0.000040
N38	N	-1.506412	-0.111796	-0.206508
C39	C	-1.593236	-0.060819	0.248313
C40	C	-1.593243	-0.060818	0.331765
C41	C	-1.506358	-0.111781	0.373493
C42	C	-1.419453	-0.162743	0.331764
C43	C	-1.419441	-0.162739	0.248313
C44	C	-1.419499	-0.162758	0.668311
C45	C	-1.419520	-0.162759	0.751768
C46	C	-1.593301	-0.060837	0.751763
C47	C	-1.593289	-0.060833	0.668313
C48	C	-1.506379	-0.111792	0.626591
C49	C	-1.506371	-0.111791	0.536103
C50	C	-1.506372	-0.111786	0.463980
H51	H	-1.115604	0.019696	-0.000036
C52	C	-1.753555	0.290042	0.000061
H53	H	-1.823708	0.260218	0.000076
H54	H	-1.757578	0.321187	-0.046171
H55	H	-1.757536	0.321195	0.046299
H56	H	-1.663992	-0.019322	0.214344
C57	C	-1.323860	-0.218794	0.202414
H58	H	-1.336287	-0.211489	0.146738
H59	H	-1.337547	-0.269389	0.216077
H60	H	-1.238766	-0.210075	0.216102
C61	C	-0.930920	-0.033267	-0.139974
H62	H	-0.971322	0.017380	-0.139893
H63	H	-0.955568	-0.058806	-0.186397
H64	H	-0.840496	-0.032531	-0.139674
H65	H	-1.070946	-0.179393	-0.120719
H66	H	-1.348764	-0.204261	0.785741
H67	H	-0.941634	-0.044131	0.120647
C68	C	-1.081865	-0.190250	0.140029
H69	H	-1.058644	-0.164148	0.186434
H70	H	-1.040256	-0.240605	0.140496
H71	H	-1.172110	-0.191785	0.139222
H72	H	-1.298940	0.245923	0.000023
C73	C	-1.254714	0.652185	0.000014
H74	H	-1.269945	0.706064	0.000023
H75	H	-1.207322	0.635795	-0.046223
H76	H	-1.207293	0.635803	0.046247
H77	H	-1.713801	0.530502	0.000049
H78	H	-1.724517	0.133128	0.000064
H79	H	-1.663999	-0.019323	0.365736
C80	C	-1.742848	0.687421	0.000038
H81	H	-1.724790	0.738897	0.000027
H82	H	-1.790942	0.677937	0.046273
H83	H	-1.790956	0.677919	-0.046198
C84	C	-1.259174	0.486380	0.000027
H85	H	-1.189023	0.516206	0.000034
H86	H	-1.255168	0.455222	-0.046203
H87	H	-1.255168	0.455240	0.046268
C88	C	-1.269893	0.088994	0.000031
H89	H	-1.199737	0.118816	0.000034
H90	H	-1.265902	0.057839	-0.046201
H91	H	-1.265882	0.057851	0.046269
H92	H	-1.664042	-0.019337	0.634341
H93	H	-0.897426	-0.243364	-0.000048
H94	H	-1.664064	-0.019341	0.785742
H95	H	-1.348736	-0.204251	0.634348
C96	C	-1.323884	-0.218802	0.377662
H97	H	-1.336345	-0.211512	0.433338
H98	H	-1.238787	-0.210090	0.363999
H99	H	-1.337582	-0.269396	0.363972
