data_functionalizedCrystal
_audit_creation_method	'MofGen! by Chris Wilmer'
_symmetry_space_group_name_H-M	'P1'
_symmetry_Int_Tables_number	1
_symmetry_cell_setting	triclinic
loop_
_symmetry_equiv_pos_as_xyz
  x,y,z
_cell_length_a	12.811445
_cell_length_b	12.837942
_cell_length_c	15.455313
_cell_angle_alpha	92.949088
_cell_angle_beta	81.881657
_cell_angle_gamma	89.412982
loop_
_atom_site_label
_atom_site_type_symbol
_atom_site_fract_x
_atom_site_fract_y
_atom_site_fract_z
O1	O	1.417209	0.128222	-0.183602
O2	O	1.111761	0.144908	-0.159578
O3	O	1.257712	-0.014333	-0.171052
O4	O	1.271258	0.287464	-0.172128
O5	O	1.249362	-0.005264	-0.026133
O6	O	1.103411	0.153977	-0.014660
O7	O	1.408859	0.137291	-0.038683
Cu8	Cu	1.255373	0.146462	-0.013439
Cu9	Cu	1.265247	0.135737	-0.184822
O10	O	1.262908	0.296532	-0.027210
C11	C	1.068219	0.148784	-0.084023
C12	C	0.950915	0.146810	-0.074797
C13	C	0.739590	0.133234	-0.215466
C14	C	0.629373	0.131379	-0.206802
C15	C	0.620262	0.141255	-0.048803
C16	C	0.730479	0.143109	-0.057468
C17	C	0.790139	0.139097	-0.140802
C18	C	0.900359	0.140944	-0.149466
C19	C	0.891245	0.150827	0.008532
C20	C	0.781028	0.148972	0.017197
C21	C	1.248961	-0.048417	-0.098233
C22	C	1.235313	-0.163486	-0.097161
C23	C	1.399386	-0.404545	-0.110084
C24	C	1.386568	-0.512663	-0.109077
C25	C	1.196859	-0.487842	-0.094147
C26	C	1.209678	-0.379724	-0.095154
C27	C	1.310944	-0.338080	-0.103121
C28	C	1.323761	-0.229959	-0.104122
C29	C	1.134054	-0.205141	-0.089198
C30	C	1.121235	-0.313259	-0.088192
C31	C	1.452401	0.133415	-0.114241
C32	C	1.569705	0.135388	-0.123472
C33	C	1.271659	0.330616	-0.100030
C34	C	1.285308	0.445684	-0.101108
N35	N	1.248435	0.154004	0.107102
N36	N	1.272193	0.128186	-0.305364
C37	C	1.310466	0.086378	0.147619
C38	C	1.305230	0.092092	0.238839
C39	C	1.237968	0.165437	0.289539
C40	C	1.175930	0.233067	0.249015
C41	C	1.181161	0.227347	0.157798
C42	C	1.215385	0.190096	0.562895
C43	C	1.210161	0.195813	0.654119
C44	C	1.339461	0.054836	0.643936
C45	C	1.344691	0.049127	0.552717
C46	C	1.282649	0.116753	0.512202
N47	N	1.232617	0.171282	0.382780
N48	N	1.287995	0.110903	0.418963
H49	H	0.571667	0.144531	0.019044
H50	H	1.399461	-0.010597	0.511439
H51	H	1.038787	-0.347182	-0.081708
O52	O	1.432980	-0.185037	-0.112715
H53	H	1.446748	-0.140056	-0.172593
H54	H	1.062037	-0.151012	-0.083522
H55	H	1.389972	-0.000223	0.676932
H56	H	1.114413	-0.521770	-0.087670
O57	O	0.945770	0.157185	0.089067
H58	H	0.885764	0.159667	0.148467
H59	H	1.121157	0.292783	0.290301
O60	O	1.114262	0.300291	0.114089
H61	H	1.066619	0.352262	0.164666
O62	O	0.964719	0.136615	-0.239341
H63	H	0.943456	0.204508	-0.275374
H64	H	1.481841	-0.370637	-0.116562
H65	H	0.788167	0.129961	-0.283321
H66	H	1.155385	0.255544	0.695395
H67	H	1.458587	-0.566776	-0.114749
H68	H	1.365243	0.026656	0.106344
H69	H	1.164870	0.245162	0.529915
O70	O	1.372159	0.019163	0.282531
H71	H	1.351627	-0.062745	0.266723
O72	O	0.574848	0.125026	-0.287330
H73	H	0.634854	0.122531	-0.346730
H74	H	0.732438	0.152243	0.085045
