data_functionalizedCrystal
_audit_creation_method	'MofGen! by Chris Wilmer'
_symmetry_space_group_name_H-M	'P1'
_symmetry_Int_Tables_number	1
_symmetry_cell_setting	triclinic
loop_
_symmetry_equiv_pos_as_xyz
  x,y,z
_cell_length_a	18.215407
_cell_length_b	12.759399
_cell_length_c	18.215399
_cell_angle_alpha	90.021345
_cell_angle_beta	89.982187
_cell_angle_gamma	89.989956
loop_
_atom_site_label
_atom_site_type_symbol
_atom_site_fract_x
_atom_site_fract_y
_atom_site_fract_z
Zn1	Zn	1.125120	0.418431	-0.416110
Zn2	Zn	1.458453	0.751764	-0.082777
Zn3	Zn	1.791786	1.085098	0.250557
Zn4	Zn	1.125048	0.594128	-0.293058
Zn5	Zn	1.458382	0.927462	0.040275
Zn6	Zn	1.791715	1.260795	0.373609
Zn7	Zn	1.002052	0.418447	-0.293062
Zn8	Zn	1.335386	0.751780	0.040272
Zn9	Zn	1.668719	1.085114	0.373605
Zn10	Zn	1.002038	0.594052	-0.416087
Zn11	Zn	1.335372	0.927385	-0.082754
Zn12	Zn	1.668705	1.260718	0.250580
O13	O	1.063565	0.506264	-0.354579
O14	O	1.396898	0.839598	-0.021246
O15	O	1.730231	1.172931	0.312088
O16	O	1.228095	0.441763	-0.399795
O17	O	1.561428	0.775096	-0.066461
O18	O	1.894761	1.108430	0.266872
O19	O	1.108709	0.570863	-0.190074
O20	O	1.442042	0.904196	0.143259
O21	O	1.775375	1.237529	0.476593
O22	O	1.018413	0.271424	-0.309395
O23	O	1.351747	0.604757	0.023938
O24	O	1.685080	0.938091	0.357271
O25	O	1.228042	0.570847	-0.309389
O26	O	1.561375	0.904180	0.023944
O27	O	1.894709	1.237514	0.357278
O28	O	1.108830	0.271412	-0.399798
O29	O	1.442164	0.604745	-0.066465
O30	O	1.775497	0.938079	0.266868
O31	O	1.018344	0.441790	-0.190077
O32	O	1.351677	0.775124	0.143256
O33	O	1.685011	1.108457	0.476590
O34	O	0.899066	0.441716	-0.309373
O35	O	1.232400	0.775049	0.023960
O36	O	1.565733	1.108383	0.357293
O37	O	1.018389	0.570716	-0.519074
O38	O	1.351723	0.904050	-0.185741
O39	O	1.685056	1.237383	0.147592
O40	O	0.899056	0.570732	-0.399760
O41	O	1.232389	0.904065	-0.066426
O42	O	1.565723	1.237399	0.266907
O43	O	1.108817	0.441689	-0.519091
O44	O	1.442150	0.775022	-0.185758
O45	O	1.775483	1.108355	0.147575
O46	O	1.108695	0.741139	-0.309367
O47	O	1.442028	1.074472	0.023967
O48	O	1.775362	1.407806	0.357300
O49	O	1.018320	0.741083	-0.399756
O50	O	1.351653	1.074416	-0.066423
O51	O	1.684987	1.407749	0.266911
C52	C	0.872358	0.506218	-0.354565
C53	C	1.205692	0.839552	-0.021231
C54	C	1.539025	1.172885	0.312102
C55	C	0.790560	0.506224	-0.354576
C56	C	1.123893	0.839557	-0.021243
C57	C	1.457226	1.172890	0.312091
C58	C	0.525524	0.439180	-0.401728
C59	C	0.858857	0.772513	-0.068395
C60	C	1.192190	1.105846	0.264938
C61	C	0.602382	0.439163	-0.401726
C62	C	0.935716	0.772496	-0.068393
C63	C	1.269049	1.105829	0.264940
C64	C	0.602347	0.573383	-0.307446
C65	C	0.935680	0.906716	0.025887
C66	C	1.269014	1.240050	0.359221
C67	C	0.525490	0.573405	-0.307452
C68	C	0.858823	0.906738	0.025881
C69	C	1.192156	1.240071	0.359214
C70	C	0.487080	0.506297	-0.354593
C71	C	0.820413	0.839630	-0.021259
C72	C	1.153747	1.172964	0.312074
C73	C	0.640796	0.506258	-0.354584
C74	C	0.974129	0.839592	-0.021250
C75	C	1.307463	1.172925	0.312083
C76	C	0.724130	0.506241	-0.354581
C77	C	1.057463	0.839574	-0.021248
C78	C	1.390796	1.172907	0.312086
C79	C	0.403741	0.506316	-0.354597
C80	C	0.737074	0.839649	-0.021263
C81	C	1.070408	1.172983	0.312070
C82	C	1.063518	0.779232	-0.354574
C83	C	1.396852	1.112565	-0.021241
C84	C	1.730185	1.445899	0.312092
C85	C	1.063566	0.896008	-0.354597
C86	C	1.396899	1.229342	-0.021264
C87	C	1.730232	1.562675	0.312070
C88	C	1.110675	0.950865	-0.307586
C89	C	1.444009	1.284198	0.025748
C90	C	1.777342	1.617532	0.359081
C91	C	1.110720	1.060589	-0.307613
C92	C	1.444053	1.393922	0.025721
C93	C	1.777386	1.727256	0.359054
C94	C	1.016538	1.060590	-0.401665
C95	C	1.349871	1.393924	-0.068331
C96	C	1.683204	1.727257	0.265002
C97	C	1.016498	0.950868	-0.401641
C98	C	1.349831	1.284202	-0.068307
C99	C	1.683164	1.617535	0.265026
C100	C	1.157743	0.896005	-0.260542
C101	C	1.491077	1.229338	0.072791
C102	C	1.824410	1.562672	0.406125
C103	C	1.204856	0.950862	-0.213526
C104	C	1.538190	1.284195	0.119807
C105	C	1.871523	1.617528	0.453140
C106	C	1.204900	1.060586	-0.213553
C107	C	1.538234	1.393919	0.119780
C108	C	1.871567	1.727252	0.453113
C109	C	1.157831	1.115453	-0.260596
C110	C	1.491165	1.448786	0.072737
C111	C	1.824498	1.782120	0.406071
C112	C	1.255518	0.506312	-0.354594
C113	C	1.588851	0.839645	-0.021261
C114	C	1.922184	1.172978	0.312073
C115	C	1.337316	0.506332	-0.354600
C116	C	1.670650	0.839665	-0.021267
C117	C	2.003983	1.172998	0.312066
C118	C	1.063609	0.506192	-0.546532
C119	C	1.396943	0.839525	-0.213199
C120	C	1.730276	1.172859	0.120135
C121	C	1.063629	0.506161	-0.628331
C122	C	1.396962	0.839494	-0.294998
C123	C	1.730295	1.172828	0.038336
C124	C	1.063629	1.232231	-0.354610
C125	C	1.396962	1.565564	-0.021276
C126	C	1.730295	1.898898	0.312057
C127	C	1.063649	1.115454	-0.354648
C128	C	1.396983	1.448788	-0.021315
C129	C	1.730316	1.782121	0.312019
C130	C	1.110731	0.438914	-0.816535
C131	C	1.444064	0.772247	-0.483202
C132	C	1.777398	1.105580	-0.149868
C133	C	1.110740	0.438883	-0.893394
C134	C	1.444073	0.772216	-0.560060
C135	C	1.777407	1.105550	-0.226727
C136	C	1.016578	0.573246	-0.893365
C137	C	1.349911	0.906580	-0.560032
C138	C	1.683245	1.239913	-0.226698
C139	C	1.016566	0.573271	-0.816508
C140	C	1.349900	0.906604	-0.483174
C141	C	1.683233	1.239937	-0.149841
C142	C	1.063647	0.506106	-0.778095
C143	C	1.396980	0.839439	-0.444761
C144	C	1.730314	1.172773	-0.111428
C145	C	1.063668	0.506051	-0.931811
C146	C	1.397001	0.839384	-0.598477
C147	C	1.730334	1.172718	-0.265144
C148	C	1.063677	0.506018	-1.015145
C149	C	1.397010	0.839352	-0.681811
C150	C	1.730343	1.172685	-0.348478
C151	C	1.063637	0.506137	-0.694756
C152	C	1.396970	0.839470	-0.361422
C153	C	1.730304	1.172804	-0.028089
C154	C	1.063562	0.506261	-0.163373
C155	C	1.396896	0.839594	0.169960
C156	C	1.730229	1.172927	0.503294
C157	C	1.063686	0.505996	-0.081574
C158	C	1.397019	0.839329	0.251759
C159	C	1.730352	1.172662	0.585092
H160	H	0.633680	0.384510	-0.440110
H161	H	0.967013	0.717844	-0.106776
H162	H	1.300347	1.051177	0.226557
F163	F	1.160836	0.367428	-0.775656
F164	F	1.494170	0.700762	-0.442322
F165	F	1.827503	1.034095	-0.108989
H166	H	1.149079	0.384166	-0.924689
H167	H	1.482413	0.717500	-0.591355
H168	H	1.815746	1.050833	-0.258022
F169	F	1.255047	1.118965	-0.163522
F170	F	1.588381	1.452298	0.169811
F171	F	1.921714	1.785632	0.503144
H172	H	0.978216	1.105272	-0.439964
H173	H	1.311549	1.438605	-0.106631
H174	H	1.644882	1.771939	0.226703
H175	H	0.494188	0.628065	-0.269068
H176	H	0.827521	0.961399	0.064265
H177	H	1.160854	1.294732	0.397598
H178	H	1.157711	0.806662	-0.260513
H179	H	1.491044	1.139996	0.072821
H180	H	1.824377	1.473329	0.406154
F181	F	0.966359	0.892483	-0.451677
F182	F	1.299693	1.225816	-0.118343
F183	F	1.633026	1.559149	0.214990
H184	H	1.157877	1.204798	-0.260620
H185	H	1.491210	1.538131	0.072713
H186	H	1.824544	1.871464	0.406047
F187	F	0.484648	0.367760	-0.451901
F188	F	0.817981	0.701094	-0.118568
F189	F	1.151314	1.034427	0.214766
H190	H	0.978248	0.627932	-0.924650
H191	H	1.311582	0.961265	-0.591317
H192	H	1.644915	1.294598	-0.257984
H193	H	1.243183	0.906183	-0.175230
H194	H	1.576516	1.239516	0.158104
H195	H	1.909850	1.572850	0.491437
F196	F	0.643232	0.644797	-0.257277
F197	F	0.976565	0.978130	0.076057
F198	F	1.309898	1.311463	0.409390
F199	F	0.966447	0.644785	-0.775594
F200	F	1.299780	0.978118	-0.442261
F201	F	1.633113	1.311452	-0.108928
