data_functionalizedCrystal
_audit_creation_method	'MofGen! by Chris Wilmer'
_symmetry_space_group_name_H-M	'P1'
_symmetry_Int_Tables_number	1
_symmetry_cell_setting	triclinic
loop_
_symmetry_equiv_pos_as_xyz
  x,y,z
_cell_length_a	8.559649
_cell_length_b	8.140239
_cell_length_c	9.065218
_cell_angle_alpha	89.998314
_cell_angle_beta	77.397275
_cell_angle_gamma	89.997621
loop_
_atom_site_label
_atom_site_type_symbol
_atom_site_fract_x
_atom_site_fract_y
_atom_site_fract_z
O1	O	2.119401	-0.136587	-0.049968
O2	O	2.619401	0.363413	0.450032
O3	O	1.655298	-0.136594	0.026097
O4	O	2.155298	0.363406	0.526097
O5	O	1.896942	-0.136587	-0.227784
O6	O	2.396942	0.363413	0.272216
O7	O	1.877757	-0.136594	0.203912
O8	O	2.377757	0.363406	0.703912
O9	O	1.896929	0.136640	-0.227785
O10	O	2.396929	0.636640	0.272215
O11	O	1.655284	0.136633	0.026096
O12	O	2.155284	0.636633	0.526096
O13	O	2.119387	0.136640	-0.049969
O14	O	2.619387	0.636640	0.450031
Zn15	Zn	1.887334	0.180017	-0.011937
Zn16	Zn	2.387334	0.680017	0.488063
Zn17	Zn	1.887352	-0.179971	-0.011936
Zn18	Zn	2.387352	0.320029	0.488064
O19	O	1.877743	0.136633	0.203911
O20	O	2.377743	0.636633	0.703911
C21	C	1.595845	0.000018	0.031861
C22	C	2.095845	0.500018	0.531861
C23	C	1.418713	0.000016	0.049020
C24	C	1.918713	0.500016	0.549020
N25	N	1.887333	0.425700	-0.011940
N26	N	2.387333	0.925700	0.488060
N27	N	1.887365	-0.425654	-0.011946
N28	N	2.387365	0.074346	0.488054
C29	C	2.178841	0.000023	-0.055733
C30	C	2.678841	0.500023	0.444267
C31	C	2.355972	0.000015	-0.072892
C32	C	2.855972	0.500015	0.427108
C33	C	1.895092	0.000024	-0.282539
C34	C	2.395092	0.500024	0.217461
C35	C	1.889578	0.000016	-0.445689
C36	C	2.389578	0.500016	0.054311
C37	C	1.879594	0.000018	0.258667
C38	C	2.379594	0.500018	0.758667
C39	C	1.885107	0.000015	0.421817
C40	C	2.385107	0.500015	0.921817
H41	H	1.437769	0.000009	-0.190393
H42	H	1.937769	0.500009	0.309607
C43	C	1.308203	0.000012	0.207771
C44	C	1.808203	0.500012	0.707771
N45	N	1.224967	0.000012	0.327340
N46	N	1.724967	0.500012	0.827340
