data_functionalizedCrystal
_audit_creation_method	'MofGen! by Chris Wilmer'
_symmetry_space_group_name_H-M	'P1'
_symmetry_Int_Tables_number	1
_symmetry_cell_setting	triclinic
loop_
_symmetry_equiv_pos_as_xyz
  x,y,z
_cell_length_a	6.817900
_cell_length_b	7.076028
_cell_length_c	11.102188
_cell_angle_alpha	88.530273
_cell_angle_beta	71.396125
_cell_angle_gamma	62.299348
loop_
_atom_site_label
_atom_site_type_symbol
_atom_site_fract_x
_atom_site_fract_y
_atom_site_fract_z
V1	V	4.225425	-0.665003	-0.173814
O2	O	4.182299	-0.652344	0.010436
O3	O	4.201413	-0.660455	-0.346648
O4	O	4.251883	-0.955033	-0.170226
O5	O	4.131480	-0.355726	-0.167207
V6	V	4.696192	-0.628011	-0.151884
O7	O	4.514663	-0.746148	-0.221920
O8	O	4.857152	-0.546866	-0.103778
O9	O	4.496997	-0.632559	0.020950
O10	O	4.856715	-0.640670	-0.336134
O11	O	4.907534	-0.937288	-0.158491
O12	O	4.446527	-0.337980	-0.155472
C13	C	4.049925	-0.649964	-0.388810
C14	C	4.112079	-0.648179	-0.530098
C15	C	4.047655	-0.452022	-0.578921
C16	C	4.106081	-0.450353	-0.711677
C17	C	4.293348	-0.841015	-0.746778
C18	C	4.234937	-0.842682	-0.614024
C19	C	4.192863	-0.220249	-0.876155
C20	C	4.128401	-0.024080	-0.924980
C21	C	3.907316	0.154673	-0.862263
C22	C	3.750640	0.137268	-0.750720
C23	C	3.815088	-0.058903	-0.701901
C24	C	4.036216	-0.237651	-0.764618
C25	C	4.148131	-1.072772	-0.449542
C26	C	4.212564	-1.268944	-0.400720
C27	C	4.433644	-1.447715	-0.463436
C28	C	4.590301	-1.430330	-0.574984
C29	C	4.525868	-1.234157	-0.623806
C30	C	4.304787	-1.055386	-0.561081
C31	C	4.247433	-0.267276	-0.161935
C32	C	4.121268	-0.025718	-0.163757
C33	C	4.311827	-0.643043	0.063105
C34	C	4.228915	-0.644842	0.204392
H35	H	4.486083	-1.607453	-0.423680
C36	C	3.874949	-0.281107	-0.359832
C37	C	3.912629	-0.238231	-0.486667
H38	H	3.791581	-0.149114	-0.302883
H39	H	4.022717	-0.368430	-0.349407
H40	H	3.784957	-0.354827	-0.341182
H41	H	4.002637	-0.164525	-0.505320
H42	H	3.764837	-0.150874	-0.497097
C43	C	3.609302	0.523536	-0.837328
C44	C	3.836454	0.370307	-0.915928
H45	H	3.565567	0.656650	-0.870468
H46	H	3.607934	0.543394	-0.752719
H47	H	3.500349	0.474492	-0.835511
H48	H	3.945412	0.419344	-0.917737
H49	H	3.837840	0.350452	-1.000559
C50	C	3.592285	0.068982	-0.477316
C51	C	3.642917	-0.078055	-0.579294
H52	H	3.486007	0.057150	-0.401617
H53	H	3.522242	0.211371	-0.497419
H54	H	3.734272	0.038115	-0.463739
H55	H	3.500931	-0.047178	-0.592877
H56	H	3.712955	-0.220477	-0.559188
C57	C	4.466014	-1.011921	-0.965866
C58	C	4.428362	-1.054803	-0.839032
H59	H	4.549348	-1.143910	-1.022815
H60	H	4.556003	-0.938219	-0.984526
H61	H	4.318214	-0.924577	-0.976277
H62	H	4.576163	-1.142135	-0.828619
H63	H	4.338373	-1.128538	-0.820366
C64	C	4.748693	-1.362061	-0.848401
C65	C	4.698072	-1.215037	-0.746419
H66	H	4.855012	-1.350261	-0.924092
H67	H	4.606729	-1.331172	-0.861991
H68	H	4.818708	-1.504469	-0.828289
H69	H	4.628041	-1.072628	-0.766527
H70	H	4.840063	-1.245912	-0.732829
H71	H	4.255986	-0.009924	-1.015801
H72	H	3.570606	0.282827	-0.699670
C73	C	4.856812	-1.802682	-0.577517
C74	C	4.833332	-1.626831	-0.643929
H75	H	5.006853	-1.923993	-0.620077
H76	H	4.735974	-1.836101	-0.575116
H77	H	4.843569	-1.767220	-0.492321
H78	H	4.846557	-1.662288	-0.729122
H79	H	4.954203	-1.593410	-0.646343
H80	H	3.968102	-0.927207	-0.398464
H81	H	4.372908	-0.365784	-0.927221
H82	H	4.084979	-1.283096	-0.309899
