data_functionalizedCrystal
_audit_creation_method	'MofGen! by Chris Wilmer'
_symmetry_space_group_name_H-M	'P1'
_symmetry_Int_Tables_number	1
_symmetry_cell_setting	triclinic
loop_
_symmetry_equiv_pos_as_xyz
  x,y,z
_cell_length_a	22.610064
_cell_length_b	10.723024
_cell_length_c	10.723024
_cell_angle_alpha	84.467869
_cell_angle_beta	90.004660
_cell_angle_gamma	89.991998
loop_
_atom_site_label
_atom_site_type_symbol
_atom_site_fract_x
_atom_site_fract_y
_atom_site_fract_z
O1	O	0.049180	-1.657197	-0.175010
O2	O	0.049182	-1.294045	-0.191764
O3	O	0.049178	-1.483997	-0.001811
O4	O	0.049184	-1.467244	-0.364963
O5	O	-0.049191	-1.483964	-0.001839
O6	O	-0.049187	-1.294011	-0.191791
O7	O	-0.049189	-1.657163	-0.175038
Zn8	Zn	-0.064806	-1.475582	-0.183419
Zn9	Zn	0.064799	-1.475626	-0.183383
O10	O	-0.049185	-1.467211	-0.364991
C11	C	-0.000002	-1.247528	-0.190558
C12	C	-0.000002	-1.108974	-0.186911
N13	N	-0.153259	-1.475561	-0.183443
C14	C	-0.000006	-1.482762	0.044675
C15	C	-0.000005	-1.479114	0.183229
C16	C	-0.561902	-1.559741	-0.099285
C17	C	-0.623822	-1.559747	-0.099276
O18	O	-0.655842	-1.631268	-0.027739
N19	N	-0.654796	-1.475625	-0.183357
C20	C	-0.623847	-1.391482	-0.267444
O21	O	-0.655878	-1.319929	-0.338960
C22	C	-0.561928	-1.391471	-0.267446
C23	C	-0.530957	-1.475607	-0.183368
C24	C	-0.530931	-1.643870	-0.015212
C25	C	-0.469016	-1.643865	-0.015223
C26	C	-0.438071	-1.559731	-0.099306
C27	C	-0.469042	-1.475602	-0.183379
C28	C	-0.530980	-1.307323	-0.351526
C29	C	-0.469057	-1.307318	-0.351520
C30	C	-0.438086	-1.391455	-0.267442
C31	C	-0.376181	-1.391463	-0.267473
N32	N	-0.345207	-1.475586	-0.183391
C33	C	-0.376152	-1.559720	-0.099308
C34	C	-0.753881	-1.391511	-0.267432
C35	C	-0.815798	-1.391527	-0.267437
C36	C	-0.815769	-1.559791	-0.099267
C37	C	-0.753850	-1.559780	-0.099269
C38	C	-0.722907	-1.475633	-0.183351
C39	C	-0.246125	-1.559704	-0.099338
C40	C	-0.184204	-1.559695	-0.099360
C41	C	-0.184238	-1.391427	-0.267525
C42	C	-0.246154	-1.391439	-0.267508
C43	C	-0.277096	-1.475583	-0.183405
O44	O	-0.344122	-1.319976	-0.338969
O45	O	-0.344113	-1.631250	-0.027793
N46	N	0.153252	-1.475657	-0.183349
C47	C	-0.000004	-1.703680	-0.176243
C48	C	-0.000000	-1.842234	-0.179891
C49	C	0.000001	-1.033991	-0.293198
C50	C	0.000001	-0.890788	-0.289431
C51	C	-0.000005	-1.585401	0.258212
C52	C	-0.000004	-1.581634	0.401415
C53	C	-0.000001	-1.468447	0.588523
C54	C	-0.000002	-1.472094	0.449969
H55	H	-0.158989	-1.628213	-0.030894
H56	H	-0.443866	-1.238792	-0.419989
H57	H	-0.271371	-1.322940	-0.335985
H58	H	0.000012	-1.067152	-0.093125
Cl59	Cl	-0.000002	-1.730207	0.193653
Cl60	Cl	-0.000007	-1.331599	0.350504
Cl61	Cl	0.000001	-1.098550	-0.438004
H62	H	-0.000006	-1.672624	0.465848
Cl63	Cl	-0.569823	-1.749653	0.090506
H64	H	-0.271311	-1.628219	-0.030852
Cl65	Cl	-0.430088	-1.749632	0.090487
Cl66	Cl	0.000001	-1.334308	0.247788
H67	H	-0.840975	-1.628296	-0.030800
Cl68	Cl	-0.714922	-1.665553	0.006436
Cl69	Cl	-0.714986	-1.285726	-0.373156
Cl70	Cl	-0.854726	-1.285768	-0.373156
H71	H	-0.556188	-1.238811	-0.419989
H72	H	0.000006	-0.826355	-0.380421
H73	H	0.000001	-0.906659	-0.088896
Cl74	Cl	-0.145326	-1.285663	-0.373227
