data_functionalizedCrystal
_audit_creation_method	'MofGen! by Chris Wilmer'
_symmetry_space_group_name_H-M	'P1'
_symmetry_Int_Tables_number	1
_symmetry_cell_setting	triclinic
loop_
_symmetry_equiv_pos_as_xyz
  x,y,z
_cell_length_a	14.044220
_cell_length_b	8.634740
_cell_length_c	7.681481
_cell_angle_alpha	96.632664
_cell_angle_beta	96.253297
_cell_angle_gamma	83.120408
loop_
_atom_site_label
_atom_site_type_symbol
_atom_site_fract_x
_atom_site_fract_y
_atom_site_fract_z
O1	O	-1.284376	0.390011	0.146221
O2	O	-1.007164	0.376429	0.146267
O3	O	-1.132648	0.156939	0.146244
O4	O	-1.158892	0.609501	0.146244
O5	O	-1.148087	0.129857	-0.146616
O6	O	-1.022603	0.349347	-0.146594
O7	O	-1.299815	0.362929	-0.146639
Zn8	Zn	-1.163660	0.351838	-0.193114
Zn9	Zn	-1.143319	0.387520	0.192742
O10	O	-1.174331	0.582419	-0.146617
C11	C	-0.979025	0.356942	-0.000158
C12	C	-0.872179	0.339204	-0.000140
C13	C	-1.327953	0.382416	-0.000211
C14	C	-1.434800	0.400155	-0.000217
C15	C	-1.134422	0.085130	-0.000182
C16	C	-1.116695	-0.088490	-0.000169
C17	C	-0.676557	0.306771	-0.000175
C18	C	-0.630415	0.432582	-0.000182
C19	C	-0.521564	0.414535	-0.000202
C20	C	-0.785418	0.324815	-0.000155
C21	C	-1.172557	0.654228	-0.000187
C22	C	-1.190284	0.827849	-0.000188
N23	N	-1.177550	0.327486	-0.456451
N24	N	-1.129436	0.411861	0.456079
H25	H	-0.672660	0.553845	-0.000174
N26	N	-1.067800	0.519871	-0.449587
N27	N	-0.979947	0.503761	-0.470048
H28	H	-0.936414	0.580044	-0.403413
N29	N	-1.239169	0.219450	-0.550819
N30	N	-1.247780	0.204363	-0.715408
H31	H	-1.291295	0.128060	-0.782059
N32	N	-1.020635	0.834775	-0.000147
N33	N	-0.958543	0.868701	0.123308
H34	H	-0.890698	0.814502	0.123324
N35	N	-0.623571	0.154651	-0.000206
N36	N	-0.573696	0.102679	-0.123661
H37	H	-0.536264	-0.004755	-0.123681
N38	N	-1.286334	0.904646	-0.000178
N39	N	-1.301085	1.050309	-0.000160
H40	H	-1.368919	1.104550	-0.000152
