data_functionalizedCrystal
_audit_creation_method	'MofGen! by Chris Wilmer'
_symmetry_space_group_name_H-M	'P1'
_symmetry_Int_Tables_number	1
_symmetry_cell_setting	triclinic
loop_
_symmetry_equiv_pos_as_xyz
  x,y,z
_cell_length_a	23.532355
_cell_length_b	23.532407
_cell_length_c	15.072220
_cell_angle_alpha	89.994175
_cell_angle_beta	89.993350
_cell_angle_gamma	82.838088
loop_
_atom_site_label
_atom_site_type_symbol
_atom_site_fract_x
_atom_site_fract_y
_atom_site_fract_z
O1	O	0.755286	0.068990	-0.073671
O2	O	1.255286	0.568990	0.426329
O3	O	0.589418	0.079024	-0.073700
O4	O	1.089418	0.579024	0.426300
O5	O	0.677354	-0.008925	-0.073668
O6	O	1.177354	0.491075	0.426332
O7	O	0.667350	0.156940	-0.073703
O8	O	1.167350	0.656940	0.426297
O9	O	0.677332	-0.008920	0.073897
O10	O	1.177332	0.491080	0.573897
O11	O	0.589397	0.079029	0.073865
O12	O	1.089397	0.579029	0.573865
O13	O	0.755264	0.068995	0.073894
O14	O	1.255264	0.568995	0.573894
Zn15	Zn	0.672327	0.074013	0.097309
Zn16	Zn	1.172327	0.574013	0.597309
Zn17	Zn	0.672355	0.074007	-0.097115
Zn18	Zn	1.172355	0.574007	0.402885
O19	O	0.667329	0.156945	0.073862
O20	O	1.167329	0.656945	0.573862
C21	C	0.568191	0.078776	0.000079
C22	C	1.068191	0.578776	0.500079
C23	C	0.504972	0.078022	0.000068
C24	C	1.004972	0.578022	0.500068
C25	C	0.112946	0.073287	0.080544
C26	C	0.612946	0.573287	0.580544
C27	C	0.053547	0.072569	0.080548
C28	C	0.553547	0.572569	0.580548
O29	O	0.022818	0.072181	0.148956
O30	O	0.522818	0.572181	0.648956
N31	N	0.023850	0.072211	0.000110
N32	N	0.523850	0.572211	0.500110
C33	C	0.053557	0.072564	-0.080336
C34	C	0.553557	0.572564	0.419664
O35	O	0.022843	0.072193	-0.148754
O36	O	0.522843	0.572193	0.351246
C37	C	0.112956	0.073277	-0.080339
C38	C	0.612956	0.573277	0.419661
C39	C	0.142649	0.073641	0.000104
C40	C	0.642649	0.573641	0.500104
C41	C	0.142639	0.073650	0.160980
C42	C	0.642639	0.573650	0.660980
C43	C	0.202035	0.074369	0.160976
C44	C	0.702035	0.574369	0.660976
C45	C	0.231737	0.074724	0.080536
C46	C	0.731737	0.574724	0.580536
C47	C	0.202044	0.074360	0.000100
C48	C	0.702044	0.574360	0.500100
C49	C	0.142662	0.073626	-0.160784
C50	C	0.642662	0.573626	0.339216
C51	C	0.202065	0.074339	-0.160780
C52	C	0.702065	0.574339	0.339220
C53	C	0.231758	0.074704	-0.080337
C54	C	0.731758	0.574704	0.419663
C55	C	0.291141	0.075433	-0.080344
C56	C	0.791141	0.575433	0.419656
N57	N	0.320838	0.075792	0.000094
N58	N	0.820838	0.575792	0.500094
C59	C	0.291136	0.075437	0.080534
C60	C	0.791136	0.575437	0.580534
C61	C	-0.071185	0.071065	-0.080324
C62	C	0.428815	0.571065	0.419676
C63	C	-0.130583	0.070356	-0.080323
C64	C	0.369417	0.570356	0.419677
C65	C	-0.130589	0.070360	0.080561
C66	C	0.369411	0.570360	0.580561
C67	C	-0.071190	0.071073	0.080559
C68	C	0.428810	0.571073	0.580559
C69	C	-0.041488	0.071423	0.000113
C70	C	0.458512	0.571423	0.500113
C71	C	0.415870	0.076946	0.080519
C72	C	0.915870	0.576946	0.580519
C73	C	0.475270	0.077667	0.080508
C74	C	0.975270	0.577667	0.580508
C75	C	0.475271	0.077660	-0.080375
C76	C	0.975271	0.577660	0.419625
C77	C	0.415875	0.076942	-0.080365
C78	C	0.915875	0.576942	0.419635
C79	C	0.386177	0.076583	0.000090
C80	C	0.886177	0.576583	0.500090
O81	O	0.321908	0.075819	-0.148717
O82	O	0.821908	0.575819	0.351283
O83	O	0.321858	0.075801	0.148940
O84	O	0.821858	0.575801	0.648940
C85	C	0.677088	-0.030139	0.000116
C86	C	1.177088	0.469861	0.500116
C87	C	0.676322	-0.093356	0.000123
C88	C	1.176322	0.406644	0.500123
C89	C	0.723557	-0.492468	0.000083
C90	C	1.223557	0.007532	0.500083
C91	C	0.722845	-0.551868	0.000076
C92	C	1.222845	-0.051868	0.500076
O93	O	0.766632	-0.588620	0.000051
O94	O	1.266632	-0.088620	0.500051
N95	N	0.670568	-0.574484	0.000067
N96	N	1.170568	-0.074484	0.500067
C97	C	0.618998	-0.537697	0.000057
C98	C	1.118998	-0.037697	0.500057
O99	O	0.574467	-0.562388	0.000048
O100	O	1.074467	-0.062388	0.500048
C101	C	0.619710	-0.478298	0.000057
C102	C	1.119710	0.021702	0.500057
C103	C	0.671991	-0.455685	0.000075
C104	C	1.171991	0.044315	0.500075
C105	C	0.775834	-0.469854	0.000100
C106	C	1.275834	0.030146	0.500100
C107	C	0.776545	-0.410458	0.000108
C108	C	1.276545	0.089542	0.500108
C109	C	0.724979	-0.373676	0.000100
C110	C	1.224979	0.126324	0.500100
C111	C	0.672703	-0.396289	0.000083
C112	C	1.172703	0.103711	0.500083
C113	C	0.568141	-0.441512	0.000040
C114	C	1.068141	0.058488	0.500040
C115	C	0.568858	-0.382110	0.000040
C116	C	1.068858	0.117890	0.500040
C117	C	0.621139	-0.359497	0.000057
C118	C	1.121139	0.140503	0.500057
C119	C	0.621848	-0.300110	0.000084
C120	C	1.121848	0.199890	0.500084
N121	N	0.674126	-0.277494	0.000092
N122	N	1.174126	0.222506	0.500092
C123	C	0.725691	-0.314277	0.000100
C124	C	1.225691	0.185723	0.500100
C125	C	0.617507	-0.662439	0.000054
C126	C	1.117507	-0.162439	0.500054
C127	C	0.616794	-0.721837	0.000060
C128	C	1.116794	-0.221837	0.500060
C129	C	0.720642	-0.736004	0.000078
C130	C	1.220642	-0.236004	0.500078
C131	C	0.721354	-0.676605	0.000078
C132	C	1.221354	-0.176605	0.500078
C133	C	0.669784	-0.639823	0.000063
C134	C	1.169784	-0.139823	0.500063
C135	C	0.727181	-0.189540	0.000119
C136	C	1.227181	0.310460	0.500119
C137	C	0.727888	-0.130138	0.000131
C138	C	1.227888	0.369862	0.500131
C139	C	0.624041	-0.115977	0.000109
C140	C	1.124041	0.384023	0.500109
C141	C	0.623334	-0.175373	0.000101
C142	C	1.123334	0.324627	0.500101
C143	C	0.674909	-0.212154	0.000103
C144	C	1.174909	0.287846	0.500103
O145	O	0.578084	-0.263323	0.000105
O146	O	1.078084	0.236677	0.500105
O147	O	0.770216	-0.289577	0.000098
O148	O	1.270216	0.210423	0.500098
C149	C	0.776491	0.069244	0.000113
C150	C	1.276491	0.569244	0.500113
C151	C	0.839710	0.069998	0.000118
C152	C	1.339710	0.569998	0.500118
C153	C	0.667594	0.178158	0.000076
C154	C	1.167594	0.678158	0.500076
C155	C	0.668360	0.241375	0.000063
C156	C	1.168360	0.741375	0.500063
N157	N	0.672312	0.074017	0.229998
N158	N	1.172312	0.574017	0.729998
N159	N	0.672375	0.073998	-0.229803
N160	N	1.172375	0.573998	0.270197
C161	C	0.672354	0.074004	0.589199
C162	C	1.172354	0.574004	1.089199
C163	C	0.625145	0.120908	0.551575
C164	C	1.125145	0.620908	1.051575
C165	C	0.625252	0.121078	0.448749
C166	C	1.125252	0.621078	0.948749
C167	C	0.672333	0.074011	0.410995
C168	C	1.172333	0.574011	0.910995
C169	C	0.731685	0.086643	0.448294
C170	C	1.231685	0.586643	0.948294
C171	C	0.731420	0.086976	0.551151
C172	C	1.231420	0.586976	1.051151
C173	C	0.660741	0.014327	0.551309
C174	C	1.160741	0.514327	1.051309
C175	C	0.659376	0.014734	0.448445
C176	C	1.159376	0.514734	0.948445
C177	C	0.672324	0.074013	0.310282
C178	C	1.172324	0.574013	0.810282
C179	C	0.672367	0.074003	0.689912
C180	C	1.172367	0.574003	1.189912
H181	H	0.499465	0.077951	-0.145867
H182	H	0.999465	0.577951	0.354133
H183	H	0.226245	0.074625	-0.226290
H184	H	0.726245	0.574625	0.273710
F185	F	0.569164	-0.076820	0.000100
F186	F	1.069164	0.423180	0.500100
F187	F	0.634661	0.178479	0.585323
F188	F	1.134661	0.678479	1.085323
F189	F	0.783535	-0.106076	0.000150
F190	F	1.283535	0.393924	0.500150
F191	F	0.744862	0.143848	0.582491
F192	F	1.244862	0.643848	1.082491
F193	F	-0.162210	0.069980	0.166174
F194	F	0.337790	0.569980	0.666174
H195	H	0.769178	-0.219481	0.000117
H196	H	1.269178	0.280519	0.500117
H197	H	0.632633	0.165371	0.424128
H198	H	1.132633	0.665371	0.924128
F199	F	0.562616	-0.623297	0.000046
F200	F	1.062616	-0.123297	0.500046
H201	H	0.763925	-0.658198	0.000092
H202	H	1.263925	-0.158198	0.500092
H203	H	0.391697	0.076655	-0.145868
H204	H	0.891697	0.576655	0.354132
F205	F	0.778682	0.043158	0.416332
F206	F	1.278682	0.543158	0.916332
F207	F	0.775523	-0.775161	0.000082
F208	F	1.275523	-0.275161	0.500082
F209	F	-0.162179	0.069979	-0.165941
F210	F	0.337821	0.569979	0.334059
H211	H	0.767629	0.054141	0.576039
H212	H	1.267629	0.554141	1.076039
F213	F	0.745462	0.142864	0.414604
F214	F	1.245462	0.642864	0.914604
H215	H	0.574222	-0.740243	0.000061
H216	H	1.074222	-0.240243	0.500061
H217	H	0.819117	-0.392053	0.000119
H218	H	1.319117	0.107947	0.500119
H219	H	0.618420	0.002094	0.577295
H220	H	1.118420	0.502094	1.077295
F221	F	0.567275	0.111300	0.583915
F222	F	1.067275	0.611300	1.083915
H223	H	0.525569	-0.459912	0.000020
H224	H	1.025569	0.040088	0.500020
H225	H	-0.047006	0.071355	-0.145837
H226	H	0.452994	0.571355	0.354163
F227	F	0.602310	0.002192	0.416584
F228	F	1.102310	0.502192	0.916584
H229	H	0.817827	-0.499797	0.000103
H230	H	1.317827	0.000203	0.500103
F231	F	0.513969	-0.342966	0.000021
F232	F	1.013969	0.157034	0.500021
F233	F	0.567565	0.111337	0.415786
F234	F	1.067565	0.611337	0.915786
F235	F	0.567691	-0.199441	0.000098
F236	F	1.067691	0.300559	0.500098
H237	H	0.691552	-0.021779	0.422750
H238	H	1.191552	0.478221	0.922750
H239	H	0.695173	-0.020573	0.575640
H240	H	1.195173	0.479427	1.075640
F241	F	0.233629	0.074754	0.246595
F242	F	0.733629	0.574754	0.746595
F243	F	0.384271	0.076563	0.166148
F244	F	0.884271	0.576563	0.666148
H245	H	0.499443	0.077966	0.146017
H246	H	0.999443	0.577966	0.646017
H247	H	0.118462	0.073360	0.226488
H248	H	0.618462	0.573360	0.726488
F249	F	-0.039593	0.071460	0.166176
F250	F	0.460407	0.571460	0.666176
H251	H	0.118496	0.073329	-0.226289
H252	H	0.618496	0.573329	0.273711
