data_functionalizedCrystal
_audit_creation_method	'MofGen! by Chris Wilmer'
_symmetry_space_group_name_H-M	'P1'
_symmetry_Int_Tables_number	1
_symmetry_cell_setting	triclinic
loop_
_symmetry_equiv_pos_as_xyz
  x,y,z
_cell_length_a	6.817900
_cell_length_b	23.288450
_cell_length_c	16.255661
_cell_angle_alpha	86.265074
_cell_angle_beta	76.511078
_cell_angle_gamma	106.195923
loop_
_atom_site_label
_atom_site_type_symbol
_atom_site_fract_x
_atom_site_fract_y
_atom_site_fract_z
V1	V	-4.039206	-0.083035	0.262157
O2	O	-4.013665	0.003494	0.258920
O3	O	-4.002966	-0.164168	0.258677
O4	O	-3.990609	-0.081976	0.377262
O5	O	-4.026107	-0.079267	0.139514
V6	V	-4.521284	-0.072660	0.247693
O7	O	-4.303634	-0.105795	0.293885
O8	O	-4.707053	-0.049900	0.215964
O9	O	-4.334318	0.008473	0.251172
O10	O	-4.664222	-0.159189	0.250929
O11	O	-4.651780	-0.076428	0.370335
O12	O	-4.346675	-0.073719	0.132587
C13	C	-3.850931	-0.183939	0.254106
C14	C	-3.902586	-0.250268	0.252028
C15	C	-3.835167	-0.079094	0.405372
C16	C	-3.876797	-0.078765	0.499460
C17	C	-4.149709	0.028242	0.255742
C18	C	-4.075941	0.095815	0.257876
C19	C	-3.836812	-0.407359	0.242718
C20	C	-3.925503	-0.440808	0.173716
C21	C	-3.997266	-0.371712	0.248265
C22	C	-4.000640	-0.456450	0.313573
C23	C	-4.088711	-0.489022	0.244633
C24	C	-4.085247	-0.404281	0.179233
C25	C	-4.160387	-0.419926	0.319152
C26	C	-4.249194	-0.453357	0.250137
C27	C	-3.944581	-0.304133	0.250356
C28	C	-4.141406	-0.556600	0.242536
V29	V	-4.215475	0.205752	0.253606
O30	O	-4.158521	0.293801	0.248309
O31	O	-4.211231	0.121240	0.254730
O32	O	-4.198233	0.203408	0.373349
O33	O	-4.171610	0.211064	0.128869
V34	V	-4.656855	0.233093	0.215969
O35	O	-4.478011	0.190918	0.274501
O36	O	-4.813468	0.263301	0.174073
O37	O	-4.453286	0.309983	0.225258
O38	O	-4.823109	0.149054	0.215790
O39	O	-4.810021	0.231790	0.335230
O40	O	-4.466285	0.227815	0.106639
C41	C	-4.165459	-0.076602	0.104473
C42	C	-4.103067	-0.076929	0.010384
C43	C	-4.275126	0.323912	0.237807
C44	C	-4.183401	0.389529	0.240871
C45	C	-4.059369	0.200627	0.409192
C46	C	-4.121219	0.200938	0.503295
C47	C	-3.786762	-0.074829	0.722360
C48	C	-3.950822	-0.125631	0.790787
C49	C	-3.953089	-0.078147	0.671721
C50	C	-3.863232	-0.026763	0.770943
C51	C	-4.026767	-0.077547	0.838117
C52	C	-4.116638	-0.128995	0.738918
C53	C	-4.028979	-0.030082	0.719059
C54	C	-4.193178	-0.080899	0.787467
C55	C	-3.910640	-0.078493	0.575865
C56	C	-4.069234	-0.077206	0.933973
C57	C	-4.291708	0.219099	0.086496
C58	C	-4.210527	0.218082	-0.006640
C59	C	-4.322415	0.204189	0.543421
C60	C	-4.380546	0.204490	0.631839
C61	C	-4.237484	0.201535	0.680130
C62	C	-4.036269	0.198285	0.639998
C63	C	-3.978135	0.197988	0.551581
C64	C	-4.014267	0.208598	-0.037907
C65	C	-3.937954	0.207647	-0.125417
C66	C	-4.057911	0.216177	-0.181657
C67	C	-4.254186	0.225664	-0.150385
C68	C	-4.330489	0.226619	-0.062878
H69	H	-3.661960	-0.387257	0.239515
Br70	Br	-4.516612	0.208200	0.477902
H71	H	-4.061495	0.010317	0.687785
H72	H	-3.756498	0.016431	0.785445
H73	H	-4.544395	0.207134	0.664502
H74	H	-3.826741	-0.450289	0.112206
Br75	Br	-3.499868	-0.070658	0.674971
Br76	Br	-4.143917	-0.366544	0.084516
H77	H	-4.424035	-0.473340	0.253239
H78	H	-3.918227	-0.166028	0.822039
Br79	Br	-4.316417	0.201937	0.800126
Br80	Br	-4.324869	-0.404095	0.421675
H81	H	-3.919802	0.195879	0.679330
Br82	Br	-3.941805	-0.494299	0.408155
Br83	Br	-3.851425	0.197020	0.038402
Br84	Br	-4.294531	-0.201084	0.714991
H85	H	-4.365438	-0.083479	0.815760
Br86	Br	-3.705074	0.193568	0.497138
H87	H	-3.778135	0.199921	-0.150864
Br88	Br	-4.416968	0.237234	-0.226723
H89	H	-3.995691	0.215438	-0.252917
H90	H	-4.490307	0.234339	-0.037428
