data_functionalizedCrystal
_audit_creation_method	'MofGen! by Chris Wilmer'
_symmetry_space_group_name_H-M	'P1'
_symmetry_Int_Tables_number	1
_symmetry_cell_setting	triclinic
loop_
_symmetry_equiv_pos_as_xyz
  x,y,z
_cell_length_a	10.540539
_cell_length_b	14.044220
_cell_length_c	12.503572
_cell_angle_alpha	93.849209
_cell_angle_beta	86.441695
_cell_angle_gamma	88.857185
loop_
_atom_site_label
_atom_site_type_symbol
_atom_site_fract_x
_atom_site_fract_y
_atom_site_fract_z
O1	O	1.692681	0.139112	0.089274
O2	O	1.324540	0.151708	0.089287
O3	O	1.503086	0.007387	0.089270
O4	O	1.514136	0.283433	0.089291
O5	O	1.516518	-0.003480	-0.089373
O6	O	1.337973	0.140841	-0.089356
O7	O	1.706114	0.128245	-0.089369
Cu8	Cu	1.523270	0.133551	-0.105674
Cu9	Cu	1.507384	0.146402	0.105592
O10	O	1.527568	0.272565	-0.089352
C11	C	1.504964	-0.033393	-0.000052
C12	C	1.490535	-0.138717	-0.000052
C13	C	1.283858	0.145330	-0.000033
C14	C	1.142624	0.142504	-0.000028
C15	C	1.464153	-0.331556	-0.000036
C16	C	1.566495	-0.388496	-0.000036
C17	C	1.551816	-0.495799	-0.000027
C18	C	1.478830	-0.224244	-0.000045
C19	C	0.948281	0.034189	-0.000453
C20	C	1.095158	0.037079	-0.000039
C21	C	1.078410	0.199445	0.101986
C22	C	0.931496	0.195851	0.102060
C23	C	0.946500	0.185638	-0.101090
C24	C	1.093680	0.186528	-0.102428
C25	C	1.746796	0.134623	-0.000047
C26	C	1.888029	0.137449	-0.000045
C27	C	1.525689	0.313346	-0.000028
C28	C	1.540119	0.418670	-0.000020
N29	N	1.496211	0.155435	0.254186
N30	N	1.534452	0.124511	-0.254267
C31	C	1.479765	0.168721	0.473302
C32	C	1.550895	0.111227	0.526623
C33	C	1.541744	0.118620	0.648547
C34	C	1.488914	0.161330	0.351367
H35	H	1.665132	-0.356653	0.000032
C36	C	1.330898	-0.374560	-0.000029
C37	C	1.316218	-0.483434	-0.000022
C38	C	1.182966	-0.526451	-0.000017
C39	C	1.064393	-0.460595	-0.000018
C40	C	1.079069	-0.351714	-0.000025
C41	C	1.212322	-0.308697	-0.000031
H42	H	1.403996	-0.532190	-0.000021
H43	H	1.172103	-0.607052	-0.000011
H44	H	0.965752	-0.492439	-0.000014
H45	H	0.991291	-0.302957	-0.000026
H46	H	1.223185	-0.228096	-0.000036
C47	C	1.642439	0.037222	0.464596
C48	C	1.651579	0.029834	0.340908
C49	C	1.743114	-0.044171	0.278875
C50	C	1.825508	-0.110788	0.340530
C51	C	1.816370	-0.103402	0.464224
C52	C	1.724836	-0.029397	0.526257
H53	H	1.590584	0.079150	0.295261
H54	H	1.749878	-0.049638	0.187308
H55	H	1.893268	-0.165570	0.294609
H56	H	1.877366	-0.152718	0.509871
H57	H	1.718072	-0.023930	0.617825
C58	C	1.154714	-0.022877	-0.098815
C59	C	1.068645	-0.073725	-0.178627
C60	C	1.128194	-0.133692	-0.277400
C61	C	1.273811	-0.142812	-0.296363
C62	C	1.359888	-0.091962	-0.216549
C63	C	1.300339	-0.031994	-0.117776
H64	H	0.960843	-0.066976	-0.164591
H65	H	1.064474	-0.171335	-0.336483
H66	H	1.317893	-0.187203	-0.369481
H67	H	1.467690	-0.098711	-0.230585
H68	H	1.364060	0.005648	-0.058693
H69	H	0.920986	-0.011910	-0.073613
C70	C	1.388206	0.242709	0.535325
C71	C	1.281135	0.209569	0.612664
C72	C	1.189573	0.283553	0.674700
C73	C	1.205083	0.390677	0.659398
C74	C	1.312159	0.423824	0.582055
C75	C	1.403721	0.349840	0.520019
H76	H	1.269649	0.130264	0.623995
H77	H	1.110308	0.259015	0.731955
H78	H	1.137303	0.445445	0.705321
H79	H	1.323645	0.503128	0.570724
H80	H	1.482986	0.374377	0.462764
C81	C	1.138634	-0.011197	0.098922
C82	C	1.039655	-0.052497	0.177824
C83	C	1.083130	-0.100772	0.276793
C84	C	1.225584	-0.107746	0.296860
C85	C	1.324572	-0.066444	0.217957
C86	C	1.281098	-0.018170	0.118988
H87	H	0.934194	-0.047336	0.162971
H88	H	1.009851	-0.131346	0.335202
H89	H	1.257767	-0.143481	0.370123
H90	H	1.430034	-0.071606	0.232810
H91	H	1.354376	0.012404	0.060578
C92	C	0.876563	0.298656	0.108355
C93	C	0.966397	0.383757	0.113303
C94	C	0.911470	0.486559	0.119615
C95	C	0.766709	0.504260	0.120980
C96	C	0.676867	0.419156	0.116032
C97	C	0.731794	0.316354	0.109720
H98	H	1.073565	0.370656	0.112292
H99	H	0.977978	0.549559	0.123277
H100	H	0.726049	0.580360	0.125652
H101	H	0.569699	0.432257	0.117042
H102	H	0.665286	0.253354	0.106058
H103	H	0.908411	-0.002858	0.072294
H104	H	0.893761	0.162992	0.178311
H105	H	1.108304	0.277097	0.105788
H106	H	0.917318	0.146816	-0.178416
C107	C	1.123397	0.158062	0.204545
C108	C	1.265690	0.156953	0.226006
C109	C	1.310671	0.115559	0.328561
C110	C	1.213359	0.075273	0.409654
C111	C	1.071057	0.076380	0.388195
C112	C	1.026075	0.117775	0.285640
H113	H	1.337735	0.186776	0.165975
H114	H	1.416014	0.114739	0.344446
H115	H	1.246657	0.044631	0.485570
H116	H	0.999012	0.046557	0.448226
H117	H	0.920733	0.118594	0.269756
H118	H	1.136570	0.144873	-0.177897
C119	C	1.137513	0.289863	-0.110736
C120	C	1.280411	0.311157	-0.118701
C121	C	1.324240	0.414499	-0.126995
C122	C	1.225171	0.496546	-0.127325
C123	C	1.082264	0.475254	-0.119361
C124	C	1.038436	0.371912	-0.111066
H125	H	1.353756	0.250419	-0.118456
H126	H	1.430029	0.430260	-0.132891
H127	H	1.257616	0.573045	-0.133466
H128	H	1.008920	0.535992	-0.119605
H129	H	0.932646	0.356151	-0.105170
H130	H	0.907022	0.261744	-0.101774
