data_functionalizedCrystal
_audit_creation_method	'MofGen! by Chris Wilmer'
_symmetry_space_group_name_H-M	'P1'
_symmetry_Int_Tables_number	1
_symmetry_cell_setting	triclinic
loop_
_symmetry_equiv_pos_as_xyz
  x,y,z
_cell_length_a	20.919287
_cell_length_b	16.704486
_cell_length_c	16.704493
_cell_angle_alpha	60.347015
_cell_angle_beta	91.007704
_cell_angle_gamma	55.694235
loop_
_atom_site_label
_atom_site_type_symbol
_atom_site_fract_x
_atom_site_fract_y
_atom_site_fract_z
Zr1	Zr	0.549416	0.947555	-0.212295
O2	O	0.428984	1.128155	-0.345282
O3	O	0.594104	0.766956	-0.162946
O4	O	0.573216	0.947557	-0.342104
O5	O	0.457511	0.947552	-0.034563
O6	O	0.678152	0.947558	-0.349357
O7	O	0.449871	0.947554	-0.166125
O8	O	0.715516	0.624496	-0.028877
O9	O	0.420147	1.270614	-0.355043
O10	O	0.682089	0.841239	-0.157680
O11	O	0.609478	0.841237	-0.054083
O12	O	0.584885	1.053872	-0.265018
O13	O	0.512274	1.053870	-0.161422
Zr14	Zr	0.728960	0.947553	-0.014037
Zr15	Zr	0.716777	0.947556	-0.223863
Zr16	Zr	0.561600	0.947552	-0.002468
Zr17	Zr	0.535322	1.174761	-0.227862
Zr18	Zr	0.743055	0.720347	0.001530
O19	O	0.684273	1.128152	-0.063385
O20	O	0.666949	1.128156	-0.361731
O21	O	0.446307	1.128151	-0.046936
O22	O	0.849393	0.766953	0.118951
O23	O	0.832069	0.766958	-0.179395
O24	O	0.611427	0.766952	0.135399
O25	O	0.820866	0.947556	-0.191769
O26	O	0.705160	0.947551	0.115772
O27	O	0.600224	0.947550	0.123026
O28	O	0.828505	0.947554	-0.060207
O29	O	0.553176	1.270615	-0.364238
O30	O	0.725200	0.624493	0.137907
O31	O	0.858230	0.624494	0.128711
O32	O	0.848545	0.624497	-0.038073
O33	O	0.429831	1.270612	-0.188259
O34	O	0.562860	1.270612	-0.197454
O35	O	0.693491	0.841237	0.038687
O36	O	0.766103	0.841238	-0.064910
O37	O	0.668899	1.053871	-0.172248
O38	O	0.596287	1.053869	-0.068652
C39	C	0.656818	0.663354	-0.093694
C40	C	0.662801	0.566899	-0.087085
C41	C	0.540262	0.542636	-0.222418
C42	C	0.545880	0.452013	-0.216214
C43	C	0.679658	0.295029	-0.068478
C44	C	0.674040	0.385652	-0.074682
C45	C	0.604339	0.509455	-0.151654
C46	C	0.598718	0.600079	-0.157853
C47	C	0.732499	0.443095	-0.010122
C48	C	0.738117	0.352472	-0.003918
C49	C	0.429846	0.947553	-0.098696
C50	C	0.358797	0.947552	-0.093784
C51	C	0.321209	0.947557	-0.163958
C52	C	0.254453	0.947550	-0.159339
C53	C	0.225284	0.947548	-0.084549
C54	C	0.262879	0.947540	-0.014368
C55	C	0.329636	0.947538	-0.018984
C56	C	0.023932	0.947546	-0.066982
C57	C	-0.042832	0.947552	-0.062373
C58	C	-0.051252	0.947559	-0.207343
C59	C	0.015505	0.947565	-0.211956
C60	C	0.053097	0.947550	-0.141772
C61	C	0.157048	0.947545	-0.079827
C62	C	0.121335	0.947545	-0.146490
C63	C	0.848531	0.947555	-0.127636
C64	C	0.919580	0.947556	-0.132547
C65	C	0.623948	0.947558	-0.375626
C66	C	0.618776	0.947559	-0.464703
C67	C	0.621558	1.231754	-0.132638
C68	C	0.615575	1.328209	-0.139246
C69	C	0.724701	0.947539	-0.640070
C70	C	0.719844	0.947541	-0.723766
C71	C	0.604211	0.947553	-0.715787
C72	C	0.609067	0.947552	-0.632091
C73	C	0.669314	0.947547	-0.594237
C74	C	0.674166	0.947555	-0.510544
C75	C	0.558537	0.947559	-0.502562
C76	C	0.553680	0.947560	-0.586258
C77	C	0.654428	0.947550	0.149295
C78	C	0.659600	0.947549	0.238372
C79	C	0.866161	0.663355	-0.108164
C80	C	0.943193	0.566901	-0.106467
C81	C	0.672058	0.663350	0.168767
C82	C	0.683214	0.566894	0.264452
C83	C	0.881401	0.663352	0.154297
C84	C	0.963605	0.566896	0.245071
C85	C	0.396976	1.231757	-0.380628
C86	C	0.314771	1.328212	-0.471402
C87	C	0.412216	1.231753	-0.118167
C88	C	0.335184	1.328207	-0.119865
C89	C	0.606319	1.231758	-0.395098
C90	C	0.595163	1.328214	-0.490783
C91	C	0.935514	0.521605	-0.154103
C92	C	1.007885	0.430988	-0.152528
C93	C	1.087936	0.385663	-0.103310
C94	C	1.095614	0.430967	-0.055672
C95	C	1.023242	0.521589	-0.057254
C96	C	0.732307	0.521597	0.357821
C97	C	0.742786	0.430979	0.447734
C98	C	0.704175	0.385653	0.444278
C99	C	0.655075	0.430959	0.350899
C100	C	0.644593	0.521582	0.260987
C101	C	1.040119	0.521600	0.233623
C102	C	1.117364	0.430982	0.318905
C103	C	1.118094	0.385656	0.415636
C104	C	1.041572	0.430960	0.427082
C105	C	0.964328	0.521583	0.341800
C106	C	0.238257	1.373519	-0.459955
C107	C	0.161010	1.464165	-0.545239
C108	C	0.160280	1.509496	-0.641970
C109	C	0.236802	1.464186	-0.653416
C110	C	0.314047	1.373548	-0.568133
C111	C	0.342862	1.373512	-0.072238
C112	C	0.270487	1.464154	-0.073837
C113	C	0.190436	1.509483	-0.123059
C114	C	0.182759	1.464174	-0.170692
C115	C	0.255132	1.373540	-0.169098
C116	C	0.633785	1.373511	-0.487294
C117	C	0.623320	1.464130	-0.577192
C118	C	0.574227	1.509456	-0.670580
C119	C	0.535604	1.464151	-0.674067
C120	C	0.546075	1.373527	-0.584169
H121	H	0.794868	0.251662	0.058747
H122	H	0.248869	1.336655	-0.207879
H123	H	0.902032	0.558451	0.351135
H124	H	0.514619	1.336657	-0.587025
H125	H	0.493703	0.479039	-0.273839
C126	C	0.665807	1.513955	-0.573334
N127	N	0.697808	1.551481	-0.570424
C128	C	1.167541	0.285968	-0.101571
N129	N	1.227496	0.210873	-0.100261
H130	H	0.098711	1.501041	-0.535900
C131	C	0.235985	1.514053	-0.759828
N132	N	0.235367	1.551607	-0.839980
H133	H	1.160801	0.394050	-0.015600
C134	C	0.487418	0.947552	-0.627901
N135	N	0.437509	0.947546	-0.659265
H136	H	0.483497	0.643440	-0.285075
H137	H	0.223850	0.947552	-0.216479
H138	H	0.565707	1.583248	-0.743773
C139	C	0.522048	0.736262	-0.242525
N140	N	0.464299	0.838836	-0.306306
C141	C	1.203073	0.285959	0.509440
N142	N	1.267081	0.210863	0.580090
H143	H	0.763751	0.558491	0.360655
C144	C	0.481638	1.513980	-0.776803
N145	N	0.441001	1.551502	-0.854186
H146	H	1.001618	0.394112	-0.191320
H147	H	0.360242	0.947532	0.038159
H148	H	0.238836	1.336615	-0.381199
C149	C	0.756326	0.158839	0.016179
N150	N	0.814073	0.056258	0.079943
H151	H	0.604619	0.558451	0.184966
H152	H	-0.081864	0.947569	-0.264482
H153	H	1.039540	0.558492	0.154867
C154	C	0.796808	0.381147	0.550440
N155	N	0.837501	0.343613	0.627796
H156	H	0.513434	0.947570	-0.465238
H157	H	0.117571	1.501095	-0.210767
H158	H	1.042179	0.394042	0.505851
H159	H	0.145090	0.947540	-0.207380
H160	H	0.784673	0.416082	0.047504
H161	H	0.097376	1.583299	-0.711405
H162	H	0.376346	1.336660	-0.577465
H163	H	0.673760	1.336620	-0.411262
H164	H	0.408038	1.336613	-0.032149
C165	C	0.230813	0.947485	0.067927
N166	N	0.206669	0.947431	0.129921
C167	C	1.201529	0.381153	0.306293
N168	N	1.264920	0.343621	0.296790
H169	H	0.054533	0.947537	-0.009837
H170	H	1.029507	0.558457	-0.018456
C171	C	0.278952	1.513967	-0.021425
N172	N	0.285330	1.551481	0.018055
H173	H	0.344950	0.947566	-0.224863
H174	H	0.133291	0.947546	-0.018934
H175	H	0.039253	0.947567	-0.272855
H176	H	0.712718	0.311863	0.517497
H177	H	0.131512	1.583283	-0.124349
H178	H	0.723219	0.947555	-0.479727
C179	C	-0.074914	0.947543	0.019908
N180	N	-0.099078	0.947537	0.081878
C181	C	0.780778	0.947526	-0.774177
N182	N	0.826677	0.947512	-0.812145
C183	C	0.790968	0.947541	-0.598433
N184	N	0.840883	0.947542	-0.567072
C185	C	0.612613	0.381081	0.347113
N186	N	0.580636	0.343504	0.344265
C187	C	0.537965	0.947515	-0.757420
N188	N	0.488073	0.947475	-0.788772
C189	C	0.847463	0.571453	-0.208258
N190	N	0.781144	0.608999	-0.249056
