data_functionalizedCrystal
_audit_creation_method	'MofGen! by Chris Wilmer'
_symmetry_space_group_name_H-M	'P1'
_symmetry_Int_Tables_number	1
_symmetry_cell_setting	triclinic
loop_
_symmetry_equiv_pos_as_xyz
  x,y,z
_cell_length_a	17.640280
_cell_length_b	19.805407
_cell_length_c	19.805399
_cell_angle_alpha	89.980427
_cell_angle_beta	101.223110
_cell_angle_gamma	101.199888
loop_
_atom_site_label
_atom_site_type_symbol
_atom_site_fract_x
_atom_site_fract_y
_atom_site_fract_z
Zn1	Zn	-0.314680	-1.089281	0.328317
Zn2	Zn	0.018654	-0.755947	0.661651
Zn3	Zn	0.351987	-0.422614	0.994984
Zn4	Zn	-0.446853	-1.112106	0.192279
Zn5	Zn	-0.113520	-0.778772	0.525612
Zn6	Zn	0.219813	-0.445439	0.858945
Zn7	Zn	-0.314701	-0.976099	0.215138
Zn8	Zn	0.018632	-0.642766	0.548471
Zn9	Zn	0.351965	-0.309432	0.881805
Zn10	Zn	-0.446811	-0.998962	0.305433
Zn11	Zn	-0.113478	-0.665628	0.638766
Zn12	Zn	0.219855	-0.332295	0.972099
O13	O	-0.380761	-1.044112	0.260292
O14	O	-0.047428	-0.710778	0.593625
O15	O	0.285905	-0.377445	0.926958
O16	O	-0.332221	-1.187026	0.310282
O17	O	0.001112	-0.853693	0.643615
O18	O	0.334446	-0.520360	0.976949
O19	O	-0.429350	-1.094048	0.100590
O20	O	-0.096017	-0.760715	0.433923
O21	O	0.237317	-0.427382	0.767256
O22	O	-0.204095	-0.971992	0.249296
O23	O	0.129239	-0.638659	0.582629
O24	O	0.462572	-0.305326	0.915962
O25	O	-0.429329	-1.203796	0.210335
O26	O	-0.095995	-0.870463	0.543668
O27	O	0.237338	-0.537129	0.877002
O28	O	-0.204079	-1.055146	0.332448
O29	O	0.129255	-0.721813	0.665781
O30	O	0.462588	-0.388480	0.999115
O31	O	-0.332258	-0.994125	0.117385
O32	O	0.001075	-0.660791	0.450718
O33	O	0.334408	-0.327458	0.784051
O34	O	-0.332218	-0.884414	0.227105
O35	O	0.001116	-0.551080	0.560439
O36	O	0.334449	-0.217747	0.893772
O37	O	-0.429257	-1.010958	0.403190
O38	O	-0.095924	-0.677625	0.736523
O39	O	0.237410	-0.344292	1.069856
O40	O	-0.429278	-0.901211	0.293444
O41	O	-0.095945	-0.567878	0.626778
O42	O	0.237388	-0.234544	0.960111
O43	O	-0.332180	-1.077315	0.420003
O44	O	0.001153	-0.743982	0.753336
O45	O	0.334486	-0.410649	1.086670
O46	O	-0.557452	-1.116217	0.188145
O47	O	-0.224118	-0.782884	0.521478
O48	O	0.109215	-0.449551	0.854811
O49	O	-0.557421	-1.033091	0.271278
O50	O	-0.224087	-0.699758	0.604612
O51	O	0.109246	-0.366424	0.937945
C52	C	-0.380746	-0.868253	0.260272
C53	C	-0.047413	-0.534920	0.593606
C54	C	0.285920	-0.201586	0.926939
C55	C	-0.380759	-0.793023	0.260277
C56	C	-0.047426	-0.459690	0.593610
C57	C	0.285908	-0.126357	0.926944
C58	C	-0.586114	-1.079630	0.224762
C59	C	-0.252781	-0.746297	0.558096
C60	C	0.080552	-0.412964	0.891429
C61	C	-0.673965	-1.094887	0.209586
C62	C	-0.340632	-0.761554	0.542919
C63	C	-0.007299	-0.428221	0.876252
C64	C	-0.380712	-1.044141	0.436843
C65	C	-0.047378	-0.710808	0.770176
C66	C	0.285955	-0.377474	1.103510
C67	C	-0.380690	-1.044154	0.512079
C68	C	-0.047357	-0.710820	0.845412
C69	C	0.285976	-0.377487	1.178745
C70	C	-0.962953	-0.928484	0.375835
C71	C	-0.629620	-0.595151	0.709169
C72	C	-0.296286	-0.261817	1.042502
C73	C	-1.045502	-0.942822	0.361553
C74	C	-0.712169	-0.609488	0.694886
C75	C	-0.378836	-0.276155	1.028219
C76	C	-1.045469	-1.029435	0.275073
C77	C	-0.712136	-0.696101	0.608406
C78	C	-0.378802	-0.362768	0.941740
C79	C	-0.962918	-1.015107	0.289351
C80	C	-0.629585	-0.681774	0.622684
C81	C	-0.296251	-0.348440	0.956017
C82	C	-0.921667	-0.964630	0.339732
C83	C	-0.588333	-0.631297	0.673065
C84	C	-0.255000	-0.297964	1.006399
C85	C	-0.921632	-1.051253	0.253247
C86	C	-0.588298	-0.717920	0.586581
C87	C	-0.254965	-0.384586	0.919914
C88	C	-0.839088	-1.036924	0.267522
C89	C	-0.505754	-0.703590	0.600855
C90	C	-0.172421	-0.370257	0.934188
C91	C	-0.797831	-0.986448	0.317899
C92	C	-0.464497	-0.653114	0.651232
C93	C	-0.131164	-0.319781	0.984566
C94	C	-0.839123	-0.950301	0.354006
C95	C	-0.505789	-0.616967	0.687340
C96	C	-0.172456	-0.283634	1.020673
C97	C	-0.962885	-1.101726	0.202863
C98	C	-0.629551	-0.768393	0.536196
C99	C	-0.296218	-0.435059	0.869530
C100	C	-0.921598	-1.137872	0.166760
C101	C	-0.588265	-0.804539	0.500093
C102	C	-0.254931	-0.471206	0.833426
C103	C	-0.839053	-1.123546	0.181037
C104	C	-0.505720	-0.790213	0.514370
C105	C	-0.172386	-0.456880	0.847704
C106	C	-0.797796	-1.073071	0.231415
C107	C	-0.464462	-0.739737	0.564748
C108	C	-0.131129	-0.406404	0.898081
C109	C	-0.797761	-1.159693	0.144930
C110	C	-0.464427	-0.826360	0.478263
C111	C	-0.131094	-0.493027	0.811597
C112	C	-0.715217	-1.145364	0.159204
C113	C	-0.381884	-0.812031	0.492538
C114	C	-0.048550	-0.478697	0.825871
C115	C	-0.715252	-1.058741	0.245689
C116	C	-0.381918	-0.725408	0.579022
C117	C	-0.048585	-0.392074	0.912355
C118	C	-0.174606	-1.008473	0.295974
C119	C	0.158727	-0.675139	0.629308
C120	C	0.492060	-0.341806	0.962641
C121	C	-0.086756	-0.993286	0.311180
C122	C	0.246578	-0.659952	0.644514
C123	C	0.579911	-0.326619	0.977847
C124	C	-0.380777	-1.220657	0.260311
C125	C	-0.047444	-0.887324	0.593645
C126	C	0.285890	-0.553990	0.926978
C127	C	-0.380784	-1.295890	0.260320
C128	C	-0.047451	-0.962557	0.593653
C129	C	0.285883	-0.629224	0.926986
C130	C	-0.431374	-0.766456	0.294736
C131	C	-0.098041	-0.433123	0.628070
C132	C	0.235292	-0.099790	0.961403
C133	C	-0.431376	-0.695768	0.294746
C134	C	-0.098042	-0.362435	0.628079
C135	C	0.235291	-0.029101	0.961412
C136	C	-0.380765	-0.651649	0.260291
C137	C	-0.047432	-0.318315	0.593624
C138	C	0.285902	0.015018	0.926958
C139	C	-0.330144	-0.678220	0.225831
C140	C	0.003189	-0.344886	0.559164
C141	C	0.336523	-0.011553	0.892497
C142	C	-0.330139	-0.748906	0.225826
C143	C	0.003194	-0.415573	0.559159
C144	C	0.336528	-0.082239	0.892492
C145	C	-0.330161	-0.393149	0.225850
C146	C	0.003172	-0.059816	0.559183
C147	C	0.336505	0.273517	0.892517
C148	C	-0.330172	-0.322459	0.225856
C149	C	0.003162	0.010874	0.559189
C150	C	0.336495	0.344208	0.892522
C151	C	-0.431398	-0.340012	0.294770
C152	C	-0.098065	-0.006678	0.628103
C153	C	0.235269	0.326655	0.961437
C154	C	-0.431393	-0.410698	0.294765
C155	C	-0.098060	-0.077365	0.628098
C156	C	0.235273	0.255969	0.961432
C157	C	-0.380770	-0.437262	0.260308
C158	C	-0.047436	-0.103929	0.593641
C159	C	0.285897	0.229404	0.926975
C160	C	-0.380768	-0.513910	0.260299
C161	C	-0.047434	-0.180577	0.593633
C162	C	0.285899	0.152756	0.926966
C163	C	-0.380770	-0.575003	0.260295
C164	C	-0.047437	-0.241669	0.593628
C165	C	0.285896	0.091664	0.926962
C166	C	-0.380754	-1.044112	0.084437
C167	C	-0.047421	-0.710778	0.417770
C168	C	0.285913	-0.377445	0.751104
C169	C	-0.380553	-1.044192	0.009240
C170	C	-0.047219	-0.710858	0.342574
C171	C	0.286114	-0.377525	0.675907
C172	C	-0.330140	-1.078706	0.556179
C173	C	0.003193	-0.745373	0.889512
C174	C	0.336527	-0.412039	1.222846
C175	C	-0.330117	-1.078709	0.626872
C176	C	0.003216	-0.745376	0.960205
C177	C	0.336550	-0.412042	1.293538
C178	C	-0.380649	-1.044163	0.653462
C179	C	-0.047316	-0.710830	0.986795
C180	C	0.286018	-0.377497	1.320128
C181	C	-0.431202	-1.009606	0.609356
C182	C	-0.097868	-0.676273	0.942689
C183	C	0.235465	-0.342940	1.276023
C184	C	-0.431220	-1.009600	0.538666
C185	C	-0.097887	-0.676266	0.871999
C186	C	0.235447	-0.342933	1.205332
C187	C	-0.431128	-1.009632	0.894442
C188	C	-0.097795	-0.676298	1.227775
C189	C	0.235539	-0.342965	1.561109
C190	C	-0.431107	-1.009643	0.965138
C191	C	-0.097774	-0.676309	1.298471
C192	C	0.235559	-0.342976	1.631804
C193	C	-0.330025	-1.078741	0.982648
C194	C	0.003308	-0.745408	1.315981
C195	C	0.336642	-0.412075	1.649315
C196	C	-0.330043	-1.078735	0.911958
C197	C	0.003290	-0.745401	1.245291
C198	C	0.336623	-0.412068	1.578624
C199	C	-0.380593	-1.044175	0.867859
C200	C	-0.047259	-0.710841	1.201192
C201	C	0.286074	-0.377508	1.534525
C202	C	-0.380616	-1.044171	0.791206
C203	C	-0.047283	-0.710838	1.124540
C204	C	0.286051	-0.377504	1.457873
C205	C	-0.380631	-1.044171	0.730112
C206	C	-0.047297	-0.710837	1.063445
C207	C	0.286036	-0.377504	1.396779
H208	H	-0.681663	-1.017643	0.286719
H209	H	-0.348330	-0.684310	0.620053
H210	H	-0.014997	-0.350976	0.953386
F211	F	-0.709979	-0.971319	0.333213
F212	F	-0.376646	-0.637985	0.666547
F213	F	-0.043313	-0.304652	0.999880
H214	H	-0.472593	-0.674141	0.322805
H215	H	-0.139260	-0.340808	0.656139
H216	H	0.194074	-0.007475	0.989472
H217	H	-0.831360	-1.200787	0.103905
H218	H	-0.498027	-0.867453	0.437238
H219	H	-0.164693	-0.534120	0.770572
H220	H	-0.288863	-1.106879	1.018563
H221	H	0.044471	-0.773545	1.351896
H222	H	0.377804	-0.440212	1.685230
F223	F	-0.671274	-1.183830	0.120774
F224	F	-0.337941	-0.850496	0.454107
F225	F	-0.004608	-0.517163	0.787441
F226	F	-0.276342	-1.115513	0.673799
F227	F	0.056992	-0.782179	1.007133
F228	F	0.390325	-0.448846	1.340466
H229	H	-0.472343	-0.981475	0.631011
H230	H	-0.139010	-0.648142	0.964345
H231	H	0.194324	-0.314809	1.297678
H232	H	-0.472615	-0.318374	0.322830
H233	H	-0.139282	0.014959	0.656163
H234	H	0.194051	0.348292	0.989496
F235	F	-0.276281	-0.421412	0.189180
F236	F	0.057052	-0.088078	0.522513
F237	F	0.390386	0.245255	0.855846
F238	F	-0.276275	-0.631262	0.189166
F239	F	0.057059	-0.297928	0.522500
F240	F	0.390392	0.035405	0.855833
F241	F	-0.485246	-0.813407	0.331405
F242	F	-0.151913	-0.480073	0.664738
F243	F	0.181420	-0.146740	0.998071
H244	H	-0.929364	-0.887386	0.416866
H245	H	-0.596031	-0.554052	0.750199
H246	H	-0.262698	-0.220719	1.083533
F247	F	-0.485263	-0.457650	0.331433
F248	F	-0.151930	-0.124317	0.664767
F249	F	0.181404	0.209016	0.998100
F250	F	-1.089440	-0.904339	0.399977
F251	F	-0.756106	-0.571006	0.733310
F252	F	-0.422773	-0.237673	1.066643
H253	H	-0.288918	-0.770534	0.197770
H254	H	0.044415	-0.437201	0.531103
H255	H	0.377748	-0.103868	0.864436
F256	F	-1.089380	-1.083155	0.221456
F257	F	-0.756047	-0.749821	0.554789
F258	F	-0.422714	-0.416488	0.888123
H259	H	-1.030097	-1.113393	0.191244
H260	H	-0.696764	-0.780060	0.524578
H261	H	-0.363430	-0.446726	0.857911
F262	F	-0.965509	-1.191592	0.113143
F263	F	-0.632176	-0.858259	0.446476
F264	F	-0.298843	-0.524925	0.779809
F265	F	-0.276301	-0.275504	0.189183
F266	F	0.057032	0.057829	0.522517
F267	F	0.390366	0.391162	0.855850
H268	H	-0.288993	-1.106840	0.534535
H269	H	0.044340	-0.773507	0.867869
H270	H	0.377673	-0.440173	1.201202
H271	H	-0.288898	-1.106868	0.890312
H272	H	0.044436	-0.773535	1.223645
H273	H	0.377769	-0.440201	1.556979
H274	H	-0.472258	-0.981509	0.986784
H275	H	-0.138925	-0.648175	1.320117
H276	H	0.194408	-0.314842	1.653451
F277	F	-0.484927	-0.972850	0.847518
F278	F	-0.151594	-0.639517	1.180851
F279	F	0.181739	-0.306184	1.514184
F280	F	-0.485021	-0.972822	0.491731
F281	F	-0.151687	-0.639489	0.825064
F282	F	0.181646	-0.306155	1.158397
H283	H	-0.805534	-0.909202	0.395037
H284	H	-0.472201	-0.575869	0.728370
H285	H	-0.138868	-0.242536	1.061703
