data_functionalizedCrystal
_audit_creation_method	'MofGen! by Chris Wilmer'
_symmetry_space_group_name_H-M	'P1'
_symmetry_Int_Tables_number	1
_symmetry_cell_setting	triclinic
loop_
_symmetry_equiv_pos_as_xyz
  x,y,z
_cell_length_a	17.699097
_cell_length_b	15.072220
_cell_length_c	17.699103
_cell_angle_alpha	90.006103
_cell_angle_beta	96.710270
_cell_angle_gamma	89.983234
loop_
_atom_site_label
_atom_site_type_symbol
_atom_site_fract_x
_atom_site_fract_y
_atom_site_fract_z
O1	O	-1.004086	0.073880	0.095753
O2	O	-0.783710	0.073864	0.108195
O3	O	-0.900116	0.073855	-0.008214
O4	O	-0.887679	0.073888	0.212162
O5	O	-0.900087	-0.073710	-0.008208
O6	O	-0.783681	-0.073701	0.108201
O7	O	-1.004057	-0.073685	0.095759
Zn8	Zn	-0.893864	-0.097122	0.101981
Zn9	Zn	-0.893902	0.097301	0.101973
O10	O	-0.887650	-0.073677	0.212168
C11	C	-0.755498	0.000079	0.107750
C12	C	-0.671481	0.000072	0.106408
N13	N	-0.893844	-0.229811	0.101987
C14	C	-0.155777	0.080537	0.098175
C15	C	-0.234722	0.080534	0.099431
C16	C	-0.274172	0.000093	0.100064
C17	C	-0.234675	-0.080350	0.099433
C18	C	-0.155733	-0.080346	0.098172
C19	C	-0.553040	-0.080368	0.104520
C20	C	-0.631987	-0.080366	0.105785
C21	C	-0.632028	0.080512	0.105780
C22	C	-0.553086	0.080516	0.104519
C23	C	-0.513597	0.000074	0.103884
C24	C	-0.427997	0.000078	0.102520
C25	C	-0.359770	0.000088	0.101433
C26	C	-0.893901	-0.589013	0.101970
C27	C	-0.831405	-0.551401	0.164050
C28	C	-0.831548	-0.448576	0.164276
C29	C	-0.893872	-0.410809	0.101978
C30	C	-0.972813	-0.448091	0.119085
C31	C	-0.972462	-0.550949	0.119526
C32	C	-0.878160	-0.551127	0.022598
C33	C	-0.876347	-0.448263	0.023131
C34	C	-0.893861	-0.310095	0.101981
C35	C	-0.893917	-0.689726	0.101968
C36	C	-0.032268	0.000098	0.096204
C37	C	-0.116286	0.000100	0.097546
C38	C	-0.899653	0.000070	-0.036408
C39	C	-0.898309	0.000063	-0.120425
N40	N	-0.893928	0.229990	0.101961
C41	C	-0.890100	0.080558	-0.636140
C42	C	-0.891363	0.080550	-0.557197
C43	C	-0.891977	0.000107	-0.517735
C44	C	-0.891336	-0.080333	-0.557222
C45	C	-0.890079	-0.080325	-0.636164
C46	C	-0.896406	-0.080370	-0.238855
C47	C	-0.897661	-0.080373	-0.159906
C48	C	-0.897689	0.080505	-0.159888
C49	C	-0.896433	0.080514	-0.238830
C50	C	-0.895796	0.000074	-0.278310
C51	C	-0.894429	0.000083	-0.363910
C52	C	-0.893339	0.000097	-0.432136
C53	C	-0.888113	0.000110	0.240362
C54	C	-0.889458	0.000124	0.324379
H55	H	-0.123662	0.146041	0.097665
H56	H	-0.891841	-0.145831	-0.525086
N57	N	-0.277221	-0.167113	0.100113
H58	H	-0.333223	-0.154912	0.101012
H59	H	-0.257191	-0.202230	0.146795
H60	H	-0.889555	-0.145823	-0.668308
N61	N	-0.844510	-0.585585	0.241645
H62	H	-0.853010	-0.533907	0.275994
H63	H	-0.798529	-0.620416	0.264094
N64	N	-0.113137	-0.167103	0.097489
H65	H	-0.150176	-0.218060	0.097550
H66	H	-0.074524	-0.170873	0.144134
H67	H	-0.918919	-0.422559	-0.025220
N68	N	-0.753818	-0.415180	0.150806
H69	H	-0.719152	-0.467277	0.144669
H70	H	-0.731991	-0.378053	0.195624
H71	H	-1.020423	-0.423625	0.075066
H72	H	-0.889593	0.146064	-0.668264
H73	H	-0.891888	0.146048	-0.525056
H74	H	-0.266873	0.146034	0.099939
H75	H	-0.923736	-0.575448	-0.023598
H76	H	-0.895929	0.146019	-0.270956
N77	N	-0.510536	0.167276	0.103837
H78	H	-0.547534	0.218233	0.104423
H79	H	-0.484003	0.170770	0.056411
H80	H	-0.987041	-0.422312	0.176305
H81	H	-0.664190	0.146012	0.106294
N82	N	-0.898319	0.167269	-0.117298
H83	H	-0.899191	0.155062	-0.061298
H84	H	-0.944985	0.202453	-0.137283
H85	H	-0.898157	-0.145883	-0.127778
H86	H	-0.664105	-0.145874	0.106300
H87	H	-0.895888	-0.145869	-0.270990
H88	H	-0.841585	-0.423952	0.223179
N89	N	-0.510450	-0.167124	0.103837
H90	H	-0.547489	-0.218082	0.103897
H91	H	-0.471840	-0.170893	0.150486
H92	H	-0.772533	-0.576169	0.154048
H93	H	-0.986355	-0.574920	0.177407
N94	N	-1.035877	-0.583912	0.061879
H95	H	-1.063940	-0.531623	0.036298
H96	H	-1.072299	-0.621048	0.088392
H97	H	-0.821854	-0.577124	0.006113
H98	H	-0.818277	-0.423898	0.010145
