data_functionalizedCrystal
_audit_creation_method	'MofGen! by Chris Wilmer'
_symmetry_space_group_name_H-M	'P1'
_symmetry_Int_Tables_number	1
_symmetry_cell_setting	triclinic
loop_
_symmetry_equiv_pos_as_xyz
  x,y,z
_cell_length_a	16.120530
_cell_length_b	16.120444
_cell_length_c	13.032268
_cell_angle_alpha	80.356652
_cell_angle_beta	85.357344
_cell_angle_gamma	90.168401
loop_
_atom_site_label
_atom_site_type_symbol
_atom_site_fract_x
_atom_site_fract_y
_atom_site_fract_z
Zn1	Zn	1.180615	-0.462251	0.695154
Zn2	Zn	1.513949	-0.128918	1.028487
Zn3	Zn	1.847282	0.204416	1.361820
Zn4	Zn	1.191119	-0.585372	0.528897
Zn5	Zn	1.524452	-0.252039	0.862230
Zn6	Zn	1.857785	0.081294	1.195563
Zn7	Zn	1.061090	-0.437590	0.511275
Zn8	Zn	1.394423	-0.104257	0.844609
Zn9	Zn	1.727756	0.229077	1.177942
Zn10	Zn	1.034566	-0.594113	0.694200
Zn11	Zn	1.367900	-0.260780	1.027533
Zn12	Zn	1.701233	0.072554	1.360867
O13	O	1.116847	-0.519832	0.607381
O14	O	1.450181	-0.186498	0.940715
O15	O	1.783514	0.146835	1.274048
O16	O	1.297548	-0.485246	0.680873
O17	O	1.630881	-0.151913	1.014206
O18	O	1.964215	0.181421	1.347540
O19	O	1.189366	-0.551790	0.380426
O20	O	1.522699	-0.218457	0.713759
O21	O	1.856032	0.114877	1.047092
O22	O	1.083649	-0.323829	0.528692
O23	O	1.416983	0.009504	0.862025
O24	O	1.750316	0.342838	1.195358
O25	O	1.305265	-0.575703	0.558725
O26	O	1.638598	-0.242369	0.892058
O27	O	1.971931	0.090964	1.225391
O28	O	1.171464	-0.341947	0.663786
O29	O	1.504798	-0.008614	0.997120
O30	O	1.838131	0.324719	1.330453
O31	O	1.093834	-0.443215	0.367479
O32	O	1.427167	-0.109882	0.700812
O33	O	1.760501	0.223452	1.034146
O34	O	0.942032	-0.451690	0.527767
O35	O	1.275365	-0.118357	0.861100
O36	O	1.608698	0.214976	1.194434
O37	O	1.038444	-0.590600	0.840460
O38	O	1.371778	-0.257267	1.173794
O39	O	1.705111	0.076067	1.507127
O40	O	0.922545	-0.566687	0.662161
O41	O	1.255878	-0.233354	0.995494
O42	O	1.589212	0.099979	1.328828
O43	O	1.145746	-0.493721	0.841161
O44	O	1.479079	-0.160388	1.174494
O45	O	1.812412	0.172945	1.507828
O46	O	1.163647	-0.703564	0.557800
O47	O	1.496981	-0.370231	0.891134
O48	O	1.830314	-0.036897	1.224467
O49	O	1.048629	-0.709986	0.679248
O50	O	1.381962	-0.376653	1.012581
O51	O	1.715296	-0.043319	1.345915
C52	C	0.902330	-0.507462	0.592949
C53	C	1.235664	-0.174129	0.926282
C54	C	1.568997	0.159205	1.259616
C55	C	0.810555	-0.502193	0.586801
C56	C	1.143888	-0.168859	0.920134
C57	C	1.477222	0.164474	1.253467
C58	C	0.642520	-0.492554	0.575584
C59	C	0.975853	-0.159220	0.908917
C60	C	1.309186	0.174113	1.242250
C61	C	0.592004	-0.547179	0.639259
C62	C	0.925337	-0.213845	0.972593
C63	C	1.258671	0.119488	1.305926
C64	C	0.498503	-0.541815	0.633018
C65	C	0.831837	-0.208482	0.966351
C66	C	1.165170	0.124851	1.299685
C67	C	0.736029	-0.497916	0.581823
C68	C	1.069362	-0.164582	0.915157
C69	C	1.402696	0.168751	1.248490
C70	C	1.104420	-0.737124	0.620357
C71	C	1.437753	-0.403790	0.953690
C72	C	1.771086	-0.070457	1.287024
C73	C	1.099175	-0.830090	0.625948
C74	C	1.432508	-0.496756	0.959281
C75	C	1.765841	-0.163423	1.292615
C76	C	1.144234	-1.038526	0.578616
C77	C	1.477567	-0.705192	0.911950
C78	C	1.810900	-0.371859	1.245283
C79	C	1.089613	-1.000296	0.636168
C80	C	1.422946	-0.666963	0.969501
C81	C	1.756280	-0.333630	1.302834
C82	C	1.094935	-0.905584	0.630480
C83	C	1.428268	-0.572251	0.963813
C84	C	1.761602	-0.238918	1.297146
C85	C	1.138913	-1.133246	0.584303
C86	C	1.472246	-0.799912	0.917636
C87	C	1.805580	-0.466579	1.250970
C88	C	1.332202	-0.532250	0.621871
C89	C	1.665536	-0.198917	0.955204
C90	C	1.998869	0.134416	1.288538
C91	C	1.423974	-0.537542	0.628045
C92	C	1.757307	-0.204209	0.961379
C93	C	2.090640	0.129124	1.294712
C94	C	1.087965	-0.545886	0.879761
C95	C	1.421298	-0.212553	1.213094
C96	C	1.754631	0.120780	1.546428
C97	C	1.075657	-0.556990	0.995833
C98	C	1.408990	-0.223656	1.329166
C99	C	1.742323	0.109677	1.662499
C100	C	1.129344	-0.301695	0.594380
C101	C	1.462677	0.031639	0.927713
C102	C	1.796011	0.364972	1.261046
C103	C	1.134669	-0.208738	0.588839
C104	C	1.468002	0.124596	0.922172
C105	C	1.801336	0.457929	1.255506
C106	C	1.145669	-0.493820	0.336061
C107	C	1.479002	-0.160487	0.669395
C108	C	1.812335	0.172846	1.002728
C109	C	1.158150	-0.482491	0.219987
C110	C	1.491483	-0.149158	0.553320
C111	C	1.824817	0.184176	0.886653
C112	C	1.123260	-0.514006	1.047928
C113	C	1.456593	-0.180673	1.381261
C114	C	1.789927	0.152661	1.714595
C115	C	1.110540	-0.525481	1.167894
C116	C	1.443874	-0.192147	1.501228
C117	C	1.777207	0.141186	1.834561
H118	H	1.038854	-1.038698	0.689711
H119	H	1.372187	-0.705364	1.023044
H120	H	1.705521	-0.372031	1.356377
N121	N	1.047592	-0.582297	1.223361
N122	N	1.380925	-0.248963	1.556694
N123	N	1.714258	0.084370	1.890027
N124	N	1.037345	-0.591534	1.320735
N125	N	1.370679	-0.258201	1.654068
N126	N	1.704012	0.075132	1.987401
H127	H	0.992888	-0.631659	1.359910
H128	H	1.326221	-0.298326	1.693244
H129	H	1.659555	0.035008	2.026577
H130	H	0.618977	-0.597971	0.698463
H131	H	0.952311	-0.264638	1.031796
H132	H	1.285644	0.068695	1.365129
N133	N	1.221085	-0.425658	1.164520
N134	N	1.554418	-0.092325	1.497854
N135	N	1.887752	0.241009	1.831187
N136	N	1.231327	-0.416412	1.067146
N137	N	1.564660	-0.083078	1.400479
N138	N	1.897993	0.250255	1.733812
H139	H	1.275772	-0.376273	1.027970
H140	H	1.609106	-0.042939	1.361304
H141	H	1.942439	0.290394	1.694637
H142	H	0.615548	-0.441764	0.516386
H143	H	0.948881	-0.108431	0.849719
H144	H	1.282215	0.224902	1.183052
H145	H	1.194988	-1.000128	0.525076
H146	H	1.528322	-0.666795	0.858409
H147	H	1.861655	-0.333461	1.191742
H148	H	1.173429	-0.468708	1.003713
H149	H	1.506762	-0.135375	1.337047
H150	H	1.840096	0.197958	1.670380
N151	N	1.012712	-0.613803	1.051303
N152	N	1.346045	-0.280469	1.384637
N153	N	1.679378	0.052864	1.717970
N154	N	1.002465	-0.623040	1.148677
N155	N	1.335799	-0.289707	1.482010
N156	N	1.669132	0.043627	1.815344
H157	H	0.958008	-0.663165	1.187853
H158	H	1.291341	-0.329832	1.521186
H159	H	1.624675	0.003502	1.854520
