data_functionalizedCrystal
_audit_creation_method	'MofGen! by Chris Wilmer'
_symmetry_space_group_name_H-M	'P1'
_symmetry_Int_Tables_number	1
_symmetry_cell_setting	triclinic
loop_
_symmetry_equiv_pos_as_xyz
  x,y,z
_cell_length_a	19.188922
_cell_length_b	14.853567
_cell_length_c	13.330367
_cell_angle_alpha	90.004582
_cell_angle_beta	90.007148
_cell_angle_gamma	83.388013
loop_
_atom_site_label
_atom_site_type_symbol
_atom_site_fract_x
_atom_site_fract_y
_atom_site_fract_z
O1	O	-0.091155	-1.195858	-0.083360
O2	O	0.408845	-0.695858	0.416640
O3	O	-0.102014	-0.933338	-0.083378
O4	O	0.397986	-0.433338	0.416622
O5	O	0.005046	-1.072178	-0.083356
O6	O	0.505046	-0.572178	0.416644
O7	O	-0.198216	-1.057018	-0.083382
O8	O	0.301784	-0.557018	0.416618
O9	O	0.005048	-1.072158	0.083492
O10	O	0.505048	-0.572158	0.583492
O11	O	-0.102012	-0.933318	0.083469
O12	O	0.397988	-0.433318	0.583469
O13	O	-0.091153	-1.195838	0.083487
O14	O	0.408847	-0.695838	0.583487
Cu15	Cu	-0.096582	-1.064576	0.098713
Cu16	Cu	0.403418	-0.564576	0.598713
Cu17	Cu	-0.096585	-1.064600	-0.098603
Cu18	Cu	0.403415	-0.564600	0.401397
O19	O	-0.198213	-1.056998	0.083465
O20	O	0.301787	-0.556998	0.583465
C21	C	-0.101521	-0.899742	0.000044
C22	C	0.398479	-0.399742	0.500044
C23	C	-0.100047	-0.799666	0.000037
C24	C	0.399953	-0.299666	0.500037
C25	C	0.031060	-1.071678	0.000069
C26	C	0.531060	-0.571678	0.500069
C27	C	0.108570	-1.070209	0.000073
C28	C	0.608570	-0.570209	0.500073
C29	C	0.144970	-1.069534	-0.090876
C30	C	0.644970	-0.569534	0.409124
C31	C	0.217797	-1.068140	-0.090883
C32	C	0.717797	-0.568140	0.409117
C33	C	0.254224	-1.067440	0.000064
C34	C	0.754224	-0.567440	0.500064
C35	C	0.217814	-1.068110	0.091024
C36	C	0.717814	-0.568110	0.591024
C37	C	0.144987	-1.069494	0.091029
C38	C	0.644987	-0.569494	0.591029
N39	N	0.373724	-1.116561	0.067758
N40	N	0.873724	-0.616561	0.567758
N41	N	0.442907	-1.115247	0.067747
N42	N	0.942907	-0.615247	0.567747
C43	C	0.473647	-1.063266	0.000056
C44	C	0.973647	-0.563266	0.500056
N45	N	0.432592	-1.012659	-0.067639
N46	N	0.932592	-0.512659	0.432361
N47	N	0.363403	-1.013976	-0.067632
N48	N	0.863403	-0.513976	0.432368
C49	C	0.333192	-1.065938	0.000069
C50	C	0.833192	-0.565938	0.500069
C51	C	0.589014	-1.061078	-0.090906
C52	C	1.089014	-0.561078	0.409094
C53	C	0.661843	-1.059679	-0.090909
C54	C	1.161843	-0.559679	0.409091
C55	C	0.661859	-1.059658	0.091001
C56	C	1.161859	-0.559658	0.591001
C57	C	0.589032	-1.061048	0.091001
C58	C	1.089032	-0.561048	0.591001
C59	C	0.552614	-1.061762	0.000045
C60	C	1.052614	-0.561762	0.500045
C61	C	-0.091646	-1.229434	0.000063
C62	C	0.408354	-0.729434	0.500063
C63	C	-0.093121	-1.329510	0.000063
C64	C	0.406879	-0.829510	0.500063
C65	C	0.775773	-1.057500	0.000040
C66	C	1.275773	-0.557500	0.500040
C67	C	0.698264	-1.058977	0.000039
C68	C	1.198264	-0.558977	0.500039
N69	N	-0.096580	-1.064566	0.237494
N70	N	0.403420	-0.564566	0.737494
C71	C	-0.030218	-0.387524	0.000069
C72	C	0.469782	0.112476	0.500069
C73	C	-0.157408	-0.365530	0.000051
C74	C	0.342592	0.134470	0.500051
C75	C	-0.158794	-0.459556	0.000048
C76	C	0.341206	0.040444	0.500048
C77	C	-0.095891	-0.517570	0.000053
C78	C	0.404109	-0.017570	0.500053
C79	C	-0.031602	-0.481559	0.000062
C80	C	0.468398	0.018441	0.500062
C81	C	-0.223082	-0.495575	0.000028
C82	C	0.276918	0.004425	0.500028
C83	C	-0.224471	-0.589606	0.000024
C84	C	0.275529	-0.089606	0.500024
C85	C	-0.161568	-0.647623	0.000037
C86	C	0.338432	-0.147623	0.500037
C87	C	-0.097276	-0.611605	0.000047
C88	C	0.402724	-0.111605	0.500047
C89	C	-0.034373	-0.669620	0.000053
C90	C	0.465627	-0.169620	0.500053
C91	C	0.029919	-0.633604	0.000070
C92	C	0.529919	-0.133604	0.500070
C93	C	0.031301	-0.539575	0.000075
C94	C	0.531301	-0.039575	0.500075
C95	C	-0.162949	-0.741652	0.000031
C96	C	0.337051	-0.241652	0.500031
C97	C	-0.035758	-0.763655	0.000046
C98	C	0.464242	-0.263655	0.500046
N99	N	-0.096582	-1.064617	-0.237385
N100	N	0.403418	-0.564617	0.262615
C101	C	-0.143973	-1.003119	0.710107
C102	C	0.356027	-0.503119	1.210107
C103	C	-0.049192	-1.126105	0.710095
C104	C	0.450808	-0.626105	1.210095
C105	C	-0.049190	-1.126095	0.605077
C106	C	0.450810	-0.626095	1.105077
C107	C	-0.096581	-1.064597	0.552569
C108	C	0.403419	-0.564597	1.052569
C109	C	-0.143973	-1.003109	0.605079
C110	C	0.356027	-0.503109	1.105079
C111	C	-0.001803	-1.187588	0.552558
C112	C	0.498197	-0.687588	1.052558
C113	C	-0.001799	-1.187581	0.447533
C114	C	0.498201	-0.687581	0.947533
C115	C	-0.049187	-1.126078	0.395024
C116	C	0.450813	-0.626078	0.895024
C117	C	-0.096581	-1.064586	0.447541
C118	C	0.403419	-0.564586	0.947541
C119	C	-0.143972	-1.003088	0.395033
C120	C	0.356028	-0.503088	0.895033
C121	C	-0.191363	-0.941592	0.447548
C122	C	0.308637	-0.441592	0.947548
C123	C	-0.191361	-0.941605	0.552569
C124	C	0.308639	-0.441605	1.052569
C125	C	-0.049189	-1.126064	0.290002
C126	C	0.450811	-0.626064	0.790002
C127	C	-0.143973	-1.003078	0.290004
C128	C	0.356027	-0.503078	0.790004
H129	H	0.115322	-1.070113	-0.164939
H130	H	0.615322	-0.570113	0.335061
Cl131	Cl	0.263567	-1.067291	-0.205226
Cl132	Cl	0.763567	-0.567291	0.294774
H133	H	0.247477	-1.067536	0.165073
H134	H	0.747477	-0.567536	0.665073
Cl135	Cl	0.043325	-0.836580	0.000061
Cl136	Cl	0.543325	-0.336580	0.500061
Cl137	Cl	-0.250943	-0.864288	0.381526
Cl138	Cl	0.249057	-0.364288	0.881526
H139	H	0.559361	-1.061655	-0.164967
H140	H	1.059361	-0.561655	0.335033
H141	H	0.691478	-1.059125	-0.164973
H142	H	1.191478	-0.559125	0.335027
H143	H	-0.229946	-0.891538	0.595333
H144	H	0.270054	-0.391538	1.095333
H145	H	0.083645	-0.510242	0.000113
H146	H	0.583645	-0.010242	0.500113
H147	H	-0.182556	-0.953047	0.752867
H148	H	0.317444	-0.453047	1.252867
H149	H	-0.010611	-1.176180	0.752850
H150	H	0.489389	-0.676180	1.252850
H151	H	0.691517	-1.059080	0.165051
H152	H	1.191517	-0.559080	0.665051
Cl153	Cl	-0.236481	-0.292598	0.000030
Cl154	Cl	0.263519	0.207402	0.500030
Cl155	Cl	0.099225	-1.070342	0.205373
Cl156	Cl	0.599225	-0.570342	0.705373
Cl157	Cl	0.057767	-1.264903	0.618565
Cl158	Cl	0.557767	-0.764903	1.118565
Cl159	Cl	0.057779	-1.264885	0.381522
Cl160	Cl	0.557779	-0.764885	0.881522
Cl161	Cl	0.010380	-1.203373	0.223990
Cl162	Cl	0.510380	-0.703373	0.723990
Cl163	Cl	0.050603	-0.342250	0.000096
Cl164	Cl	0.550603	0.157750	0.500096
Cl165	Cl	0.543269	-1.061896	0.205343
Cl166	Cl	1.043269	-0.561896	0.705343
H167	H	-0.274294	-0.448334	0.000013
H168	H	0.225706	0.051666	0.500013
Cl169	Cl	0.108994	-0.706547	0.000070
Cl170	Cl	0.608994	-0.206547	0.500070
Cl171	Cl	-0.305294	-0.634874	0.000005
Cl172	Cl	0.194706	-0.134874	0.500005
Cl173	Cl	-0.243767	-0.786926	0.000002
Cl174	Cl	0.256233	-0.286926	0.500002
H175	H	-0.182562	-0.952995	0.247259
H176	H	0.317438	-0.452995	0.747259
