data_functionalizedCrystal
_audit_creation_method	'MofGen! by Chris Wilmer'
_symmetry_space_group_name_H-M	'P1'
_symmetry_Int_Tables_number	1
_symmetry_cell_setting	triclinic
loop_
_symmetry_equiv_pos_as_xyz
  x,y,z
_cell_length_a	17.640112
_cell_length_b	12.594516
_cell_length_c	17.639306
_cell_angle_alpha	101.189135
_cell_angle_beta	87.804122
_cell_angle_gamma	101.240082
loop_
_atom_site_label
_atom_site_type_symbol
_atom_site_fract_x
_atom_site_fract_y
_atom_site_fract_z
Zn1	Zn	1.247754	-0.136809	-0.195074
Zn2	Zn	1.222023	-0.287256	-0.068106
Zn3	Zn	1.095107	-0.150854	-0.093727
Zn4	Zn	1.120741	-0.356331	-0.220682
O5	O	1.171406	-0.232813	-0.144397
O6	O	1.350610	-0.121980	-0.156792
O7	O	1.183690	-0.246132	0.034762
O8	O	1.115396	-0.000036	-0.107176
O9	O	1.331706	-0.232513	-0.063509
O10	O	1.227545	0.010283	-0.181635
O11	O	1.090446	-0.145918	0.015939
O12	O	0.992237	-0.212898	-0.132007
O13	O	1.159086	-0.350241	-0.323552
O14	O	1.011070	-0.363861	-0.225280
O15	O	1.252401	-0.188959	-0.304738
O16	O	1.208547	-0.445374	-0.088340
O17	O	1.134135	-0.496124	-0.200437
C18	C	0.974099	-0.297400	-0.184203
C19	C	0.889694	-0.325060	-0.201250
C20	C	1.171355	-0.509368	-0.144400
C21	C	1.171407	-0.627663	-0.144412
C22	C	0.563038	-0.022664	-0.014898
C23	C	0.483729	-0.048679	-0.030927
C24	C	0.503360	-0.206028	-0.127885
C25	C	0.582674	-0.180023	-0.111867
C26	C	0.612506	-0.088341	-0.055372
C27	C	0.632141	-0.245700	-0.152341
C28	C	0.711447	-0.219700	-0.136321
C29	C	0.741285	-0.128024	-0.079827
C30	C	0.691812	-0.062341	-0.039352
C31	C	0.602307	-0.337386	-0.208831
C32	C	0.651774	-0.403063	-0.249305
C33	C	0.731082	-0.377059	-0.233289
C34	C	0.760921	-0.285383	-0.176796
C35	C	0.780556	-0.442742	-0.273764
C36	C	0.859862	-0.416742	-0.257745
C37	C	0.840226	-0.259383	-0.160776
C38	C	1.130923	-0.724551	-0.205347
C39	C	1.098421	-0.786420	-0.139784
C40	C	1.203981	-0.776573	-0.209972
C41	C	1.138861	-0.687977	-0.078821
C42	C	1.244463	-0.678124	-0.149049
C43	C	1.211978	-0.739942	-0.083433
C44	C	1.369483	-0.167974	-0.104436
C45	C	1.453892	-0.140344	-0.087407
C46	C	1.211473	-0.275739	-0.342469
C47	C	1.228548	-0.294031	-0.426876
C48	C	1.171481	0.044826	-0.144407
C49	C	1.171514	0.163139	-0.144411
C50	C	1.041989	-0.093353	-0.753498
C51	C	1.058050	-0.110558	-0.832808
C52	C	1.155136	-0.214900	-0.813189
C53	C	1.139086	-0.197699	-0.733876
C54	C	1.082511	-0.136925	-0.704037
C55	C	1.179607	-0.241271	-0.684415
C56	C	1.163555	-0.224076	-0.605109
C57	C	1.106982	-0.163308	-0.575265
C58	C	1.066459	-0.119730	-0.624732
C59	C	1.236178	-0.302051	-0.714256
C60	C	1.276700	-0.345623	-0.664795
C61	C	1.260652	-0.328422	-0.585487
C62	C	1.204078	-0.267654	-0.555642
C63	C	1.301174	-0.372000	-0.536020
C64	C	1.285122	-0.354805	-0.456714
C65	C	1.188026	-0.250459	-0.476337
C66	C	1.131538	-0.189962	0.052913
C67	C	1.114611	-0.171322	0.137349
H68	H	0.864519	-0.184713	-0.114784
H69	H	1.096597	-0.716890	-0.256830
H70	H	0.587331	0.052006	0.031094
C71	C	0.470536	-0.306874	-0.190028
N72	N	0.445814	-0.382830	-0.236838
C73	C	0.979757	-0.026493	-0.720671
N74	N	0.932884	0.023860	-0.695946
H75	H	1.201197	-0.264386	-0.837496
H76	H	1.025051	-0.075067	-0.873077
H77	H	1.231487	-0.815199	-0.265416
H78	H	1.322760	-0.395109	-0.689101
H79	H	1.306188	-0.631163	-0.153002
H80	H	1.249247	-0.316046	-0.778832
H81	H	1.141965	-0.200958	-0.452039
C82	C	0.429316	0.023580	0.013602
N83	N	0.388332	0.078003	0.047141
C84	C	1.363243	-0.439126	-0.568886
N85	N	1.409938	-0.489784	-0.593652
H86	H	1.093908	-0.149318	-0.510690
H87	H	1.020398	-0.070229	-0.600434
H88	H	1.036689	-0.833395	-0.135867
C89	C	1.329693	-0.402746	-0.402305
N90	N	1.363261	-0.438862	-0.361325
H91	H	0.900140	-0.470222	-0.290704
H92	H	0.805861	-0.106859	-0.066784
H93	H	1.111284	-0.649498	-0.023375
H94	H	0.716104	0.012329	0.006640
H95	H	0.537730	-0.358552	-0.221872
C96	C	0.747728	-0.543594	-0.335903
N97	N	0.723003	-0.619556	-0.382706
C98	C	0.618950	-0.503909	-0.311449
N99	N	0.594227	-0.579865	-0.358259
H100	H	1.246250	-0.747394	-0.031853
