data_functionalizedCrystal
_audit_creation_method	'MofGen! by Chris Wilmer'
_symmetry_space_group_name_H-M	'P1'
_symmetry_Int_Tables_number	1
_symmetry_cell_setting	triclinic
loop_
_symmetry_equiv_pos_as_xyz
  x,y,z
_cell_length_a	19.077068
_cell_length_b	17.077404
_cell_length_c	17.077396
_cell_angle_alpha	90.017442
_cell_angle_beta	92.266197
_cell_angle_gamma	87.675877
loop_
_atom_site_label
_atom_site_type_symbol
_atom_site_fract_x
_atom_site_fract_y
_atom_site_fract_z
Zn1	Zn	-0.280250	-1.187454	-0.456382
Zn2	Zn	0.219750	-0.687454	0.043618
Zn3	Zn	-0.397955	-1.182082	-0.330381
Zn4	Zn	0.102045	-0.682082	0.169619
Zn5	Zn	-0.280270	-1.056190	-0.325131
Zn6	Zn	0.219730	-0.556190	0.174869
Zn7	Zn	-0.397905	-1.050871	-0.461602
Zn8	Zn	0.102095	-0.550871	0.038398
O9	O	-0.339095	-1.119149	-0.393374
O10	O	0.160905	-0.619149	0.106626
O11	O	-0.295876	-1.296588	-0.439681
O12	O	0.204124	-0.796588	0.060319
O13	O	-0.382373	-1.165359	-0.219839
O14	O	0.117627	-0.665359	0.280161
O15	O	-0.181776	-1.078077	-0.338160
O16	O	0.318224	-0.578077	0.161840
O17	O	-0.382354	-1.292641	-0.347108
O18	O	0.117646	-0.792641	0.152892
O19	O	-0.181762	-1.174516	-0.434590
O20	O	0.318238	-0.674516	0.065410
O21	O	-0.295910	-1.072868	-0.215981
O22	O	0.204090	-0.572868	0.284019
O23	O	-0.295862	-0.945638	-0.343221
O24	O	0.204138	-0.445638	0.156779
O25	O	-0.382269	-1.069012	-0.570755
O26	O	0.117731	-0.569012	-0.070755
O27	O	-0.382288	-0.941731	-0.443486
O28	O	0.117712	-0.441731	0.056514
O29	O	-0.295828	-1.169359	-0.566920
O30	O	0.204172	-0.669359	-0.066920
O31	O	-0.496439	-1.160202	-0.352170
O32	O	0.003561	-0.660202	0.147830
O33	O	-0.496402	-1.063802	-0.448577
O34	O	0.003598	-0.563802	0.051423
C35	C	-0.339072	-0.915203	-0.393351
C36	C	0.160928	-0.415203	0.106649
C37	C	-0.339079	-0.827952	-0.393360
C38	C	0.160921	-0.327952	0.106640
C39	C	-0.294130	-0.789015	-0.441642
C40	C	0.205870	-0.289015	0.058358
C41	C	-0.294133	-0.707034	-0.441644
C42	C	0.205867	-0.207034	0.058356
C43	C	-0.339090	-0.663993	-0.393367
C44	C	0.160910	-0.163993	0.106633
C45	C	-0.384041	-0.702936	-0.345080
C46	C	0.115959	-0.202936	0.154920
C47	C	-0.384034	-0.784915	-0.345075
C48	C	0.115966	-0.284915	0.154925
C49	C	-0.384055	-0.532065	-0.345096
C50	C	0.115945	-0.032065	0.154904
C51	C	-0.384064	-0.450080	-0.345102
C52	C	0.115936	0.049920	0.154898
C53	C	-0.294154	-0.454184	-0.441665
C54	C	0.205846	0.045816	0.058335
C55	C	-0.294147	-0.536164	-0.441660
C56	C	0.205853	-0.036164	0.058340
C57	C	-0.339099	-0.575101	-0.393373
C58	C	0.160901	-0.075101	0.106627
C59	C	-0.521958	-1.110863	-0.401527
C60	C	-0.021958	-0.610863	0.098473
C61	C	-0.600188	-1.107390	-0.405041
C62	C	-0.100188	-0.607390	0.094959
C63	C	-0.636936	-1.155988	-0.356539
C64	C	-0.136936	-0.655988	0.143461
C65	C	-0.710441	-1.152726	-0.359849
C66	C	-0.210441	-0.652726	0.140151
C67	C	-0.747197	-1.100862	-0.411657
C68	C	-0.247197	-0.600862	0.088343
C69	C	-0.710444	-1.052262	-0.460164
C70	C	-0.210444	-0.552262	0.039836
C71	C	-0.636940	-1.055529	-0.456857
C72	C	-0.136940	-0.555529	0.043143
C73	C	-0.967030	-1.085710	-0.426927
C74	C	-0.467030	-0.585710	0.073073
C75	C	-1.040539	-1.082446	-0.430228
C76	C	-0.540539	-0.582446	0.069772
C77	C	-1.040532	-1.182911	-0.329914
C78	C	-0.540532	-0.682911	0.170086
C79	C	-0.967027	-1.186169	-0.326609
C80	C	-0.467027	-0.686169	0.173391
C81	C	-0.930280	-1.137573	-0.375118
C82	C	-0.430280	-0.637573	0.124882
N83	N	-0.822331	-1.097525	-0.415039
N84	N	-0.322331	-0.597525	0.084961
N85	N	-0.855147	-1.140914	-0.371739
N86	N	-0.355147	-0.640914	0.128261
C87	C	-0.155517	-1.127489	-0.385207
C88	C	0.344483	-0.627489	0.114793
C89	C	-0.077288	-1.131043	-0.381726
C90	C	0.422712	-0.631043	0.118274
C91	C	-0.339040	-1.119191	-0.598116
C92	C	0.160960	-0.619191	-0.098116
C93	C	-0.339017	-1.119209	-0.685365
C94	C	0.160983	-0.619209	-0.185365
C95	C	-0.339115	-0.323893	-0.393392
C96	C	0.160885	0.176107	0.106608
C97	C	-0.339114	-0.411143	-0.393384
C98	C	0.160886	0.088857	0.106616
C99	C	-0.293991	-1.071064	-0.724345
C100	C	0.206009	-0.571064	-0.224345
C101	C	-0.293975	-1.071078	-0.806325
C102	C	0.206025	-0.571078	-0.306325
C103	C	-0.338982	-1.119241	-0.849323
C104	C	0.161018	-0.619241	-0.349323
C105	C	-0.384014	-1.167388	-0.810336
C106	C	0.115986	-0.667388	-0.310336
C107	C	-0.384033	-1.167370	-0.728358
C108	C	0.115967	-0.667370	-0.228358
C109	C	-0.383970	-1.167424	-0.981205
C110	C	0.116030	-0.667424	-0.481205
C111	C	-0.383950	-1.167443	-1.063188
C112	C	0.116050	-0.667443	-0.563188
C113	C	-0.293912	-1.071132	-1.059172
C114	C	0.206088	-0.571132	-0.559172
C115	C	-0.293931	-1.071114	-0.977193
C116	C	0.206069	-0.571114	-0.477193
C117	C	-0.338961	-1.119262	-0.938213
C118	C	0.161039	-0.619262	-0.438213
C119	C	-0.339098	-1.119155	-0.189426
C120	C	0.160902	-0.619155	0.310574
C121	C	-0.338923	-1.119298	-0.102169
C122	C	0.161077	-0.619298	0.397831
H123	H	-0.257523	-0.824054	-0.480956
H124	H	0.242477	-0.324054	0.019044
H125	H	-0.257551	-0.422477	-0.480980
H126	H	0.242449	0.077523	0.019020
O127	O	-0.245649	-0.665037	-0.493717
O128	O	0.254351	-0.165037	0.006283
H129	H	-0.257794	-0.680237	-0.555843
H130	H	0.242206	-0.180237	-0.055843
O131	O	-0.245439	-1.019121	-0.677975
O132	O	0.254561	-0.519121	-0.177975
H133	H	-0.276940	-0.977747	-0.642014
H134	H	0.223060	-0.477747	-0.142014
H135	H	-0.740376	-1.010037	-0.502350
H136	H	-0.240376	-0.510037	-0.002350
O137	O	-0.432514	-0.826912	-0.292995
O138	O	0.067486	-0.326912	0.207005
H139	H	-0.424951	-0.891148	-0.301093
H140	H	0.075049	-0.391148	0.198907
H141	H	-0.257312	-1.031870	-0.838060
H142	H	0.242688	-0.531870	-0.338060
O143	O	-0.432541	-0.403655	-0.293021
O144	O	0.067459	0.096345	0.206979
H145	H	-0.468400	-0.364701	-0.329683
H146	H	0.031600	0.135299	0.170317
O147	O	-0.597293	-1.211930	-0.300663
O148	O	-0.097293	-0.711930	0.199337
H149	H	-0.635199	-1.245181	-0.267500
H150	H	-0.135199	-0.745181	0.232500
O151	O	-0.245654	-0.582592	-0.493721
O152	O	0.254346	-0.082592	0.006279
H153	H	-0.214390	-0.541746	-0.527291
H154	H	0.285610	-0.041746	-0.027291
H155	H	-0.257245	-1.031929	-1.090913
H156	H	0.242755	-0.531929	-0.590913
H157	H	-0.607020	-1.015957	-0.496354
H158	H	-0.107020	-0.515957	0.003646
H159	H	-0.420693	-1.206580	-0.696621
H160	H	0.079307	-0.706580	-0.196621
H161	H	-0.740359	-1.192298	-0.320353
H162	H	-0.240359	-0.692298	0.179647
H163	H	-0.257278	-1.031899	-0.942187
H164	H	0.242722	-0.531899	-0.442187
H165	H	-0.420632	-1.206638	-0.949469
H166	H	0.079368	-0.706638	-0.449469
O167	O	-0.432540	-0.574067	-0.293020
O168	O	0.067460	-0.074067	0.206980
H169	H	-0.463809	-0.530366	-0.259457
H170	H	0.036191	-0.030366	0.240543
O171	O	-0.432528	-0.656517	-0.293003
O172	O	0.067472	-0.156517	0.206997
H173	H	-0.468386	-0.617566	-0.329670
H174	H	0.031614	-0.117566	0.170330
O175	O	-0.927383	-1.242115	-0.270737
O176	O	-0.427383	-0.742115	0.229263
H177	H	-0.965286	-1.275367	-0.237572
H178	H	-0.465286	-0.775367	0.262428
H179	H	-1.070459	-1.222476	-0.290421
H180	H	-0.570459	-0.722476	0.209579
O181	O	-1.080188	-1.026511	-0.486115
O182	O	-0.580188	-0.526511	0.013885
H183	H	-1.042287	-0.993273	-0.519298
H184	H	-0.542287	-0.493273	-0.019298
O185	O	-0.432562	-1.219329	-0.856713
O186	O	0.067438	-0.719329	-0.356713
H187	H	-0.463882	-1.252798	-0.815832
H188	H	0.036118	-0.752798	-0.315832
H189	H	-0.420599	-1.206662	-1.098195
H190	H	0.079401	-0.706662	-0.598195
H191	H	-0.937117	-1.046140	-0.466424
H192	H	-0.437117	-0.546140	0.033576
