data_functionalizedCrystal
_audit_creation_method	'MofGen! by Chris Wilmer'
_symmetry_space_group_name_H-M	'P1'
_symmetry_Int_Tables_number	1
_symmetry_cell_setting	triclinic
loop_
_symmetry_equiv_pos_as_xyz
  x,y,z
_cell_length_a	10.654550
_cell_length_b	11.792241
_cell_length_c	9.730223
_cell_angle_alpha	89.995449
_cell_angle_beta	89.999957
_cell_angle_gamma	84.339173
loop_
_atom_site_label
_atom_site_type_symbol
_atom_site_fract_x
_atom_site_fract_y
_atom_site_fract_z
O1	O	1.667388	0.159420	-0.114188
O2	O	1.301867	0.174608	-0.114213
O3	O	1.493498	0.001864	-0.114190
O4	O	1.475757	0.332164	-0.114211
O5	O	1.493485	0.001859	0.114390
O6	O	1.301854	0.174603	0.114367
O7	O	1.667376	0.159415	0.114392
Zn8	Zn	1.484613	0.167008	0.150671
Zn9	Zn	1.484629	0.167015	-0.150493
O10	O	1.475745	0.332159	0.114369
C11	C	1.255066	0.173491	0.000074
C12	C	1.115632	0.170154	0.000064
C13	C	1.492377	-0.040432	0.000099
C14	C	1.489042	-0.166453	0.000098
C15	C	1.035859	0.271863	0.000062
C16	C	0.904847	0.268721	0.000086
C17	C	0.933394	0.062152	0.000109
C18	C	1.064403	0.065295	0.000095
C19	C	1.482908	-0.397180	0.000074
C20	C	1.486316	-0.268787	0.000087
C21	C	1.714177	0.160533	0.000102
C22	C	1.853611	0.163869	0.000103
C23	C	1.476865	0.374455	0.000077
C24	C	1.480201	0.500477	0.000069
N25	N	1.484611	0.167003	0.356208
N26	N	1.484641	0.167011	-0.356029
C27	C	1.569494	0.090545	0.428144
C28	C	1.569507	0.090545	0.572027
C29	C	1.399749	0.243473	0.572025
C30	C	1.399731	0.243466	0.428145
H31	H	0.839900	0.351543	0.000087
H32	H	1.330603	0.305728	0.369570
C33	C	0.877036	-0.053187	0.000127
C34	C	0.790899	-0.083752	0.118829
C35	C	0.734544	-0.199094	0.118842
C36	C	0.764325	-0.283869	0.000153
C37	C	0.850466	-0.253305	-0.118557
C38	C	0.906822	-0.137964	-0.118571
H39	H	0.768850	-0.020995	0.206698
H40	H	0.670776	-0.221718	0.206721
H41	H	0.722607	-0.369251	0.000163
H42	H	0.872516	-0.316062	-0.206426
H43	H	0.970589	-0.115339	-0.206449
C44	C	1.092213	0.387203	0.000043
C45	C	1.062438	0.471974	0.118738
C46	C	1.118789	0.587318	0.118724
C47	C	1.204914	0.617890	0.000015
C48	C	1.234694	0.533118	-0.118689
C49	C	1.178343	0.417774	-0.118675
H50	H	0.998679	0.449344	0.206621
H51	H	1.096743	0.650072	0.206597
H52	H	1.246629	0.703274	0.000005
H53	H	1.298453	0.555748	-0.206572
H54	H	1.200389	0.355020	-0.206547
H55	H	1.129359	-0.017534	0.000101
H56	H	1.638625	0.028285	0.630593
H57	H	1.638607	0.028283	0.369576
H58	H	1.330643	0.305729	0.630610
