data_functionalizedCrystal
_audit_creation_method	'MofGen! by Chris Wilmer'
_symmetry_space_group_name_H-M	'P1'
_symmetry_Int_Tables_number	1
_symmetry_cell_setting	triclinic
loop_
_symmetry_equiv_pos_as_xyz
  x,y,z
_cell_length_a	13.032721
_cell_length_b	13.897449
_cell_length_c	13.033429
_cell_angle_alpha	97.161691
_cell_angle_beta	89.068252
_cell_angle_gamma	97.205670
loop_
_atom_site_label
_atom_site_type_symbol
_atom_site_fract_x
_atom_site_fract_y
_atom_site_fract_z
Zn1	Zn	-0.335473	1.361109	-0.633452
Zn2	Zn	0.164527	1.861109	-0.133452
Zn3	Zn	-0.529327	1.355866	-0.483314
Zn4	Zn	-0.029327	1.855866	0.016686
Zn5	Zn	-0.357374	1.217385	-0.461502
Zn6	Zn	0.142626	1.717385	0.038498
Zn7	Zn	-0.507412	1.177062	-0.655231
Zn8	Zn	-0.007412	1.677062	-0.155231
O9	O	-0.432397	1.277856	-0.558375
O10	O	0.067603	1.777856	-0.058375
O11	O	-0.361195	1.495393	-0.613550
O12	O	0.138805	1.995393	-0.113550
O13	O	-0.524855	1.352178	-0.336511
O14	O	-0.024855	1.852178	0.163489
O15	O	-0.210549	1.255519	-0.466068
O16	O	0.289451	1.755519	0.033932
O17	O	-0.503618	1.491541	-0.503244
O18	O	-0.003618	1.991541	-0.003244
O19	O	-0.194458	1.361113	-0.592399
O20	O	0.305542	1.861113	-0.092399
O21	O	-0.398521	1.250436	-0.320485
O22	O	0.101479	1.750436	0.179515
O23	O	-0.377271	1.077057	-0.487186
O24	O	0.122729	1.577057	0.012814
O25	O	-0.466267	1.186796	-0.796252
O26	O	0.033733	1.686796	-0.296252
O27	O	-0.487503	1.047432	-0.629519
O28	O	0.012497	1.547432	-0.129519
O29	O	-0.339944	1.322014	-0.780251
O30	O	0.160056	1.822014	-0.280251
O31	O	-0.670340	1.313079	-0.524363
O32	O	-0.170340	1.813079	-0.024363
O33	O	-0.654239	1.181712	-0.650670
O34	O	-0.154239	1.681712	-0.150670
C35	C	-0.699604	1.242475	-0.592269
C36	C	-0.199604	1.742475	-0.092269
C37	C	-0.813912	1.227423	-0.606803
C38	C	-0.313912	1.727423	-0.106803
C39	C	-0.432386	1.027246	-0.558350
C40	C	0.067614	1.527246	-0.058350
C41	C	-0.432403	0.920028	-0.558366
C42	C	0.067597	1.420028	-0.058366
C43	C	-0.872800	1.285758	-0.550836
C44	C	-0.372800	1.785758	-0.050836
C45	C	-0.990943	1.270203	-0.565856
C46	C	-0.490943	1.770203	-0.065856
C47	C	-0.432403	0.723729	-0.558394
C48	C	0.067597	1.223729	-0.058394
C49	C	-0.432400	0.832964	-0.558375
C50	C	0.067600	1.332964	-0.058375
C51	C	-0.164143	1.313399	-0.524371
C52	C	0.335857	1.813399	-0.024371
C53	C	-0.049830	1.328545	-0.509881
C54	C	0.450170	1.828545	-0.009881
C55	C	-0.432408	1.529444	-0.558401
C56	C	0.067592	2.029444	-0.058401
C57	C	-0.432413	1.636656	-0.558412
C58	C	0.067587	2.136656	-0.058412
C59	C	-0.398218	1.250492	-0.826609
C60	C	0.101782	1.750492	-0.326609
C61	C	-0.383653	1.238831	-0.940915
C62	C	0.116347	1.738831	-0.440915
C63	C	-0.424628	1.271924	-1.117944
C64	C	0.075372	1.771924	-0.617944
C65	C	-0.439676	1.283977	-0.999802
C66	C	0.060324	1.783977	-0.499802
C67	C	-0.466368	1.305179	-0.291175
C68	C	0.033632	1.805179	0.208825
C69	C	-0.480644	1.317065	-0.176833
C70	C	0.019356	1.817065	0.323167
H71	H	-0.835753	1.347219	-0.491803
H72	H	-0.335753	1.847219	0.008197
F73	F	-0.557885	1.379249	-1.128416
F74	F	-0.057885	1.879249	-0.628416
F75	F	-1.039358	1.189871	-0.643032
F76	F	-0.539358	1.689871	-0.143032
F77	F	-1.001416	1.408886	-0.432714
F78	F	-0.501416	1.908886	0.067286
F79	F	-0.306396	1.176654	-0.989324
F80	F	0.193604	1.676654	-0.489324
H81	H	-0.850960	1.165969	-0.665843
H82	H	-0.350960	1.665969	-0.165843
F83	F	-0.347376	1.209751	-1.166360
F84	F	0.152624	1.709751	-0.666360
F85	F	-0.516922	1.346165	-0.951390
F86	F	-0.016922	1.846165	-0.451390
