data_functionalizedCrystal
_audit_creation_method	'MofGen! by Chris Wilmer'
_symmetry_space_group_name_H-M	'P1'
_symmetry_Int_Tables_number	1
_symmetry_cell_setting	triclinic
loop_
_symmetry_equiv_pos_as_xyz
  x,y,z
_cell_length_a	25.639239
_cell_length_b	17.077404
_cell_length_c	17.077396
_cell_angle_alpha	89.980499
_cell_angle_beta	89.968926
_cell_angle_gamma	90.038911
loop_
_atom_site_label
_atom_site_type_symbol
_atom_site_fract_x
_atom_site_fract_y
_atom_site_fract_z
Zn1	Zn	-0.208148	1.199968	-0.443829
Zn2	Zn	-0.295585	1.199839	-0.312557
Zn3	Zn	-0.208166	1.068700	-0.312576
Zn4	Zn	-0.295554	1.068632	-0.443780
O5	O	-0.251863	1.134285	-0.378185
O6	O	-0.219752	1.309798	-0.426427
O7	O	-0.284010	1.182418	-0.202712
O8	O	-0.134998	1.086196	-0.330016
O9	O	-0.283992	1.309703	-0.329982
O10	O	-0.134985	1.182638	-0.426446
O11	O	-0.219783	1.086071	-0.202727
O12	O	-0.219753	0.958844	-0.329969
O13	O	-0.283939	1.086080	-0.553634
O14	O	-0.283957	0.958794	-0.426364
O15	O	-0.219722	1.182572	-0.553669
O16	O	-0.368746	1.182352	-0.329935
O17	O	-0.368724	1.085954	-0.426345
C18	C	-0.251854	0.930337	-0.378164
C19	C	-0.251862	0.843087	-0.378173
C20	C	-0.285344	0.802092	-0.428285
C21	C	-0.285345	0.720111	-0.428298
C22	C	-0.251867	0.679128	-0.378194
C23	C	-0.218382	0.720129	-0.328079
C24	C	-0.218378	0.802108	-0.328071
C25	C	-0.218392	0.549259	-0.328098
C26	C	-0.218396	0.467275	-0.328105
C27	C	-0.285358	0.467262	-0.428325
C28	C	-0.285355	0.549241	-0.428317
C29	C	-0.251871	0.590237	-0.378201
C30	C	-0.387706	1.134153	-0.378150
C31	C	-0.445820	1.134168	-0.378160
C32	C	-0.806182	1.184610	-0.328071
C33	C	-0.860787	1.184641	-0.328081
O34	O	-0.889023	1.227391	-0.285454
N35	N	-0.888102	1.134423	-0.378237
C36	C	-0.860811	1.084177	-0.428392
O37	O	-0.889059	1.041467	-0.471056
C38	C	-0.806208	1.084151	-0.428385
C39	C	-0.778895	1.134367	-0.378220
C40	C	-0.778869	1.234822	-0.277910
C41	C	-0.724269	1.234790	-0.277899
C42	C	-0.696981	1.184547	-0.328048
C43	C	-0.724294	1.134335	-0.378209
C44	C	-0.778917	1.033910	-0.478543
C45	C	-0.724310	1.033889	-0.478532
C46	C	-0.696997	1.084104	-0.428367
C47	C	-0.642406	1.084060	-0.428346
N48	N	-0.615090	1.134278	-0.378190
C49	C	-0.642378	1.184521	-0.328041
C50	C	-0.975482	1.084236	-0.428404
C51	C	-1.030084	1.084258	-0.428408
C52	C	-1.030056	1.184722	-0.328098
C53	C	-0.975452	1.184696	-0.328091
C54	C	-0.948166	1.134454	-0.378248
C55	C	-0.527713	1.184450	-0.328020
C56	C	-0.473107	1.184412	-0.328011
C57	C	-0.473140	1.083951	-0.428324
C58	C	-0.527741	1.083986	-0.428331
C59	C	-0.555026	1.134242	-0.378176
O60	O	-0.614135	1.041334	-0.470954
O61	O	-0.614123	1.227232	-0.285392
C62	C	-0.115490	1.134439	-0.378239
C63	C	-0.057376	1.134505	-0.378261
C64	C	-0.251825	1.134333	-0.582930
C65	C	-0.251808	1.134353	-0.670180
C66	C	-0.251873	1.339029	-0.378208
C67	C	-0.251877	1.426279	-0.378217
C68	C	-0.218368	1.184598	-0.711190
C69	C	-0.218350	1.184608	-0.793170
C70	C	-0.251777	1.134375	-0.834139
C71	C	-0.285219	1.084124	-0.793123
C72	C	-0.285233	1.084111	-0.711144
C73	C	-0.285187	1.084156	-0.963994
C74	C	-0.285174	1.084169	-1.045978
C75	C	-0.218304	1.184652	-1.046019
C76	C	-0.218319	1.184639	-0.964040
C77	C	-0.251762	1.134389	-0.923030
C78	C	-0.251864	1.134283	-0.174238
C79	C	-0.251733	1.134415	-0.086988
H80	H	-0.191129	0.433908	-0.287315
H81	H	-0.312391	1.043264	-1.079333
H82	H	-0.191121	0.582636	-0.287296
C83	C	-0.322177	0.675019	-0.483422
C84	C	-0.381609	0.686234	-0.476845
C85	C	-0.418443	0.641144	-0.531974
C86	C	-0.395846	0.584840	-0.593678
C87	C	-0.336411	0.573623	-0.600257
C88	C	-0.299577	0.618712	-0.545129
H89	H	-0.398339	0.727916	-0.431166
H90	H	-0.462440	0.649448	-0.527103
H91	H	-0.423112	0.551462	-0.634487
H92	H	-0.319681	0.531941	-0.645936
H93	H	-0.255580	0.610408	-0.549999
H94	H	-0.702034	1.275682	-0.237052
H95	H	-0.312607	0.835454	-0.469084
C96	C	-0.557786	1.028748	-0.483513
C97	C	-0.595266	1.062755	-0.545185
C98	C	-0.625305	1.007524	-0.600377
C99	C	-0.617865	0.918285	-0.593896
C100	C	-0.580384	0.884274	-0.532221
C101	C	-0.550344	0.939505	-0.477029
H102	H	-0.600775	1.128818	-0.549985
H103	H	-0.653051	1.032702	-0.646033
H104	H	-0.640102	0.877400	-0.634752
H105	H	-0.574874	0.818210	-0.527421
H106	H	-0.522598	0.914327	-0.431373
H107	H	-0.801081	1.275740	-0.237072
H108	H	-0.953217	1.225586	-0.287242
H109	H	-0.312459	1.043188	-0.677755
C110	C	-0.181555	0.675047	-0.272966
C111	C	-0.140541	0.618737	-0.307100
C112	C	-0.103715	0.573655	-0.251984
C113	C	-0.107903	0.584883	-0.162734
C114	C	-0.148918	0.641195	-0.128596
C115	C	-0.185745	0.686277	-0.183711
H116	H	-0.137440	0.610424	-0.373172
H117	H	-0.073353	0.531969	-0.277257
H118	H	-0.080642	0.551511	-0.121935
H119	H	-0.152020	0.649509	-0.062523
H120	H	-0.216107	0.727963	-0.158439
H121	H	-0.191121	1.225524	-0.826557
C122	C	-0.322189	0.422169	-0.483456
C123	C	-0.318002	0.433487	-0.572703
C124	C	-0.354833	0.388388	-0.627829
C125	C	-0.395851	0.331971	-0.593708
C126	C	-0.400040	0.320650	-0.504456
C127	C	-0.363209	0.365749	-0.449330
H128	H	-0.287636	0.475253	-0.597966
H129	H	-0.351732	0.396769	-0.693899
H130	H	-0.423115	0.298587	-0.634515
H131	H	-0.430406	0.278885	-0.479193
H132	H	-0.366310	0.357368	-0.383260
H133	H	-1.052283	1.225636	-0.287266
C134	C	-0.321976	1.028888	-0.918874
C135	C	-0.317711	0.939656	-0.930122
C136	C	-0.354500	0.884395	-0.884999
C137	C	-0.395555	0.918368	-0.828629
C138	C	-0.399822	1.007604	-0.817379
C139	C	-0.363032	1.062865	-0.862502
H140	H	-0.287318	0.914503	-0.971853
H141	H	-0.351341	0.818336	-0.893327
H142	H	-0.422789	0.877461	-0.795227
H143	H	-0.430215	1.032757	-0.775649
H144	H	-0.366191	1.128924	-0.854174
C145	C	-0.181548	0.847209	-0.272948
C146	C	-0.122117	0.835992	-0.279521
C147	C	-0.085284	0.881093	-0.224401
C148	C	-0.107881	0.937409	-0.162708
C149	C	-0.167315	0.948628	-0.156132
C150	C	-0.204149	0.903528	-0.211253
H151	H	-0.105386	0.794301	-0.325192
H152	H	-0.041286	0.872787	-0.229269
H153	H	-0.080614	0.970795	-0.121905
H154	H	-0.184046	0.990319	-0.110461
H155	H	-0.248146	0.911833	-0.206385
C156	C	-1.060125	1.029014	-0.483585
C157	C	-1.030101	0.973750	-0.538745
C158	C	-1.060140	0.918508	-0.593927
C159	C	-1.120201	0.918530	-0.593949
C160	C	-1.150228	0.973796	-0.538787
C161	C	-1.120189	1.029038	-0.483605
H162	H	-0.985637	0.973732	-0.538730
H163	H	-1.037912	0.877597	-0.634762
H164	H	-1.142437	0.877637	-0.634799
H165	H	-1.194692	0.973814	-0.538802
H166	H	-1.142417	1.069950	-0.442770
H167	H	-0.312619	0.582607	-0.469112
C168	C	-0.443116	1.028688	-0.483487
C169	C	-0.405630	0.967065	-0.449411
C170	C	-0.375603	0.911807	-0.504579
C171	C	-0.383062	0.918172	-0.593824
C172	C	-0.420550	0.979797	-0.627905
C173	C	-0.450577	1.035055	-0.572737
H174	H	-0.400107	0.962352	-0.383343
H175	H	-0.347852	0.866189	-0.479350
H176	H	-0.360834	0.877267	-0.634663
H177	H	-0.426073	0.984511	-0.693973
H178	H	-0.478327	1.080674	-0.597966
C179	C	-0.181598	1.239856	-0.666127
C180	C	-0.140558	1.205880	-0.609778
C181	C	-0.103786	1.261137	-0.564717
C182	C	-0.108053	1.350371	-0.576006
C183	C	-0.149094	1.384352	-0.632358
C184	C	-0.185867	1.329094	-0.677418
H185	H	-0.137398	1.139820	-0.601419
H186	H	-0.073405	1.235982	-0.523002
H187	H	-0.080832	1.391276	-0.542650
H188	H	-0.152255	1.450412	-0.640717
H189	H	-0.216248	1.354249	-0.719134
C190	C	-0.945469	1.028956	-0.483573
C191	C	-0.953045	0.939728	-0.477079
C192	C	-0.923037	0.884449	-0.532248
C193	C	-0.885451	0.918398	-0.593911
C194	C	-0.877873	1.007630	-0.600408
C195	C	-0.907882	1.062909	-0.545239
H196	H	-0.980870	0.914593	-0.431430
H197	H	-0.928647	0.818394	-0.527438
H198	H	-0.863237	0.877477	-0.634751
H199	H	-0.850049	1.032765	-0.646057
H200	H	-0.902272	1.128965	-0.550049
H201	H	-0.450871	1.225303	-0.287158
C202	C	-0.181512	1.239922	-1.091126
C203	C	-0.144745	1.295179	-1.046063
C204	C	-0.107955	1.350449	-1.091174
C205	C	-0.107932	1.350461	-1.181347
C206	C	-0.144700	1.295201	-1.226416
C207	C	-0.181490	1.239932	-1.181305
H208	H	-0.144762	1.295172	-0.979307
H209	H	-0.080737	1.391355	-1.057811
H210	H	-0.080698	1.391375	-1.214741
H211	H	-0.144684	1.295208	-1.293172
H212	H	-0.208708	1.199025	-1.214668
H213	H	-0.549922	1.225375	-0.287182
H214	H	-0.801146	0.993016	-0.519390
H215	H	-0.312433	1.043221	-0.826487
C216	C	-0.181550	1.239896	-0.918974
C217	C	-0.122110	1.233560	-0.930265
C218	C	-0.085340	1.288816	-0.885200
C219	C	-0.108010	1.350409	-0.828843
C220	C	-0.167453	1.356748	-0.817549
C221	C	-0.204223	1.301491	-0.862615
H222	H	-0.105326	1.187963	-0.971986
H223	H	-0.041336	1.284123	-0.893560
H224	H	-0.080790	1.391313	-0.795483
H225	H	-0.184238	1.402344	-0.775828
H226	H	-0.248227	1.306184	-0.854254
H227	H	-0.702096	0.992977	-0.519379
