data_functionalizedCrystal
_audit_creation_method	'MofGen! by Chris Wilmer'
_symmetry_space_group_name_H-M	'P1'
_symmetry_Int_Tables_number	1
_symmetry_cell_setting	triclinic
loop_
_symmetry_equiv_pos_as_xyz
  x,y,z
_cell_length_a	12.759401
_cell_length_b	12.759399
_cell_length_c	12.759393
_cell_angle_alpha	89.972071
_cell_angle_beta	90.018496
_cell_angle_gamma	89.985473
loop_
_atom_site_label
_atom_site_type_symbol
_atom_site_fract_x
_atom_site_fract_y
_atom_site_fract_z
Zn1	Zn	1.606258	0.418196	0.594009
Zn2	Zn	1.606154	0.593915	0.418341
Zn3	Zn	1.430560	0.418252	0.418349
Zn4	Zn	1.430550	0.593834	0.593982
O5	O	1.518381	0.506049	0.506170
O6	O	1.753265	0.441516	0.570715
O7	O	1.582822	0.570670	0.271321
O8	O	1.453915	0.271223	0.441665
O9	O	1.753189	0.570616	0.441652
O10	O	1.582999	0.271182	0.570722
O11	O	1.453814	0.441611	0.271327
O12	O	1.283538	0.441532	0.441639
O13	O	1.453898	0.570479	0.741007
O14	O	1.283531	0.570532	0.570676
O15	O	1.582990	0.441438	0.741027
O16	O	1.582812	0.740925	0.441625
O17	O	1.453797	0.740866	0.570668
C18	C	1.245413	0.506030	0.506156
C19	C	1.128637	0.506048	0.506175
C20	C	0.964067	0.573336	0.573266
C21	C	1.073791	0.573324	0.573255
C22	C	1.073752	0.438786	0.439093
C23	C	0.964030	0.438804	0.439100
C24	C	1.518320	0.779017	0.506166
C25	C	1.518391	0.895793	0.506199
C26	C	1.585647	0.950651	0.439087
C27	C	1.585716	1.060375	0.439130
C28	C	1.451264	1.060374	0.573401
C29	C	1.451201	0.950652	0.573362
C30	C	1.792414	0.506069	0.506185
C31	C	1.909191	0.506077	0.506192
C32	C	1.518454	0.505943	0.780204
C33	C	1.518485	0.505898	0.896980
C34	C	1.518474	1.232016	0.506216
C35	C	1.518523	1.115239	0.506281
C36	C	1.518368	0.506079	0.233203
C37	C	1.518540	0.505829	0.116427
C38	C	1.451335	0.438684	0.951845
C39	C	1.451359	0.438652	1.061569
C40	C	1.585694	0.573049	1.061555
C41	C	1.585663	0.573086	0.951832
H42	H	0.919420	0.628115	0.627896
C43	C	1.133434	0.365914	0.366201
C44	C	1.196417	0.425313	0.298781
C45	C	1.251419	0.358216	0.231629
H46	H	1.085158	0.325835	0.326151
H47	H	1.176315	0.320195	0.406438
H48	H	1.153539	0.471013	0.258547
H49	H	1.244712	0.465390	0.338802
H50	H	1.294301	0.312497	0.271866
H51	H	1.203136	0.318140	0.191586
H52	H	1.294167	0.398508	0.185883
H53	H	1.396559	1.105053	0.628081
C54	C	1.658592	0.645873	1.121300
C55	C	1.644270	0.631436	1.229134
C56	C	1.711419	0.698493	1.284201
H57	H	1.643253	0.716511	1.103435
H58	H	1.729206	0.630500	1.103383
H59	H	1.573672	0.646817	1.247044
H60	H	1.659617	0.560812	1.247031
H61	H	1.782032	0.683120	1.266284
H62	H	1.696074	0.769127	1.266327
H63	H	1.701717	0.688700	1.357372
H64	H	1.396433	0.905983	0.628018
H65	H	1.396634	0.383975	0.907188
C66	C	1.658689	0.646105	0.892446
C67	C	1.717553	0.704913	0.963965
C68	C	1.784837	0.772178	0.909297
H69	H	1.618585	0.691984	0.849632
H70	H	1.704523	0.605957	0.849673
H71	H	1.671725	0.745058	1.006720
H72	H	1.757678	0.659062	1.006781
H73	H	1.830671	0.732030	0.866523
H74	H	1.744725	0.818049	0.866484
H75	H	1.824791	0.812080	0.957813
H76	H	0.919348	0.384032	0.384475
C77	C	1.658713	0.891279	0.366135
C78	C	1.717647	0.962812	0.307391
C79	C	1.784980	0.908160	0.240187
H80	H	1.618641	0.848545	0.320215
H81	H	1.704501	0.848426	0.406325
H82	H	1.671865	1.005646	0.267204
H83	H	1.757741	1.005547	0.353284
H84	H	1.830767	0.865307	0.280376
H85	H	1.744899	0.865428	0.194273
H86	H	1.824981	0.956686	0.200328
H87	H	1.118467	0.628094	0.627872
C88	C	1.658933	1.119952	0.366474
C89	C	1.726299	1.182767	0.426092
C90	C	1.793805	1.237636	0.359214
H91	H	1.618984	1.162941	0.320625
H92	H	1.698997	1.071564	0.326526
H93	H	1.686240	1.231149	0.466022
H94	H	1.766271	1.139804	0.471938
H95	H	1.833869	1.189248	0.319266
H96	H	1.753847	1.280619	0.313368
H97	H	1.839527	1.280255	0.399654
H98	H	1.396678	0.383921	1.106235
