data_functionalizedCrystal
_audit_creation_method	'MofGen! by Chris Wilmer'
_symmetry_space_group_name_H-M	'P1'
_symmetry_Int_Tables_number	1
_symmetry_cell_setting	triclinic
loop_
_symmetry_equiv_pos_as_xyz
  x,y,z
_cell_length_a	27.440280
_cell_length_b	14.560438
_cell_length_c	14.560438
_cell_angle_alpha	60.000905
_cell_angle_beta	90.004795
_cell_angle_gamma	59.998116
loop_
_atom_site_label
_atom_site_type_symbol
_atom_site_fract_x
_atom_site_fract_y
_atom_site_fract_z
Zr1	Zr	0.469501	1.005173	-0.120396
O2	O	0.391680	1.196793	-0.267060
O3	O	0.493357	0.813566	-0.075439
O4	O	0.493355	1.005170	-0.267039
O5	O	0.391684	1.005187	0.075682
O6	O	0.573557	1.005153	-0.267020
O7	O	0.391682	1.005190	-0.075459
O8	O	0.573562	0.662408	0.075718
O9	O	0.391680	1.347931	-0.267057
O10	O	0.563386	0.892359	-0.056248
O11	O	0.503533	0.892370	0.056533
O12	O	0.503530	1.117959	-0.169052
O13	O	0.443677	1.117970	-0.056272
Zr14	Zr	0.597418	1.005141	0.120686
Zr15	Zr	0.597415	1.005145	-0.120366
Zr16	Zr	0.469504	1.005169	0.120656
Zr17	Zr	0.469501	1.246221	-0.120392
Zr18	Zr	0.597418	0.764093	0.120681
O19	O	0.573562	1.196748	0.075728
O20	O	0.573558	1.196753	-0.267017
O21	O	0.391685	1.196788	0.075685
O22	O	0.675239	0.813520	0.267349
O23	O	0.675234	0.813526	-0.075396
O24	O	0.493362	0.813561	0.267306
O25	O	0.675235	1.005127	-0.075392
O26	O	0.573565	1.005144	0.267329
O27	O	0.493362	1.005161	0.267310
O28	O	0.675237	1.005124	0.075749
O29	O	0.493355	1.347909	-0.267033
O30	O	0.573564	0.662405	0.267323
O31	O	0.675239	0.662383	0.267347
O32	O	0.675236	0.662386	0.075742
O33	O	0.391683	1.347928	-0.075453
O34	O	0.493357	1.347906	-0.075429
O35	O	0.563389	0.892355	0.169342
O36	O	0.623242	0.892344	0.056561
O37	O	0.563386	1.117944	-0.056243
O38	O	0.503533	1.117955	0.056537
C39	C	0.533459	0.703643	0.000139
C40	C	0.533459	0.601312	0.000137
C41	C	0.564701	0.553230	-0.058733
C42	C	0.564703	0.457071	-0.058723
C43	C	0.502218	0.457088	0.059030
C44	C	0.502219	0.553239	0.059026
C45	C	0.373458	1.005192	0.000107
C46	C	0.319155	1.005204	0.000094
C47	C	0.013702	0.887375	0.059059
C48	C	-0.037317	0.887367	0.059069
O49	O	-0.037133	0.787216	0.109180
N50	N	-0.094077	1.005127	0.000185
C51	C	-0.099819	1.122902	-0.058704
O52	O	-0.152783	1.223065	-0.108787
C53	C	-0.048801	1.122907	-0.058706
C54	C	0.007959	1.005140	0.000172
C55	C	0.070459	0.769617	0.117933
C56	C	0.121474	0.769624	0.117921
C57	C	0.115731	0.887390	0.059035
C58	C	0.058974	1.005148	0.000160
C59	C	-0.054543	1.240681	-0.117588
C60	C	-0.003519	1.240676	-0.117585
C61	C	0.053241	1.122909	-0.058706
C62	C	0.104246	1.122921	-0.058738
N63	N	0.161007	1.005161	0.000145
C64	C	0.166749	0.887396	0.059032
C65	C	-0.206958	1.122880	-0.058692
C66	C	-0.257975	1.122876	-0.058696
C67	C	-0.195469	0.887341	0.059078
C68	C	-0.144451	0.887347	0.059075
C69	C	-0.150197	1.005121	0.000192
C70	C	0.273882	0.887421	0.059002
C71	C	0.324898	0.887439	0.058981
C72	C	0.262388	1.122973	-0.058788
C73	C	0.211376	1.122955	-0.058773
C74	C	0.217127	1.005169	0.000131
O75	O	0.104108	1.223021	-0.108821
O76	O	0.219715	0.787249	0.109119
C77	C	0.693461	1.005122	0.000183
C78	C	0.747764	1.005110	0.000195
C79	C	0.533455	1.005162	-0.301375
C80	C	0.533454	1.005164	-0.403708
C81	C	0.533460	1.306671	0.000150
C82	C	0.533460	1.409002	0.000152
C83	C	0.502211	1.122923	-0.510667
C84	C	0.502218	1.122917	-0.606815
C85	C	0.564712	0.887382	-0.489032
C86	C	0.564708	0.887390	-0.392886
C87	C	0.533464	1.005152	0.301664
C88	C	0.533465	1.005150	0.403997
C89	C	0.693460	0.703608	0.000177
C90	C	0.747763	0.601265	0.000188
C91	C	0.533463	0.703638	0.301659
C92	C	0.533465	0.601305	0.403990
C93	C	0.693464	0.703603	0.301696
C94	C	0.747769	0.601258	0.404040
C95	C	0.373455	1.306711	-0.301407
C96	C	0.319150	1.409056	-0.403751
C97	C	0.373459	1.306706	0.000113
C98	C	0.319156	1.409049	0.000102
C99	C	0.533456	1.306676	-0.301369
C100	C	0.533455	1.409009	-0.403700
C101	C	0.742020	0.553211	-0.058702
C102	C	0.793039	0.457062	-0.058714
C103	C	0.849799	0.408962	0.000171
C104	C	0.855541	0.457025	0.059062
C105	C	0.804523	0.553179	0.059067
C106	C	0.804518	0.553190	0.393232
C107	C	0.855548	0.457040	0.489385
C108	C	0.849826	0.408952	0.596347
C109	C	0.793070	0.457030	0.607153
C110	C	0.742042	0.553185	0.511000
C111	C	0.262401	1.457136	-0.392942
C112	C	0.211371	1.553316	-0.489096
C113	C	0.217093	1.601408	-0.596057
C114	C	0.273849	1.553324	-0.606863
C115	C	0.324877	1.457152	-0.510711
C116	C	0.324899	1.457113	0.058982
C117	C	0.273881	1.553288	0.058968
C118	C	0.217120	1.601392	0.000079
C119	C	0.211378	1.553324	-0.058808
C120	C	0.262396	1.457157	-0.058800
C121	C	0.564709	0.553219	0.510950
C122	C	0.564703	0.457076	0.607097
C123	C	0.502208	0.457109	0.489310
C124	C	0.502211	0.553257	0.393165
H125	H	0.476782	0.417936	0.106974
H126	H	0.695807	0.592374	-0.106667
C127	C	0.387301	1.404263	-0.522611
C128	C	0.393587	1.457169	-0.640271
C129	C	0.456011	1.404288	-0.652181
C130	C	0.512147	1.298501	-0.546432
C131	C	0.505863	1.245590	-0.428764
C132	C	0.443440	1.298470	-0.416854
H133	H	0.352030	1.535484	-0.718560
H134	H	0.460662	1.443457	-0.739287
H135	H	0.558357	1.259356	-0.555249
H136	H	0.547421	1.167275	-0.350475
H137	H	0.438788	1.259301	-0.329748
H138	H	0.788352	0.417941	-0.106671
H139	H	0.371112	1.417954	0.106943
H140	H	0.590158	0.791495	-0.480235
C141	C	-0.116975	1.370222	-0.182338
C142	C	-0.160628	1.402584	-0.119187
C143	C	-0.223062	1.532130	-0.183933
C144	C	-0.241843	1.629314	-0.311832
C145	C	-0.198189	1.596955	-0.374991
C146	C	-0.135755	1.467408	-0.310244
H147	H	-0.146726	1.330640	-0.024502
H148	H	-0.255378	1.556084	-0.137179
H149	H	-0.288061	1.725212	-0.359762
H150	H	-0.212091	1.668899	-0.469675
H151	H	-0.103439	1.443454	-0.356999
H152	H	0.371115	0.791534	0.106930
C153	C	0.183906	0.640074	0.182700
C154	C	0.227574	0.607661	0.119587
C155	C	0.290004	0.478102	0.184373
C156	C	0.308765	0.380956	0.312273
C157	C	0.265096	0.413367	0.375394
C158	C	0.202666	0.542925	0.310607
H159	H	0.213687	0.679577	0.024902
H160	H	0.322331	0.454111	0.137647
H161	H	0.354979	0.285049	0.360232
H162	H	0.278983	0.341451	0.470079
H163	H	0.170339	0.566917	0.357334
C164	C	0.917981	0.404091	0.123848
C165	C	0.974093	0.298310	0.123849
C166	C	1.036534	0.245362	0.188646
C167	C	1.042863	0.298195	0.253442
C168	C	0.986749	0.403983	0.253443
C169	C	0.924308	0.456931	0.188647
H170	H	0.969410	0.259194	0.075881
H171	H	1.078074	0.167051	0.188644
H172	H	1.089086	0.259000	0.301408
H173	H	0.991432	0.443098	0.301411
H174	H	0.882768	0.535242	0.188648
H175	H	0.590154	0.791490	-0.305789
H176	H	0.590139	0.592367	-0.106682
C177	C	0.917973	0.404161	0.477479
C178	C	0.936724	0.338058	0.415688
C179	C	0.999147	0.285183	0.403777
C180	C	1.042820	0.298413	0.453659
C181	C	1.024071	0.364520	0.515454
C182	C	0.961648	0.417394	0.527364
H183	H	0.904393	0.328262	0.378759
H184	H	1.013026	0.236247	0.358032
H185	H	1.089029	0.259272	0.444842
H186	H	1.056401	0.374316	0.552383
H187	H	0.947768	0.466331	0.573110
H188	H	0.476778	0.592386	0.106970
H189	H	0.278573	0.791508	0.106968
H190	H	0.891336	0.330667	0.000158
C191	C	0.679618	0.606039	0.522901
C192	C	0.673332	0.553125	0.640560
C193	C	0.610909	0.605972	0.652471
C194	C	0.554772	0.711732	0.546722
C195	C	0.561056	0.764651	0.429054
C196	C	0.623479	0.711805	0.417143
H197	H	0.714889	0.474830	0.718850
H198	H	0.606257	0.566797	0.739577
H199	H	0.508562	0.750852	0.555539
H200	H	0.519498	0.842947	0.350765
H201	H	0.628131	0.750980	0.330037
C202	C	0.256096	1.404255	-0.275292
C203	C	0.193666	1.457171	-0.263427
C204	C	0.187356	1.404305	-0.145781
C205	C	0.243476	1.298522	-0.040001
C206	C	0.305911	1.245600	-0.051862
C207	C	0.312221	1.298466	-0.169508
H208	H	0.152119	1.535484	-0.341735
H209	H	0.141137	1.443482	-0.137001
H210	H	0.238805	1.259387	0.047088
H211	H	0.347458	1.167287	0.026446
H212	H	0.358440	1.259289	-0.178288
H213	H	0.590143	0.417923	-0.106659
H214	H	0.809208	0.592292	0.107029
H215	H	0.075146	0.673713	0.165892
C216	C	-0.082017	0.757803	0.123850
C217	C	-0.063257	0.660648	0.093110
C218	C	-0.000824	0.531098	0.157891
C219	C	0.042848	0.498701	0.253411
C220	C	0.024089	0.595858	0.284156
C221	C	-0.038344	0.725409	0.219376
H222	H	-0.095587	0.684627	0.022396
H223	H	0.013062	0.459176	0.135131
H224	H	0.089065	0.402800	0.301366
H225	H	0.056419	0.571879	0.354870
H226	H	-0.052230	0.797331	0.242135
H227	H	0.809188	0.592328	0.306147
H228	H	-0.190801	0.791450	0.107023
C229	C	0.148945	1.606182	-0.477191
C230	C	0.130196	1.672242	-0.415362
C231	C	0.067773	1.725103	-0.403453
C232	C	0.024098	1.711904	-0.453373
C233	C	0.042846	1.645841	-0.515206
C234	C	0.105270	1.592980	-0.527114
H235	H	0.162528	1.682016	-0.378405
H236	H	0.053894	1.774007	-0.357681
H237	H	-0.022111	1.751034	-0.444557
H238	H	0.010515	1.636067	-0.552163
H239	H	0.119148	1.544076	-0.572887
C240	C	0.148937	1.606235	-0.123567
C241	C	0.105262	1.751670	-0.219075
C242	C	0.042819	1.804576	-0.283824
C243	C	0.024052	1.712047	-0.253064
C244	C	0.067729	1.566603	-0.157552
C245	C	0.130171	1.513697	-0.092803
H246	H	0.119153	1.820174	-0.241849
H247	H	0.010487	1.912244	-0.354528
H248	H	-0.022171	1.751211	-0.300995
H249	H	0.053838	1.498100	-0.134777
H250	H	0.162504	1.406030	-0.022099
H251	H	-0.304188	1.218774	-0.106656
H252	H	-0.211644	1.218792	-0.106647
H253	H	-0.008205	1.336584	-0.165521
H254	H	0.165158	1.218851	-0.106731
H255	H	0.257722	1.218854	-0.106736
H256	H	0.590144	0.417930	0.694186
H257	H	0.476761	1.218822	-0.519484
H258	H	0.476777	1.218808	-0.693903
H259	H	0.891382	0.330657	0.674631
H260	H	0.476764	0.417975	0.480510
H261	H	0.175583	1.679697	0.000082
H262	H	0.788421	0.417863	0.694254
H263	H	0.175538	1.679717	-0.674341
H264	H	0.278500	1.592493	-0.693962
H265	H	0.278567	1.592408	0.106925
H266	H	0.257711	1.418026	-0.106744
H267	H	0.590155	0.592342	0.519770
H268	H	0.476765	0.592413	0.306067
