data_functionalizedCrystal
_audit_creation_method	'MofGen! by Chris Wilmer'
_symmetry_space_group_name_H-M	'P1'
_symmetry_Int_Tables_number	1
_symmetry_cell_setting	triclinic
loop_
_symmetry_equiv_pos_as_xyz
  x,y,z
_cell_length_a	10.685976
_cell_length_b	14.909042
_cell_length_c	10.686551
_cell_angle_alpha	97.938673
_cell_angle_beta	90.348485
_cell_angle_gamma	82.626747
loop_
_atom_site_label
_atom_site_type_symbol
_atom_site_fract_x
_atom_site_fract_y
_atom_site_fract_z
Zn1	Zn	2.004781	-0.440102	0.523875
Zn2	Zn	2.504781	0.059898	1.023875
Zn3	Zn	2.000613	-0.603040	0.300049
Zn4	Zn	2.500613	-0.103040	0.800049
Zn5	Zn	1.778783	-0.438393	0.330398
Zn6	Zn	2.278783	0.061607	0.830398
Zn7	Zn	1.805329	-0.579779	0.527885
Zn8	Zn	2.305329	-0.079779	1.027885
O9	O	1.897377	-0.515329	0.420552
O10	O	2.397377	-0.015329	0.920552
O11	O	2.180536	-0.472166	0.479805
O12	O	2.680536	0.027834	0.979805
O13	O	1.958332	-0.590219	0.127754
O14	O	2.458332	-0.090219	0.627754
O15	O	1.799396	-0.311260	0.367086
O16	O	2.299396	0.188740	0.867086
O17	O	2.177474	-0.591876	0.315361
O18	O	2.677474	-0.091876	0.815361
O19	O	1.965436	-0.312515	0.509233
O20	O	2.465436	0.187485	1.009233
O21	O	1.795354	-0.469253	0.150051
O22	O	2.295354	0.030747	0.650051
O23	O	1.605996	-0.446698	0.370974
O24	O	2.105996	0.053302	0.870974
O25	O	1.844642	-0.552231	0.703674
O26	O	2.344642	-0.052231	1.203674
O27	O	1.625500	-0.550574	0.516067
O28	O	2.125500	-0.050574	1.016067
O29	O	1.991178	-0.449611	0.700728
O30	O	2.491178	0.050389	1.200728
O31	O	1.984074	-0.727315	0.319250
O32	O	2.484074	-0.227315	0.819250
O33	O	1.840600	-0.710225	0.486640
O34	O	2.340600	-0.210225	0.986640
C35	C	1.570033	-0.495927	0.447250
C36	C	2.070033	0.004073	0.947250
C37	C	1.429998	-0.487648	0.458699
C38	C	1.929998	0.012352	0.958699
C39	C	1.914801	-0.751794	0.400111
C40	C	2.414801	-0.251794	0.900111
C41	C	1.922374	-0.852959	0.391400
C42	C	2.422374	-0.352959	0.891400
C43	C	1.787040	-1.025327	0.549205
C44	C	2.287040	-0.525327	1.049205
C45	C	1.794151	-1.120380	0.541025
C46	C	2.294151	-0.620380	1.041025
C47	C	1.943702	-1.138121	0.366852
C48	C	2.443702	-0.638121	0.866852
C49	C	1.936590	-1.043068	0.375033
C50	C	2.436590	-0.543068	0.875033
C51	C	1.858258	-0.986673	0.466214
C52	C	2.358258	-0.486673	0.966214
C53	C	1.851154	-0.891618	0.474400
C54	C	2.351154	-0.391618	0.974400
C55	C	2.000696	-0.909361	0.300222
C56	C	2.500696	-0.409361	0.800222
C57	C	2.007808	-1.004414	0.292041
C58	C	2.507808	-0.504414	0.792041
C59	C	2.225998	-0.534807	0.393750
C60	C	2.725998	-0.034807	0.893750
C61	C	2.366037	-0.543107	0.382329
C62	C	2.866037	-0.043107	0.882329
C63	C	1.921336	-0.498517	0.749198
C64	C	2.421336	0.001483	1.249198
C65	C	1.931546	-0.491353	0.889247
C66	C	2.431546	0.008647	1.389247
C67	C	1.879920	-0.277941	0.441097
C68	C	2.379920	0.222059	0.941097
C69	C	1.872481	-0.176780	0.449852
C70	C	2.372481	0.323220	0.949852
C71	C	1.873578	-0.532013	0.093185
C72	C	2.373578	-0.032013	0.593185
C73	C	1.863593	-0.538935	-0.046862
C74	C	2.363593	-0.038935	0.453138
H75	H	1.787375	-0.845703	0.548647
H76	H	2.287375	-0.345703	1.048647
F77	F	2.017813	-0.430944	0.957793
F78	F	2.517813	0.069056	1.457793
F79	F	2.076502	-0.868217	0.211896
F80	F	2.576502	-0.368217	0.711896
H81	H	1.736161	-1.151847	0.608608
H82	H	2.236161	-0.651847	1.108608
H83	H	2.007463	-1.184053	0.292606
H84	H	2.507463	-0.684053	0.792606
F85	F	2.091171	-1.064442	0.195007
F86	F	2.591171	-0.564442	0.695007
H87	H	1.418415	-0.596932	0.308184
H88	H	1.918415	-0.096932	0.808184
F89	F	1.361549	-0.417307	0.555623
F90	F	1.861549	0.082693	1.055623
F91	F	1.703686	-0.965306	0.646255
F92	F	2.203686	-0.465306	1.146255
H93	H	1.797609	-0.585156	0.900696
H94	H	2.297609	-0.085156	1.400696
