data_functionalizedCrystal
_audit_creation_method	'MofGen! by Chris Wilmer'
_symmetry_space_group_name_H-M	'P1'
_symmetry_Int_Tables_number	1
_symmetry_cell_setting	triclinic
loop_
_symmetry_equiv_pos_as_xyz
  x,y,z
_cell_length_a	14.971486
_cell_length_b	14.971493
_cell_length_c	14.048226
_cell_angle_alpha	90.010449
_cell_angle_beta	89.993876
_cell_angle_gamma	83.615656
loop_
_atom_site_label
_atom_site_type_symbol
_atom_site_fract_x
_atom_site_fract_y
_atom_site_fract_z
O1	O	-1.186939	-0.116572	-0.079049
O2	O	-0.686939	0.383428	0.420951
O3	O	-0.926540	-0.130531	-0.079075
O4	O	-0.426540	0.369469	0.420925
O5	O	-1.063715	0.006648	-0.079057
O6	O	-0.563715	0.506648	0.420943
O7	O	-1.049764	-0.253751	-0.079067
O8	O	-0.549764	0.246249	0.420933
O9	O	-1.063720	0.006672	0.079264
O10	O	-0.563720	0.506672	0.579264
O11	O	-0.926545	-0.130507	0.079246
O12	O	-0.426545	0.369493	0.579246
O13	O	-1.186944	-0.116548	0.079272
O14	O	-0.686944	0.383452	0.579272
Zn15	Zn	-1.056745	-0.123524	0.104396
Zn16	Zn	-0.556745	0.376476	0.604396
Zn17	Zn	-1.056739	-0.123555	-0.104199
Zn18	Zn	-0.556739	0.376445	0.395801
O19	O	-1.049769	-0.253727	0.079255
O20	O	-0.549769	0.246273	0.579255
C21	C	-0.893217	-0.129895	0.000083
C22	C	-0.393217	0.370105	0.500083
C23	C	-0.793920	-0.128024	0.000073
C24	C	-0.293920	0.371976	0.500073
C25	C	-1.063093	0.039985	0.000102
C26	C	-0.563093	0.539985	0.500102
C27	C	-1.061219	0.139281	0.000099
C28	C	-0.561219	0.639281	0.500099
C29	C	-1.220267	-0.117184	0.000113
C30	C	-0.720267	0.382816	0.500113
C31	C	-1.319564	-0.119055	0.000116
C32	C	-0.819564	0.380945	0.500116
C33	C	-0.736697	-0.208613	0.000071
C34	C	-0.236697	0.291387	0.500071
C35	C	-0.643398	-0.206850	0.000085
C36	C	-0.143398	0.293150	0.500085
C37	C	-0.607323	-0.124497	0.000094
C38	C	-0.107323	0.375503	0.500094
C39	C	-0.664554	-0.043902	0.000099
C40	C	-0.164554	0.456098	0.500099
C41	C	-0.757851	-0.045666	0.000091
C42	C	-0.257851	0.454334	0.500091
C43	C	-0.470091	-0.040231	0.000112
C44	C	0.029909	0.459769	0.500112
C45	C	-0.376787	-0.038466	0.000118
C46	C	0.123213	0.461534	0.500118
C47	C	-0.355637	-0.201415	0.000106
C48	C	0.144363	0.298585	0.500106
C49	C	-0.448935	-0.203179	0.000099
C50	C	0.051065	0.296821	0.500099
C51	C	-0.506159	-0.122583	0.000101
C52	C	-0.006159	0.377417	0.500101
C53	C	-1.060339	0.185913	-0.086202
C54	C	-0.560339	0.685913	0.413798
C55	C	-1.058573	0.279213	-0.086202
C56	C	-0.558573	0.779213	0.413798
C57	C	-1.057694	0.325879	0.000100
C58	C	-0.557694	0.825879	0.500100
C59	C	-1.058572	0.279240	0.086408
C60	C	-0.558572	0.779240	0.586408
C61	C	-1.060332	0.185942	0.086407
C62	C	-0.560332	0.685942	0.586407
C63	C	-1.054907	0.473703	0.086405
C64	C	-0.554907	0.973703	0.586405
C65	C	-1.053149	0.567008	0.086406
C66	C	-0.553149	1.067008	0.586406
C67	C	-1.053148	0.566974	-0.086205
C68	C	-0.553148	1.066974	0.413795
C69	C	-1.054907	0.473676	-0.086206
C70	C	-0.554907	0.973676	0.413794
C71	C	-1.055787	0.427044	0.000102
C72	C	-0.555787	0.927044	0.500102
C73	C	-1.050392	0.712936	0.000097
C74	C	-0.550392	1.212936	0.500097
C75	C	-1.052268	0.613640	0.000104
C76	C	-0.552268	1.113640	0.500104
N77	N	-1.056735	-0.123569	-0.246560
N78	N	-0.556735	0.376431	0.253440
C79	C	-1.002547	-0.069111	-0.296374
C80	C	-0.502547	0.430889	0.203626
C81	C	-1.002555	-0.069093	-0.396031
C82	C	-0.502555	0.430907	0.103969
C83	C	-1.056746	-0.123539	-0.445873
C84	C	-0.556746	0.376461	0.054127
C85	C	-1.110939	-0.178000	-0.396052
C86	C	-0.610939	0.322000	0.103948
C87	C	-1.110936	-0.178012	-0.296396
C88	C	-0.610936	0.321988	0.203604
C89	C	-1.110941	-0.177972	-0.603766
C90	C	-0.610941	0.322028	-0.103766
C91	C	-1.110944	-0.177961	-0.703429
C92	C	-0.610944	0.322039	-0.203429
C93	C	-1.002560	-0.069053	-0.703401
C94	C	-0.502560	0.430947	-0.203401
C95	C	-1.002557	-0.069065	-0.603745
C96	C	-0.502557	0.430935	-0.103745
C97	C	-1.056749	-0.123527	-0.553931
C98	C	-0.556749	0.376473	-0.053931
N99	N	-1.056756	-0.123503	0.246757
N100	N	-0.556756	0.376497	0.746757
H101	H	-0.766061	-0.275674	0.000063
H102	H	-0.266061	0.224326	0.500063
F103	F	-0.944865	-0.011165	-0.243337
F104	F	-0.444865	0.488835	0.256663
F105	F	-0.944883	-0.011090	-0.756418
F106	F	-0.444883	0.488910	-0.256418
H107	H	-0.596810	-0.272474	0.000083
H108	H	-0.096810	0.227526	0.500083
H109	H	-1.155067	-0.222327	-0.436641
H110	H	-0.655067	0.277673	0.063359
F111	F	-0.530991	0.045549	0.000118
F112	F	-0.030991	0.545549	0.500118
H113	H	-0.478303	-0.270238	0.000082
H114	H	0.021697	0.229762	0.500082
H115	H	-0.309041	-0.267039	0.000108
H116	H	0.190959	0.232961	0.500108
H117	H	-1.057859	0.317177	-0.156477
H118	H	-0.557859	0.817177	0.343523
H119	H	-1.155068	-0.222299	-0.744008
H120	H	-0.655068	0.277701	-0.244008
H121	H	-1.052430	0.604946	-0.156481
H122	H	-0.552430	1.104946	0.343519
H123	H	-1.057851	0.317242	0.156677
H124	H	-0.557851	0.817242	0.656677
H125	H	-1.055603	0.435735	0.156686
H126	H	-0.555603	0.935735	0.656686
H127	H	-1.061036	0.147973	0.156683
H128	H	-0.561036	0.647973	0.656683
H129	H	-1.155073	-0.222319	-0.563211
H130	H	-0.655073	0.277681	-0.063211
F131	F	-1.168613	-0.235971	-0.243381
F132	F	-0.668613	0.264029	0.256619
F133	F	-1.052215	0.616672	0.178259
F134	F	-0.552215	1.116672	0.678259
H135	H	-0.347418	0.028593	0.000126
H136	H	0.152582	0.528593	0.500126
F137	F	-0.818753	0.040108	0.000097
F138	F	-0.318753	0.540108	0.500097
H139	H	-1.055630	0.435684	-0.156481
H140	H	-0.555630	0.935684	0.343519
H141	H	-0.958433	-0.024745	-0.436585
H142	H	-0.458433	0.475255	0.063415
H143	H	-0.635174	0.023152	0.000120
H144	H	-0.135174	0.523152	0.500120
H145	H	-0.958425	-0.024735	-0.563167
H146	H	-0.458425	0.475265	-0.063167
H147	H	-1.061059	0.147925	-0.156480
H148	H	-0.561059	0.647925	0.343520
