data_functionalizedCrystal
_audit_creation_method	'MofGen! by Chris Wilmer'
_symmetry_space_group_name_H-M	'P1'
_symmetry_Int_Tables_number	1
_symmetry_cell_setting	triclinic
loop_
_symmetry_equiv_pos_as_xyz
  x,y,z
_cell_length_a	6.817900
_cell_length_b	11.168130
_cell_length_c	11.102193
_cell_angle_alpha	91.985646
_cell_angle_beta	108.604059
_cell_angle_gamma	108.508653
loop_
_atom_site_label
_atom_site_type_symbol
_atom_site_fract_x
_atom_site_fract_y
_atom_site_fract_z
V1	V	-4.111009	-0.174714	-0.396268
O2	O	-4.070572	0.008386	-0.388714
O3	O	-4.087290	-0.346419	-0.393567
O4	O	-4.087791	-0.172030	-0.569089
O5	O	-4.070067	-0.167209	-0.211977
V6	V	-4.588176	-0.152812	-0.374224
O7	O	-4.386210	-0.222756	-0.444622
O8	O	-4.763172	-0.104770	-0.325869
O9	O	-4.388689	0.018893	-0.376924
O10	O	-4.746010	-0.335912	-0.381777
O11	O	-4.746515	-0.160317	-0.558514
O12	O	-4.388188	-0.155496	-0.201402
C13	C	-3.937480	-0.388277	-0.387319
C14	C	-3.999541	-0.528648	-0.386263
C15	C	-4.084337	-0.608368	-0.496399
C16	C	-4.148482	-0.753450	-0.495311
C17	C	-3.938118	-0.165825	-0.611212
C18	C	-4.000581	-0.164767	-0.752495
C19	C	-4.120241	-0.396044	-0.788835
C20	C	-4.209408	-0.511180	-0.873378
C21	C	-4.268097	-0.510179	-1.006124
C22	C	-4.237620	-0.394029	-1.054328
C23	C	-4.148454	-0.278893	-0.969785
C24	C	-4.089764	-0.279907	-0.837038
C25	C	-4.028810	-0.047620	-0.933446
C26	C	-3.970105	-0.048618	-0.800699
C27	C	-3.998333	0.068529	-0.981650
C28	C	-3.909151	0.183668	-0.897107
C29	C	-3.850459	0.182663	-0.764354
C30	C	-3.880939	0.066518	-0.716157
C31	C	-4.201842	0.060744	-0.383169
C32	C	-4.119020	0.201114	-0.384233
C33	C	-4.201202	-0.161705	-0.159272
C34	C	-4.117976	-0.162756	-0.017989
H35	H	-4.221192	-0.821942	-0.589601
O36	O	-4.238770	-0.623887	-0.826333
C37	C	-4.167901	-0.600092	-0.691042
H38	H	-4.044569	-0.498655	-0.655049
H39	H	-4.085800	-0.670963	-0.648750
H40	H	-4.316023	-0.611418	-0.659928
H41	H	-4.109435	-0.569212	-0.591497
O42	O	-4.054996	0.069681	-1.110563
C43	C	-3.866958	0.139426	-1.138800
H44	H	-3.739921	0.208364	-1.049640
H45	H	-3.916132	0.195604	-1.220053
H46	H	-3.792772	0.070709	-1.169540
H47	H	-3.777865	0.276420	-0.695525
H48	H	-4.072428	-0.396869	-0.680747
O49	O	-4.032541	-0.717075	-0.271827
C50	C	-4.170111	-0.645846	-0.271549
H51	H	-4.271922	-0.643916	-0.374787
H52	H	-4.064385	-0.544049	-0.221754
H53	H	-4.285263	-0.691973	-0.217883
O54	O	-3.969343	-0.575132	-0.272689
C55	C	-3.878101	-0.472841	-0.170497
H56	H	-3.790171	-0.381814	-0.202997
H57	H	-3.754981	-0.495021	-0.085477
H58	H	-4.015365	-0.458973	-0.140380
H59	H	-3.884360	0.278227	-0.936367
O60	O	-4.354604	-0.622131	-1.088073
C61	C	-4.368987	-0.724865	-1.017073
H62	H	-4.245709	-0.689499	-0.914871
H63	H	-4.329794	-0.802089	-1.064695
H64	H	-4.543082	-0.766081	-1.014239
O65	O	-4.294676	-0.393281	-1.183310
C66	C	-4.379981	-0.519810	-1.247594
H67	H	-4.316129	-0.583682	-1.179141
H68	H	-4.324897	-0.522803	-1.334066
H69	H	-4.567894	-0.555259	-1.281559
H70	H	-3.833142	0.065688	-0.608070
