data_functionalizedCrystal
_audit_creation_method	'MofGen! by Chris Wilmer'
_symmetry_space_group_name_H-M	'P1'
_symmetry_Int_Tables_number	1
_symmetry_cell_setting	triclinic
loop_
_symmetry_equiv_pos_as_xyz
  x,y,z
_cell_length_a	13.635800
_cell_length_b	23.752959
_cell_length_c	11.102315
_cell_angle_alpha	84.892683
_cell_angle_beta	108.606275
_cell_angle_gamma	79.933576
loop_
_atom_site_label
_atom_site_type_symbol
_atom_site_fract_x
_atom_site_fract_y
_atom_site_fract_z
V1	V	2.034379	-0.079163	0.396976
O2	O	2.036313	0.003801	0.388680
O3	O	2.001746	-0.156964	0.394971
O4	O	2.023101	-0.077947	0.569787
O5	O	2.014810	-0.075763	0.212655
V6	V	2.275612	-0.069240	0.374843
O7	O	2.166169	-0.100932	0.445525
O8	O	2.368921	-0.047471	0.326294
O9	O	2.196642	0.008562	0.376848
O10	O	2.332377	-0.152204	0.383139
O11	O	2.353880	-0.072639	0.559164
O12	O	2.175287	-0.070456	0.202033
V13	V	2.534379	-0.079163	0.396976
O14	O	2.536313	0.003801	0.388680
O15	O	2.501746	-0.156964	0.394971
O16	O	2.523101	-0.077947	0.569787
O17	O	2.514810	-0.075763	0.212655
V18	V	2.775612	-0.069240	0.374843
O19	O	2.666169	-0.100932	0.445525
O20	O	2.868921	-0.047471	0.326294
O21	O	2.696642	0.008562	0.376848
O22	O	2.832377	-0.152204	0.383139
O23	O	2.853880	-0.072639	0.559164
O24	O	2.675287	-0.070456	0.202033
C25	C	1.921776	-0.175931	0.388892
C26	C	1.935824	-0.239534	0.388405
C27	C	1.905402	-0.511543	0.380010
C28	C	1.892186	-0.451779	0.380458
O29	O	1.807786	-0.418395	0.375317
N30	N	1.976795	-0.424803	0.387043
C31	C	2.074630	-0.457593	0.393193
O32	O	2.145383	-0.429160	0.398836
C33	C	2.087846	-0.517356	0.392755
C34	C	2.003227	-0.544329	0.386157
C35	C	1.820791	-0.538516	0.373414
C36	C	1.834005	-0.598275	0.372964
C37	C	1.931831	-0.631061	0.379111
C38	C	2.016442	-0.604088	0.385707
C39	C	2.185682	-0.550146	0.398915
C40	C	2.198892	-0.609913	0.398477
C41	C	2.114273	-0.636886	0.391878
C42	C	2.127482	-0.696633	0.391403
N43	N	2.042873	-0.723610	0.384819
C44	C	1.945048	-0.690824	0.378672
C45	C	2.046867	-0.332087	0.394116
C46	C	2.033650	-0.272325	0.394545
C47	C	1.851207	-0.266515	0.381812
C48	C	1.864424	-0.326278	0.381373
C49	C	1.962258	-0.359064	0.387531
C50	C	1.972806	-0.816322	0.377727
C51	C	1.986029	-0.876086	0.377272
C52	C	2.168471	-0.881891	0.390012
C53	C	2.155249	-0.822132	0.390460
C54	C	2.057409	-0.789349	0.384321
O55	O	2.211852	-0.730054	0.396546
O56	O	1.874313	-0.719266	0.373047
C57	C	1.949016	-0.075135	0.611885
C58	C	1.980380	-0.074655	0.753163
C59	C	2.108282	0.027525	0.382923
C60	C	2.083854	0.091128	0.383419
C61	C	2.081042	-0.073269	0.159928
C62	C	2.039298	-0.073746	0.018648
C63	C	2.421776	-0.175931	0.388892
C64	C	2.435824	-0.239534	0.388405
C65	C	2.449016	-0.075135	0.611885
C66	C	2.480380	-0.074655	0.753163
C67	C	2.162863	-0.080373	0.766185
C68	C	2.268835	-0.083008	0.839067
C69	C	2.298298	-0.082557	0.971810
C70	C	2.221779	-0.079468	1.031671
C71	C	2.115807	-0.076833	0.958788
C72	C	2.086353	-0.077287	0.826044
C73	C	1.933325	-0.071111	0.945766
C74	C	1.903861	-0.071567	0.813025
C75	C	1.856807	-0.068022	1.005627
C76	C	1.750833	-0.065391	0.932746
C77	C	1.721373	-0.065844	0.799996
C78	C	1.797889	-0.068931	0.740142
C79	C	2.608282	0.027525	0.382923
C80	C	2.583854	0.091128	0.383419
C81	C	2.581042	-0.073269	0.159928
C82	C	2.539298	-0.073746	0.018648
C83	C	2.533650	-0.272320	0.394553
C84	C	2.546868	-0.332084	0.394115
C85	C	2.462256	-0.359060	0.387520
C86	C	2.364423	-0.326270	0.381376
C87	C	2.351209	-0.266508	0.381823
C88	C	2.658522	0.123914	0.377274
C89	C	2.635577	0.183677	0.377719
C90	C	2.537965	0.210653	0.384317
C91	C	2.463291	0.177863	0.390457
C92	C	2.486234	0.118101	0.390004
C93	C	2.512230	-0.179449	0.790441
C94	C	2.542886	-0.231618	0.875450
C95	C	2.572356	-0.231164	1.008192
C96	C	2.571172	-0.178535	1.055926
C97	C	2.540516	-0.126366	0.970916
C98	C	2.511044	-0.126826	0.838173
C99	C	2.508674	-0.021574	0.933640
C100	C	2.479196	-0.022027	0.800897
C101	C	2.507489	0.031054	0.981374
C102	C	2.476826	0.083224	0.896364
C103	C	2.447353	0.082768	0.763614
C104	C	2.448540	0.030142	0.715888
H105	H	1.893139	-0.789637	0.372733
H106	H	2.626534	-0.358774	0.399115
C107	C	2.085998	-0.128883	0.590072
C108	C	2.130479	-0.080877	0.620275
H109	H	2.066013	-0.129196	0.499993
H110	H	2.025269	-0.126660	0.615287
H111	H	2.136554	-0.163352	0.634437
H112	H	2.079920	-0.046408	0.575917
H113	H	2.191216	-0.083096	0.595045
H114	H	2.295537	-0.348243	0.376006
C115	C	2.631675	-0.276990	1.228232
C116	C	2.606058	-0.288507	1.101644
H117	H	2.652487	-0.312392	1.285923
H118	H	2.571596	-0.253560	1.238161
H119	H	2.688328	-0.257214	1.246467
H120	H	2.549399	-0.308279	1.083405
H121	H	2.666144	-0.311946	1.091709
C122	C	2.452289	-0.134782	1.146230
C123	C	2.414782	-0.085455	1.051942
H124	H	2.524199	-0.136568	1.195705
H125	H	2.447195	-0.168351	1.106085
H126	H	2.410919	-0.132872	1.200857
H127	H	2.456147	-0.087367	0.997308
H128	H	2.419884	-0.051877	1.092088
H129	H	2.254592	-0.528196	0.404292
H130	H	2.696393	0.210367	0.372720
H131	H	2.278562	-0.636605	0.403494
H132	H	2.488220	-0.179823	0.682356
H133	H	2.271545	-0.239817	0.376810
C134	C	2.098352	-0.200795	0.292595
C135	C	2.126663	-0.242680	0.401779
H136	H	2.155782	-0.182499	0.297065
H137	H	2.038215	-0.172715	0.289012
H138	H	2.081876	-0.218769	0.217660
H139	H	2.143131	-0.224705	0.476714
H140	H	2.186819	-0.270765	0.405374
C141	C	2.577547	0.141826	1.030148
C142	C	2.475530	0.141067	0.948841
H143	H	2.576743	0.177535	1.062554
H144	H	2.625060	0.137647	0.983282
H145	H	2.600016	0.110817	1.099762
H146	H	2.453064	0.172074	0.879222
H147	H	2.428001	0.145252	0.995708
H148	H	2.331131	-0.085521	0.790313
H149	H	2.424538	0.029766	0.607804
C150	C	2.455003	0.062941	1.155247
C151	C	2.539887	0.031559	1.127284
H152	H	2.475008	0.063257	1.245326
H153	H	2.395862	0.045314	1.127958
H154	H	2.436584	0.101540	1.111436
H155	H	2.558301	-0.007041	1.171088
H156	H	2.599047	0.049185	1.154588
H157	H	1.688540	-0.062873	0.981494
C158	C	1.673786	-0.460246	0.256675
C159	C	1.713247	-0.502482	0.366645
H160	H	1.607390	-0.438001	0.252493
H161	H	1.664918	-0.478462	0.182284
H162	H	1.722282	-0.435623	0.260680
H163	H	1.664754	-0.527107	0.362635
H164	H	1.722109	-0.484265	0.441054
H165	H	2.126536	-0.358778	0.399120
H166	H	1.917117	-0.898044	0.371900
H167	H	2.519297	0.259315	0.384684
C168	C	2.351656	0.266896	0.396843
C169	C	2.356005	0.207520	0.397729
H170	H	2.285426	0.285203	0.401348
H171	H	2.359217	0.283107	0.319795
H172	H	2.407367	0.272645	0.468802
H173	H	2.300298	0.201771	0.325764
H174	H	2.348432	0.191303	0.474786
H175	H	2.425429	0.091410	0.395018
C176	C	2.511836	-0.278851	0.688514
C177	C	2.544182	-0.289465	0.822978
H178	H	2.512633	-0.314564	0.656127
H179	H	2.558832	-0.259232	0.663266
H180	H	2.442097	-0.255564	0.654960
H181	H	2.613924	-0.312748	0.856533
H182	H	2.497184	-0.309092	0.848238
H183	H	2.224145	-0.800168	0.395804
H184	H	2.595182	-0.178171	1.164014
C185	C	2.594430	-0.183296	0.400901
C186	C	2.626668	-0.242677	0.401809
H187	H	2.651860	-0.165000	0.405378
H188	H	2.572618	-0.177533	0.472853
H189	H	2.536956	-0.167083	0.323844
H190	H	2.684137	-0.258890	0.478871
H191	H	2.648494	-0.248444	0.329851
H192	H	2.473030	-0.407723	0.387157
C193	C	2.497185	0.169253	0.697112
C194	C	2.413658	0.140116	0.670179
H195	H	2.476379	0.204659	0.639437
H196	H	2.557248	0.145819	0.687158
H197	H	2.514561	0.177048	0.783006
H198	H	2.396286	0.132317	0.584288
H199	H	2.353577	0.163555	0.680123
C200	C	1.656264	-0.604004	0.252163
C201	C	1.740989	-0.627916	0.365732
H202	H	1.598835	-0.622299	0.247709
H203	H	1.678069	-0.609779	0.180211
H204	H	1.634419	-0.563718	0.251559
H205	H	1.762839	-0.668202	0.366331
H206	H	1.719181	-0.622146	0.437702
C207	C	1.799724	-0.397809	0.483318
C208	C	1.771412	-0.355925	0.374130
H209	H	1.742301	-0.416111	0.478840
H210	H	1.816189	-0.379836	0.558242
H211	H	1.859875	-0.425890	0.486906
H212	H	1.711265	-0.327842	0.370547
H213	H	1.754933	-0.373899	0.299186
C214	C	2.748803	0.067790	0.259533
C215	C	2.765819	0.094269	0.370013
H216	H	2.815046	0.049490	0.255052
H217	H	2.712211	0.096210	0.185488
H218	H	2.707627	0.039706	0.263148
H219	H	2.806989	0.122356	0.366394
H220	H	2.802429	0.065847	0.444077
C221	C	2.262885	-0.944785	0.287093
C222	C	2.276001	-0.917941	0.396780
H223	H	2.329272	-0.967045	0.291286
H224	H	2.236128	-0.916128	0.212509
H225	H	2.214371	-0.969395	0.283109
H226	H	2.324509	-0.893327	0.400758
H227	H	2.302773	-0.946601	0.471384
H228	H	1.771551	-0.239810	0.376812
C229	C	2.199290	-0.027844	1.200700
C230	C	2.254164	-0.078965	1.177581
H231	H	2.219289	-0.027532	1.290779
H232	H	2.125238	-0.025841	1.165872
H233	H	2.216143	0.004512	1.161142
H234	H	2.237305	-0.111321	1.217131
H235	H	2.328233	-0.080973	1.212425
H236	H	1.880802	-0.067651	1.113712
H237	H	1.635076	-0.063684	0.740657
C238	C	1.820384	-0.120549	0.571104
C239	C	1.765511	-0.069429	0.594230
H240	H	1.800400	-0.120853	0.481023
H241	H	1.803523	-0.152902	0.610636
H242	H	1.894445	-0.122555	0.605953
H243	H	1.691449	-0.067425	0.559389
H244	H	1.782364	-0.037068	0.554682
