data_functionalizedCrystal
_audit_creation_method	'MofGen! by Chris Wilmer'
_symmetry_space_group_name_H-M	'P1'
_symmetry_Int_Tables_number	1
_symmetry_cell_setting	triclinic
loop_
_symmetry_equiv_pos_as_xyz
  x,y,z
_cell_length_a	13.897448
_cell_length_b	11.169417
_cell_length_c	11.169409
_cell_angle_alpha	90.020253
_cell_angle_beta	89.964482
_cell_angle_gamma	89.981058
loop_
_atom_site_label
_atom_site_type_symbol
_atom_site_fract_x
_atom_site_fract_y
_atom_site_fract_z
Zn1	Zn	-0.383905	-1.834910	-0.678506
Zn2	Zn	-0.545241	-1.834771	-0.477811
Zn3	Zn	-0.383965	-1.634193	-0.477841
Zn4	Zn	-0.545163	-1.634177	-0.678457
O5	O	-0.464569	-1.734513	-0.578154
O6	O	-0.405314	-2.002841	-0.651891
O7	O	-0.523904	-1.808112	-0.309865
O8	O	-0.248975	-1.660883	-0.504493
O9	O	-0.523847	-2.002739	-0.504442
O10	O	-0.248931	-1.808349	-0.651920
O11	O	-0.405416	-1.660748	-0.309887
O12	O	-0.405341	-1.466241	-0.504446
O13	O	-0.523715	-1.660857	-0.846414
O14	O	-0.523773	-1.466230	-0.651837
O15	O	-0.405239	-1.808334	-0.846449
O16	O	-0.680212	-1.808097	-0.504395
O17	O	-0.680155	-1.660722	-0.651808
C18	C	-0.715183	-1.734425	-0.578119
C19	C	-0.822397	-1.734497	-0.578144
C20	C	-0.464556	-1.422688	-0.578140
C21	C	-0.464573	-1.289288	-0.578163
C22	C	-0.464462	-1.734609	-0.891196
C23	C	-0.464416	-1.734650	-1.024597
C24	C	-1.018692	-1.734623	-0.578220
C25	C	-0.909459	-1.734550	-0.578181
C26	C	-0.212976	-1.734633	-0.578215
C27	C	-0.105762	-1.734685	-0.578241
C28	C	-0.464582	-2.047555	-0.578168
C29	C	-0.464588	-2.180955	-0.578175
C30	C	-0.464605	-1.734486	-0.266329
C31	C	-0.464379	-1.734678	-0.132930
