data_functionalizedCrystal
_audit_creation_method	'MofGen! by Chris Wilmer'
_symmetry_space_group_name_H-M	'P1'
_symmetry_Int_Tables_number	1
_symmetry_cell_setting	triclinic
loop_
_symmetry_equiv_pos_as_xyz
  x,y,z
_cell_length_a	25.639239
_cell_length_b	12.594517
_cell_length_c	12.594509
_cell_angle_alpha	89.992249
_cell_angle_beta	90.034128
_cell_angle_gamma	89.967671
loop_
_atom_site_label
_atom_site_type_symbol
_atom_site_fract_x
_atom_site_fract_y
_atom_site_fract_z
Zn1	Zn	-0.208224	-1.627099	0.601431
Zn2	Zn	-0.295666	-1.626920	0.423434
Zn3	Zn	-0.208237	-1.449103	0.423502
Zn4	Zn	-0.295620	-1.449015	0.601406
O5	O	-0.251937	-1.538034	0.512443
O6	O	-0.219837	-1.776021	0.577801
O7	O	-0.284093	-1.603294	0.274497
O8	O	-0.135070	-1.472827	0.447143
O9	O	-0.284080	-1.775889	0.447027
O10	O	-0.135060	-1.603600	0.577867
O11	O	-0.219859	-1.472653	0.274547
O12	O	-0.219815	-1.300146	0.447119
O13	O	-0.284002	-1.472677	0.750355
O14	O	-0.284015	-1.300081	0.577825
O15	O	-0.219793	-1.603514	0.750373
O16	O	-0.368825	-1.603209	0.447004
O17	O	-0.368792	-1.472503	0.577759
C18	C	-0.251912	-1.261494	0.512477
C19	C	-0.251914	-1.143188	0.512517
C20	C	-0.286899	-1.073931	0.583475
C21	C	-0.239227	-1.003160	0.609668
C22	C	-0.299621	-1.003159	0.486315
C23	C	-0.204216	-1.073976	0.538761
C24	C	-0.264642	-1.073981	0.415362
C25	C	-0.216937	-1.003243	0.441518
C26	C	-0.387779	-1.537855	0.512394
C27	C	-0.445893	-1.537876	0.512409
C28	C	-0.806261	-1.606271	0.444475
C29	C	-0.860866	-1.606312	0.444489
O30	O	-0.889107	-1.664277	0.386675
N31	N	-0.888176	-1.538222	0.512514
C32	C	-0.860879	-1.470093	0.580536
O33	O	-0.889122	-1.412182	0.638398
C34	C	-0.806276	-1.470058	0.580526
C35	C	-0.778968	-1.538145	0.512490
C36	C	-0.778954	-1.674353	0.376444
C37	C	-0.724353	-1.674310	0.376429
C38	C	-0.697060	-1.606185	0.444444
C39	C	-0.724368	-1.538102	0.512474
C40	C	-0.778980	-1.401936	0.648554
C41	C	-0.724373	-1.401907	0.648539
C42	C	-0.697065	-1.469994	0.580502
C43	C	-0.642474	-1.469934	0.580474
N44	N	-0.615164	-1.538024	0.512449
C45	C	-0.642457	-1.606150	0.444434
C46	C	-0.975549	-1.470173	0.580553
C47	C	-1.030152	-1.470202	0.580558
C48	C	-1.030135	-1.606423	0.444512
C49	C	-0.975531	-1.606388	0.444502
C50	C	-0.948239	-1.538264	0.512528
C51	C	-0.527792	-1.606054	0.444407
C52	C	-0.473187	-1.606002	0.444394
C53	C	-0.473208	-1.469786	0.580444
C54	C	-0.527809	-1.469833	0.580453
C55	C	-0.555099	-1.537976	0.512431
O56	O	-0.614198	-1.412001	0.638261
O57	O	-0.614207	-1.664061	0.386592
C58	C	-0.115564	-1.538243	0.512515
C59	C	-0.057450	-1.538332	0.512546
C60	C	-0.251891	-1.538106	0.790064
C61	C	-0.251871	-1.538136	0.908370
C62	C	-0.251957	-0.815655	0.512426
C63	C	-0.251954	-0.933961	0.512460
C64	C	-0.251945	-1.538025	0.235902
C65	C	-0.251817	-1.538201	0.117597
C66	C	-0.286775	-1.466996	0.977613
C67	C	-0.299555	-1.564106	1.048378
C68	C	-0.239060	-1.441102	1.048404
C69	C	-0.264677	-1.635297	0.977576
C70	C	-0.204159	-1.512227	0.977596
C71	C	-0.216921	-1.609405	1.048329
H72	H	-0.275409	-1.105113	0.333248
H73	H	-0.550005	-1.661544	0.389019
C74	C	-0.224698	-0.961130	0.720626
C75	C	-0.258917	-0.989017	0.817116
C76	C	-0.244391	-0.946994	0.928076
C77	C	-0.195647	-0.877082	0.942546
C78	C	-0.161426	-0.849191	0.846054
C79	C	-0.175951	-0.891215	0.735093
H80	H	-0.295002	-1.040773	0.806406
H81	H	-0.269725	-0.967641	0.999506
H82	H	-0.184895	-0.845974	1.024686
H83	H	-0.125340	-0.797436	0.856763
H84	H	-0.150618	-0.870568	0.663663
H85	H	-0.187334	-0.972401	0.381487
H86	H	-0.228246	-1.359014	1.079516
H87	H	-0.550044	-1.414395	0.635857
C88	C	-0.443177	-1.394851	0.655256
C89	C	-0.450734	-1.273859	0.646497
C90	C	-0.420701	-1.198930	0.721315
C91	C	-0.383111	-1.244993	0.804891
C92	C	-0.375553	-1.365992	0.813653
C93	C	-0.405586	-1.440921	0.738836
H94	H	-0.478562	-1.239755	0.584626
H95	H	-0.426297	-1.109359	0.714828
H96	H	-0.360879	-1.189526	0.860275
H97	H	-0.347725	-1.400096	0.875524
H98	H	-0.399991	-1.530492	0.745323
C99	C	-0.177019	-1.690810	1.090031
C100	C	-0.144861	-1.757676	1.011352
C101	C	-0.104965	-1.839087	1.053061
C102	C	-0.097228	-1.853632	1.173449
C103	C	-0.129388	-1.786765	1.252136
C104	C	-0.169283	-1.705353	1.210427
H105	H	-0.150588	-1.746910	0.922227
H106	H	-0.081159	-1.888587	0.994811
H107	H	-0.067695	-1.913898	1.204325
H108	H	-0.123661	-1.797530	1.341261
H109	H	-0.193090	-1.655853	1.268677
H110	H	-0.163844	-1.490250	0.946482
C111	C	-0.694353	-1.326964	0.723368
C112	C	-0.656765	-1.373007	0.806958
C113	C	-0.626746	-1.298062	0.881784
C114	C	-0.634316	-1.177074	0.873019
C115	C	-0.671905	-1.131024	0.789425
C116	C	-0.701924	-1.205969	0.714599
H117	H	-0.651160	-1.462576	0.813450
H118	H	-0.598920	-1.332152	0.943666
H119	H	-0.612094	-1.121595	0.928410
H120	H	-0.677510	-1.041455	0.782934
H121	H	-0.729750	-1.171879	0.652717
H122	H	-0.316338	-1.406882	0.946564
C123	C	-0.945531	-1.395218	0.655375
C124	C	-0.953100	-1.274231	0.646597
C125	C	-0.923085	-1.199278	0.721420
C126	C	-0.885501	-1.245312	0.805022
C127	C	-0.877929	-1.366306	0.813803
C128	C	-0.907944	-1.441259	0.738980
H129	H	-0.980925	-1.240148	0.584707
H130	H	-0.928690	-1.109710	0.714919
H131	H	-0.863282	-1.189827	0.860410
H132	H	-0.850105	-1.400389	0.875693
H133	H	-0.902339	-1.530827	0.745481
C134	C	-0.808969	-1.749297	0.301617
C135	C	-0.801496	-1.740662	0.180613
C136	C	-0.831506	-1.815606	0.105773
C137	C	-0.868990	-1.899185	0.151937
C138	C	-0.876466	-1.907824	0.272946
C139	C	-0.846455	-1.832880	0.347786
H140	H	-0.773746	-1.678788	0.146435
H141	H	-0.825972	-1.809210	0.016194
H142	H	-0.891206	-1.954663	0.096535
H143	H	-0.904216	-1.969698	0.307125
H144	H	-0.851990	-1.839276	0.437366
H145	H	-0.450955	-1.661446	0.388987
H146	H	-0.339882	-1.586055	1.079469
C147	C	-0.694322	-1.749220	0.301595
C148	C	-0.701884	-1.740617	0.180592
C149	C	-0.671858	-1.815536	0.105757
C150	C	-0.634270	-1.899058	0.151924
C151	C	-0.626707	-1.907664	0.272932
C152	C	-0.656733	-1.832746	0.347768
H153	H	-0.729710	-1.678786	0.146411
H154	H	-0.677457	-1.809164	0.016178
H155	H	-0.612043	-1.954517	0.096526
H156	H	-0.598881	-1.969496	0.307114
H157	H	-0.651134	-1.839117	0.437347
C158	C	-0.354101	-0.961137	0.456397
C159	C	-0.401584	-0.989038	0.525803
C160	C	-0.456065	-0.947020	0.495895
C161	C	-0.463063	-0.877102	0.396581
C162	C	-0.415579	-0.849198	0.327169
C163	C	-0.361098	-0.891216	0.357077
H164	H	-0.396406	-1.040798	0.599326
H165	H	-0.491217	-0.967676	0.547279
H166	H	-0.503393	-0.845998	0.374442
H167	H	-0.420757	-0.797437	0.253646
H168	H	-0.325946	-0.870559	0.305693
H169	H	-1.052367	-1.661898	0.389134
C170	C	-1.060186	-1.395297	0.655391
C171	C	-1.030157	-1.320364	0.730202
C172	C	-1.060189	-1.245461	0.805043
C173	C	-1.120251	-1.245491	0.805073
C174	C	-1.150283	-1.320427	0.730260
C175	C	-1.120251	-1.395330	0.655419
H176	H	-0.985693	-1.320339	0.730182
H177	H	-1.037956	-1.189989	0.860425
H178	H	-1.142482	-1.190044	0.860475
H179	H	-1.194747	-1.320452	0.730280
H180	H	-1.142484	-1.450802	0.600037
H181	H	-0.316430	-1.104972	0.643553
H182	H	-0.953301	-1.661830	0.389101
H183	H	-0.163875	-1.104952	0.560992
H184	H	-0.275536	-1.717409	0.946595
H185	H	-0.801204	-1.346487	0.703951
