data_functionalizedCrystal
_audit_creation_method	'MofGen! by Chris Wilmer'
_symmetry_space_group_name_H-M	'P1'
_symmetry_Int_Tables_number	1
_symmetry_cell_setting	triclinic
loop_
_symmetry_equiv_pos_as_xyz
  x,y,z
_cell_length_a	18.050589
_cell_length_b	13.897449
_cell_length_c	13.897441
_cell_angle_alpha	89.977141
_cell_angle_beta	90.027873
_cell_angle_gamma	89.971946
loop_
_atom_site_label
_atom_site_type_symbol
_atom_site_fract_x
_atom_site_fract_y
_atom_site_fract_z
Zn1	Zn	-0.295639	-1.474632	0.545454
Zn2	Zn	-0.419843	-1.474496	0.384163
Zn3	Zn	-0.295671	-1.313321	0.384166
Zn4	Zn	-0.419791	-1.313273	0.545410
O5	O	-0.357736	-1.393931	0.464798
O6	O	-0.312123	-1.609596	0.524076
O7	O	-0.403407	-1.453079	0.249182
O8	O	-0.191742	-1.334796	0.405582
O9	O	-0.403376	-1.609496	0.405576
O10	O	-0.191719	-1.453311	0.524079
O11	O	-0.312178	-1.334665	0.249184
O12	O	-0.312128	-1.178333	0.405539
O13	O	-0.403287	-1.334715	0.680397
O14	O	-0.403318	-1.178298	0.524003
O15	O	-0.312073	-1.453264	0.680430
O16	O	-0.523761	-1.453033	0.405533
O17	O	-0.523723	-1.334583	0.524000
C18	C	-0.357721	-1.143316	0.464767
C19	C	-0.357733	-1.036102	0.464777
C20	C	-0.357732	-0.839807	0.464795
C21	C	-0.357730	-0.949040	0.464782
C22	C	-0.550688	-1.393814	0.464782
C23	C	-0.633234	-1.393853	0.464808
C24	C	-0.832691	-1.329503	0.529208
C25	C	-0.882136	-1.305986	0.441188
C26	C	-0.784365	-1.393947	0.464820
C27	C	-0.882001	-1.417512	0.552850
C28	C	-0.930350	-1.394037	0.464840
C29	C	-0.832723	-1.370384	0.376754
C30	C	-0.832583	-1.481951	0.488475
C31	C	-0.882006	-1.458467	0.400395
C32	C	-0.700266	-1.393893	0.464810
C33	C	-1.014446	-1.394092	0.464841
C34	C	-0.164031	-1.394074	0.464836
C35	C	-0.081485	-1.394135	0.464851
C36	C	-0.357671	-1.393999	0.716392
C37	C	-0.357643	-1.394028	0.823606
C38	C	-0.357747	-0.645524	0.464821
C39	C	-0.357739	-0.752738	0.464807
C40	C	-0.357748	-1.393918	0.214184
C41	C	-0.357567	-1.394076	0.106971
C42	C	-0.357592	-1.394055	1.019901
C43	C	-0.357622	-1.394037	0.910668
H44	H	-0.903919	-1.231606	0.421199
O45	O	-0.806717	-1.570709	0.512427
C46	C	-0.866938	-1.632826	0.530062
H47	H	-0.917845	-1.588542	0.549978
H48	H	-0.879122	-1.676709	0.462599
C49	C	-0.784971	-1.755612	0.589093
C50	C	-0.847494	-1.701222	0.613562
H51	H	-0.772976	-1.797805	0.640596
H52	H	-0.744398	-1.713765	0.577209
H53	H	-0.795132	-1.792172	0.532872
H54	H	-0.837328	-1.664654	0.669774
H55	H	-0.888064	-1.743065	0.625458
O56	O	-0.806886	-1.264266	0.593966
C57	C	-0.832156	-1.171627	0.568682
H58	H	-0.846047	-1.169860	0.488672
H59	H	-0.883832	-1.153548	0.612214
C60	C	-0.754124	-1.099415	0.688606
C61	C	-0.771180	-1.097242	0.590335
H62	H	-0.716514	-1.053529	0.701966
H63	H	-0.737101	-1.161827	0.705643
H64	H	-0.797193	-1.084352	0.724871
H65	H	-0.728114	-1.112317	0.554072
H66	H	-0.788194	-1.034830	0.573291
O67	O	-0.806888	-1.346516	0.287993
C68	C	-0.728782	-1.346740	0.289059
H69	H	-0.708310	-1.335959	0.365912
H70	H	-0.707596	-1.418535	0.260473
C71	C	-0.724879	-1.277807	0.130627
C72	C	-0.699735	-1.264557	0.225019
H73	H	-0.706960	-1.227116	0.091121
H74	H	-0.777500	-1.277659	0.129907
H75	H	-0.707222	-1.337639	0.106819
H76	H	-0.717400	-1.204732	0.248829
H77	H	-0.647116	-1.264693	0.225741
H78	H	-0.903523	-1.513005	0.345891
O79	O	-0.907738	-1.441140	0.641723
C80	C	-0.882626	-1.372942	0.709357
H81	H	-0.830666	-1.336182	0.680734
H82	H	-0.927650	-1.316787	0.721926
C83	C	-0.928383	-1.469110	0.840074
C84	C	-0.864561	-1.423967	0.804923
H85	H	-0.917243	-1.500582	0.899026
H86	H	-0.945304	-1.515055	0.794509
H87	H	-0.965897	-1.422305	0.850541
H88	H	-0.827052	-1.470772	0.794445
H89	H	-0.847634	-1.378030	0.850489
