data_functionalizedCrystal
_audit_creation_method	'MofGen! by Chris Wilmer'
_symmetry_space_group_name_H-M	'P1'
_symmetry_Int_Tables_number	1
_symmetry_cell_setting	triclinic
loop_
_symmetry_equiv_pos_as_xyz
  x,y,z
_cell_length_a	27.440280
_cell_length_b	27.440280
_cell_length_c	21.606444
_cell_angle_alpha	59.991314
_cell_angle_beta	89.994092
_cell_angle_gamma	59.994730
loop_
_atom_site_label
_atom_site_type_symbol
_atom_site_fract_x
_atom_site_fract_y
_atom_site_fract_z
Zr1	Zr	0.469477	0.533436	-0.081352
O2	O	0.391655	0.635124	-0.180195
O3	O	0.493336	0.431754	-0.051037
O4	O	0.493333	0.533435	-0.180179
O5	O	0.391658	0.533441	0.050800
O6	O	0.573535	0.533427	-0.180183
O7	O	0.391659	0.533443	-0.051053
O8	O	0.573541	0.351538	0.050829
O9	O	0.391652	0.715330	-0.180211
O10	O	0.563362	0.473569	-0.038128
O11	O	0.503508	0.473573	0.037887
O12	O	0.503504	0.593290	-0.114161
O13	O	0.443650	0.593294	-0.038147
Zr14	Zr	0.597389	0.533420	0.081086
Zr15	Zr	0.597390	0.533423	-0.081358
Zr16	Zr	0.469476	0.533433	0.081092
Zr17	Zr	0.469472	0.661355	-0.081378
Zr18	Zr	0.597394	0.405501	0.081112
O19	O	0.573530	0.635102	0.050771
O20	O	0.573531	0.635106	-0.180203
O21	O	0.391654	0.635120	0.050780
O22	O	0.675211	0.431732	0.179929
O23	O	0.675212	0.431736	-0.051045
O24	O	0.493335	0.431750	0.179938
O25	O	0.675208	0.533415	-0.051066
O26	O	0.573533	0.533421	0.179913
O27	O	0.493331	0.533428	0.179917
O28	O	0.675208	0.533413	0.050787
O29	O	0.493326	0.715320	-0.180216
O30	O	0.573540	0.351536	0.179950
O31	O	0.675214	0.351526	0.179945
O32	O	0.675214	0.351528	0.050824
O33	O	0.391652	0.715327	-0.051090
O34	O	0.493325	0.715318	-0.051094
O35	O	0.563362	0.473566	0.113896
O36	O	0.623216	0.473562	0.037881
O37	O	0.563358	0.593283	-0.038152
O38	O	0.503504	0.593287	0.037862
C39	C	0.533439	0.373420	-0.000100
C40	C	0.533441	0.319115	-0.000089
C41	C	0.489247	0.026622	-0.056273
C42	C	0.489246	-0.024395	-0.056281
O43	O	0.451681	-0.013198	-0.104026
N44	N	0.533431	-0.094104	-0.000163
C45	C	0.577622	-0.112797	0.055963
O46	O	0.615205	-0.176775	0.103696
C47	C	0.577625	-0.061780	0.055967
C48	C	0.533434	0.007930	-0.000151
C49	C	0.445060	0.096328	-0.112387
C50	C	0.445060	0.147342	-0.112378
C51	C	0.489247	0.128649	-0.056255
C52	C	0.533434	0.058943	-0.000142
C53	C	0.621818	-0.080473	0.112090
C54	C	0.621817	-0.029449	0.112088
C55	C	0.577626	0.040260	0.055971
C56	C	0.577621	0.091264	0.055990
N57	N	0.533436	0.160973	-0.000129
C58	C	0.489249	0.179666	-0.056251
C59	C	0.577615	-0.219932	0.055950
C60	C	0.577610	-0.270948	0.055949
C61	C	0.489235	-0.182542	-0.056296
C62	C	0.489237	-0.131526	-0.056292
C63	C	0.533430	-0.150222	-0.000169
C64	C	0.489252	0.286794	-0.056228
C65	C	0.489254	0.337808	-0.056212
C66	C	0.577631	0.249398	0.056031
C67	C	0.577627	0.198388	0.056018
C68	C	0.533435	0.217092	-0.000118
O69	O	0.615168	0.080118	0.103708
O70	O	0.451677	0.243643	-0.103981
C71	C	0.373434	0.533444	-0.000125
C72	C	0.319131	0.533449	-0.000123
C73	C	-0.017566	0.533414	-0.056246
C74	C	-0.068584	0.533409	-0.056246
O75	O	-0.094959	0.533384	-0.103951
N76	N	-0.094102	0.533409	-0.000135
C77	C	-0.068596	0.533407	0.055984
O78	O	-0.094986	0.533406	0.103711
C79	C	-0.017577	0.533407	0.055987
C80	C	0.007935	0.533414	-0.000132
C81	C	0.007946	0.533420	-0.112360
C82	C	0.058960	0.533426	-0.112360
C83	C	0.084461	0.533426	-0.056246
C84	C	0.058949	0.533420	-0.000132
C85	C	0.007931	0.533400	0.112109
C86	C	0.058954	0.533400	0.112107
C87	C	0.084466	0.533406	0.055988
C88	C	0.135464	0.533426	0.055981
N89	N	0.160982	0.533426	-0.000129
C90	C	0.135481	0.533426	-0.056243
C91	C	-0.175740	0.533406	0.055975
C92	C	-0.226761	0.533411	0.055969
C93	C	-0.226745	0.533411	-0.056260
C94	C	-0.175725	0.533411	-0.056258
C95	C	-0.150222	0.533406	-0.000136
C96	C	0.242613	0.533440	-0.056240
C97	C	0.293630	0.533449	-0.056237
C98	C	0.293611	0.533445	0.055995
C99	C	0.242597	0.533439	0.055990
C100	C	0.217100	0.533434	-0.000131
O101	O	0.161872	0.533448	0.103664
O102	O	0.161881	0.533418	-0.103956
C103	C	0.693433	0.533412	-0.000140
C104	C	0.747735	0.533407	-0.000143
C105	C	0.533434	0.533432	-0.203325
C106	C	0.533434	0.533433	-0.272287
C107	C	0.533427	0.693435	-0.000165
C108	C	0.533425	0.747741	-0.000176
C109	C	0.577618	0.533430	-0.304688
C110	C	0.577620	0.533425	-0.369481
C111	C	0.533435	0.533428	-0.401875
C112	C	0.489249	0.533429	-0.369469
C113	C	0.489250	0.533429	-0.304674
C114	C	0.489244	0.533429	-0.630779
C115	C	0.489245	0.533431	-0.695580
C116	C	0.577614	0.533425	-0.695586
C117	C	0.577615	0.533425	-0.630791
C118	C	0.533431	0.533422	-0.598388
C119	C	0.533430	0.533426	-0.528131
C120	C	0.533433	0.533429	-0.472134
C121	C	0.533432	0.533424	0.203060
C122	C	0.533432	0.533423	0.272022
C123	C	0.693439	0.373405	-0.000108
C124	C	0.747743	0.319094	-0.000099
C125	C	0.533438	0.373417	0.203092
C126	C	0.533440	0.319110	0.272065
C127	C	0.693438	0.373401	0.203085
C128	C	0.747742	0.319089	0.272055
C129	C	0.373428	0.693455	-0.203351
C130	C	0.319124	0.747767	-0.272321
C131	C	0.373428	0.693451	-0.000158
C132	C	0.319123	0.747761	-0.000166
C133	C	0.533428	0.693439	-0.203358
C134	C	0.533426	0.747746	-0.272331
C135	C	0.742002	0.293593	-0.039778
C136	C	0.793022	0.242570	-0.039785
C137	C	0.849782	0.217045	-0.000109
C138	C	0.855522	0.242551	0.039571
C139	C	0.804503	0.293577	0.039574
C140	C	0.564684	0.293604	0.344138
C141	C	0.564683	0.242584	0.408952
C142	C	0.533442	0.217069	0.401690
C143	C	0.502194	0.242580	0.329610
C144	C	0.502192	0.293602	0.264798
C145	C	0.804492	0.293582	0.264765
C146	C	0.855522	0.242557	0.329564
C147	C	0.849799	0.217038	0.401652
C148	C	0.793043	0.242550	0.408940
C149	C	0.742015	0.293577	0.344142
C150	C	0.262374	0.773280	-0.265031
C151	C	0.211345	0.824321	-0.329830
C152	C	0.217067	0.849843	-0.401917
C153	C	0.273823	0.824327	-0.409206
C154	C	0.324851	0.773291	-0.344408
C155	C	0.324864	0.773268	0.039506
C156	C	0.273844	0.824305	0.039495
C157	C	0.217084	0.849832	-0.000184
C158	C	0.211344	0.824323	-0.039861
C159	C	0.262363	0.773290	-0.039854
C160	C	0.564674	0.773245	-0.265045
C161	C	0.564684	0.824265	-0.329846
C162	C	0.533443	0.849788	-0.401932
C163	C	0.502194	0.824284	-0.409216
C164	C	0.502188	0.773261	-0.344416
H165	H	0.657805	-0.044681	0.157791
H166	H	0.533449	0.175523	0.454470
H167	H	0.175512	0.891399	-0.454674
H168	H	0.476759	0.845073	-0.467917
H169	H	0.613606	0.234189	0.101726
H170	H	0.809163	0.314352	0.206074
Cl171	Cl	0.396193	0.741218	-0.353585
Cl172	Cl	0.462914	0.325658	0.174194
H173	H	0.453267	0.533428	-0.604403
Cl174	Cl	0.785859	0.210460	0.499570
Cl175	Cl	0.433694	0.310315	-0.126799
Cl176	Cl	0.462895	0.741218	-0.353588
Cl177	Cl	0.140001	0.856385	-0.320650
H178	H	0.891354	0.175488	0.454408
Cl179	Cl	0.926865	0.210492	0.320384
Cl180	Cl	0.325698	0.533459	-0.126792
H181	H	0.453265	0.394570	-0.101909
Cl182	Cl	0.633163	0.533424	-0.736322
Cl183	Cl	0.281074	0.856359	0.089382
Cl184	Cl	0.396214	0.741191	0.089390
Cl185	Cl	-0.258834	0.533416	0.126513
H186	H	0.278476	0.845114	-0.467907
Cl187	Cl	-0.024105	0.533420	-0.182912
Cl188	Cl	0.670673	0.325634	0.353320
H189	H	0.257703	0.752503	-0.206340
Cl190	Cl	0.389504	0.234972	-0.182933
Cl191	Cl	0.152950	0.913987	-0.000183
H192	H	0.165123	0.845115	-0.072166
H193	H	0.613590	-0.327706	0.101653
H194	H	0.695790	0.314375	-0.072097
H195	H	0.590114	0.752472	-0.206355
Cl196	Cl	0.389502	0.119845	-0.182951
Cl197	Cl	0.785793	0.210513	-0.089669
Cl198	Cl	0.603966	0.856321	-0.320671
Cl199	Cl	0.255136	0.741227	-0.089727
Cl200	Cl	0.811731	0.325624	0.089467
Cl201	Cl	0.603965	0.325668	0.353287
Cl202	Cl	0.603971	0.210520	0.499558
H203	H	0.533452	0.891334	-0.454690
H204	H	0.453250	-0.074767	-0.101984
H205	H	0.453257	-0.167329	-0.101997
Cl206	Cl	-0.143657	0.533418	-0.126808
Cl207	Cl	0.210568	0.533435	-0.126794
H208	H	0.613601	-0.235165	0.101659
Cl209	Cl	0.633162	0.533424	-0.590070
H210	H	0.079730	0.533429	-0.158055
Cl211	Cl	0.913916	0.152896	-0.000117
H212	H	0.657804	-0.137227	0.157786
Cl213	Cl	0.091012	0.533391	0.182666
Cl214	Cl	0.926883	0.210452	0.089451
H215	H	0.453272	0.533430	-0.278293
Cl216	Cl	-0.258813	0.533409	-0.126802
Cl217	Cl	0.633179	0.110752	0.126571
Cl218	Cl	-0.143688	0.533407	0.126529
H219	H	-0.012834	0.533394	0.157806
Cl220	Cl	0.210520	0.533442	0.126535
H221	H	0.314381	0.533448	0.101680
Cl222	Cl	0.633167	0.533420	-0.410213
Cl223	Cl	0.633166	0.533431	-0.263973
H224	H	0.453263	0.533432	-0.721954
H225	H	0.453274	0.533427	-0.395846
H226	H	0.476758	0.221798	0.323708
