data_functionalizedCrystal
_audit_creation_method	'MofGen! by Chris Wilmer'
_symmetry_space_group_name_H-M	'P1'
_symmetry_Int_Tables_number	1
_symmetry_cell_setting	triclinic
loop_
_symmetry_equiv_pos_as_xyz
  x,y,z
_cell_length_a	17.917559
_cell_length_b	14.628931
_cell_length_c	14.628931
_cell_angle_alpha	60.000000
_cell_angle_beta	89.999724
_cell_angle_gamma	57.010160
loop_
_atom_site_label
_atom_site_type_symbol
_atom_site_fract_x
_atom_site_fract_y
_atom_site_fract_z
Zr1	Zr	0.754919	0.916394	-0.077871
O2	O	0.629792	1.121053	-0.230808
O3	O	0.793277	0.721410	-0.030988
O4	O	0.793277	0.912117	-0.221694
O5	O	0.629792	0.930347	0.110330
O6	O	0.922236	0.897736	-0.214504
O7	O	0.629792	0.930347	-0.040102
O8	O	0.922237	0.556597	0.126633
O9	O	0.629792	1.271485	-0.230808
O10	O	0.905878	0.787294	-0.005627
O11	O	0.809637	0.798026	0.101273
O12	O	0.809636	1.022558	-0.123258
O13	O	0.713395	1.033290	-0.016358
Zr14	Zr	0.960595	0.893457	0.173517
Zr15	Zr	0.960595	0.893458	-0.066405
Zr16	Zr	0.754919	0.916393	0.162051
Zr17	Zr	0.754919	1.156315	-0.077871
Zr18	Zr	0.960595	0.653535	0.173517
O19	O	0.922237	1.088440	0.126634
O20	O	0.922236	1.088441	-0.214504
O21	O	0.629792	1.121052	0.110330
O22	O	1.085722	0.688797	0.326454
O23	O	1.085722	0.688798	-0.014684
O24	O	0.793278	0.721409	0.310150
O25	O	1.085721	0.879504	-0.014684
O26	O	0.922237	0.897734	0.317340
O27	O	0.793277	0.912115	0.310150
O28	O	1.085721	0.879503	0.135749
O29	O	0.793276	1.253254	-0.221693
O30	O	0.922237	0.556596	0.317339
O31	O	1.085722	0.538365	0.326454
O32	O	1.085722	0.538366	0.135748
O33	O	0.629792	1.271485	-0.040102
O34	O	0.793277	1.253254	-0.030987
O35	O	0.905878	0.787293	0.218904
O36	O	1.002119	0.776561	0.112004
O37	O	0.905877	1.011825	-0.005627
O38	O	0.809636	1.022557	0.101273
C39	C	0.857757	0.604820	0.047823
C40	C	0.857757	0.502967	0.047822
C41	C	0.600488	0.933615	0.033480
C42	C	0.513173	0.943352	0.028612
C43	C	0.905498	0.346969	-0.005206
C44	C	0.905499	0.452239	-0.005207
C45	C	0.362181	0.848729	0.075921
C46	C	0.353340	0.961116	0.019728
C47	C	0.442280	0.951229	0.024673
C48	C	0.273234	0.858613	0.070978
C49	C	1.115026	0.876236	0.062166
C50	C	1.202340	0.866499	0.067034
C51	C	0.857757	0.904926	-0.252283
C52	C	0.857756	0.904926	-0.354136
C53	C	0.857757	1.205031	0.047823
C54	C	0.857756	1.306884	0.047824
C55	C	0.810015	1.021631	-0.563162
C56	C	0.810014	1.021633	-0.457893
C57	C	0.857757	0.904924	0.347929
C58	C	0.857757	0.904924	0.449782
C59	C	1.115026	0.576130	0.062166
C60	C	1.202341	0.464541	0.067034
C61	C	0.857758	0.604819	0.347928
C62	C	0.857758	0.502966	0.449781
C63	C	1.115027	0.576130	0.362272
C64	C	1.202341	0.464539	0.468992
C65	C	0.600487	1.233721	-0.266625
C66	C	0.513172	1.345311	-0.373346
C67	C	0.600488	1.233720	0.033480
C68	C	0.513173	1.345310	0.028612
C69	C	0.857756	1.205031	-0.252282
C70	C	0.857756	1.306885	-0.354135
C71	C	1.193108	0.417739	0.007907
C72	C	1.275142	0.312903	0.012458
C73	C	1.366407	0.254863	0.076143
C74	C	1.375639	0.301674	0.135271
C75	C	1.293606	0.406515	0.130713
C76	C	1.293591	0.406532	0.463309
C77	C	1.375640	0.301694	0.563576
C78	C	1.366438	0.254858	0.669525
C79	C	1.275179	0.312875	0.675205
C80	C	1.193132	0.417718	0.574940
C81	C	0.421923	1.403330	-0.367663
C82	C	0.339873	1.508198	-0.467930
C83	C	0.349075	1.555039	-0.573879
C84	C	0.440334	1.497015	-0.579559
C85	C	0.522382	1.392156	-0.479294
C86	C	0.522406	1.392121	0.087729
C87	C	0.440372	1.496984	0.083151
C88	C	0.349106	1.555027	0.019463
C89	C	0.339875	1.508212	-0.039660
C90	C	0.421908	1.403357	-0.035089
C91	C	0.905500	0.452232	0.553544
C92	C	0.905502	0.346961	0.658815
H93	H	0.946368	0.303361	-0.050612
Cl94	Cl	0.968615	0.505480	-0.075299
H95	H	0.282318	1.640406	0.015751
Cl96	Cl	0.410329	1.344466	-0.234484
H97	H	1.267607	0.274803	-0.035692
H98	H	1.118836	0.464935	0.579583
H99	H	0.816884	0.468477	0.093228
H100	H	1.433196	0.169494	0.079846
H101	H	0.414377	1.365248	-0.083226
Cl102	Cl	0.794642	0.374224	0.117914
Cl103	Cl	0.476990	0.688721	0.155934
Cl104	Cl	0.238527	1.121135	-0.060287
Cl105	Cl	0.746897	1.175902	-0.700592
H106	H	0.898625	0.805010	-0.461203
H107	H	1.449940	0.254466	0.558931
Cl108	Cl	0.746911	1.175905	-0.474742
Cl109	Cl	0.920874	0.750648	-0.337277
H110	H	0.596712	1.344870	0.139598
Cl111	Cl	1.078384	0.490688	-0.072168
H112	H	1.449958	0.254403	0.187121
H113	H	0.447907	1.535083	0.131302
Cl114	Cl	0.968617	0.279629	0.796238
H115	H	1.433255	0.169487	0.751159
H116	H	1.301137	0.444607	0.178868
H117	H	0.265574	1.555424	-0.463283
Cl118	Cl	1.305184	0.465398	0.330130
Cl119	Cl	0.225133	1.581189	-0.119715
H120	H	1.267701	0.274726	0.761482
H121	H	0.946369	0.486738	0.564442
Cl122	Cl	0.245919	1.686863	-0.699919
H123	H	0.447815	1.535167	-0.665835
Cl124	Cl	0.637092	1.319221	-0.486458
H125	H	0.816889	0.350478	0.556861
H126	H	0.816881	0.468471	0.438882
