data_functionalizedCrystal
_audit_creation_method	'MofGen! by Chris Wilmer'
_symmetry_space_group_name_H-M	'P1'
_symmetry_Int_Tables_number	1
_symmetry_cell_setting	triclinic
loop_
_symmetry_equiv_pos_as_xyz
  x,y,z
_cell_length_a	16.992694
_cell_length_b	16.109301
_cell_length_c	14.586319
_cell_angle_alpha	90.005214
_cell_angle_beta	89.997873
_cell_angle_gamma	87.064852
loop_
_atom_site_label
_atom_site_type_symbol
_atom_site_fract_x
_atom_site_fract_y
_atom_site_fract_z
O1	O	-1.040345	-0.176288	-0.076131
O2	O	-0.540345	0.323712	0.423869
O3	O	-0.812060	-0.174354	-0.076158
O4	O	-0.312060	0.325646	0.423842
O5	O	-0.932474	-0.054709	-0.076134
O6	O	-0.432474	0.445291	0.423866
O7	O	-0.919932	-0.295934	-0.076154
O8	O	-0.419932	0.204066	0.423846
O9	O	-0.932466	-0.054706	0.076347
O10	O	-0.432466	0.445294	0.576347
O11	O	-0.812052	-0.174352	0.076323
O12	O	-0.312052	0.325648	0.576323
O13	O	-1.040337	-0.176286	0.076350
O14	O	-0.540337	0.323714	0.576350
Cu15	Cu	-0.926194	-0.175318	0.090259
Cu16	Cu	-0.426194	0.324682	0.590259
Cu17	Cu	-0.926204	-0.175321	-0.090067
Cu18	Cu	-0.426204	0.324679	0.409933
O19	O	-0.919923	-0.295931	0.076327
O20	O	-0.419923	0.204069	0.576327
C21	C	-0.782844	-0.171865	0.000080
C22	C	-0.282844	0.328135	0.500080
C23	C	-0.695802	-0.164441	0.000070
C24	C	-0.195802	0.335559	0.500070
C25	C	-0.931962	-0.023699	0.000107
C26	C	-0.431962	0.476301	0.500107
C27	C	-0.930439	0.068698	0.000108
C28	C	-0.430439	0.568698	0.500108
C29	C	-1.069553	-0.178775	0.000111
C30	C	-0.569553	0.321225	0.500111
C31	C	-1.156595	-0.186198	0.000115
C32	C	-0.656595	0.313802	0.500115
C33	C	-0.645543	-0.236067	0.000064
C34	C	-0.145543	0.263933	0.500064
C35	C	-0.563758	-0.229087	0.000078
C36	C	-0.063758	0.270913	0.500078
C37	C	-0.532234	-0.150481	0.000090
C38	C	-0.032234	0.349519	0.500090
C39	C	-0.582499	-0.078849	0.000098
C40	C	-0.082499	0.421151	0.500098
C41	C	-0.664282	-0.085830	0.000091
C42	C	-0.164282	0.414170	0.500091
C43	C	-0.288644	-0.121548	0.000116
C44	C	0.211356	0.378452	0.500116
C45	C	-0.206854	-0.114572	0.000120
C46	C	0.293146	0.385428	0.500120
C47	C	-0.188119	-0.264811	0.000102
C48	C	0.311881	0.235189	0.500102
C49	C	-0.269904	-0.271785	0.000090
C50	C	0.230096	0.228215	0.500090
C51	C	-0.320163	-0.200154	0.000103
C52	C	0.179837	0.299846	0.500103
N53	N	-0.448637	-0.143344	0.000100
N54	N	0.051363	0.356656	0.500100
N55	N	-0.403758	-0.207291	0.000099
N56	N	0.096242	0.292709	0.500099
C57	C	-0.920435	-0.326941	0.000084
C58	C	-0.420435	0.173059	0.500084
C59	C	-0.921959	-0.419338	0.000077
C60	C	-0.421959	0.080662	0.500077
N61	N	-0.926192	-0.175316	0.217091
N62	N	-0.426192	0.324684	0.717091
C63	C	-0.998348	0.286439	0.000101
C64	C	-0.498348	0.786439	0.500101
C65	C	-0.996911	0.373256	0.000094
C66	C	-0.496911	0.873256	0.500094
C67	C	-0.854044	0.362915	0.000080
C68	C	-0.354044	0.862915	0.500080
C69	C	-0.855482	0.276100	0.000082
C70	C	-0.355482	0.776100	0.500082
C71	C	-0.927636	0.237865	0.000097
C72	C	-0.427636	0.737865	0.500097
C73	C	-0.924761	0.411496	0.000088
C74	C	-0.424761	0.911496	0.500088
C75	C	-0.923202	0.505626	0.000080
C76	C	-0.423202	1.005626	0.500080
C77	C	-0.929196	0.143729	0.000103
C78	C	-0.429196	0.643729	0.500103
N79	N	-0.926211	-0.175317	-0.216898
N80	N	-0.426211	0.324683	0.283102
C81	C	-0.979529	-0.122357	0.452108
C82	C	-0.479529	0.377643	0.952108
C83	C	-0.979531	-0.122355	0.548089
C84	C	-0.479531	0.377645	1.048089
C85	C	-0.872869	-0.228278	0.548078
C86	C	-0.372869	0.271722	1.048078
C87	C	-0.872863	-0.228276	0.452098
C88	C	-0.372863	0.271724	0.952098
C89	C	-0.926198	-0.175316	0.404116
C90	C	-0.426198	0.324684	0.904116
C91	C	-0.926206	-0.175317	0.596077
C92	C	-0.426206	0.324683	1.096077
C93	C	-0.926208	-0.175316	0.700144
C94	C	-0.426208	0.324684	1.200144
C95	C	-0.926195	-0.175316	0.300042
C96	C	-0.426195	0.324684	0.800042
H97	H	-0.671204	-0.300077	0.000054
H98	H	-0.171204	0.199923	0.500054
H99	H	-0.295565	-0.335795	0.000070
H100	H	0.204435	0.164205	0.500070
Br101	Br	-0.800490	-0.300151	0.613200
Br102	Br	-0.300490	0.199849	1.113200
Br103	Br	-0.800474	-0.300146	0.386959
Br104	Br	-0.300474	0.199854	0.886959
Br105	Br	-0.756125	0.414811	0.000057
Br106	Br	-0.256125	0.914811	0.500057
H107	H	-0.797897	0.236549	0.000075
H108	H	-0.297897	0.736549	0.500075
H109	H	-0.522840	-0.287413	0.000072
H110	H	-0.022840	0.212587	0.500072
H111	H	-0.147190	-0.323129	0.000094
H112	H	0.352810	0.176871	0.500094
H113	H	-1.022957	-0.079233	0.413043
H114	H	-0.522957	0.420767	0.913043
Br115	Br	-0.164072	-0.007884	0.000156
Br116	Br	0.335928	0.492116	0.500156
H117	H	-0.329554	-0.063220	0.000128
H118	H	0.170446	0.436780	0.500128
Br119	Br	-1.092881	0.439176	0.000095
Br120	Br	-0.592881	0.939176	0.500095
H121	H	-0.556826	-0.014846	0.000120
H122	H	-0.056826	0.485154	0.500120
Br123	Br	-0.732493	0.011381	0.000106
Br124	Br	-0.232493	0.511381	0.500106
H125	H	-1.022958	-0.079231	0.587162
H126	H	-0.522958	0.420769	1.087162
Br127	Br	-1.096271	0.234551	0.000123
Br128	Br	-0.596271	0.734551	0.500123
