data_functionalizedCrystal
_audit_creation_method	'MofGen! by Chris Wilmer'
_symmetry_space_group_name_H-M	'P1'
_symmetry_Int_Tables_number	1
_symmetry_cell_setting	triclinic
loop_
_symmetry_equiv_pos_as_xyz
  x,y,z
_cell_length_a	17.639181
_cell_length_b	18.050589
_cell_length_c	18.050591
_cell_angle_alpha	90.013707
_cell_angle_beta	78.781580
_cell_angle_gamma	78.834742
loop_
_atom_site_label
_atom_site_type_symbol
_atom_site_fract_x
_atom_site_fract_y
_atom_site_fract_z
Zn1	Zn	1.208143	-0.524966	0.190018
Zn2	Zn	1.208062	-0.649124	0.065853
Zn3	Zn	1.076002	-0.499896	0.090989
Zn4	Zn	1.075933	-0.624034	0.215146
O5	O	1.142035	-0.574505	0.140501
O6	O	1.318730	-0.562428	0.152511
O7	O	1.190539	-0.629337	-0.034736
O8	O	1.093594	-0.399309	0.104129
O9	O	1.318670	-0.653646	0.061288
O10	O	1.190677	-0.417728	0.176885
O11	O	1.093515	-0.519700	-0.016269
O12	O	0.965395	-0.495371	0.128495
O13	O	1.093476	-0.610884	0.315736
O14	O	0.965345	-0.586575	0.219712
O15	O	1.190610	-0.538099	0.297275
O16	O	1.190472	-0.749708	0.085653
O17	O	1.093397	-0.731275	0.195339
C18	C	0.936693	-0.535530	0.179558
C19	C	0.848847	-0.518875	0.196285
C20	C	1.141940	-0.767439	0.140507
C21	C	1.141971	-0.849991	0.140521
C22	C	0.559806	-0.701201	0.013442
C23	C	0.477262	-0.685540	0.029166
C24	C	0.477323	-0.590708	0.124298
C25	C	0.559869	-0.606358	0.108580
C26	C	0.601104	-0.661606	0.053152
C27	C	0.601167	-0.566763	0.148290
C28	C	0.683706	-0.582414	0.132576
C29	C	0.724947	-0.637661	0.077152
C30	C	0.683644	-0.677257	0.037438
C31	C	0.559930	-0.511519	0.203721
C32	C	0.601228	-0.471923	0.243431
C33	C	0.683769	-0.487571	0.227713
C34	C	0.725010	-0.542818	0.172289
C35	C	0.725073	-0.447975	0.267427
C36	C	0.807612	-0.463627	0.251713
C37	C	0.807549	-0.558470	0.156575
C38	C	1.089234	-1.039454	0.200140
C39	C	1.069981	-1.085230	0.136037
C40	C	1.142049	-1.001136	0.140516
C41	C	1.161340	-1.102449	0.204620
C42	C	1.142122	-1.147135	0.140517
C43	C	1.122758	-1.045817	0.076384
C44	C	1.214150	-1.063039	0.145006
C45	C	1.194925	-1.108797	0.080850
C46	C	1.142004	-0.917029	0.140516
C47	C	1.142167	-1.231240	0.140509
C48	C	1.348178	-0.613632	0.101293
C49	C	1.436024	-0.630306	0.084584
C50	C	1.142044	-0.574489	0.334205
C51	C	1.142048	-0.574482	0.416750
C52	C	1.142152	-0.380822	0.140508
C53	C	1.142202	-0.298285	0.140510
C54	C	1.194875	-0.534915	0.655535
C55	C	1.214169	-0.606327	0.602455
C56	C	1.142047	-0.574509	0.713871
C57	C	1.122791	-0.503095	0.619863
C58	C	1.142049	-0.574493	0.567885
C59	C	1.161378	-0.645964	0.661870
C60	C	1.069966	-0.542680	0.679289
C61	C	1.089233	-0.614134	0.626236
C62	C	1.142048	-0.574518	0.797969
C63	C	1.142049	-0.574492	0.483789
C64	C	1.142028	-0.574531	0.947551
C65	C	1.142046	-0.574521	0.865001
H66	H	0.841126	-0.603454	0.111435
C67	C	0.680337	-0.388099	0.327724
C68	C	0.700417	-0.408198	0.397352
C69	C	0.659215	-0.353064	0.452918
H70	H	0.693841	-0.340717	0.314469
H71	H	0.625258	-0.384458	0.331449
H72	H	0.755484	-0.411831	0.393626
H73	H	0.686911	-0.455571	0.410630
H74	H	0.604136	-0.349423	0.456643
H75	H	0.672722	-0.305686	0.439656
H76	H	0.672828	-0.366697	0.500168
C77	C	1.254554	-0.490360	0.672962
C78	C	1.292160	-0.463196	0.605881
C79	C	1.347150	-0.422162	0.621904
H80	H	1.228297	-0.449025	0.706913
H81	H	1.292615	-0.522296	0.695375
H82	H	1.254105	-0.431262	0.583480
H83	H	1.318433	-0.504515	0.571921
H84	H	1.385211	-0.454098	0.644316
H85	H	1.320886	-0.380830	0.655856
H86	H	1.372677	-0.403732	0.576391
H87	H	1.009042	-1.095446	0.132245
H88	H	1.275127	-0.633243	0.569156
C89	C	1.183236	-0.726468	0.686633
C90	C	1.183039	-0.725534	0.764232
C91	C	1.203189	-0.799677	0.787068
H92	H	1.145985	-0.754740	0.676494
H93	H	1.234303	-0.749122	0.659630
H94	H	1.131979	-0.702891	0.791227
H95	H	1.220291	-0.697277	0.774391
H96	H	1.254256	-0.822330	0.760064
H97	H	1.165936	-0.827942	0.776924
H98	H	1.203065	-0.799052	0.839719
C99	C	0.432407	-0.530725	0.184419
C100	C	0.351282	-0.525479	0.189671
C101	C	0.309883	-0.470222	0.245038
H102	H	0.445847	-0.544163	0.231771
H103	H	0.445905	-0.483356	0.171052
H104	H	0.337789	-0.572838	0.203042
H105	H	0.337818	-0.512032	0.142333
H106	H	0.323382	-0.422852	0.231671
H107	H	0.323330	-0.483664	0.292386
H108	H	0.254837	-0.466650	0.248603
C109	C	0.814563	-0.654663	0.060245
C110	C	0.841885	-0.678874	0.125720
C111	C	0.924433	-0.694533	0.110177
H112	H	0.833307	-0.693253	0.021586
H113	H	0.833281	-0.610262	0.043959
H114	H	0.823175	-0.723270	0.141996
H115	H	0.823163	-0.640295	0.164388
H116	H	0.943152	-0.650133	0.093891
H117	H	0.943170	-0.733122	0.071516
H118	H	0.942982	-0.710956	0.154600
C119	C	1.100918	-1.012773	0.004162
C120	C	1.101082	-0.935243	0.005027
C121	C	1.080953	-0.904774	-0.061483
H122	H	1.138194	-1.037037	-0.038233
H123	H	1.049865	-1.020423	0.000860
H124	H	1.152128	-0.927599	0.008320
H125	H	1.063805	-0.910959	0.047407
H126	H	1.029900	-0.912423	-0.064784
H127	H	1.118232	-0.929043	-0.103872
H128	H	1.081055	-0.852166	-0.060901
C129	C	1.254418	-1.148729	0.013459
C130	C	1.233894	-1.119729	-0.053440
C131	C	1.288669	-1.156504	-0.115536
H132	H	1.305488	-1.140721	0.016162
H133	H	1.254416	-1.201359	0.014009
H134	H	1.233904	-1.067112	-0.053990
H135	H	1.182833	-1.127737	-0.056168
H136	H	1.288667	-1.209134	-0.114987
H137	H	1.339736	-1.148494	-0.112826
H138	H	1.274747	-1.136838	-0.160935
H139	H	1.044559	-0.647658	0.613183
C140	C	0.988642	-0.506857	0.723628
C141	C	0.933294	-0.547665	0.708032
C142	C	0.858370	-0.514673	0.748859
H143	H	0.989016	-0.507547	0.776175
H144	H	0.974984	-0.456105	0.709342
H145	H	0.946949	-0.598404	0.722323
H146	H	0.932895	-0.546978	0.655492
H147	H	0.844711	-0.463920	0.734573
H148	H	0.858752	-0.515364	0.801405
H149	H	0.820806	-0.542351	0.738278
H150	H	1.275076	-1.052821	0.148833
C151	C	1.101013	-0.422524	0.595248
C152	C	1.088162	-0.372354	0.657635
C153	C	1.068096	-0.298127	0.634993
H154	H	1.142767	-0.411740	0.557635
H155	H	1.054351	-0.416986	0.575191
H156	H	1.134819	-0.377889	0.677681
H157	H	1.046406	-0.383114	0.695254
H158	H	1.021434	-0.292589	0.614936
H159	H	1.109853	-0.287351	0.597380
H160	H	1.059368	-0.264079	0.677320
C161	C	0.852598	-0.420745	0.294767
C162	C	0.933708	-0.446293	0.269154
C163	C	0.975174	-0.406817	0.308808
H164	H	0.839187	-0.368257	0.286582
H165	H	0.839127	-0.429137	0.347228
H166	H	0.947174	-0.437895	0.216705
H167	H	0.947143	-0.498775	0.277340
H168	H	0.961703	-0.415208	0.361270
H169	H	0.961756	-0.354330	0.300620
H170	H	1.030211	-0.424150	0.291441
C171	C	0.728279	-0.737296	-0.022743
C172	C	0.674448	-0.768637	-0.054149
C173	C	0.715538	-0.823953	-0.109577
H174	H	0.760488	-0.715031	-0.061248
H175	H	0.760452	-0.775836	-0.000526
H176	H	0.642289	-0.730104	-0.076366
H177	H	0.642239	-0.790917	-0.015663
H178	H	0.747711	-0.862492	-0.087360
H179	H	0.747745	-0.801681	-0.148077
H180	H	0.679020	-0.845229	-0.130887
H181	H	0.567643	-0.426943	0.288563
H182	H	1.177627	-1.127200	0.258831
C183	C	0.432565	-0.728589	-0.014060
C184	C	0.486348	-0.780309	-0.065974
C185	C	0.445203	-0.819972	-0.105809
H186	H	0.400359	-0.754945	0.020346
H187	H	0.400386	-0.694050	-0.040286
H188	H	0.518513	-0.814843	-0.039749
H189	H	0.518556	-0.753973	-0.100395
H190	H	0.413024	-0.785434	-0.132035
H191	H	0.412998	-0.846324	-0.071397
H192	H	0.481688	-0.855064	-0.141041
C193	C	1.029472	-0.999289	0.267237
C194	C	0.954126	-1.010087	0.262165
C195	C	0.899052	-0.973089	0.323950
H196	H	1.042541	-1.019361	0.312796
H197	H	1.030144	-0.946787	0.267020
H198	H	0.953456	-1.062578	0.262389
H199	H	0.941032	-0.990012	0.216618
H200	H	0.899724	-0.920587	0.323734
H201	H	0.912129	-0.993164	0.369506
H202	H	0.847923	-0.980404	0.320514
H203	H	0.593383	-0.746185	-0.031697
H204	H	0.492721	-0.498779	0.216516
