data_functionalizedCrystal
_audit_creation_method	'MofGen! by Chris Wilmer'
_symmetry_space_group_name_H-M	'P1'
_symmetry_Int_Tables_number	1
_symmetry_cell_setting	triclinic
loop_
_symmetry_equiv_pos_as_xyz
  x,y,z
_cell_length_a	18.101398
_cell_length_b	21.295417
_cell_length_c	18.101390
_cell_angle_alpha	89.962939
_cell_angle_beta	89.975319
_cell_angle_gamma	90.025773
loop_
_atom_site_label
_atom_site_type_symbol
_atom_site_fract_x
_atom_site_fract_y
_atom_site_fract_z
Zn1	Zn	1.132127	-0.250665	-0.418817
Zn2	Zn	1.632127	0.249335	0.081183
Zn3	Zn	1.132023	-0.355945	-0.294967
Zn4	Zn	1.632023	0.144055	0.205033
Zn5	Zn	1.008285	-0.250685	-0.294979
Zn6	Zn	1.508285	0.249315	0.205021
Zn7	Zn	1.008238	-0.355891	-0.418755
Zn8	Zn	1.508238	0.144109	0.081245
O9	O	1.070168	-0.303296	-0.356880
O10	O	1.570168	0.196704	0.143120
O11	O	1.235746	-0.264644	-0.402409
O12	O	1.735746	0.235356	0.097591
O13	O	1.115585	-0.342013	-0.191335
O14	O	1.615585	0.157987	0.308665
O15	O	1.024776	-0.162593	-0.311437
O16	O	1.524776	0.337407	0.188563
O17	O	1.235670	-0.341993	-0.311417
O18	O	1.735670	0.158007	0.188583
O19	O	1.115762	-0.162578	-0.402421
O20	O	1.615762	0.337422	0.097579
O21	O	1.024675	-0.264679	-0.191344
O22	O	1.524675	0.235321	0.308656
O23	O	0.904646	-0.264627	-0.311377
O24	O	1.404646	0.235373	0.188623
O25	O	1.024695	-0.341902	-0.522397
O26	O	1.524695	0.158098	-0.022397
O27	O	0.904611	-0.341921	-0.402315
O28	O	1.404611	0.158079	0.097685
O29	O	1.115716	-0.264592	-0.522442
O30	O	1.615716	0.235408	-0.022442
O31	O	1.115540	-0.444027	-0.311357
O32	O	1.615540	0.055973	0.188643
O33	O	1.024595	-0.443988	-0.402304
O34	O	1.524595	0.056012	0.097696
C35	C	0.877758	-0.303271	-0.356841
C36	C	1.377758	0.196729	0.143159
C37	C	0.795443	-0.303275	-0.356842
C38	C	1.295443	0.196725	0.143158
C39	C	0.496352	-0.303314	-0.356904
C40	C	0.996352	0.196686	0.143096
C41	C	0.527675	-0.254439	-0.299967
C42	C	1.027675	0.245561	0.200033
C43	C	0.613293	-0.254571	-0.299724
C44	C	1.113293	0.245429	0.200276
C45	C	0.644735	-0.303294	-0.356873
C46	C	1.144735	0.196706	0.143127
C47	C	0.613618	-0.369607	-0.335543
C48	C	1.113618	0.130393	0.164457
C49	C	0.527972	-0.369335	-0.335147
C50	C	1.027972	0.130665	0.164853
C51	C	0.527967	-0.286453	-0.435305
C52	C	1.027967	0.213547	0.064695
C53	C	0.613618	-0.284977	-0.434877
C54	C	1.113618	0.215023	0.065123
C55	C	0.728594	-0.303287	-0.356857
C56	C	1.228594	0.196713	0.143143
C57	C	0.412493	-0.303326	-0.356919
C58	C	0.912493	0.196674	0.143081
C59	C	1.070071	-0.466848	-0.356839
C60	C	1.570071	0.033152	0.143161
C61	C	1.070097	-0.536816	-0.356846
C62	C	1.570097	-0.036816	0.143154
C63	C	1.117494	-0.569682	-0.309538
C64	C	1.617494	-0.069682	0.190462
C65	C	1.117529	-0.635425	-0.309555
C66	C	1.617529	-0.135425	0.190445
C67	C	1.070153	-0.668299	-0.356871
C68	C	1.570153	-0.168299	0.143129
C69	C	1.022753	-0.635424	-0.404188
C70	C	1.522753	-0.135424	0.095812
C71	C	1.022725	-0.569683	-0.404175
C72	C	1.522725	-0.069683	0.095825
N73	N	1.005369	-0.771559	-0.362504
N74	N	1.505369	-0.271559	0.137496
N75	N	1.005398	-0.834011	-0.362512
N76	N	1.505398	-0.334011	0.137488
C77	C	1.070236	-0.866373	-0.356914
C78	C	1.570236	-0.366373	0.143086
N79	N	1.135046	-0.833925	-0.351293
N80	N	1.635046	-0.333925	0.148707
N81	N	1.135017	-0.771468	-0.351282
N82	N	1.635017	-0.271468	0.148718
C83	C	1.070179	-0.739584	-0.356891
C84	C	1.570179	-0.239584	0.143109
C85	C	1.117675	-0.970525	-0.309622
C86	C	1.617675	-0.470525	0.190378
C87	C	1.117711	-1.036269	-0.309644
C88	C	1.617711	-0.536269	0.190356
C89	C	1.022929	-1.036267	-0.404273
C90	C	1.522929	-0.536267	0.095727
C91	C	1.022899	-0.970525	-0.404255
C92	C	1.522899	-0.470525	0.095745
C93	C	1.070271	-0.937658	-0.356925
C94	C	1.570271	-0.437658	0.143075
C95	C	1.263330	-0.303322	-0.356919
C96	C	1.763330	0.196678	0.143081
C97	C	1.345644	-0.303334	-0.356936
C98	C	1.845644	0.196666	0.143064
C99	C	1.070212	-0.303239	-0.550042
C100	C	1.570212	0.196761	-0.050042
C101	C	1.070231	-0.303214	-0.632356
C102	C	1.570231	0.196786	-0.132356
C103	C	1.070286	-0.139106	-0.356937
C104	C	1.570286	0.360894	0.143063
C105	C	1.070336	-0.069138	-0.356961
C106	C	1.570336	0.430862	0.143039
C107	C	1.070271	-0.303175	-0.931447
C108	C	1.570271	0.196825	-0.431447
C109	C	1.127727	-0.254705	-0.900150
C110	C	1.627727	0.245295	-0.400150
C111	C	1.127548	-0.254525	-0.814532
C112	C	1.627548	0.245475	-0.314532
C113	C	1.070252	-0.303195	-0.783064
C114	C	1.570252	0.196805	-0.283064
C115	C	0.992235	-0.285166	-0.814132
C116	C	1.492235	0.214834	-0.314132
C117	C	0.992579	-0.284803	-0.899778
C118	C	1.492579	0.215197	-0.399778
C119	C	1.090144	-0.369798	-0.899855
C120	C	1.590144	0.130202	-0.399855
C121	C	1.091857	-0.369458	-0.814205
C122	C	1.591857	0.130542	-0.314205
C123	C	1.070236	-0.303207	-0.699205
C124	C	1.570236	0.196793	-0.199205
C125	C	1.070281	-0.303162	-1.015306
C126	C	1.570281	0.196838	-0.515306
C127	C	1.070167	-0.303308	-0.164469
C128	C	1.570167	0.196692	0.335531
C129	C	1.070292	-0.303155	-0.082155
C130	C	1.570292	0.196845	0.417845
H131	H	0.507251	-0.406984	-0.374809
H132	H	1.007251	0.093016	0.125191
H133	H	0.634333	-0.205397	-0.313095
H134	H	1.134333	0.294603	0.186905
H135	H	0.975081	-0.237006	-0.792697
H136	H	1.475081	0.262994	-0.292697
H137	H	0.635032	-0.384153	-0.278847
H138	H	1.135032	0.115847	0.221153
H139	H	1.048300	-0.405914	-0.920098
H140	H	1.548300	0.094086	-0.420098
H141	H	0.633983	-0.406998	-0.375715
H142	H	1.133983	0.093002	0.124285
H143	H	0.984128	-0.542923	-0.442700
H144	H	1.484128	-0.042923	0.057300
H145	H	1.185768	-0.265856	-0.920757
H146	H	1.685768	0.234144	-0.420757
H147	H	0.984181	-0.662194	-0.442715
H148	H	1.484181	-0.162194	0.057285
H149	H	0.507712	-0.322052	-0.477728
H150	H	1.007712	0.177948	0.022272
H151	H	0.984358	-1.063032	-0.442802
H152	H	1.484358	-0.563032	0.057198
H153	H	0.984301	-0.943763	-0.442774
H154	H	1.484301	-0.443763	0.057226
H155	H	0.506395	-0.238940	-0.454697
H156	H	1.006395	0.261060	0.045303
H157	H	1.156251	-0.943764	-0.271085
H158	H	1.656251	-0.443764	0.228915
H159	H	0.633962	-0.236178	-0.450961
H160	H	1.133962	0.263822	0.049039
H161	H	1.114739	-0.205625	-0.921691
H162	H	1.614739	0.294375	-0.421691
H163	H	1.156312	-1.063027	-0.271122
H164	H	1.656312	-0.563027	0.228878
H165	H	1.156128	-0.662190	-0.271032
H166	H	1.656128	-0.162190	0.228968
H167	H	0.635024	-0.317980	-0.479573
H168	H	1.135024	0.182020	0.020427
H169	H	0.507960	-0.383634	-0.277832
H170	H	1.007960	0.116366	0.222168
H171	H	1.156069	-0.542924	-0.271002
H172	H	1.656069	-0.042924	0.228998
H173	H	1.185399	-0.265816	-0.793528
H174	H	1.685399	0.234184	-0.293528
H175	H	1.114393	-0.205170	-0.794062
H176	H	1.614393	0.294830	-0.294062
H177	H	0.975731	-0.236102	-0.919771
H178	H	1.475731	0.263898	-0.419771
H179	H	1.146037	-0.386213	-0.921503
H180	H	1.646037	0.113787	-0.421503
H181	H	1.149270	-0.383053	-0.793899
H182	H	1.649270	0.116947	-0.293899
H183	H	1.053051	-0.407513	-0.792781
H184	H	1.553051	0.092487	-0.292781
H185	H	0.948313	-0.318570	-0.920478
H186	H	1.448313	0.181430	-0.420478
H187	H	0.948263	-0.319382	-0.793747
H188	H	1.448263	0.180618	-0.293747
H189	H	0.507104	-0.205116	-0.313191
H190	H	1.007104	0.294884	0.186809
H191	H	0.506125	-0.265460	-0.242211
H192	H	1.006125	0.234540	0.257789
H193	H	0.633746	-0.265717	-0.241630
H194	H	1.133746	0.234283	0.258370
