data_functionalizedCrystal
_audit_creation_method	'MofGen! by Chris Wilmer'
_symmetry_space_group_name_H-M	'P1'
_symmetry_Int_Tables_number	1
_symmetry_cell_setting	triclinic
loop_
_symmetry_equiv_pos_as_xyz
  x,y,z
_cell_length_a	12.759400
_cell_length_b	16.959455
_cell_length_c	12.759393
_cell_angle_alpha	89.978467
_cell_angle_beta	89.969639
_cell_angle_gamma	90.014072
loop_
_atom_site_label
_atom_site_type_symbol
_atom_site_fract_x
_atom_site_fract_y
_atom_site_fract_z
Zn1	Zn	-0.418226	1.208467	-0.594055
Zn2	Zn	-0.593943	1.208386	-0.418377
Zn3	Zn	-0.418277	1.076280	-0.418387
Zn4	Zn	-0.593861	1.076273	-0.594011
O5	O	-0.506077	1.142351	-0.506207
O6	O	-0.441548	1.319067	-0.570765
O7	O	-0.570696	1.190831	-0.271357
O8	O	-0.271249	1.093851	-0.441712
O9	O	-0.570646	1.319008	-0.441695
O10	O	-0.271211	1.190969	-0.570774
O11	O	-0.441635	1.093773	-0.271364
O12	O	-0.441556	0.965668	-0.441669
O13	O	-0.570507	1.093839	-0.741038
O14	O	-0.570557	0.965663	-0.570700
O15	O	-0.441469	1.190962	-0.741070
O16	O	-0.740953	1.190824	-0.441653
O17	O	-0.740893	1.093761	-0.570690
C18	C	-0.506054	0.936985	-0.506182
C19	C	-0.506069	0.849128	-0.506195
C20	C	-0.573189	0.807822	-0.438899
C21	C	-0.438958	0.807882	-0.573500
C22	C	-0.438966	0.725336	-0.573512
C23	C	-0.506086	0.684029	-0.506216
C24	C	-0.573198	0.725268	-0.438907
C25	C	-0.371848	0.684090	-0.640813
C26	C	-0.371853	0.601540	-0.640827
C27	C	-0.438979	0.560231	-0.573535
C28	C	-0.506094	0.601475	-0.506225
C29	C	-0.573214	0.560169	-0.438928
C30	C	-0.640335	0.601411	-0.371622
C31	C	-0.640324	0.683960	-0.371616
C32	C	-0.438991	0.477683	-0.573542
C33	C	-0.573222	0.477615	-0.438937
C34	C	-0.779044	1.142305	-0.506189
C35	C	-0.895821	1.142357	-0.506216
C36	C	-0.950573	1.192904	-0.573476
C37	C	-1.060297	1.192948	-0.573505
C38	C	-1.060507	1.091896	-0.439004
C39	C	-0.950785	1.091849	-0.438981
C40	C	-0.232043	1.142420	-0.506249
C41	C	-0.115267	1.142449	-0.506267
C42	C	-0.505973	1.142409	-0.780241
C43	C	-0.505929	1.142433	-0.897018
C44	C	-0.506100	1.348519	-0.506234
C45	C	-0.506111	1.436376	-0.506245
C46	C	-0.438688	1.193025	-1.061629
C47	C	-0.438729	1.193010	-0.951905
C48	C	-0.573101	1.091874	-0.951860
C49	C	-0.573064	1.091894	-1.061582
C50	C	-0.506104	1.142340	-0.233240
C51	C	-0.505852	1.142468	-0.116464
H52	H	-0.694981	0.567769	-0.316826
C53	C	-0.364847	1.248619	-0.891586
H54	H	-0.374500	1.241372	-0.818379
H55	H	-0.294250	1.237071	-0.909579
H56	H	-0.380228	1.301729	-0.909579
H57	H	-0.317198	0.717728	-0.695597
C58	C	-0.646946	1.036277	-1.121904
H59	H	-0.686969	1.006146	-1.073506
H60	H	-0.692710	1.066510	-1.164704
H61	H	-0.606729	1.001853	-1.164707
C62	C	-0.714138	0.729328	-0.297578
H63	H	-0.704508	0.784406	-0.307203
H64	H	-0.784750	0.715801	-0.312832
H65	H	-0.698674	0.715774	-0.227012
C66	C	-0.365131	0.853317	-0.647518
H67	H	-0.374742	0.908386	-0.637876
H68	H	-0.294525	0.839791	-0.632265
H69	H	-0.380597	0.839813	-0.718089
H70	H	-0.627821	1.050697	-0.907162
H71	H	-0.627885	0.443989	-0.384139
H72	H	-0.627841	0.841405	-0.384103
H73	H	-1.104872	1.234107	-0.628277
H74	H	-0.317200	0.567967	-0.695633
H75	H	-0.384334	0.444107	-0.628334
C76	C	-0.364769	1.248662	-1.121996
H77	H	-0.324783	1.278775	-1.073619
H78	H	-0.318972	1.218450	-1.164805
H79	H	-0.404959	1.283101	-1.164794
C80	C	-0.890116	1.248444	-0.647451
H81	H	-0.938444	1.278546	-0.687523
H82	H	-0.847298	1.282886	-0.607310
H83	H	-0.847322	1.218156	-0.693183
H84	H	-0.906202	1.050683	-0.384210
H85	H	-1.105272	1.050776	-0.384262
