data_functionalizedCrystal
_audit_creation_method	'MofGen! by Chris Wilmer'
_symmetry_space_group_name_H-M	'P1'
_symmetry_Int_Tables_number	1
_symmetry_cell_setting	triclinic
loop_
_symmetry_equiv_pos_as_xyz
  x,y,z
_cell_length_a	29.839131
_cell_length_b	19.121215
_cell_length_c	19.120904
_cell_angle_alpha	90.126793
_cell_angle_beta	87.590850
_cell_angle_gamma	92.474873
loop_
_atom_site_label
_atom_site_type_symbol
_atom_site_fract_x
_atom_site_fract_y
_atom_site_fract_z
Zn1	Zn	-0.162216	1.054798	0.442219
Zn2	Zn	0.171118	1.388131	0.775553
Zn3	Zn	0.504451	1.721464	1.108886
Zn4	Zn	-0.234011	1.059686	0.324975
Zn5	Zn	0.099322	1.393019	0.658309
Zn6	Zn	0.432656	1.726352	0.991642
Zn7	Zn	-0.161948	0.942564	0.319985
Zn8	Zn	0.171385	1.275898	0.653318
Zn9	Zn	0.504719	1.609231	0.986651
Zn10	Zn	-0.240375	0.937492	0.437156
Zn11	Zn	0.092959	1.270825	0.770490
Zn12	Zn	0.426292	1.604158	1.103823
O13	O	-0.199637	0.998635	0.381084
O14	O	0.133696	1.331968	0.714417
O15	O	0.467029	1.665301	1.047751
O16	O	-0.169188	1.153555	0.430874
O17	O	0.164145	1.486888	0.764208
O18	O	0.497478	1.820221	1.097541
O19	O	-0.221677	1.048318	0.226209
O20	O	0.111657	1.381651	0.559543
O21	O	0.444990	1.714984	0.892876
O22	O	-0.099115	0.957530	0.336230
O23	O	0.234218	1.290863	0.669563
O24	O	0.567552	1.624196	1.002896
O25	O	-0.221936	1.157146	0.344735
O26	O	0.111397	1.490479	0.678069
O27	O	0.444731	1.823813	1.011402
O28	O	-0.099312	1.039987	0.426035
O29	O	0.234022	1.373320	0.759368
O30	O	0.567355	1.706654	1.092702
O31	O	-0.168732	0.962269	0.222543
O32	O	0.164601	1.295603	0.555876
O33	O	0.497934	1.628936	0.889209
O34	O	-0.174903	0.843783	0.331320
O35	O	0.158431	1.177116	0.664654
O36	O	0.491764	1.510449	0.997987
O37	O	-0.232782	0.948884	0.535932
O38	O	0.100551	1.282217	0.869265
O39	O	0.433885	1.615551	1.202599
O40	O	-0.232522	0.840056	0.417406
O41	O	0.100811	1.173389	0.750739
O42	O	0.434144	1.506722	1.084072
O43	O	-0.175359	1.035068	0.539652
O44	O	0.157975	1.368402	0.872985
O45	O	0.491308	1.701735	1.206318
O46	O	-0.297724	1.043399	0.339826
O47	O	0.035610	1.376732	0.673159
O48	O	0.368943	1.710066	1.006493
O49	O	-0.302399	0.953624	0.422245
O50	O	0.030934	1.286957	0.755578
O51	O	0.364268	1.620290	1.088912
C52	C	-0.204374	0.816481	0.373272
C53	C	0.128959	1.149814	0.706606
C54	C	0.462292	1.483147	1.039939
C55	C	-0.206412	0.738554	0.369947
C56	C	0.126921	1.071887	0.703281
C57	C	0.460255	1.405220	1.036614
C58	C	-0.219313	0.297906	0.348911
C59	C	0.114020	0.631240	0.682244
C60	C	0.447353	0.964573	1.015577
C61	C	-0.217396	0.371127	0.352030
C62	C	0.115937	0.704461	0.685363
C63	C	0.449271	1.037794	1.018696
C64	C	-0.189023	0.405867	0.398510
C65	C	0.144310	0.739200	0.731844
C66	C	0.477643	1.072534	1.065177
C67	C	-0.162563	0.367382	0.441869
C68	C	0.170770	0.700715	0.775203
C69	C	0.504104	1.034049	1.108536
C70	C	-0.164478	0.294163	0.438747
C71	C	0.168855	0.627496	0.772080
C72	C	0.502188	0.960829	1.105413
C73	C	-0.181867	0.626849	0.410184
C74	C	0.151466	0.960182	0.743517
C75	C	0.484800	1.293516	1.076850
C76	C	-0.179955	0.700074	0.413305
C77	C	0.153379	1.033407	0.746638
C78	C	0.486712	1.366740	1.079971
C79	C	-0.234787	0.703814	0.323464
C80	C	0.098546	1.037147	0.656797
C81	C	0.431879	1.370481	0.990130
C82	C	-0.236702	0.630593	0.320348
C83	C	0.096631	0.963926	0.653681
C84	C	0.429965	1.297260	0.987015
C85	C	-0.210240	0.592114	0.363704
C86	C	0.123093	0.925448	0.697038
C87	C	0.456427	1.258781	1.030371
C88	C	-0.187064	0.480710	0.401701
C89	C	0.146269	0.814044	0.735034
C90	C	0.479603	1.147377	1.068368
C91	C	-0.212197	0.517272	0.360510
C92	C	0.121136	0.850606	0.693843
C93	C	0.454469	1.183939	1.027176
C94	C	-0.316362	0.998510	0.381044
C95	C	0.016971	1.331843	0.714377
C96	C	0.350304	1.665176	1.047710
C97	C	-0.366297	0.998519	0.381053
C98	C	-0.032963	1.331853	0.714386
C99	C	0.300370	1.665186	1.047719
C100	C	-0.673490	1.045460	0.338237
C101	C	-0.340157	1.378793	0.671571
C102	C	-0.006824	1.712126	1.004904
C103	C	-0.861162	1.045545	0.338268
C104	C	-0.527829	1.378878	0.671602
C105	C	-0.194495	1.712212	1.004935
O106	O	-0.883346	1.085356	0.301834
O107	O	-0.550013	1.418689	0.635167
O108	O	-0.216679	1.752023	0.968501
N109	N	-0.887077	0.998778	0.381143
N110	N	-0.553744	1.332111	0.714476
N111	N	-0.220410	1.665445	1.047810
C112	C	-0.866072	0.951989	0.424016
C113	C	-0.532738	1.285323	0.757350
C114	C	-0.199405	1.618656	1.090683
O115	O	-0.892420	0.912218	0.460490
O116	O	-0.559087	1.245551	0.793823
O117	O	-0.225754	1.578885	1.127157
C118	C	-0.678401	0.951908	0.423989
C119	C	-0.345068	1.285241	0.757322
C120	C	-0.011734	1.618575	1.090655
C121	C	-0.652488	0.998673	0.381106
C122	C	-0.319155	1.332006	0.714439
C123	C	0.014179	1.665340	1.047773
C124	C	-0.647578	1.092222	0.295359
C125	C	-0.314244	1.425555	0.628692
C126	C	0.019089	1.758888	0.962025
C127	C	-0.600663	1.092197	0.295349
C128	C	-0.267329	1.425531	0.628682
C129	C	0.066004	1.758864	0.962015
C130	C	-0.579660	1.045411	0.338217
C131	C	-0.246327	1.378744	0.671550
C132	C	0.087006	1.712077	1.004884
C133	C	-0.605573	0.998649	0.381096
C134	C	-0.272240	1.331982	0.714429
C135	C	0.061094	1.665315	1.047763
C136	C	-0.657396	0.905123	0.466865
C137	C	-0.324063	1.238456	0.800199
C138	C	0.009270	1.571790	1.133532
C139	C	-0.610475	0.905108	0.466856
C140	C	-0.277142	1.238441	0.800189
C141	C	0.056191	1.571775	1.133523
C142	C	-0.584563	0.951873	0.423973
C143	C	-0.251229	1.285207	0.757307
C144	C	0.082104	1.618540	1.090640
C145	C	-0.537656	0.951838	0.423954
C146	C	-0.204322	1.285171	0.757288
C147	C	0.129011	1.618505	1.090621
N148	N	-0.511740	0.998605	0.381080
N149	N	-0.178407	1.331938	0.714413
N150	N	0.154926	1.665272	1.047746
C151	C	-0.532743	1.045391	0.338211
C152	C	-0.199409	1.378725	0.671544
C153	C	0.133924	1.712058	1.004878
C154	C	-0.964601	0.952034	0.424027
C155	C	-0.631268	1.285368	0.757360
C156	C	-0.297935	1.618701	1.090694
C157	C	-1.011519	0.952054	0.424033
C158	C	-0.678185	1.285387	0.757366
C159	C	-0.344852	1.618720	1.090700
C160	C	-1.006606	1.045611	0.338286
C161	C	-0.673273	1.378944	0.671619
C162	C	-0.339939	1.712277	1.004952
C163	C	-0.959688	1.045587	0.338276
C164	C	-0.626354	1.378921	0.671610
C165	C	-0.293021	1.712254	1.004943
C166	C	-0.938686	0.998801	0.381152
C167	C	-0.605353	1.332135	0.714486
C168	C	-0.272020	1.665468	1.047819
C169	C	-0.434218	1.045336	0.338193
C170	C	-0.100885	1.378670	0.671526
C171	C	0.232449	1.712003	1.004859
C172	C	-0.387299	1.045306	0.338184
C173	C	-0.053966	1.378639	0.671517
C174	C	0.279368	1.711972	1.004851
C175	C	-0.392216	0.951752	0.423934
C176	C	-0.058883	1.285085	0.757267
C177	C	0.274451	1.618418	1.090601
C178	C	-0.439131	0.951779	0.423940
C179	C	-0.105798	1.285113	0.757273
C180	C	0.227536	1.618446	1.090607
C181	C	-0.460131	0.998577	0.381067
C182	C	-0.126797	1.331911	0.714401
C183	C	0.206536	1.665244	1.047734
O184	O	-0.515442	0.912053	0.460375
O185	O	-0.182108	1.245386	0.793709
O186	O	0.151225	1.578720	1.127042
O187	O	-0.506386	1.085167	0.301754
O188	O	-0.173053	1.418501	0.635088
O189	O	0.160280	1.751834	0.968421
C190	C	-0.720405	1.045484	0.338247
C191	C	-0.387072	1.378817	0.671581
C192	C	-0.053739	1.712151	1.004914
C193	C	-0.746318	0.998722	0.381126
C194	C	-0.412985	1.332055	0.714460
C195	C	-0.079652	1.665389	1.047793
C196	C	-0.725316	0.951936	0.423995
C197	C	-0.391983	1.285269	0.757328
C198	C	-0.058649	1.618602	1.090661
C199	C	-0.793236	0.998741	0.381132
C200	C	-0.459902	1.332075	0.714466
C201	C	-0.126569	1.665408	1.047799
C202	C	-0.814238	1.045528	0.338264
C203	C	-0.480905	1.378861	0.671597
C204	C	-0.147571	1.712194	1.004930
C205	C	-0.788323	1.092295	0.295389
C206	C	-0.454990	1.425628	0.628722
C207	C	-0.121656	1.758961	0.962056
C208	C	-0.741408	1.092270	0.295379
C209	C	-0.408074	1.425604	0.628712
C210	C	-0.074741	1.758937	0.962046
C211	C	-0.751231	0.905168	0.466870
C212	C	-0.417898	1.238502	0.800203
C213	C	-0.084564	1.571835	1.133536
C214	C	-0.798146	0.905196	0.466876
C215	C	-0.464813	1.238529	0.800209
C216	C	-0.131479	1.571863	1.133542
C217	C	-0.819148	0.951983	0.424007
C218	C	-0.485815	1.285316	0.757340
C219	C	-0.152482	1.618649	1.090674
C220	C	-0.082457	0.998779	0.381140
C221	C	0.250877	1.332112	0.714474
C222	C	0.584210	1.665446	1.047807
C223	C	-0.032521	0.998840	0.381165
C224	C	0.300812	1.332174	0.714498
C225	C	0.634146	1.665507	1.047831
C226	C	-0.204810	0.990865	0.563940
C227	C	0.128523	1.324198	0.897274
C228	C	0.461857	1.657532	1.230607
C229	C	-0.207014	0.987554	0.641863
C230	C	0.126319	1.320887	0.975196
C231	C	0.459652	1.654221	1.308529
C232	C	-0.194882	1.181500	0.388926
C233	C	0.138451	1.514834	0.722260
C234	C	0.471784	1.848167	1.055593
C235	C	-0.192856	1.259427	0.392268
C236	C	0.140477	1.592760	0.725602
C237	C	0.473811	1.926093	1.058935
C238	C	-0.194451	1.006415	0.198941
C239	C	0.138882	1.339748	0.532274
C240	C	0.472215	1.673081	0.865607
C241	C	-0.192117	1.009862	0.121024
C242	C	0.141216	1.343195	0.454358
C243	C	0.474550	1.676528	0.787691
C244	C	-0.178154	1.030868	0.680409
C245	C	0.155179	1.364201	1.013742
C246	C	0.488513	1.697534	1.347075
C247	C	-0.180224	1.027748	0.753625
C248	C	0.153110	1.361081	1.086958
C249	C	0.486443	1.694415	1.420291
C250	C	-0.211156	0.981318	0.788294
C251	C	0.122177	1.314651	1.121627
C252	C	0.455511	1.647984	1.454960
C253	C	-0.240017	0.937999	0.749743
C254	C	0.093316	1.271333	1.083076
C255	C	0.426649	1.604666	1.416409
C256	C	-0.237945	0.941116	0.676528
C257	C	0.095388	1.274449	1.009861
C258	C	0.428721	1.607783	1.343194
C259	C	-0.218906	0.969660	1.009258
C260	C	0.114427	1.302993	1.342592
C261	C	0.447760	1.636326	1.675925
C262	C	-0.220977	0.966548	1.082479
C263	C	0.112356	1.299881	1.415812
C264	C	0.445689	1.633215	1.749145
C265	C	-0.161183	1.056296	1.086356
C266	C	0.172151	1.389629	1.419689
C267	C	0.505484	1.722963	1.753022
C268	C	-0.159115	1.059412	1.013139
C269	C	0.174218	1.392745	1.346473
C270	C	0.507552	1.726078	1.679806
C271	C	-0.187975	1.016091	0.974594
C272	C	0.145358	1.349424	1.307928
C273	C	0.478692	1.682757	1.641261
C274	C	-0.213273	0.978130	0.863132
C275	C	0.120060	1.311463	1.196466
C276	C	0.453393	1.644796	1.529799
C277	C	-0.185855	1.019276	0.899757
C278	C	0.147478	1.352609	1.233090
C279	C	0.480812	1.685942	1.566424
H280	H	-0.259805	0.602313	0.282498
H281	H	0.073528	0.935646	0.615831
H282	H	0.406861	1.268980	0.949164
H283	H	-0.261442	0.905838	0.645144
H284	H	0.071891	1.239171	0.978477
H285	H	0.405225	1.572505	1.311811
O286	O	-0.125754	1.109495	0.975750
O287	O	0.207579	1.442828	1.309083
O288	O	0.540913	1.776162	1.642416
H289	H	-0.091203	1.096918	0.989296
H290	H	0.242130	1.430251	1.322629
H291	H	0.575464	1.763585	1.655963
O292	O	-0.246634	0.928052	0.900531
O293	O	0.086699	1.261386	1.233864
O294	O	0.420032	1.594719	1.567197
H295	H	-0.281186	0.940626	0.886981
H296	H	0.052148	1.273959	1.220314
H297	H	0.385481	1.607293	1.553648
O298	O	-0.263320	0.745317	0.276693
O299	O	0.070013	1.078651	0.610026
O300	O	0.403347	1.411984	0.943359
H301	H	-0.286221	0.777340	0.309420
H302	H	0.047112	1.110673	0.642753
H303	H	0.380445	1.444006	0.976086
O304	O	-0.254335	0.916456	1.119874
O305	O	0.078998	1.249790	1.453207
O306	O	0.412332	1.583123	1.786541
H307	H	-0.277325	0.946382	1.154564
H308	H	0.056008	1.279716	1.487898
H309	H	0.389342	1.613049	1.821231
H310	H	-0.938592	1.083668	0.303358
H311	H	-0.605258	1.417001	0.636691
H312	H	-0.271925	1.750335	0.970025
O313	O	-0.359352	1.095757	0.291937
O314	O	-0.026019	1.429091	0.625270
O315	O	0.307314	1.762424	0.958604
H316	H	-0.323198	1.087883	0.299126
H317	H	0.010135	1.421216	0.632460
H318	H	0.343468	1.754549	0.965793
H319	H	-1.032613	0.913966	0.458946
H320	H	-0.699280	1.247300	0.792279
H321	H	-0.365947	1.580633	1.125612
H322	H	-0.137686	1.091565	1.117747
H323	H	0.195647	1.424898	1.451080
H324	H	0.528981	1.758231	1.784413
H325	H	-0.947506	0.913934	0.458943
H326	H	-0.614172	1.247267	0.792276
H327	H	-0.280839	1.580601	1.125609
O328	O	-0.156463	0.518183	0.451833
O329	O	0.176870	0.851516	0.785166
O330	O	0.510204	1.184849	1.118499
H331	H	-0.166146	0.501801	0.506234
H332	H	0.167188	0.835134	0.839567
H333	H	0.500521	1.168467	1.172901
O334	O	-0.685339	0.854687	0.513123
O335	O	-0.352006	1.188021	0.846456
O336	O	-0.018672	1.521354	1.179789
H337	H	-0.662845	0.822163	0.542933
H338	H	-0.329512	1.155496	0.876267
H339	H	0.003822	1.488829	1.209600
O340	O	-0.149349	0.737548	0.463435
O341	O	0.183985	1.070881	0.796768
O342	O	0.517318	1.404214	1.130101
H343	H	-0.131266	0.698491	0.493054
H344	H	0.202067	1.031825	0.826387
H345	H	0.535401	1.365158	1.159721
O346	O	-0.249914	0.260444	0.298772
O347	O	0.083420	0.593777	0.632105
O348	O	0.416753	0.927110	0.965439
H349	H	-0.274566	0.225745	0.328655
H350	H	0.058768	0.559078	0.661988
H351	H	0.392101	0.892412	0.995321
H352	H	-0.160322	0.595528	0.445491
H353	H	0.173011	0.928862	0.778824
H354	H	0.506345	1.262195	1.112158
O355	O	-0.826090	0.854746	0.513128
O356	O	-0.492757	1.188080	0.846461
O357	O	-0.159423	1.521413	1.179795
H358	H	-0.862245	0.862613	0.505935
H359	H	-0.528911	1.195947	0.839268
H360	H	-0.195578	1.529280	1.172602
H361	H	-0.734135	0.867070	0.501779
H362	H	-0.400802	1.200403	0.835113
H363	H	-0.067468	1.533737	1.168446
O364	O	-0.131959	0.404846	0.492003
O365	O	0.201374	0.738179	0.825336
O366	O	0.534707	1.071512	1.158670
H367	H	-0.135075	0.462225	0.486897
H368	H	0.198258	0.795558	0.820230
H369	H	0.531591	1.128892	1.153563
O370	O	-0.144790	1.080950	0.643023
O371	O	0.188543	1.414283	0.976356
O372	O	0.521876	1.747616	1.309690
H373	H	-0.163027	1.118019	0.611195
H374	H	0.170306	1.451353	0.944528
H375	H	0.503639	1.784686	1.277862
H376	H	-0.160668	1.057076	0.871526
H377	H	0.172665	1.390409	1.204860
H378	H	0.505998	1.723743	1.538193
H379	H	-0.238940	0.402455	0.316722
H380	H	0.094394	0.735788	0.650056
H381	H	0.427727	1.069121	0.983389
H382	H	-0.593379	0.867010	0.501773
H383	H	-0.260045	1.200343	0.835106
H384	H	0.073288	1.533677	1.168440
O385	O	-0.456865	1.095804	0.291947
O386	O	-0.123532	1.429137	0.625280
O387	O	0.209802	1.762471	0.958614
H388	H	-0.430958	1.128307	0.262127
H389	H	-0.097625	1.461640	0.595460
H390	H	0.235709	1.794974	0.928794
H391	H	-0.805431	1.130388	0.260482
H392	H	-0.472098	1.463722	0.593815
H393	H	-0.138764	1.797055	0.927148
H394	H	-0.156724	1.063020	0.785006
H395	H	0.176610	1.396354	1.118339
H396	H	0.509943	1.729687	1.451673
O397	O	-0.135944	0.252654	0.485512
O398	O	0.197389	0.585987	0.818845
O399	O	0.530723	0.919320	1.152179
H400	H	-0.115896	0.289109	0.518362
H401	H	0.217437	0.622443	0.851696
H402	H	0.550771	0.955776	1.185029
H403	H	-0.235297	0.488984	0.322664
H404	H	0.098037	0.822318	0.655997
H405	H	0.431370	1.155651	0.989330
H406	H	-1.023714	1.083706	0.303381
H407	H	-0.690380	1.417039	0.636714
H408	H	-0.357047	1.750373	0.970047
H409	H	-0.579567	1.130279	0.260432
H410	H	-0.246234	1.463613	0.593765
H411	H	0.087100	1.796946	0.927099
O412	O	-0.250010	0.922902	0.967687
O413	O	0.083323	1.256235	1.301020
O414	O	0.416657	1.589569	1.634353
H415	H	-0.271861	0.890085	1.004097
H416	H	0.061473	1.223419	1.337430
H417	H	0.394806	1.556752	1.670763
H418	H	-0.375109	0.913657	0.458835
H419	H	-0.041775	1.246990	0.792168
H420	H	0.291558	1.580323	1.125502
O421	O	-0.670227	1.142684	0.249113
O422	O	-0.336893	1.476017	0.582447
O423	O	-0.003560	1.809350	0.915780
H424	H	-0.644319	1.175188	0.219297
H425	H	-0.310985	1.508521	0.552630
H426	H	0.022348	1.841854	0.885963
O427	O	-0.467084	0.901340	0.470188
O428	O	-0.133751	1.234674	0.803522
O429	O	0.199582	1.568007	1.136855
H430	H	-0.444596	0.868805	0.499998
H431	H	-0.111262	1.202139	0.833331
H432	H	0.222071	1.535472	1.166664
H433	H	-0.265202	0.900192	0.777976
H434	H	0.068132	1.233526	1.111309
H435	H	0.401465	1.566859	1.444642
H436	H	-0.720313	1.130351	0.260460
H437	H	-0.386979	1.463685	0.593793
H438	H	-0.053646	1.797018	0.927127
