data_functionalizedCrystal
_audit_creation_method	'MofGen! by Chris Wilmer'
_symmetry_space_group_name_H-M	'P1'
_symmetry_Int_Tables_number	1
_symmetry_cell_setting	triclinic
loop_
_symmetry_equiv_pos_as_xyz
  x,y,z
_cell_length_a	17.699104
_cell_length_b	12.996460
_cell_length_c	17.699083
_cell_angle_alpha	89.992964
_cell_angle_beta	83.287266
_cell_angle_gamma	89.992694
loop_
_atom_site_label
_atom_site_type_symbol
_atom_site_fract_x
_atom_site_fract_y
_atom_site_fract_z
O1	O	-1.004067	0.085610	-0.095788
O2	O	-0.504067	0.585610	0.404212
O3	O	-0.783691	0.085603	-0.108224
O4	O	-0.283691	0.585603	0.391776
O5	O	-0.900105	0.085597	0.008183
O6	O	-0.400105	0.585597	0.508183
O7	O	-0.887653	0.085615	-0.212194
O8	O	-0.387653	0.585615	0.287806
O9	O	-0.900093	-0.085536	0.008189
O10	O	-0.400093	0.414464	0.508189
O11	O	-0.783679	-0.085531	-0.108217
O12	O	-0.283679	0.414469	0.391783
O13	O	-1.004055	-0.085524	-0.095781
O14	O	-0.504055	0.414476	0.404219
Cu15	Cu	-0.893866	-0.101153	-0.101999
Cu16	Cu	-0.393866	0.398847	0.398001
Cu17	Cu	-0.893880	0.101232	-0.102006
Cu18	Cu	-0.393880	0.601232	0.397994
O19	O	-0.887641	-0.085519	-0.212188
O20	O	-0.387641	0.414481	0.287812
C21	C	-0.755488	0.000035	-0.107772
C22	C	-0.255488	0.500035	0.392228
C23	C	-0.671471	0.000032	-0.106427
C24	C	-0.171471	0.500032	0.393573
C25	C	-0.146600	0.000038	-0.167171
C26	C	0.353400	0.500038	0.332829
C27	C	-0.225543	0.000042	-0.168430
C28	C	0.274457	0.500042	0.331570
C29	C	-0.274161	0.000037	-0.100095
C30	C	0.225839	0.500037	0.399905
C31	C	-0.243831	0.000038	-0.030496
C32	C	0.256169	0.500038	0.469504
C33	C	-0.164889	0.000041	-0.029238
C34	C	0.335111	0.500041	0.470762
C35	C	-0.562197	0.000029	-0.035569
C36	C	-0.062197	0.500029	0.464431
C37	C	-0.641144	0.000023	-0.036833
C38	C	-0.141144	0.500023	0.463167
C39	C	-0.622852	0.000030	-0.174762
C40	C	-0.122852	0.500030	0.325238
C41	C	-0.543909	0.000033	-0.173503
C42	C	-0.043909	0.500033	0.326497
C43	C	-0.513587	0.000039	-0.103905
C44	C	-0.013587	0.500039	0.396095
C45	C	-0.427987	0.000036	-0.102541
C46	C	0.072013	0.500036	0.397459
C47	C	-0.359759	0.000033	-0.101459
C48	C	0.140241	0.500033	0.398541
N49	N	-0.893861	-0.243500	-0.101993
N50	N	-0.393861	0.256500	0.398007
C51	C	-0.893879	-0.663315	-0.102007
C52	C	-0.393879	-0.163315	0.397993
C53	C	-0.893872	-0.546510	-0.102006
C54	C	-0.393872	-0.046510	0.397994
C55	C	-0.893870	-0.453411	-0.102001
C56	C	-0.393870	0.046589	0.397999
C57	C	-0.893862	-0.336599	-0.101998
C58	C	-0.393862	0.163401	0.398002
C59	C	-0.032258	0.000041	-0.096233
C60	C	0.467742	0.500041	0.403767
C61	C	-0.116275	0.000036	-0.097578
C62	C	0.383725	0.500036	0.402422
C63	C	-0.899653	0.000030	0.036383
C64	C	-0.399653	0.500030	0.536383
C65	C	-0.898314	0.000030	0.120402
C66	C	-0.398314	0.500030	0.620402
N67	N	-0.893890	0.243579	-0.102006
N68	N	-0.393890	0.743579	0.397994
C69	C	-0.888093	0.000051	-0.240388
C70	C	-0.388093	0.500051	0.259612
C71	C	-0.889431	0.000058	-0.324406
C72	C	-0.389431	0.500058	0.175594
C73	C	-0.966647	0.000030	0.169017
C74	C	-0.466647	0.500030	0.669017
C75	C	-0.965385	0.000040	0.247961
C76	C	-0.465385	0.500040	0.747961
C77	C	-0.895789	0.000041	0.278287
C78	C	-0.395789	0.500041	0.778287
C79	C	-0.827451	0.000043	0.229665
C80	C	-0.327451	0.500043	0.729665
C81	C	-0.828714	0.000041	0.150723
C82	C	-0.328714	0.500041	0.650723
C83	C	-0.822356	0.000051	0.548028
C84	C	-0.322356	0.500051	1.048028
C85	C	-0.821098	0.000050	0.626976
C86	C	-0.321098	0.500050	1.126976
C87	C	-0.959026	0.000049	0.645266
C88	C	-0.459026	0.500049	1.145266
C89	C	-0.960289	0.000048	0.566324
C90	C	-0.460289	0.500048	1.066324
C91	C	-0.891952	0.000056	0.517709
C92	C	-0.391952	0.500056	1.017709
C93	C	-0.893321	0.000048	0.432110
C94	C	-0.393321	0.500048	0.932110
C95	C	-0.894419	0.000041	0.363885
C96	C	-0.394419	0.500041	0.863885
H97	H	-0.504328	0.000031	-0.229149
H98	H	-0.004328	0.500031	0.270851
C99	C	-1.044000	0.088025	0.347329
C100	C	-0.544000	0.588025	0.847329
C101	C	-1.040501	0.000044	0.301395
C102	C	-0.540501	0.500044	0.801395
H103	H	-1.090379	0.088031	0.380312
H104	H	-0.590379	0.588031	0.880312
H105	H	-1.002379	0.088021	0.376688
H106	H	-0.502379	0.588021	0.876688
H107	H	-1.041626	0.147691	0.316134
H108	H	-0.541626	0.647691	0.816134
H109	H	-1.042869	-0.059623	0.332590
H110	H	-0.542869	0.440377	0.832590
H111	H	-1.082133	0.000039	0.272033
H112	H	-0.582133	0.500039	0.772033
H113	H	-0.107020	0.000034	-0.222818
H114	H	0.392980	0.500034	0.277182
C115	C	-0.691237	0.000058	0.203650
C116	C	-0.191237	0.500058	0.703650
C117	C	-0.750948	0.000052	0.262996
C118	C	-0.250948	0.500052	0.762996
H119	H	-0.644007	0.000069	0.224228
H120	H	-0.144007	0.500069	0.724228
H121	H	-0.694590	-0.059617	0.173248
H122	H	-0.194590	0.440383	0.673248
H123	H	-0.694612	0.059739	0.173234
H124	H	-0.194612	0.559739	0.673234
H125	H	-0.747577	-0.059634	0.293409
H126	H	-0.247577	0.440366	0.793409
H127	H	-0.747593	0.059733	0.293411
H128	H	-0.247593	0.559733	0.793411
C129	C	-0.190895	0.000026	0.106977
C130	C	0.309105	0.500026	0.606977
C131	C	-0.131553	0.000035	0.047262
C132	C	0.368447	0.500035	0.547262
H133	H	-0.170314	0.000021	0.154205
H134	H	0.329686	0.500021	0.654205
H135	H	-0.221311	0.059699	0.103614
H136	H	0.278689	0.559699	0.603614
H137	H	-0.221298	-0.059658	0.103616
H138	H	0.278702	0.440342	0.603616
H139	H	-0.101153	0.059724	0.050620
H140	H	0.398847	0.559724	0.550620
H141	H	-0.101124	-0.059643	0.050626
H142	H	0.398876	0.440357	0.550626
H143	H	-1.023320	0.000023	0.144333
H144	H	-0.523320	0.500023	0.644333
C145	C	-1.096504	0.000060	0.592335
C146	C	-0.596504	0.500060	1.092335
C147	C	-1.036791	0.000052	0.532991
C148	C	-0.536791	0.500052	1.032991
H149	H	-1.143733	0.000072	0.571755
H150	H	-0.643733	0.500072	1.071755
H151	H	-1.093143	-0.059615	0.622747
H152	H	-0.593143	0.440385	1.122747
H153	H	-1.093140	0.059742	0.622741
H154	H	-0.593140	0.559742	1.122741
H155	H	-1.040152	-0.059634	0.502588
H156	H	-0.540152	0.440366	1.002588
H157	H	-1.040154	0.059733	0.502566
H158	H	-0.540154	0.559733	1.002566
H159	H	-0.773070	0.000041	0.111140
H160	H	-0.273070	0.500041	0.611140
H161	H	-1.014670	0.000048	0.684858
H162	H	-0.514670	0.500048	1.184858
H163	H	-0.766711	0.000057	0.508455
H164	H	-0.266711	0.500057	1.008455
H165	H	-0.647550	0.000029	-0.231432
H166	H	-0.147550	0.500029	0.268568
H167	H	-0.250230	0.000054	-0.225100
H168	H	0.249770	0.500054	0.274900
H169	H	-0.537518	0.000031	0.021102
H170	H	-0.037518	0.500031	0.521102
C171	C	-0.740550	0.087996	0.041756
C172	C	-0.240550	0.587996	0.541756
C173	C	-0.694590	0.000027	0.038285
C174	C	-0.194590	0.500027	0.538285
H175	H	-0.773547	0.087992	0.088126
H176	H	-0.273547	0.587992	0.588126
H177	H	-0.709381	0.147664	0.039379
H178	H	-0.209381	0.647664	0.539379
H179	H	-0.769902	0.087978	0.000121
H180	H	-0.269902	0.587978	0.500121
H181	H	-0.665234	0.000049	0.079917
H182	H	-0.165234	0.500049	0.579917
H183	H	-0.725763	-0.059657	0.040670
H184	H	-0.225763	0.440343	0.540670
C185	C	-0.684876	0.000079	0.600971
C186	C	-0.184876	0.500079	1.100971
C187	C	-0.744592	0.000065	0.660312
C188	C	-0.244592	0.500065	1.160312
H189	H	-0.637649	0.000094	0.621553
H190	H	-0.137649	0.500094	1.121553
H191	H	-0.688223	-0.059596	0.570567
H192	H	-0.188223	0.440404	1.070567
H193	H	-0.688251	0.059761	0.570556
H194	H	-0.188251	0.559761	1.070556
H195	H	-0.741220	-0.059621	0.690724
H196	H	-0.241220	0.440379	1.190724
H197	H	-0.741243	0.059746	0.690729
H198	H	-0.241243	0.559746	1.190729
H199	H	-0.283422	0.000041	0.025143
H200	H	0.216578	0.500041	0.525143
