data_functionalizedCrystal
_audit_creation_method	'MofGen! by Chris Wilmer'
_symmetry_space_group_name_H-M	'P1'
_symmetry_Int_Tables_number	1
_symmetry_cell_setting	triclinic
loop_
_symmetry_equiv_pos_as_xyz
  x,y,z
_cell_length_a	6.817900
_cell_length_b	12.908942
_cell_length_c	13.167973
_cell_angle_alpha	100.242960
_cell_angle_beta	105.756014
_cell_angle_gamma	100.860556
loop_
_atom_site_label
_atom_site_type_symbol
_atom_site_fract_x
_atom_site_fract_y
_atom_site_fract_z
V1	V	-4.053601	-0.178601	-0.334803
O2	O	-4.054546	-0.025176	-0.329046
O3	O	-3.991526	-0.321667	-0.331921
O4	O	-4.023024	-0.190666	-0.481093
O5	O	-4.022830	-0.157084	-0.178842
V6	V	-4.536692	-0.158499	-0.316221
O7	O	-4.315808	-0.222695	-0.375565
O8	O	-4.724682	-0.114405	-0.275459
O9	O	-4.375561	-0.015433	-0.319103
O10	O	-4.653144	-0.311923	-0.321979
O11	O	-4.684861	-0.180016	-0.472183
O12	O	-4.344063	-0.146434	-0.169932
C13	C	-3.832623	-0.356081	-0.326487
C14	C	-3.863275	-0.473135	-0.325106
C15	C	-3.872801	-0.188975	-0.516769
C16	C	-3.928994	-0.199786	-0.636357
C17	C	-3.968376	-0.024076	-0.831139
C18	C	-4.021172	-0.034230	-0.943502
C19	C	-4.087370	-0.230245	-0.973449
C20	C	-4.034573	-0.220092	-0.861085
C21	C	-3.975080	-0.117004	-0.789934
C22	C	-3.922297	-0.106852	-0.677569
C23	C	-3.988481	-0.302866	-0.707517
C24	C	-4.041278	-0.313020	-0.819881
C25	C	-4.285443	-0.704882	-0.333223
C26	C	-4.314252	-0.814865	-0.331926
C27	C	-3.949709	-0.803088	-0.321221
C28	C	-3.920900	-0.693105	-0.322518
C29	C	-4.088774	-0.644006	-0.328518
C30	C	-4.059958	-0.534019	-0.329808
C31	C	-3.695421	-0.522246	-0.319110
C32	C	-3.724231	-0.632229	-0.317813
C33	C	-4.197805	0.018976	-0.324535
C34	C	-4.146392	0.136028	-0.325923
C35	C	-4.157627	-0.148128	-0.134250
C36	C	-4.080673	-0.137311	-0.014661
H37	H	-3.873862	-0.022913	-0.619638
H38	H	-4.135800	-0.314174	-1.031398
O39	O	-3.904207	0.087103	-0.754386
H40	H	-3.908407	0.150018	-0.801917
O41	O	-3.483283	-0.456590	-0.314041
H42	H	-3.491448	-0.371864	-0.315957
H43	H	-4.015716	0.041442	-0.977046
O44	O	-4.105457	-0.424204	-0.896623
H45	H	-4.141058	-0.415656	-0.981680
O46	O	-3.995706	-0.403107	-0.663080
H47	H	-3.948988	-0.378731	-0.572992
H48	H	-4.196648	-0.494042	-0.334686
H49	H	-4.474398	-0.864428	-0.335759
O50	O	-3.768673	-0.856059	-0.314777
H51	H	-3.821761	-0.942766	-0.314672
H52	H	-4.422125	-0.664901	-0.338093
H53	H	-3.587562	-0.672222	-0.312932
