data_functionalizedCrystal
_audit_creation_method	'MofGen! by Chris Wilmer'
_symmetry_space_group_name_H-M	'P1'
_symmetry_Int_Tables_number	1
_symmetry_cell_setting	triclinic
loop_
_symmetry_equiv_pos_as_xyz
  x,y,z
_cell_length_a	29.839133
_cell_length_b	18.215407
_cell_length_c	18.215399
_cell_angle_alpha	89.982632
_cell_angle_beta	89.979424
_cell_angle_gamma	90.027045
loop_
_atom_site_label
_atom_site_type_symbol
_atom_site_fract_x
_atom_site_fract_y
_atom_site_fract_z
Zn1	Zn	-0.178889	1.125048	-0.416105
Zn2	Zn	0.154445	1.458381	-0.082772
Zn3	Zn	0.487778	1.791714	0.250562
Zn4	Zn	-0.254018	1.124946	-0.293055
Zn5	Zn	0.079315	1.458279	0.040279
Zn6	Zn	0.412649	1.791613	0.373612
Zn7	Zn	-0.178899	1.001980	-0.293058
Zn8	Zn	0.154434	1.335314	0.040276
Zn9	Zn	0.487767	1.668647	0.373609
Zn10	Zn	-0.253989	1.001936	-0.416085
Zn11	Zn	0.079344	1.335269	-0.082752
Zn12	Zn	0.412678	1.668603	0.250582
O13	O	-0.216449	1.063478	-0.354576
O14	O	0.116885	1.396811	-0.021242
O15	O	0.450218	1.730144	0.312091
O16	O	-0.188862	1.228019	-0.399789
O17	O	0.144471	1.561352	-0.066456
O18	O	0.477804	1.894685	0.266877
O19	O	-0.244070	1.108610	-0.190071
O20	O	0.089264	1.441944	0.143263
O21	O	0.422597	1.775277	0.476596
O22	O	-0.116031	1.018367	-0.309390
O23	O	0.217303	1.351700	0.023943
O24	O	0.550636	1.685033	0.357277
O25	O	-0.244059	1.227944	-0.309385
O26	O	0.089274	1.561277	0.023949
O27	O	0.422607	1.894610	0.357282
O28	O	-0.116023	1.108784	-0.399792
O29	O	0.217310	1.442117	-0.066459
O30	O	0.550644	1.775450	0.266874
O31	O	-0.188881	1.018268	-0.190073
O32	O	0.144453	1.351601	0.143260
O33	O	0.477786	1.684935	0.476594
O34	O	-0.188852	0.898990	-0.309370
O35	O	0.144481	1.232324	0.023963
O36	O	0.477814	1.565657	0.357296
O37	O	-0.244010	1.018291	-0.519072
O38	O	0.089323	1.351625	-0.185739
O39	O	0.422657	1.684958	0.147595
O40	O	-0.244020	0.898958	-0.399758
O41	O	0.089313	1.232291	-0.066425
O42	O	0.422646	1.565624	0.266909
O43	O	-0.188834	1.108741	-0.519087
O44	O	0.144499	1.442074	-0.185753
O45	O	0.477833	1.775407	0.147580
O46	O	-0.316881	1.108567	-0.309365
O47	O	0.016452	1.441901	0.023968
O48	O	0.349786	1.775234	0.357302
O49	O	-0.316860	1.018193	-0.399755
O50	O	0.016473	1.351526	-0.066422
O51	O	0.349807	1.684859	0.266912
C52	C	-0.216435	0.872271	-0.354563
C53	C	0.116898	1.205605	-0.021229
C54	C	0.450232	1.538938	0.312104
C55	C	-0.216440	0.790472	-0.354575
C56	C	0.116894	1.123806	-0.021241
C57	C	0.450227	1.457139	0.312092
C58	C	-0.187758	0.602316	-0.401723
C59	C	0.145576	0.935650	-0.068389
C60	C	0.478909	1.268983	0.264944
C61	C	-0.187762	0.525458	-0.401725
C62	C	0.145572	0.858791	-0.068392
C63	C	0.478905	1.192124	0.264941
C64	C	-0.245152	0.525391	-0.307441
C65	C	0.088181	0.858724	0.025892
C66	C	0.421515	1.192057	0.359225
C67	C	-0.245146	0.602248	-0.307436
C68	C	0.088188	0.935581	0.025898
C69	C	0.421521	1.268915	0.359231
C70	C	-0.216449	0.640709	-0.354581
C71	C	0.116884	0.974042	-0.021247
C72	C	0.450217	1.307376	0.312086
C73	C	-0.216459	0.486993	-0.354589
C74	C	0.116874	0.820326	-0.021255
C75	C	0.450207	1.153660	0.312078
C76	C	-0.216464	0.403659	-0.354591
C77	C	0.116869	0.736993	-0.021258
C78	C	0.450203	1.070326	0.312076
C79	C	-0.216444	0.724048	-0.354578
C80	C	0.116889	1.057381	-0.021244
C81	C	0.450223	1.390715	0.312089
C82	C	-0.333171	1.063384	-0.354574
C83	C	0.000162	1.396717	-0.021240
C84	C	0.333495	1.730051	0.312093
C85	C	-0.383106	1.063412	-0.354597
C86	C	-0.049772	1.396745	-0.021264
C87	C	0.283561	1.730078	0.312069
C88	C	-0.739654	1.110585	-0.401702
C89	C	-0.406320	1.443918	-0.068369
C90	C	-0.072987	1.777251	0.264965
C91	C	-0.551981	1.110515	-0.401701
C92	C	-0.218647	1.443848	-0.068368
C93	C	0.114686	1.777182	0.264965
O94	O	-0.527683	1.150528	-0.441741
O95	O	-0.194350	1.483862	-0.108407
O96	O	0.138984	1.817195	0.224926
N97	N	-0.528551	1.063470	-0.354596
N98	N	-0.195217	1.396803	-0.021262
N99	N	0.138116	1.730136	0.312071
C100	C	-0.552042	1.016442	-0.307483
C101	C	-0.218709	1.349775	0.025850
C102	C	0.114625	1.683108	0.359183
O103	O	-0.527807	0.976430	-0.267412
O104	O	-0.194474	1.309764	0.065922
O105	O	0.138859	1.643097	0.399255
C106	C	-0.739714	1.016516	-0.307481
C107	C	-0.406381	1.349849	0.025852
C108	C	-0.073048	1.683182	0.359186
C109	C	-0.763142	1.063559	-0.354595
C110	C	-0.429808	1.396892	-0.021262
C111	C	-0.096475	1.730225	0.312072
C112	C	-0.763081	1.157625	-0.448812
C113	C	-0.429748	1.490958	-0.115478
C114	C	-0.096415	1.824292	0.217855
C115	C	-0.809997	1.157639	-0.448814
C116	C	-0.476663	1.490972	-0.115481
C117	C	-0.143330	1.824306	0.217852
C118	C	-0.833485	1.110613	-0.401707
C119	C	-0.500151	1.443946	-0.068374
C120	C	-0.166818	1.777280	0.264959
C121	C	-0.810057	1.063573	-0.354598
C122	C	-0.476724	1.396906	-0.021264
C123	C	-0.143390	1.730240	0.312069
C124	C	-0.763205	0.969492	-0.260365
C125	C	-0.429871	1.302825	0.072968
C126	C	-0.096538	1.636158	0.406301
C127	C	-0.810126	0.969516	-0.260368
C128	C	-0.476792	1.302849	0.072966
C129	C	-0.143459	1.636182	0.406299
C130	C	-0.833553	1.016559	-0.307482
C131	C	-0.500220	1.349892	0.025851
C132	C	-0.166886	1.683226	0.359185
C133	C	-0.880461	1.016561	-0.307493
C134	C	-0.547127	1.349894	0.025840
C135	C	-0.213794	1.683228	0.359174
N136	N	-0.903890	1.063607	-0.354599
N137	N	-0.570557	1.396940	-0.021265
N138	N	-0.237224	1.730273	0.312068
C139	C	-0.880402	1.110633	-0.401706
C140	C	-0.547069	1.443966	-0.068373
C141	C	-0.213736	1.777299	0.264961
C142	C	-0.453511	1.016405	-0.307489
C143	C	-0.120178	1.349738	0.025845
C144	C	0.213155	1.683072	0.359178
C145	C	-0.406594	1.016386	-0.307490
C146	C	-0.073260	1.349719	0.025843
C147	C	0.260073	1.683052	0.359177
C148	C	-0.406535	1.110460	-0.401707
C149	C	-0.073202	1.443794	-0.068374
C150	C	0.260131	1.777127	0.264959
C151	C	-0.453454	1.110476	-0.401709
C152	C	-0.120121	1.443809	-0.068376
C153	C	0.213213	1.777142	0.264957
C154	C	-0.476941	1.063451	-0.354595
C155	C	-0.143608	1.396784	-0.021261
C156	C	0.189725	1.730117	0.312072
C157	C	-0.978928	1.110658	-0.401708
C158	C	-0.645595	1.443992	-0.068375
C159	C	-0.312262	1.777325	0.264958
C160	C	-1.025848	1.110666	-0.401709
C161	C	-0.692515	1.443999	-0.068375
C162	C	-0.359181	1.777333	0.264958
C163	C	-1.025902	1.016594	-0.307489
C164	C	-0.692569	1.349928	0.025844
C165	C	-0.359235	1.683261	0.359178
C166	C	-0.978986	1.016583	-0.307491
C167	C	-0.645653	1.349917	0.025842
C168	C	-0.312320	1.683250	0.359176
C169	C	-0.955501	1.063621	-0.354603
C170	C	-0.622167	1.396955	-0.021270
C171	C	-0.288834	1.730288	0.312064
O172	O	-0.904787	0.976575	-0.267469
O173	O	-0.571454	1.309908	0.065864
O174	O	-0.238121	1.643241	0.399198
O175	O	-0.904645	1.150649	-0.441760
O176	O	-0.571312	1.483983	-0.108427
O177	O	-0.237979	1.817316	0.224907
C178	C	-0.692738	1.110571	-0.401700
C179	C	-0.359405	1.443904	-0.068366
C180	C	-0.026072	1.777237	0.264967
C181	C	-0.669311	1.063531	-0.354590
C182	C	-0.335977	1.396864	-0.021257
C183	C	-0.002644	1.730197	0.312077
C184	C	-0.692799	1.016505	-0.307483
C185	C	-0.359465	1.349838	0.025851
C186	C	-0.026132	1.683171	0.359184
C187	C	-0.622393	1.063511	-0.354591
C188	C	-0.289060	1.396844	-0.021258
C189	C	0.044274	1.730178	0.312075
C190	C	-0.598905	1.110537	-0.401698
C191	C	-0.265572	1.443870	-0.068365
C192	C	0.067762	1.777204	0.264968
C193	C	-0.622335	1.157583	-0.448804
C194	C	-0.289001	1.490916	-0.115471
C195	C	0.044332	1.824249	0.217863
C196	C	-0.669250	1.157597	-0.448807
C197	C	-0.335917	1.490930	-0.115473
C198	C	-0.002584	1.824263	0.217860
C199	C	-0.669369	0.969459	-0.260377
C200	C	-0.336036	1.302792	0.072956
C201	C	-0.002702	1.636126	0.406290
C202	C	-0.622453	0.969448	-0.260379
C203	C	-0.289120	1.302782	0.072954
C204	C	0.044213	1.636115	0.406288
C205	C	-0.598965	1.016474	-0.307486
C206	C	-0.265632	1.349808	0.025847
C207	C	0.067701	1.683141	0.359181
C208	C	-0.099270	1.063591	-0.354594
C209	C	0.234063	1.396925	-0.021261
C210	C	0.567396	1.730258	0.312073
C211	C	-0.049336	1.063640	-0.354602
C212	C	0.283997	1.396973	-0.021268
C213	C	0.617331	1.730307	0.312065
C214	C	-0.216418	1.063522	-0.546529
C215	C	0.116916	1.396856	-0.213195
C216	C	0.450249	1.730189	0.120138
C217	C	-0.216404	1.063542	-0.628328
C218	C	0.116929	1.396875	-0.294994
C219	C	0.450262	1.730208	0.038339
C220	C	-0.216463	1.255430	-0.354589
C221	C	0.116870	1.588764	-0.021256
C222	C	0.450204	1.922097	0.312078
C223	C	-0.216469	1.337229	-0.354595
C224	C	0.116864	1.670563	-0.021261
C225	C	0.450198	2.003896	0.312072
C226	C	-0.187648	1.110656	-0.816531
C227	C	0.145686	1.443989	-0.483197
C228	C	0.479019	1.777322	-0.149864
C229	C	-0.187634	1.110664	-0.893389
C230	C	0.145699	1.443998	-0.560056
C231	C	0.479032	1.777331	-0.226723
C232	C	-0.245092	1.016480	-0.893363
C233	C	0.088241	1.349813	-0.560029
C234	C	0.421575	1.683146	-0.226696
C235	C	-0.245102	1.016468	-0.816505
C236	C	0.088231	1.349801	-0.483172
C237	C	0.421564	1.683134	-0.149838
C238	C	-0.216381	1.063560	-0.778091
C239	C	0.116952	1.396893	-0.444758
C240	C	0.450286	1.730226	-0.111424
C241	C	-0.216357	1.063581	-0.931807
C242	C	0.116976	1.396914	-0.598474
C243	C	0.450309	1.730247	-0.265141
C244	C	-0.216343	1.063590	-1.015141
C245	C	0.116990	1.396923	-0.681808
C246	C	0.450323	1.730256	-0.348474
C247	C	-0.216394	1.063550	-0.694752
C248	C	0.116939	1.396883	-0.361419
C249	C	0.450273	1.730217	-0.028085
C250	C	-0.216447	1.063475	-0.163369
C251	C	0.116886	1.396809	0.169964
C252	C	0.450220	1.730142	0.503297
C253	C	-0.216334	1.063599	-0.081571
C254	C	0.117000	1.396932	0.251762
C255	C	0.450333	1.730265	0.585096
H256	H	-0.164390	0.633629	-0.440109
H257	H	0.168944	0.966962	-0.106775
H258	H	0.502277	1.300296	0.226558
H259	H	-0.164397	0.494202	-0.440112
H260	H	0.168936	0.827535	-0.106779
H261	H	0.502269	1.160869	0.226555
H262	H	-0.744137	0.931185	-0.222001
H263	H	-0.410803	1.264519	0.111333
H264	H	-0.077470	1.597852	0.444666
H265	H	-0.268516	0.494067	-0.269059
H266	H	0.064817	0.827400	0.064275
H267	H	0.398150	1.160733	0.397608
H268	H	-0.164259	1.148999	-0.785256
H269	H	0.169074	1.482332	-0.451923
H270	H	0.502407	1.815666	-0.118589
H271	H	-0.164236	1.149013	-0.924683
H272	H	0.169097	1.482347	-0.591350
H273	H	0.502431	1.815680	-0.258017
H274	H	-0.268477	0.978140	-0.924649
H275	H	0.064856	1.311474	-0.591315
H276	H	0.398190	1.644807	-0.257982
H277	H	-1.045034	0.978305	-0.269137
H278	H	-0.711701	1.311638	0.064196
H279	H	-0.378368	1.644972	0.397529
H280	H	-0.268500	0.978111	-0.785207
H281	H	0.064833	1.311445	-0.451874
H282	H	0.398166	1.644778	-0.118540
H283	H	-0.268510	0.633508	-0.269043
H284	H	0.064823	0.966842	0.064290
H285	H	0.398157	1.300175	0.397624
H286	H	-1.044920	1.148973	-0.440079
H287	H	-0.711587	1.482306	-0.106746
H288	H	-0.378254	1.815640	0.226587
H289	H	-0.959812	1.148962	-0.440070
H290	H	-0.626478	1.482295	-0.106737
H291	H	-0.293145	1.815628	0.226596
H292	H	-0.829067	1.195952	-0.487174
H293	H	-0.495734	1.529285	-0.153841
H294	H	-0.162400	1.862619	0.179493
H295	H	-0.743961	1.195922	-0.487172
H296	H	-0.410628	1.529256	-0.153839
H297	H	-0.077295	1.862589	0.179495
H298	H	-0.472526	1.148779	-0.440077
H299	H	-0.139192	1.482113	-0.106744
H300	H	0.194141	1.815446	0.226590
H301	H	-0.688488	0.931165	-0.222015
H302	H	-0.355155	1.264499	0.111319
H303	H	-0.021821	1.597832	0.444652
H304	H	-0.387404	1.148750	-0.440065
H305	H	-0.054070	1.482083	-0.106732
H306	H	0.279263	1.815416	0.226602
H307	H	-0.688321	1.195904	-0.487173
H308	H	-0.354987	1.529237	-0.153839
H309	H	-0.021654	1.862570	0.179494
H310	H	-0.387522	0.978070	-0.269134
H311	H	-0.054189	1.311404	0.064200
H312	H	0.279144	1.644737	0.397533
H313	H	-0.472630	0.978109	-0.269120
H314	H	-0.139297	1.311443	0.064213
H315	H	0.194036	1.644776	0.397546
H316	H	-0.829246	0.931222	-0.222000
H317	H	-0.495913	1.264556	0.111334
H318	H	-0.162580	1.597889	0.444667
H319	H	-0.959911	0.978269	-0.269134
H320	H	-0.626578	1.311602	0.064199
H321	H	-0.293245	1.644936	0.397533
H322	H	-0.603203	1.195871	-0.487163
H323	H	-0.269870	1.529204	-0.153830
H324	H	0.063463	1.862537	0.179503
H325	H	-0.603382	0.931133	-0.222015
H326	H	-0.270049	1.264467	0.111319
H327	H	0.063285	1.597800	0.444652
