data_functionalizedCrystal
_audit_creation_method	'MofGen! by Chris Wilmer'
_symmetry_space_group_name_H-M	'P1'
_symmetry_Int_Tables_number	1
_symmetry_cell_setting	triclinic
loop_
_symmetry_equiv_pos_as_xyz
  x,y,z
_cell_length_a	16.109301
_cell_length_b	12.996460
_cell_length_c	16.109301
_cell_angle_alpha	90.007568
_cell_angle_beta	83.461481
_cell_angle_gamma	90.002865
loop_
_atom_site_label
_atom_site_type_symbol
_atom_site_fract_x
_atom_site_fract_y
_atom_site_fract_z
O1	O	1.103133	0.085505	0.106869
O2	O	0.861071	0.085522	0.120168
O3	O	0.988752	0.085503	-0.007513
O4	O	0.975452	0.085524	0.234549
O5	O	0.988738	-0.085631	-0.007520
O6	O	0.861058	-0.085612	0.120161
O7	O	1.103120	-0.085629	0.106862
Cu8	Cu	0.982088	-0.101246	0.113511
Cu9	Cu	0.982103	0.101139	0.113519
O10	O	0.975439	-0.085609	0.234542
C11	C	0.830090	-0.000043	0.119626
C12	C	0.737794	-0.000037	0.118011
N13	N	0.982083	-0.243593	0.113504
C14	C	0.515522	-0.000042	0.190018
C15	C	0.428801	-0.000049	0.188494
C16	C	0.448676	-0.000059	0.037006
C17	C	0.535394	-0.000059	0.038530
C18	C	0.568815	-0.000046	0.115039
C19	C	0.395376	-0.000052	0.111990
C20	C	0.301350	-0.000059	0.110337
C21	C	0.662847	-0.000041	0.116693
C22	C	0.982102	-0.663408	0.113520
C23	C	0.982094	-0.546603	0.113518
C24	C	0.982093	-0.453504	0.113513
C25	C	0.982084	-0.336692	0.113510
C26	C	1.134101	-0.000062	0.107404
C27	C	1.226397	-0.000061	0.109019
C28	C	0.988206	-0.000065	-0.038491
C29	C	0.986591	-0.000066	-0.130786
N30	N	0.982115	0.243486	0.113519
C31	C	1.058599	-0.000055	-0.353059
C32	C	1.057075	-0.000046	-0.439779
C33	C	0.905586	-0.000040	-0.419905
C34	C	0.907111	-0.000041	-0.333186
C35	C	0.983620	-0.000054	-0.299766
C36	C	0.980571	-0.000044	-0.473205
C37	C	0.978918	-0.000035	-0.567231
C38	C	0.985273	-0.000061	-0.205734
C39	C	0.975984	-0.000040	0.265521
C40	C	0.977600	-0.000032	0.357816
H41	H	0.542730	-0.000039	0.252317
H42	H	0.385413	-0.000048	0.249550
C43	C	0.593222	0.000151	-0.042907
C44	C	0.578145	0.088207	-0.088960
C45	C	0.631407	0.088438	-0.163975
H46	H	0.583141	-0.059458	-0.074383
H47	H	0.649667	0.000205	-0.031075
H48	H	0.521714	0.088144	-0.100795
H49	H	0.588232	0.147830	-0.057510
H50	H	0.687852	0.088492	-0.152143
H51	H	0.621321	0.028825	-0.195443
H52	H	0.621190	0.148187	-0.195228
H53	H	1.118130	-0.000045	-0.483168
C54	C	0.412227	-0.000011	-0.045973
C55	C	0.324875	0.000021	-0.031263
C56	C	0.291273	0.000082	-0.107685
H57	H	0.430426	-0.059674	-0.076914
H58	H	0.430479	0.059690	-0.076847
H59	H	0.306631	-0.059674	-0.000402
H60	H	0.306653	0.059679	-0.000335
H61	H	0.309525	0.059782	-0.138559
H62	H	0.309478	-0.059583	-0.138619
H63	H	0.232002	0.000112	-0.097714
C64	C	0.822607	-0.000090	-0.456354
C65	C	0.837318	-0.000120	-0.543705
C66	C	0.760896	-0.000184	-0.577308
H67	H	0.791673	0.059572	-0.438146
H68	H	0.791727	-0.059792	-0.438110
H69	H	0.868185	0.059576	-0.561941
H70	H	0.868239	-0.059777	-0.561936
H71	H	0.730016	-0.059886	-0.559064
H72	H	0.729967	0.059479	-0.559094
H73	H	0.770866	-0.000214	-0.636578
C74	C	1.141748	-0.000001	-0.316934
C75	C	1.207084	0.000030	-0.382171
C76	C	1.283694	0.000099	-0.348928
H77	H	1.145613	-0.059662	-0.283536
H78	H	1.145535	0.059702	-0.283536
H79	H	1.203298	-0.059667	-0.415555
H80	H	1.203246	0.059687	-0.415574
H81	H	1.287481	0.059802	-0.315530
H82	H	1.287550	-0.059563	-0.315531
H83	H	1.328033	0.000130	-0.393186
C84	C	0.825610	-0.000093	-0.275456
C85	C	0.758280	-0.000117	-0.323283
C86	C	0.683194	-0.000174	-0.270131
H87	H	0.822943	0.059570	-0.241190
H88	H	0.823009	-0.059794	-0.241231
H89	H	0.760880	0.059579	-0.357493
H90	H	0.760920	-0.059775	-0.357547
H91	H	0.680593	-0.059875	-0.235906
H92	H	0.680535	0.059490	-0.235867
H93	H	0.637502	-0.000200	-0.302573
