data_functionalizedCrystal
_audit_creation_method	'MofGen! by Chris Wilmer'
_symmetry_space_group_name_H-M	'P1'
_symmetry_Int_Tables_number	1
_symmetry_cell_setting	triclinic
loop_
_symmetry_equiv_pos_as_xyz
  x,y,z
_cell_length_a	25.639243
_cell_length_b	25.639240
_cell_length_c	25.639234
_cell_angle_alpha	90.026973
_cell_angle_beta	90.023193
_cell_angle_gamma	90.045843
loop_
_atom_site_label
_atom_site_type_symbol
_atom_site_fract_x
_atom_site_fract_y
_atom_site_fract_z
Zn1	Zn	-0.799246	0.208145	-0.295649
Zn2	Zn	-0.549246	0.458145	-0.045649
Zn3	Zn	-0.299246	0.708145	0.204351
Zn4	Zn	-0.049246	0.958145	0.454351
Zn5	Zn	-0.799152	0.295573	-0.208210
Zn6	Zn	-0.549152	0.545573	0.041790
Zn7	Zn	-0.299152	0.795573	0.291790
Zn8	Zn	-0.049152	1.045573	0.541790
Zn9	Zn	-0.711811	0.208158	-0.208222
Zn10	Zn	-0.461811	0.458158	0.041778
Zn11	Zn	-0.211811	0.708158	0.291778
Zn12	Zn	0.038189	0.958158	0.541778
Zn13	Zn	-0.711760	0.295556	-0.295609
Zn14	Zn	-0.461760	0.545556	-0.045609
Zn15	Zn	-0.211760	0.795556	0.204391
Zn16	Zn	0.038240	1.045556	0.454391
O17	O	-0.755492	0.251858	-0.251923
O18	O	-0.505492	0.501858	-0.001923
O19	O	-0.255492	0.751858	0.248077
O20	O	-0.005492	1.001858	0.498077
O21	O	-0.872399	0.219745	-0.284061
O22	O	-0.622399	0.469745	-0.034061
O23	O	-0.372399	0.719745	0.215939
O24	O	-0.122399	0.969745	0.465939
O25	O	-0.787547	0.283990	-0.135046
O26	O	-0.537547	0.533990	0.114954
O27	O	-0.287547	0.783990	0.364954
O28	O	-0.037547	1.033990	0.614954
O29	O	-0.723470	0.134991	-0.219841
O30	O	-0.473470	0.384991	0.030159
O31	O	-0.223470	0.634991	0.280159
O32	O	0.026530	0.884991	0.530159
O33	O	-0.872329	0.283978	-0.219820
O34	O	-0.622329	0.533978	0.030180
O35	O	-0.372329	0.783978	0.280180
O36	O	-0.122329	1.033978	0.530180
O37	O	-0.787708	0.134982	-0.284073
O38	O	-0.537708	0.384982	-0.034073
O39	O	-0.287708	0.634982	0.215927
O40	O	-0.037708	0.884982	0.465927
O41	O	-0.723379	0.219767	-0.135055
O42	O	-0.473379	0.469767	0.114945
O43	O	-0.223379	0.719767	0.364945
O44	O	0.026621	0.969767	0.614945
O45	O	-0.638639	0.219749	-0.219803
O46	O	-0.388639	0.469749	0.030197
O47	O	-0.138639	0.719749	0.280197
O48	O	0.111361	0.969749	0.530197
O49	O	-0.723384	0.283948	-0.368780
O50	O	-0.473384	0.533948	-0.118780
O51	O	-0.223384	0.783948	0.131220
O52	O	0.026616	1.033948	0.381220
O53	O	-0.638602	0.283960	-0.284006
O54	O	-0.388602	0.533960	-0.034006
O55	O	-0.138602	0.783960	0.215994
O56	O	0.111398	1.033960	0.465994
O57	O	-0.787659	0.219728	-0.368809
O58	O	-0.537659	0.469728	-0.118809
O59	O	-0.287659	0.719728	0.131191
O60	O	-0.037659	0.969728	0.381191
O61	O	-0.787498	0.368736	-0.219782
O62	O	-0.537498	0.618736	0.030218
O63	O	-0.287498	0.868736	0.280218
O64	O	-0.037498	1.118736	0.530218
O65	O	-0.723292	0.368723	-0.283994
O66	O	-0.473292	0.618723	-0.033994
O67	O	-0.223292	0.868723	0.216006
O68	O	0.026708	1.118723	0.466006
C69	C	-0.619650	0.251854	-0.251902
C70	C	-0.369650	0.501854	-0.001902
C71	C	-0.119650	0.751854	0.248098
C72	C	0.130350	1.001854	0.498098
C73	C	-0.561536	0.251865	-0.251905
C74	C	-0.311536	0.501865	-0.001905
C75	C	-0.061536	0.751865	0.248095
C76	C	0.188464	1.001865	0.498095
C77	C	-0.201203	0.218464	-0.285428
C78	C	0.048797	0.468464	-0.035428
C79	C	0.298797	0.718464	0.214572
C80	C	0.548797	0.968464	0.464572
C81	C	-0.146599	0.218463	-0.285431
C82	C	0.103401	0.468463	-0.035431
C83	C	0.353401	0.718463	0.214569
C84	C	0.603401	0.968463	0.464569
O85	O	-0.118388	0.190055	-0.313908
O86	O	0.131612	0.440055	-0.063908
O87	O	0.381612	0.690055	0.186092
O88	O	0.631612	0.940055	0.436092
N89	N	-0.119253	0.251856	-0.251936
N90	N	0.130747	0.501856	-0.001936
N91	N	0.380747	0.751856	0.248064
N92	N	0.630747	1.001856	0.498064
C93	C	-0.146515	0.285247	-0.218432
C94	C	0.103485	0.535247	0.031568
C95	C	0.353485	0.785247	0.281568
C96	C	0.603485	1.035247	0.531568
O97	O	-0.118241	0.313650	-0.189942
O98	O	0.131759	0.563650	0.060058
O99	O	0.381759	0.813650	0.310058
O100	O	0.631759	1.063650	0.560058
C101	C	-0.201118	0.285245	-0.218427
C102	C	0.048882	0.535245	0.031573
C103	C	0.298882	0.785245	0.281573
C104	C	0.548882	1.035245	0.531573
C105	C	-0.228461	0.251854	-0.251928
C106	C	0.021539	0.501854	-0.001928
C107	C	0.271539	0.751854	0.248072
C108	C	0.521539	1.001854	0.498072
C109	C	-0.228546	0.185075	-0.318926
C110	C	0.021454	0.435075	-0.068926
C111	C	0.271454	0.685075	0.181074
C112	C	0.521454	0.935075	0.431074
C113	C	-0.283146	0.185077	-0.318923
C114	C	-0.033146	0.435077	-0.068923
C115	C	0.216854	0.685077	0.181077
C116	C	0.466854	0.935077	0.431077
C117	C	-0.310404	0.218467	-0.285423
C118	C	-0.060404	0.468467	-0.035423
C119	C	0.189596	0.718467	0.214577
C120	C	0.439596	0.968467	0.464577
C121	C	-0.283061	0.251855	-0.251925
C122	C	-0.033061	0.501855	-0.001925
C123	C	0.216939	0.751855	0.248075
C124	C	0.466939	1.001855	0.498075
C125	C	-0.228379	0.318633	-0.184921
C126	C	0.021621	0.568633	0.065079
C127	C	0.271621	0.818633	0.315079
C128	C	0.521621	1.068633	0.565079
C129	C	-0.282986	0.318628	-0.184918
C130	C	-0.032986	0.568628	0.065082
C131	C	0.217014	0.818628	0.315082
C132	C	0.467014	1.068628	0.565082
C133	C	-0.310328	0.285237	-0.218419
C134	C	-0.060328	0.535237	0.031581
C135	C	0.189672	0.785237	0.281581
C136	C	0.439672	1.035237	0.531581
C137	C	-0.364920	0.285247	-0.218422
C138	C	-0.114920	0.535247	0.031578
C139	C	0.135080	0.785247	0.281578
C140	C	0.385080	1.035247	0.531578
N141	N	-0.392265	0.251854	-0.251917
N142	N	-0.142265	0.501854	-0.001917
N143	N	0.107735	0.751854	0.248083
N144	N	0.357735	1.001854	0.498083
C145	C	-0.365008	0.218464	-0.285417
C146	C	-0.115008	0.468464	-0.035417
C147	C	0.134992	0.718464	0.214583
C148	C	0.384992	0.968464	0.464583
C149	C	-0.031844	0.285250	-0.218446
C150	C	0.218156	0.535250	0.031554
C151	C	0.468156	0.785250	0.281554
C152	C	0.718156	1.035250	0.531554
C153	C	0.022758	0.285255	-0.218453
C154	C	0.272758	0.535255	0.031547
C155	C	0.522758	0.785255	0.281547
C156	C	0.772758	1.035255	0.531547
C157	C	0.022670	0.218470	-0.285452
C158	C	0.272670	0.468470	-0.035452
C159	C	0.522670	0.718470	0.214548
C160	C	0.772670	0.968470	0.464548
C161	C	-0.031933	0.218468	-0.285446
C162	C	0.218067	0.468468	-0.035446
C163	C	0.468067	0.718468	0.214554
C164	C	0.718067	0.968468	0.464554
C165	C	-0.059190	0.251857	-0.251941
C166	C	0.190810	0.501857	-0.001941
C167	C	0.440810	0.751857	0.248059
C168	C	0.690810	1.001857	0.498059
C169	C	-0.479673	0.218470	-0.285410
C170	C	-0.229673	0.468470	-0.035410
C171	C	0.020327	0.718470	0.214590
C172	C	0.270327	0.968470	0.464590
C173	C	-0.534278	0.218475	-0.285406
C174	C	-0.284278	0.468475	-0.035406
C175	C	-0.034278	0.718475	0.214594
C176	C	0.215722	0.968475	0.464594
C177	C	-0.534185	0.285258	-0.218406
C178	C	-0.284185	0.535258	0.031594
C179	C	-0.034185	0.785258	0.281594
C180	C	0.215815	1.035258	0.531594
C181	C	-0.479585	0.285254	-0.218411
C182	C	-0.229585	0.535254	0.031589
C183	C	0.020415	0.785254	0.281589
C184	C	0.270415	1.035254	0.531589
C185	C	-0.452330	0.251856	-0.251915
C186	C	-0.202330	0.501856	-0.001915
C187	C	0.047670	0.751856	0.248085
C188	C	0.297670	1.001856	0.498085
O189	O	-0.393165	0.313639	-0.189958
O190	O	-0.143165	0.563639	0.060042
O191	O	0.106835	0.813639	0.310042
O192	O	0.356835	1.063639	0.560042
O193	O	-0.393288	0.190061	-0.313898
O194	O	-0.143288	0.440061	-0.063898
O195	O	0.106712	0.690061	0.186102
O196	O	0.356712	0.940061	0.436102
C197	C	-0.755394	0.387701	-0.251894
C198	C	-0.505394	0.637701	-0.001894
C199	C	-0.255394	0.887701	0.248106
C200	C	-0.005394	1.137701	0.498106
C201	C	-0.755399	0.445815	-0.251899
C202	C	-0.505399	0.695815	-0.001899
C203	C	-0.255399	0.945815	0.248101
C204	C	-0.005399	1.195815	0.498101
C205	C	0.108135	0.251862	-0.251944
C206	C	0.358135	0.501862	-0.001944
C207	C	0.608135	0.751862	0.248056
C208	C	0.858135	1.001862	0.498056
C209	C	0.050021	0.251863	-0.251952
C210	C	0.300021	0.501863	-0.001952
C211	C	0.550021	0.751863	0.248048
C212	C	0.800021	1.001863	0.498048
C213	C	-0.788968	0.806172	-0.218524
C214	C	-0.538968	1.056172	0.031476
C215	C	-0.288968	1.306172	0.281476
C216	C	-0.038968	1.556172	0.531476
C217	C	-0.788984	0.860776	-0.218529
C218	C	-0.538984	1.110776	0.031471
C219	C	-0.288984	1.360776	0.281471
C220	C	-0.038984	1.610776	0.531471
O221	O	-0.817456	0.889008	-0.190137
O222	O	-0.567456	1.139008	0.059863
O223	O	-0.317456	1.389008	0.309863
O224	O	-0.067456	1.639008	0.559863
N225	N	-0.755534	0.888097	-0.251934
N226	N	-0.505534	1.138097	-0.001934
N227	N	-0.255534	1.388097	0.248066
N228	N	-0.005534	1.638097	0.498066
C229	C	-0.722070	0.860811	-0.285340
C230	C	-0.472070	1.110811	-0.035340
C231	C	-0.222070	1.360811	0.214660
C232	C	0.027930	1.610811	0.464660
O233	O	-0.693621	0.889063	-0.313754
O234	O	-0.443621	1.139063	-0.063754
O235	O	-0.193621	1.389063	0.186246
O236	O	0.056379	1.639063	0.436246
C237	C	-0.722057	0.806207	-0.285337
C238	C	-0.472057	1.056207	-0.035337
C239	C	-0.222057	1.306207	0.214663
C240	C	0.027943	1.556207	0.464663
C241	C	-0.755506	0.778889	-0.251927
C242	C	-0.505506	1.028889	-0.001927
C243	C	-0.255506	1.278889	0.248073
C244	C	-0.005506	1.528889	0.498073
C245	C	-0.822414	0.778854	-0.185117
C246	C	-0.572414	1.028854	0.064883
C247	C	-0.322414	1.278854	0.314883
C248	C	-0.072414	1.528854	0.564883
C249	C	-0.822397	0.724253	-0.185111
C250	C	-0.572397	0.974253	0.064889
C251	C	-0.322397	1.224253	0.314889
C252	C	-0.072397	1.474253	0.564889
C253	C	-0.788935	0.696971	-0.218513
C254	C	-0.538935	0.946971	0.031487
C255	C	-0.288935	1.196971	0.281487
C256	C	-0.038935	1.446971	0.531487
C257	C	-0.755489	0.724289	-0.251921
C258	C	-0.505489	0.974289	-0.001921
C259	C	-0.255489	1.224289	0.248079
C260	C	-0.005489	1.474289	0.498079
C261	C	-0.688596	0.778922	-0.318745
C262	C	-0.438596	1.028922	-0.068745
C263	C	-0.188596	1.278922	0.181255
C264	C	0.061404	1.528922	0.431255
C265	C	-0.688586	0.724315	-0.318740
C266	C	-0.438586	0.974315	-0.068740
C267	C	-0.188586	1.224315	0.181260
C268	C	0.061414	1.474315	0.431260
C269	C	-0.722035	0.696997	-0.285329
C270	C	-0.472035	0.946997	-0.035329
C271	C	-0.222035	1.196997	0.214671
C272	C	0.027965	1.446997	0.464671
C273	C	-0.722009	0.642406	-0.285317
C274	C	-0.472009	0.892406	-0.035317
C275	C	-0.222009	1.142406	0.214683
C276	C	0.027991	1.392406	0.464683
N277	N	-0.755459	0.615085	-0.251913
N278	N	-0.505459	0.865085	-0.001913
N279	N	-0.255459	1.115085	0.248087
N280	N	-0.005459	1.365085	0.498087
C281	C	-0.788922	0.642368	-0.218511
C282	C	-0.538922	0.892368	0.031489
C283	C	-0.288922	1.142368	0.281489
C284	C	-0.038922	1.392368	0.531489
C285	C	-0.722101	0.975481	-0.285344
C286	C	-0.472101	1.225481	-0.035344
C287	C	-0.222101	1.475481	0.214656
C288	C	0.027899	1.725481	0.464656
C289	C	-0.722111	1.030084	-0.285344
C290	C	-0.472111	1.280084	-0.035344
C291	C	-0.222111	1.530084	0.214656
C292	C	0.027889	1.780084	0.464656
C293	C	-0.789025	1.030045	-0.218534
C294	C	-0.539025	1.280045	0.031466
C295	C	-0.289025	1.530045	0.281466
C296	C	-0.039025	1.780045	0.531466
C297	C	-0.789012	0.975442	-0.218532
C298	C	-0.539012	1.225442	0.031468
C299	C	-0.289012	1.475442	0.281468
C300	C	-0.039012	1.725442	0.531468
C301	C	-0.755550	0.948161	-0.251939
C302	C	-0.505550	1.198161	-0.001939
C303	C	-0.255550	1.448161	0.248061
C304	C	-0.005550	1.698161	0.498061
C305	C	-0.788883	0.527703	-0.218501
C306	C	-0.538883	0.777703	0.031499
C307	C	-0.288883	1.027703	0.281499
C308	C	-0.038883	1.277703	0.531499
C309	C	-0.788862	0.473097	-0.218497
C310	C	-0.538862	0.723097	0.031503
C311	C	-0.288862	0.973097	0.281503
C312	C	-0.038862	1.223097	0.531503
C313	C	-0.721950	0.473140	-0.285309
C314	C	-0.471950	0.723140	-0.035309
C315	C	-0.221950	0.973140	0.214691
C316	C	0.028050	1.223140	0.464691
C317	C	-0.721969	0.527741	-0.285311
C318	C	-0.471969	0.777741	-0.035311
C319	C	-0.221969	1.027741	0.214689
C320	C	0.028031	1.277741	0.464689
C321	C	-0.755440	0.555021	-0.251906
C322	C	-0.505440	0.805021	-0.001906
C323	C	-0.255440	1.055021	0.248094
C324	C	-0.005440	1.305021	0.498094
O325	O	-0.693553	0.614139	-0.313697
O326	O	-0.443553	0.864139	-0.063697
O327	O	-0.193553	1.114139	0.186303
O328	O	0.056447	1.364139	0.436303
O329	O	-0.817371	0.614108	-0.190106
O330	O	-0.567371	0.864108	0.059894
O331	O	-0.317371	1.114108	0.309894
O332	O	-0.067371	1.364108	0.559894
C333	C	-0.755526	0.251834	-0.388296
C334	C	-0.505526	0.501834	-0.138296
C335	C	-0.255526	0.751834	0.111704
C336	C	-0.005526	1.001834	0.361704
C337	C	-0.755541	0.251824	-0.446410
C338	C	-0.505541	0.501824	-0.196410
C339	C	-0.255541	0.751824	0.053590
C340	C	-0.005541	1.001824	0.303590
C341	C	-0.755586	1.115485	-0.251954
C342	C	-0.505586	1.365485	-0.001954
C343	C	-0.255586	1.615485	0.248046
C344	C	-0.005586	1.865485	0.498046
C345	C	-0.755576	1.057371	-0.251944
C346	C	-0.505576	1.307371	-0.001944
C347	C	-0.255576	1.557371	0.248056
C348	C	-0.005576	1.807371	0.498056
C349	C	-0.722143	0.218320	-0.806783
C350	C	-0.472143	0.468320	-0.556783
C351	C	-0.222143	0.718320	-0.306783
C352	C	0.027857	0.968320	-0.056783
C353	C	-0.722146	0.218311	-0.861388
C354	C	-0.472146	0.468311	-0.611388
C355	C	-0.222146	0.718311	-0.361388
C356	C	0.027854	0.968311	-0.111388
O357	O	-0.693723	0.189883	-0.889633
O358	O	-0.443723	0.439883	-0.639633
O359	O	-0.193723	0.689883	-0.389633
O360	O	0.056277	0.939883	-0.139633
N361	N	-0.755558	0.251742	-0.888692
N362	N	-0.505558	0.501742	-0.638692
N363	N	-0.255558	0.751742	-0.388692
N364	N	-0.005558	1.001742	-0.138692
C365	C	-0.788966	0.285188	-0.861390
C366	C	-0.538966	0.535188	-0.611390
C367	C	-0.288966	0.785188	-0.361390
C368	C	-0.038966	1.035188	-0.111390
O369	O	-0.817386	0.313624	-0.889629
O370	O	-0.567386	0.563624	-0.639629
O371	O	-0.317386	0.813624	-0.389629
O372	O	-0.067386	1.063624	-0.139629
C373	C	-0.788960	0.285200	-0.806787
C374	C	-0.538960	0.535200	-0.556787
C375	C	-0.288960	0.785200	-0.306787
C376	C	-0.038960	1.035200	-0.056787
C377	C	-0.755549	0.251763	-0.779485
C378	C	-0.505549	0.501763	-0.529485
C379	C	-0.255549	0.751763	-0.279485
C380	C	-0.005549	1.001763	-0.029485
C381	C	-0.688734	0.184887	-0.779481
C382	C	-0.438734	0.434887	-0.529481
C383	C	-0.188734	0.684887	-0.279481
C384	C	0.061266	0.934887	-0.029481
C385	C	-0.688732	0.184895	-0.724880
C386	C	-0.438732	0.434895	-0.474880
C387	C	-0.188732	0.684895	-0.224880
C388	C	0.061268	0.934895	0.025120
C389	C	-0.722139	0.218338	-0.697582
C390	C	-0.472139	0.468338	-0.447582
C391	C	-0.222139	0.718338	-0.197582
C392	C	0.027861	0.968338	0.052418
C393	C	-0.755547	0.251772	-0.724884
C394	C	-0.505547	0.501772	-0.474884
C395	C	-0.255547	0.751772	-0.224884
C396	C	-0.005547	1.001772	0.025116
C397	C	-0.822365	0.318649	-0.779486
C398	C	-0.572365	0.568649	-0.529486
C399	C	-0.322365	0.818649	-0.279486
C400	C	-0.072365	1.068649	-0.029486
C401	C	-0.822356	0.318658	-0.724879
C402	C	-0.572356	0.568658	-0.474879
C403	C	-0.322356	0.818658	-0.224879
C404	C	-0.072356	1.068658	0.025121
C405	C	-0.788945	0.285221	-0.697576
C406	C	-0.538945	0.535221	-0.447576
C407	C	-0.288945	0.785221	-0.197576
C408	C	-0.038945	1.035221	0.052424
C409	C	-0.788952	0.285224	-0.642985
C410	C	-0.538952	0.535224	-0.392985
C411	C	-0.288952	0.785224	-0.142985
C412	C	-0.038952	1.035224	0.107015
N413	N	-0.755540	0.251793	-0.615680
N414	N	-0.505540	0.501793	-0.365680
N415	N	-0.255540	0.751793	-0.115680
N416	N	-0.005540	1.001793	0.134320
C417	C	-0.722133	0.218350	-0.642979
C418	C	-0.472133	0.468350	-0.392979
C419	C	-0.222133	0.718350	-0.142979
C420	C	0.027867	0.968350	0.107021
C421	C	-0.788975	0.285162	-0.976061
C422	C	-0.538975	0.535162	-0.726061
C423	C	-0.288975	0.785162	-0.476061
C424	C	-0.038975	1.035162	-0.226061
C425	C	-0.788984	0.285148	-1.030663
C426	C	-0.538984	0.535148	-0.780663
C427	C	-0.288984	0.785148	-0.530663
C428	C	-0.038984	1.035148	-0.280663
C429	C	-0.722163	0.218271	-1.030657
C430	C	-0.472163	0.468271	-0.780657
C431	C	-0.222163	0.718271	-0.530657
C432	C	0.027837	0.968271	-0.280657
C433	C	-0.722157	0.218283	-0.976053
C434	C	-0.472157	0.468283	-0.726053
C435	C	-0.222157	0.718283	-0.476053
C436	C	0.027843	0.968283	-0.226053
C437	C	-0.755563	0.251731	-0.948756
C438	C	-0.505563	0.501731	-0.698756
C439	C	-0.255563	0.751731	-0.448756
C440	C	-0.005563	1.001731	-0.198756
C441	C	-0.722132	0.218371	-0.528314
C442	C	-0.472132	0.468371	-0.278314
C443	C	-0.222132	0.718371	-0.028314
C444	C	0.027868	0.968371	0.221686
C445	C	-0.722134	0.218381	-0.473708
C446	C	-0.472134	0.468381	-0.223708
C447	C	-0.222134	0.718381	0.026292
C448	C	0.027866	0.968381	0.276292
C449	C	-0.788953	0.285260	-0.473719
C450	C	-0.538953	0.535260	-0.223719
C451	C	-0.288953	0.785260	0.026281
C452	C	-0.038953	1.035260	0.276281
C453	C	-0.788953	0.285248	-0.528320
C454	C	-0.538953	0.535248	-0.278320
C455	C	-0.288953	0.785248	-0.028320
C456	C	-0.038953	1.035248	0.221680
C457	C	-0.755538	0.251802	-0.555616
C458	C	-0.505538	0.501802	-0.305616
C459	C	-0.255538	0.751802	-0.055616
C460	C	-0.005538	1.001802	0.194384
O461	O	-0.817359	0.313639	-0.614705
O462	O	-0.567359	0.563639	-0.364705
O463	O	-0.317359	0.813639	-0.114705
O464	O	-0.067359	1.063639	0.135295
O465	O	-0.693713	0.189924	-0.614733
O466	O	-0.443713	0.439924	-0.364733
O467	O	-0.193713	0.689924	-0.114733
O468	O	0.056287	0.939924	0.135267
C469	C	-0.755489	0.251844	-0.116080
C470	C	-0.505489	0.501844	0.133920
C471	C	-0.255489	0.751844	0.383920
C472	C	-0.005489	1.001844	0.633920
C473	C	-0.755575	0.251707	-0.057966
C474	C	-0.505575	0.501707	0.192034
C475	C	-0.255575	0.751707	0.442034
C476	C	-0.005575	1.001707	0.692034
H477	H	-0.054192	0.191277	-0.312725
H478	H	0.195808	0.441277	-0.062725
H479	H	0.445808	0.691277	0.187275
H480	H	0.695808	0.941277	0.437275
H481	H	-0.305404	0.157885	-0.346202
H482	H	-0.055404	0.407885	-0.096202
H483	H	0.194596	0.657885	0.153798
H484	H	0.444596	0.907885	0.403798
F485	F	-0.060848	0.320792	-0.182784
F486	F	0.189152	0.570792	0.067216
F487	F	0.439152	0.820792	0.317216
F488	F	0.689152	1.070792	0.567216
H489	H	-0.694734	0.549984	-0.312518
H490	H	-0.444734	0.799984	-0.062518
H491	H	-0.194734	1.049984	0.187482
H492	H	0.055266	1.299984	0.437482
F493	F	-0.686607	0.182679	-1.059719
F494	F	-0.436607	0.432679	-0.809719
F495	F	-0.186607	0.682679	-0.559719
F496	F	0.063393	0.932679	-0.309719
F497	F	-0.824508	0.320848	-0.444657
F498	F	-0.574508	0.570848	-0.194657
F499	F	-0.324508	0.820848	0.055343
F500	F	-0.074508	1.070848	0.305343
H501	H	-0.816197	0.312370	-1.052888
H502	H	-0.566197	0.562370	-0.802888
H503	H	-0.316197	0.812370	-0.552888
H504	H	-0.066197	1.062370	-0.302888
F505	F	-0.857911	0.354261	-0.695830
F506	F	-0.607911	0.604261	-0.445830
F507	F	-0.357911	0.854261	-0.195830
F508	F	-0.107911	1.104261	0.054170
F509	F	-0.824521	0.320827	-0.557378
F510	F	-0.574521	0.570827	-0.307378
F511	F	-0.324521	0.820827	-0.057378
F512	F	-0.074521	1.070827	0.192622
H513	H	-0.816100	0.450856	-0.191288
H514	H	-0.566100	0.700856	0.058712
H515	H	-0.316100	0.950856	0.308712
H516	H	-0.066100	1.200856	0.558712
H517	H	-0.694703	0.450918	-0.312503
H518	H	-0.444703	0.700918	-0.062503
H519	H	-0.194703	0.950918	0.187497
H520	H	0.055297	1.200918	0.437497
H521	H	-0.206358	0.157882	-0.346206
H522	H	0.043642	0.407882	-0.096206
H523	H	0.293642	0.657882	0.153794
H524	H	0.543642	0.907882	0.403794
F525	F	-0.199290	0.354165	-0.149256
F526	F	0.050710	0.604165	0.100744
F527	F	0.300710	0.854165	0.350744
F528	F	0.550710	1.104165	0.600744
H529	H	-0.849572	0.345877	-0.801706
H530	H	-0.599572	0.595877	-0.551706
H531	H	-0.349572	0.845877	-0.301706
H532	H	-0.099572	1.095877	-0.051706
F533	F	-0.824612	0.946373	-0.182972
F534	F	-0.574612	1.196373	0.067028
F535	F	-0.324612	1.446373	0.317028
F536	F	-0.074612	1.696373	0.567028
F537	F	-0.858004	0.695186	-0.149557
F538	F	-0.608004	0.945186	0.100443
F539	F	-0.358004	1.195186	0.350443
F540	F	-0.108004	1.445186	0.600443
F541	F	0.051690	0.182932	-0.321105
F542	F	0.301690	0.432932	-0.071105
F543	F	0.551690	0.682932	0.178895
F544	F	0.801690	0.932932	0.428895
F545	F	-0.686480	0.946451	-0.320900
F546	F	-0.436480	1.196451	-0.070900
F547	F	-0.186480	1.446451	0.179100
F548	F	0.063520	1.696451	0.429100
H549	H	-0.694951	0.191055	-0.953828
H550	H	-0.444951	0.441055	-0.703828
H551	H	-0.194951	0.691055	-0.453828
H552	H	0.055049	0.941055	-0.203828
F553	F	-0.686573	0.182790	-0.444654
F554	F	-0.436573	0.432790	-0.194654
F555	F	-0.186573	0.682790	0.055346
F556	F	0.063427	0.932790	0.305346
H557	H	-0.556538	0.191284	-0.312688
H558	H	-0.306538	0.441284	-0.062688
H559	H	-0.056538	0.691284	0.187312
H560	H	0.193462	0.941284	0.437312
H561	H	-0.849666	0.801062	-0.157917
H562	H	-0.599666	1.051062	0.092083
H563	H	-0.349666	1.301062	0.342083
H564	H	-0.099666	1.551062	0.592083
H565	H	-0.305175	0.345817	-0.157632
H566	H	-0.055175	0.595817	0.092368
H567	H	0.194825	0.845817	0.342368
H568	H	0.444825	1.095817	0.592368
F569	F	-0.450484	0.320806	-0.182769
F570	F	-0.200484	0.570806	0.067231
F571	F	0.049516	0.820806	0.317231
F572	F	0.299516	1.070806	0.567231
H573	H	-0.816185	0.312396	-0.953839
H574	H	-0.566185	0.562396	-0.703839
H575	H	-0.316185	0.812396	-0.453839
H576	H	-0.066185	1.062396	-0.203839
F577	F	-0.563205	0.320793	-0.182755
F578	F	-0.313205	0.570793	0.067245
F579	F	-0.063205	0.820793	0.317245
F580	F	0.186795	1.070793	0.567245
F581	F	-0.450673	0.182923	-0.321068
F582	F	-0.200673	0.432923	-0.071068
F583	F	0.049327	0.682923	0.178932
F584	F	0.299327	0.932923	0.428932
H585	H	0.045016	0.312451	-0.191180
H586	H	0.295016	0.562451	0.058820
H587	H	0.545016	0.812451	0.308820
H588	H	0.795016	1.062451	0.558820
H589	H	-0.661357	0.801155	-0.345949
H590	H	-0.411357	1.051155	-0.095949
H591	H	-0.161357	1.301155	0.154051
H592	H	0.088643	1.551155	0.404051
H593	H	-0.694869	1.052321	-0.312546
H594	H	-0.444869	1.302321	-0.062546
H595	H	-0.194869	1.552321	0.187454
H596	H	0.055131	1.802321	0.437454
F597	F	-0.824507	0.556728	-0.182947
F598	F	-0.574507	0.806728	0.067053
F599	F	-0.324507	1.056728	0.317053
F600	F	-0.074507	1.306728	0.567053
F601	F	-0.824639	1.059091	-0.182984
F602	F	-0.574639	1.309091	0.067016
F603	F	-0.324639	1.559091	0.317016
F604	F	-0.074639	1.809091	0.567016
F605	F	-0.652972	0.695283	-0.354299
F606	F	-0.402972	0.945283	-0.104299
F607	F	-0.152972	1.195283	0.145701
F608	F	0.097028	1.445283	0.395701
H609	H	-0.694922	0.191135	-0.550531
H610	H	-0.444922	0.441135	-0.300531
H611	H	-0.194922	0.691135	-0.050531
H612	H	0.055078	0.941135	0.199469
H613	H	-0.661528	0.157653	-0.801702
H614	H	-0.411528	0.407653	-0.551702
H615	H	-0.161528	0.657653	-0.301702
H616	H	0.088472	0.907653	-0.051702
F617	F	-0.653169	0.149309	-0.695830
F618	F	-0.403169	0.399309	-0.445830
F619	F	-0.153169	0.649309	-0.195830
F620	F	0.096831	0.899309	0.054170
