data_functionalizedCrystal
_audit_creation_method	'MofGen! by Chris Wilmer'
_symmetry_space_group_name_H-M	'P1'
_symmetry_Int_Tables_number	1
_symmetry_cell_setting	triclinic
loop_
_symmetry_equiv_pos_as_xyz
  x,y,z
_cell_length_a	19.077236
_cell_length_b	19.076808
_cell_length_c	19.076919
_cell_angle_alpha	90.121640
_cell_angle_beta	90.112677
_cell_angle_gamma	94.519737
loop_
_atom_site_label
_atom_site_type_symbol
_atom_site_fract_x
_atom_site_fract_y
_atom_site_fract_z
Zn1	Zn	1.048453	-0.255469	0.429870
Zn2	Zn	1.548453	0.244531	0.929870
Zn3	Zn	1.048749	-0.368252	0.307652
Zn4	Zn	1.548749	0.131748	0.807652
Zn5	Zn	0.935682	-0.255100	0.307665
Zn6	Zn	1.435682	0.244900	0.807665
Zn7	Zn	0.926207	-0.377641	0.419997
Zn8	Zn	1.426207	0.122359	0.919997
O9	O	0.989773	-0.314115	0.366296
O10	O	1.489773	0.185885	0.866296
O11	O	1.146971	-0.266655	0.417783
O12	O	1.646971	0.233345	0.917783
O13	O	1.037840	-0.349158	0.209493
O14	O	1.537840	0.150842	0.709493
O15	O	0.954483	-0.156664	0.328013
O16	O	1.454483	0.343336	0.828013
O17	O	1.147189	-0.349516	0.327990
O18	O	1.647189	0.150484	0.827990
O19	O	1.037335	-0.156935	0.417796
O20	O	1.537335	0.343065	0.917796
O21	O	0.954771	-0.266026	0.209503
O22	O	1.454771	0.233974	0.709503
O23	O	0.835946	-0.275130	0.318440
O24	O	1.335946	0.224870	0.818440
O25	O	0.938333	-0.365518	0.519467
O26	O	1.438333	0.134482	1.019467
O27	O	0.828985	-0.365160	0.400970
O28	O	1.328985	0.134840	0.900970
O29	O	1.028147	-0.275759	0.526720
O30	O	1.528147	0.224241	1.026720
O31	O	1.028652	-0.467982	0.318417
O32	O	1.528652	0.032018	0.818417
O33	O	0.938621	-0.474880	0.400957
O34	O	1.438621	0.025120	0.900957
C35	C	0.806931	-0.321124	0.358636
C36	C	1.306931	0.178876	0.858636
C37	C	0.728709	-0.324141	0.355375
C38	C	1.228709	0.175859	0.855375
C39	C	0.691842	-0.282491	0.400659
C40	C	1.191842	0.217509	0.900659
C41	C	0.618344	-0.285321	0.397589
C42	C	1.118344	0.214679	0.897589
C43	C	0.581715	-0.329806	0.349238
C44	C	1.081715	0.170194	0.849238
C45	C	0.618588	-0.371457	0.303949
C46	C	1.118588	0.128543	0.803949
C47	C	0.692084	-0.368623	0.307016
C48	C	1.192084	0.131377	0.807016
C49	C	0.361918	-0.342898	0.335042
C50	C	0.861918	0.157102	0.835042
C51	C	0.288416	-0.345731	0.331979
C52	C	0.788416	0.154269	0.831979
C53	C	0.288178	-0.259593	0.425619
C54	C	0.788178	0.240407	0.925619
C55	C	0.361676	-0.256766	0.428684
C56	C	0.861676	0.243234	0.928684
C57	C	0.398542	-0.298415	0.383393
C58	C	0.898542	0.201585	0.883393
N59	N	0.506589	-0.332702	0.346100
N60	N	1.006589	0.167298	0.846100
N61	N	0.473667	-0.295515	0.386528
N62	N	0.973667	0.204485	0.886528
C63	C	0.982659	-0.496966	0.358631
C64	C	1.482659	0.003034	0.858631
C65	C	0.979679	-0.575189	0.355377
C66	C	1.479679	-0.075189	0.855377
C67	C	1.021380	-0.612022	0.400629
C68	C	1.521380	-0.112022	0.900629
C69	C	1.018577	-0.685521	0.397574
C70	C	1.518577	-0.185521	0.897574
C71	C	0.974076	-0.722186	0.349263
C72	C	1.474076	-0.222186	0.849263
C73	C	0.932370	-0.685348	0.304009
C74	C	1.432370	-0.185348	0.804009
C75	C	0.935170	-0.611851	0.307068
C76	C	1.435170	-0.111851	0.807068
C77	C	0.961078	-0.941990	0.335099
C78	C	1.461078	-0.441990	0.835099
C79	C	0.958283	-1.015493	0.332042
C80	C	1.458283	-0.515493	0.832042
C81	C	1.044489	-1.015661	0.425608
C82	C	1.544489	-0.515661	0.925608
C83	C	1.047288	-0.942162	0.428660
C84	C	1.547288	-0.442162	0.928660
C85	C	1.005579	-0.905331	0.383409
C86	C	1.505579	-0.405331	0.883409
N87	N	0.971212	-0.797313	0.346137
N88	N	1.471212	-0.297313	0.846137
N89	N	1.008441	-0.830205	0.386539
N90	N	1.508441	-0.330205	0.886539
C91	C	1.173328	-0.307079	0.373986
C92	C	1.673328	0.192921	0.873986
C93	C	1.251549	-0.304081	0.377263
C94	C	1.751549	0.195919	0.877263
C95	C	0.982150	-0.321727	0.549257
C96	C	1.482150	0.178273	1.049257
C97	C	0.978902	-0.324971	0.627224
C98	C	1.478902	0.175029	1.127224
C99	C	0.996933	-0.130550	0.374007
C100	C	1.496933	0.369450	0.874007
C101	C	0.999984	-0.052326	0.377294
C102	C	1.499984	0.447674	0.877294
C103	C	0.997408	-0.306481	0.184050
C104	C	1.497408	0.193519	0.684050
C105	C	1.000801	-0.303034	0.106097
C106	C	1.500801	0.196966	0.606097
C107	C	1.024134	-0.279764	0.667631
C108	C	1.524134	0.220236	1.167631
C109	C	1.021074	-0.282809	0.740889
C110	C	1.521074	0.217191	1.240889
C111	C	0.972783	-0.331065	0.773740
C112	C	1.472783	0.168935	1.273740
C113	C	0.927546	-0.376274	0.733328
C114	C	1.427546	0.123726	1.233328
C115	C	0.930604	-0.373225	0.660071
C116	C	1.430604	0.126775	1.160071
C117	C	0.958621	-0.345193	0.992429
C118	C	1.458621	0.154807	1.492429
C119	C	0.955568	-0.348241	1.065691
C120	C	1.455568	0.151759	1.565691
C121	C	1.049095	-0.254774	1.073247
C122	C	1.549095	0.245226	1.573247
C123	C	1.052152	-0.251732	0.999989
C124	C	1.552152	0.248268	1.499989
C125	C	1.006912	-0.296938	0.959583
C126	C	1.506912	0.203062	1.459583
N127	N	0.969655	-0.334181	0.848621
N128	N	1.469655	0.165819	1.348621
N129	N	1.010037	-0.293819	0.884703
N130	N	1.510037	0.206181	1.384703
H131	H	0.391925	-0.376812	0.298163
H132	H	0.891925	0.123188	0.798163
F133	F	0.248937	-0.215270	0.473816
F134	F	0.748937	0.284730	0.973816
H135	H	0.927118	-0.912008	0.298252
H136	H	1.427118	-0.412008	0.798252
H137	H	0.722100	-0.402538	0.270141
H138	H	1.222100	0.097462	0.770141
H139	H	1.078445	-1.045657	0.462450
H140	H	1.578445	-0.545657	0.962450
H141	H	0.258595	-0.381959	0.292605
H142	H	0.758595	0.118041	0.792605
H143	H	0.888224	-0.415563	0.760080
H144	H	1.388224	0.084437	1.260080
F145	F	0.910919	-1.054512	0.280618
F146	F	1.410919	-0.554512	0.780618
H147	H	1.057621	-0.582174	0.439967
H148	H	1.557621	-0.082174	0.939967
H149	H	1.052540	-0.715507	0.434417
H150	H	1.552540	-0.215507	0.934417
H151	H	0.391494	-0.220544	0.468059
H152	H	0.891494	0.279456	0.968059
F153	F	1.097238	-0.206664	1.116255
F154	F	1.597238	0.293336	1.616255
H155	H	0.893763	-0.410031	0.627173
H156	H	1.393763	0.089969	1.127173
F157	F	0.579111	-0.240992	0.445788
F158	F	1.079111	0.259008	0.945788
F159	F	0.579603	-0.418798	0.252486
F160	F	1.079603	0.081202	0.752486
F161	F	0.904166	-0.399601	1.100651
F162	F	1.404166	0.100399	1.600651
H163	H	1.083524	-0.912311	0.467999
H164	H	1.583524	-0.412311	0.967999
F165	F	1.069240	-0.234717	0.783890
F166	F	1.569240	0.265283	1.283890
H167	H	0.921793	-0.382013	0.959539
H168	H	1.421793	0.117987	1.459539
H169	H	0.896134	-0.715206	0.264675
H170	H	1.396134	-0.215206	0.764675
F171	F	0.890785	-0.572651	0.258906
F172	F	1.390785	-0.072651	0.758906
H173	H	1.091477	-0.212438	0.973247
H174	H	1.591477	0.287562	1.473247
F175	F	1.075535	-0.228406	0.632676
F176	F	1.575535	0.271594	1.132676
H177	H	0.721660	-0.246268	0.440033
H178	H	1.221660	0.253732	0.940033
