data_functionalizedCrystal
_audit_creation_method	'MofGen! by Chris Wilmer'
_symmetry_space_group_name_H-M	'P1'
_symmetry_Int_Tables_number	1
_symmetry_cell_setting	triclinic
loop_
_symmetry_equiv_pos_as_xyz
  x,y,z
_cell_length_a	12.759401
_cell_length_b	16.625545
_cell_length_c	12.759393
_cell_angle_alpha	89.967170
_cell_angle_beta	89.980198
_cell_angle_gamma	90.024644
loop_
_atom_site_label
_atom_site_type_symbol
_atom_site_fract_x
_atom_site_fract_y
_atom_site_fract_z
Zn1	Zn	1.606187	-0.320982	-0.593971
Zn2	Zn	1.606045	-0.455837	-0.418284
Zn3	Zn	1.430486	-0.321019	-0.418310
Zn4	Zn	1.430444	-0.455774	-0.593925
O5	O	1.518291	-0.388403	-0.506122
O6	O	1.753189	-0.338881	-0.570675
O7	O	1.582714	-0.437994	-0.271266
O8	O	1.453870	-0.208182	-0.441642
O9	O	1.753085	-0.437958	-0.441598
O10	O	1.582957	-0.208155	-0.570699
O11	O	1.453732	-0.338945	-0.271285
O12	O	1.283459	-0.338885	-0.441597
O13	O	1.453799	-0.437852	-0.740952
O14	O	1.283429	-0.437889	-0.570620
O15	O	1.582917	-0.338821	-0.740986
O16	O	1.582674	-0.568661	-0.441553
O17	O	1.453661	-0.568615	-0.570596
C18	C	1.245323	-0.388384	-0.506107
C19	C	1.128547	-0.388396	-0.506125
C20	C	0.964002	-0.336918	-0.573447
C21	C	1.073727	-0.336903	-0.573440
C22	C	1.073637	-0.439914	-0.438821
C23	C	0.963915	-0.439933	-0.438834
C24	C	1.223742	-0.308181	-0.697393
C25	C	1.278648	-0.256656	-0.764685
C26	C	1.243065	-0.178002	-0.781001
C27	C	1.152578	-0.150857	-0.730010
C28	C	1.097678	-0.202377	-0.662711
C29	C	1.133259	-0.281043	-0.646414
C30	C	0.813897	-0.468646	-0.314879
C31	C	0.758995	-0.520164	-0.247573
C32	C	0.794576	-0.598819	-0.231247
C33	C	0.885066	-0.625962	-0.282219
C34	C	0.939968	-0.574444	-0.349525
C35	C	0.904380	-0.495789	-0.365853
C36	C	1.518176	-0.597894	-0.506089
C37	C	1.518224	-0.687515	-0.506110
C38	C	1.518264	-0.760298	-0.506131
C39	C	1.518326	-0.851606	-0.506155
C40	C	1.518380	-0.924382	-0.506168
C41	C	1.518440	-1.015697	-0.506189
C42	C	1.792324	-0.388423	-0.506139
C43	C	1.909100	-0.388431	-0.506145
C44	C	1.518369	-0.388326	-0.780156
C45	C	1.518403	-0.388293	-0.896933
C46	C	1.518434	-0.178094	-0.506179
C47	C	1.518495	-0.088473	-0.506203
C48	C	1.585639	-0.336719	-0.951814
C49	C	1.585657	-0.336684	-1.061538
C50	C	1.451199	-0.439804	-1.061490
C51	C	1.451177	-0.439834	-0.951768
C52	C	1.623292	-0.241554	-1.211521
C53	C	1.690545	-0.189987	-1.266406
C54	C	1.793061	-0.177627	-1.230813
C55	C	1.828345	-0.216844	-1.140337
C56	C	1.761098	-0.268417	-1.085457
C57	C	1.658567	-0.280762	-1.121049
C58	C	1.413552	-0.534965	-0.801783
C59	C	1.346309	-0.586543	-0.746902
C60	C	1.243792	-0.598912	-0.782493
C61	C	1.208511	-0.559708	-0.872972
C62	C	1.275754	-0.508131	-0.927854
C63	C	1.378271	-0.495761	-0.892255
C64	C	1.518273	-0.388422	-0.233155
C65	C	1.518443	-0.388228	-0.116379
H66	H	1.123621	-0.086805	-0.743291
C67	C	1.337256	-0.053705	-0.799105
C68	C	1.303414	-0.121366	-0.854972
H69	H	1.374519	-0.018748	-0.844776
H70	H	1.278278	-0.026289	-0.771087
H71	H	1.381937	-0.070195	-0.743574
H72	H	1.258727	-0.104877	-0.910499
H73	H	1.362401	-0.148786	-0.883007
C74	C	1.378783	-0.712981	-0.661903
C75	C	1.385082	-0.629638	-0.647441
H76	H	1.402723	-0.739582	-0.600500
H77	H	1.308111	-0.727724	-0.675250
H78	H	1.421259	-0.728159	-0.719758
H79	H	1.342600	-0.614458	-0.589591
H80	H	1.455766	-0.614889	-0.634081
C81	C	1.793546	-0.394864	-1.000475
C82	C	1.799870	-0.311523	-0.986010
H83	H	1.817489	-0.421471	-0.939078
H84	H	1.722868	-0.409596	-1.013810
H85	H	1.836007	-0.410048	-1.058338
H86	H	1.757402	-0.296339	-0.928152
H87	H	1.870560	-0.296785	-0.972662
H88	H	1.497028	-0.524892	-0.772791
H89	H	1.118280	-0.481844	-0.384017
H90	H	1.247020	-0.476210	-1.001527
H91	H	1.352322	-0.278765	-0.806202
H92	H	1.023910	-0.180318	-0.621328
H93	H	0.914039	-0.690009	-0.268922
C94	C	1.059072	-0.684201	-0.377029
C95	C	1.039432	-0.604281	-0.405567
H96	H	1.120471	-0.702619	-0.411633
H97	H	1.068861	-0.687376	-0.303352
H98	H	1.001206	-0.716809	-0.396766
H99	H	1.097294	-0.571671	-0.385823
H100	H	1.029649	-0.601099	-0.479260
C101	C	0.673972	-0.495009	-0.082923
C102	C	0.659531	-0.490323	-0.191537
H103	H	0.612569	-0.476582	-0.048333
H104	H	0.687299	-0.549222	-0.063570
H105	H	0.731833	-0.462390	-0.063206
H106	H	0.601674	-0.522948	-0.211256
H107	H	0.646190	-0.436102	-0.210898
C108	C	1.436551	-0.548230	-1.184844
C109	C	1.377315	-0.496463	-1.121768
H110	H	1.390937	-0.583213	-1.222050
H111	H	1.476588	-0.517510	-1.233230
H112	H	1.482291	-0.579085	-1.142025
H113	H	1.331580	-0.465604	-1.164588
H114	H	1.337260	-0.527186	-1.073376
C115	C	1.264445	-0.435906	-0.775096
C116	C	1.262857	-0.394644	-0.679470
H117	H	1.288604	-0.489282	-0.764028
H118	H	1.195732	-0.437329	-0.803646
H119	H	1.310094	-0.409093	-0.822460
H120	H	1.217202	-0.421453	-0.632109
H121	H	1.331581	-0.393225	-0.650905
C122	C	0.840652	-0.228488	-0.588316
C123	C	0.903751	-0.280313	-0.647442
H124	H	0.803464	-0.193540	-0.634002
H125	H	0.792251	-0.259167	-0.548246
H126	H	0.883454	-0.197598	-0.542611
H127	H	0.860948	-0.311207	-0.693141
H128	H	0.952158	-0.249631	-0.687529
C129	C	0.631755	-0.665517	-0.194250
C130	C	0.734229	-0.655452	-0.157262
H131	H	0.594507	-0.700485	-0.148581
H132	H	0.597618	-0.614792	-0.196662
H133	H	0.633645	-0.688114	-0.262588
H134	H	0.732340	-0.632849	-0.088926
H135	H	0.768374	-0.706186	-0.154838
H136	H	0.784916	-0.404599	-0.328171
H137	H	1.125035	-0.569782	-0.901954
C138	C	1.600281	-0.228296	-0.828456
C139	C	1.659521	-0.280057	-0.891537
H140	H	1.645894	-0.193316	-0.791242
H141	H	1.554543	-0.197445	-0.871264
H142	H	1.560243	-0.259026	-0.780066
H143	H	1.699553	-0.249327	-0.939932
H144	H	1.705277	-0.310911	-0.848726
C145	C	1.994647	-0.276733	-1.099693
C146	C	1.941047	-0.203267	-1.101234
H147	H	2.064227	-0.268347	-1.075560
H148	H	1.959654	-0.313048	-1.054055
H149	H	1.996424	-0.298619	-1.168426
H150	H	1.939263	-0.181383	-1.032499
H151	H	1.976049	-0.166938	-1.146873
H152	H	1.847819	-0.135639	-1.275508
C153	C	1.621907	-0.204075	-1.440624
C154	C	1.651758	-0.146876	-1.365850
H155	H	1.597960	-0.177460	-1.502014
H156	H	1.680319	-0.237000	-1.457555
H157	H	1.567182	-0.236549	-1.413018
H158	H	1.706488	-0.114406	-1.393453
H159	H	1.593339	-0.113937	-1.348919
C160	C	1.138102	-0.718358	-0.788076
C161	C	1.169877	-0.655611	-0.722169
H162	H	1.092475	-0.753361	-0.750834
H163	H	1.102422	-0.696770	-0.847040
H164	H	1.197863	-0.747505	-0.811037
H165	H	1.110117	-0.626461	-0.699214
H166	H	1.205557	-0.677200	-0.663186
H167	H	1.539814	-0.251607	-1.240504
