data_functionalizedCrystal
_audit_creation_method	'MofGen! by Chris Wilmer'
_symmetry_space_group_name_H-M	'P1'
_symmetry_Int_Tables_number	1
_symmetry_cell_setting	triclinic
loop_
_symmetry_equiv_pos_as_xyz
  x,y,z
_cell_length_a	17.038272
_cell_length_b	10.654550
_cell_length_c	9.130313
_cell_angle_alpha	90.004369
_cell_angle_beta	89.997839
_cell_angle_gamma	87.798243
loop_
_atom_site_label
_atom_site_type_symbol
_atom_site_fract_x
_atom_site_fract_y
_atom_site_fract_z
O1	O	-1.038890	-0.272864	-0.121616
O2	O	-0.538890	0.227136	0.378384
O3	O	-0.811235	-0.268532	-0.121659
O4	O	-0.311235	0.231468	0.378341
O5	O	-0.930297	-0.088445	-0.121627
O6	O	-0.430297	0.411555	0.378373
O7	O	-0.919828	-0.452951	-0.121647
O8	O	-0.419828	0.047049	0.378353
O9	O	-0.930288	-0.088438	0.121972
O10	O	-0.430288	0.411562	0.621972
O11	O	-0.811227	-0.268525	0.121940
O12	O	-0.311227	0.231475	0.621940
O13	O	-1.038882	-0.272858	0.121983
O14	O	-0.538882	0.227142	0.621983
Cu15	Cu	-0.925053	-0.270691	0.144204
Cu16	Cu	-0.425053	0.229309	0.644204
Cu17	Cu	-0.925063	-0.270699	-0.143880
Cu18	Cu	-0.425063	0.229301	0.356120
O19	O	-0.919820	-0.452945	0.121951
O20	O	-0.419820	0.047055	0.621951
C21	C	-0.782081	-0.264588	0.000135
C22	C	-0.282081	0.235412	0.500135
C23	C	-0.695222	-0.252831	0.000119
C24	C	-0.195222	0.247169	0.500119
C25	C	-0.929524	-0.041572	0.000171
C26	C	-0.429524	0.458428	0.500171
C27	C	-0.927224	0.098084	0.000169
C28	C	-0.427224	0.598084	0.500169
C29	C	-1.068036	-0.276802	0.000186
C30	C	-0.568036	0.223198	0.500186
C31	C	-1.154895	-0.288559	0.000193
C32	C	-0.654895	0.211441	0.500193
C33	C	-0.645711	-0.360775	0.000114
C34	C	-0.145711	0.139225	0.500114
C35	C	-0.564098	-0.349720	0.000135
C36	C	-0.064098	0.150280	0.500135
C37	C	-0.531999	-0.230720	0.000150
C38	C	-0.031999	0.269280	0.500150
C39	C	-0.581517	-0.122768	0.000159
C40	C	-0.081517	0.377232	0.500159
C41	C	-0.663127	-0.133824	0.000149
C42	C	-0.163127	0.366176	0.500149
C43	C	-0.286023	-0.191663	0.000192
C44	C	0.213977	0.308337	0.500192
C45	C	-0.204406	-0.180615	0.000197
C46	C	0.295594	0.319385	0.500197
C47	C	-0.186993	-0.407568	0.000176
C48	C	0.313007	0.092432	0.500176
C49	C	-0.268606	-0.418614	0.000157
C50	C	0.231394	0.081386	0.500157
C51	C	-0.318117	-0.310661	0.000174
C52	C	0.181883	0.189339	0.500174
C53	C	-0.448578	-0.219418	0.000167
C54	C	0.051422	0.280582	0.500167
C55	C	-0.401536	-0.321965	0.000167
C56	C	0.098464	0.178035	0.500167
C57	C	-0.920593	-0.499817	0.000150
C58	C	-0.420593	0.000183	0.500150
C59	C	-0.922892	-0.639474	0.000143
C60	C	-0.422892	-0.139474	0.500143
N61	N	-0.925052	-0.270686	0.346827
N62	N	-0.425052	0.229314	0.846827
C63	C	-0.997326	0.171061	0.000182
C64	C	-0.497326	0.671061	0.500182
C65	C	-0.995160	0.302283	0.000163
C66	C	-0.495160	0.802283	0.500163
C67	C	-0.852785	0.287540	0.000126
C68	C	-0.352785	0.787540	0.500126
C69	C	-0.854952	0.156320	0.000133
C70	C	-0.354952	0.656320	0.500133
N71	N	-0.925070	-0.270695	-0.346502
N72	N	-0.425070	0.229305	0.153498
C73	C	-0.977791	-0.190981	0.423493
C74	C	-0.477791	0.309019	0.923493
C75	C	-0.977798	-0.190982	0.576829
C76	C	-0.477798	0.309018	1.076829
C77	C	-0.872326	-0.350403	0.576821
C78	C	-0.372326	0.149597	1.076821
C79	C	-0.872316	-0.350395	0.423487
C80	C	-0.372316	0.149605	0.923487
H81	H	-0.671839	-0.457677	0.000101
H82	H	-0.171839	0.042323	0.500101
H83	H	-0.797863	0.096900	0.000119
H84	H	-0.297863	0.596900	0.500119
Cl85	Cl	-0.408218	-0.069822	0.000179
Cl86	Cl	0.091782	0.430178	0.500179
H87	H	-0.427675	-0.418854	0.000163
H88	H	0.072325	0.081146	0.500163
H89	H	-0.703439	-0.045924	0.000152
H90	H	-0.203439	0.454076	0.500152
H91	H	-0.523789	-0.437620	0.000129
H92	H	-0.023789	0.062380	0.500129
Cl93	Cl	-0.308954	-0.568219	0.000128
Cl94	Cl	0.191046	-0.068219	0.500128
Cl95	Cl	-1.044099	-0.090774	0.673205
Cl96	Cl	-0.544099	0.409226	1.173205
Cl97	Cl	-1.083292	0.394019	0.000176
Cl98	Cl	-0.583292	0.894019	0.500176
Cl99	Cl	-1.044085	-0.090770	0.327126
Cl100	Cl	-0.544085	0.409230	0.827126
H101	H	-0.793943	0.334971	0.000100
H102	H	-0.293943	0.834971	0.500100
Cl103	Cl	-0.806035	-0.450610	0.673201
Cl104	Cl	-0.306035	0.049390	1.173201
Cl105	Cl	-0.164054	-0.031004	0.000250
Cl106	Cl	0.335946	0.468996	0.500250
Cl107	Cl	-1.088182	0.097854	0.000222
Cl108	Cl	-0.588182	0.597854	0.500222
H109	H	-0.146674	-0.495456	0.000165
H110	H	0.353326	0.004544	0.500165
Cl111	Cl	-0.348254	-0.055949	0.000211
Cl112	Cl	0.151746	0.444051	0.500211
Cl113	Cl	-0.806007	-0.450597	0.327097
Cl114	Cl	-0.306007	0.049403	0.827097
H115	H	-0.555375	-0.025876	0.000193
H116	H	-0.055375	0.474124	0.500193
