data_functionalizedCrystal
_audit_creation_method	'MofGen! by Chris Wilmer'
_symmetry_space_group_name_H-M	'P1'
_symmetry_Int_Tables_number	1
_symmetry_cell_setting	triclinic
loop_
_symmetry_equiv_pos_as_xyz
  x,y,z
_cell_length_a	17.077402
_cell_length_b	21.295419
_cell_length_c	17.077396
_cell_angle_alpha	89.980408
_cell_angle_beta	89.972472
_cell_angle_gamma	90.038294
loop_
_atom_site_label
_atom_site_type_symbol
_atom_site_fract_x
_atom_site_fract_y
_atom_site_fract_z
Zn1	Zn	-0.312198	0.962355	-0.443850
Zn2	Zn	0.021135	1.295689	-0.110517
Zn3	Zn	0.354469	1.629022	0.222817
Zn4	Zn	-0.443473	0.962280	-0.312586
Zn5	Zn	-0.110140	1.295613	0.020747
Zn6	Zn	0.223194	1.628947	0.354081
Zn7	Zn	-0.312259	0.857088	-0.312598
Zn8	Zn	0.021074	1.190421	0.020736
Zn9	Zn	0.354408	1.523754	0.354069
Zn10	Zn	-0.443460	0.857061	-0.443810
Zn11	Zn	-0.110126	1.190394	-0.110476
Zn12	Zn	0.223207	1.523728	0.222857
O13	O	-0.377847	0.909696	-0.378211
O14	O	-0.044514	1.243029	-0.044877
O15	O	0.288819	1.576363	0.288456
O16	O	-0.329592	1.050435	-0.426450
O17	O	0.003741	1.383768	-0.093116
O18	O	0.337075	1.717102	0.240217
O19	O	-0.426098	0.948305	-0.202741
O20	O	-0.092765	1.281639	0.130593
O21	O	0.240568	1.614972	0.463926
O22	O	-0.202404	0.871095	-0.330030
O23	O	0.130929	1.204428	0.003303
O24	O	0.464263	1.537761	0.336636
O25	O	-0.426039	1.050379	-0.330011
O26	O	-0.092706	1.383713	0.003323
O27	O	0.240628	1.717046	0.336656
O28	O	-0.202359	0.948434	-0.426461
O29	O	0.130974	1.281768	-0.093128
O30	O	0.464307	1.615101	0.240206
O31	O	-0.329696	0.871021	-0.202749
O32	O	0.003637	1.204355	0.130584
O33	O	0.336971	1.537688	0.463917
O34	O	-0.329683	0.768995	-0.329991
O35	O	0.003650	1.102328	0.003342
O36	O	0.336984	1.435662	0.336676
O37	O	-0.426017	0.871049	-0.553662
O38	O	-0.092683	1.204382	-0.220329
O39	O	0.240650	1.537716	0.113005
O40	O	-0.426076	0.768975	-0.426392
O41	O	-0.092742	1.102308	-0.093059
O42	O	0.240591	1.435642	0.240275
O43	O	-0.329579	0.948408	-0.553692
O44	O	0.003754	1.281742	-0.220358
O45	O	0.337087	1.615075	0.112975
O46	O	-0.553318	0.948280	-0.329971
O47	O	-0.219985	1.281613	0.003362
O48	O	0.113348	1.614946	0.336695
O49	O	-0.553308	0.870976	-0.426381
O50	O	-0.219975	1.204309	-0.093047
O51	O	0.113358	1.537642	0.240286
C52	C	-0.377885	0.746144	-0.378189
C53	C	-0.044552	1.079478	-0.044855
C54	C	0.288782	1.412811	0.288478
C55	C	-0.377920	0.676176	-0.378198
C56	C	-0.044587	1.009510	-0.044865
C57	C	0.288746	1.342843	0.288469
C58	C	-0.327782	0.643361	-0.428491
C59	C	0.005551	0.976694	-0.095158
C60	C	0.338884	1.310028	0.238175
C61	C	-0.327761	0.577619	-0.428494
C62	C	0.005572	0.910952	-0.095161
C63	C	0.338906	1.244285	0.238172
C64	C	-0.377892	0.544694	-0.378212
C65	C	-0.044559	0.878027	-0.044879
C66	C	0.288775	1.211360	0.288454
C67	C	-0.428033	0.577517	-0.327909
C68	C	-0.094700	0.910850	0.005424
C69	C	0.238633	1.244184	0.338758
C70	C	-0.428048	0.643258	-0.327902
C71	C	-0.094714	0.976592	0.005431
C72	C	0.238619	1.309925	0.338765
N73	N	-0.446574	0.441426	-0.372084
N74	N	-0.113241	0.774759	-0.038751
N75	N	0.220092	1.108092	0.294582
N76	N	-0.446559	0.378974	-0.372096
N77	N	-0.113225	0.712307	-0.038762
N78	N	0.220108	1.045641	0.294571
C79	C	-0.377851	0.346619	-0.378230
C80	C	-0.044518	0.679952	-0.044896
C81	C	0.288815	1.013286	0.288437
N82	N	-0.309159	0.379075	-0.384367
N83	N	0.024175	0.712408	-0.051034
N84	N	0.357508	1.045741	0.282299
N85	N	-0.309175	0.441532	-0.384360
N86	N	0.024158	0.774865	-0.051027
N87	N	0.357491	1.108199	0.282307
C88	C	-0.377882	0.473408	-0.378214
C89	C	-0.044549	0.806742	-0.044881
C90	C	0.288785	1.140075	0.288453
C91	C	-0.327686	0.242518	-0.428529
C92	C	0.005647	0.575852	-0.095196
C93	C	0.338980	0.909185	0.238138
C94	C	-0.327664	0.176775	-0.428527
C95	C	0.005669	0.510108	-0.095193
C96	C	0.339003	0.843441	0.238140
C97	C	-0.427943	0.176674	-0.327945
C98	C	-0.094610	0.510008	0.005388
C99	C	0.238723	0.843341	0.338721
C100	C	-0.427959	0.242417	-0.327944
C101	C	-0.094625	0.575750	0.005390
C102	C	0.238708	0.909083	0.338723
C103	C	-0.377831	0.275335	-0.378240
C104	C	-0.044498	0.608668	-0.044906
C105	C	0.288835	0.942001	0.288427
C106	C	-0.581795	0.909634	-0.378188
C107	C	-0.248462	1.242967	-0.044854
C108	C	0.084871	1.576300	0.288479
C109	C	-0.669045	0.909664	-0.378204
C110	C	-0.335712	1.242998	-0.044870
C111	C	-0.002379	1.576331	0.288463
C112	C	-0.709944	0.949913	-0.428456
C113	C	-0.376611	1.283247	-0.095122
C114	C	-0.043278	1.616580	0.238211
C115	C	-0.791925	0.949940	-0.428472
C116	C	-0.458592	1.283273	-0.095139
C117	C	-0.125258	1.616606	0.238194
C118	C	-0.833005	0.909720	-0.378233
C119	C	-0.499671	1.243053	-0.044899
C120	C	-0.166338	1.576387	0.288434
C121	C	-0.792099	0.869467	-0.327979
C122	C	-0.458766	1.202800	0.005355
C123	C	-0.125433	1.536133	0.338688
C124	C	-0.710121	0.869438	-0.327967
C125	C	-0.376787	1.202771	0.005367
C126	C	-0.043454	1.536104	0.338700
C127	C	-0.962969	0.869531	-0.328006
C128	C	-0.629636	1.202865	0.005327
C129	C	-0.296303	1.536198	0.338661
C130	C	-1.044954	0.869561	-0.328017
C131	C	-0.711621	1.202894	0.005316
C132	C	-0.378287	1.536228	0.338650
C133	C	-1.044774	0.950033	-0.428512
C134	C	-0.711440	1.283367	-0.095178
C135	C	-0.378107	1.616700	0.238155
C136	C	-0.962795	0.950004	-0.428500
C137	C	-0.629462	1.283338	-0.095166
C138	C	-0.296128	1.616671	0.238167
C139	C	-0.921896	0.909752	-0.378244
C140	C	-0.588562	1.243085	-0.044911
C141	C	-0.255229	1.576418	0.288422
C142	C	-0.173103	0.909776	-0.378251
C143	C	0.160230	1.243109	-0.044918
C144	C	0.493563	1.576443	0.288415
C145	C	-0.085853	0.909810	-0.378269
C146	C	0.247480	1.243143	-0.044935
C147	C	0.580813	1.576477	0.288398
C148	C	-0.377790	0.909734	-0.582955
C149	C	-0.044456	1.243067	-0.249622
C150	C	0.288877	1.576401	0.083711
C151	C	-0.377765	0.909750	-0.670205
C152	C	-0.044432	1.243084	-0.336872
C153	C	0.288902	1.576417	-0.003538
C154	C	-0.377810	1.073886	-0.378233
C155	C	-0.044477	1.407220	-0.044900
C156	C	0.288856	1.740553	0.288433
C157	C	-0.377794	1.143854	-0.378243
C158	C	-0.044461	1.477188	-0.044910
C159	C	0.288872	1.810521	0.288424
C160	C	-0.327546	0.950033	-0.711212
C161	C	0.005787	1.283366	-0.377879
C162	C	0.339121	1.616700	-0.044545
C163	C	-0.327520	0.950040	-0.793192
C164	C	0.005814	1.283374	-0.459859
C165	C	0.339147	1.616707	-0.126526
C166	C	-0.377717	0.909768	-0.834165
C167	C	-0.044384	1.243102	-0.500831
C168	C	0.288949	1.576435	-0.167498
C169	C	-0.427939	0.869481	-0.793152
C170	C	-0.094605	1.202815	-0.459819
C171	C	0.238728	1.536148	-0.126485
C172	C	-0.427960	0.869471	-0.711173
C173	C	-0.094627	1.202804	-0.377840
C174	C	0.238706	1.536138	-0.044506
C175	C	-0.427891	0.869507	-0.964022
C176	C	-0.094558	1.202840	-0.630689
C177	C	0.238775	1.536173	-0.297355
C178	C	-0.427871	0.869518	-1.046007
C179	C	-0.094538	1.202851	-0.712673
C180	C	0.238796	1.536184	-0.379340
C181	C	-0.327451	0.950076	-1.046042
C182	C	0.005882	1.283409	-0.712708
C183	C	0.339216	1.616743	-0.379375
C184	C	-0.327473	0.950066	-0.964063
C185	C	0.005861	1.283399	-0.630729
C186	C	0.339194	1.616732	-0.297396
C187	C	-0.377695	0.909779	-0.923056
C188	C	-0.044362	1.243113	-0.589722
C189	C	0.288972	1.576446	-0.256389
C190	C	-0.377848	0.909694	-0.174263
C191	C	-0.044515	1.243028	0.159070
C192	C	0.288818	1.576361	0.492404
C193	C	-0.377652	0.909800	-0.087014
C194	C	-0.044319	1.243133	0.246320
C195	C	0.289015	1.576467	0.579653
H196	H	-0.468790	0.269135	-0.286993
H197	H	-0.135456	0.602469	0.046341
H198	H	0.197877	0.935802	0.379674
H199	H	-0.286964	0.670159	-0.469446
H200	H	0.046369	1.003492	-0.136112
H201	H	0.379703	1.336826	0.197221
N202	N	-0.665640	0.993297	-0.482639
N203	N	-0.332307	1.326630	-0.149306
N204	N	0.001027	1.659964	0.184028
H205	H	-0.703992	1.018797	-0.514477
H206	H	-0.370659	1.352130	-0.181143
H207	H	-0.037326	1.685464	0.152190
H208	H	-0.631639	0.967644	-0.518931
H209	H	-0.298305	1.300978	-0.185598
H210	H	0.035028	1.634311	0.147735
H211	H	-0.286831	0.150058	-0.469480
H212	H	0.046502	0.483391	-0.136147
H213	H	0.379836	0.816724	0.197186
N214	N	-0.482015	0.141170	-0.273714
N215	N	-0.148682	0.474503	0.059620
N216	N	0.184652	0.807837	0.392953
H217	H	-0.513783	0.171937	-0.241853
H218	H	-0.180449	0.505271	0.091481
H219	H	0.152884	0.838604	0.424814
H220	H	-0.450008	0.113904	-0.237446
H221	H	-0.116675	0.447238	0.095888
H222	H	0.216658	0.780571	0.429221
H223	H	-0.825222	0.982719	-0.469386
H224	H	-0.491888	1.316052	-0.136053
H225	H	-0.158555	1.649386	0.197281
H226	H	-0.929348	0.982757	-0.469404
H227	H	-0.596015	1.316091	-0.136071
H228	H	-0.262681	1.649424	0.197262
N229	N	-1.088881	0.993452	-0.482715
N230	N	-0.755547	1.326785	-0.149382
N231	N	-0.422214	1.660118	0.183952
H232	H	-1.147047	0.987367	-0.475104
H233	H	-0.813714	1.320700	-0.141770
H234	H	-0.480381	1.654033	0.191563
H235	H	-1.074527	0.983627	-0.538764
H236	H	-0.741194	1.316960	-0.205431
H237	H	-0.407860	1.650293	0.127903
N238	N	-0.482098	0.542010	-0.273670
N239	N	-0.148765	0.875343	0.059664
N240	N	0.184569	1.208677	0.392997
H241	H	-0.474482	0.495383	-0.281306
H242	H	-0.141149	0.828717	0.052028
H243	H	0.192184	1.162050	0.385361
H244	H	-0.538179	0.553468	-0.285783
H245	H	-0.204846	0.886801	0.047551
H246	H	0.128488	1.220134	0.380884
H247	H	-0.286672	0.982829	-0.677858
H248	H	0.046662	1.316163	-0.344525
H249	H	0.379995	1.649496	-0.011192
H250	H	-0.929672	0.836751	-0.287086
H251	H	-0.596339	1.170084	0.046248
H252	H	-0.263005	1.503418	0.379581
N253	N	-0.481978	0.826054	-1.090198
N254	N	-0.148645	1.159388	-0.756865
N255	N	0.184689	1.492721	-0.423532
H256	H	-0.474335	0.832171	-1.148353
H257	H	-0.141002	1.165504	-0.815020
H258	H	0.192331	1.498837	-0.481687
H259	H	-0.538053	0.835800	-1.075875
H260	H	-0.204720	1.169134	-0.742541
H261	H	0.128613	1.502467	-0.409208
H262	H	-1.078399	0.836808	-0.287111
H263	H	-0.745066	1.170141	0.046223
H264	H	-0.411732	1.503475	0.379556
N265	N	-0.836401	0.826088	-0.273786
N266	N	-0.503068	1.159422	0.059547
N267	N	-0.169734	1.492755	0.392880
H268	H	-0.870440	0.796915	-0.305654
H269	H	-0.537106	1.130248	0.027680
H270	H	-0.203773	1.463581	0.361013
H271	H	-0.870352	0.851749	-0.237455
H272	H	-0.537018	1.185082	0.095879
H273	H	-0.203685	1.518415	0.429212
N274	N	-0.666004	0.826025	-0.273769
N275	N	-0.332670	1.159358	0.059564
N276	N	0.000663	1.492691	0.392897
H277	H	-0.704465	0.800550	-0.241943
H278	H	-0.371132	1.133884	0.091390
H279	H	-0.037799	1.467217	0.424723
H280	H	-0.631975	0.851652	-0.237467
H281	H	-0.298642	1.184985	0.095866
H282	H	0.034691	1.518318	0.429200
H283	H	-0.468877	0.669976	-0.286946
H284	H	-0.135544	1.003309	0.046388
H285	H	0.197789	1.336643	0.379721
H286	H	-0.286929	0.550895	-0.469448
H287	H	0.046404	0.884228	-0.136115
H288	H	0.379738	1.217562	0.197219
H289	H	-0.286865	0.269322	-0.469478
H290	H	0.046469	0.602655	-0.136145
H291	H	0.379802	0.935988	0.197189
N292	N	-0.273340	0.993475	-0.837422
N293	N	0.059994	1.326809	-0.504089
N294	N	0.393327	1.660142	-0.170756
H295	H	-0.241542	1.018985	-0.799027
H296	H	0.091791	1.352318	-0.465694
H297	H	0.425124	1.685651	-0.132360
H298	H	-0.305263	1.022601	-0.871446
H299	H	0.028070	1.355934	-0.538113
H300	H	0.361403	1.689267	-0.204779
N301	N	-0.482086	0.826049	-0.837342
N302	N	-0.148752	1.159382	-0.504008
N303	N	0.184581	1.492715	-0.170675
H304	H	-0.513902	0.800528	-0.798922
H305	H	-0.180569	1.133861	-0.465589
H306	H	0.152765	1.467194	-0.132255
H307	H	-0.450133	0.796934	-0.871358
H308	H	-0.116799	1.130268	-0.538025
H309	H	0.216534	1.463601	-0.204691
H310	H	-0.286557	0.982878	-1.079433
H311	H	0.046777	1.316211	-0.746100
H312	H	0.380110	1.649544	-0.412767
H313	H	-0.286602	0.982863	-0.930705
H314	H	0.046732	1.316196	-0.597372
H315	H	0.380065	1.649529	-0.264039
N316	N	-0.482055	0.826053	-0.919790
N317	N	-0.148722	1.159386	-0.586457
N318	N	0.184612	1.492720	-0.253124
H319	H	-0.513854	0.800543	-0.958184
H320	H	-0.180520	1.133876	-0.624851
H321	H	0.152813	1.467210	-0.291517
H322	H	-0.518384	0.851659	-0.885774
H323	H	-0.185051	1.184992	-0.552441
H324	H	0.148283	1.518325	-0.219108
H325	H	-0.468846	0.836662	-0.677786
H326	H	-0.135513	1.169996	-0.344453
H327	H	0.197821	1.503329	-0.011119
