data_functionalizedCrystal
_audit_creation_method	'MofGen! by Chris Wilmer'
_symmetry_space_group_name_H-M	'P1'
_symmetry_Int_Tables_number	1
_symmetry_cell_setting	triclinic
loop_
_symmetry_equiv_pos_as_xyz
  x,y,z
_cell_length_a	10.540535
_cell_length_b	10.540510
_cell_length_c	9.016244
_cell_angle_alpha	89.996492
_cell_angle_beta	89.999368
_cell_angle_gamma	84.518476
loop_
_atom_site_label
_atom_site_type_symbol
_atom_site_fract_x
_atom_site_fract_y
_atom_site_fract_z
O1	O	1.685869	0.178878	-0.123250
O2	O	1.316453	0.195740	-0.123270
O3	O	1.509608	0.002600	-0.123259
O4	O	1.492713	0.372018	-0.123261
O5	O	1.509598	0.002589	0.123422
O6	O	1.316442	0.195729	0.123411
O7	O	1.685858	0.178867	0.123430
Cu8	Cu	1.501149	0.187297	0.145944
Cu9	Cu	1.501162	0.187310	-0.145784
O10	O	1.492702	0.372007	0.123419
C11	C	1.269145	0.194471	0.000068
C12	C	1.128197	0.190691	0.000060
C13	C	1.508344	-0.044709	0.000078
C14	C	1.504577	-0.185659	0.000069
C15	C	1.091541	0.049676	0.000066
C16	C	0.944941	0.045698	0.000641
C17	C	0.918848	0.255056	0.140670
C18	C	1.065613	0.258057	0.140773
C19	C	1.065509	0.260121	-0.139759
C20	C	0.919163	0.253600	-0.141592
C21	C	1.638761	-0.403117	0.000641
C22	C	1.642779	-0.256521	0.000078
C23	C	1.433837	-0.230410	-0.140799
C24	C	1.430798	-0.377171	-0.140909
C25	C	1.427907	-0.376992	0.139613
C26	C	1.434462	-0.230651	0.141467
C27	C	1.733166	0.180136	0.000089
C28	C	1.874114	0.183915	0.000088
C29	C	1.493967	0.419316	0.000079
C30	C	1.497733	0.560266	0.000078
N31	N	1.501149	0.187287	0.351131
N32	N	1.501172	0.187310	-0.350970
C33	C	1.604532	0.083982	0.414061
C34	C	1.604917	0.084268	0.585951
C35	C	1.530736	0.320188	0.586601
C36	C	1.531466	0.319570	0.414656
C37	C	1.367901	0.158907	0.414512
C38	C	1.368779	0.155919	0.586468
H39	H	0.915614	-0.009939	-0.100114
H40	H	1.692298	-0.446619	-0.099805
C41	C	1.329735	0.030666	0.355958
N42	N	1.301002	-0.065932	0.311854
H43	H	1.327431	-0.400164	-0.147297
C44	C	1.296391	-0.166379	-0.147896
N45	N	1.192867	-0.118146	-0.153240
C46	C	1.338478	0.023860	0.641613
N47	N	1.315655	-0.075604	0.683163
H48	H	1.088632	0.361432	0.146780
C49	C	1.259913	0.250833	0.644437
N50	N	1.177919	0.322340	0.688086
C51	C	0.880525	0.183668	-0.282102
N52	N	0.851414	0.130994	-0.387932
C53	C	1.486919	-0.434330	0.283859
N54	N	1.531382	-0.477516	0.392498
H55	H	1.133520	-0.004471	-0.100733
C56	C	1.150237	-0.022261	0.136072
N57	N	1.194444	-0.076439	0.238517
H58	H	1.458854	0.398652	0.373025
H59	H	1.628663	0.344318	0.374546
C60	C	1.431762	0.426651	0.641798
N61	N	1.357214	0.506838	0.683377
H62	H	0.916490	-0.009676	0.102012
C63	C	1.263955	0.260648	0.359519
N64	N	1.185671	0.337281	0.318089
H65	H	1.105784	0.210003	0.246264
C66	C	0.854846	0.392535	0.147211
N67	N	0.806634	0.496082	0.152137
C68	C	1.717556	-0.216883	0.136494
N69	N	1.773885	-0.187035	0.239245
H70	H	1.587219	-0.014451	0.628163
H71	H	1.482973	-0.199550	-0.245627
H72	H	0.887946	0.206239	0.245695
H73	H	0.870104	0.354475	-0.150519
C74	C	1.122873	0.200674	-0.283763
N75	N	1.166080	0.155884	-0.392220
C76	C	1.717996	-0.218135	-0.136574
N77	N	1.774648	-0.189225	-0.239509
H78	H	1.087683	0.363874	-0.141119
C79	C	1.496140	-0.431500	-0.283146
N80	N	1.545364	-0.472416	-0.390278
H81	H	1.485936	-0.202045	0.245680
C82	C	1.580988	-0.049835	0.358230
N83	N	1.563251	-0.150630	0.316170
C84	C	1.287734	-0.406934	0.140903
N85	N	1.182162	-0.429499	0.141869
C86	C	1.737351	0.108397	0.355719
N87	N	1.837391	0.126798	0.311784
C88	C	1.660560	0.354385	0.644757
N89	N	1.758348	0.380135	0.688557
H90	H	1.333564	-0.181583	0.149968
H91	H	1.692599	-0.445077	0.101665
H92	H	1.703789	0.102584	0.627081
