data_functionalizedCrystal
_audit_creation_method	'MofGen! by Chris Wilmer'
_symmetry_space_group_name_H-M	'P1'
_symmetry_Int_Tables_number	1
_symmetry_cell_setting	triclinic
loop_
_symmetry_equiv_pos_as_xyz
  x,y,z
_cell_length_a	15.944545
_cell_length_b	14.421503
_cell_length_c	12.837942
_cell_angle_alpha	90.001076
_cell_angle_beta	90.837444
_cell_angle_gamma	89.990135
loop_
_atom_site_label
_atom_site_type_symbol
_atom_site_fract_x
_atom_site_fract_y
_atom_site_fract_z
O1	O	1.125206	0.077051	-0.133657
O2	O	1.625206	0.577051	0.366343
O3	O	0.881975	0.077066	-0.150147
O4	O	1.381975	0.577066	0.349853
O5	O	0.998197	0.077053	0.009001
O6	O	1.498197	0.577053	0.509001
O7	O	1.008984	0.077063	-0.292805
O8	O	1.508984	0.577063	0.207195
O9	O	0.998213	-0.077171	0.008991
O10	O	1.498213	0.422829	0.508991
O11	O	0.881991	-0.077158	-0.150157
O12	O	1.381991	0.422842	0.349843
O13	O	1.125222	-0.077173	-0.133667
O14	O	1.625222	0.422827	0.366333
Cu15	Cu	1.003608	-0.091247	-0.141913
Cu16	Cu	1.503608	0.408753	0.358087
Cu17	Cu	1.003589	0.091140	-0.141901
Cu18	Cu	1.503589	0.591140	0.358099
O19	O	1.009000	-0.077160	-0.292815
O20	O	1.509000	0.422840	0.207185
C21	C	0.850634	-0.000044	-0.149469
C22	C	1.350634	0.499956	0.350531
C23	C	0.757224	-0.000039	-0.147420
C24	C	1.257224	0.499961	0.352580
C25	C	0.478210	-0.000052	-0.042650
C26	C	0.978210	0.499948	0.457350
C27	C	0.532841	-0.076093	-0.093167
C28	C	1.032841	0.423907	0.406833
C29	C	0.420996	-0.000055	-0.140113
C30	C	0.920996	0.499945	0.359887
C31	C	0.532807	0.075959	-0.093183
C32	C	1.032807	0.575959	0.406817
C33	C	0.586196	-0.000045	-0.143698
C34	C	1.086196	0.499955	0.356302
C35	C	0.474396	-0.076158	-0.190604
C36	C	0.974396	0.423842	0.309396
C37	C	0.474358	0.075962	-0.190605
C38	C	0.974358	0.575962	0.309395
C39	C	0.528961	-0.000097	-0.241193
C40	C	1.028961	0.499903	0.258807
C41	C	0.325828	-0.000061	-0.138045
C42	C	0.825828	0.499939	0.361955
C43	C	0.681361	-0.000046	-0.145773
C44	C	1.181361	0.499954	0.354227
N45	N	1.003628	-0.219528	-0.141921
N46	N	1.503628	0.280472	0.358079
C47	C	1.057381	-0.469163	-0.068315
C48	C	1.557381	0.030837	0.431685
C49	C	0.979870	-0.530956	-0.048180
C50	C	1.479870	-0.030956	0.451820
C51	C	1.003608	-0.408690	-0.141909
C52	C	1.503608	0.091310	0.358091
C53	C	1.081096	-0.530991	-0.161984
C54	C	1.581096	-0.030991	0.338016
C55	C	1.003596	-0.591411	-0.141894
C56	C	1.503596	-0.091411	0.358106
C57	C	0.926056	-0.469122	-0.121727
C58	C	1.426056	0.030878	0.378273
C59	C	1.027335	-0.469151	-0.235572
C60	C	1.527335	0.030849	0.264428
C61	C	0.949773	-0.530916	-0.215476
C62	C	1.449773	-0.030916	0.284524
C63	C	1.003617	-0.303429	-0.141914
C64	C	1.503617	0.196571	0.358086
C65	C	1.003579	-0.696670	-0.141889
C66	C	1.503579	-0.196670	0.358111
C67	C	1.156563	-0.000061	-0.134346
C68	C	1.656563	0.499939	0.365654
C69	C	1.249973	-0.000060	-0.136395
C70	C	1.749973	0.499940	0.363605
C71	C	0.994561	-0.000058	0.047617
C72	C	1.494561	0.499942	0.547617
C73	C	0.983693	-0.000056	0.162694
C74	C	1.483693	0.499944	0.662694
N75	N	1.003575	0.219421	-0.141885
N76	N	1.503575	0.719421	0.358115
C77	C	1.012636	-0.000047	-0.331431
C78	C	1.512636	0.499953	0.168569
C79	C	1.023504	-0.000043	-0.446509
C80	C	1.523504	0.499957	0.053491
C81	C	1.114346	-0.000045	0.403647
C82	C	1.614346	0.499955	0.903647
C83	C	1.104138	-0.000043	0.511773
C84	C	1.604138	0.499957	1.011773
C85	C	0.953072	-0.000043	0.487075
C86	C	1.453072	0.499957	0.987075
C87	C	0.963279	-0.000045	0.378949
C88	C	1.463279	0.499955	0.878949
C89	C	1.043919	-0.000047	0.337239
C90	C	1.543919	0.499953	0.837239
C91	C	1.054126	-0.000056	0.229111
C92	C	1.554126	0.499944	0.729111
C93	C	0.903059	-0.000050	0.204414
C94	C	1.403059	0.499950	0.704414
C95	C	0.892852	-0.000048	0.312541
C96	C	1.392852	0.499952	0.812541
H97	H	0.448694	0.140254	-0.231726
H98	H	0.948694	0.640254	0.268274
H99	H	1.119786	-0.000061	0.195153
H100	H	1.619786	0.499939	0.695153
H101	H	0.845713	-0.000059	0.150332
H102	H	1.345713	0.499941	0.650332
Br103	Br	0.575507	0.183099	-0.024546
Br104	Br	1.075507	0.683099	0.475454
Br105	Br	0.816787	-0.424025	-0.093264
Br106	Br	1.316787	0.075975	0.406736
H107	H	1.180006	-0.000056	0.369687
H108	H	1.680006	0.499944	0.869687
H109	H	1.161488	-0.000037	0.565840
H110	H	1.661488	0.499963	1.065840
Br111	Br	0.783418	-0.000033	0.369157
Br112	Br	1.283418	0.499967	0.869157
H113	H	1.047435	-0.441982	-0.314761
H114	H	1.547435	0.058018	0.185239
Br115	Br	1.133083	-0.423966	0.035466
Br116	Br	1.633083	0.076034	0.535466
Br117	Br	0.431880	-0.183423	-0.259166
Br118	Br	0.931880	0.316577	0.240834
Br119	Br	1.190323	-0.576295	-0.190292
Br120	Br	1.690323	-0.076295	0.309708
Br121	Br	0.873886	-0.575827	-0.319207
Br122	Br	1.373886	-0.075827	0.180793
H123	H	0.455842	-0.000129	0.041286
H124	H	0.955842	0.499871	0.541286
H125	H	0.551172	-0.000138	-0.325194
H126	H	1.051172	0.499862	0.174806
H127	H	0.887418	-0.000031	0.521054
H128	H	1.387418	0.499969	1.021054
Br129	Br	0.575581	-0.183250	-0.024575
Br130	Br	1.075581	0.316750	0.475425
H131	H	0.959792	-0.558105	0.031035
H132	H	1.459792	-0.058105	0.531035
