data_functionalizedCrystal
_audit_creation_method	'MofGen! by Chris Wilmer'
_symmetry_space_group_name_H-M	'P1'
_symmetry_Int_Tables_number	1
_symmetry_cell_setting	triclinic
loop_
_symmetry_equiv_pos_as_xyz
  x,y,z
_cell_length_a	19.077399
_cell_length_b	16.120444
_cell_length_c	19.076919
_cell_angle_alpha	84.952692
_cell_angle_beta	85.520477
_cell_angle_gamma	95.104436
loop_
_atom_site_label
_atom_site_type_symbol
_atom_site_fract_x
_atom_site_fract_y
_atom_site_fract_z
Zn1	Zn	1.048305	-0.299594	0.368745
Zn2	Zn	1.046973	-0.433752	0.256844
Zn3	Zn	0.935159	-0.299617	0.255601
Zn4	Zn	0.923881	-0.445422	0.379933
O5	O	0.988580	-0.369596	0.315281
O6	O	1.146995	-0.312497	0.349740
O7	O	1.036303	-0.411084	0.157815
O8	O	0.955446	-0.182449	0.265408
O9	O	1.146016	-0.411062	0.267526
O10	O	1.038574	-0.182432	0.348534
O11	O	0.954154	-0.312536	0.156901
O12	O	0.834796	-0.323852	0.276255
O13	O	0.936223	-0.430952	0.477313
O14	O	0.826510	-0.430974	0.367601
O15	O	1.027638	-0.323813	0.469094
O16	O	1.025367	-0.552465	0.278374
O17	O	0.934931	-0.561039	0.368807
C18	C	0.805018	-0.378682	0.323008
C19	C	0.726488	-0.382590	0.326331
C20	C	0.978799	-0.587131	0.324954
C21	C	0.974678	-0.680192	0.329113
C22	C	0.693889	-0.328577	0.280404
C23	C	0.620101	-0.332256	0.283527
C24	C	0.578914	-0.389946	0.332580
C25	C	0.611519	-0.443965	0.378510
C26	C	0.685305	-0.440289	0.375383
C27	C	0.357776	-0.406932	0.347021
C28	C	0.283985	-0.410602	0.350145
C29	C	0.292573	-0.298893	0.255161
C30	C	0.366360	-0.295219	0.252042
C31	C	0.398958	-0.349242	0.297968
N32	N	0.503492	-0.393706	0.335775
N33	N	0.474380	-0.345485	0.294770
C34	C	1.010122	-0.887767	0.293850
C35	C	0.967168	-0.850568	0.336713
C36	C	0.971348	-0.755762	0.332483
C37	C	1.005943	-0.982581	0.298079
C38	C	1.172858	-0.360475	0.307524
C39	C	1.251386	-0.356588	0.304218
C40	C	0.980821	-0.378682	0.499555
C41	C	0.977515	-0.382553	0.578081
C42	C	0.998417	-0.151211	0.305584
C43	C	1.002609	-0.058149	0.301452
C44	C	0.996351	-0.360484	0.131719
C45	C	0.999805	-0.356369	0.053177
C46	C	1.023554	-0.328593	0.610695
C47	C	1.020439	-0.332229	0.684479
C48	C	0.971288	-0.389828	0.725648
C49	C	0.925244	-0.443791	0.693030
C50	C	0.928356	-0.440151	0.619247
C51	C	0.956873	-0.406692	0.946775
C52	C	0.953766	-0.410329	1.020563
C53	C	1.048960	-0.298765	1.012008
C54	C	1.052071	-0.295134	0.938224
C55	C	1.006025	-0.349094	0.905611
N56	N	0.968104	-0.393547	0.801068
N57	N	1.009206	-0.345370	0.830193
H58	H	0.727418	-0.281593	0.240464
C59	C	0.844878	-0.885425	0.377253
C60	C	0.913280	-0.903689	0.390539
H61	H	0.811612	-0.918220	0.410483
H62	H	0.835967	-0.897912	0.330840
H63	H	0.840663	-0.827758	0.381439
H64	H	0.917496	-0.961356	0.386348
H65	H	0.922193	-0.891209	0.436963
C66	C	1.057751	-0.749650	0.246195
C67	C	1.063995	-0.834645	0.240018
H68	H	1.091006	-0.716850	0.212957
H69	H	1.066680	-0.737170	0.292605
H70	H	1.011336	-0.737287	0.237199
H71	H	1.110410	-0.847011	0.249019
H72	H	1.055072	-0.847131	0.193597
C73	C	0.636001	-0.221459	0.189336
C74	C	0.584268	-0.272877	0.233046
H75	H	0.613878	-0.184796	0.158174
H76	H	0.664279	-0.255116	0.162661
H77	H	0.664924	-0.189581	0.217532
H78	H	0.555349	-0.304759	0.204850
H79	H	0.555978	-0.239215	0.259724
C80	C	0.436239	-0.419287	0.439049
C81	C	0.393600	-0.466304	0.397512
H82	H	0.458358	-0.455943	0.470220
H83	H	0.407954	-0.385629	0.465715
H84	H	0.471329	-0.384414	0.409379
H85	H	0.358506	-0.501173	0.427181
H86	H	0.421887	-0.499977	0.370844
C87	C	1.117330	-0.218678	0.609657
C88	C	1.077581	-0.265275	0.565445
H89	H	1.150680	-0.179582	0.581722
H90	H	1.141497	-0.255239	0.638917
H91	H	1.086767	-0.189599	0.638310
H92	H	1.108144	-0.294359	0.536797
H93	H	1.053413	-0.228709	0.536174
C94	C	0.906724	-0.465436	1.137467
C95	C	0.899727	-0.473638	1.065819
H96	H	0.873366	-0.504520	1.165405
H97	H	0.898418	-0.410290	1.147489
H98	H	0.953132	-0.475949	1.148100
H99	H	0.853321	-0.463118	1.055185
H100	H	0.908028	-0.528796	1.055793
C101	C	0.864814	-0.418920	0.868317
C102	C	0.906265	-0.466000	0.910925
H103	H	0.833568	-0.455536	0.846185
H104	H	0.894533	-0.384100	0.833247
H105	H	0.838222	-0.385204	0.896628
H106	H	0.932861	-0.499712	0.882613
H107	H	0.876542	-0.500835	0.946000
H108	H	1.057930	-0.288291	0.711030
C109	C	0.276707	-0.253127	0.134728
C110	C	0.256743	-0.239519	0.204674
H111	H	0.254590	-0.216467	0.103558
H112	H	0.262524	-0.309445	0.127330
H113	H	0.326546	-0.242683	0.125858
H114	H	0.206903	-0.249970	0.213546
H115	H	0.270921	-0.183188	0.212075
C116	C	0.453844	-0.274590	0.152983
C117	C	0.411628	-0.231806	0.198117
H118	H	0.481791	-0.235437	0.119697
H119	H	0.424559	-0.311111	0.128750
H120	H	0.483820	-0.306227	0.179895
H121	H	0.381648	-0.200173	0.171206
H122	H	0.440916	-0.195270	0.222352
H123	H	0.250452	-0.457580	0.390095
C124	C	1.145847	-0.185215	0.937181
C125	C	1.106096	-0.231814	0.892973
H126	H	1.179198	-0.146123	0.909243
H127	H	1.170015	-0.221776	0.966441
H128	H	1.115287	-0.156134	0.965833
H129	H	1.136656	-0.260901	0.864324
H130	H	1.081927	-0.195249	0.863701
H131	H	1.086448	-0.254834	1.038569
C132	C	0.906854	-0.560996	0.781413
C133	C	0.871215	-0.507107	0.738281
H134	H	0.873498	-0.600088	0.809344
H135	H	0.933821	-0.529380	0.811394
H136	H	0.937404	-0.590076	0.752748
H137	H	0.840669	-0.478022	0.766945
H138	H	0.844236	-0.538726	0.708296
C139	C	0.581963	-0.491986	0.500869
C140	C	0.566246	-0.507373	0.432435
H141	H	0.554016	-0.531133	0.534161
H142	H	0.571958	-0.436869	0.509288
H143	H	0.630574	-0.497534	0.505570
H144	H	0.517636	-0.501819	0.427732
H145	H	0.576246	-0.562503	0.424013
H146	H	0.711846	-0.484273	0.412782
H147	H	0.890859	-0.484083	0.592693
