data_functionalizedCrystal
_audit_creation_method	'MofGen! by Chris Wilmer'
_symmetry_space_group_name_H-M	'P1'
_symmetry_Int_Tables_number	1
_symmetry_cell_setting	triclinic
loop_
_symmetry_equiv_pos_as_xyz
  x,y,z
_cell_length_a	16.109301
_cell_length_b	23.532357
_cell_length_c	14.586319
_cell_angle_alpha	89.990687
_cell_angle_beta	89.998857
_cell_angle_gamma	83.144938
loop_
_atom_site_label
_atom_site_type_symbol
_atom_site_fract_x
_atom_site_fract_y
_atom_site_fract_z
O1	O	1.102536	0.073204	-0.076201
O2	O	1.435869	0.406538	0.257132
O3	O	1.769203	0.739871	0.590465
O4	O	0.860400	0.082314	-0.076216
O5	O	1.193733	0.415648	0.257118
O6	O	1.527067	0.748981	0.590451
O7	O	0.988791	-0.005147	-0.076189
O8	O	1.322125	0.328186	0.257144
O9	O	1.655458	0.661519	0.590477
O10	O	0.974145	0.160666	-0.076228
O11	O	1.307478	0.493999	0.257106
O12	O	1.640811	0.827333	0.590439
O13	O	0.988782	-0.005149	0.076292
O14	O	1.322116	0.328185	0.409625
O15	O	1.655449	0.661518	0.742958
O16	O	0.860391	0.082313	0.076265
O17	O	1.193724	0.415646	0.409598
O18	O	1.527058	0.748980	0.742932
O19	O	1.102527	0.073203	0.076279
O20	O	1.435860	0.406536	0.409613
O21	O	1.769194	0.739870	0.742946
Cu22	Cu	0.981458	0.077758	0.090195
Cu23	Cu	1.314792	0.411091	0.423528
Cu24	Cu	1.648125	0.744425	0.756862
Cu25	Cu	0.981469	0.077759	-0.090131
Cu26	Cu	1.314802	0.411093	0.243202
Cu27	Cu	1.648135	0.744426	0.576535
O28	O	0.974136	0.160665	0.076253
O29	O	1.307469	0.493998	0.409586
O30	O	1.640802	0.827331	0.742920
C31	C	0.829424	0.081945	0.000023
C32	C	1.162757	0.415278	0.333357
C33	C	1.496090	0.748611	0.666690
C34	C	0.737137	0.080838	0.000019
C35	C	1.070471	0.414172	0.333352
C36	C	1.403804	0.747505	0.666685
C37	C	0.427747	0.129119	0.000023
C38	C	0.761080	0.462453	0.333357
C39	C	1.094413	0.795786	0.666690
C40	C	0.514459	0.130164	0.000018
C41	C	0.847792	0.463498	0.333351
C42	C	1.181125	0.796831	0.666684
C43	C	0.535175	0.026394	0.000030
C44	C	0.868508	0.359727	0.333363
C45	C	1.201842	0.693061	0.666696
C46	C	0.448465	0.025350	0.000029
C47	C	0.781798	0.358683	0.333362
C48	C	1.115131	0.692016	0.666695
C49	C	0.394752	0.076714	0.000030
C50	C	0.728086	0.410047	0.333364
C51	C	1.061419	0.743381	0.666697
C52	C	0.568175	0.078803	0.000026
C53	C	0.901508	0.412137	0.333359
C54	C	1.234841	0.745470	0.666692
C55	C	0.662191	0.079936	0.000020
C56	C	0.995525	0.413269	0.333353
C57	C	1.328858	0.746602	0.666686
C58	C	0.300730	0.075582	0.000034
C59	C	0.634063	0.408915	0.333368
C60	C	0.967396	0.742248	0.666701
C61	C	0.988420	-0.026366	0.000054
C62	C	1.321754	0.306967	0.333387
C63	C	1.655087	0.640301	0.666721
C64	C	0.987319	-0.089589	0.000063
C65	C	1.320652	0.243745	0.333396
C66	C	1.653986	0.577078	0.666729
C67	C	0.980409	-0.481625	-0.083105
C68	C	1.313742	-0.148291	0.250229
C69	C	1.647076	0.185042	0.583562
C70	C	0.979362	-0.541028	-0.083110
C71	C	1.312695	-0.207695	0.250223
C72	C	1.646029	0.125639	0.583557
O73	O	0.978796	-0.571746	-0.153798
O74	O	1.312130	-0.238412	0.179535
O75	O	1.645463	0.094921	0.512869
N76	N	0.978838	-0.570742	0.000006
N77	N	1.312171	-0.237408	0.333340
N78	N	1.645504	0.095925	0.666673
C79	C	0.979352	-0.541048	0.083133
C80	C	1.312686	-0.207715	0.416466
C81	C	1.646019	0.125618	0.749800
O82	O	0.978810	-0.571777	0.153829
O83	O	1.312143	-0.238444	0.487163
O84	O	1.645476	0.094890	0.820496
C85	C	0.980393	-0.481646	0.083137
C86	C	1.313727	-0.148312	0.416471
C87	C	1.647060	0.185021	0.749804
C88	C	0.980926	-0.451936	0.000016
C89	C	1.314259	-0.118602	0.333349
C90	C	1.647593	0.214731	0.666682
C91	C	0.980940	-0.451915	-0.166219
C92	C	1.314274	-0.118581	0.167114
C93	C	1.647607	0.214752	0.500447
C94	C	0.981989	-0.392515	-0.166214
C95	C	1.315322	-0.059182	0.167120
C96	C	1.648656	0.274151	0.500453
C97	C	0.982506	-0.362827	-0.083093
C98	C	1.315839	-0.029493	0.250240
C99	C	1.649173	0.303840	0.583573
C100	C	0.981974	-0.392537	0.000021
C101	C	1.315308	-0.059203	0.333355
C102	C	1.648641	0.274130	0.666688
C103	C	0.980902	-0.451953	0.166263
C104	C	1.314235	-0.118620	0.499597
C105	C	1.647569	0.214714	0.832930
C106	C	0.981943	-0.392546	0.166260
C107	C	1.315276	-0.059213	0.499594
C108	C	1.648609	0.274121	0.832927
C109	C	0.982475	-0.362836	0.083139
C110	C	1.315808	-0.029503	0.416472
C111	C	1.649142	0.303831	0.749806
C112	C	0.983540	-0.303449	0.083148
C113	C	1.316873	0.029885	0.416481
C114	C	1.650207	0.363218	0.749814
N115	N	0.984064	-0.273735	0.000031
N116	N	1.317397	0.059599	0.333365
N117	N	1.650731	0.392932	0.666698
C118	C	0.983547	-0.303424	-0.083089
C119	C	1.316880	0.029910	0.250244
C120	C	1.650214	0.363243	0.583578
C121	C	0.977165	-0.665798	0.083118
C122	C	1.310498	-0.332465	0.416451
C123	C	1.643831	0.000869	0.749784
C124	C	0.976130	-0.725200	0.083114
C125	C	1.309463	-0.391867	0.416448
C126	C	1.642796	-0.058534	0.749781
C127	C	0.976138	-0.725176	-0.083129
C128	C	1.309471	-0.391842	0.250204
C129	C	1.642804	-0.058509	0.583538
C130	C	0.977179	-0.665773	-0.083125
C131	C	1.310512	-0.332439	0.250209
C132	C	1.643845	0.000894	0.583542
C133	C	0.977689	-0.636084	0.000001
C134	C	1.311022	-0.302751	0.333335
C135	C	1.644355	0.030582	0.666668
C136	C	0.985750	-0.178682	-0.083071
C137	C	1.319083	0.154652	0.250262
C138	C	1.652416	0.487985	0.583596
C139	C	0.986802	-0.119278	-0.083058
C140	C	1.320135	0.214056	0.250275
C141	C	1.653469	0.547389	0.583609
C142	C	0.986789	-0.119307	0.083185
C143	C	1.320123	0.214026	0.416518
C144	C	1.653456	0.547360	0.749852
C145	C	0.985742	-0.178706	0.083172
C146	C	1.319075	0.154627	0.416506
C147	C	1.652409	0.487960	0.749839
C148	C	0.985219	-0.208392	0.000037
C149	C	1.318553	0.124942	0.333370
C150	C	1.651886	0.458275	0.666704
O151	O	0.984103	-0.272693	0.153799
O152	O	1.317436	0.060641	0.487133
O153	O	1.650770	0.393974	0.820466
O154	O	0.984079	-0.272687	-0.153773
O155	O	1.317412	0.060646	0.179560
O156	O	1.650746	0.393980	0.512893
C157	C	1.133503	0.073573	0.000039
C158	C	1.466837	0.406906	0.333372
C159	C	1.800170	0.740239	0.666705
C160	C	1.225790	0.074679	0.000037
C161	C	1.559123	0.408013	0.333371
C162	C	1.892456	0.741346	0.666704
C163	C	0.974507	0.181883	0.000008
C164	C	1.307840	0.515217	0.333341
C165	C	1.641173	0.848550	0.666674
C166	C	0.975608	0.245106	-0.000007
C167	C	1.308941	0.578439	0.333327
C168	C	1.642275	0.911773	0.666660
N169	N	0.981457	0.077757	0.217027
N170	N	1.314790	0.411090	0.550360
N171	N	1.648124	0.744423	0.883693
N172	N	0.981477	0.077756	-0.216963
N173	N	1.314810	0.411090	0.116370
N174	N	1.648143	0.744423	0.449704
C175	C	1.038327	0.039041	0.452045
C176	C	1.371661	0.372375	0.785378
C177	C	1.704994	0.705708	1.118712
C178	C	1.038330	0.039040	0.548026
C179	C	1.371663	0.372373	0.881359
C180	C	1.704996	0.705707	1.214693
C181	C	0.924600	0.116473	0.548012
C182	C	1.257934	0.449807	0.881346
C183	C	1.591267	0.783140	1.214679
C184	C	0.924595	0.116471	0.452033
C185	C	1.257928	0.449805	0.785366
C186	C	1.591261	0.783138	1.118699
C187	C	0.981463	0.077756	0.404052
C188	C	1.314796	0.411090	0.737385
C189	C	1.648129	0.744423	1.070718
C190	C	0.981471	0.077757	0.596012
C191	C	1.314804	0.411090	0.929346
C192	C	1.648138	0.744423	1.262679
C193	C	0.981473	0.077755	0.700079
C194	C	1.314806	0.411089	1.033413
C195	C	1.648140	0.744422	1.366746
C196	C	0.981460	0.077757	0.299978
C197	C	1.314793	0.411090	0.633311
C198	C	1.648126	0.744423	0.966644
H199	H	0.987237	-0.095090	-0.150748
H200	H	1.320571	0.238243	0.182585
H201	H	1.653904	0.571576	0.515918
H202	H	0.421601	-0.017328	0.000031
H203	H	0.754935	0.316006	0.333365
H204	H	1.088268	0.649339	0.666698
Cl205	Cl	0.982650	-0.355174	-0.270715
Cl206	Cl	1.315984	-0.021841	0.062618
Cl207	Cl	1.649317	0.311493	0.395951
Cl208	Cl	0.982585	-0.355227	0.270769
Cl209	Cl	1.315918	-0.021894	0.604102
Cl210	Cl	1.649251	0.311440	0.937436
Cl211	Cl	0.980292	-0.489227	-0.270728
Cl212	Cl	1.313625	-0.155894	0.062605
Cl213	Cl	1.646959	0.177439	0.395938
Cl214	Cl	1.109817	-0.009633	0.608358
Cl215	Cl	1.443151	0.323700	0.941691
Cl216	Cl	1.776484	0.657034	1.275025
Cl217	Cl	0.977814	-0.628482	0.187630
Cl218	Cl	1.311147	-0.295149	0.520963
Cl219	Cl	1.644481	0.038185	0.854297
Cl220	Cl	0.853115	0.165144	0.608336
Cl221	Cl	1.186449	0.498477	0.941669
Cl222	Cl	1.519782	0.831811	1.275002
Cl223	Cl	0.360226	0.193692	0.000021
Cl224	Cl	0.693559	0.527025	0.333354
Cl225	Cl	1.026893	0.860358	0.666687
H226	H	0.977611	-0.641587	-0.150810
H227	H	1.310944	-0.308253	0.182524
H228	H	1.644278	0.025080	0.515857
H229	H	0.578918	-0.015425	0.000031
H230	H	0.912251	0.317908	0.333364
H231	H	1.245584	0.651242	0.666697
Cl232	Cl	0.985095	-0.215991	-0.187585
Cl233	Cl	1.318428	0.117342	0.145748
Cl234	Cl	1.651761	0.450675	0.479081
H235	H	1.084631	0.007516	0.412981
H236	H	1.417965	0.340850	0.746314
H237	H	1.751298	0.674183	1.079648
H238	H	0.975714	-0.749359	-0.150810
H239	H	1.309047	-0.416026	0.182523
H240	H	1.642380	-0.082692	0.515856
Cl241	Cl	0.853099	0.165143	0.391692
Cl242	Cl	1.186432	0.498476	0.725026
Cl243	Cl	1.519765	0.831809	1.058359
H244	H	0.541318	0.172838	0.000012
H245	H	0.874651	0.506171	0.333345
H246	H	1.207984	0.839505	0.666678
H247	H	0.975709	-0.749386	0.150800
H248	H	1.309042	-0.416053	0.484134
H249	H	1.642375	-0.082720	0.817467
H250	H	0.980470	-0.476133	0.233950
H251	H	1.313803	-0.142799	0.567283
H252	H	1.647136	0.190534	0.900617
H253	H	0.985316	-0.202898	0.150857
H254	H	1.318649	0.130435	0.484190
H255	H	1.651983	0.463769	0.817523
Cl256	Cl	0.987439	-0.081973	0.187673
Cl257	Cl	1.320773	0.251361	0.521007
Cl258	Cl	1.654106	0.584694	0.854340
