data_functionalizedCrystal
_audit_creation_method	'MofGen! by Chris Wilmer'
_symmetry_space_group_name_H-M	'P1'
_symmetry_Int_Tables_number	1
_symmetry_cell_setting	triclinic
loop_
_symmetry_equiv_pos_as_xyz
  x,y,z
_cell_length_a	27.440280
_cell_length_b	14.395555
_cell_length_c	14.395555
_cell_angle_alpha	90.002465
_cell_angle_beta	60.005723
_cell_angle_gamma	59.997368
loop_
_atom_site_label
_atom_site_type_symbol
_atom_site_fract_x
_atom_site_fract_y
_atom_site_fract_z
Zr1	Zr	0.533371	-0.121849	0.895041
O2	O	0.635040	-0.270185	0.746730
O3	O	0.431708	-0.076377	0.940489
O4	O	0.533374	-0.270177	0.940507
O5	O	0.533370	0.076489	0.746718
O6	O	0.533370	-0.270169	1.093381
O7	O	0.533374	-0.076385	0.746712
O8	O	0.351508	0.076503	1.093349
O9	O	0.715232	-0.270183	0.746750
O10	O	0.473519	-0.056976	1.073981
O11	O	0.473519	0.057106	0.959897
O12	O	0.593218	-0.171068	0.959918
O13	O	0.593218	-0.056986	0.845834
Zr14	Zr	0.533360	0.121981	1.138866
Zr15	Zr	0.533366	-0.121836	1.138858
Zr16	Zr	0.533366	0.121968	0.895050
Zr17	Zr	0.661269	-0.121846	0.895072
Zr18	Zr	0.405462	0.121978	1.138835
O19	O	0.635024	0.076509	1.093418
O20	O	0.635032	-0.270166	1.093406
O21	O	0.635032	0.076491	0.746743
O22	O	0.431691	0.270317	1.287177
O23	O	0.431699	-0.076359	1.287165
O24	O	0.431699	0.270298	0.940501
O25	O	0.533361	-0.076357	1.287190
O26	O	0.533357	0.270309	1.093400
O27	O	0.533361	0.270301	0.940526
O28	O	0.533357	0.076517	1.287195
O29	O	0.715228	-0.270173	0.940552
O30	O	0.351503	0.270305	1.093355
O31	O	0.351499	0.270315	1.287157
O32	O	0.351503	0.076513	1.287150
O33	O	0.715228	-0.076381	0.746757
O34	O	0.715223	-0.076371	0.940559
O35	O	0.473514	0.171200	1.073989
O36	O	0.473514	0.057118	1.188073
O37	O	0.593212	-0.056974	1.074010
O38	O	0.593212	0.057108	0.959926
C39	C	0.373385	0.000062	1.016914
C40	C	0.319089	0.000061	1.016901
C41	C	0.533373	0.000050	0.711976
C42	C	0.533375	0.000044	0.608470
C43	C	0.533358	0.305043	1.016964
C44	C	0.533356	0.408550	1.016968
C45	C	-0.017653	-0.059474	1.076536
C46	C	-0.068677	-0.059471	1.076546
O47	O	-0.095083	-0.110081	1.127227
N48	N	-0.094193	0.000077	1.016995
C49	C	-0.068687	0.059634	0.957438
O50	O	-0.095077	0.110285	0.906786
C51	C	-0.017668	0.059637	0.957435
C52	C	0.007851	0.000077	1.016981
C53	C	0.007865	-0.119029	1.136078
C54	C	0.058886	-0.119033	1.136066
C55	C	0.084390	-0.059483	1.076511
C56	C	0.058872	0.000072	1.016969
C57	C	0.007833	0.119201	0.897886
C58	C	0.058856	0.119199	0.897889
C59	C	0.084374	0.059639	0.957435
C60	C	0.135396	0.059618	0.957402
N61	N	0.160913	0.000070	1.016954
C62	C	0.135409	-0.059480	1.076508
C63	C	-0.175833	0.059625	0.957450
C64	C	-0.226848	0.059617	0.957446
C65	C	-0.226834	-0.059487	1.076557
C66	C	-0.175815	-0.059484	1.076554
C67	C	-0.150316	0.000078	1.017002
C68	C	0.242558	-0.059486	1.076477
C69	C	0.293586	-0.059489	1.076456
C70	C	0.293566	0.059619	0.957351
C71	C	0.242545	0.059618	0.957367
C72	C	0.217041	0.000063	1.016939
O73	O	0.161833	0.110206	0.906751
O74	O	0.161798	-0.110110	1.127164
C75	C	0.693346	0.000070	1.016993
C76	C	0.747642	0.000071	1.017006
C77	C	0.533373	-0.304911	1.016943
C78	C	0.533375	-0.408418	1.016939
C79	C	0.468091	0.531347	1.079155
C80	C	0.500715	0.562178	1.124245
C81	C	0.500734	0.562142	0.971901
C82	C	0.565981	0.438017	1.062121
C83	C	0.565990	0.437985	0.909717
C84	C	0.598662	0.468743	0.954780
C85	C	0.598640	-0.062154	0.485689
C86	C	0.566016	-0.107231	0.454844
C87	C	0.565997	0.045113	0.454892
C88	C	0.500751	-0.045096	0.578988
C89	C	0.500741	0.107308	0.579033
C90	C	0.468069	0.062257	0.548261
C91	C	0.533358	0.000082	1.321931
C92	C	0.533356	0.000088	1.425437
C93	C	0.373378	0.000079	1.321892
C94	C	0.319080	0.000083	1.425385
C95	C	0.373378	0.305040	1.016925
C96	C	0.319080	0.408545	1.016915
C97	C	0.373371	0.305056	1.321902
C98	C	0.319070	0.408567	1.425399
C99	C	0.693361	-0.304924	0.712005
C100	C	0.747661	-0.408435	0.608508
C101	C	0.693353	0.000053	0.712016
C102	C	0.747652	0.000049	0.608522
C103	C	0.693353	-0.304908	1.016982
C104	C	0.747652	-0.408413	1.016992
C105	C	0.293583	-0.059481	1.414431
C106	C	0.242571	-0.059500	1.511665
C107	C	0.217053	0.000053	1.619851
C108	C	0.242554	0.059619	1.630802
C109	C	0.293569	0.059630	1.533570
C110	C	0.293578	0.516719	1.076466
C111	C	0.242566	0.613982	1.076452
C112	C	0.217053	0.603070	1.016894
C113	C	0.242560	0.494885	0.957337
C114	C	0.293575	0.397624	0.957344
C115	C	0.293570	0.397627	1.533563
C116	C	0.242555	0.494877	1.630819
C117	C	0.217039	0.603066	1.619908
C118	C	0.242544	0.614004	1.511732
C119	C	0.293561	0.516755	1.414479
C120	C	0.773168	-0.397495	0.500344
C121	C	0.824198	-0.494745	0.403088
C122	C	0.849717	-0.602934	0.414000
C123	C	0.824209	-0.613871	0.522175
C124	C	0.773183	-0.516622	0.619428
C125	C	0.773153	0.059603	0.619476
C126	C	0.824179	0.059595	0.522242
C127	C	0.849700	0.000039	0.414057
C128	C	0.824196	-0.059523	0.403105
C129	C	0.773174	-0.059520	0.500338
C130	C	0.773148	-0.397464	1.076561
C131	C	0.824160	-0.494709	1.076593
C132	C	0.849679	-0.602902	1.017047
C133	C	0.824177	-0.613848	0.957476
C134	C	0.773163	-0.516604	0.957452
H135	H	0.221798	-0.107979	1.124988
H136	H	0.221814	-0.108006	1.502726
N137	N	0.321088	0.528517	1.140704
H138	H	0.372301	0.490813	1.086093
H139	H	0.312158	0.490851	1.200639
H140	H	0.593543	0.384655	1.100327
N141	N	-0.254362	0.123854	0.893214
H142	H	-0.305575	0.183789	0.947833
H143	H	-0.245442	0.069162	0.833290
N144	N	0.162024	0.000049	1.724721
H145	H	0.179774	-0.033843	1.771539
H146	H	0.149766	-0.046702	1.701266
H147	H	0.473188	-0.083298	0.632339
N148	N	0.745632	-0.280778	1.140788
H149	H	0.769528	-0.288615	1.178529
H150	H	0.694417	-0.237832	1.200644
H151	H	0.314321	0.108141	1.542504
N152	N	0.162026	0.707974	1.016895
H153	H	0.179784	0.754780	0.983013
H154	H	0.119714	0.754691	1.097573
N155	N	0.745664	-0.528420	0.736094
H156	H	0.784586	-0.571382	0.745218
H157	H	0.724498	-0.571359	0.745101
H158	H	0.752379	0.108109	0.707558
N159	N	0.745653	-0.280810	0.488565
H160	H	0.694441	-0.237802	0.526239
H161	H	0.769611	-0.288744	0.405261
N162	N	0.464245	0.227404	0.649929
H163	H	0.448051	0.281928	0.611342
H164	H	0.497034	0.233555	0.658300
H165	H	0.412836	0.114862	0.573907
H166	H	0.653828	-0.114833	0.460257
N167	N	0.602548	-0.227362	0.383964
H168	H	0.651852	-0.274304	0.359474
H169	H	0.601827	-0.226294	0.314501
H170	H	0.221804	0.702061	1.124955
H171	H	0.175497	0.682243	1.699107
H172	H	-0.155041	-0.107983	1.125042
N173	N	0.851658	-0.482888	1.140850
H174	H	0.827752	-0.399591	1.178556
H175	H	0.902873	-0.520648	1.086189
H176	H	0.653895	0.443084	0.902191
H177	H	0.891245	0.000046	0.334893
H178	H	0.844936	0.108101	0.531181
H179	H	0.593551	0.384473	0.819047
H180	H	0.844958	-0.485817	0.315017
H181	H	0.221780	0.486017	0.908846
N182	N	0.904746	-0.707812	0.309093
H183	H	0.886994	-0.754622	0.309030
H184	H	0.947067	-0.754541	0.309100
H185	H	0.593592	0.083212	0.401394
N186	N	0.464183	0.633057	1.244371
H187	H	0.414880	0.657558	1.291299
H188	H	0.464905	0.702520	1.243311
N189	N	0.904696	-0.707781	1.017091
H190	H	0.916971	-0.684418	1.063868
H191	H	0.947002	-0.754563	0.936418
N192	N	0.851704	-0.730545	0.893255
H193	H	0.887892	-0.790477	0.902312
H194	H	0.872842	-0.739565	0.809973
N195	N	0.321107	-0.123724	1.140689
H196	H	0.372319	-0.183661	1.086070
H197	H	0.297155	-0.161371	1.178418
H198	H	0.752409	-0.525535	0.908939
H199	H	0.314331	0.309548	0.908855
N200	N	0.321099	-0.123715	1.297753
H201	H	0.297202	-0.161451	1.305585
H202	H	0.372314	-0.183583	1.254818
N203	N	0.215028	0.123847	1.747491
H204	H	0.178841	0.114798	1.807416
H205	H	0.193890	0.207134	1.756507
N206	N	-0.148328	0.123859	0.893196
H207	H	-0.097116	0.069239	0.833266
H208	H	-0.157253	0.183799	0.947876
H209	H	0.844982	-0.108012	0.315007
N210	N	0.086398	-0.183249	1.200311
H211	H	0.137611	-0.243188	1.145706
H212	H	0.062444	-0.220893	1.238041
N213	N	0.321079	0.280945	1.545348
H214	H	0.297178	0.288789	1.628634
H215	H	0.372294	0.237991	1.507598
N216	N	-0.019628	-0.183276	1.200312
H217	H	-0.010747	-0.243213	1.145697
H218	H	-0.070832	-0.128594	1.260248
N219	N	0.321073	0.123853	0.893123
H220	H	0.372286	0.069235	0.833196
H221	H	0.312146	0.183777	0.947824
H222	H	-0.247609	-0.107974	1.125051
H223	H	0.221794	0.485951	1.718891
H224	H	0.314317	0.525678	1.326410
N225	N	-0.019691	0.183460	0.833678
H226	H	0.004208	0.221190	0.795967
H227	H	-0.070904	0.243333	0.888374
H228	H	0.079615	0.167701	0.849392
H229	H	0.221761	0.702104	1.502865
H230	H	0.412903	0.556790	1.131819
H231	H	0.752412	-0.108013	0.491403
N232	N	0.215029	0.123834	0.893123
H233	H	0.238933	0.161552	0.855388
H234	H	0.163815	0.183715	0.947802
N235	N	0.464188	0.633020	0.921423
H236	H	0.414886	0.657514	0.968476
H237	H	0.488389	0.586434	0.840871
H238	H	0.844993	-0.701970	0.531046
