data_functionalizedCrystal
_audit_creation_method	'MofGen! by Chris Wilmer'
_symmetry_space_group_name_H-M	'P1'
_symmetry_Int_Tables_number	1
_symmetry_cell_setting	triclinic
loop_
_symmetry_equiv_pos_as_xyz
  x,y,z
_cell_length_a	12.759395
_cell_length_b	17.637651
_cell_length_c	12.759387
_cell_angle_alpha	101.249304
_cell_angle_beta	90.021028
_cell_angle_gamma	101.219868
loop_
_atom_site_label
_atom_site_type_symbol
_atom_site_fract_x
_atom_site_fract_y
_atom_site_fract_z
Zn1	Zn	1.521704	-0.314712	0.509347
Zn2	Zn	1.486062	-0.446949	0.298090
Zn3	Zn	1.345991	-0.314753	0.333672
Zn4	Zn	1.310477	-0.446891	0.473743
O5	O	1.416058	-0.380826	0.403713
O6	O	1.663995	-0.332260	0.481333
O7	O	1.467427	-0.429455	0.155778
O8	O	1.399079	-0.204106	0.386767
O9	O	1.637809	-0.429414	0.326123
O10	O	1.528174	-0.204075	0.515835
O11	O	1.364518	-0.332331	0.181919
O12	O	1.194261	-0.332275	0.352243
O13	O	1.338550	-0.429316	0.625498
O14	O	1.168169	-0.429356	0.455153
O15	O	1.493738	-0.332204	0.651657
O16	O	1.432991	-0.557583	0.291599
O17	O	1.303990	-0.557541	0.420651
C18	C	1.143094	-0.380814	0.403696
C19	C	1.026314	-0.380828	0.403708
C20	C	0.834098	-0.279842	0.565532
C21	C	0.902578	-0.229332	0.646418
C22	C	1.012304	-0.229319	0.646404
C23	C	1.053549	-0.279822	0.565496
C24	C	0.985069	-0.330332	0.484609
C25	C	0.875343	-0.330338	0.484631
C26	C	0.957834	-0.431337	0.322822
C27	C	0.848109	-0.431348	0.322830
C28	C	0.999079	-0.481841	0.241914
C29	C	0.930599	-0.532347	0.161021
C30	C	0.820868	-0.532358	0.161039
C31	C	0.779629	-0.481858	0.241944
C32	C	1.360797	-0.586250	0.348423
C33	C	1.337253	-0.674131	0.324805
C34	C	1.595608	-0.962788	0.583468
C35	C	1.573451	-1.045366	0.561257
C36	C	1.439113	-1.045504	0.426728
C37	C	1.461263	-0.962925	0.448925
C38	C	1.539510	-0.921573	0.527296
C39	C	1.405165	-0.921711	0.392753
C40	C	1.427309	-0.839138	0.414951
C41	C	1.505551	-0.797781	0.493322
C42	C	1.561655	-0.839001	0.549495
C43	C	1.326912	-0.963064	0.314387
C44	C	1.270815	-0.921849	0.258215
C45	C	1.292964	-0.839276	0.280408
C46	C	1.371206	-0.797918	0.358778
C47	C	1.236861	-0.798055	0.224235
C48	C	1.259005	-0.715483	0.246433
C49	C	1.393350	-0.715346	0.380977
C50	C	1.690088	-0.380839	0.403731
C51	C	1.806863	-0.380845	0.403738
C52	C	1.416159	-0.380749	0.677767
C53	C	1.416201	-0.380716	0.794553
C54	C	1.471564	-0.174600	0.459242
C55	C	1.495217	-0.086719	0.482905
C56	C	1.416034	-0.380846	0.130740
C57	C	1.416255	-0.380657	0.014015
C58	C	1.577805	-0.279600	0.821810
C59	C	1.658625	-0.229031	0.890302
C60	C	1.658658	-0.229002	1.000032
C61	C	1.577861	-0.279546	1.041270
C62	C	1.497041	-0.330116	0.972778
C63	C	1.497019	-0.330141	0.863047
C64	C	1.335435	-0.431226	0.945523
C65	C	1.335404	-0.431260	0.835792
C66	C	1.254638	-0.481771	0.986761
C67	C	1.173821	-0.532346	0.918267
C68	C	1.173791	-0.532373	0.808532
C69	C	1.254584	-0.481830	0.767299
H70	H	0.964190	-0.573467	0.095157
H71	H	1.457075	-0.681676	0.444787
H72	H	1.173144	-0.831736	0.160432
H73	H	1.068061	-0.188191	0.712270
H74	H	1.213323	-0.681926	0.200693
H75	H	0.765115	-0.573493	0.095175
N76	N	1.171883	-0.279849	0.565519
H77	H	1.209003	-0.240202	0.629051
H78	H	1.202160	-0.265282	0.497375
H79	H	1.724464	-0.187819	1.055801
H80	H	1.088423	-0.481831	0.241913
N81	N	0.661286	-0.481860	0.241966
H82	H	0.630974	-0.496459	0.310084
H83	H	0.624242	-0.521513	0.178406
N84	N	1.529451	-0.708720	0.517278
H85	H	1.462701	-0.688850	0.541868
H86	H	1.554162	-0.688919	0.450535
H87	H	1.577889	-0.279512	1.130621
N88	N	1.633972	-1.089817	0.621840
H89	H	1.608072	-1.148402	0.595887
H90	H	1.621457	-1.075353	0.700748
N91	N	1.646063	-0.794391	0.634012
H92	H	1.678249	-0.833028	0.666227
H93	H	1.612463	-0.760126	0.691807
N94	N	1.680016	-0.918178	0.667985
H95	H	1.712203	-0.956815	0.700200
H96	H	1.646416	-0.883913	0.725780
N97	N	1.354725	-1.090107	0.342198
H98	H	1.349209	-1.148671	0.336655
H99	H	1.374995	-1.075702	0.271054
N100	N	0.715753	-0.279856	0.565540
H101	H	0.693214	-0.265261	0.497431
H102	H	0.700095	-0.240206	0.629108
H103	H	1.254668	-0.481741	1.076110
H104	H	1.308875	-1.030299	0.296325
N105	N	1.186432	-0.966455	0.173680
H106	H	1.154258	-0.927813	0.141462
H107	H	1.128596	-1.000717	0.207186
N108	N	1.577780	-0.279642	0.703457
H109	H	1.641226	-0.239953	0.687724
H110	H	1.509577	-0.265130	0.680999
H111	H	1.724407	-0.187877	0.856714
H112	H	1.108038	-0.573491	0.951855
H113	H	1.107969	-0.573544	0.752772
H114	H	1.254572	-0.481851	0.677953
H115	H	0.868983	-0.188215	0.712294
