data_functionalizedCrystal
_audit_creation_method	'MofGen! by Chris Wilmer'
_symmetry_space_group_name_H-M	'P1'
_symmetry_Int_Tables_number	1
_symmetry_cell_setting	triclinic
loop_
_symmetry_equiv_pos_as_xyz
  x,y,z
_cell_length_a	15.711784
_cell_length_b	14.185569
_cell_length_c	15.625429
_cell_angle_alpha	120.547738
_cell_angle_beta	101.028942
_cell_angle_gamma	72.820839
loop_
_atom_site_label
_atom_site_type_symbol
_atom_site_fract_x
_atom_site_fract_y
_atom_site_fract_z
O1	O	1.081658	0.280459	0.541649
O2	O	0.836161	0.253853	0.468516
O3	O	0.977372	0.217180	0.367689
O4	O	0.940447	0.317132	0.642476
O5	O	1.019087	0.039514	0.337909
O6	O	0.877876	0.076187	0.438736
O7	O	1.123373	0.102793	0.511869
Cu8	Cu	1.004433	0.073267	0.472583
Cu9	Cu	0.955101	0.283378	0.507802
O10	O	0.982161	0.139465	0.612696
C11	C	0.825822	0.160674	0.441680
C12	C	0.732866	0.147720	0.406071
N13	N	1.039137	-0.074513	0.447813
C14	C	0.619220	0.098958	0.272017
C15	C	0.706564	0.111133	0.305486
C16	C	0.671825	0.172151	0.473226
C17	C	0.584475	0.159986	0.439772
C18	C	0.558180	0.123388	0.339166
C19	C	0.523435	0.184416	0.506921
C20	C	0.436094	0.172246	0.473467
C21	C	0.409792	0.135646	0.372865
C22	C	0.470839	0.111218	0.305712
C23	C	0.549733	0.221007	0.607525
C24	C	0.488693	0.245437	0.674674
C25	C	0.401348	0.233275	0.641223
C26	C	0.375047	0.196675	0.540620
C27	C	0.340301	0.257703	0.708375
C28	C	0.252960	0.245533	0.674922
C29	C	0.287706	0.184505	0.507167
C30	C	0.818447	-0.384883	0.605297
C31	C	0.844740	-0.496726	0.586543
C32	C	0.969802	-0.529140	0.497318
C33	C	0.943517	-0.417299	0.516060
C34	C	0.867840	-0.345179	0.570051
C35	C	0.992909	-0.377595	0.480814
C36	C	0.966629	-0.265762	0.499560
C37	C	0.890956	-0.193634	0.553551
C38	C	0.841559	-0.233346	0.588797
C39	C	1.068590	-0.449715	0.426829
C40	C	1.117982	-0.410010	0.391583
C41	C	1.091698	-0.298178	0.410322
C42	C	1.016025	-0.226050	0.464314
C43	C	1.141095	-0.258466	0.375077
C44	C	1.114814	-0.146633	0.393822
C45	C	0.989745	-0.114217	0.483060
C46	C	1.133712	0.195974	0.538706
C47	C	1.226666	0.208935	0.574316
C48	C	1.000694	0.115261	0.316818
C49	C	1.008026	0.076268	0.209601
N50	N	0.920404	0.431156	0.532566
C51	C	0.918434	0.432213	-0.061869
C52	C	0.925328	0.395540	-0.162622
C53	C	0.970803	0.201861	-0.195073
C54	C	0.963917	0.238518	-0.094320
C55	C	0.937731	0.353695	-0.027726
C56	C	0.983214	0.160000	-0.060177
C57	C	0.976324	0.196655	0.040566
C58	C	0.950137	0.311827	0.107166
C59	C	0.930841	0.390350	0.073017
C60	C	1.009393	0.044823	-0.126774
C61	C	1.028690	-0.033695	-0.092630
C62	C	1.021807	0.002960	0.008115
C63	C	0.995620	0.118132	0.074715
C64	C	1.041102	-0.075563	0.042264
C65	C	1.034212	-0.038909	0.143007
C66	C	0.988730	0.154786	0.175458
C67	C	0.958839	0.241387	0.663568
C68	C	0.951505	0.280386	0.770785
H69	H	0.338675	0.125729	0.345627
H70	H	0.361727	0.287491	0.790287
H71	H	0.203260	0.265423	0.729601
O72	O	0.590849	0.059480	0.163504
H73	H	0.598942	0.119593	0.141835
O74	O	1.056952	-0.157917	-0.164453
H75	H	1.058512	-0.170216	-0.240241
H76	H	1.202717	-0.317198	0.331125
O77	O	0.902599	0.514580	0.144850
H78	H	0.901055	0.526872	0.220638
O79	O	0.772403	0.084792	0.233059
H80	H	0.739440	0.057308	0.157486
O81	O	1.199605	-0.487804	0.333356
H82	H	1.229538	-0.441401	0.312003
O83	O	0.700185	0.211627	0.581735
H84	H	0.771172	0.215992	0.593719
O85	O	0.643936	0.234133	0.643617
H86	H	0.657461	0.296597	0.628382
H87	H	1.062414	-0.169342	-0.011973
H88	H	0.992120	0.108082	-0.249307
H89	H	0.944518	0.341668	0.189194
O90	O	0.736822	-0.307082	0.663530
H91	H	0.706889	-0.353474	0.684895
H92	H	0.897119	0.526003	-0.007642
O93	O	0.904522	0.480232	-0.199450
H94	H	0.885163	0.566477	-0.136214
H95	H	0.510115	0.275231	0.756588
O96	O	1.016834	0.005288	-0.235432
H97	H	0.950984	0.033031	-0.267116
H98	H	0.804513	-0.529044	0.615251
H99	H	1.049908	-0.102848	0.170802
O100	O	1.168061	-0.103787	0.355797
H101	H	1.237457	-0.112145	0.388138
O102	O	0.259335	0.145027	0.398654
H103	H	0.267428	0.205140	0.376985
O104	O	0.908114	-0.036408	0.541279
H105	H	0.917515	-0.029204	0.616437
O106	O	0.442465	0.071745	0.197201
H107	H	0.499584	0.056796	0.156122
O108	O	1.051425	-0.606925	0.439087
H109	H	1.032032	-0.679519	0.371057
O110	O	0.862606	-0.073015	0.573764
H111	H	0.863044	-0.015657	0.655319
O112	O	0.759929	-0.155536	0.647016
H113	H	0.769330	-0.148332	0.722174
O114	O	1.096945	-0.570337	0.406607
H115	H	1.042530	-0.613708	0.363557
O116	O	0.960484	0.279015	0.247295
H117	H	1.008754	0.322836	0.247866
