data_functionalizedCrystal
_audit_creation_method	'MofGen! by Chris Wilmer'
_symmetry_space_group_name_H-M	'P1'
_symmetry_Int_Tables_number	1
_symmetry_cell_setting	triclinic
loop_
_symmetry_equiv_pos_as_xyz
  x,y,z
_cell_length_a	16.992694
_cell_length_b	10.540539
_cell_length_c	15.455313
_cell_angle_alpha	92.694186
_cell_angle_beta	87.142206
_cell_angle_gamma	87.596857
loop_
_atom_site_label
_atom_site_type_symbol
_atom_site_fract_x
_atom_site_fract_y
_atom_site_fract_z
O1	O	1.045302	0.264111	-0.072015
O2	O	0.817001	0.261155	-0.072041
O3	O	0.936360	0.078379	-0.072026
O4	O	0.925943	0.446887	-0.072030
O5	O	0.929534	0.088785	0.072235
O6	O	0.810175	0.271561	0.072220
O7	O	1.038476	0.274517	0.072246
Cu8	Cu	0.923702	0.273989	0.085405
Cu9	Cu	0.931774	0.261683	-0.085200
O10	O	0.919117	0.457293	0.072232
C11	C	0.784354	0.262557	0.000086
C12	C	0.697247	0.251216	0.000077
C13	C	0.647619	0.360636	0.000076
C14	C	0.565773	0.349973	0.000088
C15	C	0.533555	0.229889	0.000094
C16	C	0.583189	0.120461	0.000097
C17	C	0.665034	0.131125	0.000092
C18	C	0.289709	0.185692	0.000118
C19	C	0.207858	0.175036	0.000121
C20	C	0.190446	0.404549	0.000114
C21	C	0.272294	0.415202	0.000103
C22	C	0.321921	0.305774	0.000110
N23	N	0.449895	0.218988	0.000104
N24	N	0.405579	0.316677	0.000107
C25	C	0.932166	0.036211	0.000103
C26	C	0.929829	-0.104941	0.000098
C27	C	0.840284	-0.296163	-0.000236
C28	C	0.842638	-0.149316	0.000089
C29	C	0.967891	-0.157014	0.082483
C30	C	0.964912	-0.303812	0.082552
C31	C	0.974447	-0.316010	-0.081500
C32	C	0.975302	-0.169037	-0.082589
C33	C	1.071122	0.273115	0.000117
C34	C	1.158230	0.284456	0.000121
C35	C	0.923311	0.499461	0.000101
C36	C	0.925648	0.640612	0.000100
N37	N	0.918030	0.282645	0.205400
N38	N	0.937452	0.253018	-0.205195
C39	C	0.968756	0.205027	0.250801
C40	C	0.964474	0.211585	0.341608
C41	C	0.909469	0.295768	0.387013
C42	C	0.858738	0.373389	0.341607
C43	C	0.863017	0.366823	0.250801
C44	C	0.891000	0.324073	0.658593
C45	C	0.886727	0.330635	0.749405
C46	C	0.992462	0.168829	0.749400
C47	C	0.996739	0.162277	0.658592
C48	C	0.946005	0.239893	0.613193
N49	N	0.905093	0.302477	0.479833
N50	N	0.950379	0.233177	0.520375
H51	H	0.673844	0.458421	0.000071
O52	O	0.794897	-0.092156	0.078438
H53	H	0.833487	-0.035384	0.119622
H54	H	0.821710	0.430026	0.213837
H55	H	0.803202	-0.325110	0.058505
H56	H	0.298519	0.512986	0.000088
H57	H	0.705441	0.042024	0.000091
O58	O	0.836286	0.407795	0.609636
H59	H	0.871603	0.469907	0.568250
O60	O	0.799413	0.464195	0.390573
H61	H	0.804965	0.455734	0.461344
H62	H	0.525368	0.439075	0.000087
O63	O	1.057905	-0.371369	-0.082223
H64	H	1.091979	-0.340302	-0.140010
O65	O	0.136923	0.522573	0.000124
H66	H	0.074597	0.494991	0.000139
H67	H	1.041528	0.093728	0.621625
O68	O	1.019199	0.127895	0.390579
H69	H	1.058177	0.068275	0.343750
H70	H	0.812416	-0.113837	-0.058968
H71	H	0.808637	-0.332013	-0.059316
H72	H	0.181630	0.077244	0.000125
O73	O	0.343231	0.067673	0.000126
H74	H	0.307075	-0.017617	0.000123
O75	O	1.028080	0.114224	0.201828
H76	H	1.062626	0.061344	0.248658
H77	H	0.930988	-0.330261	0.144129
O78	O	1.047174	0.085106	0.798363
H79	H	1.034956	0.103802	0.869134
O80	O	0.548447	-0.009062	0.000107
H81	H	0.483197	0.001902	0.000103
H82	H	1.027442	-0.346069	0.086296
O83	O	1.052512	-0.119744	0.086567
H84	H	1.068375	-0.063572	0.029787
O85	O	0.925447	-0.098081	0.163688
H86	H	0.862451	-0.122118	0.164497
O87	O	0.940983	-0.366998	-0.164218
H88	H	0.889190	-0.423832	-0.148088
H89	H	0.841933	0.399192	0.786370
O90	O	0.938519	-0.124163	-0.163329
H91	H	0.888063	-0.056484	-0.144655
H92	H	1.039106	-0.139658	-0.087557
