data_functionalizedCrystal
_audit_creation_method	'MofGen! by Chris Wilmer'
_symmetry_space_group_name_H-M	'P1'
_symmetry_Int_Tables_number	1
_symmetry_cell_setting	triclinic
loop_
_symmetry_equiv_pos_as_xyz
  x,y,z
_cell_length_a	18.215407
_cell_length_b	10.686685
_cell_length_c	18.215399
_cell_angle_alpha	94.351788
_cell_angle_beta	89.983176
_cell_angle_gamma	85.640488
loop_
_atom_site_label
_atom_site_type_symbol
_atom_site_fract_x
_atom_site_fract_y
_atom_site_fract_z
Zn1	Zn	1.147585	-0.502265	-0.438637
Zn2	Zn	1.156968	-0.713269	-0.325032
Zn3	Zn	1.024527	-0.502315	-0.315587
Zn4	Zn	1.033948	-0.713190	-0.448054
O5	O	1.090757	-0.607759	-0.381828
O6	O	1.251815	-0.530267	-0.423580
O7	O	1.139383	-0.685339	-0.220798
O8	O	1.032982	-0.325750	-0.324016
O9	O	1.258708	-0.685291	-0.340115
O10	O	1.123392	-0.325713	-0.414421
O11	O	1.042079	-0.530352	-0.213858
O12	O	0.922792	-0.530276	-0.333147
O13	O	1.049038	-0.685156	-0.549787
O14	O	0.929713	-0.685205	-0.430470
O15	O	1.132527	-0.530190	-0.542868
O16	O	1.148518	-0.889816	-0.349245
O17	O	1.058136	-0.889758	-0.439629
C18	C	0.899550	-0.607738	-0.381806
C19	C	0.817752	-0.607759	-0.381815
C20	C	1.105387	-0.935566	-0.396500
C21	C	1.111713	-1.075804	-0.402801
C22	C	0.633187	-0.688557	-0.432438
C23	C	0.556328	-0.688561	-0.432447
C24	C	0.549080	-0.526984	-0.331235
C25	C	0.625937	-0.526975	-0.331229
C26	C	0.667989	-0.607769	-0.381830
C27	C	0.514273	-0.607782	-0.381845
C28	C	0.430940	-0.607786	-0.381855
C29	C	0.751327	-0.607764	-0.381821
C30	C	1.282711	-0.607782	-0.381850
C31	C	1.364510	-0.607792	-0.381860
C32	C	1.090787	-0.607659	-0.573776
C33	C	1.090800	-0.607616	-0.655573
C34	C	1.076090	-0.278672	-0.367114
C35	C	1.069839	-0.138435	-0.360844
C36	C	1.040171	-0.526860	-0.840152
C37	C	1.040183	-0.526834	-0.917010
C38	C	1.141510	-0.688221	-0.924225
C39	C	1.141494	-0.688252	-0.847369
C40	C	1.090826	-0.607564	-0.805334
C41	C	1.090853	-0.607508	-0.959048
C42	C	1.090866	-0.607481	-1.042381
C43	C	1.090812	-0.607592	-0.721997
C44	C	1.090765	-0.607769	-0.190622
C45	C	1.090879	-0.607456	-0.108809
H46	H	0.667423	-0.754342	-0.473642
H47	H	0.654273	-0.461179	-0.290018
F48	F	0.986262	-0.440951	-0.954063
F49	F	0.519293	-0.774545	-0.486312
F50	F	0.986244	-0.440988	-0.795418
H51	H	0.514832	-0.461207	-0.290037
F52	F	1.164902	-1.145944	-0.456046
F53	F	1.016655	-1.068289	-0.307589
F54	F	1.195433	-0.774089	-0.968968
F55	F	1.195408	-0.774158	-0.810312
