data_functionalizedCrystal
_audit_creation_method	'MofGen! by Chris Wilmer'
_symmetry_space_group_name_H-M	'P1'
_symmetry_Int_Tables_number	1
_symmetry_cell_setting	triclinic
loop_
_symmetry_equiv_pos_as_xyz
  x,y,z
_cell_length_a	17.640112
_cell_length_b	16.625546
_cell_length_c	17.640968
_cell_angle_alpha	101.233484
_cell_angle_beta	87.860920
_cell_angle_gamma	101.247770
loop_
_atom_site_label
_atom_site_type_symbol
_atom_site_fract_x
_atom_site_fract_y
_atom_site_fract_z
Zn1	Zn	1.247778	-0.023167	0.195079
Zn2	Zn	1.747778	0.476833	0.695079
Zn3	Zn	1.222008	-0.189521	0.068091
Zn4	Zn	1.722008	0.310479	0.568091
Zn5	Zn	1.095110	-0.075617	0.093723
Zn6	Zn	1.595110	0.424383	0.593723
Zn7	Zn	1.120749	-0.178908	0.220673
Zn8	Zn	1.620749	0.321092	0.720673
O9	O	1.171411	-0.116803	0.144392
O10	O	1.671411	0.383197	0.644392
O11	O	1.350629	-0.027726	0.156795
O12	O	1.850629	0.472274	0.656795
O13	O	1.183660	-0.200804	-0.034783
O14	O	1.683660	0.299196	0.465217
O15	O	1.115417	0.044187	0.107184
O16	O	1.615417	0.544187	0.607184
O17	O	1.331696	-0.149946	0.063498
O18	O	1.831696	0.350054	0.563498
O19	O	1.227581	0.082722	0.181650
O20	O	1.727581	0.582722	0.681650
O21	O	1.090428	-0.117119	-0.015951
O22	O	1.590428	0.382881	0.484049
O23	O	0.992242	-0.106828	0.132002
O24	O	1.492242	0.393172	0.632002
O25	O	1.159114	-0.131856	0.323552
O26	O	1.659114	0.368144	0.823552
O27	O	1.011078	-0.182715	0.225272
O28	O	1.511078	0.317285	0.725272
O29	O	1.252442	-0.017434	0.304748
O30	O	1.752442	0.482566	0.804748
O31	O	1.208521	-0.300961	0.088315
O32	O	1.708521	0.199039	0.588315
O33	O	1.134126	-0.293163	0.200417
O34	O	1.634126	0.206837	0.700417
C35	C	0.974106	-0.149311	0.184196
C36	C	1.474106	0.350689	0.684196
C37	C	0.889701	-0.163234	0.201243
C38	C	1.389701	0.336766	0.701243
C39	C	0.563039	-0.011024	0.014898
C40	C	1.063039	0.488976	0.514898
C41	C	0.483730	-0.024119	0.030926
C42	C	0.983730	0.475881	0.530926
C43	C	0.503365	-0.103324	0.127880
C44	C	1.003365	0.396676	0.627880
C45	C	0.582678	-0.090232	0.111863
C46	C	1.082678	0.409768	0.611863
C47	C	0.612508	-0.044082	0.055370
C48	C	1.112508	0.455918	0.555370
C49	C	0.632147	-0.123289	0.152335
C50	C	1.132147	0.376711	0.652335
C51	C	0.711452	-0.110201	0.136316
C52	C	1.211452	0.389799	0.636316
C53	C	0.741288	-0.064056	0.079824
C54	C	1.241288	0.435944	0.579824
C55	C	0.691813	-0.030994	0.039351
C56	C	1.191813	0.469006	0.539351
C57	C	0.602314	-0.169444	0.208823
C58	C	1.102314	0.330556	0.708823
C59	C	0.651783	-0.202502	0.249296
C60	C	1.151783	0.297498	0.749296
C61	C	0.731091	-0.189409	0.233281
C62	C	1.231091	0.310591	0.733281
C63	C	0.760927	-0.143264	0.176789
C64	C	1.260927	0.356736	0.676789
C65	C	0.780566	-0.222471	0.273754
C66	C	1.280566	0.277529	0.773754
C67	C	0.859871	-0.209383	0.257735
C68	C	1.359871	0.290617	0.757735
C69	C	0.840232	-0.130176	0.160770
C70	C	1.340232	0.369824	0.660770
C71	C	1.171333	-0.326314	0.144374
C72	C	1.671333	0.173686	0.644374
C73	C	1.171374	-0.415926	0.144378
C74	C	1.671374	0.084074	0.644378
C75	C	1.171522	-0.744060	0.144431
C76	C	1.671522	-0.244060	0.644431
C77	C	1.171479	-0.652763	0.144419
C78	C	1.671479	-0.152763	0.644419
C79	C	1.171448	-0.579996	0.144404
C80	C	1.671448	-0.079996	0.644404
C81	C	1.171406	-0.488693	0.144393
C82	C	1.671406	0.011307	0.644393
C83	C	1.369487	-0.084169	0.104432
C84	C	1.869487	0.415831	0.604432
C85	C	1.453895	-0.070262	0.087404
C86	C	1.953895	0.429738	0.587404
C87	C	1.211513	-0.067611	0.342476
C88	C	1.711513	0.432389	0.842476
C89	C	1.228602	-0.046647	0.426888
C90	C	1.728602	0.453353	0.926888
C91	C	1.171514	0.093533	0.144422
C92	C	1.671514	0.593533	0.644422
C93	C	1.171558	0.183166	0.144434
C94	C	1.671558	0.683166	0.644434
C95	C	1.131509	-0.165740	-0.052931
C96	C	1.631509	0.334260	0.447069
C97	C	1.114568	-0.186451	-0.137372
C98	C	1.614568	0.313549	0.362628
C99	C	1.041880	-0.275571	0.753453
C100	C	1.541880	0.224429	1.253453
C101	C	1.057954	-0.255860	0.832768
C102	C	1.557954	0.244140	1.332768
C103	C	1.155128	-0.136723	0.813179
C104	C	1.655128	0.363277	1.313179
C105	C	1.139059	-0.156422	0.733861
C106	C	1.639059	0.343578	1.233861
C107	C	1.082435	-0.225847	0.704005
C108	C	1.582435	0.274153	1.204005
C109	C	1.179615	-0.106698	0.684413
C110	C	1.679615	0.393302	1.184413
C111	C	1.163551	-0.126397	0.605102
C112	C	1.663551	0.373603	1.105102
C113	C	1.106931	-0.195821	0.575239
C114	C	1.606931	0.304179	1.075239
C115	C	1.066371	-0.245547	0.624694
C116	C	1.566371	0.254453	1.124694
C117	C	1.236243	-0.037276	0.714270
C118	C	1.736243	0.462724	1.214270
C119	C	1.276798	0.012448	0.664822
C120	C	1.776798	0.512448	1.164822
C121	C	1.260730	-0.007248	0.585510
C122	C	1.760730	0.492752	1.085510
C123	C	1.204111	-0.076672	0.555647
C124	C	1.704111	0.423328	1.055647
C125	C	1.301290	0.042478	0.536055
C126	C	1.801290	0.542478	1.036055
C127	C	1.285226	0.022778	0.456744
C128	C	1.785226	0.522778	0.956744
C129	C	1.188046	-0.096371	0.476336
C130	C	1.688046	0.403629	0.976336
H131	H	0.716104	0.006601	-0.006640
H132	H	1.216104	0.506601	0.493360
H133	H	0.537739	-0.180099	0.221864
H134	H	1.037739	0.319901	0.721864
H135	H	1.201233	-0.080199	0.837498
H136	H	1.701233	0.419801	1.337498
H137	H	0.587330	0.026571	-0.031093
H138	H	1.087330	0.526571	0.468907
H139	H	1.347399	0.098999	0.560375
H140	H	1.847399	0.598999	1.060375
H141	H	0.864523	-0.092581	0.114780
H142	H	1.364523	0.407419	0.614780
H143	H	1.141919	-0.152888	0.452030
H144	H	1.641919	0.347112	0.952030
H145	H	1.093855	-0.211862	0.510658
H146	H	1.593855	0.288138	1.010658
H147	H	0.805864	-0.053403	0.066781
H148	H	1.305864	0.446597	0.566781
H149	H	1.020244	-0.302064	0.600388
H150	H	1.520244	0.197936	1.100388
H151	H	1.322904	0.068973	0.689141
H152	H	1.822904	0.568973	1.189141
H153	H	0.995753	-0.332088	0.729147
H154	H	1.495753	0.167912	1.229147
H155	H	1.024924	-0.296357	0.873027
H156	H	1.524924	0.203643	1.373027
H157	H	0.443455	0.002811	-0.002031
H158	H	0.943455	0.502811	0.497969
H159	H	1.249322	-0.021240	0.778850
H160	H	1.749322	0.478760	1.278850
H161	H	0.627484	-0.240080	0.295290
H162	H	1.127484	0.259920	0.795290
H163	H	0.479066	-0.140902	0.173874
H164	H	0.979066	0.359098	0.673874
H165	H	0.756265	-0.260053	0.319745
H166	H	1.256265	0.239947	0.819745
H167	H	0.900151	-0.236301	0.290693
H168	H	1.400151	0.263699	0.790693
H169	H	1.318249	0.063269	0.416482
H170	H	1.818249	0.563269	0.916482
