data_functionalizedCrystal
_audit_creation_method	'MofGen! by Chris Wilmer'
_symmetry_space_group_name_H-M	'P1'
_symmetry_Int_Tables_number	1
_symmetry_cell_setting	triclinic
loop_
_symmetry_equiv_pos_as_xyz
  x,y,z
_cell_length_a	18.101398
_cell_length_b	16.625546
_cell_length_c	16.625539
_cell_angle_alpha	89.971468
_cell_angle_beta	89.977600
_cell_angle_gamma	90.017734
loop_
_atom_site_label
_atom_site_type_symbol
_atom_site_fract_x
_atom_site_fract_y
_atom_site_fract_z
Zn1	Zn	1.132151	-0.321117	-0.456013
Zn2	Zn	1.382151	-0.071117	-0.206013
Zn3	Zn	1.632151	0.178883	0.043987
Zn4	Zn	1.882151	0.428883	0.293987
Zn5	Zn	1.132070	-0.455956	-0.321175
Zn6	Zn	1.382070	-0.205956	-0.071175
Zn7	Zn	1.632070	0.044044	0.178825
Zn8	Zn	1.882070	0.294044	0.428825
Zn9	Zn	1.008314	-0.321129	-0.321180
Zn10	Zn	1.258314	-0.071129	-0.071180
Zn11	Zn	1.508314	0.178871	0.178820
Zn12	Zn	1.758314	0.428871	0.428820
Zn13	Zn	1.008280	-0.455900	-0.455952
Zn14	Zn	1.258280	-0.205900	-0.205952
Zn15	Zn	1.508280	0.044100	0.044048
Zn16	Zn	1.758280	0.294100	0.294048
O17	O	1.070204	-0.388525	-0.388580
O18	O	1.320204	-0.138525	-0.138580
O19	O	1.570204	0.111475	0.111420
O20	O	1.820204	0.361475	0.361420
O21	O	1.235773	-0.339021	-0.438149
O22	O	1.485773	-0.089021	-0.188149
O23	O	1.735773	0.160979	0.061851
O24	O	1.985773	0.410979	0.311851
O25	O	1.115634	-0.438099	-0.208343
O26	O	1.365634	-0.188099	0.041657
O27	O	1.615634	0.061901	0.291657
O28	O	1.865634	0.311901	0.541657
O29	O	1.024790	-0.208295	-0.339094
O30	O	1.274790	0.041705	-0.089094
O31	O	1.524790	0.291705	0.160906
O32	O	1.774790	0.541705	0.410906
O33	O	1.235714	-0.438087	-0.339084
O34	O	1.485714	-0.188087	-0.089084
O35	O	1.735714	0.061913	0.160916
O36	O	1.985714	0.311913	0.410916
O37	O	1.115773	-0.208286	-0.438154
O38	O	1.365773	0.041714	-0.188154
O39	O	1.615773	0.291714	0.061846
O40	O	1.865773	0.541714	0.311846
O41	O	1.024711	-0.339043	-0.208347
O42	O	1.274711	-0.089043	0.041653
O43	O	1.524711	0.160957	0.291653
O44	O	1.774711	0.410957	0.541653
O45	O	0.904677	-0.338989	-0.339035
O46	O	1.154677	-0.088989	-0.089035
O47	O	1.404677	0.161011	0.160965
O48	O	1.654677	0.411011	0.410965
O49	O	1.024731	-0.437992	-0.568793
O50	O	1.274731	-0.187992	-0.318793
O51	O	1.524731	0.062008	-0.068793
O52	O	1.774731	0.312008	0.181207
O53	O	0.904651	-0.438004	-0.438051
O54	O	1.154651	-0.188004	-0.188051
O55	O	1.404651	0.061996	0.061949
O56	O	1.654651	0.311996	0.311949
O57	O	1.115739	-0.338968	-0.568837
O58	O	1.365739	-0.088968	-0.318837
O59	O	1.615739	0.161032	-0.068837
O60	O	1.865739	0.411032	0.181163
O61	O	1.115600	-0.568781	-0.339026
O62	O	1.365600	-0.318781	-0.089026
O63	O	1.615600	-0.068781	0.160974
O64	O	1.865600	0.181219	0.410974
O65	O	1.024652	-0.568740	-0.438046
O66	O	1.274652	-0.318740	-0.188046
O67	O	1.524652	-0.068740	0.061954
O68	O	1.774652	0.181260	0.311954
C69	C	1.070134	-0.598016	-0.388546
C70	C	1.320134	-0.348016	-0.138546
C71	C	1.570134	-0.098016	0.111454
C72	C	1.820134	0.151984	0.361454
C73	C	1.070172	-0.687637	-0.388559
C74	C	1.320172	-0.437637	-0.138559
C75	C	1.570172	-0.187637	0.111441
C76	C	1.820172	0.062363	0.361441
C77	C	0.877793	-0.388493	-0.388538
C78	C	1.127793	-0.138493	-0.138538
C79	C	1.377793	0.111507	0.111462
C80	C	1.627793	0.361507	0.361462
C81	C	0.795479	-0.388498	-0.388539
C82	C	1.045479	-0.138498	-0.138539
C83	C	1.295479	0.111502	0.111461
C84	C	1.545479	0.361502	0.361461
C85	C	1.070301	-1.015813	-0.388643
C86	C	1.320301	-0.765813	-0.138643
C87	C	1.570301	-0.515813	0.111357
C88	C	1.820301	-0.265813	0.361357
C89	C	1.070262	-0.924505	-0.388622
C90	C	1.320262	-0.674505	-0.138622
C91	C	1.570262	-0.424505	0.111378
C92	C	1.820262	-0.174505	0.361378
C93	C	1.070236	-0.851728	-0.388600
C94	C	1.320236	-0.601728	-0.138600
C95	C	1.570236	-0.351728	0.111400
C96	C	1.820236	-0.101728	0.361400
C97	C	1.070198	-0.760414	-0.388580
C98	C	1.320198	-0.510414	-0.138580
C99	C	1.570198	-0.260414	0.111420
C100	C	1.820198	-0.010414	0.361420
C101	C	0.496388	-0.388548	-0.388607
C102	C	0.746388	-0.138548	-0.138607
C103	C	0.996388	0.111452	0.111393
C104	C	1.246388	0.361452	0.361393
C105	C	0.527705	-0.325939	-0.326612
C106	C	0.777705	-0.075939	-0.076612
C107	C	1.027705	0.174061	0.173388
C108	C	1.277705	0.424061	0.423388
C109	C	0.613323	-0.326107	-0.326348
C110	C	0.863323	-0.076107	-0.076348
C111	C	1.113323	0.173893	0.173652
C112	C	1.363323	0.423893	0.423652
C113	C	0.644771	-0.388523	-0.388573
C114	C	0.894771	-0.138523	-0.138573
C115	C	1.144771	0.111477	0.111427
C116	C	1.394771	0.361477	0.361427
C117	C	0.613665	-0.473459	-0.365354
C118	C	0.863665	-0.223459	-0.115354
C119	C	1.113665	0.026541	0.134646
C120	C	1.363665	0.276541	0.384646
C121	C	0.528020	-0.473111	-0.364923
C122	C	0.778020	-0.223111	-0.114923
C123	C	1.028020	0.026889	0.135077
C124	C	1.278020	0.276889	0.385077
C125	C	0.527997	-0.366960	-0.473966
C126	C	0.777997	-0.116960	-0.223966
C127	C	1.027997	0.133040	0.026034
C128	C	1.277997	0.383040	0.276034
C129	C	0.613648	-0.365068	-0.473500
C130	C	0.863648	-0.115068	-0.223500
C131	C	1.113648	0.134932	0.026500
C132	C	1.363648	0.384932	0.276500
C133	C	0.728630	-0.388514	-0.388556
C134	C	0.978630	-0.138514	-0.138556
C135	C	1.228630	0.111486	0.111444
C136	C	1.478630	0.361486	0.361444
C137	C	0.412529	-0.388563	-0.388622
C138	C	0.662529	-0.138563	-0.138622
C139	C	0.912529	0.111437	0.111378
C140	C	1.162529	0.361437	0.361378
C141	C	1.263366	-0.388559	-0.388623
C142	C	1.513366	-0.138559	-0.138623
C143	C	1.763366	0.111441	0.111377
C144	C	2.013366	0.361441	0.361377
C145	C	1.345680	-0.388573	-0.388641
C146	C	1.595680	-0.138573	-0.138641
C147	C	1.845680	0.111427	0.111359
C148	C	2.095680	0.361427	0.361359
C149	C	1.070240	-0.388472	-0.598889
C150	C	1.320240	-0.138472	-0.348889
C151	C	1.570240	0.111528	-0.098889
C152	C	1.820240	0.361528	0.151111
C153	C	1.070256	-0.388450	-0.688510
C154	C	1.320256	-0.138450	-0.438510
C155	C	1.570256	0.111550	-0.188510
C156	C	1.820256	0.361550	0.061490
C157	C	1.070294	-0.178217	-0.388632
C158	C	1.320294	0.071783	-0.138632
C159	C	1.570294	0.321783	0.111368
C160	C	1.820294	0.571783	0.361368
C161	C	1.070333	-0.088595	-0.388654
C162	C	1.320333	0.161405	-0.138654
C163	C	1.570333	0.411405	0.111346
C164	C	1.820333	0.661405	0.361346
C165	C	1.070268	-0.388432	-0.761293
C166	C	1.320268	-0.138432	-0.511293
C167	C	1.570268	0.111568	-0.261293
C168	C	1.820268	0.361568	-0.011293
C169	C	1.070285	-0.388402	-0.852601
C170	C	1.320285	-0.138402	-0.602601
C171	C	1.570285	0.111598	-0.352601
C172	C	1.820285	0.361598	-0.102601
C173	C	1.070302	-0.388373	-0.925378
C174	C	1.320302	-0.138373	-0.675378
C175	C	1.570302	0.111627	-0.425378
C176	C	1.820302	0.361627	-0.175378
C177	C	1.070321	-0.388344	-1.016692
C178	C	1.320321	-0.138344	-0.766692
C179	C	1.570321	0.111656	-0.516692
C180	C	1.820321	0.361656	-0.266692
C181	C	1.070210	-0.388520	-0.179089
C182	C	1.320210	-0.138520	0.070911
C183	C	1.570210	0.111480	0.320911
C184	C	1.820210	0.361480	0.570911
C185	C	1.070338	-0.388316	-0.089469
C186	C	1.320338	-0.138316	0.160531
C187	C	1.570338	0.111684	0.410531
C188	C	1.820338	0.361684	0.660531
H189	H	0.507125	-0.262763	-0.341007
H190	H	0.757125	-0.012763	-0.091007
H191	H	1.007125	0.237237	0.158993
H192	H	1.257125	0.487237	0.408993
H193	H	0.635057	-0.407346	-0.522166
H194	H	0.885057	-0.157346	-0.272166
H195	H	1.135057	0.092654	-0.022166
H196	H	1.385057	0.342654	0.227834
O197	O	0.640581	-0.282276	-0.496701
O198	O	0.890581	-0.032276	-0.246701
O199	O	1.140581	0.217724	0.003299
O200	O	1.390581	0.467724	0.253299
H201	H	0.701869	-0.282119	-0.498795
H202	H	0.951869	-0.032119	-0.248795
H203	H	1.201869	0.217881	0.001205
H204	H	1.451869	0.467881	0.251205
O205	O	0.500575	-0.536999	-0.422118
O206	O	0.750575	-0.286999	-0.172118
O207	O	1.000575	-0.036999	0.077882
O208	O	1.250575	0.213001	0.327882
H209	H	0.439257	-0.537226	-0.422242
H210	H	0.689257	-0.287226	-0.172242
H211	H	0.939257	-0.037226	0.077758
H212	H	1.189257	0.212774	0.327758
O213	O	0.641191	-0.242675	-0.345600
O214	O	0.891191	0.007325	-0.095600
O215	O	1.141191	0.257325	0.154400
O216	O	1.391191	0.507325	0.404400
H217	H	0.593496	-0.201842	-0.355182
H218	H	0.843496	0.048158	-0.105182
H219	H	1.093496	0.298158	0.144818
H220	H	1.343496	0.548158	0.394818
O221	O	0.640432	-0.344974	-0.242560
O222	O	0.890432	-0.094974	0.007440
O223	O	1.140432	0.155026	0.257440
O224	O	1.390432	0.405026	0.507440
H225	H	0.592370	-0.354027	-0.202075
H226	H	0.842370	-0.104027	0.047925
H227	H	1.092370	0.145973	0.297925
H228	H	1.342370	0.395973	0.547925
O229	O	0.501508	-0.497350	-0.282264
O230	O	0.751508	-0.247350	-0.032264
O231	O	1.001508	0.002650	0.217736
O232	O	1.251508	0.252650	0.467736
H233	H	0.549859	-0.509207	-0.242974
H234	H	0.799859	-0.259207	0.007026
H235	H	1.049859	-0.009207	0.257026
H236	H	1.299859	0.240793	0.507026
O237	O	0.499160	-0.344621	-0.243318
O238	O	0.749160	-0.094621	0.006682
O239	O	0.999160	0.155379	0.256682
O240	O	1.249160	0.405379	0.506682
H241	H	0.521594	-0.300072	-0.200030
H242	H	0.771594	-0.050072	0.049970
H243	H	1.021594	0.199928	0.299970
H244	H	1.271594	0.449928	0.549970
H245	H	0.507746	-0.412562	-0.520158
H246	H	0.757746	-0.162562	-0.270158
H247	H	1.007746	0.087438	-0.020158
H248	H	1.257746	0.337438	0.229842
O249	O	0.640644	-0.536915	-0.423285
O250	O	0.890644	-0.286915	-0.173285
O251	O	1.140644	-0.036915	0.076715
O252	O	1.390644	0.213085	0.326715
H253	H	0.676598	-0.508521	-0.469348
H254	H	0.926598	-0.258521	-0.219348
H255	H	1.176598	-0.008521	0.030652
H256	H	1.426598	0.241479	0.280652
H257	H	0.506416	-0.306102	-0.495077
H258	H	0.756416	-0.056102	-0.245077
H259	H	1.006416	0.193898	0.004923
H260	H	1.256416	0.443898	0.254923
O261	O	0.642024	-0.498137	-0.283584
O262	O	0.892024	-0.248137	-0.033584
O263	O	1.142024	0.001863	0.216416
O264	O	1.392024	0.251863	0.466416
H265	H	0.678263	-0.450050	-0.259351
H266	H	0.928263	-0.200050	-0.009351
H267	H	1.178263	0.049950	0.240649
H268	H	1.428263	0.299950	0.490649
