data_functionalizedCrystal
_audit_creation_method	'MofGen! by Chris Wilmer'
_symmetry_space_group_name_H-M	'P1'
_symmetry_Int_Tables_number	1
_symmetry_cell_setting	triclinic
loop_
_symmetry_equiv_pos_as_xyz
  x,y,z
_cell_length_a	19.077068
_cell_length_b	21.395364
_cell_length_c	21.395355
_cell_angle_alpha	89.975448
_cell_angle_beta	92.279051
_cell_angle_gamma	92.341988
loop_
_atom_site_label
_atom_site_type_symbol
_atom_site_fract_x
_atom_site_fract_y
_atom_site_fract_z
Zn1	Zn	-0.280007	0.947860	-0.364266
Zn2	Zn	-0.397689	0.943560	-0.263693
Zn3	Zn	-0.280038	0.843074	-0.259504
Zn4	Zn	-0.397702	0.838841	-0.368434
O5	O	-0.338859	0.893333	-0.313974
O6	O	-0.295600	1.034968	-0.350934
O7	O	-0.382090	0.930202	-0.175460
O8	O	-0.181541	0.860545	-0.269903
O9	O	-0.382060	1.031809	-0.277044
O10	O	-0.181518	0.937531	-0.346872
O11	O	-0.295652	0.856375	-0.172382
O12	O	-0.295665	0.754834	-0.273945
O13	O	-0.382082	0.853331	-0.455559
O14	O	-0.382112	0.751724	-0.353975
O15	O	-0.295612	0.933426	-0.452497
O16	O	-0.496184	0.926097	-0.281085
O17	O	-0.496193	0.849161	-0.358038
C18	C	-0.338893	0.730545	-0.313958
C19	C	-0.338925	0.660902	-0.313966
C20	C	-0.293979	0.629854	-0.352506
C21	C	-0.293960	0.564419	-0.352507
C22	C	-0.338900	0.530035	-0.313977
C23	C	-0.383849	0.561091	-0.275430
C24	C	-0.383862	0.626525	-0.275425
C25	C	-0.402285	0.424047	-0.311204
C26	C	-0.402273	0.358614	-0.311214
C27	C	-0.338861	0.328215	-0.313990
C28	C	-0.275458	0.363257	-0.316769
C29	C	-0.275471	0.428691	-0.316763
C30	C	-0.338891	0.459083	-0.313978
C31	C	-0.293891	0.226215	-0.352533
C32	C	-0.293871	0.160780	-0.352530
C33	C	-0.383767	0.157452	-0.275456
C34	C	-0.383780	0.222887	-0.275455
C35	C	-0.338843	0.257265	-0.313997
C36	C	-0.521726	0.886720	-0.320482
C37	C	-0.599958	0.883948	-0.323287
C38	C	-0.636683	0.922734	-0.284573
C39	C	-0.710190	0.920131	-0.287215
C40	C	-0.746970	0.878738	-0.328568
C41	C	-0.710240	0.839951	-0.367286
C42	C	-0.636734	0.842558	-0.364647
C43	C	-0.966810	0.866646	-0.340756
C44	C	-1.040321	0.864040	-0.343391
C45	C	-1.040266	0.944221	-0.263320
C46	C	-0.966759	0.946822	-0.260682
C47	C	-0.930035	0.908037	-0.299403
N48	N	-0.822106	0.876075	-0.331268
N49	N	-0.854901	0.910704	-0.296705
C50	C	-0.155278	0.899990	-0.307455
C51	C	-0.077046	0.902826	-0.304677
C52	C	-0.338845	0.893386	-0.477397
C53	C	-0.338839	0.893408	-0.547038
C54	C	-0.338825	1.056758	-0.313991
C55	C	-0.338811	1.126400	-0.313998
C56	C	-0.293812	0.935113	-0.578158
C57	C	-0.293782	0.935113	-0.643592
C58	C	-0.338791	0.893415	-0.677905
C59	C	-0.383821	0.851703	-0.646778
C60	C	-0.383844	0.851700	-0.581344
C61	C	-0.402166	0.886176	-0.783835
C62	C	-0.402143	0.886183	-0.849267
C63	C	-0.338716	0.893422	-0.879723
C64	C	-0.275310	0.900665	-0.844739
C65	C	-0.275334	0.900662	-0.779306
C66	C	-0.338769	0.893414	-0.748857
C67	C	-0.293653	0.935128	-0.981794
C68	C	-0.293622	0.935124	-1.047230
C69	C	-0.383667	0.851717	-1.050414
C70	C	-0.383692	0.851718	-0.984979
C71	C	-0.338686	0.893427	-0.950673
C72	C	-0.338822	0.893319	-0.151186
C73	C	-0.338630	0.893425	-0.081538
H74	H	-0.257266	0.135501	-0.383912
H75	H	-0.256951	0.969084	-1.072566
Br76	Br	-0.444743	0.795118	-1.096974
Br77	Br	-0.189429	0.476246	-0.320533
Br78	Br	-0.444804	0.795118	-0.942742
Br79	Br	-0.916848	1.003008	-0.204566
Br80	Br	-1.090109	0.996858	-0.210777
Br81	Br	-0.444956	0.795096	-0.539107
Br82	Br	-0.232903	0.272875	-0.404834
Br83	Br	-0.488194	0.876362	-0.896739
H84	H	-1.070265	0.830341	-0.377077
Br85	Br	-0.760155	0.783780	-0.423414
Br86	Br	-0.916980	0.814009	-0.393306
H87	H	-0.606833	0.810975	-0.396173
H88	H	-0.257164	0.969074	-0.550230
Br89	Br	-0.444751	0.110795	-0.223157
H90	H	-0.740088	0.951714	-0.255689
Br91	Br	-0.232652	0.991700	-0.685835
H92	H	-0.223662	0.906560	-0.869535
H93	H	-0.453803	0.880115	-0.759043
H94	H	-0.420383	0.248167	-0.244075
Br95	Br	-0.189288	0.910489	-0.731829
Br96	Br	-0.444862	0.668665	-0.223114
H97	H	-0.257356	0.539135	-0.383890
Br98	Br	-0.586774	0.978907	-0.228442
Br99	Br	-0.444900	0.795108	-0.693343
Br100	Br	-0.232993	0.676506	-0.404812
Br101	Br	-0.189393	0.322011	-0.320537
H102	H	-0.453900	0.330088	-0.308954
Br103	Br	-0.444835	0.514429	-0.223133
Br104	Br	-0.488351	0.465296	-0.307425
Br105	Br	-0.232573	0.991729	-0.935232
