data_functionalizedCrystal
_audit_creation_method	'MofGen! by Chris Wilmer'
_symmetry_space_group_name_H-M	'P1'
_symmetry_Int_Tables_number	1
_symmetry_cell_setting	triclinic
loop_
_symmetry_equiv_pos_as_xyz
  x,y,z
_cell_length_a	16.959455
_cell_length_b	11.169416
_cell_length_c	11.169417
_cell_angle_alpha	90.003977
_cell_angle_beta	90.005932
_cell_angle_gamma	90.007287
loop_
_atom_site_label
_atom_site_type_symbol
_atom_site_fract_x
_atom_site_fract_y
_atom_site_fract_z
Zn1	Zn	1.208372	-0.478126	0.678625
Zn2	Zn	1.708372	0.021874	1.178625
Zn3	Zn	1.208336	-0.678773	0.477948
Zn4	Zn	1.708336	-0.178773	0.977948
Zn5	Zn	1.076220	-0.478091	0.477952
Zn6	Zn	1.576220	0.021909	0.977952
Zn7	Zn	1.076187	-0.678755	0.678585
Zn8	Zn	1.576187	-0.178755	1.178585
O9	O	1.142279	-0.578436	0.578277
O10	O	1.642279	-0.078436	1.078277
O11	O	1.318978	-0.504764	0.652020
O12	O	1.818978	-0.004764	1.152020
O13	O	1.190809	-0.652144	0.309999
O14	O	1.690809	-0.152144	0.809999
O15	O	1.093778	-0.310146	0.504591
O16	O	1.593778	0.189854	1.004591
O17	O	1.318952	-0.652178	0.504583
O18	O	1.818952	-0.152178	1.004583
O19	O	1.190870	-0.310172	0.652025
O20	O	1.690870	0.189828	1.152025
O21	O	1.093744	-0.504705	0.310002
O22	O	1.593744	-0.004705	0.810002
O23	O	0.965604	-0.504688	0.504551
O24	O	1.465604	-0.004688	1.004551
O25	O	1.093723	-0.652149	0.846540
O26	O	1.593723	-0.152149	1.346540
O27	O	0.965581	-0.652115	0.651955
O28	O	1.465581	-0.152115	1.151955
O29	O	1.190839	-0.504748	0.846570
O30	O	1.690839	-0.004748	1.346570
O31	O	1.190778	-0.846720	0.504544
O32	O	1.690778	-0.346720	1.004544
O33	O	1.093689	-0.846707	0.651951
O34	O	1.593689	-0.346707	1.151951
C35	C	0.936912	-0.578397	0.578250
C36	C	1.436912	-0.078397	1.078250
C37	C	0.849056	-0.578409	0.578267
C38	C	1.349056	-0.078409	1.078267
C39	C	1.142247	-0.890261	0.578268
C40	C	1.642247	-0.390261	1.078268
C41	C	1.142306	-1.023661	0.578305
C42	C	1.642306	-0.523661	1.078305
C43	C	0.477568	-0.501608	0.501685
C44	C	0.977568	-0.001608	1.001685
C45	C	0.477592	-0.655363	0.654939
C46	C	0.977592	-0.155363	1.154939
C47	C	0.560138	-0.655346	0.654932
C48	C	1.060138	-0.155346	1.154932
C49	C	0.601403	-0.578460	0.578298
C50	C	1.101403	-0.078460	1.078298
C51	C	0.560122	-0.501591	0.501672
C52	C	1.060122	-0.001591	1.001672
C53	C	0.601426	-0.732222	0.731548
C54	C	1.101426	-0.232222	1.231548
C55	C	0.683977	-0.732209	0.731542
C56	C	1.183977	-0.232209	1.231542
C57	C	0.725243	-0.655316	0.654914
C58	C	1.225243	-0.155316	1.154914
C59	C	0.683956	-0.578443	0.578286
C60	C	1.183956	-0.078443	1.078286
C61	C	0.725221	-0.501557	0.501653
C62	C	1.225221	-0.001557	1.001653
C63	C	0.683936	-0.424677	0.425030
C64	C	1.183936	0.075323	0.925030
C65	C	0.601388	-0.424698	0.425044
C66	C	1.101388	0.075302	0.925044
C67	C	0.807791	-0.655295	0.654900
C68	C	1.307791	-0.155295	1.154900
C69	C	0.807775	-0.501540	0.501641
C70	C	1.307775	-0.001540	1.001641
C71	C	1.348447	-0.578477	0.578306
C72	C	1.848447	-0.078477	1.078306
C73	C	1.436303	-0.578494	0.578318
C74	C	1.936303	-0.078494	1.078318
C75	C	1.142281	-0.578450	0.891320
C76	C	1.642281	-0.078450	1.391320
C77	C	1.142283	-0.578456	1.024720
C78	C	1.642283	-0.078456	1.524720
C79	C	1.142332	-0.265394	0.578313
C80	C	1.642332	0.234606	1.078313
C81	C	1.142354	-0.131994	0.578328
C82	C	1.642354	0.368006	1.078328
C83	C	1.142273	-0.578454	1.266453
C84	C	1.642273	-0.078454	1.766453
C85	C	1.142280	-0.578461	1.133053
C86	C	1.642280	-0.078461	1.633053
H87	H	0.841367	-0.438922	0.439243
H88	H	1.341367	0.061078	0.939243
H89	H	0.443950	-0.439012	0.439303
H90	H	0.943950	0.060988	0.939303
C91	C	0.556030	-0.816794	0.815835
C92	C	1.056030	-0.316794	1.315835
N93	N	0.521834	-0.880495	0.879325
N94	N	1.021834	-0.380495	1.379325
H95	H	0.717584	-0.794808	0.793934
H96	H	1.217584	-0.294808	1.293934
H97	H	0.567766	-0.362109	0.362661
H98	H	1.067766	0.137891	0.862661
H99	H	0.717545	-0.362082	0.362630
H100	H	1.217545	0.137918	0.862630
H101	H	0.443990	-0.717967	0.717323
H102	H	0.943990	-0.217967	1.217323
C103	C	0.853201	-0.739857	0.739180
C104	C	1.353201	-0.239857	1.239180
N105	N	0.887402	-0.803551	0.802667
N106	N	1.387402	-0.303551	1.302667
