data_functionalizedCrystal
_audit_creation_method	'MofGen! by Chris Wilmer'
_symmetry_space_group_name_H-M	'P1'
_symmetry_Int_Tables_number	1
_symmetry_cell_setting	triclinic
loop_
_symmetry_equiv_pos_as_xyz
  x,y,z
_cell_length_a	12.594516
_cell_length_b	16.959455
_cell_length_c	16.959447
_cell_angle_alpha	90.015228
_cell_angle_beta	89.974854
_cell_angle_gamma	89.989178
loop_
_atom_site_label
_atom_site_type_symbol
_atom_site_fract_x
_atom_site_fract_y
_atom_site_fract_z
Zn1	Zn	-0.423870	-1.208406	-0.446956
Zn2	Zn	-0.601877	-1.208338	-0.314790
Zn3	Zn	-0.423896	-1.076234	-0.314792
Zn4	Zn	-0.601790	-1.076208	-0.446926
O5	O	-0.512858	-1.142297	-0.380866
O6	O	-0.447508	-1.319008	-0.429436
O7	O	-0.578314	-1.190796	-0.204179
O8	O	-0.274947	-1.093807	-0.332337
O9	O	-0.578289	-1.318958	-0.332334
O10	O	-0.274927	-1.190912	-0.429438
O11	O	-0.447553	-1.093740	-0.204180
O12	O	-0.447469	-0.965620	-0.332308
O13	O	-0.578141	-1.093762	-0.557541
O14	O	-0.578167	-0.965601	-0.429386
O15	O	-0.447424	-1.190887	-0.557563
O16	O	-0.750811	-1.190771	-0.332304
O17	O	-0.750748	-1.093696	-0.429384
C18	C	-0.512813	-0.936930	-0.380845
C19	C	-0.512819	-0.849074	-0.380854
C20	C	-0.444714	-0.477584	-0.330412
C21	C	-0.581022	-0.477613	-0.431344
C22	C	-0.581011	-0.560158	-0.431340
C23	C	-0.512852	-0.601421	-0.380871
C24	C	-0.444703	-0.560137	-0.330405
C25	C	-0.649166	-0.601448	-0.481800
C26	C	-0.649158	-0.683999	-0.481797
C27	C	-0.580993	-0.725263	-0.431332
C28	C	-0.512841	-0.683974	-0.380864
C29	C	-0.444681	-0.725237	-0.330395
C30	C	-0.376523	-0.683949	-0.279931
C31	C	-0.376537	-0.601401	-0.279939
C32	C	-0.580978	-0.807811	-0.431323
C33	C	-0.444670	-0.807790	-0.330388
C34	C	-0.789399	-1.142245	-0.380858
C35	C	-0.907705	-1.142295	-0.380881
C36	C	-0.976962	-1.089491	-0.433646
C37	C	-1.047823	-1.070239	-0.361520
C38	C	-1.047642	-1.161619	-0.453019
C39	C	-0.977008	-1.123005	-0.308717
C40	C	-0.976821	-1.214418	-0.400265
C41	C	-1.047650	-1.195194	-0.328090
C42	C	-0.235237	-1.142370	-0.380891
C43	C	-0.116932	-1.142401	-0.380902
C44	C	-0.512770	-1.142329	-0.587034
C45	C	-0.512733	-1.142343	-0.674891
C46	C	-0.512892	-0.348465	-0.380884
C47	C	-0.512873	-0.436321	-0.380881
C48	C	-0.580679	-1.091869	-1.046358
C49	C	-0.444562	-1.193006	-1.046376
C50	C	-0.444584	-1.192985	-0.963830
C51	C	-0.512656	-1.142406	-0.922544
C52	C	-0.580706	-1.091848	-0.963804
C53	C	-0.376544	-1.243548	-0.922564
C54	C	-0.376564	-1.243530	-0.840013
C55	C	-0.444632	-1.192946	-0.798725
C56	C	-0.512683	-1.142385	-0.839990
C57	C	-0.580755	-1.091806	-0.798704
C58	C	-0.648802	-1.041241	-0.839968
C59	C	-0.648773	-1.041265	-0.922517
C60	C	-0.444661	-1.192922	-0.716177
C61	C	-0.580782	-1.091785	-0.716151
C62	C	-0.512869	-1.142309	-0.175500
C63	C	-0.512607	-1.142448	-0.087643
H64	H	-0.389218	-0.443964	-0.289328
C65	C	-1.089960	-0.987909	-0.339377
H66	H	-1.065764	-0.950412	-0.376910
H67	H	-1.064736	-0.973855	-0.288500
H68	H	-1.165382	-0.988664	-0.339077
H69	H	-0.321130	-1.284732	-0.956184
H70	H	-0.636521	-0.444012	-0.472429
C71	C	-0.301711	-1.299140	-0.794626
H72	H	-0.311477	-1.291887	-0.739550
H73	H	-0.230192	-1.287594	-0.808169
H74	H	-0.317302	-1.352252	-0.808150
C75	C	-0.369824	-1.248537	-0.670786
H76	H	-0.379592	-1.241284	-0.615710
H77	H	-0.298301	-1.236999	-0.684326
H78	H	-0.385425	-1.301647	-0.684312
H79	H	-0.945612	-1.275348	-0.416678
H80	H	-0.946109	-1.106633	-0.247702
C81	C	-0.723623	-0.985655	-0.967907
H82	H	-0.713865	-0.992920	-1.022983
H83	H	-0.708043	-0.932545	-0.954385
H84	H	-0.795148	-0.997207	-0.954367
H85	H	-0.945923	-1.044756	-0.478203
C86	C	-1.089328	-1.255577	-0.267757
H87	H	-1.065012	-1.241759	-0.216566
H88	H	-1.063942	-1.306620	-0.281082
H89	H	-1.164752	-1.255590	-0.268391
C90	C	-0.301576	-0.555988	-0.224431
H91	H	-0.260972	-0.592383	-0.194376
H92	H	-0.342241	-0.523772	-0.189944
H93	H	-0.255253	-0.523799	-0.254732
H94	H	-0.389147	-1.234190	-1.079996
C95	C	-0.655678	-1.036159	-0.670743
H96	H	-0.696205	-1.006057	-0.707142
H97	H	-0.614981	-1.001720	-0.638536
H98	H	-0.702074	-1.066390	-0.638544
C99	C	-0.655941	-0.853227	-0.486823
H100	H	-0.646178	-0.908300	-0.479589
H101	H	-0.640463	-0.839717	-0.539953
H102	H	-0.727442	-0.839692	-0.475156
H103	H	-1.078670	-1.177920	-0.514018
C104	C	-0.724017	-0.556064	-0.537400
H105	H	-0.764577	-0.592474	-0.567474
H106	H	-0.683248	-0.523925	-0.571863
H107	H	-0.770387	-0.523800	-0.507186
H108	H	-0.389159	-0.841380	-0.289294
C109	C	-0.724118	-0.729408	-0.537311
H110	H	-0.764706	-0.693010	-0.567373
H111	H	-0.770439	-0.761602	-0.507021
H112	H	-0.683442	-0.761619	-0.571803
H113	H	-0.321032	-0.717556	-0.238836
H114	H	-0.704231	-1.000063	-0.806342
H115	H	-0.636078	-1.050698	-1.079958
