data_functionalizedCrystal
_audit_creation_method	'MofGen! by Chris Wilmer'
_symmetry_space_group_name_H-M	'P1'
_symmetry_Int_Tables_number	1
_symmetry_cell_setting	triclinic
loop_
_symmetry_equiv_pos_as_xyz
  x,y,z
_cell_length_a	13.185407
_cell_length_b	11.792254
_cell_length_c	10.268362
_cell_angle_alpha	90.005455
_cell_angle_beta	90.004464
_cell_angle_gamma	68.086041
loop_
_atom_site_label
_atom_site_type_symbol
_atom_site_fract_x
_atom_site_fract_y
_atom_site_fract_z
O1	O	1.445210	-0.295139	0.108258
O2	O	1.945210	0.204861	0.608258
O3	O	1.128397	-0.180304	0.108270
O4	O	1.628397	0.319696	0.608270
O5	O	1.294484	-0.405287	0.108255
O6	O	1.794484	0.094713	0.608255
O7	O	1.279122	-0.070157	0.108274
O8	O	1.779122	0.429843	0.608274
O9	O	1.294470	-0.405289	-0.108346
O10	O	1.794470	0.094711	0.391654
O11	O	1.128382	-0.180307	-0.108330
O12	O	1.628382	0.319693	0.391670
O13	O	1.445195	-0.295142	-0.108342
O14	O	1.945195	0.204858	0.391658
Cu15	Cu	1.286787	-0.237724	-0.128114
Cu16	Cu	1.786787	0.262276	0.371886
Cu17	Cu	1.286805	-0.237721	0.128042
Cu18	Cu	1.786805	0.262279	0.628042
O19	O	1.279108	-0.070159	-0.108327
O20	O	1.779108	0.429841	0.391673
C21	C	1.087830	-0.168664	-0.000028
C22	C	1.587830	0.331336	0.499972
C23	C	0.966976	-0.133988	-0.000024
C24	C	1.466976	0.366012	0.499976
C25	C	0.675750	-0.464920	-0.000048
C26	C	1.175750	0.035080	0.499952
C27	C	0.789299	-0.497503	-0.000061
C28	C	1.289299	0.002497	0.499939
C29	C	0.833724	-0.406627	-0.000051
C30	C	1.333724	0.093373	0.499949
C31	C	0.764589	-0.283162	-0.000030
C32	C	1.264589	0.216838	0.499970
C33	C	0.651029	-0.250576	-0.000028
C34	C	1.151029	0.249424	0.499972
C35	C	0.809003	-0.192283	-0.000031
C36	C	1.309003	0.307717	0.499969
C37	C	0.739868	-0.068819	-0.000009
C38	C	1.239868	0.431181	0.499991
C39	C	0.626320	-0.036238	-0.000006
C40	C	1.126320	0.463762	0.499994
C41	C	0.581895	-0.127114	-0.000016
C42	C	1.081895	0.372886	0.499984
C43	C	0.922563	-0.224870	-0.000033
C44	C	1.422563	0.275130	0.499967
C45	C	0.897842	-0.010526	-0.000012
C46	C	1.397842	0.489474	0.499988
C47	C	0.784293	0.022057	0.000000
C48	C	1.284293	0.522057	0.500000
C49	C	1.293509	-0.447277	-0.000045
C50	C	1.793509	0.052723	0.499955
C51	C	1.290613	-0.572387	-0.000044
C52	C	1.790613	-0.072387	0.499956
C53	C	1.288259	-0.673989	-0.000039
C54	C	1.788259	-0.173989	0.499961
C55	C	1.285317	-0.801458	-0.000027
C56	C	1.785317	-0.301458	0.499973
C57	C	1.485762	-0.306782	-0.000041
C58	C	1.985762	0.193218	0.499959
C59	C	1.606616	-0.341458	-0.000036
C60	C	2.106616	0.158542	0.499964
C61	C	1.280083	-0.028169	-0.000024
C62	C	1.780083	0.471831	0.499976
C63	C	1.282979	0.096941	-0.000017
C64	C	1.782979	0.596941	0.499983
N65	N	1.286783	-0.237730	-0.308279
N66	N	1.786783	0.262270	0.191721
C67	C	1.286799	-0.237722	-0.573950
C68	C	1.786799	0.262278	-0.073950
C69	C	1.286787	-0.237722	-0.426112
C70	C	1.786787	0.262278	0.073888
N71	N	1.286817	-0.237728	0.308208
N72	N	1.786817	0.262272	0.808208
H73	H	0.934011	0.063473	-0.000009
H74	H	1.434011	0.563473	0.499991
H75	H	0.926181	-0.433164	-0.000061
H76	H	1.426181	0.066836	0.499939
C77	C	0.708231	0.157865	0.000012
C78	C	1.208231	0.657865	0.500012
N79	N	0.650939	0.260156	0.000017
N80	N	1.150939	0.760156	0.500017
H81	H	0.978842	-0.325396	-0.000048
H82	H	1.478842	0.174604	0.499952
H83	H	0.570032	0.064294	-0.000002
H84	H	1.070032	0.564294	0.499998
H85	H	0.845581	-0.598027	-0.000083
H86	H	1.345581	-0.098027	0.499917
C87	C	0.626874	-0.564867	-0.000067
C88	C	1.126874	-0.064867	0.499933
N89	N	0.590060	-0.640155	-0.000082
N90	N	1.090060	-0.140155	0.499918
C91	C	0.456984	-0.091279	-0.000025
C92	C	0.956984	0.408721	0.499975
N93	N	0.362901	-0.064291	-0.000041
N94	N	0.862901	0.435709	0.499959
