data_functionalizedCrystal
_audit_creation_method	'MofGen! by Chris Wilmer'
_symmetry_space_group_name_H-M	'P1'
_symmetry_Int_Tables_number	1
_symmetry_cell_setting	triclinic
loop_
_symmetry_equiv_pos_as_xyz
  x,y,z
_cell_length_a	19.805407
_cell_length_b	21.295417
_cell_length_c	19.805399
_cell_angle_alpha	89.970204
_cell_angle_beta	89.982197
_cell_angle_gamma	90.027018
loop_
_atom_site_label
_atom_site_type_symbol
_atom_site_fract_x
_atom_site_fract_y
_atom_site_fract_z
Zn1	Zn	1.034720	-0.250669	-0.382677
Zn2	Zn	1.034628	-0.355938	-0.269485
Zn3	Zn	0.921535	-0.250681	-0.269505
Zn4	Zn	0.921492	-0.355899	-0.382635
O5	O	0.978094	-0.303297	-0.326075
O6	O	1.129425	-0.264644	-0.367671
O7	O	1.019606	-0.341996	-0.174771
O8	O	0.936605	-0.162590	-0.284544
O9	O	1.129357	-0.341984	-0.284509
O10	O	1.019762	-0.162581	-0.367691
O11	O	0.936517	-0.264665	-0.174786
O12	O	0.826813	-0.264628	-0.284503
O13	O	0.936532	-0.341919	-0.477357
O14	O	0.826781	-0.341931	-0.367619
O15	O	1.019721	-0.264607	-0.477388
O16	O	1.019564	-0.444022	-0.284468
O17	O	0.936443	-0.443994	-0.367599
C18	C	0.802238	-0.303277	-0.326059
C19	C	0.727006	-0.303284	-0.326068
C20	C	0.691697	-0.263084	-0.369436
C21	C	0.621009	-0.263087	-0.369439
C22	C	0.585630	-0.303294	-0.326076
C23	C	0.620944	-0.343496	-0.282703
C24	C	0.691631	-0.343489	-0.282698
C25	C	0.335870	-0.343524	-0.282724
C26	C	0.265178	-0.343529	-0.282734
C27	C	0.265248	-0.263122	-0.369465
C28	C	0.335936	-0.263115	-0.369460
C29	C	0.371243	-0.303314	-0.326084
C30	C	0.447891	-0.303310	-0.326081
C31	C	0.508983	-0.303303	-0.326082
C32	C	0.978008	-0.466848	-0.326041
C33	C	0.978033	-0.536816	-0.326049
C34	C	1.021308	-0.569621	-0.369375
C35	C	1.021331	-0.635364	-0.369391
C36	C	0.978087	-0.668299	-0.326071
C37	C	0.934804	-0.635486	-0.282742
C38	C	0.934777	-0.569745	-0.282731
N39	N	0.972976	-0.771560	-0.266835
N40	N	0.973006	-0.834011	-0.266847
C41	C	0.978167	-0.866374	-0.326101
N42	N	0.983309	-0.833925	-0.385344
N43	N	0.983283	-0.771468	-0.385331
C44	C	0.978112	-0.739584	-0.326078
C45	C	1.021470	-0.970464	-0.369448
C46	C	1.021489	-1.036208	-0.369466
C47	C	0.934965	-1.036329	-0.282811
C48	C	0.934942	-0.970587	-0.282799
C49	C	0.978198	-0.937658	-0.326117
C50	C	1.154637	-0.303317	-0.326092
C51	C	1.229868	-0.303326	-0.326100
C52	C	0.978132	-0.303257	-0.502618
C53	C	0.978148	-0.303240	-0.577850
C54	C	0.978199	-0.139106	-0.326125
C55	C	0.978244	-0.069138	-0.326146
C56	C	1.021465	-0.262982	-0.613212
C57	C	1.021472	-0.262963	-0.683900
C58	C	0.978165	-0.303207	-0.719226
C59	C	0.934843	-0.343468	-0.683860
C60	C	0.934833	-0.343482	-0.613172
C61	C	0.934881	-0.343409	-0.968933
C62	C	0.934896	-0.343393	-1.039625
C63	C	1.021520	-0.262890	-1.039661
C64	C	1.021510	-0.262905	-0.968974
C65	C	0.978186	-0.303162	-0.933613
C66	C	0.978178	-0.303181	-0.856965
C67	C	0.978176	-0.303192	-0.795873
C68	C	0.978095	-0.303291	-0.150220
C69	C	0.978210	-0.303130	-0.074988
H70	H	0.720498	-0.230344	-0.404749
O71	O	0.231055	-0.224047	-0.411661
C72	C	0.238587	-0.144268	-0.497664
C73	C	0.277393	-0.188495	-0.449923
H74	H	0.276035	-0.115503	-0.528602
H75	H	0.205513	-0.173186	-0.533046
H76	H	0.205477	-0.111342	-0.466649
H77	H	0.310540	-0.221430	-0.480884
H78	H	0.310424	-0.159538	-0.414540
H79	H	0.236375	-0.376272	-0.247420
H80	H	0.720378	-0.376223	-0.247382
H81	H	0.899593	-0.662306	-0.247471
O82	O	0.586639	-0.224127	-0.411605
C83	C	0.506907	-0.215785	-0.503044
C84	C	0.545775	-0.259980	-0.455320
H85	H	0.473870	-0.244755	-0.538409
H86	H	0.473769	-0.182839	-0.472080
H87	H	0.544351	-0.187039	-0.534007
H88	H	0.508380	-0.288767	-0.424347
H89	H	0.578923	-0.292884	-0.486323
O90	O	0.892718	-0.537973	-0.240577
C91	C	0.806871	-0.545031	-0.154661
C92	C	0.854478	-0.581092	-0.202356
H93	H	0.775931	-0.579877	-0.123757
H94	H	0.837923	-0.514269	-0.119246
H95	H	0.771480	-0.514242	-0.185710
H96	H	0.889878	-0.611915	-0.171361
H97	H	0.823384	-0.611814	-0.237773
O98	O	1.063497	-1.068006	-0.411648
C99	C	1.096284	-1.088046	-0.526813
C100	C	1.048675	-1.051985	-0.479118
H101	H	1.084308	-1.075117	-0.581373
H102	H	1.150872	-1.075072	-0.515021
H103	H	1.088886	-1.140687	-0.519349
H104	H	1.056013	-0.999336	-0.486555
H105	H	0.994105	-1.065012	-0.490922
H106	H	1.056747	-0.230182	-0.712688
O107	O	0.892858	-1.068284	-0.240801
C108	C	0.777752	-1.088474	-0.207820
C109	C	0.825365	-1.052255	-0.255447
H110	H	0.723175	-1.075517	-0.219634
H111	H	0.785141	-1.141105	-0.215270
H112	H	0.789700	-1.075580	-0.153255
H113	H	0.813447	-1.065096	-0.310030
H114	H	0.817967	-0.999633	-0.247937
H115	H	0.364609	-0.376257	-0.247406
O116	O	0.586474	-0.382532	-0.240643
C117	C	0.477548	-0.418156	-0.202184
C118	C	0.516498	-0.373923	-0.249862
H119	H	0.420966	-0.411201	-0.209611
H120	H	0.491382	-0.468941	-0.213969
H121	H	0.491470	-0.407039	-0.147635
H122	H	0.502598	-0.384983	-0.304427
H123	H	0.502661	-0.323150	-0.238019
O124	O	1.063600	-0.223752	-0.934764
C125	C	1.149549	-0.143923	-0.942262
C126	C	1.101907	-0.188223	-0.981087
H127	H	1.180542	-0.115196	-0.979697
H128	H	1.118520	-0.110970	-0.909192
H129	H	1.184888	-0.172844	-0.909145
H130	H	1.066559	-0.159353	-1.014240
H131	H	1.132977	-0.221178	-1.014113
H132	H	1.056527	-0.542813	-0.404648
H133	H	0.899614	-0.376198	-0.940151
H134	H	0.364737	-0.230377	-0.404773
H135	H	1.056565	-0.662079	-0.404680
H136	H	1.056733	-0.230212	-0.584455
O137	O	1.063385	-0.938401	-0.411564
C138	C	1.072396	-0.864136	-0.502965
C139	C	1.024854	-0.900395	-0.455301
H140	H	1.041262	-0.833409	-0.538348
H141	H	1.107784	-0.833308	-0.471954
H142	H	1.103343	-0.898888	-0.533910
H143	H	0.993863	-0.865689	-0.424346
H144	H	0.989510	-0.931233	-0.486351
O145	O	0.893004	-0.938646	-0.240673
C146	C	0.883928	-0.864515	-0.149244
C147	C	0.931502	-0.900636	-0.196919
H148	H	0.915035	-0.833785	-0.113847
H149	H	0.848516	-0.833702	-0.180245
H150	H	0.853008	-0.899356	-0.118314
H151	H	0.962466	-0.865840	-0.227859
H152	H	0.966869	-0.931458	-0.165879
H153	H	1.056794	-0.230108	-1.068460
O154	O	0.892887	-0.382467	-1.074046
C155	C	0.854493	-0.418096	-1.182930
C156	C	0.902106	-0.373824	-1.144033
H157	H	0.861920	-0.411114	-1.239521
H158	H	0.866342	-0.468873	-1.169067
H159	H	0.799927	-0.407043	-1.168992
H160	H	0.956688	-0.384820	-1.157950
H161	H	0.890199	-0.323060	-1.157899
O162	O	0.892836	-0.382539	-0.718277
C163	C	0.854429	-0.418170	-0.827156
C164	C	0.902047	-0.373898	-0.788265
H165	H	0.861850	-0.411189	-0.883748
H166	H	0.866280	-0.468947	-0.813294
H167	H	0.799865	-0.407117	-0.813212
H168	H	0.956628	-0.384894	-0.802188
H169	H	0.890139	-0.323134	-0.802131
H170	H	0.899553	-0.376259	-0.584382
