data_functionalizedCrystal
_audit_creation_method	'MofGen! by Chris Wilmer'
_symmetry_space_group_name_H-M	'P1'
_symmetry_Int_Tables_number	1
_symmetry_cell_setting	triclinic
loop_
_symmetry_equiv_pos_as_xyz
  x,y,z
_cell_length_a	14.044220
_cell_length_b	13.339070
_cell_length_c	11.804365
_cell_angle_alpha	105.124870
_cell_angle_beta	102.927057
_cell_angle_gamma	75.590914
loop_
_atom_site_label
_atom_site_type_symbol
_atom_site_fract_x
_atom_site_fract_y
_atom_site_fract_z
O1	O	0.472644	-1.405383	-0.099085
O2	O	0.408756	-1.105089	-0.099076
O3	O	0.301532	-1.250726	-0.099069
O4	O	0.579868	-1.259745	-0.099093
O5	O	0.329720	-1.212382	0.098985
O6	O	0.436945	-1.066744	0.098978
O7	O	0.500832	-1.367038	0.098969
Cu8	Cu	0.471462	-1.213390	0.117057
Cu9	Cu	0.438126	-1.258737	-0.117165
O10	O	0.608057	-1.221401	0.098961
C11	C	0.412058	-1.047253	-0.000048
C12	C	0.379890	-0.932048	-0.000044
C13	C	0.279274	-1.227608	-0.000041
C14	C	0.170953	-1.215837	-0.000039
C15	C	0.497530	-1.424874	-0.000062
C16	C	0.529697	-1.540081	-0.000074
C17	C	-0.027371	-1.194321	-0.000056
C18	C	-0.063049	-1.277803	-0.000062
C19	C	-0.173403	-1.265832	-0.000071
C20	C	0.082993	-1.206291	-0.000047
C21	C	0.630314	-1.244520	-0.000069
C22	C	0.738634	-1.256292	-0.000078
N23	N	0.494911	-1.181503	0.281796
C24	C	0.630011	-0.589834	-0.000084
C25	C	0.660237	-0.698075	-0.000092
C26	C	0.590153	-0.756574	-0.000079
C27	C	0.489838	-0.706820	-0.000060
C28	C	0.459607	-0.598569	-0.000062
C29	C	0.419749	-0.765309	-0.000057
C30	C	0.319434	-0.715555	-0.000038
C31	C	0.289209	-0.607315	-0.000040
C32	C	0.359293	-0.548817	-0.000052
C33	C	0.449980	-0.873560	-0.000055
C34	C	0.279576	-0.882295	-0.000034
C35	C	0.249350	-0.774054	-0.000026
N36	N	0.414672	-1.290631	-0.281904
C37	C	0.358346	-1.367201	0.655754
C38	C	0.340602	-1.391322	0.531094
C39	C	0.379178	-1.338869	0.468763
C40	C	0.435500	-1.262292	0.531106
C41	C	0.453251	-1.238175	0.655778
C42	C	0.474083	-1.209842	0.468787
C43	C	0.530405	-1.133265	0.531129
C44	C	0.548153	-1.109151	0.655790
C45	C	0.509578	-1.161604	0.718120
C46	C	0.456332	-1.233960	0.344115
C47	C	0.551237	-1.104933	0.344138
C48	C	0.568980	-1.080812	0.468799
H49	H	-0.079700	-1.113865	-0.000056
H50	H	0.294747	-1.453671	0.480339
N51	N	0.705594	-0.526747	-0.000108
H52	H	0.686391	-0.495863	-0.073531
H53	H	0.707269	-0.467474	0.073355
H54	H	0.334688	-0.460677	-0.000045
H55	H	0.614840	-1.018462	0.519573
N56	N	0.141152	-0.720395	-0.000020
H57	H	0.119615	-0.726926	0.073403
H58	H	0.132713	-0.642971	-0.000069
N59	N	0.395562	-1.316524	0.276886
H60	H	0.390163	-1.323843	0.188453
H61	H	0.429241	-1.386838	0.298651
N62	N	0.316755	-1.423780	0.722978
H63	H	0.336551	-1.396883	0.811412
H64	H	0.241621	-1.409818	0.701208
H65	H	0.207524	-0.566811	-0.000038
N66	N	0.006273	-1.384380	-0.000044
H67	H	0.004857	-1.409080	0.073378
H68	H	-0.016054	-1.437455	-0.073508
N69	N	0.528716	-1.135585	0.852580
H70	H	0.495728	-1.180432	0.882600
H71	H	0.602942	-1.150790	0.882504
H72	H	0.531657	-0.914058	-0.000066
H73	H	0.614769	-0.844709	-0.000088
H74	H	0.741912	-0.738579	-0.000116
H75	H	0.364729	-1.358512	0.367259
H76	H	0.222507	-0.929926	-0.000029
N77	N	0.608896	-1.026556	0.723029
H78	H	0.669688	-1.060018	0.774739
H79	H	0.630563	-0.997013	0.664551
H80	H	0.582651	-1.062223	0.293390
