data_functionalizedCrystal
_audit_creation_method	'MofGen! by Chris Wilmer'
_symmetry_space_group_name_H-M	'P1'
_symmetry_Int_Tables_number	1
_symmetry_cell_setting	triclinic
loop_
_symmetry_equiv_pos_as_xyz
  x,y,z
_cell_length_a	12.759401
_cell_length_b	14.908520
_cell_length_c	12.759393
_cell_angle_alpha	93.263606
_cell_angle_beta	89.979062
_cell_angle_gamma	93.322137
loop_
_atom_site_label
_atom_site_type_symbol
_atom_site_fract_x
_atom_site_fract_y
_atom_site_fract_z
Zn1	Zn	1.582080	-0.359078	-0.618119
Zn2	Zn	1.915414	-0.025744	-0.284786
Zn3	Zn	2.248747	0.307589	0.048547
Zn4	Zn	1.571808	-0.509962	-0.452566
Zn5	Zn	1.905142	-0.176628	-0.119233
Zn6	Zn	2.238475	0.156705	0.214101
Zn7	Zn	1.406376	-0.359126	-0.442458
Zn8	Zn	1.739709	-0.025792	-0.109124
Zn9	Zn	2.073042	0.307541	0.224209
Zn10	Zn	1.396212	-0.509899	-0.628199
Zn11	Zn	1.729545	-0.176565	-0.294866
Zn12	Zn	2.062879	0.156768	0.038468
O13	O	1.489119	-0.434516	-0.535335
O14	O	1.822452	-0.101183	-0.202002
O15	O	2.155786	0.232151	0.131331
O16	O	1.727738	-0.379099	-0.596170
O17	O	2.061072	-0.045766	-0.262837
O18	O	2.394405	0.287568	0.070496
O19	O	1.549818	-0.490000	-0.304207
O20	O	1.883151	-0.156666	0.029126
O21	O	2.216485	0.176667	0.362460
O22	O	1.438236	-0.232875	-0.457311
O23	O	1.771569	0.100458	-0.123978
O24	O	2.104902	0.433792	0.209356
O25	O	1.720192	-0.489953	-0.474539
O26	O	2.053525	-0.156620	-0.141206
O27	O	2.386858	0.176714	0.192128
O28	O	1.567325	-0.232840	-0.586369
O29	O	1.900658	0.100494	-0.253035
O30	O	2.233992	0.433827	0.080298
O31	O	1.428275	-0.379181	-0.296781
O32	O	1.761609	-0.045848	0.036553
O33	O	2.094942	0.287486	0.369886
O34	O	1.258007	-0.379120	-0.467085
O35	O	1.591340	-0.045787	-0.133751
O36	O	1.924674	0.287547	0.199582
O37	O	1.420913	-0.489846	-0.773880
O38	O	1.754247	-0.156512	-0.440546
O39	O	2.087580	0.176821	-0.107213
O40	O	1.250540	-0.489892	-0.603548
O41	O	1.583873	-0.156559	-0.270215
O42	O	1.917206	0.176775	0.063119
O43	O	1.557470	-0.379038	-0.766474
O44	O	1.890803	-0.045705	-0.433141
O45	O	2.224136	0.287629	-0.099808
O46	O	1.539963	-0.636198	-0.484313
O47	O	1.873296	-0.302865	-0.150979
O48	O	2.206630	0.030469	0.182354
O49	O	1.410953	-0.636152	-0.613349
O50	O	1.744286	-0.302818	-0.280016
O51	O	2.077620	0.030515	0.053317
C52	C	1.216153	-0.434505	-0.535314
C53	C	1.549486	-0.101172	-0.201980
C54	C	1.882819	0.232162	0.131353
C55	C	1.099375	-0.434522	-0.535331
C56	C	1.432708	-0.101189	-0.201998
C57	C	1.766041	0.232145	0.131336
C58	C	1.040646	-0.492289	-0.606288
C59	C	1.373980	-0.158956	-0.272954
C60	C	1.707313	0.174378	0.060379
C61	C	0.930922	-0.492292	-0.606309
C62	C	1.264255	-0.158959	-0.272975
C63	C	1.597589	0.174374	0.060358
C64	C	0.938665	-0.376759	-0.464407
C65	C	1.271998	-0.043426	-0.131074
C66	C	1.605331	0.289907	0.202259
C67	C	1.048387	-0.376752	-0.464392
C68	C	1.381720	-0.043419	-0.131059
C69	C	1.715054	0.289914	0.202275
C70	C	1.473269	-0.668908	-0.551045
C71	C	1.806602	-0.335575	-0.217711
C72	C	2.139936	-0.002242	0.115622
C73	C	1.466584	-0.769183	-0.557800
C74	C	1.799918	-0.435849	-0.224467
C75	C	2.133251	-0.102516	0.108867
C76	C	1.588499	-0.957595	-0.436237
C77	C	1.921833	-0.624262	-0.102903
C78	C	2.255166	-0.290929	0.230430
C79	C	1.582222	-1.051812	-0.442581
C80	C	1.915555	-0.718478	-0.109248
C81	C	2.248889	-0.385145	0.224086
C82	C	1.447758	-1.051834	-0.576837
C83	C	1.781092	-0.718500	-0.243503
C84	C	2.114425	-0.385167	0.089830
C85	C	1.454036	-0.957617	-0.570493
C86	C	1.787369	-0.624284	-0.237159
C87	C	2.120702	-0.290950	0.096174
C88	C	1.524407	-0.910501	-0.500189
C89	C	1.857741	-0.577168	-0.166856
C90	C	2.191074	-0.243835	0.166477
C91	C	1.530679	-0.816283	-0.493841
C92	C	1.864012	-0.482950	-0.160507
C93	C	2.197345	-0.149616	0.172826
C94	C	1.396221	-0.816307	-0.628101
C95	C	1.729554	-0.482973	-0.294768
C96	C	2.062888	-0.149640	0.038565
C97	C	1.389944	-0.910523	-0.634445
C98	C	1.723277	-0.577190	-0.301112
C99	C	2.056611	-0.243856	0.032221
C100	C	1.763152	-0.434528	-0.535358
C101	C	2.096485	-0.101194	-0.202024
C102	C	2.429818	0.232139	0.131309
C103	C	1.879928	-0.434533	-0.535367
C104	C	2.213261	-0.101199	-0.202034
C105	C	2.546595	0.232134	0.131299
C106	C	1.489204	-0.434429	-0.809363
C107	C	1.822537	-0.101096	-0.476030
C108	C	2.155870	0.232237	-0.142696
C109	C	1.489240	-0.434392	-0.926137
C110	C	1.822573	-0.101059	-0.592804
C111	C	2.155906	0.232274	-0.259471
C112	C	1.505060	-0.199208	-0.519588
C113	C	1.838393	0.134125	-0.186255
C114	C	2.171727	0.467458	0.147079
C115	C	1.511853	-0.098934	-0.512877
C116	C	1.845186	0.234399	-0.179544
C117	C	2.178519	0.567733	0.153789
C118	C	1.560350	-0.376686	-0.977144
C119	C	1.893683	-0.043352	-0.643811
C120	C	2.227017	0.289981	-0.310478
C121	C	1.560371	-0.376647	-1.086866
C122	C	1.893704	-0.043314	-0.753533
C123	C	2.227037	0.290020	-0.420199
C124	C	1.418166	-0.492029	-1.094564
C125	C	1.751500	-0.158696	-0.761231
C126	C	2.084833	0.174637	-0.427898
C127	C	1.418142	-0.492063	-0.984844
C128	C	1.751475	-0.158730	-0.651511
C129	C	2.084808	0.174604	-0.318178
C130	C	1.489100	-0.434537	-0.262369
C131	C	1.822433	-0.101204	0.070964
C132	C	2.155767	0.232129	0.404297
C133	C	1.489285	-0.434320	-0.145579
C134	C	1.822618	-0.100987	0.187755
C135	C	2.155951	0.232347	0.521088
H136	H	1.096206	-0.329706	-0.406610
H137	H	1.429539	0.003628	-0.073277
H138	H	1.762873	0.336961	0.260056
F139	F	0.884390	-0.315281	-0.388912
F140	F	1.217724	0.018052	-0.055579
F141	F	1.551057	0.351385	0.277754
H142	H	1.645791	-0.919233	-0.378986
H143	H	1.979125	-0.585900	-0.045652
H144	H	2.312458	-0.252566	0.287681
F145	F	1.342507	-0.553406	-1.157053
F146	F	1.675840	-0.220073	-0.823720
F147	F	2.009174	0.113261	-0.490387
H148	H	1.587976	-0.777922	-0.436593
H149	H	1.921309	-0.444589	-0.103260
H150	H	2.254643	-0.111256	0.230073
F151	F	1.636016	-0.315306	-0.914667
F152	F	1.969349	0.018028	-0.581334
F153	F	2.302683	0.351361	-0.248001
H154	H	1.634414	-1.090152	-0.390506
H155	H	1.967748	-0.756819	-0.057173
H156	H	2.301081	-0.423485	0.276161
F157	F	1.636063	-0.315233	-1.141147
F158	F	1.969396	0.018100	-0.807813
F159	F	2.302729	0.351433	-0.474480
H160	H	1.344030	-0.777952	-0.680173
H161	H	1.677363	-0.444619	-0.346839
H162	H	2.010697	-0.111285	-0.013506
H163	H	1.390472	-1.090211	-0.634081
H164	H	1.723806	-0.756878	-0.300748
H165	H	2.057139	-0.423545	0.032585
H166	H	1.360228	-0.539054	-0.943314
H167	H	1.693561	-0.205721	-0.609980
H168	H	2.026894	0.127613	-0.276647
H169	H	1.082157	-0.539327	-0.664053
H170	H	1.415490	-0.205993	-0.330720
H171	H	1.748824	0.127340	0.002614
F172	F	1.315057	-0.960677	-0.709267
F173	F	1.648391	-0.627343	-0.375933
F174	F	1.981724	-0.294010	-0.042600
H175	H	0.883110	-0.539331	-0.664090
H176	H	1.216443	-0.205997	-0.330757
H177	H	1.549776	0.127336	0.002577
