data_functionalizedCrystal
_audit_creation_method	'MofGen! by Chris Wilmer'
_symmetry_space_group_name_H-M	'P1'
_symmetry_Int_Tables_number	1
_symmetry_cell_setting	triclinic
loop_
_symmetry_equiv_pos_as_xyz
  x,y,z
_cell_length_a	17.699077
_cell_length_b	15.944551
_cell_length_c	16.176319
_cell_angle_alpha	89.992246
_cell_angle_beta	89.993140
_cell_angle_gamma	83.389657
loop_
_atom_site_label
_atom_site_type_symbol
_atom_site_fract_x
_atom_site_fract_y
_atom_site_fract_z
O1	O	1.004263	0.106198	-0.068737
O2	O	0.783908	0.120023	-0.068742
O3	O	0.900103	-0.009177	-0.068732
O4	O	0.888068	0.235398	-0.068747
O5	O	0.900087	-0.009185	0.068761
O6	O	0.783892	0.120015	0.068752
O7	O	1.004247	0.106190	0.068756
Cu8	Cu	0.894068	0.113102	0.081308
Cu9	Cu	0.894087	0.113111	-0.081294
O10	O	0.888052	0.235390	0.068746
C11	C	0.755702	0.119524	0.000005
C12	C	0.671681	0.118041	0.000003
C13	C	0.632204	0.117337	0.074952
C14	C	0.553259	0.115930	0.074953
C15	C	0.513792	0.115232	0.000004
C16	C	0.553275	0.115933	-0.074950
C17	C	0.632219	0.117335	-0.074950
C18	C	0.234902	0.110281	-0.074951
C19	C	0.155952	0.108882	-0.074945
C20	C	0.155941	0.108876	0.074951
C21	C	0.234886	0.110277	0.074951
C22	C	0.274362	0.110974	-0.000002
C23	C	0.359964	0.112498	-0.000003
C24	C	0.428191	0.113714	0.000003
C25	C	0.899595	-0.040474	0.000015
C26	C	0.898097	-0.133717	0.000015
C27	C	0.822494	-0.348413	0.000002
C28	C	0.857594	-0.409509	0.067796
C29	C	0.895388	-0.304437	0.000009
C30	C	0.857627	-0.409484	-0.067762
C31	C	0.892765	-0.469344	-0.000001
C32	C	0.930507	-0.364305	0.067858
C33	C	0.930530	-0.364274	-0.067760
C34	C	0.965683	-0.425352	0.000049
C35	C	0.896896	-0.209438	0.000015
C36	C	0.891261	-0.564342	-0.000001
C37	C	1.032453	0.106689	0.000008
C38	C	1.116474	0.108172	0.000004
C39	C	0.888559	0.266687	-0.000002
C40	C	0.890057	0.359930	-0.000008
N41	N	0.894060	0.113094	0.195673
N42	N	0.894101	0.113112	-0.195659
C43	C	0.945527	0.055908	0.238942
C44	C	0.945531	0.055907	0.325489
C45	C	0.894071	0.113097	0.368766
C46	C	0.842599	0.170286	0.325491
C47	C	0.842592	0.170283	0.238946
C48	C	0.842624	0.170302	0.674519
C49	C	0.842637	0.170303	0.761071
C50	C	0.945563	0.055926	0.761062
C51	C	0.945557	0.055923	0.674517
C52	C	0.894082	0.113108	0.631250
C53	C	0.894078	0.113108	0.537406
C54	C	0.894078	0.113103	0.462608
H55	H	0.123790	0.108305	0.135982
F56	F	0.787844	0.231165	0.628478
F57	F	0.817288	-0.435711	0.142708
F58	F	1.000346	-0.004939	0.807117
H59	H	0.987462	0.009356	0.639284
F60	F	0.276906	0.111023	-0.154724
H61	H	0.761989	-0.314976	0.000069
F62	F	0.113950	0.108138	-0.154720
H63	H	0.664331	0.117912	0.135983
F64	F	1.044836	-0.468864	0.000098
F65	F	0.511246	0.115193	0.154723
F66	F	0.970766	-0.338270	0.142853
H67	H	0.800681	0.216849	0.203717
H68	H	0.521135	0.115359	-0.135974
H69	H	0.664360	0.117909	-0.135981
H70	H	0.961341	-0.344206	-0.125076
F71	F	0.787827	0.231150	0.371551
H72	H	0.826793	-0.429492	-0.125080
H73	H	0.267015	0.110850	0.135982
F74	F	0.787863	0.231175	0.807128
F75	F	1.000302	-0.004959	0.192891
F76	F	1.000306	-0.004958	0.371539
