data_functionalizedCrystal
_audit_creation_method	'MofGen! by Chris Wilmer'
_symmetry_space_group_name_H-M	'P1'
_symmetry_Int_Tables_number	1
_symmetry_cell_setting	triclinic
loop_
_symmetry_equiv_pos_as_xyz
  x,y,z
_cell_length_a	10.489741
_cell_length_b	27.732048
_cell_length_c	9.565339
_cell_angle_alpha	89.995294
_cell_angle_beta	89.999100
_cell_angle_gamma	83.590915
loop_
_atom_site_label
_atom_site_type_symbol
_atom_site_fract_x
_atom_site_fract_y
_atom_site_fract_z
O1	O	1.691056	0.068187	-0.116191
O2	O	1.319579	0.074588	-0.116214
O3	O	1.516855	0.001064	-0.116175
O4	O	1.493780	0.141712	-0.116230
O5	O	1.516839	0.001068	0.116345
O6	O	1.319563	0.074593	0.116306
O7	O	1.691040	0.068192	0.116329
Zn8	Zn	1.505299	0.071393	0.153235
Zn9	Zn	1.505320	0.071387	-0.153120
O10	O	1.493765	0.141716	0.116290
C11	C	1.272061	0.074107	0.000043
C12	C	1.130495	0.072661	0.000036
C13	C	1.064411	0.025879	0.000067
C14	C	0.971320	0.047976	-0.114583
C15	C	0.971339	0.047992	0.114663
C16	C	1.039269	0.094777	-0.114709
C17	C	1.039297	0.094786	0.114640
C18	C	0.946232	0.116916	-0.000038
C19	C	1.516363	-0.016944	0.000089
C20	C	1.514904	-0.070608	0.000100
C21	C	1.622299	-0.408745	0.000035
C22	C	1.616888	-0.610439	0.000015
O23	O	1.715093	-0.641075	-0.000040
N24	N	1.499911	-0.630301	0.000009
C25	C	1.384279	-0.599736	-0.000001
O26	O	1.284660	-0.621258	-0.000021
C27	C	1.389692	-0.398044	0.000009
C28	C	1.506676	-0.378184	0.000029
C29	C	1.739274	-0.388886	0.000054
C30	C	1.740625	-0.338465	0.000066
C31	C	1.625002	-0.307904	0.000060
C32	C	1.508028	-0.327764	0.000042
C33	C	1.274062	-0.367480	-0.000011
C34	C	1.275425	-0.317054	-0.000012
C35	C	1.392409	-0.297195	0.000008
C36	C	1.393757	-0.246783	0.000048
N37	N	1.510733	-0.226920	0.000054
C38	C	1.626356	-0.257481	0.000060
C39	C	1.381446	-0.705628	-0.000003
C40	C	1.380092	-0.756051	-0.000003
C41	C	1.612701	-0.766751	0.000010
C42	C	1.614053	-0.716327	0.000020
C43	C	1.498422	-0.685766	0.000003
C44	C	1.629186	-0.151594	0.000088
C45	C	1.630527	-0.101169	0.000106
C46	C	1.397919	-0.090474	0.000085
C47	C	1.396577	-0.140895	0.000074
C48	C	1.512221	-0.171454	0.000071
O49	O	1.295604	-0.216118	0.000088
O50	O	1.725961	-0.235950	0.000049
C51	C	1.620947	-0.459166	0.000023
C52	C	1.503973	-0.479025	0.000004
C53	C	1.388350	-0.448464	-0.000002
C54	C	1.502619	-0.529448	0.000004
C55	C	1.618242	-0.560009	0.000010
C56	C	1.735219	-0.540147	0.000016
C57	C	1.736570	-0.489727	0.000029
C58	C	1.271374	-0.468327	-0.000008
C59	C	1.270032	-0.518748	-0.000019
C60	C	1.385654	-0.549308	-0.000013
C61	C	1.738559	0.068673	0.000069
C62	C	1.880124	0.070119	0.000067
C63	C	1.494257	0.159724	0.000023
C64	C	1.495715	0.213388	0.000003
N65	N	1.505295	0.071397	0.362315
N66	N	1.505335	0.071379	-0.362199
C67	C	1.414034	0.105388	0.453500
C68	C	1.529101	0.115168	0.546682
C69	C	1.390277	0.061621	0.546688
C70	C	1.620419	0.081198	0.453445
C71	C	1.481520	0.027633	0.453443
C72	C	1.596671	0.037394	0.546583
H73	H	0.941224	0.028191	0.211592
H74	H	1.461348	-0.009359	0.412456
H75	H	0.895116	0.155414	-0.000115
O76	O	1.736385	0.091154	0.404566
C77	C	1.866457	0.102341	0.202000
C78	C	1.735082	0.091049	0.257168
H79	H	1.865455	0.102250	0.082823
H80	H	1.886861	0.139539	0.241169
H81	H	1.944352	0.073557	0.241182
H82	H	1.657103	0.119802	0.218010
H83	H	1.714788	0.053838	0.218010
H84	H	1.706846	-0.791642	0.000016
H85	H	0.941183	0.028180	-0.211498
H86	H	1.336927	0.134160	0.412630
H87	H	1.835885	-0.322301	0.000077
H88	H	1.549238	0.152170	0.587636
H89	H	1.069234	0.114553	-0.211747
O90	O	1.160456	-0.386787	0.000201
C91	C	1.023910	-0.437526	0.120560
C92	C	1.152607	-0.415684	0.120518
H93	H	1.017534	-0.460902	0.217810
H94	H	0.941463	-0.407035	0.120633
H95	H	1.017495	-0.460838	0.023196
H96	H	1.159148	-0.392377	0.217865
H97	H	1.234993	-0.446198	0.120372
H98	H	1.069467	0.114566	0.211560
O99	O	1.850242	-0.470462	-0.000210
C100	C	2.049510	-0.464215	-0.120621
C101	C	1.920803	-0.486050	-0.120537
H102	H	2.106606	-0.476818	-0.217879
H103	H	2.030714	-0.422924	-0.120707
H104	H	2.106534	-0.476767	-0.023265
H105	H	1.863713	-0.473535	-0.217875
H106	H	1.939689	-0.527338	-0.120377
O107	O	1.744284	-0.081959	0.000058
C108	C	1.974855	-0.097902	0.000152
C109	C	1.846124	-0.119719	0.000177
H110	H	2.057226	-0.128421	0.000278
H111	H	1.981400	-0.074575	-0.097175
H112	H	1.981233	-0.074551	0.097444
H113	H	1.839659	-0.143092	-0.097049
H114	H	1.839633	-0.143018	0.097568
H115	H	1.723354	-0.176470	0.000080
O116	O	1.266342	-0.775260	-0.000069
C117	C	1.035771	-0.759312	-0.000009
C118	C	1.164506	-0.737497	0.000044
H119	H	0.953404	-0.728791	0.000112
H120	H	1.029236	-0.782630	-0.097343
H121	H	1.029376	-0.782670	0.097275
H122	H	1.170988	-0.714116	-0.097174
H123	H	1.170987	-0.714207	0.097443
H124	H	1.833433	-0.413764	0.000054
H125	H	1.287280	-0.680750	-0.000017
O126	O	1.282972	-0.160211	0.000314
C127	C	1.146459	-0.210958	0.120691
C128	C	1.275150	-0.189112	0.120627
H129	H	1.140104	-0.234337	0.217938
H130	H	1.064006	-0.180469	0.120785
H131	H	1.140032	-0.234268	0.023324
H132	H	1.281702	-0.165807	0.217977
H133	H	1.357542	-0.219623	0.120460
O134	O	1.847570	-0.569819	0.000265
C135	C	2.045993	-0.594393	0.120676
C136	C	1.918800	-0.560768	0.120596
H137	H	2.103631	-0.587080	0.217938
H138	H	2.024993	-0.633851	0.120753
H139	H	2.103561	-0.587119	0.023324
H140	H	1.861169	-0.567999	0.217931
H141	H	1.939891	-0.521321	0.120446
H142	H	1.709312	-0.700161	0.000036
O143	O	1.689020	0.003142	0.594984
C144	C	1.914566	-0.025261	0.602058
C145	C	1.810112	0.013564	0.547175
H146	H	2.012490	-0.016854	0.563403
H147	H	1.913467	-0.025233	0.721237
H148	H	1.895047	-0.062461	0.562085
H149	H	1.829559	0.050784	0.587045
H150	H	1.811236	0.013494	0.427998
H151	H	1.181262	-0.292173	-0.000029
H152	H	1.303782	-0.065582	0.000085
H153	H	1.292993	0.053360	0.587650
H154	H	1.174762	-0.534912	-0.000023
O155	O	1.159084	-0.438624	-0.000256
C156	C	1.025621	-0.375464	-0.120657
C157	C	1.152832	-0.409079	-0.120576
H158	H	1.020537	-0.351561	-0.217910
H159	H	0.941745	-0.398304	-0.120754
H160	H	1.020443	-0.351619	-0.023296
H161	H	1.158135	-0.432931	-0.217920
H162	H	1.236648	-0.386211	-0.120406
H163	H	1.115791	-0.012578	-0.000061
