data_functionalizedCrystal
_audit_creation_method	'MofGen! by Chris Wilmer'
_symmetry_space_group_name_H-M	'P1'
_symmetry_Int_Tables_number	1
_symmetry_cell_setting	triclinic
loop_
_symmetry_equiv_pos_as_xyz
  x,y,z
_cell_length_a	29.839134
_cell_length_b	11.169416
_cell_length_c	11.169409
_cell_angle_alpha	89.969184
_cell_angle_beta	90.033640
_cell_angle_gamma	89.994798
loop_
_atom_site_label
_atom_site_type_symbol
_atom_site_fract_x
_atom_site_fract_y
_atom_site_fract_z
Zn1	Zn	0.686868	0.477875	0.678974
Zn2	Zn	1.186868	0.977875	1.178974
Zn3	Zn	0.686826	0.678615	0.478296
Zn4	Zn	1.186826	1.178615	0.978296
Zn5	Zn	0.611736	0.477927	0.478262
Zn6	Zn	1.111736	0.977927	0.978262
Zn7	Zn	0.611740	0.678497	0.678895
Zn8	Zn	1.111740	1.178497	1.178895
O9	O	0.649293	0.578228	0.578607
O10	O	1.149293	1.078228	1.078607
O11	O	0.749730	0.504531	0.652400
O12	O	1.249730	1.004531	1.152400
O13	O	0.676846	0.652065	0.310341
O14	O	1.176846	1.152065	0.810341
O15	O	0.621719	0.309970	0.504906
O16	O	1.121719	0.809970	1.004906
O17	O	0.749699	0.652015	0.504963
O18	O	1.249699	1.152015	1.004963
O19	O	0.676918	0.309932	0.652368
O20	O	1.176918	0.809932	1.152368
O21	O	0.621677	0.504620	0.310317
O22	O	1.121677	1.004620	0.810317
O23	O	0.548869	0.504505	0.504830
O24	O	1.048869	1.004505	1.004830
O25	O	0.621725	0.651812	0.846855
O26	O	1.121725	1.151812	1.346855
O27	O	0.548872	0.651863	0.652233
O28	O	1.048872	1.151863	1.152233
O29	O	0.676922	0.504417	0.846913
O30	O	1.176922	1.004417	1.346913
O31	O	0.676850	0.846549	0.504887
O32	O	1.176850	1.346549	1.004887
O33	O	0.621684	0.846462	0.652266
O34	O	1.121684	1.346462	1.152266
C35	C	0.532570	0.578178	0.578520
C36	C	1.032570	1.078178	1.078520
C37	C	0.482636	0.578185	0.578511
C38	C	0.982636	1.078185	1.078511
C39	C	0.649329	0.578095	0.891649
C40	C	1.149329	1.078095	1.391649
C41	C	0.649344	0.578039	1.025049
C42	C	1.149344	1.078039	1.525049
C43	C	0.649275	0.890053	0.578597
C44	C	1.149275	1.390053	1.078597
C45	C	0.649308	1.023453	0.578634
C46	C	1.149308	1.523453	1.078634
C47	C	0.173003	0.655071	0.655266
C48	C	0.673003	1.155071	1.155266
C49	C	-0.014670	0.655105	0.655319
C50	C	0.485330	1.155105	1.155319
O51	O	-0.038926	0.720420	0.720527
O52	O	0.461074	1.220420	1.220527
N53	N	-0.038150	0.578272	0.578697
N54	N	0.461850	1.078272	1.078697
C55	C	-0.014708	0.501420	0.502062
C56	C	0.485292	1.001420	1.002062
O57	O	-0.038985	0.436062	0.436900
O58	O	0.461015	0.936062	0.936900
C59	C	0.172964	0.501381	0.502015
C60	C	0.672964	1.001381	1.002015
C61	C	0.196441	0.578228	0.578634
C62	C	0.696441	1.078228	1.078634
C63	C	0.196480	0.731910	0.731879
C64	C	0.696480	1.231910	1.231879
C65	C	0.243396	0.731906	0.731860
C66	C	0.743396	1.231906	1.231860
C67	C	0.266834	0.655062	0.655228
C68	C	0.766834	1.155062	1.155228
C69	C	0.243357	0.578223	0.578615
C70	C	0.743357	1.078223	1.078615
C71	C	0.196405	0.424524	0.425387
C72	C	0.696405	0.924524	0.925387
C73	C	0.243326	0.424519	0.425384
C74	C	0.743326	0.924519	0.925384
C75	C	0.266803	0.501365	0.502003
C76	C	0.766803	1.001365	1.002003
C77	C	0.313711	0.501375	0.501964
C78	C	0.813711	1.001375	1.001964
N79	N	0.337190	0.578207	0.578586
N80	N	0.837190	1.078207	1.078586
C81	C	0.313752	0.655051	0.655218
C82	C	0.813752	1.155051	1.155218
C83	C	-0.113239	0.501448	0.502090
C84	C	0.386761	1.001448	1.002090
C85	C	-0.160156	0.501459	0.502100
C86	C	0.339844	1.001459	1.002100
C87	C	-0.160115	0.655142	0.655359
C88	C	0.339885	1.155142	1.155359
C89	C	-0.113197	0.655136	0.655342
C90	C	0.386803	1.155136	1.155342
C91	C	-0.089759	0.578281	0.578712
C92	C	0.410241	1.078281	1.078712
C93	C	0.412278	0.655036	0.655172
C94	C	0.912278	1.155036	1.155172
C95	C	0.459197	0.655028	0.655143
C96	C	0.959197	1.155028	1.155143
C97	C	0.459152	0.501341	0.501889
C98	C	0.959152	1.001341	1.001889
C99	C	0.412236	0.501353	0.501913
C100	C	0.912236	1.001353	1.001913
C101	C	0.388800	0.578204	0.578564
C102	C	0.888800	1.078204	1.078564
O103	O	0.337995	0.436084	0.436800
O104	O	0.837995	0.936084	0.936800
O105	O	0.338037	0.720381	0.720389
O106	O	0.838037	1.220381	1.220389
C107	C	0.126088	0.655076	0.655284
C108	C	0.626088	1.155076	1.155284
C109	C	0.102610	0.578237	0.578671
C110	C	0.602610	1.078237	1.078671
C111	C	0.126049	0.501393	0.502039
C112	C	0.626049	1.001393	1.002039
C113	C	0.055693	0.578248	0.578681
C114	C	0.555693	1.078248	1.078681
C115	C	0.032254	0.655091	0.655313
C116	C	0.532254	1.155091	1.155313
C117	C	0.055734	0.731924	0.731935
C118	C	0.555734	1.231924	1.231935
C119	C	0.102649	0.731919	0.731916
C120	C	0.602649	1.231919	1.231916
C121	C	0.102569	0.424561	0.425417
C122	C	0.602569	0.924561	0.925417
C123	C	0.055654	0.424573	0.425441
C124	C	0.555654	0.924573	0.925441
C125	C	0.032215	0.501416	0.502073
C126	C	0.532215	1.001416	1.002073
C127	C	0.766471	0.578280	0.578694
C128	C	1.266471	1.078280	1.078694
C129	C	0.816405	0.578303	0.578732
C130	C	1.316405	1.078303	1.078732
C131	C	0.649323	0.265186	0.578642
C132	C	1.149323	0.765186	1.078642
C133	C	0.649335	0.131786	0.578657
C134	C	1.149335	0.631786	1.078657
C135	C	0.649282	0.578274	0.266782
C136	C	1.149282	1.078274	0.766782
C137	C	0.649354	0.577993	0.133382
C138	C	1.149354	1.077993	0.633382
H139	H	0.478310	0.717610	0.717536
H140	H	0.978310	1.217610	1.217536
H141	H	0.177402	0.794486	0.794288
H142	H	0.677402	1.294486	1.294288
H143	H	0.121760	0.794495	0.794308
H144	H	0.621760	1.294495	1.294308
H145	H	0.036543	0.361997	0.363038
H146	H	0.536543	0.861997	0.863038
H147	H	0.262507	0.794479	0.794253
H148	H	0.762507	1.294479	1.294253
H149	H	0.393202	0.717613	0.717592
H150	H	0.893202	1.217613	1.217592
H151	H	-0.094085	0.717710	0.717734
H152	H	0.405915	1.217710	1.217734
H153	H	-0.094160	0.438861	0.439682
H154	H	0.405840	0.938861	0.939682
H155	H	-0.179207	0.717711	0.717756
H156	H	0.320793	1.217711	1.217756
H157	H	-0.179268	0.438895	0.439697
H158	H	0.320732	0.938895	0.939697
H159	H	0.478244	0.438781	0.439493
H160	H	0.978244	0.938781	0.939493
H161	H	0.121648	0.361984	0.363013
H162	H	0.621648	0.861984	0.863013
H163	H	0.177298	0.361951	0.362992
H164	H	0.677298	0.861951	0.862992
H165	H	0.262406	0.361925	0.362988
H166	H	0.762406	0.861925	0.862988
H167	H	0.036642	0.794496	0.794328
H168	H	0.536642	1.294496	1.294328
H169	H	0.393120	0.438781	0.439522
H170	H	0.893120	0.938781	0.939522
