data_functionalizedCrystal
_audit_creation_method	'MofGen! by Chris Wilmer'
_symmetry_space_group_name_H-M	'P1'
_symmetry_Int_Tables_number	1
_symmetry_cell_setting	triclinic
loop_
_symmetry_equiv_pos_as_xyz
  x,y,z
_cell_length_a	12.759401
_cell_length_b	8.497374
_cell_length_c	12.759393
_cell_angle_alpha	89.982764
_cell_angle_beta	89.977503
_cell_angle_gamma	90.001915
loop_
_atom_site_label
_atom_site_type_symbol
_atom_site_fract_x
_atom_site_fract_y
_atom_site_fract_z
Zn1	Zn	-1.606366	0.627945	0.594161
Zn2	Zn	-1.606299	0.891794	0.418521
Zn3	Zn	-1.430664	0.628026	0.418491
Zn4	Zn	-1.430698	0.891681	0.594154
O5	O	-1.518507	0.759861	0.506332
O6	O	-1.753378	0.662959	0.570877
O7	O	-1.582958	0.856886	0.271496
O8	O	-1.453986	0.407253	0.441784
O9	O	-1.753328	0.856808	0.441836
O10	O	-1.583073	0.407193	0.570848
O11	O	-1.453921	0.663096	0.271474
O12	O	-1.283648	0.662986	0.441778
O13	O	-1.454043	0.856614	0.741176
O14	O	-1.283673	0.856693	0.570836
O15	O	-1.583105	0.662849	0.741181
O16	O	-1.582991	1.112541	0.441829
O17	O	-1.453978	1.112458	0.570866
C18	C	-1.245539	0.759837	0.506303
C19	C	-1.128763	0.759865	0.506316
C20	C	-1.073941	0.860880	0.573410
C21	C	-0.964217	0.860884	0.573428
C22	C	-0.964146	0.658853	0.439249
C23	C	-1.073868	0.658842	0.439238
C24	C	-0.792540	0.759882	0.506354
C25	C	-0.909317	0.759879	0.506346
C26	C	-1.518494	1.169741	0.506347
C27	C	-1.518521	1.348385	0.506330
C28	C	-1.518585	0.759710	0.780365
C29	C	-1.518619	0.759645	0.897142
C30	C	-1.518489	0.759898	0.233364
C31	C	-1.518659	0.759519	0.116588
C32	C	-1.585827	0.658736	0.952008
C33	C	-1.585844	0.658668	1.061732
C34	C	-1.451444	0.860433	1.061714
C35	C	-1.451421	0.860492	0.951992
H36	H	-0.919437	0.576607	0.384635
C37	C	-1.134176	0.547722	0.365429
H38	H	-1.085770	0.487574	0.325471
H39	H	-1.176998	0.479057	0.405685
H40	H	-1.176956	0.607995	0.319585
H41	H	-0.919586	0.943138	0.628064
C42	C	-1.659727	0.547790	0.891676
H43	H	-1.699747	0.487671	0.940072
H44	H	-1.705494	0.608153	0.848881
H45	H	-1.619521	0.479068	0.848868
C46	C	-1.377542	0.971368	1.122053
H47	H	-1.387188	0.956894	1.195258
H48	H	-1.306949	0.948287	1.104059
H49	H	-1.392916	1.077380	1.104075
C50	C	-1.659782	0.547687	1.122086
H51	H	-1.650170	0.562084	1.195289
H52	H	-1.730364	0.570809	1.104115
H53	H	-1.644415	0.441689	1.104098
C54	C	-1.134322	0.971984	0.647203
H55	H	-1.085953	1.032134	0.687171
H56	H	-1.177108	1.040648	0.606945
H57	H	-1.177144	0.911701	0.693038
C58	C	-1.377496	0.971508	0.891635
H59	H	-1.337491	1.031578	0.940015
H60	H	-1.331716	0.911183	0.848818
H61	H	-1.417685	1.040274	0.848846
