data_functionalizedCrystal
_audit_creation_method	'MofGen! by Chris Wilmer'
_symmetry_space_group_name_H-M	'P1'
_symmetry_Int_Tables_number	1
_symmetry_cell_setting	triclinic
loop_
_symmetry_equiv_pos_as_xyz
  x,y,z
_cell_length_a	10.654549
_cell_length_b	14.971486
_cell_length_c	9.130313
_cell_angle_alpha	89.995272
_cell_angle_beta	89.997498
_cell_angle_gamma	84.049453
loop_
_atom_site_label
_atom_site_type_symbol
_atom_site_fract_x
_atom_site_fract_y
_atom_site_fract_z
O1	O	1.666492	0.125630	-0.121766
O2	O	2.166492	0.625630	0.378234
O3	O	1.300885	0.137599	-0.121777
O4	O	1.800885	0.637599	0.378223
O5	O	1.493488	0.001468	-0.121761
O6	O	1.993488	0.501468	0.378239
O7	O	1.473889	0.261761	-0.121782
O8	O	1.973889	0.761761	0.378218
O9	O	1.493475	0.001464	0.121838
O10	O	1.993475	0.501464	0.621838
O11	O	1.300872	0.137595	0.121822
O12	O	1.800872	0.637595	0.621822
O13	O	1.666479	0.125625	0.121832
O14	O	2.166479	0.625625	0.621832
Cu15	Cu	1.483674	0.131610	0.144070
Cu16	Cu	1.983674	0.631610	0.644070
Cu17	Cu	1.483690	0.131615	-0.144014
Cu18	Cu	1.983690	0.631615	0.355986
O19	O	1.473876	0.261757	0.121816
O20	O	1.973876	0.761757	0.621816
C21	C	1.254090	0.136718	0.000021
C22	C	1.754090	0.636718	0.500021
C23	C	1.114675	0.134089	0.000018
C24	C	1.614675	0.634089	0.500018
C25	C	0.903327	0.211764	0.000017
C26	C	1.403327	0.711764	0.500017
C27	C	1.034321	0.214241	0.000008
C28	C	1.534321	0.714241	0.500008
C29	C	1.064029	0.051454	0.000021
C30	C	1.564029	0.551454	0.500021
C31	C	0.933037	0.048978	0.000020
C32	C	1.433037	0.548978	0.500020
C33	C	1.492605	-0.031864	0.000038
C34	C	1.992605	0.468136	0.500038
C35	C	1.489978	-0.131175	0.000037
C36	C	1.989978	0.368825	0.500037
C37	C	1.603127	-0.187785	0.000041
C38	C	2.103127	0.312215	0.500041
C39	C	1.600652	-0.281098	0.000026
C40	C	2.100652	0.218902	0.500026
C41	C	1.485026	-0.317799	0.000018
C42	C	1.985026	0.182201	0.500018
C43	C	1.371868	-0.261182	0.000009
C44	C	1.871868	0.238818	0.500009
C45	C	1.374345	-0.167871	0.000013
C46	C	1.874345	0.332129	0.500013
C47	C	1.366714	-0.455673	0.000003
C48	C	1.866714	0.044327	0.500003
C49	C	1.364237	-0.548990	0.000002
C50	C	1.864237	-0.048990	0.500002
C51	C	1.593021	-0.568900	0.000016
C52	C	2.093021	-0.068900	0.500016
C53	C	1.595497	-0.475588	0.000021
C54	C	2.095497	0.024412	0.500021
C55	C	1.482339	-0.418978	0.000015
C56	C	1.982339	0.081022	0.500015
C57	C	1.713274	0.126506	0.000031
C58	C	2.213274	0.626506	0.500031
C59	C	1.852689	0.129136	0.000025
C60	C	2.352689	0.629136	0.500025
C61	C	1.474759	0.295089	0.000014
C62	C	1.974759	0.795089	0.500014
C63	C	1.477386	0.394400	0.000006
C64	C	1.977386	0.894400	0.500006
N65	N	1.483672	0.131606	0.346692
N66	N	1.983672	0.631606	0.846692
N67	N	1.483701	0.131611	-0.346637
N68	N	1.983701	0.631611	0.153363
C69	C	1.568985	0.071353	0.423351
C70	C	2.068985	0.571353	0.923351
C71	C	1.568997	0.071353	0.576688
C72	C	2.068997	0.571353	1.076688
C73	C	1.398379	0.191868	0.576694
C74	C	1.898379	0.691868	1.076694
C75	C	1.398362	0.191863	0.423360
C76	C	1.898362	0.691863	0.923360
H77	H	1.075543	0.281525	0.000001
H78	H	1.575543	0.781525	0.500001
F79	F	0.879142	-0.038971	0.000012
F80	F	1.379142	0.461029	0.500012
F81	F	1.149551	-0.033850	0.000026
F82	F	1.649551	0.466150	0.500026
H83	H	1.277724	-0.291072	-0.000007
H84	H	1.777724	0.208928	0.499993
H85	H	1.638448	0.022287	0.360932
H86	H	2.138448	0.522287	0.860932
H87	H	1.697283	-0.157911	0.000057
H88	H	2.197283	0.342089	0.500057
H89	H	1.274569	-0.409582	-0.000005
H90	H	1.774569	0.090418	0.499995
F91	F	1.241175	-0.588049	-0.000006
F92	F	1.741175	-0.088049	0.499994
H93	H	1.328923	0.240929	0.639131
H94	H	1.828923	0.740929	1.139131
H95	H	1.328884	0.240929	0.360940
H96	H	1.828884	0.740929	0.860940
F97	F	1.253917	-0.107623	0.000004
F98	F	1.753917	0.392377	0.500004
F99	F	1.659796	0.007221	0.658269
F100	F	2.159796	0.507221	1.158269
H101	H	0.837910	0.277034	0.000021
H102	H	1.337910	0.777034	0.500021
H103	H	1.692789	-0.327186	0.000033
H104	H	2.192789	0.172814	0.500033
H105	H	1.689650	-0.445710	0.000038
H106	H	2.189650	0.054290	0.500038
H107	H	1.685158	-0.614997	0.000017
H108	H	2.185158	-0.114997	0.500017
