data_functionalizedCrystal
_audit_creation_method	'MofGen! by Chris Wilmer'
_symmetry_space_group_name_H-M	'P1'
_symmetry_Int_Tables_number	1
_symmetry_cell_setting	triclinic
loop_
_symmetry_equiv_pos_as_xyz
  x,y,z
_cell_length_a	10.654556
_cell_length_b	15.625429
_cell_length_c	9.130313
_cell_angle_alpha	71.921598
_cell_angle_beta	89.999332
_cell_angle_gamma	84.353401
loop_
_atom_site_label
_atom_site_type_symbol
_atom_site_fract_x
_atom_site_fract_y
_atom_site_fract_z
O1	O	1.666508	0.126645	-0.189067
O2	O	1.300905	0.138703	-0.195470
O3	O	1.493478	0.001500	-0.122601
O4	O	1.473935	0.263847	-0.261936
O5	O	1.493476	0.001504	0.120996
O6	O	1.300903	0.138706	0.048127
O7	O	1.666506	0.126648	0.054530
Cu8	Cu	1.483704	0.132678	0.073571
Cu9	Cu	1.483707	0.132673	-0.214511
O10	O	1.473933	0.263851	-0.018339
C11	C	1.254115	0.137818	-0.073201
C12	C	1.114700	0.135166	-0.071792
C13	C	0.918210	0.131431	-0.202606
C14	C	1.049206	0.133918	-0.203921
C15	C	1.049192	0.133917	0.061665
C16	C	0.918199	0.131423	0.062981
C17	C	0.918219	0.131436	-0.355942
C18	C	1.049215	0.133923	-0.357257
C19	C	1.492594	-0.032091	0.017036
C20	C	1.489946	-0.132186	0.070188
C21	C	1.481209	-0.461397	-0.418870
C22	C	1.478716	-0.555451	-0.368881
C23	C	1.478714	-0.555433	-0.103328
C24	C	1.481213	-0.461378	-0.153296
C25	C	1.482460	-0.414367	-0.311069
C26	C	1.482464	-0.414348	-0.045494
C27	C	1.484956	-0.320300	-0.095458
C28	C	1.486199	-0.273282	-0.253224
C29	C	1.484952	-0.320319	-0.361033
C30	C	1.481208	-0.461360	0.112278
C31	C	1.482458	-0.414330	0.220080
C32	C	1.484960	-0.320281	0.170117
C33	C	1.486203	-0.273263	0.012350
C34	C	1.486207	-0.273244	0.277925
C35	C	1.488700	-0.179197	0.227961
C36	C	1.488696	-0.179216	-0.037614
C37	C	1.713296	0.127533	-0.067743
C38	C	1.852711	0.130185	-0.069161
C39	C	1.474817	0.297441	-0.157979
C40	C	1.477465	0.397536	-0.211141
N41	N	1.483711	0.132680	0.276192
N42	N	1.483710	0.132664	-0.417128
C43	C	1.569004	0.071948	0.385099
C44	C	1.569001	0.071937	0.538442
C45	C	1.398407	0.193399	0.473952
C46	C	1.398406	0.193405	0.320615
C47	C	1.667499	0.001825	0.422332
C48	C	1.667496	0.001814	0.575674
H49	H	0.864878	0.130391	0.171655
H50	H	1.328943	0.242850	0.231946
H51	H	1.102529	0.134925	0.169250
F52	F	1.307623	0.258022	0.521244
F53	F	1.117682	0.050002	-0.374875
H54	H	1.073384	0.197580	-0.449923
H55	H	1.489722	-0.140938	-0.166088
H56	H	1.758453	0.023783	0.363111
F57	F	1.478551	-0.561455	0.165451
F58	F	1.481122	-0.464371	0.387988
H59	H	1.485180	-0.311534	0.406383
H60	H	0.894059	0.067783	-0.381014
F61	F	0.849755	0.215352	-0.462699
F62	F	1.490036	-0.129141	0.342695
F63	F	1.488855	-0.173187	-0.306402
F64	F	1.486296	-0.270283	-0.528953
F65	F	1.477379	-0.605500	-0.483632
H66	H	1.477694	-0.593722	0.025131
H67	H	1.646779	-0.067468	0.417514
F68	F	1.628498	-0.083770	0.683284
F69	F	1.793431	0.021998	0.619357
H70	H	1.482235	-0.423119	-0.547344
