data_functionalizedCrystal
_audit_creation_method	'MofGen! by Chris Wilmer'
_symmetry_space_group_name_H-M	'P1'
_symmetry_Int_Tables_number	1
_symmetry_cell_setting	triclinic
loop_
_symmetry_equiv_pos_as_xyz
  x,y,z
_cell_length_a	23.532407
_cell_length_b	23.532407
_cell_length_c	8.140239
_cell_angle_alpha	89.991844
_cell_angle_beta	89.999964
_cell_angle_gamma	82.848712
loop_
_atom_site_label
_atom_site_type_symbol
_atom_site_fract_x
_atom_site_fract_y
_atom_site_fract_z
O1	O	0.755258	0.069134	-0.136526
O2	O	1.088591	0.402468	0.196807
O3	O	1.421925	0.735801	0.530140
O4	O	0.589395	0.079138	-0.136555
O5	O	0.922728	0.412471	0.196779
O6	O	1.256061	0.745804	0.530112
O7	O	0.677328	-0.008796	-0.136510
O8	O	1.010661	0.324538	0.196824
O9	O	1.343995	0.657871	0.530157
O10	O	0.667325	0.157068	-0.136571
O11	O	1.000658	0.490401	0.196762
O12	O	1.333991	0.823734	0.530095
O13	O	0.677323	-0.008797	0.136718
O14	O	1.010657	0.324537	0.470051
O15	O	1.343990	0.657870	0.803384
O16	O	0.589390	0.079137	0.136672
O17	O	0.922723	0.412470	0.470006
O18	O	1.256057	0.745803	0.803339
O19	O	0.755253	0.069133	0.136701
O20	O	1.088587	0.402467	0.470034
O21	O	1.421920	0.735800	0.803367
Zn22	Zn	0.672321	0.074135	0.180067
Zn23	Zn	1.005654	0.407468	0.513401
Zn24	Zn	1.338987	0.740802	0.846734
Zn25	Zn	0.672327	0.074136	-0.179921
Zn26	Zn	1.005660	0.407469	0.153412
Zn27	Zn	1.338994	0.740803	0.486746
O28	O	0.667320	0.157067	0.136656
O29	O	1.000653	0.490400	0.469989
O30	O	1.333987	0.823733	0.803322
C31	C	0.568176	0.078882	0.000056
C32	C	0.901510	0.412216	0.333389
C33	C	1.234843	0.745549	0.666722
C34	C	0.504959	0.078116	0.000046
C35	C	0.838293	0.411450	0.333380
C36	C	1.171626	0.744783	0.666713
C37	C	0.238792	0.022921	0.000112
C38	C	0.572125	0.356254	0.333445
C39	C	0.905458	0.689588	0.666778
C40	C	0.298192	0.023632	0.000111
C41	C	0.631525	0.356966	0.333444
C42	C	0.964859	0.690299	0.666777
O43	O	0.334937	-0.020153	0.000184
O44	O	0.668270	0.313180	0.333517
O45	O	1.001603	0.646513	0.666851
N46	N	0.320818	0.075909	0.000080
N47	N	0.654152	0.409242	0.333413
N48	N	0.987485	0.742575	0.666747
C49	C	0.284041	0.127477	0.000067
C50	C	0.617374	0.460810	0.333400
C51	C	0.950707	0.794144	0.666734
O52	O	0.308740	0.172007	0.000042
O53	O	0.642074	0.505341	0.333376
O54	O	0.975407	0.838674	0.666709
C55	C	0.224642	0.126765	0.000079
C56	C	0.557975	0.460098	0.333413
C57	C	0.891308	0.793432	0.666746
C58	C	0.202019	0.074485	0.000093
C59	C	0.535352	0.407819	0.333427
C60	C	0.868686	0.741152	0.666760
C61	C	0.216169	-0.029354	0.000127
C62	C	0.549502	0.303979	0.333461
C63	C	0.882835	0.637312	0.666794
C64	C	0.156772	-0.030066	0.000125
C65	C	0.490106	0.303268	0.333458
C66	C	0.823439	0.636601	0.666792
C67	C	0.119999	0.021499	0.000107
C68	C	0.453333	0.354832	0.333440
C69	C	0.786666	0.688165	0.666773
C70	C	0.142623	0.073774	0.000091
C71	C	0.475956	0.407107	0.333424
C72	C	0.809289	0.740441	0.666758
C73	C	0.187865	0.178333	0.000078
C74	C	0.521199	0.511666	0.333411
C75	C	0.854532	0.844999	0.666744
C76	C	0.128463	0.177616	0.000092
C77	C	0.461796	0.510949	0.333425
C78	C	0.795129	0.844283	0.666758
C79	C	0.105840	0.125336	0.000106
C80	C	0.439173	0.458670	0.333439
C81	C	0.772507	0.792003	0.666772
C82	C	0.046454	0.124627	0.000070
C83	C	0.379787	0.457960	0.333404
C84	C	0.713120	0.791294	0.666737
N85	N	0.023828	0.072351	0.000101
N86	N	0.357161	0.405684	0.333434
N87	N	0.690494	0.739017	0.666768
C88	C	0.060600	0.020787	0.000119
C89	C	0.393934	0.354120	0.333453
C90	C	0.727267	0.687453	0.666786
C91	C	0.408783	0.128968	0.000044
C92	C	0.742117	0.462302	0.333377
C93	C	1.075450	0.795635	0.666710
C94	C	0.468181	0.129681	0.000019
C95	C	0.801514	0.463014	0.333353
C96	C	1.134848	0.796348	0.666686
C97	C	0.482328	0.025836	0.000066
C98	C	0.815662	0.359170	0.333400
C99	C	1.148995	0.692503	0.666733
C100	C	0.422929	0.025124	0.000079
C101	C	0.756263	0.358457	0.333412
C102	C	1.089596	0.691791	0.666746
C103	C	0.386157	0.076692	0.000074
C104	C	0.719490	0.410025	0.333408
C105	C	1.052824	0.743359	0.666741
C106	C	-0.064136	0.019297	0.000113
C107	C	0.269197	0.352630	0.333446
C108	C	0.602530	0.685964	0.666780
C109	C	-0.123538	0.018590	0.000104
C110	C	0.209795	0.351924	0.333437
C111	C	0.543128	0.685257	0.666770
C112	C	-0.137680	0.122435	0.000065
C113	C	0.195653	0.455768	0.333399
C114	C	0.528986	0.789101	0.666732
C115	C	-0.078284	0.123142	0.000066
C116	C	0.255050	0.456475	0.333399
C117	C	0.588383	0.789808	0.666733
C118	C	-0.041512	0.071568	0.000095
C119	C	0.291821	0.404901	0.333429
C120	C	0.625154	0.738235	0.666762
O121	O	0.009675	0.168390	0.000004
O122	O	0.343008	0.501723	0.333337
O123	O	0.676341	0.835057	0.666671
O124	O	0.035892	-0.023737	0.000165
O125	O	0.369226	0.309597	0.333499
O126	O	0.702559	0.642930	0.666832
C127	C	0.677071	-0.030012	0.000108
C128	C	1.010404	0.303321	0.333442
C129	C	1.343738	0.636654	0.666775
C130	C	0.676305	-0.093229	0.000121
C131	C	1.009638	0.240104	0.333454
C132	C	1.342972	0.573437	0.666787
C133	C	0.723538	-0.492332	0.000039
C134	C	1.056872	-0.158999	0.333372
C135	C	1.390205	0.174334	0.666705
C136	C	0.722827	-0.551733	0.000026
C137	C	1.056160	-0.218399	0.333359
C138	C	1.389494	0.114934	0.666693
O139	O	0.766613	-0.588477	-0.000027
O140	O	1.099946	-0.255144	0.333306
O141	O	1.433280	0.078190	0.666640
N142	N	0.670551	-0.574359	0.000018
N143	N	1.003884	-0.241025	0.333352
N144	N	1.337217	0.092308	0.666685
C145	C	0.618982	-0.537581	0.000007
C146	C	0.952316	-0.204248	0.333340
C147	C	1.285649	0.129085	0.666673
O148	O	0.574452	-0.562281	-0.000003
O149	O	0.907785	-0.228948	0.333331
O150	O	1.241119	0.104386	0.666664
C151	C	0.619695	-0.478182	0.000007
C152	C	0.953028	-0.144849	0.333341
C153	C	1.286361	0.188485	0.666674
C154	C	0.671974	-0.455559	0.000032
C155	C	1.005308	-0.122226	0.333365
C156	C	1.338641	0.211107	0.666698
C157	C	0.775814	-0.469709	0.000061
C158	C	1.109147	-0.136376	0.333395
C159	C	1.442481	0.196958	0.666728
C160	C	0.776525	-0.410313	0.000077
C161	C	1.109858	-0.076980	0.333410
C162	C	1.443192	0.256354	0.666744
C163	C	0.724961	-0.373540	0.000070
C164	C	1.058294	-0.040207	0.333403
C165	C	1.391628	0.293127	0.666737
C166	C	0.672685	-0.396163	0.000047
C167	C	1.006019	-0.062830	0.333381
C168	C	1.339352	0.270503	0.666714
C169	C	0.568127	-0.441406	-0.000016
C170	C	0.901460	-0.108072	0.333317
C171	C	1.234794	0.225261	0.666650
C172	C	0.568843	-0.382003	-0.000017
C173	C	0.902177	-0.048670	0.333317
C174	C	1.235510	0.284663	0.666650
C175	C	0.621123	-0.359381	0.000008
C176	C	0.954457	-0.026047	0.333341
C177	C	1.287790	0.307286	0.666674
C178	C	0.621832	-0.299994	0.000056
C179	C	0.955166	0.033339	0.333389
C180	C	1.288499	0.366672	0.666723
N181	N	0.674109	-0.277368	0.000064
N182	N	1.007442	0.055965	0.333397
N183	N	1.340775	0.389299	0.666731
C184	C	0.725673	-0.314141	0.000071
C185	C	1.059006	0.019192	0.333404
C186	C	1.392340	0.352526	0.666737
C187	C	0.617491	-0.662324	0.000002
C188	C	0.950824	-0.328990	0.333335
C189	C	1.284158	0.004343	0.666669
C190	C	0.616778	-0.721722	0.000013
C191	C	0.950112	-0.388388	0.333346
C192	C	1.283445	-0.055055	0.666679
C193	C	0.720623	-0.735869	0.000029
C194	C	1.053957	-0.402536	0.333363
C195	C	1.387290	-0.069202	0.666696
C196	C	0.721335	-0.676470	0.000030
C197	C	1.054669	-0.343137	0.333363
C198	C	1.388002	-0.009803	0.666697
C199	C	0.669767	-0.639698	0.000010
C200	C	1.003101	-0.306364	0.333343
C201	C	1.336434	0.026969	0.666676
C202	C	0.727163	-0.189404	0.000105
C203	C	1.060496	0.143929	0.333438
C204	C	1.393829	0.477262	0.666772
C205	C	0.727869	-0.130002	0.000128
C206	C	1.061203	0.203331	0.333461
C207	C	1.394536	0.536664	0.666794
C208	C	0.624025	-0.115860	0.000102
C209	C	0.957358	0.217473	0.333436
C210	C	1.290691	0.550807	0.666769
C211	C	0.623318	-0.175257	0.000089
C212	C	0.956651	0.158076	0.333422
C213	C	1.289984	0.491410	0.666755
C214	C	0.674891	-0.212028	0.000084
C215	C	1.008225	0.121305	0.333418
C216	C	1.341558	0.454639	0.666751
O217	O	0.578069	-0.263215	0.000103
O218	O	0.911403	0.070118	0.333436
O219	O	1.244736	0.403452	0.666769
O220	O	0.770196	-0.289433	0.000058
O221	O	1.103529	0.043900	0.333392
O222	O	1.436863	0.377234	0.666725
C223	C	0.776472	0.069389	0.000087
C224	C	1.109805	0.402722	0.333420
C225	C	1.443138	0.736055	0.666753
C226	C	0.839689	0.070155	0.000085
C227	C	1.173022	0.403488	0.333419
C228	C	1.506355	0.736821	0.666752
C229	C	0.667577	0.178283	0.000034
C230	C	1.000910	0.511617	0.333368
C231	C	1.334244	0.844950	0.666701
C232	C	0.668343	0.241500	0.000011
C233	C	1.001676	0.574834	0.333344
C234	C	1.335010	0.908167	0.666678
N235	N	0.672321	0.074134	0.425750
N236	N	1.005654	0.407467	0.759083
N237	N	1.338987	0.740800	1.092417
N238	N	0.672332	0.074133	-0.425604
N239	N	1.005665	0.407466	-0.092270
N240	N	1.338999	0.740799	0.241063
H241	H	0.512280	-0.016150	0.000081
H242	H	0.845613	0.317183	0.333415
H243	H	1.178947	0.650516	0.666748
H244	H	0.763906	-0.658055	0.000049
H245	H	1.097239	-0.324722	0.333382
H246	H	1.430573	0.008612	0.666715
C247	C	0.131896	-0.087578	0.000180
C248	C	0.465229	0.245755	0.333514
C249	C	0.798562	0.579089	0.666847
N250	N	0.113163	-0.130899	0.000237
N251	N	0.446496	0.202434	0.333571
N252	N	0.779830	0.535768	0.666904
H253	H	0.817806	-0.499644	0.000061
H254	H	1.151140	-0.166311	0.333394
H255	H	1.484473	0.167022	0.666727
H256	H	0.769159	-0.219337	0.000095
H257	H	1.102492	0.113996	0.333429
H258	H	1.435825	0.447330	0.666762
H259	H	0.246104	-0.071347	0.000147
H260	H	0.579437	0.261987	0.333481
H261	H	0.912771	0.595320	0.666814
H262	H	-0.059864	0.165712	0.000053
H263	H	0.273470	0.499045	0.333386
H264	H	0.606803	0.832379	0.666719
C265	C	0.834037	-0.385436	0.000086
C266	C	1.167371	-0.052103	0.333420
C267	C	1.500704	0.281230	0.666753
N268	N	0.877359	-0.366703	0.000087
N269	N	1.210692	-0.033370	0.333420
N270	N	1.544025	0.299963	0.666753
H271	H	0.762610	-0.765821	0.000029
H272	H	1.095943	-0.432487	0.333362
H273	H	1.429276	-0.099154	0.666695
H274	H	0.574207	-0.740135	0.000021
H275	H	0.907540	-0.406802	0.333355
H276	H	1.240874	-0.073469	0.666688
C277	C	-0.148419	-0.038924	0.000134
C278	C	0.184914	0.294410	0.333467
C279	C	0.518248	0.627743	0.666801
N280	N	-0.167157	-0.082242	0.000165
N281	N	0.166176	0.251091	0.333498
N282	N	0.499510	0.584424	0.666831
C283	C	0.560758	-0.621878	0.000001
C284	C	0.894092	-0.288545	0.333334
C285	C	1.227425	0.044788	0.666667
N286	N	0.518027	-0.591418	-0.000001
N287	N	0.851361	-0.258085	0.333332
N288	N	1.184694	0.075249	0.666665
C289	C	0.398050	-0.032387	0.000113
C290	C	0.731384	0.300946	0.333447
C291	C	1.064717	0.634280	0.666780
N292	N	0.379315	-0.075707	0.000147
N293	N	0.712648	0.257627	0.333480
N294	N	1.045982	0.590960	0.666813
H295	H	0.525555	-0.459814	-0.000046
H296	H	0.858889	-0.126481	0.333287
H297	H	1.192222	0.206853	0.666621
H298	H	0.486595	0.172252	-0.000015
H299	H	0.819928	0.505586	0.333318
H300	H	1.153261	0.838919	0.666652
C301	C	0.368338	0.185701	0.000021
C302	C	0.701671	0.519034	0.333354
C303	C	1.035005	0.852368	0.666687
N304	N	0.337877	0.228432	0.000006
N305	N	0.671211	0.561765	0.333339
N306	N	1.004544	0.895099	0.666672
H307	H	0.526850	-0.352065	-0.000036
H308	H	0.860183	-0.018732	0.333298
H309	H	1.193516	0.314601	0.666631
H310	H	0.206274	0.220904	0.000059
H311	H	0.539607	0.554238	0.333392
H312	H	0.872940	0.887571	0.666726
H313	H	0.582043	-0.085909	0.000103
H314	H	0.915376	0.247424	0.333436
H315	H	1.248709	0.580758	0.666769
H316	H	0.098525	0.219610	0.000095
H317	H	0.431858	0.552943	0.333429
H318	H	0.765191	0.886277	0.666762
C319	C	0.565808	-0.200142	0.000072
C320	C	0.899141	0.133191	0.333406
C321	C	1.232475	0.466524	0.666739
N322	N	0.522490	-0.218882	0.000043
N323	N	0.855824	0.114451	0.333376
N324	N	1.189157	0.447785	0.666709
H325	H	-0.034204	-0.022699	0.000136
H326	H	0.299130	0.310634	0.333469
H327	H	0.632463	0.643967	0.666803
H328	H	-0.167631	0.164417	0.000042
H329	H	0.165702	0.497750	0.333376
H330	H	0.499035	0.831084	0.666709
H331	H	0.770443	-0.111587	0.000152
H332	H	1.103777	0.221747	0.333485
H333	H	1.437110	0.555080	0.666818
