data_functionalizedCrystal
_audit_creation_method	'MofGen! by Chris Wilmer'
_symmetry_space_group_name_H-M	'P1'
_symmetry_Int_Tables_number	1
_symmetry_cell_setting	triclinic
loop_
_symmetry_equiv_pos_as_xyz
  x,y,z
_cell_length_a	16.109301
_cell_length_b	16.109301
_cell_length_c	14.586319
_cell_angle_alpha	89.992619
_cell_angle_beta	90.001820
_cell_angle_gamma	83.461532
loop_
_atom_site_label
_atom_site_type_symbol
_atom_site_fract_x
_atom_site_fract_y
_atom_site_fract_z
O1	O	-1.103127	-0.106870	0.076193
O2	O	-0.861065	-0.120169	0.076206
O3	O	-0.988745	0.007511	0.076190
O4	O	-0.975446	-0.234551	0.076209
O5	O	-0.988744	0.007519	-0.076291
O6	O	-0.861064	-0.120161	-0.076275
O7	O	-1.103126	-0.106862	-0.076288
Cu8	Cu	-0.982095	-0.113511	-0.090204
Cu9	Cu	-0.982096	-0.113520	0.090122
O10	O	-0.975445	-0.234543	-0.076272
C11	C	-0.830089	-0.119627	-0.000033
C12	C	-0.737794	-0.118011	-0.000028
C13	C	-0.988206	0.038490	-0.000051
C14	C	-0.986591	0.130785	-0.000052
C15	C	-1.134101	-0.107405	-0.000047
C16	C	-1.226396	-0.109020	-0.000046
C17	C	-0.428796	-0.188494	-0.000038
C18	C	-0.515516	-0.190020	-0.000033
C19	C	-0.535389	-0.038531	-0.000033
C20	C	-0.448671	-0.037007	-0.000032
C21	C	-0.395376	-0.111991	-0.000039
C22	C	-0.568815	-0.115041	-0.000035
C23	C	-0.662841	-0.116694	-0.000029
C24	C	-0.301344	-0.110338	-0.000043
N25	N	-0.982097	-0.113521	0.216954
C26	C	-0.975984	-0.265522	-0.000029
C27	C	-0.977599	-0.357817	-0.000021
C28	C	-1.058599	0.353058	-0.000042
C29	C	-1.057075	0.439778	-0.000034
C30	C	-0.905586	0.419904	-0.000029
C31	C	-0.907111	0.333185	-0.000030
C32	C	-0.983620	0.299765	-0.000041
C33	C	-0.980571	0.473204	-0.000033
C34	C	-0.978918	0.567230	-0.000024
C35	C	-0.985273	0.205733	-0.000048
N36	N	-0.982100	-0.113504	-0.217036
C37	C	-1.038743	-0.057094	0.451953
C38	C	-1.038746	-0.057092	0.547934
C39	C	-0.925451	-0.169937	0.547958
C40	C	-0.925453	-0.169942	0.451979
C41	C	-0.982098	-0.113516	0.403979
C42	C	-0.982099	-0.113509	0.595940
C43	C	-0.982101	-0.113507	0.700007
C44	C	-0.982098	-0.113519	0.299905
H45	H	-0.385405	-0.249551	-0.000044
C46	C	-0.824628	0.274556	-0.000031
C47	C	-0.804845	0.212198	0.079151
C48	C	-0.722366	0.153570	0.079155
C49	C	-0.659670	0.157299	-0.000023
C50	C	-0.679452	0.219660	-0.079211
C51	C	-0.761930	0.278288	-0.079215
H52	H	-0.851258	0.209435	0.137768
H53	H	-0.707723	0.107407	0.137775
H54	H	-0.598615	0.113899	-0.000021
H55	H	-0.633039	0.222422	-0.137829
H56	H	-0.776573	0.324451	-0.137835
C57	C	-1.139553	0.498402	-0.000039
C58	C	-1.159340	0.560738	0.079142
C59	C	-1.241822	0.619362	0.079138
C60	C	-1.304516	0.615650	-0.000047
C61	C	-1.284730	0.553311	-0.079235
C62	C	-1.202249	0.494687	-0.079231
H63	H	-1.112928	0.563488	0.137766
H64	H	-1.256468	0.665509	0.137759
H65	H	-1.365574	0.659047	-0.000050
H66	H	-1.331142	0.550561	-0.137858
H67	H	-1.187602	0.448540	-0.137851
C68	C	-1.101058	0.004967	0.399153
C69	C	-1.163396	0.066999	0.451929
C70	C	-1.225715	0.129060	0.399132
C71	C	-1.225695	0.129089	0.293558
C72	C	-1.163353	0.067055	0.240776
C73	C	-1.101035	0.004994	0.293573
H74	H	-1.163414	0.066980	0.530086
H75	H	-1.271864	0.174982	0.438205
H76	H	-1.271826	0.175030	0.254475
H77	H	-1.163336	0.067074	0.162619
H78	H	-1.054886	-0.040928	0.254499
H79	H	-1.120897	0.325850	-0.000049
H80	H	-0.843295	0.447126	-0.000022
H81	H	-1.084872	-0.011149	0.586993
H82	H	-0.879331	-0.215877	0.587050
H83	H	-0.421461	0.025296	-0.000029
C84	C	-0.552276	-0.274176	-0.000037
C85	C	-0.532159	-0.336440	-0.079221
C86	C	-0.568917	-0.420601	-0.079224
C87	C	-0.625792	-0.442498	-0.000043
C88	C	-0.645913	-0.380233	0.079147
C89	C	-0.609154	-0.296072	0.079150
H90	H	-0.490054	-0.320231	-0.137840
H91	H	-0.554023	-0.466693	-0.137845
H92	H	-0.653003	-0.504799	-0.000045
H93	H	-0.688018	-0.396442	0.137766
H94	H	-0.624049	-0.249980	0.137772
C95	C	-0.594017	0.043947	-0.000034
C96	C	-0.656366	0.063739	-0.079217
C97	C	-0.714992	0.146219	-0.079221
C98	C	-0.711269	0.208908	-0.000041
C99	C	-0.648917	0.189117	0.079148
C100	C	-0.590291	0.106637	0.079152
H101	H	-0.659125	0.017332	-0.137835
H102	H	-0.761149	0.160869	-0.137842
H103	H	-0.754668	0.269965	-0.000044
H104	H	-0.646159	0.235525	0.137766
H105	H	-0.544134	0.091988	0.137773
H106	H	-0.879326	-0.215892	0.412915
