data_functionalizedCrystal
_audit_creation_method	'MofGen! by Chris Wilmer'
_symmetry_space_group_name_H-M	'P1'
_symmetry_Int_Tables_number	1
_symmetry_cell_setting	triclinic
loop_
_symmetry_equiv_pos_as_xyz
  x,y,z
_cell_length_a	15.944551
_cell_length_b	15.944493
_cell_length_c	12.996460
_cell_angle_alpha	89.994981
_cell_angle_beta	89.992903
_cell_angle_gamma	83.486891
loop_
_atom_site_label
_atom_site_type_symbol
_atom_site_fract_x
_atom_site_fract_y
_atom_site_fract_z
O1	O	0.108102	1.114556	-0.085555
O2	O	0.121509	0.869999	-0.085561
O3	O	-0.007471	0.998956	-0.085549
O4	O	0.237081	0.985599	-0.085567
O5	O	-0.007478	0.998942	0.085585
O6	O	0.121502	0.869986	0.085573
O7	O	0.108095	1.114542	0.085578
Cu8	Cu	0.114797	0.992263	0.101202
Cu9	Cu	0.114806	0.992279	-0.101184
O10	O	0.237074	0.985586	0.085566
C11	C	0.120957	0.838698	0.000006
C12	C	0.119314	0.745449	0.000004
C13	C	0.195235	0.509689	-0.000003
C14	C	0.154290	0.459124	0.084383
C15	C	0.116270	0.574728	0.000006
C16	C	0.154279	0.459142	-0.084342
C17	C	0.113336	0.409819	0.000004
C18	C	0.075347	0.525391	0.084461
C19	C	0.075347	0.525413	-0.084339
C20	C	0.034345	0.474880	0.000067
C21	C	0.117963	0.669728	0.000008
C22	C	0.111637	0.314821	0.000009
C23	C	-0.038768	0.998395	0.000018
C24	C	-0.132014	0.996732	0.000019
C25	C	-0.346853	0.912826	0.000003
C26	C	-0.407882	0.951782	0.084383
C27	C	-0.302739	0.993725	0.000011
C28	C	-0.407859	0.951815	-0.084341
C29	C	-0.467651	0.990814	-0.000001
C30	C	-0.362540	1.032704	0.084461
C31	C	-0.362510	1.032725	-0.084340
C32	C	-0.423521	1.071741	0.000061
C33	C	-0.207737	0.995399	0.000019
C34	C	-0.562652	0.989146	-0.000002
C35	C	0.268372	0.986147	-0.000003
C36	C	0.361617	0.987809	-0.000010
C37	C	0.108646	1.145844	0.000010
C38	C	0.110289	1.239092	0.000005
N39	N	0.114791	0.992258	0.243549
N40	N	0.114806	0.992290	-0.243531
C41	C	0.114807	0.992278	0.663363
C42	C	0.114805	0.992270	0.546558
C43	C	0.114800	0.992268	0.453460
C44	C	0.114797	0.992259	0.336647
H45	H	0.187646	0.430209	-0.155673
H46	H	-0.033726	0.459415	0.000121
O47	O	-0.335877	1.078068	-0.178813
H48	H	-0.266441	1.079440	-0.177554
H49	H	-0.342560	1.066887	0.155876
H50	H	-0.427925	0.917593	-0.155683
O51	O	0.031211	0.563564	0.179066
H52	H	0.063790	0.536333	0.248942
H53	H	0.042027	0.554364	-0.155678
H54	H	-0.456694	1.138950	0.000110
O55	O	-0.302702	0.823884	0.000105
H56	H	-0.320747	0.790497	0.070256
H57	H	0.263254	0.525313	0.000071
H58	H	0.187635	0.430181	0.155718
H59	H	-0.427986	0.917560	0.155718
