data_functionalizedCrystal
_audit_creation_method	'MofGen! by Chris Wilmer'
_symmetry_space_group_name_H-M	'P1'
_symmetry_Int_Tables_number	1
_symmetry_cell_setting	triclinic
loop_
_symmetry_equiv_pos_as_xyz
  x,y,z
_cell_length_a	10.723024
_cell_length_b	26.210047
_cell_length_c	10.723023
_cell_angle_alpha	89.994436
_cell_angle_beta	95.532291
_cell_angle_gamma	89.990561
loop_
_atom_site_label
_atom_site_type_symbol
_atom_site_fract_x
_atom_site_fract_y
_atom_site_fract_z
O1	O	-1.657198	0.042432	0.175010
O2	O	-1.157198	0.542432	0.675010
O3	O	-1.294046	0.042432	0.191763
O4	O	-0.794046	0.542432	0.691763
O5	O	-1.483999	0.042430	0.001810
O6	O	-0.983999	0.542430	0.501810
O7	O	-1.467245	0.042434	0.364962
O8	O	-0.967245	0.542434	0.864962
O9	O	-1.483962	-0.042428	0.001839
O10	O	-0.983962	0.457572	0.501839
O11	O	-1.294009	-0.042426	0.191792
O12	O	-0.794009	0.457574	0.691792
O13	O	-1.657161	-0.042426	0.175039
O14	O	-1.157161	0.457574	0.675039
Cu15	Cu	-1.475582	-0.050174	0.183418
Cu16	Cu	-0.975582	0.449826	0.683418
Cu17	Cu	-1.475625	0.050180	0.183383
Cu18	Cu	-0.975625	0.550180	0.683383
O19	O	-1.467208	-0.042424	0.364992
O20	O	-0.967208	0.457576	0.864992
C21	C	-1.247528	0.000003	0.190558
C22	C	-0.747528	0.500003	0.690558
C23	C	-1.108973	0.000003	0.186911
C24	C	-0.608973	0.500003	0.686911
N25	N	-1.475560	-0.120758	0.183442
N26	N	-0.975560	0.379242	0.683442
C27	C	-1.033991	0.000004	0.293198
C28	C	-0.533991	0.500004	0.793198
C29	C	-0.890787	0.000004	0.289431
C30	C	-0.390787	0.500004	0.789431
C31	C	-1.559728	-0.473273	0.099291
C32	C	-1.059728	0.026727	0.599291
C33	C	-1.559755	-0.686932	0.099274
C34	C	-1.059755	-0.186932	0.599274
O35	O	-1.631270	-0.714555	0.027731
O36	O	-1.131270	-0.214555	0.527731
N37	N	-1.475632	-0.713652	0.183356
N38	N	-0.975632	-0.213652	0.683356
C39	C	-1.391489	-0.686955	0.267443
C40	C	-0.891489	-0.186955	0.767443
O41	O	-1.319929	-0.714584	0.338950
O42	O	-0.819929	-0.214584	0.838950
C43	C	-1.391457	-0.473297	0.267453
C44	C	-0.891457	0.026703	0.767453
C45	C	-1.475595	-0.446579	0.183374
C46	C	-0.975595	0.053421	0.683374
C47	C	-1.643858	-0.446556	0.015219
C48	C	-1.143858	0.053444	0.515219
C49	C	-1.643855	-0.393144	0.015228
C50	C	-1.143855	0.106856	0.515228
C51	C	-1.559722	-0.366450	0.099311
C52	C	-1.059722	0.133550	0.599311
C53	C	-1.475592	-0.393168	0.183384
C54	C	-0.975592	0.106832	0.683384
C55	C	-1.307310	-0.446600	0.351532
C56	C	-0.807310	0.053400	0.851532
C57	C	-1.307307	-0.393183	0.351525
C58	C	-0.807307	0.106817	0.851525
C59	C	-1.391445	-0.366465	0.267446
C60	C	-0.891445	0.133535	0.767446
C61	C	-1.391456	-0.313063	0.267476
C62	C	-0.891456	0.186937	0.767476
N63	N	-1.475579	-0.286342	0.183394
N64	N	-0.975579	0.213658	0.683394
C65	C	-1.559713	-0.313036	0.099312
C66	C	-1.059713	0.186964	0.599312
C67	C	-1.391514	-0.799128	0.267433
C68	C	-0.891514	-0.299128	0.767433
C69	C	-1.391523	-0.852542	0.267432
C70	C	-0.891523	-0.352542	0.767432
C71	C	-1.559788	-0.852516	0.099262
C72	C	-1.059788	-0.352516	0.599262
C73	C	-1.559784	-0.799101	0.099270
C74	C	-1.059784	-0.299101	0.599270
C75	C	-1.475638	-0.772408	0.183351
C76	C	-0.975638	-0.272408	0.683351
C77	C	-1.559701	-0.200868	0.099339
C78	C	-1.059701	0.299132	0.599339
C79	C	-1.559693	-0.147452	0.099360
C80	C	-1.059693	0.352548	0.599360
C81	C	-1.391425	-0.147483	0.267525
C82	C	-0.891425	0.352517	0.767525
C83	C	-1.391436	-0.200895	0.267509
C84	C	-0.891436	0.299105	0.767509
C85	C	-1.475578	-0.227586	0.183406
C86	C	-0.975578	0.272414	0.683406
O87	O	-1.319969	-0.285407	0.338972
O88	O	-0.819969	0.214593	0.838972
O89	O	-1.631244	-0.285397	0.027796
O90	O	-1.131244	0.214603	0.527796
C91	C	-1.559731	-0.526685	0.099282
C92	C	-1.059731	-0.026685	0.599282
C93	C	-1.475601	-0.553402	0.183355
C94	C	-0.975601	-0.053402	0.683355
C95	C	-1.391468	-0.526709	0.267437
C96	C	-0.891468	-0.026709	0.767437
C97	C	-1.475610	-0.606816	0.183354
C98	C	-0.975610	-0.106816	0.683354
C99	C	-1.559744	-0.633510	0.099271
C100	C	-1.059744	-0.133510	0.599271
C101	C	-1.643867	-0.606790	0.015189
C102	C	-1.143867	-0.106790	0.515189
C103	C	-1.643864	-0.553379	0.015199
C104	C	-1.143864	-0.053379	0.515199
C105	C	-1.307344	-0.553429	0.351519
C106	C	-0.807344	-0.053429	0.851519
C107	C	-1.307355	-0.606840	0.351503
C108	C	-0.807355	-0.106840	0.851503
C109	C	-1.391488	-0.633534	0.267421
C110	C	-0.891488	-0.133534	0.767421
C111	C	-0.703679	0.000003	0.176243
C112	C	-0.203679	0.500003	0.676243
C113	C	-0.842234	0.000003	0.179891
C114	C	-0.342234	0.500003	0.679891
C115	C	-1.482762	0.000001	-0.044675
C116	C	-0.982762	0.500001	0.455325
C117	C	-1.479114	0.000003	-0.183229
C118	C	-0.979114	0.500003	0.316771
N119	N	-1.475657	0.120764	0.183350
N120	N	-0.975657	0.620764	0.683350
C121	C	-1.477507	0.043963	-0.245010
C122	C	-0.977507	0.543963	0.254990
C123	C	-1.473738	0.043965	-0.388213
C124	C	-0.973738	0.543965	0.111787
C125	C	-1.468445	0.000006	0.411477
C126	C	-0.968445	0.500006	0.911477
C127	C	-1.472093	0.000007	0.550031
C128	C	-0.972093	0.500007	1.050031
H129	H	-1.075812	0.000002	0.386984
H130	H	-0.575812	0.500002	0.886984
H131	H	-1.477691	-0.037630	-0.236353
H132	H	-0.977691	0.462370	0.263647
H133	H	-1.712364	-0.371394	-0.053239
H134	H	-1.212364	0.128606	0.446761
H135	H	-1.322990	-0.777398	0.335905
H136	H	-0.822990	-0.277398	0.835905
H137	H	-1.628213	-0.125700	0.030893
H138	H	-1.128213	0.374300	0.530893
H139	H	-1.473481	-0.037630	-0.396848
H140	H	-0.973481	0.462370	0.103152
H141	H	-1.628215	-0.222594	0.030853
H142	H	-1.128215	0.277406	0.530853
H143	H	-0.826354	0.000007	0.380421
H144	H	-0.326354	0.500007	0.880421
H145	H	-1.323024	-0.874292	0.335910
H146	H	-0.823024	-0.374292	0.835910
H147	H	-0.906659	0.000005	0.088896
H148	H	-0.406659	0.500005	0.588896
H149	H	-1.712369	-0.468285	-0.053257
H150	H	-1.212369	0.031715	0.446743
H151	H	-1.067152	0.000015	0.093125
H152	H	-0.567152	0.500015	0.593125
H153	H	-1.478917	0.081596	-0.191885
H154	H	-0.978917	0.581596	0.308115
H155	H	-1.628295	-0.874259	0.030800
H156	H	-1.128295	-0.374259	0.530800
H157	H	-1.628295	-0.777350	0.030805
H158	H	-1.128295	-0.277350	0.530805
H159	H	-1.322928	-0.125741	0.335988
H160	H	-0.822928	0.374259	0.835988
H161	H	-1.238797	-0.468346	0.419996
H162	H	-0.738797	0.031654	0.919996
H163	H	-1.238781	-0.371452	0.419993
H164	H	-0.738781	0.128548	0.919993
H165	H	-1.322935	-0.222649	0.335986
H166	H	-0.822935	0.277351	0.835986
H167	H	-1.712377	-0.531629	-0.053266
H168	H	-1.212377	-0.031629	0.446734
H169	H	-1.472362	0.081601	-0.441344
H170	H	-0.972362	0.581601	0.058656
H171	H	-1.712377	-0.628533	-0.053270
H172	H	-1.212377	-0.128533	0.446730
H173	H	-1.238842	-0.628590	0.419981
H174	H	-0.738842	-0.128590	0.919981
H175	H	-1.238831	-0.531699	0.419988
H176	H	-0.738831	-0.031699	0.919988
