data_functionalizedCrystal
_audit_creation_method	'MofGen! by Chris Wilmer'
_symmetry_space_group_name_H-M	'P1'
_symmetry_Int_Tables_number	1
_symmetry_cell_setting	triclinic
loop_
_symmetry_equiv_pos_as_xyz
  x,y,z
_cell_length_a	10.654541
_cell_length_b	11.295483
_cell_length_c	12.837942
_cell_angle_alpha	85.468153
_cell_angle_beta	90.343566
_cell_angle_gamma	85.849403
loop_
_atom_site_label
_atom_site_type_symbol
_atom_site_fract_x
_atom_site_fract_y
_atom_site_fract_z
O1	O	1.676093	0.098988	-0.152624
O2	O	1.312129	0.098999	-0.166511
O3	O	1.486041	0.098986	-0.008607
O4	O	1.502181	0.099001	-0.310529
O5	O	1.501332	-0.099065	0.005231
O6	O	1.327420	-0.099053	-0.152674
O7	O	1.691384	-0.099063	-0.138787
Cu8	Cu	1.510798	-0.117142	-0.144467
Cu9	Cu	1.492715	0.117077	-0.160831
O10	O	1.517472	-0.099051	-0.296692
C11	C	1.272865	-0.000026	-0.158574
C12	C	1.133088	-0.000022	-0.155525
N13	N	1.523526	-0.281879	-0.132957
N14	N	1.479996	0.281814	-0.172333
C15	C	1.125720	0.000002	-0.344344
C16	C	1.056370	0.000018	-0.437316
C17	C	0.925039	0.000019	-0.434445
C18	C	0.863055	0.000000	-0.338591
C19	C	0.932405	-0.000017	-0.245618
C20	C	1.063739	-0.000014	-0.248500
C21	C	0.939774	-0.000049	-0.056801
C22	C	1.071105	-0.000041	-0.059671
C23	C	0.877790	-0.000068	0.039053
C24	C	0.947140	-0.000076	0.132028
C25	C	1.078479	-0.000076	0.129153
C26	C	1.140455	-0.000058	0.033302
C27	C	1.730648	-0.000036	-0.146725
C28	C	1.870424	-0.000032	-0.149774
C29	C	1.488234	-0.000039	0.036972
C30	C	1.471971	-0.000036	0.152165
C31	C	1.615154	0.531095	-0.050157
C32	C	1.605533	0.655759	-0.058842
C33	C	1.451139	0.655810	-0.198393
C34	C	1.460760	0.531145	-0.189708
C35	C	1.542769	0.468792	-0.115587
C36	C	1.552383	0.344126	-0.106897
C37	C	1.397997	0.344179	-0.246453
C38	C	1.388376	0.468843	-0.255138
C39	C	1.515279	-0.000023	-0.342270
C40	C	1.531541	-0.000018	-0.457465
C41	C	1.667474	-0.000017	0.391718
C42	C	1.652200	-0.000014	0.499954
C43	C	1.426149	-0.000020	0.476873
C44	C	1.441423	-0.000023	0.368638
C45	C	1.562090	-0.000023	0.326065
C46	C	1.577364	-0.000034	0.217828
C47	C	1.351313	-0.000031	0.194749
C48	C	1.336038	-0.000029	0.302984
H49	H	1.232655	0.000027	-0.346693
Br50	Br	1.339866	0.740443	-0.298996
H51	H	1.675617	-0.000038	0.183167
Br52	Br	1.172283	-0.000014	0.360771
Br53	Br	1.831233	-0.000054	0.333937
H54	H	0.756119	-0.000013	-0.336261
Br55	Br	1.277089	0.553472	-0.355732
H56	H	1.664477	0.706482	-0.005564
H57	H	1.738015	-0.000006	0.553406
H58	H	1.327906	-0.000008	0.511555
H59	H	1.339052	0.293438	-0.299727
H60	H	1.265502	-0.000046	0.141282
H61	H	1.106852	0.000031	-0.515359
Br62	Br	1.318690	-0.000046	0.029392
H63	H	0.868575	0.000024	-0.510152
H64	H	0.896662	-0.000091	0.210065
Br65	Br	0.699554	-0.000077	0.042953
H66	H	1.619155	0.293359	-0.046541
H67	H	1.681919	0.480326	0.010203
Br68	Br	1.172587	-0.000113	0.255339
