data_functionalizedCrystal
_audit_creation_method	'MofGen! by Chris Wilmer'
_symmetry_space_group_name_H-M	'P1'
_symmetry_Int_Tables_number	1
_symmetry_cell_setting	triclinic
loop_
_symmetry_equiv_pos_as_xyz
  x,y,z
_cell_length_a	13.897441
_cell_length_b	18.215407
_cell_length_c	18.215405
_cell_angle_alpha	89.974667
_cell_angle_beta	89.965178
_cell_angle_gamma	90.022034
loop_
_atom_site_label
_atom_site_type_symbol
_atom_site_fract_x
_atom_site_fract_y
_atom_site_fract_z
Zn1	Zn	-0.545386	-1.125088	-0.292952
Zn2	Zn	-0.384076	-1.124992	-0.416032
Zn3	Zn	-0.384101	-1.002016	-0.292985
Zn4	Zn	-0.545325	-1.001986	-0.415982
O5	O	-0.464722	-1.063520	-0.354488
O6	O	-0.524003	-1.228059	-0.309286
O7	O	-0.249097	-1.108651	-0.399745
O8	O	-0.405532	-1.018394	-0.189997
O9	O	-0.405489	-1.227989	-0.399713
O10	O	-0.524028	-1.108815	-0.189972
O11	O	-0.249116	-1.018301	-0.309343
O12	O	-0.405472	-0.899028	-0.309294
O13	O	-0.680315	-1.018344	-0.399627
O14	O	-0.523923	-0.899006	-0.399659
O15	O	-0.680360	-1.108786	-0.309237
O16	O	-0.405430	-1.108622	-0.519010
O17	O	-0.523898	-1.018251	-0.518973
C18	C	-0.464694	-0.872314	-0.354475
C19	C	-0.464705	-0.790515	-0.354488
C20	C	-0.716315	-1.063573	-0.354423
C21	C	-0.823529	-1.063595	-0.354395
C22	C	-0.464676	-1.063443	-0.545694
C23	C	-0.464688	-1.063477	-0.627493
C24	C	-1.019824	-1.063615	-0.354345
C25	C	-0.910592	-1.063602	-0.354375
C26	C	-0.214108	-1.063511	-0.354500
C27	C	-0.106894	-1.063631	-0.354320
C28	C	-0.464750	-1.255473	-0.354501
C29	C	-0.464762	-1.337272	-0.354507
C30	C	-0.526305	-0.602329	-0.401615
C31	C	-0.526317	-0.525471	-0.401617
C32	C	-0.403160	-0.525464	-0.307374
C33	C	-0.403154	-0.602321	-0.307369
C34	C	-0.464725	-0.640752	-0.354493
C35	C	-0.464743	-0.487036	-0.354501
C36	C	-0.464756	-0.403702	-0.354503
C37	C	-0.464714	-0.724091	-0.354490
C38	C	-0.403115	-1.110644	-0.815682
C39	C	-0.403138	-1.110677	-0.892541
C40	C	-0.526399	-1.016491	-0.892542
C41	C	-0.526379	-1.016463	-0.815685
C42	C	-0.464732	-1.063538	-0.777257
C43	C	-0.464775	-1.063599	-0.930973
C44	C	-0.464800	-1.063635	-1.014306
C45	C	-0.464707	-1.063504	-0.693918
C46	C	-0.464790	-1.063619	-0.162535
C47	C	-0.464819	-1.063660	-0.080736
H48	H	-0.576463	-0.494190	-0.439987
O49	O	-0.592846	-0.965652	-0.774238
H50	H	-0.582483	-0.973549	-0.714339
O51	O	-0.336730	-0.643765	-0.256539
H52	H	-0.347080	-0.703665	-0.264447
O53	O	-0.592721	-0.643784	-0.452430
H54	H	-0.635552	-0.604150	-0.485191
H55	H	-0.353030	-0.494164	-0.269008
H56	H	-0.352919	-1.148976	-0.784395
H57	H	-0.352965	-1.149036	-0.923823
O58	O	-0.592870	-0.965704	-0.933988
H59	H	-0.582522	-0.973628	-0.993888
