data_functionalizedCrystal
_audit_creation_method	'MofGen! by Chris Wilmer'
_symmetry_space_group_name_H-M	'P1'
_symmetry_Int_Tables_number	1
_symmetry_cell_setting	triclinic
loop_
_symmetry_equiv_pos_as_xyz
  x,y,z
_cell_length_a	6.817900
_cell_length_b	13.466098
_cell_length_c	12.908943
_cell_angle_alpha	94.179635
_cell_angle_beta	100.860631
_cell_angle_gamma	111.116846
loop_
_atom_site_label
_atom_site_type_symbol
_atom_site_fract_x
_atom_site_fract_y
_atom_site_fract_z
V1	V	-4.035857	-0.146102	-0.329630
O2	O	-3.982033	0.008389	-0.322371
O3	O	-4.026901	-0.291012	-0.328323
O4	O	-3.973361	-0.143254	-0.472961
O5	O	-4.035944	-0.140391	-0.176731
V6	V	-4.516200	-0.127694	-0.311227
O7	O	-4.304090	-0.186481	-0.369999
O8	O	-4.698164	-0.087314	-0.270859
O9	O	-4.301949	0.017216	-0.312535
O10	O	-4.687421	-0.282185	-0.318487
O11	O	-4.633510	-0.133404	-0.464126
O12	O	-4.355489	-0.130542	-0.167896
C13	C	-3.881954	-0.326356	-0.323367
C14	C	-3.955825	-0.444818	-0.323254
C15	C	-4.243018	-0.617191	-0.328396
C16	C	-4.173621	-0.505886	-0.328497
C17	C	-3.807415	-0.495063	-0.317905
C18	C	-3.876812	-0.606369	-0.317803
C19	C	-4.094619	-0.667430	-0.323051
C20	C	-4.164018	-0.778739	-0.322957
C21	C	-3.797809	-0.767914	-0.312356
C22	C	-3.728412	-0.656608	-0.312458
C23	C	-3.813657	-0.137875	-0.507866
C24	C	-3.844104	-0.136506	-0.625047
C25	C	-4.267447	-0.144506	-0.856045
C26	C	-4.296064	-0.143220	-0.966147
C27	C	-3.929954	-0.132639	-0.955352
C28	C	-3.901337	-0.133925	-0.845250
C29	C	-4.070092	-0.139861	-0.795601
C30	C	-4.041477	-0.141155	-0.685499
C31	C	-3.675364	-0.130566	-0.674705
C32	C	-3.703982	-0.129280	-0.784807
C33	C	-4.110240	0.052555	-0.317487
C34	C	-4.015607	0.171016	-0.317608
C35	C	-4.178537	-0.135924	-0.132985
C36	C	-4.127327	-0.137288	-0.015804
H37	H	-4.294467	-0.464985	-0.332846
H38	H	-3.514663	-0.126787	-0.625480
H39	H	-3.676976	-0.808830	-0.308009
C40	C	-3.567822	-0.427873	-0.312097
N41	N	-3.387355	-0.377262	-0.307712
H42	H	-4.404862	-0.149351	-0.815622
H43	H	-4.341366	-0.828454	-0.327233
C44	C	-3.744190	-0.125873	-1.009947
N45	N	-3.604216	-0.120694	-1.051056
C46	C	-3.488826	-0.589427	-0.306675
N47	N	-3.308365	-0.538828	-0.302320
H48	H	-4.420368	-0.666910	-0.332679
H49	H	-4.178891	-0.145992	-0.645077
H50	H	-4.456767	-0.147003	-1.015356
H51	H	-3.566591	-0.124443	-0.825245
