data_functionalizedCrystal
_audit_creation_method	'MofGen! by Chris Wilmer'
_symmetry_space_group_name_H-M	'P1'
_symmetry_Int_Tables_number	1
_symmetry_cell_setting	triclinic
loop_
_symmetry_equiv_pos_as_xyz
  x,y,z
_cell_length_a	11.792241
_cell_length_b	10.654562
_cell_length_c	9.730223
_cell_angle_alpha	89.996961
_cell_angle_beta	89.996370
_cell_angle_gamma	95.658240
loop_
_atom_site_label
_atom_site_type_symbol
_atom_site_fract_x
_atom_site_fract_y
_atom_site_fract_z
O1	O	-0.159484	1.667374	-0.114364
O2	O	0.340516	2.167374	0.385636
O3	O	-0.174657	1.301854	-0.114345
O4	O	0.325343	1.801854	0.385655
O5	O	-0.001921	1.493484	-0.114363
O6	O	0.498079	1.993484	0.385637
O7	O	-0.332220	1.475744	-0.114346
O8	O	0.167780	1.975744	0.385654
O9	O	-0.001925	1.493482	0.114217
O10	O	0.498075	1.993482	0.614217
O11	O	-0.174661	1.301852	0.114235
O12	O	0.325339	1.801852	0.614235
O13	O	-0.159488	1.667371	0.114216
O14	O	0.340512	2.167371	0.614216
Zn15	Zn	-0.167075	1.484611	0.150518
Zn16	Zn	0.332925	1.984611	0.650518
Zn17	Zn	-0.167070	1.484614	-0.150646
Zn18	Zn	0.332930	1.984614	0.349354
O19	O	-0.332224	1.475742	0.114234
O20	O	0.167776	1.975742	0.614234
C21	C	-0.173542	1.255059	-0.000053
C22	C	0.326458	1.755059	0.499947
C23	C	-0.170200	1.115626	-0.000047
C24	C	0.329800	1.615626	0.499953
C25	C	-0.168643	1.050098	0.124542
C26	C	0.331357	1.550098	0.624542
C27	C	-0.165512	0.919085	0.124518
C28	C	0.334488	1.419085	0.624518
C29	C	-0.165498	0.919137	-0.124692
C30	C	0.334502	1.419137	0.375308
C31	C	-0.168622	1.050149	-0.124667
C32	C	0.331378	1.550149	0.375333
C33	C	-0.168656	1.050066	0.268421
C34	C	0.331344	1.550066	0.768421
C35	C	-0.165524	0.919053	0.268398
C36	C	0.334476	1.419053	0.768398
C37	C	-0.374516	1.476857	-0.000054
C38	C	0.125484	1.976857	0.499946
C39	C	-0.500537	1.480192	-0.000048
C40	C	-0.000537	1.980192	0.499952
C41	C	-0.731264	1.486326	-0.000083
C42	C	-0.231264	1.986326	0.499917
C43	C	-0.602871	1.482918	-0.000064
C44	C	-0.102871	1.982918	0.499936
C45	C	0.040371	1.492369	-0.000078
C46	C	0.540371	1.992369	0.499922
C47	C	0.166392	1.489033	-0.000093
C48	C	0.666392	1.989033	0.499907
C49	C	-0.160603	1.714167	-0.000079
C50	C	0.339397	2.214167	0.499921
C51	C	-0.163945	1.853600	-0.000094
C52	C	0.336055	2.353600	0.499906
N53	N	-0.167079	1.484619	0.356054
N54	N	0.332921	1.984619	0.856054
N55	N	-0.167057	1.484617	-0.356183
N56	N	0.332943	1.984617	0.143817
C57	C	-0.090617	1.569494	0.427972
C58	C	0.409383	2.069494	0.927972
C59	C	-0.090603	1.569491	0.571855
C60	C	0.409397	2.069491	1.071855
C61	C	-0.243522	1.399732	0.571889
C62	C	0.256478	1.899732	1.071889
C63	C	-0.243530	1.399731	0.428009
C64	C	0.256470	1.899731	0.928009
C65	C	-0.002333	1.667507	0.427954
C66	C	0.497667	2.167507	0.927954
C67	C	-0.002320	1.667503	0.571836
C68	C	0.497680	2.167503	1.071836
H69	H	-0.251436	1.079406	0.313069
H70	H	0.248564	1.579406	0.813069
Br71	Br	-0.170703	1.139081	-0.293758
Br72	Br	0.329297	1.639081	0.206242
H73	H	-0.305781	1.330608	0.369454
H74	H	0.194219	1.830608	0.869454
H75	H	-0.090217	1.096547	0.323670
H76	H	0.409783	1.596547	0.823670
Br77	Br	-0.027685	0.870095	0.343125
Br78	Br	0.472315	1.370095	0.843125
Br79	Br	-0.296260	0.841524	0.360468
Br80	Br	0.203740	1.341524	0.860468
Br81	Br	-0.163339	0.830271	-0.293812
Br82	Br	0.336661	1.330271	0.206188
H83	H	-0.305766	1.330618	0.630490
H84	H	0.194234	1.830618	1.130490
Br85	Br	0.143070	1.632182	0.362841
Br86	Br	0.643070	2.132182	0.862841
H87	H	-0.029981	1.758612	0.383324
H88	H	0.470019	2.258612	0.883324
Br89	Br	0.135079	1.617020	0.646209
Br90	Br	0.635079	2.117020	1.146209
Br91	Br	-0.034724	1.828267	0.636931
Br92	Br	0.465276	2.328267	1.136931
