data_functionalizedCrystal
_audit_creation_method	'MofGen! by Chris Wilmer'
_symmetry_space_group_name_H-M	'P1'
_symmetry_Int_Tables_number	1
_symmetry_cell_setting	triclinic
loop_
_symmetry_equiv_pos_as_xyz
  x,y,z
_cell_length_a	17.038278
_cell_length_b	17.038272
_cell_length_c	13.596369
_cell_angle_alpha	89.993837
_cell_angle_beta	89.994703
_cell_angle_gamma	91.111028
loop_
_atom_site_label
_atom_site_type_symbol
_atom_site_fract_x
_atom_site_fract_y
_atom_site_fract_z
O1	O	1.048755	0.170528	-0.081801
O2	O	1.298755	0.420528	0.168199
O3	O	1.548755	0.670528	0.418199
O4	O	1.798755	0.920528	0.668199
O5	O	0.820943	0.167823	-0.081801
O6	O	1.070943	0.417823	0.168199
O7	O	1.320943	0.667823	0.418199
O8	O	1.570943	0.917823	0.668199
O9	O	0.933495	0.055270	-0.081793
O10	O	1.183495	0.305270	0.168207
O11	O	1.433495	0.555270	0.418207
O12	O	1.683495	0.805270	0.668207
O13	O	0.936203	0.283081	-0.081809
O14	O	1.186203	0.533081	0.168191
O15	O	1.436203	0.783081	0.418191
O16	O	1.686203	1.033081	0.668191
O17	O	0.933483	0.055263	0.081790
O18	O	1.183483	0.305263	0.331790
O19	O	1.433483	0.555263	0.581790
O20	O	1.683483	0.805263	0.831790
O21	O	0.820931	0.167816	0.081782
O22	O	1.070931	0.417816	0.331782
O23	O	1.320931	0.667816	0.581782
O24	O	1.570931	0.917816	0.831782
O25	O	1.048742	0.170521	0.081782
O26	O	1.298742	0.420521	0.331782
O27	O	1.548742	0.670521	0.581782
O28	O	1.798742	0.920521	0.831782
Zn29	Zn	0.934835	0.169167	0.107754
Zn30	Zn	1.184835	0.419167	0.357754
Zn31	Zn	1.434835	0.669167	0.607754
Zn32	Zn	1.684835	0.919167	0.857754
Zn33	Zn	0.934851	0.169177	-0.107773
Zn34	Zn	1.184851	0.419177	0.142227
Zn35	Zn	1.434851	0.669177	0.392227
Zn36	Zn	1.684851	0.919177	0.642227
O37	O	0.936191	0.283074	0.081774
O38	O	1.186191	0.533074	0.331774
O39	O	1.436191	0.783074	0.581774
O40	O	1.686191	1.033074	0.831774
C41	C	0.791645	0.165356	-0.000010
C42	C	1.041645	0.415356	0.249990
C43	C	1.291645	0.665356	0.499990
C44	C	1.541645	0.915356	0.749990
C45	C	0.704361	0.158009	-0.000010
C46	C	0.954361	0.408009	0.249990
C47	C	1.204361	0.658009	0.499990
C48	C	1.454361	0.908009	0.749990
C49	C	0.210935	0.112872	-0.000010
C50	C	0.460935	0.362872	0.249990
C51	C	0.710935	0.612872	0.499990
C52	C	0.960935	0.862872	0.749990
C53	C	0.292947	0.119781	-0.000005
C54	C	0.542947	0.369781	0.249995
C55	C	0.792947	0.619781	0.499995
C56	C	1.042947	0.869781	0.749995
C57	C	0.329347	0.194155	-0.000014
C58	C	0.579347	0.444155	0.249986
C59	C	0.829347	0.694155	0.499986
C60	C	1.079347	0.944155	0.749986
C61	C	0.283730	0.261623	-0.000019
C62	C	0.533730	0.511623	0.249981
C63	C	0.783730	0.761623	0.499981
C64	C	1.033730	1.011623	0.749981
C65	C	0.201720	0.254713	-0.000018
C66	C	0.451720	0.504713	0.249982
C67	C	0.701720	0.754713	0.499982
C68	C	0.951720	1.004713	0.749982
C69	C	0.576734	0.218567	-0.000013
C70	C	0.826734	0.468567	0.249987
C71	C	1.076734	0.718567	0.499987
C72	C	1.326734	0.968567	0.749987
C73	C	0.658751	0.225473	-0.000018
C74	C	0.908751	0.475473	0.249982
C75	C	1.158751	0.725473	0.499982
C76	C	1.408751	0.975473	0.749982
C77	C	0.667962	0.083630	-0.000001
C78	C	0.917962	0.333630	0.249999
C79	C	1.167962	0.583630	0.499999
C80	C	1.417962	0.833630	0.749999
C81	C	0.585949	0.076726	-0.000006
C82	C	0.835949	0.326726	0.249994
C83	C	1.085949	0.576726	0.499994
C84	C	1.335949	0.826726	0.749994
C85	C	0.540340	0.144194	-0.000005
C86	C	0.790340	0.394194	0.249995
C87	C	1.040340	0.644194	0.499995
C88	C	1.290340	0.894194	0.749995
C89	C	0.413176	0.201219	-0.000012
C90	C	0.663176	0.451219	0.249988
C91	C	0.913176	0.701219	0.499988
C92	C	1.163176	0.951219	0.749988
C93	C	0.456513	0.137129	-0.000001
C94	C	0.706513	0.387129	0.249999
C95	C	0.956513	0.637129	0.499999
C96	C	1.206513	0.887129	0.749999
C97	C	0.931026	0.025974	-0.000002
C98	C	1.181026	0.275974	0.249998
C99	C	1.431026	0.525974	0.499998
C100	C	1.681026	0.775974	0.749998
C101	C	0.923678	-0.061310	-0.000002
C102	C	1.173678	0.188690	0.249998
C103	C	1.423678	0.438690	0.499998
C104	C	1.673678	0.688690	0.749998
C105	C	0.991142	-0.106920	-0.000001
C106	C	1.241142	0.143080	0.249999
C107	C	1.491142	0.393080	0.499999
C108	C	1.741142	0.643080	0.749999
C109	C	0.984233	-0.188932	-0.000011
C110	C	1.234233	0.061068	0.249989
C111	C	1.484233	0.311068	0.499989
C112	C	1.734233	0.561068	0.749989
C113	C	0.909859	-0.225332	-0.000014
C114	C	1.159859	0.024668	0.249986
C115	C	1.409859	0.274668	0.499986
C116	C	1.659859	0.524668	0.749986
C117	C	0.842391	-0.179716	-0.000018
C118	C	1.092391	0.070284	0.249982
C119	C	1.342391	0.320284	0.499982
C120	C	1.592391	0.570284	0.749982
C121	C	0.849300	-0.097706	-0.000016
C122	C	1.099300	0.152294	0.249984
C123	C	1.349300	0.402294	0.499984
C124	C	1.599300	0.652294	0.749984
C125	C	0.885449	-0.472720	-0.000027
C126	C	1.135449	-0.222720	0.249973
C127	C	1.385449	0.027280	0.499973
C128	C	1.635449	0.277280	0.749973
C129	C	0.878544	-0.554736	-0.000027
C130	C	1.128544	-0.304736	0.249973
C131	C	1.378544	-0.054736	0.499973
C132	C	1.628544	0.195264	0.749973
C133	C	1.020387	-0.563946	-0.000021
C134	C	1.270387	-0.313946	0.249979
C135	C	1.520387	-0.063946	0.499979
C136	C	1.770387	0.186054	0.749979
C137	C	1.027290	-0.481934	-0.000013
C138	C	1.277290	-0.231934	0.249987
C139	C	1.527290	0.018066	0.499987
C140	C	1.777290	0.268066	0.749987
C141	C	0.959821	-0.436325	-0.000022
C142	C	1.209821	-0.186325	0.249978
C143	C	1.459821	0.063675	0.499978
C144	C	1.709821	0.313675	0.749978
C145	C	0.902796	-0.309161	-0.000020
C146	C	1.152796	-0.059161	0.249980
C147	C	1.402796	0.190839	0.499980
C148	C	1.652796	0.440839	0.749980
C149	C	0.966886	-0.352497	-0.000023
C150	C	1.216886	-0.102497	0.249977
C151	C	1.466886	0.147503	0.499977
C152	C	1.716886	0.397503	0.749977
C153	C	1.078041	0.172988	-0.000012
C154	C	1.328041	0.422988	0.249988
C155	C	1.578041	0.672988	0.499988
C156	C	1.828041	0.922988	0.749988
C157	C	1.165325	0.180335	-0.000018
C158	C	1.415325	0.430335	0.249982
C159	C	1.665325	0.680335	0.499982
C160	C	1.915325	0.930335	0.749982
C161	C	0.938660	0.312370	-0.000020
C162	C	1.188660	0.562370	0.249980
C163	C	1.438660	0.812370	0.499980
C164	C	1.688660	1.062370	0.749980
C165	C	0.946008	0.399654	-0.000026
C166	C	1.196008	0.649654	0.249974
C167	C	1.446008	0.899654	0.499974
C168	C	1.696008	1.149654	0.749974
N169	N	0.934829	0.169161	0.254846
N170	N	1.184829	0.419161	0.504846
N171	N	1.434829	0.669161	0.754846
N172	N	1.684829	0.919161	1.004846
N173	N	0.934862	0.169177	-0.254865
N174	N	1.184862	0.419177	-0.004865
N175	N	1.434862	0.669177	0.245135
N176	N	1.684862	0.919177	0.495135
C177	C	0.934850	0.169177	0.656137
C178	C	1.184850	0.419177	0.906137
C179	C	1.434850	0.669177	1.156137
C180	C	1.684850	0.919177	1.406137
C181	C	0.934842	0.169175	0.544486
C182	C	1.184842	0.419175	0.794486
C183	C	1.434842	0.669175	1.044486
C184	C	1.684842	0.919175	1.294486
C185	C	0.934840	0.169170	0.455495
C186	C	1.184840	0.419170	0.705495
C187	C	1.434840	0.669170	0.955495
C188	C	1.684840	0.919170	1.205495
C189	C	0.934831	0.169166	0.343836
C190	C	1.184831	0.419166	0.593836
C191	C	1.434831	0.669166	0.843836
C192	C	1.684831	0.919166	1.093836
H193	H	0.330080	0.064845	0.000006
H194	H	0.580080	0.314845	0.250006
H195	H	0.830080	0.564845	0.500006
H196	H	1.080080	0.814845	0.750006
H197	H	0.426872	0.076575	-0.000004
H198	H	0.676872	0.326575	0.249996
H199	H	0.926872	0.576575	0.499996
H200	H	1.176872	0.826575	0.749996
H201	H	0.556319	0.016163	0.000002
H202	H	0.806319	0.266163	0.250002
H203	H	1.056319	0.516163	0.500002
H204	H	1.306319	0.766163	0.750002
H205	H	0.442822	0.261775	-0.000022
H206	H	0.692822	0.511775	0.249978
H207	H	0.942822	0.761775	0.499978
H208	H	1.192822	1.011775	0.749978
H209	H	0.313374	0.322180	-0.000021
H210	H	0.563374	0.572180	0.249979
H211	H	0.813374	0.822180	0.499979
H212	H	1.063374	1.072180	0.749979
H213	H	0.781834	-0.209360	-0.000027
H214	H	1.031834	0.040640	0.249973
H215	H	1.281834	0.290640	0.499973
H216	H	1.531834	0.540640	0.749973
H217	H	0.705105	0.028701	-0.000000
H218	H	0.955105	0.278701	0.250000
H219	H	1.205105	0.528701	0.500000
H220	H	1.455105	0.778701	0.750000
H221	H	1.051704	-0.077289	0.000008
H222	H	1.301704	0.172711	0.250008
H223	H	1.551704	0.422711	0.500008
H224	H	1.801704	0.672711	0.750008
H225	H	0.688384	0.286039	-0.000011
H226	H	0.938384	0.536039	0.249989
H227	H	1.188384	0.786039	0.499989
H228	H	1.438384	1.036039	0.749989
H229	H	0.539609	0.273505	-0.000018
H230	H	0.789609	0.523505	0.249982
H231	H	1.039609	0.773505	0.499982
H232	H	1.289609	1.023505	0.749982
H233	H	1.039169	-0.226064	-0.000007
H234	H	1.289169	0.023936	0.249993
H235	H	1.539169	0.273936	0.499993
H236	H	1.789169	0.523936	0.749993
H237	H	1.027440	-0.322857	-0.000042
H238	H	1.277440	-0.072857	0.249958
H239	H	1.527440	0.177143	0.499958
H240	H	1.777440	0.427143	0.749958
H241	H	1.087852	-0.452303	-0.000010
H242	H	1.337852	-0.202303	0.249990
H243	H	1.587852	0.047697	0.499990
H244	H	1.837852	0.297697	0.749990
H245	H	0.794364	-0.060571	-0.000017
H246	H	1.044364	0.189429	0.249983
H247	H	1.294364	0.439429	0.499983
H248	H	1.544364	0.689429	0.749983
H249	H	0.164585	0.309649	-0.000021
H250	H	0.414585	0.559649	0.249979
H251	H	0.664585	0.809649	0.499979
H252	H	0.914585	1.059649	0.749979
H253	H	0.842240	-0.338808	-0.000021
H254	H	1.092240	-0.088808	0.249979
H255	H	1.342240	0.161192	0.499979
H256	H	1.592240	0.411192	0.749979
H257	H	0.830511	-0.435595	-0.000035
H258	H	1.080511	-0.185595	0.249965
H259	H	1.330511	0.064405	0.499965
H260	H	1.580511	0.314405	0.749965
H261	H	0.181305	0.052309	-0.000009
H262	H	0.431305	0.302309	0.249991
H263	H	0.681305	0.552309	0.499991
H264	H	0.931305	0.802309	0.749991
H265	H	1.075316	-0.601089	-0.000015
H266	H	1.325316	-0.351089	0.249985
H267	H	1.575316	-0.101089	0.499985
H268	H	1.825316	0.148911	0.749985
H269	H	0.817978	-0.584370	-0.000014
H270	H	1.067978	-0.334370	0.249986
H271	H	1.317978	-0.084370	0.499986
H272	H	1.567978	0.165630	0.749986
