data_functionalizedCrystal
_audit_creation_method	'MofGen! by Chris Wilmer'
_symmetry_space_group_name_H-M	'P1'
_symmetry_Int_Tables_number	1
_symmetry_cell_setting	triclinic
loop_
_symmetry_equiv_pos_as_xyz
  x,y,z
_cell_length_a	15.944551
_cell_length_b	17.666332
_cell_length_c	15.944551
_cell_angle_alpha	89.992575
_cell_angle_beta	96.501262
_cell_angle_gamma	90.004861
loop_
_atom_site_label
_atom_site_type_symbol
_atom_site_fract_x
_atom_site_fract_y
_atom_site_fract_z
O1	O	1.114530	0.062871	-0.108333
O2	O	0.869980	0.062890	-0.121690
O3	O	0.998933	0.062873	0.007263
O4	O	0.985577	0.062888	-0.237286
O5	O	0.998911	-0.063024	0.007270
O6	O	0.869958	-0.063007	-0.121683
O7	O	1.114507	-0.063026	-0.108327
Cu8	Cu	0.992230	-0.074512	-0.115004
Cu9	Cu	0.992257	0.074376	-0.115012
O10	O	0.985554	-0.063009	-0.237280
C11	C	0.838675	-0.000056	-0.121132
C12	C	0.745429	-0.000049	-0.119470
N13	N	0.992218	-0.179231	-0.114998
C14	C	0.530572	-0.000069	-0.035565
C15	C	0.469563	0.062007	-0.074531
C16	C	0.574703	-0.000058	-0.116462
C17	C	0.469563	-0.062117	-0.074543
C18	C	0.409790	-0.000070	-0.113551
C19	C	0.514922	0.062069	-0.155450
C20	C	0.514929	-0.062111	-0.155451
C21	C	0.453937	-0.000020	-0.194476
C22	C	0.669705	-0.000050	-0.118137
C23	C	0.314789	-0.000072	-0.111883
C24	C	1.049337	-0.218848	-0.057925
C25	C	1.049341	-0.298096	-0.057921
C26	C	0.992235	-0.337723	-0.115004
C27	C	0.935106	-0.298096	-0.172081
C28	C	0.935097	-0.218850	-0.172078
N29	N	0.981548	-0.462137	-0.189328
N30	N	0.981561	-0.537417	-0.189328
C31	C	0.992258	-0.576487	-0.115016
N32	N	1.002957	-0.537433	-0.040701
N33	N	1.002948	-0.462145	-0.040702
C34	C	0.992238	-0.423652	-0.115014
C35	C	1.049385	-0.702034	-0.057935
C36	C	1.049384	-0.781283	-0.057929
C37	C	0.935152	-0.781282	-0.172096
C38	C	0.935149	-0.702034	-0.172094
C39	C	0.992270	-0.662415	-0.115014
C40	C	1.145813	-0.000078	-0.108885
C41	C	1.239059	-0.000080	-0.110547
C42	C	0.998367	-0.000075	0.038561
C43	C	0.996705	-0.000076	0.131807
N44	N	0.992276	0.179095	-0.115012
C45	C	0.986120	-0.000059	-0.268577
C46	C	0.987782	-0.000053	-0.361823
C47	C	0.912801	-0.000059	0.346663
C48	C	0.951752	-0.062136	0.407684
C49	C	0.993698	-0.000070	0.302533
C50	C	0.951793	0.061988	0.407661
C51	C	0.990787	-0.000060	0.467445
C52	C	1.032671	-0.062199	0.362325
C53	C	1.032701	0.061982	0.362295
C54	C	1.071711	-0.000111	0.423298
C55	C	0.995372	-0.000075	0.207530
C56	C	0.989119	-0.000060	0.562446
H57	H	0.449463	0.114484	-0.040318
O58	O	0.911098	0.124677	0.431596
C59	C	0.906772	0.260988	0.434436
C60	C	0.952959	0.190061	0.407304
H61	H	0.940588	0.313868	0.414791
H62	H	0.906462	0.260735	0.505900
H63	H	0.839028	0.260863	0.402649
H64	H	1.020722	0.190140	0.439032
H65	H	0.953200	0.190341	0.335833
O66	O	0.879598	-0.819649	-0.227579
C67	C	0.766331	-0.811284	-0.340849
C68	C	0.829192	-0.767735	-0.278048
H69	H	0.725574	-0.769332	-0.381681
H70	H	0.724317	-0.848376	-0.304601
H71	H	0.802614	-0.848395	-0.382797
H72	H	0.792979	-0.730584	-0.236084
H73	H	0.871206	-0.730691	-0.314348
O74	O	0.570282	0.000134	0.044551
C75	C	0.592315	0.065786	0.177687
C76	C	0.547301	0.065654	0.086976
H77	H	0.573738	0.118745	0.212019
H78	H	0.663564	0.065297	0.175717
H79	H	0.572922	0.013376	0.212498
H80	H	0.566625	0.118055	0.052112
H81	H	0.476062	0.066104	0.089007
H82	H	0.449468	-0.114596	-0.040309
O83	O	0.538920	0.124727	-0.196183
C84	C	0.654270	0.195003	-0.243490
C85	C	0.627209	0.124021	-0.197329
H86	H	0.725652	0.194448	-0.244447
H87	H	0.635266	0.247862	-0.209243
H88	H	0.621908	0.195221	-0.311015
H89	H	0.659558	0.123730	-0.129803
H90	H	0.646198	0.071194	-0.231642
H91	H	1.138919	-0.000152	0.456457
O92	O	1.073612	0.124564	0.338383
C93	C	1.203169	0.196028	0.351707
C94	C	1.156942	0.125125	0.378877
H95	H	1.270554	0.196497	0.384420
H96	H	1.168662	0.248939	0.370147
H97	H	1.204523	0.195112	0.280381
H98	H	1.155575	0.125968	0.450199
H99	H	1.191464	0.072246	0.360375
H100	H	0.420779	0.000019	-0.261683
O101	O	1.073525	-0.124802	0.338398
C102	C	1.190302	-0.173686	0.271358
C103	C	1.144112	-0.102726	0.298394
H104	H	1.247391	-0.155863	0.239025
H105	H	1.145601	-0.208509	0.225666
H106	H	1.212141	-0.209224	0.329429
H107	H	1.122268	-0.067129	0.240373
H108	H	1.188843	-0.067960	0.344115
O109	O	0.832710	0.000015	0.306888
C110	C	0.729196	0.065464	0.211479
C111	C	0.819910	0.065488	0.256485
H112	H	0.718823	0.118386	0.170704
H113	H	0.682378	0.064935	0.260475
H114	H	0.719248	0.013016	0.169894
H115	H	0.829939	0.117927	0.298068
H116	H	0.866682	0.065977	0.207445
O117	O	0.538922	-0.124793	-0.196110
C118	C	0.543246	-0.261092	-0.199458
C119	C	0.516042	-0.190161	-0.153328
H120	H	0.524743	-0.313960	-0.164898
H121	H	0.614571	-0.260237	-0.200837
H122	H	0.510509	-0.261587	-0.266834
H123	H	0.548720	-0.189620	-0.085933
H124	H	0.444710	-0.191044	-0.152018
H125	H	1.095846	-0.186592	-0.011446
H126	H	1.095856	-0.330358	-0.011444
O127	O	0.879600	-0.336671	-0.227417
C128	C	0.764871	-0.426128	-0.245223
C129	C	0.827703	-0.382504	-0.182465
H130	H	0.722885	-0.463182	-0.208904
H131	H	0.801093	-0.463266	-0.287200
H132	H	0.724080	-0.384183	-0.286033
H133	H	0.868510	-0.424394	-0.141599
H134	H	0.791430	-0.345355	-0.140546
H135	H	0.888583	-0.186593	-0.218554
H136	H	1.095895	-0.813540	-0.011450
H137	H	1.095894	-0.669774	-0.011454
H138	H	0.888641	-0.669776	-0.218571
O139	O	0.910790	-0.124684	0.431626
C140	C	0.780758	-0.195426	0.419362
C141	C	0.827045	-0.124554	0.392200
H142	H	0.713047	-0.195353	0.387485
H143	H	0.780361	-0.195110	0.490815
H144	H	0.814625	-0.248316	0.399849
H145	H	0.793215	-0.071627	0.411655
H146	H	0.827449	-0.124937	0.320749
