data_functionalizedCrystal
_audit_creation_method	'MofGen! by Chris Wilmer'
_symmetry_space_group_name_H-M	'P1'
_symmetry_Int_Tables_number	1
_symmetry_cell_setting	triclinic
loop_
_symmetry_equiv_pos_as_xyz
  x,y,z
_cell_length_a	6.394989
_cell_length_b	10.723024
_cell_length_c	9.798715
_cell_angle_alpha	89.996609
_cell_angle_beta	90.000171
_cell_angle_gamma	94.517210
loop_
_atom_site_label
_atom_site_type_symbol
_atom_site_fract_x
_atom_site_fract_y
_atom_site_fract_z
O1	O	-0.293022	1.660297	-0.113473
O2	O	-0.321070	1.297442	-0.113476
O3	O	-0.003055	1.484020	-0.113475
O4	O	-0.611036	1.473719	-0.113474
O5	O	-0.003054	1.484006	0.113507
O6	O	-0.321069	1.297428	0.113506
O7	O	-0.293021	1.660283	0.113510
Zn8	Zn	-0.307045	1.478853	0.149546
Zn9	Zn	-0.307046	1.478872	-0.149513
O10	O	-0.611035	1.473705	0.113509
C11	C	-0.319028	1.250914	0.000014
C12	C	-0.312921	1.112295	0.000012
N13	N	-0.307043	1.478850	0.353646
C14	C	-0.490865	1.039201	0.000012
C15	C	-0.484558	0.895931	0.000010
C16	C	0.074796	1.481977	0.000011
C17	C	0.311120	1.475752	0.000009
C18	C	-0.295062	1.706811	0.000016
C19	C	-0.301169	1.845430	0.000009
N20	N	-0.307031	1.478885	-0.353612
C21	C	-0.172929	1.557182	0.421423
C22	C	-0.172922	1.557202	0.578586
H23	H	-0.647879	1.082689	0.000020
C24	C	-0.860992	0.885242	0.000002
C25	C	-0.690220	0.811143	0.000004
H26	H	-0.987960	0.832893	-0.000011
H27	H	-0.855433	0.936524	0.079154
H28	H	-0.855412	0.936547	-0.079154
H29	H	-0.695791	0.759844	0.079166
H30	H	-0.695781	0.759839	-0.079156
H31	H	-0.058109	1.624271	0.636871
C32	C	-0.590771	1.456849	0.485549
C33	C	-0.462052	1.388345	0.567722
H34	H	-0.686464	1.400951	0.436973
H35	H	-0.666525	1.510064	0.541286
H36	H	-0.506612	1.505976	0.422645
H37	H	-0.546210	1.339224	0.630634
H38	H	-0.386292	1.335108	0.511980
C39	C	0.062386	1.148582	0.000015
C40	C	-0.100943	1.053603	0.000013
H41	H	0.193254	1.112348	0.000024
H42	H	0.052351	1.198901	-0.079134
H43	H	0.052336	1.198899	0.079174
H44	H	-0.090902	1.003291	-0.079151
H45	H	-0.090903	1.003262	0.079170
C46	C	0.187784	1.624194	0.377059
C47	C	-0.017970	1.647700	0.342663
H48	H	0.283434	1.680075	0.328420
H49	H	0.208159	1.636110	0.472329
H50	H	0.211304	1.540458	0.353733
H51	H	-0.041495	1.731434	0.365999
H52	H	-0.038354	1.635795	0.247372
H53	H	-0.148827	0.908239	0.000001
H54	H	-0.421850	1.411796	0.411970
