data_functionalizedCrystal
_audit_creation_method	'MofGen! by Chris Wilmer'
_symmetry_space_group_name_H-M	'P1'
_symmetry_Int_Tables_number	1
_symmetry_cell_setting	triclinic
loop_
_symmetry_equiv_pos_as_xyz
  x,y,z
_cell_length_a	14.044191
_cell_length_b	11.792254
_cell_length_c	10.268362
_cell_angle_alpha	90.004525
_cell_angle_beta	89.998454
_cell_angle_gamma	91.304813
loop_
_atom_site_label
_atom_site_type_symbol
_atom_site_fract_x
_atom_site_fract_y
_atom_site_fract_z
O1	O	-0.130045	1.519112	0.108289
O2	O	0.119955	1.769112	0.358289
O3	O	0.369955	2.019112	0.608289
O4	O	0.619955	2.269112	0.858289
O5	O	-0.143429	1.190030	0.108290
O6	O	0.106571	1.440030	0.358290
O7	O	0.356571	1.690030	0.608290
O8	O	0.606571	1.940030	0.858290
O9	O	0.001273	1.349627	0.108292
O10	O	0.251273	1.599627	0.358292
O11	O	0.501273	1.849627	0.608292
O12	O	0.751273	2.099627	0.858292
O13	O	-0.274747	1.359515	0.108287
O14	O	-0.024747	1.609515	0.358287
O15	O	0.225253	1.859515	0.608287
O16	O	0.475253	2.109515	0.858287
O17	O	0.001279	1.349612	-0.108309
O18	O	0.251279	1.599612	0.141691
O19	O	0.501279	1.849612	0.391691
O20	O	0.751279	2.099612	0.641691
O21	O	-0.143423	1.190014	-0.108310
O22	O	0.106577	1.440014	0.141690
O23	O	0.356577	1.690014	0.391690
O24	O	0.606577	1.940014	0.641690
O25	O	-0.130039	1.519097	-0.108312
O26	O	0.119961	1.769097	0.141688
O27	O	0.369961	2.019097	0.391688
O28	O	0.619961	2.269097	0.641688
Cu29	Cu	-0.136730	1.354554	-0.128088
Cu30	Cu	0.113270	1.604554	0.121912
Cu31	Cu	0.363270	1.854554	0.371912
Cu32	Cu	0.613270	2.104554	0.621912
Cu33	Cu	-0.136738	1.354573	0.128067
Cu34	Cu	0.113262	1.604573	0.378067
Cu35	Cu	0.363262	1.854573	0.628067
Cu36	Cu	0.613262	2.104573	0.878067
O37	O	-0.274741	1.359499	-0.108314
O38	O	-0.024741	1.609499	0.141686
O39	O	0.225259	1.859499	0.391686
O40	O	0.475259	2.109499	0.641686
C41	C	-0.142583	1.147652	-0.000009
C42	C	0.107417	1.397652	0.249991
C43	C	0.357417	1.647652	0.499991
C44	C	0.607417	1.897652	0.749991
C45	C	-0.140059	1.021402	-0.000008
C46	C	0.109941	1.271402	0.249992
C47	C	0.359941	1.521402	0.499992
C48	C	0.609941	1.771402	0.749992
C49	C	-0.138009	0.918873	-0.000003
C50	C	0.111991	1.168873	0.249997
C51	C	0.361991	1.418873	0.499997
C52	C	0.611991	1.668873	0.749997
C53	C	-0.135445	0.790246	-0.000002
C54	C	0.114555	1.040246	0.249998
C55	C	0.364555	1.290246	0.499998
C56	C	0.614555	1.540246	0.749998
C57	C	-0.310081	1.363832	-0.000014
C58	C	-0.060081	1.613832	0.249986
C59	C	0.189919	1.863832	0.499986
C60	C	0.439919	2.113832	0.749986
C61	C	-0.415374	1.376735	-0.000015
C62	C	-0.165374	1.626735	0.249985
C63	C	0.084626	1.876735	0.499985
C64	C	0.334626	2.126735	0.749985
C65	C	-0.665309	1.308817	-0.000004
C66	C	-0.415309	1.558817	0.249996
C67	C	-0.165309	1.808817	0.499996
C68	C	0.084691	2.058817	0.749996
C69	C	-0.608153	1.400304	-0.000006
C70	C	-0.358153	1.650304	0.249994
C71	C	-0.108153	1.900304	0.499994
C72	C	0.141847	2.150304	0.749994
C73	C	-0.500881	1.387187	-0.000011
C74	C	-0.250881	1.637187	0.249989
C75	C	-0.000881	1.887187	0.499989
C76	C	0.249119	2.137187	0.749989
C77	C	-0.772591	1.321933	0.000001
C78	C	-0.522591	1.571933	0.250001
C79	C	-0.272591	1.821933	0.500001
C80	C	-0.022591	2.071933	0.750001
C81	C	0.036613	1.345294	-0.000005
C82	C	0.286613	1.595294	0.249995
C83	C	0.536613	1.845294	0.499995
C84	C	0.786613	2.095294	0.749995
C85	C	0.141906	1.332392	0.000005
C86	C	0.391906	1.582392	0.250005
C87	C	0.641906	1.832392	0.500005
C88	C	0.891906	2.082392	0.750005
C89	C	-0.130885	1.561474	-0.000009
C90	C	0.119115	1.811474	0.249991
C91	C	0.369115	2.061474	0.499991
C92	C	0.619115	2.311474	0.749991
C93	C	-0.133409	1.687724	-0.000002
C94	C	0.116591	1.937724	0.249998
C95	C	0.366591	2.187724	0.499998
C96	C	0.616591	2.437724	0.749998
N97	N	-0.136725	1.354549	-0.308254
N98	N	0.113275	1.604549	-0.058254
N99	N	0.363275	1.854549	0.191746
N100	N	0.613275	2.104549	0.441746
C101	C	-0.136736	1.354567	-0.573925
C102	C	0.113264	1.604567	-0.323925
C103	C	0.363264	1.854567	-0.073925
C104	C	0.613264	2.104567	0.176075
C105	C	-0.136732	1.354554	-0.426087
C106	C	0.113268	1.604554	-0.176087
C107	C	0.363268	1.854554	0.073913
C108	C	0.613268	2.104554	0.323913
N109	N	-0.136736	1.354586	0.308233
N110	N	0.113264	1.604586	0.558233
N111	N	0.363264	1.854586	0.808233
N112	N	0.613264	2.104586	1.058233
H113	H	-0.639785	1.488480	0.000087
H114	H	-0.389785	1.738480	0.250087
H115	H	-0.139785	1.988480	0.500087
H116	H	0.110215	2.238480	0.750087
O117	O	-0.623421	1.192021	-0.000032
O118	O	-0.373421	1.442021	0.249968
O119	O	-0.123421	1.692021	0.499968
O120	O	0.126579	1.942021	0.749968
H121	H	-0.544516	1.199919	-0.000053
H122	H	-0.294516	1.449919	0.249947
H123	H	-0.044516	1.699919	0.499947
H124	H	0.205484	1.949919	0.749947
