data_functionalizedCrystal
_audit_creation_method	'MofGen! by Chris Wilmer'
_symmetry_space_group_name_H-M	'P1'
_symmetry_Int_Tables_number	1
_symmetry_cell_setting	triclinic
loop_
_symmetry_equiv_pos_as_xyz
  x,y,z
_cell_length_a	25.639239
_cell_length_b	19.077241
_cell_length_c	25.639234
_cell_angle_alpha	87.676327
_cell_angle_beta	90.024905
_cell_angle_gamma	87.669529
loop_
_atom_site_label
_atom_site_type_symbol
_atom_site_fract_x
_atom_site_fract_y
_atom_site_fract_z
Zn1	Zn	-0.176154	-1.075960	0.327806
Zn2	Zn	-0.263586	-1.075842	0.240367
Zn3	Zn	-0.179666	-0.958256	0.236863
Zn4	Zn	-0.267066	-0.958197	0.324251
O5	O	-0.221618	-1.017064	0.282322
O6	O	-0.184826	-1.174439	0.319162
O7	O	-0.252467	-1.060220	0.166736
O8	O	-0.106033	-0.973944	0.248948
O9	O	-0.249061	-1.174353	0.254920
O10	O	-0.103453	-1.060421	0.315764
O11	O	-0.190812	-0.973830	0.164161
O12	O	-0.194186	-0.859754	0.245500
O13	O	-0.254993	-0.973843	0.397889
O14	O	-0.258398	-0.859711	0.309704
O15	O	-0.188200	-1.060363	0.400500
O16	O	-0.337215	-1.060163	0.251473
O17	O	-0.339772	-0.973729	0.313102
C18	C	-0.227052	-0.834194	0.276837
C19	C	-0.229389	-0.755961	0.274503
C20	C	-0.197096	-0.719253	0.306904
C21	C	-0.199289	-0.645745	0.304706
C22	C	-0.233779	-0.608947	0.270109
C23	C	-0.266073	-0.645660	0.237705
C24	C	-0.263876	-0.719167	0.239900
C25	C	-0.243926	-0.389101	0.259949
C26	C	-0.246121	-0.315589	0.257757
C27	C	-0.179336	-0.315679	0.324759
C28	C	-0.177145	-0.389187	0.326953
C29	C	-0.209437	-0.425894	0.294546
N30	N	-0.236023	-0.533810	0.267863
N31	N	-0.207190	-0.501030	0.296790
C32	C	-0.357464	-1.016946	0.282294
C33	C	-0.415578	-1.016960	0.282302
C34	C	-0.774590	-1.062187	0.250292
C35	C	-0.829194	-1.062215	0.250300
O36	O	-0.856286	-1.100546	0.223054
N37	N	-0.857853	-1.017188	0.282360
C38	C	-0.831907	-0.972136	0.314419
O39	O	-0.861298	-0.933840	0.341690
C40	C	-0.777304	-0.972113	0.314413
C41	C	-0.748647	-1.017137	0.282347
C42	C	-0.745934	-1.107209	0.218228
C43	C	-0.691334	-1.107181	0.218220
C44	C	-0.665391	-1.062131	0.250275
C45	C	-0.694048	-1.017109	0.282338
C46	C	-0.751358	-0.927065	0.346474
C47	C	-0.696752	-0.927046	0.346466
C48	C	-0.668095	-0.972070	0.314400
C49	C	-0.613505	-0.972031	0.314385
N50	N	-0.584845	-1.017057	0.282325
C51	C	-0.610788	-1.062107	0.250270
C52	C	-0.946576	-0.972189	0.314428
C53	C	-1.001177	-0.972208	0.314431
C54	C	-0.998461	-1.062288	0.250313
C55	C	-0.943858	-1.062265	0.250307
C56	C	-0.917916	-1.017216	0.282368
C57	C	-0.496125	-1.062044	0.250254
C58	C	-0.441521	-1.062010	0.250247
C59	C	-0.444242	-0.971932	0.314367
C60	C	-0.498842	-0.971964	0.314372
C61	C	-0.524782	-1.017025	0.282314
O62	O	-0.586377	-0.933720	0.341619
O63	O	-0.581390	-1.100403	0.223008
C64	C	-0.085241	-1.017202	0.282361
C65	C	-0.027125	-1.017261	0.282378
C66	C	-0.221593	-1.017110	0.418696
C67	C	-0.221582	-1.017129	0.476811
C68	C	-0.216161	-0.200648	0.287824
C69	C	-0.213828	-0.278881	0.290159
C70	C	-0.221604	-1.017059	0.146479
C71	C	-0.221464	-1.017176	0.088369
C72	C	-0.189415	-0.972166	0.835839
C73	C	-0.189406	-0.972170	0.890444
O74	O	-0.162115	-0.933905	0.917545
N75	N	-0.221499	-1.017153	0.919094
C76	C	-0.253608	-1.062130	0.893137
O77	O	-0.280906	-1.100391	0.922520
C78	C	-0.253620	-1.062122	0.838533
C79	C	-0.221521	-1.017141	0.809886
C80	C	-0.157319	-0.927188	0.807192
C81	C	-0.157328	-0.927185	0.752591
C82	C	-0.189433	-0.972161	0.726638
C83	C	-0.221530	-1.017138	0.755285
C84	C	-0.285732	-1.107095	0.812577
C85	C	-0.285741	-1.107083	0.757970
C86	C	-0.253642	-1.062102	0.729322
C87	C	-0.253644	-1.062111	0.674731
N88	N	-0.221551	-1.017128	0.646081
C89	C	-0.189445	-0.972153	0.672035
C90	C	-0.253582	-1.062142	1.007808
C91	C	-0.253567	-1.062154	1.062411
C92	C	-0.189365	-0.972193	1.059714
C93	C	-0.189377	-0.972185	1.005110
C94	C	-0.221488	-1.017159	0.979158
C95	C	-0.189466	-0.972151	0.557369
C96	C	-0.189476	-0.972154	0.502764
C97	C	-0.253680	-1.062113	0.505466
C98	C	-0.253668	-1.062112	0.560066
C99	C	-0.221560	-1.017126	0.586017
O100	O	-0.280923	-1.100354	0.647595
O101	O	-0.162157	-0.933891	0.642645
H102	H	-0.274209	-0.285630	0.229584
H103	H	-0.163223	-0.935571	1.080855
O104	O	-1.028931	-0.928443	0.345625
C105	C	-1.025848	-0.839065	0.409198
C106	C	-0.994356	-0.888602	0.373901
H107	H	-0.997908	-0.806830	0.432060
H108	H	-1.050396	-0.871334	0.437565
H109	H	-1.052563	-0.802320	0.384066
H110	H	-0.967613	-0.925356	0.398991
H111	H	-0.969843	-0.856289	0.345531
H112	H	-0.163320	-0.935519	0.578492
O113	O	-0.316951	-1.150838	0.732843
C114	C	-0.380661	-1.240025	0.741285
C115	C	-0.345334	-1.190522	0.769805
H116	H	-0.403627	-1.272112	0.771155
H117	H	-0.355596	-1.276903	0.716852
H118	H	-0.408942	-1.207666	0.714725
H119	H	-0.317048	-1.222824	0.796391
H120	H	-0.370432	-1.153642	0.794205
O121	O	-0.275347	-0.424643	0.228452
C122	C	-0.341797	-0.416790	0.161741
C123	C	-0.306249	-0.376447	0.197393
H124	H	-0.366782	-0.377841	0.136613
H125	H	-0.368177	-0.451181	0.186694
H126	H	-0.316716	-0.451221	0.135495
H127	H	-0.331288	-0.341978	0.223645
H128	H	-0.279865	-0.342100	0.172409
H129	H	-0.774681	-0.890397	0.372583
O130	O	-0.167900	-0.610196	0.336234
C131	C	-0.101405	-0.618043	0.402900
C132	C	-0.136936	-0.658389	0.367232
H133	H	-0.076354	-0.656989	0.427963
H134	H	-0.126449	-0.583644	0.429201
H135	H	-0.075082	-0.583618	0.377908
H136	H	-0.163265	-0.692851	0.392183
H137	H	-0.111861	-0.692743	0.340928
O138	O	-0.419064	-0.928077	0.345450
C139	C	-0.406013	-0.808336	0.367207
C140	C	-0.434553	-0.857915	0.331956
H141	H	-0.418533	-0.751602	0.356317
H142	H	-0.362061	-0.815995	0.361692
H143	H	-0.416344	-0.820718	0.409740
H144	H	-0.424265	-0.845565	0.289409
H145	H	-0.478498	-0.850247	0.337516
H146	H	-0.279700	-1.098790	1.085731
O147	O	-0.915965	-1.106039	0.219235
C148	C	-0.851454	-1.201084	0.215100
C149	C	-0.882996	-1.151540	0.250350
H150	H	-0.824798	-1.237894	0.240244
H151	H	-0.826852	-1.168822	0.186779
H152	H	-0.879392	-1.233250	0.192179
H153	H	-0.855095	-1.119364	0.273305
H154	H	-0.907604	-1.183842	0.278639
O155	O	-0.921322	-0.928383	0.345495
C156	C	-0.862605	-0.833283	0.349614
C157	C	-0.891160	-0.882858	0.314371
H158	H	-0.838221	-0.796454	0.324464
H159	H	-0.836007	-0.865521	0.377932
H160	H	-0.892481	-0.801141	0.372538
H161	H	-0.861321	-0.915010	0.291413
H162	H	-0.917766	-0.850580	0.286086
H163	H	-0.767050	-1.143898	0.192125
H164	H	-0.131191	-0.890554	0.729271
O165	O	-0.521334	-1.105899	0.219193
C166	C	-0.580084	-1.200962	0.215075
C167	C	-0.551560	-1.151349	0.250312
H168	H	-0.604537	-1.237711	0.240219
H169	H	-0.550233	-1.233181	0.192175
H170	H	-0.606629	-1.168682	0.186734
H171	H	-0.525016	-1.183575	0.278683
H172	H	-0.581440	-1.119128	0.273175
H173	H	-0.279727	-1.098774	0.986681
O174	O	-0.671635	-0.883219	0.377627
C175	C	-0.680096	-0.793918	0.441257
C176	C	-0.708605	-0.843503	0.405985
H177	H	-0.709973	-0.761806	0.464202
H178	H	-0.655684	-0.757068	0.416153
H179	H	-0.653518	-0.826215	0.469557
H180	H	-0.735210	-0.811263	0.377680
H181	H	-0.732984	-0.880355	0.431122
O182	O	-0.148041	-0.279944	0.356256
C183	C	-0.143580	-0.197032	0.424405
C184	C	-0.179085	-0.237445	0.388756
H185	H	-0.168664	-0.162674	0.450697
H186	H	-0.117246	-0.162577	0.399449
H187	H	-0.118540	-0.235972	0.449484
H188	H	-0.204158	-0.198556	0.363670
H189	H	-0.205384	-0.271911	0.413742
O190	O	-0.284771	-1.105880	0.587925
C191	C	-0.288987	-1.200863	0.652469
C192	C	-0.253696	-1.151361	0.620948
H193	H	-0.263879	-1.237637	0.679183
H194	H	-0.311925	-1.233062	0.624565
H195	H	-0.317293	-1.168499	0.677021
H196	H	-0.225361	-1.183671	0.596393
H197	H	-0.230795	-1.119160	0.648880
O198	O	-0.126079	-0.883475	0.832317
C199	C	-0.062417	-0.794226	0.823860
C200	C	-0.097768	-0.843705	0.795346
H201	H	-0.039527	-0.762049	0.793982
H202	H	-0.034075	-0.826537	0.850385
H203	H	-0.087510	-0.757425	0.848326
H204	H	-0.072717	-0.880516	0.770852
H205	H	-0.126113	-0.811350	0.768852
H206	H	-0.294152	-0.615693	0.209533
O207	O	-1.023747	-1.106080	0.219262
C208	C	-1.106666	-1.146114	0.190928
C209	C	-1.078095	-1.096470	0.226101
H210	H	-1.150611	-1.138352	0.196438
H211	H	-1.094208	-1.202849	0.201895
H212	H	-1.096327	-1.133859	0.148379
H213	H	-1.088420	-1.108663	0.268660
H214	H	-1.090555	-1.039750	0.215090
O215	O	-0.526658	-0.928301	0.345595
C216	C	-0.544332	-0.894055	0.433487
C217	C	-0.512810	-0.943551	0.398183
H218	H	-0.533140	-0.906357	0.476011
H219	H	-0.587820	-0.901820	0.428036
H220	H	-0.535346	-0.837305	0.422541
H221	H	-0.521752	-1.000320	0.409107
H222	H	-0.469331	-0.935725	0.403640
O223	O	-0.413763	-1.105816	0.219082
C224	C	-0.416842	-1.195135	0.155463
C225	C	-0.448338	-1.145573	0.190738
H226	H	-0.444783	-1.227280	0.132529
H227	H	-0.390154	-1.231955	0.180564
H228	H	-0.392267	-1.162818	0.127153
H229	H	-0.472943	-1.177833	0.219053
H230	H	-0.474994	-1.108751	0.165604
O231	O	-0.316836	-1.150872	0.840418
C232	C	-0.321046	-1.245895	0.904929
C233	C	-0.285759	-1.196366	0.873428
H234	H	-0.295936	-1.282680	0.931633
H235	H	-0.343978	-1.278081	0.877011
H236	H	-0.349358	-1.213553	0.929490
H237	H	-0.257417	-1.228654	0.848865
H238	H	-0.262864	-1.164178	0.901374
O239	O	-0.295301	-0.754719	0.208407
C240	C	-0.361753	-0.746876	0.141700
C241	C	-0.326204	-0.706528	0.177347
H242	H	-0.386740	-0.707932	0.116570
H243	H	-0.388132	-0.781265	0.166657
H244	H	-0.336674	-0.781311	0.115456
H245	H	-0.351243	-0.672055	0.203597
H246	H	-0.299823	-0.672183	0.152359
O247	O	-0.284852	-1.105732	0.480166
C248	C	-0.313297	-1.145606	0.397235
C249	C	-0.277975	-1.096165	0.425822
H250	H	-0.307740	-1.137899	0.353293
H251	H	-0.355834	-1.133198	0.407546
H252	H	-0.302438	-1.202366	0.409711
H253	H	-0.288786	-1.039388	0.413362
H254	H	-0.235447	-1.108633	0.415511
O255	O	-0.143591	-0.424822	0.360569
C256	C	-0.077595	-0.417152	0.426808
C257	C	-0.115563	-0.376708	0.388753
H258	H	-0.054933	-0.378269	0.449612
H259	H	-0.049163	-0.451549	0.403901
H260	H	-0.100614	-0.451586	0.455110
H261	H	-0.092588	-0.342235	0.360443
H262	H	-0.143996	-0.342355	0.411693
H263	H	-0.668005	-1.143846	0.192110
O264	O	-0.163667	-0.755028	0.340569
C265	C	-0.154246	-0.838095	0.413632
C266	C	-0.192165	-0.797614	0.375549
H267	H	-0.177270	-0.872547	0.441916
H268	H	-0.131549	-0.799261	0.436451
H269	H	-0.125836	-0.872484	0.390693
H270	H	-0.220606	-0.763224	0.398447
H271	H	-0.214823	-0.836486	0.352729
O272	O	-0.158185	-0.928420	0.977363
C273	C	-0.094482	-0.839221	0.980467
C274	C	-0.129790	-0.888742	1.011950
H275	H	-0.071508	-0.807139	1.008418
H276	H	-0.119563	-0.802339	0.953805
H277	H	-0.066209	-0.871565	0.955867
H278	H	-0.158069	-0.856454	1.036581
H279	H	-0.104678	-0.925625	1.038580
H280	H	-0.163335	-0.935525	0.479442
