data_functionalizedCrystal
_audit_creation_method	'MofGen! by Chris Wilmer'
_symmetry_space_group_name_H-M	'P1'
_symmetry_Int_Tables_number	1
_symmetry_cell_setting	triclinic
loop_
_symmetry_equiv_pos_as_xyz
  x,y,z
_cell_length_a	16.109295
_cell_length_b	6.394989
_cell_length_c	15.186229
_cell_angle_alpha	89.997058
_cell_angle_beta	90.002418
_cell_angle_gamma	84.978449
loop_
_atom_site_label
_atom_site_type_symbol
_atom_site_fract_x
_atom_site_fract_y
_atom_site_fract_z
O1	O	-1.105971	-0.268431	0.073163
O2	O	-0.864263	-0.301856	0.073177
O3	O	-0.988548	0.018923	0.073170
O4	O	-0.981686	-0.589210	0.073169
O5	O	-0.988547	0.018943	-0.073287
O6	O	-0.864261	-0.301836	-0.073280
O7	O	-1.105970	-0.268412	-0.073295
Zn8	Zn	-0.985116	-0.285121	-0.096541
Zn9	Zn	-0.985117	-0.285146	0.096423
O10	O	-0.981685	-0.589191	-0.073288
C11	C	-0.833273	-0.300494	-0.000050
C12	C	-0.740934	-0.296441	-0.000044
C13	C	-0.520576	-0.477357	-0.000054
C14	C	-0.433815	-0.473533	-0.000059
C15	C	-0.449661	-0.092946	-0.000055
C16	C	-0.536420	-0.096773	-0.000056
C17	C	-0.571876	-0.288985	-0.000051
C18	C	-0.398355	-0.281334	-0.000055
C19	C	-0.304285	-0.277185	-0.000061
C20	C	-0.665952	-0.293134	-0.000047
C21	C	-0.136960	-0.269786	-0.000065
C22	C	-0.229296	-0.273877	-0.000062
C23	C	-0.987191	0.096753	-0.000055
C24	C	-0.983044	0.332985	-0.000054
N25	N	-0.985119	-0.285149	0.228116
N26	N	-0.985121	-0.285102	-0.228233
C27	C	-1.040264	-0.143382	0.453836
C28	C	-1.040266	-0.143377	0.546025
C29	C	-0.929973	-0.426884	0.546040
C30	C	-0.929975	-0.426898	0.453852
C31	C	-0.985120	-0.285135	0.407752
C32	C	-0.985120	-0.285116	0.592130
C33	C	-0.985122	-0.285111	0.692086
C34	C	-0.985119	-0.285142	0.307790
H35	H	-0.578190	0.056632	-0.000056
C36	C	-0.608940	-0.702484	0.075237
C37	C	-0.559548	-0.688636	-0.000053
H38	H	-0.632992	-0.832930	0.075237
H39	H	-0.651909	-0.590865	0.075233
H40	H	-0.575412	-0.693085	0.126303
H41	H	-0.593078	-0.698020	-0.051119
H42	H	-0.516573	-0.800287	-0.000057
C43	C	-1.149277	0.136874	0.536744
C44	C	-1.100879	0.012453	0.596680
H45	H	-1.186694	0.233086	0.568018
H46	H	-1.180020	0.049741	0.500793
H47	H	-1.113937	0.212202	0.500784
H48	H	-1.136219	-0.062887	0.632636
H49	H	-1.070134	0.099597	0.632647
H50	H	-0.885069	-0.542340	0.416329
C51	C	-0.323700	0.081910	-0.000042
C52	C	-0.410685	0.118326	-0.000049
H53	H	-0.299641	0.212346	-0.000031
H54	H	-0.306232	0.004381	-0.051114
H55	H	-0.306234	0.004333	0.051033
H56	H	-0.428151	0.195890	-0.051127
H57	H	-0.428160	0.195888	0.051028
H58	H	-0.885074	-0.542301	0.583584
C59	C	-1.055550	0.140847	0.350152
C60	C	-1.100881	0.012429	0.403160
H61	H	-1.092976	0.237045	0.318873
H62	H	-1.022716	0.056424	0.309515
H63	H	-1.020225	0.216192	0.386123
H64	H	-1.136202	-0.062927	0.367188
H65	H	-1.133730	0.096863	0.443802
H66	H	-0.392051	-0.626925	-0.000063
