data_functionalizedCrystal
_audit_creation_method	'MofGen! by Chris Wilmer'
_symmetry_space_group_name_H-M	'P1'
_symmetry_Int_Tables_number	1
_symmetry_cell_setting	triclinic
loop_
_symmetry_equiv_pos_as_xyz
  x,y,z
_cell_length_a	6.394989
_cell_length_b	16.109302
_cell_length_c	14.586319
_cell_angle_alpha	89.994552
_cell_angle_beta	89.999285
_cell_angle_gamma	84.979746
loop_
_atom_site_label
_atom_site_type_symbol
_atom_site_fract_x
_atom_site_fract_y
_atom_site_fract_z
O1	O	0.268487	1.105973	-0.076275
O2	O	0.301898	0.864264	-0.076268
O3	O	-0.018874	0.988549	-0.076272
O4	O	0.589259	0.981688	-0.076270
O5	O	-0.018879	0.988540	0.076208
O6	O	0.301893	0.864255	0.076213
O7	O	0.268483	1.105964	0.076205
Cu8	Cu	0.285187	0.985109	0.090132
Cu9	Cu	0.285193	0.985119	-0.090194
O10	O	0.589254	0.981679	0.076210
C11	C	0.300542	0.833271	-0.000026
C12	C	0.296483	0.740932	-0.000023
C13	C	0.287097	0.528487	0.083085
C14	C	0.283261	0.441727	0.083082
C15	C	0.283277	0.441747	-0.083161
C16	C	0.287098	0.528507	-0.083157
C17	C	0.289018	0.571874	-0.000031
C18	C	0.281362	0.398354	-0.000039
C19	C	0.277203	0.304284	-0.000043
C20	C	0.293173	0.665950	-0.000027
C21	C	0.667077	0.983040	-0.000034
C22	C	0.903309	0.987186	-0.000037
C23	C	0.269839	1.136957	-0.000038
C24	C	0.273897	1.229296	-0.000047
N25	N	0.285182	0.985107	0.216964
N26	N	0.285182	0.985127	-0.217026
C27	C	0.143192	1.040160	0.451968
C28	C	0.143187	1.040162	0.547949
C29	C	0.427179	0.930069	0.547963
C30	C	0.427172	0.930063	0.451984
C31	C	0.285181	0.985113	0.403989
C32	C	0.285183	0.985121	0.595949
C33	C	0.285178	0.985123	0.700016
C34	C	0.285182	0.985110	0.299915
H35	H	0.281697	0.406405	0.150763
F36	F	-0.007941	1.098749	0.599009
H37	H	0.288661	0.563795	0.150771
F38	F	0.281192	0.395587	-0.171625
F39	F	-0.007933	1.098747	0.400892
H40	H	0.288657	0.563833	-0.150845
H41	H	0.542787	0.885249	0.587050
H42	H	0.542798	0.885233	0.412916
