data_functionalizedCrystal
_audit_creation_method	'MofGen! by Chris Wilmer'
_symmetry_space_group_name_H-M	'P1'
_symmetry_Int_Tables_number	1
_symmetry_cell_setting	triclinic
loop_
_symmetry_equiv_pos_as_xyz
  x,y,z
_cell_length_a	14.421503
_cell_length_b	15.944551
_cell_length_c	15.944551
_cell_angle_alpha	96.501262
_cell_angle_beta	89.996660
_cell_angle_gamma	89.996859
loop_
_atom_site_label
_atom_site_type_symbol
_atom_site_fract_x
_atom_site_fract_y
_atom_site_fract_z
O1	O	0.077017	-1.114529	0.108320
O2	O	0.577017	-0.614529	0.608320
O3	O	0.077040	-0.869980	0.121677
O4	O	0.577040	-0.369980	0.621677
O5	O	0.077020	-0.998933	-0.007276
O6	O	0.577020	-0.498933	0.492724
O7	O	0.077038	-0.985576	0.237273
O8	O	0.577038	-0.485576	0.737273
O9	O	-0.077204	-0.998911	-0.007257
O10	O	0.422796	-0.498911	0.492743
O11	O	-0.077183	-0.869958	0.121696
O12	O	0.422817	-0.369958	0.621696
O13	O	-0.077206	-1.114508	0.108340
O14	O	0.422794	-0.614508	0.608340
Cu15	Cu	-0.091277	-0.992231	0.115020
Cu16	Cu	0.408723	-0.492231	0.615020
Cu17	Cu	0.091110	-0.992256	0.114997
Cu18	Cu	0.591110	-0.492256	0.614997
O19	O	-0.077186	-0.985555	0.237293
O20	O	0.422814	-0.485555	0.737293
C21	C	-0.000069	-0.838675	0.121132
C22	C	0.499931	-0.338675	0.621132
C23	C	-0.000060	-0.745429	0.119470
C24	C	0.499940	-0.245429	0.619470
N25	N	-0.219558	-0.992219	0.115035
N26	N	0.280442	-0.492219	0.615035
C27	C	-0.000092	-0.998367	-0.038561
C28	C	0.499908	-0.498367	0.461439
C29	C	-0.000093	-0.996705	-0.131807
C30	C	0.499907	-0.496705	0.368193
C31	C	-0.469202	-0.932581	0.174636
C32	C	0.030798	-0.432581	0.674636
C33	C	-0.531011	-1.008481	0.190943
C34	C	-0.031011	-0.508481	0.690943
C35	C	-0.408719	-0.992240	0.115015
C36	C	0.091281	-0.492240	0.615015
C37	C	-0.531005	-0.916359	0.098727
C38	C	-0.031005	-0.416359	0.598727
C39	C	-0.591441	-0.992253	0.114997
C40	C	-0.091441	-0.492253	0.614997
C41	C	-0.469167	-1.068178	0.131360
C42	C	0.030833	-0.568178	0.631360
C43	C	-0.469156	-0.976007	0.039111
C44	C	0.030844	-0.476007	0.539111
C45	C	-0.530936	-1.051961	0.055386
C46	C	-0.030936	-0.551961	0.555386
C47	C	-0.303458	-0.992231	0.115027
C48	C	0.196542	-0.492231	0.615027
C49	C	-0.696700	-0.992270	0.114985
C50	C	-0.196700	-0.492270	0.614985
N51	N	0.219392	-0.992275	0.114975
N52	N	0.719392	-0.492275	0.614975
C53	C	-0.000096	-1.145813	0.108885
C54	C	0.499904	-0.645813	0.608885
C55	C	-0.000098	-1.239059	0.110547
C56	C	0.499902	-0.739059	0.610547
C57	C	-0.000084	-0.530572	0.035565
C58	C	0.499916	-0.030572	0.535565
C59	C	0.075959	-0.469563	0.074518
C60	C	0.575959	0.030437	0.574518
C61	C	-0.000071	-0.574703	0.116462
C62	C	0.499929	-0.074703	0.616462
C63	C	-0.076093	-0.469564	0.074556
C64	C	0.423907	0.030436	0.574556
C65	C	-0.000086	-0.409790	0.113551
C66	C	0.499914	0.090210	0.613551
C67	C	0.076035	-0.514922	0.155437
C68	C	0.576035	-0.014922	0.655437
C69	C	-0.076086	-0.514929	0.155464
C70	C	0.423914	-0.014929	0.655464
C71	C	-0.000024	-0.453937	0.194476
C72	C	0.499976	0.046063	0.694476
C73	C	-0.000062	-0.669705	0.118137
C74	C	0.499938	-0.169705	0.618137
C75	C	-0.000089	-0.314789	0.111883
C76	C	0.499911	0.185211	0.611883
C77	C	-0.000072	-0.912801	-0.346663
C78	C	0.499928	-0.412801	0.153337
C79	C	-0.076117	-0.951753	-0.407671
C80	C	0.423883	-0.451753	0.092329
C81	C	-0.000085	-0.993698	-0.302533
C82	C	0.499915	-0.493698	0.197467
C83	C	0.075935	-0.951793	-0.407674
C84	C	0.575935	-0.451793	0.092326
C85	C	-0.000074	-0.990787	-0.467445
C86	C	0.499926	-0.490787	0.032555
C87	C	-0.076193	-1.032672	-0.362312
C88	C	0.423807	-0.532672	0.137688
C89	C	0.075927	-1.032701	-0.362308
C90	C	0.575927	-0.532701	0.137692
C91	C	-0.000136	-1.071711	-0.423298
C92	C	0.499864	-0.571711	0.076702
C93	C	-0.000092	-0.995372	-0.207530
C94	C	0.499908	-0.495372	0.292470
C95	C	-0.000073	-0.989119	-0.562446
C96	C	0.499927	-0.489119	-0.062446
C97	C	-0.000072	-0.986120	0.268577
C98	C	0.499928	-0.486120	0.768577
C99	C	-0.000066	-0.987782	0.361823
C100	C	0.499934	-0.487782	0.861823
H101	H	-0.442096	-0.882181	0.225096
H102	H	0.057904	-0.382181	0.725096
H103	H	0.140243	-0.449461	0.040294
H104	H	0.640243	0.050539	0.540294
H105	H	0.140394	-0.534918	0.189620
H106	H	0.640394	-0.034918	0.689620
Br107	Br	0.183078	-1.089699	-0.328767
Br108	Br	0.683078	-0.589699	0.171233
H109	H	-0.557872	-1.102474	0.004956
H110	H	-0.057872	-0.602474	0.504956
Br111	Br	0.000049	-0.398667	0.306490
Br112	Br	0.500049	0.101333	0.806490
H113	H	-0.140554	-1.066850	-0.342314
H114	H	0.359446	-0.566850	0.157686
H115	H	0.140230	-0.917575	-0.427758
H116	H	0.640230	-0.417575	0.072242
H117	H	-0.140379	-0.449469	0.040333
H118	H	0.359621	0.050531	0.540333
Br119	Br	-0.576294	-1.031390	0.297917
Br120	Br	-0.076294	-0.531390	0.797917
Br121	Br	-0.576283	-0.809397	0.075777
Br122	Br	-0.076283	-0.309397	0.575777
Br123	Br	-0.183236	-0.548471	0.212462
Br124	Br	0.316764	-0.048471	0.712462
Br125	Br	-0.423832	-0.953064	-0.067833
Br126	Br	0.076168	-0.453064	0.432167
H127	H	-0.442119	-1.132368	0.145205
H128	H	0.057881	-0.632368	0.645205
H129	H	0.000005	-0.563905	-0.031573
H130	H	0.500005	-0.063905	0.468427
H131	H	-0.000141	-0.845652	-0.313356
H132	H	0.499859	-0.345652	0.186644
Br133	Br	-0.000212	-1.183726	-0.478568
Br134	Br	0.499788	-0.683726	0.021432
Br135	Br	-0.183263	-0.894713	-0.441172
Br136	Br	0.316737	-0.394713	0.058828
