data_functionalizedCrystal
_audit_creation_method	'MofGen! by Chris Wilmer'
_symmetry_space_group_name_H-M	'P1'
_symmetry_Int_Tables_number	1
_symmetry_cell_setting	triclinic
loop_
_symmetry_equiv_pos_as_xyz
  x,y,z
_cell_length_a	8.597340
_cell_length_b	13.596369
_cell_length_c	8.559649
_cell_angle_alpha	89.998986
_cell_angle_beta	77.625043
_cell_angle_gamma	82.303879
loop_
_atom_site_label
_atom_site_type_symbol
_atom_site_fract_x
_atom_site_fract_y
_atom_site_fract_z
O1	O	2.053703	-0.092256	0.238048
O2	O	1.594580	-0.053346	0.256305
O3	O	1.864591	-0.076230	0.015207
O4	O	1.783692	-0.069372	0.479146
O5	O	1.864559	-0.239810	0.015220
O6	O	1.594548	-0.216926	0.256319
O7	O	2.053672	-0.255836	0.238061
Zn8	Zn	1.824105	-0.262353	0.247192
Zn9	Zn	1.824146	-0.046829	0.247175
O10	O	1.783661	-0.232952	0.479160
C11	C	1.536330	-0.130201	0.254350
C12	C	1.362814	-0.115495	0.248486
N13	N	1.824089	-0.409444	0.247203
C14	C	1.824096	-0.498442	0.247207
C15	C	1.824113	-0.610095	0.247196
C16	C	1.824135	-0.699087	0.247178
C17	C	1.824154	-0.810747	0.247169
C18	C	2.111922	-0.178979	0.240016
C19	C	2.285438	-0.193678	0.245881
C20	C	1.870706	-0.158538	-0.044220
C21	C	1.888955	-0.160079	-0.221315
N22	N	1.824177	0.100260	0.247151
C23	C	1.777546	-0.150642	0.538587
C24	C	1.759297	-0.149095	0.715682
H25	H	1.296307	-0.037300	0.246230
H26	H	2.013929	-0.170678	-0.302868
H27	H	1.634331	-0.138507	-0.202774
H28	H	1.351940	-0.271868	0.248125
