data_functionalizedCrystal
_audit_creation_method	'MofGen! by Chris Wilmer'
_symmetry_space_group_name_H-M	'P1'
_symmetry_Int_Tables_number	1
_symmetry_cell_setting	triclinic
loop_
_symmetry_equiv_pos_as_xyz
  x,y,z
_cell_length_a	16.109295
_cell_length_b	14.185569
_cell_length_c	16.109301
_cell_angle_alpha	103.152416
_cell_angle_beta	96.539666
_cell_angle_gamma	103.153123
loop_
_atom_site_label
_atom_site_type_symbol
_atom_site_fract_x
_atom_site_fract_y
_atom_site_fract_z
O1	O	-1.084284	0.083355	0.125686
O2	O	-0.584284	0.583355	0.625686
O3	O	-0.842218	0.083372	0.138994
O4	O	-0.342218	0.583372	0.638994
O5	O	-0.969903	0.083353	0.011307
O6	O	-0.469903	0.583353	0.511307
O7	O	-0.956599	0.083374	0.253374
O8	O	-0.456599	0.583374	0.753374
O9	O	-1.007623	-0.083487	-0.026409
O10	O	-0.507623	0.416513	0.473591
O11	O	-0.879937	-0.083468	0.101278
O12	O	-0.379937	0.416532	0.601278
O13	O	-1.122004	-0.083485	0.087970
O14	O	-0.622004	0.416515	0.587970
Cu15	Cu	-1.004414	-0.098710	0.091181
Cu16	Cu	-0.504414	0.401290	0.591181
Cu17	Cu	-0.959807	0.098598	0.135784
Cu18	Cu	-0.459807	0.598598	0.635784
O19	O	-0.994318	-0.083466	0.215658
O20	O	-0.494318	0.416534	0.715658
C21	C	-0.830102	-0.000046	0.119599
C22	C	-0.330102	0.499954	0.619599
C23	C	-0.737805	-0.000039	0.117987
C24	C	-0.237805	0.499961	0.617987
C25	C	-0.515533	-0.000044	0.189998
C26	C	-0.015533	0.499956	0.689998
C27	C	-0.428814	-0.000050	0.188474
C28	C	0.071186	0.499950	0.688474
C29	C	-0.448690	-0.000059	0.036983
C30	C	0.051310	0.499941	0.536983
C31	C	-0.535409	-0.000060	0.038506
C32	C	-0.035409	0.499940	0.538506
C33	C	-0.568827	-0.000047	0.115017
C34	C	-0.068827	0.499953	0.615017
C35	C	-0.395389	-0.000052	0.111970
C36	C	0.104611	0.499948	0.611970
C37	C	-0.301364	-0.000059	0.110318
C38	C	0.198636	0.499941	0.610318
C39	C	-0.662858	-0.000042	0.116670
C40	C	-0.162858	0.499958	0.616670
N41	N	-1.035795	-0.237486	0.059808
N42	N	-0.535795	0.262514	0.559808
C43	C	-0.836237	-0.605106	0.259285
C44	C	-0.336237	-0.105106	0.759285
C45	C	-0.860013	-0.710131	0.235527
C46	C	-0.360013	-0.210131	0.735527
C47	C	-0.973101	-0.710109	0.122501
C48	C	-0.473101	-0.210109	0.622501
C49	C	-0.949332	-0.605082	0.146248
C50	C	-0.449332	-0.105082	0.646248
C51	C	-0.880900	-0.552589	0.214641
C52	C	-0.380900	-0.052589	0.714641
C53	C	-0.993995	-0.552565	0.101603
C54	C	-0.493995	-0.052565	0.601603
C55	C	-0.970230	-0.447546	0.125351
C56	C	-0.470230	0.052454	0.625351
C57	C	-0.901802	-0.395046	0.193743
C58	C	-0.401802	0.104954	0.693743
C59	C	-0.857135	-0.447570	0.238388
C60	C	-0.357135	0.052430	0.738388
C61	C	-1.062430	-0.605060	0.033214
C62	C	-0.562430	-0.105060	0.533214
C63	C	-1.107093	-0.552543	-0.011430
C64	C	-0.607093	-0.052543	0.488570
C65	C	-1.083325	-0.447523	0.012313
C66	C	-0.583325	0.052477	0.512313
C67	C	-1.014897	-0.395022	0.080705
C68	C	-0.514897	0.104978	0.580705
C69	C	-1.127992	-0.394998	-0.032332
C70	C	-0.627992	0.105002	0.467668
C71	C	-1.104227	-0.289980	-0.008585
C72	C	-0.604227	0.210020	0.491415
C73	C	-0.991132	-0.290004	0.104453
C74	C	-0.491132	0.209996	0.604453
C75	C	-0.134118	-0.000064	0.107372
C76	C	0.365882	0.499936	0.607372
C77	C	-0.226411	-0.000060	0.109001
C78	C	0.273589	0.499940	0.609001
C79	C	-0.988224	-0.000068	-0.038526
C80	C	-0.488224	0.499932	0.461474
C81	C	-0.986609	-0.000069	-0.130822
C82	C	-0.486609	0.499931	0.369178
N83	N	-0.928433	0.237373	0.167150
N84	N	-0.428433	0.737373	0.667150
C85	C	-1.058615	-0.000058	-0.353093
C86	C	-0.558615	0.499942	0.146907
C87	C	-1.057089	-0.000050	-0.439812
C88	C	-0.557089	0.499950	0.060188
C89	C	-0.905598	-0.000043	-0.419933
C90	C	-0.405598	0.499957	0.080067
C91	C	-0.907123	-0.000044	-0.333214
C92	C	-0.407123	0.499956	0.166786
C93	C	-0.983635	-0.000057	-0.299798
C94	C	-0.483635	0.499943	0.200202
C95	C	-0.980584	-0.000047	-0.473235
C96	C	-0.480584	0.499953	0.026765
C97	C	-0.978929	-0.000038	-0.567259
C98	C	-0.478929	0.499962	-0.067259
C99	C	-0.985290	-0.000064	-0.205768
C100	C	-0.485290	0.499936	0.294232
C101	C	-0.975997	-0.000043	0.265491
C102	C	-0.475997	0.499957	0.765491
C103	C	-0.977610	-0.000035	0.357788
C104	C	-0.477610	0.499965	0.857788
H105	H	-0.935402	-0.247261	0.160139
H106	H	-0.435402	0.252739	0.660139
F107	F	-0.413116	-0.000068	-0.044440
F108	F	0.086884	0.499932	0.455560
H109	H	-1.140598	-0.247220	-0.044939
H110	H	-0.640598	0.252780	0.455061
F111	F	-0.812470	-0.766017	0.283053
F112	F	-0.312470	-0.266017	0.783053
F113	F	-0.551097	-0.000034	0.271427
F114	F	-0.051097	0.499966	0.771427
H115	H	-0.385425	-0.000049	0.249531
H116	H	0.114575	0.499951	0.749531
F117	F	-0.876513	-0.283275	0.219020
F118	F	-0.376513	0.216725	0.719020
F119	F	-1.045932	-0.765985	0.049716
F120	F	-0.545932	-0.265985	0.549716
F121	F	-0.592134	-0.000071	-0.041305
F122	F	-0.092134	0.499929	0.458695
F123	F	-0.824173	-0.000029	-0.455504
F124	F	-0.324173	0.499971	0.044496
F125	F	-1.200828	-0.450876	-0.105112
F126	F	-0.700828	0.049124	0.394888
H127	H	-1.118144	-0.000049	-0.483201
H128	H	-0.618144	0.499951	0.016799
H129	H	-0.801405	-0.404828	0.294075
H130	H	-0.301405	0.095172	0.794075
F131	F	-0.763395	-0.549236	0.332070
F132	F	-0.263395	-0.049236	0.832070
H133	H	-1.081780	-0.690572	0.013884
H134	H	-0.581780	-0.190572	0.513884
H135	H	-1.120915	-0.000066	-0.325889
H136	H	-0.620915	0.499934	0.174111
F137	F	-0.827314	-0.000035	-0.276488
F138	F	-0.327314	0.499965	0.223512
H139	H	-1.162814	-0.595295	-0.067115
H140	H	-0.662814	-0.095295	0.432885
