data_functionalizedCrystal
_audit_creation_method	'MofGen! by Chris Wilmer'
_symmetry_space_group_name_H-M	'P1'
_symmetry_Int_Tables_number	1
_symmetry_cell_setting	triclinic
loop_
_symmetry_equiv_pos_as_xyz
  x,y,z
_cell_length_a	10.540510
_cell_length_b	10.540510
_cell_length_c	8.140239
_cell_angle_alpha	89.998951
_cell_angle_beta	89.997029
_cell_angle_gamma	84.513311
loop_
_atom_site_label
_atom_site_type_symbol
_atom_site_fract_x
_atom_site_fract_y
_atom_site_fract_z
O1	O	1.685887	0.178721	-0.136614
O2	O	1.316467	0.195616	-0.136614
O3	O	1.509625	0.002459	-0.136613
O4	O	1.492729	0.371878	-0.136615
O5	O	1.509614	0.002456	0.136614
O6	O	1.316457	0.195614	0.136613
O7	O	1.685876	0.178719	0.136613
Zn8	Zn	1.501165	0.187166	0.179994
Zn9	Zn	1.501179	0.187169	-0.179995
O10	O	1.492719	0.371876	0.136612
C11	C	1.269159	0.194356	-0.000001
C12	C	1.128209	0.190589	-0.000001
C13	C	0.910739	0.324775	-0.000629
C14	C	1.057334	0.328793	-0.000003
C15	C	1.083451	0.119841	0.156021
C16	C	0.936690	0.116802	0.156142
C17	C	0.936896	0.113926	-0.154568
C18	C	1.083237	0.120481	-0.156620
C19	C	1.508361	-0.044846	-0.000003
C20	C	1.504594	-0.185795	-0.000013
C21	C	1.638780	-0.403265	0.000613
C22	C	1.642798	-0.256670	-0.000012
C23	C	1.433853	-0.230545	-0.156036
C24	C	1.430814	-0.377306	-0.156158
C25	C	1.427923	-0.377117	0.154552
C26	C	1.434478	-0.230776	0.156606
C27	C	1.733185	0.179979	-0.000004
C28	C	1.874135	0.183746	-0.000014
C29	C	1.493983	0.419181	-0.000001
C30	C	1.497750	0.560130	-0.000002
N31	N	1.501164	0.187163	0.425676
N32	N	1.501189	0.187162	-0.425677
H33	H	1.086679	0.384141	-0.111851
H34	H	1.332110	-0.183145	-0.161838
Cl35	Cl	1.127477	0.199913	-0.334835
Cl36	Cl	1.158998	-0.035308	-0.171164
H37	H	1.482989	-0.199693	-0.272148
H38	H	1.692618	-0.445227	0.112505
Cl39	Cl	1.513937	-0.186600	0.334819
H40	H	1.471838	-0.419304	0.272818
H41	H	0.868784	0.378619	-0.112522
H42	H	1.333578	-0.181699	0.166027
H43	H	0.867222	0.378307	0.110629
H44	H	1.085728	0.384475	0.112027
Cl45	Cl	0.874577	0.191453	0.336202
H46	H	0.914753	0.010163	-0.155622
H47	H	0.913706	0.013434	0.163230
H48	H	1.324159	-0.399256	0.155603
H49	H	1.130851	0.018098	0.161825
Cl50	Cl	1.728224	-0.211366	0.172687
H51	H	1.114295	0.168972	0.272133
H52	H	0.894348	0.157510	-0.272826
Cl53	Cl	1.721442	-0.470437	-0.171162
H54	H	1.698478	-0.228270	-0.112047
Cl55	Cl	1.505477	-0.439409	-0.336216
H56	H	1.327445	-0.400290	-0.163227
