data_functionalizedCrystal
_audit_creation_method	'MofGen! by Chris Wilmer'
_symmetry_space_group_name_H-M	'P1'
_symmetry_Int_Tables_number	1
_symmetry_cell_setting	triclinic
loop_
_symmetry_equiv_pos_as_xyz
  x,y,z
_cell_length_a	19.077269
_cell_length_b	21.395361
_cell_length_c	21.395355
_cell_angle_alpha	90.021511
_cell_angle_beta	92.275200
_cell_angle_gamma	92.266001
loop_
_atom_site_label
_atom_site_type_symbol
_atom_site_fract_x
_atom_site_fract_y
_atom_site_fract_z
Zn1	Zn	1.075940	0.287971	-0.315737
Zn2	Zn	1.075830	0.392727	-0.210958
Zn3	Zn	0.958237	0.283764	-0.215187
Zn4	Zn	0.958203	0.388506	-0.319909
O5	O	1.017053	0.338242	-0.265448
O6	O	1.174412	0.305394	-0.298323
O7	O	1.060200	0.378279	-0.123842
O8	O	0.973911	0.196646	-0.228549
O9	O	1.174331	0.382358	-0.221342
O10	O	1.060387	0.199737	-0.302423
O11	O	0.973805	0.298224	-0.126949
O12	O	0.859746	0.294131	-0.232594
O13	O	0.973852	0.375164	-0.407032
O14	O	0.859721	0.371085	-0.309533
O15	O	1.060353	0.301302	-0.403967
O16	O	1.060166	0.479843	-0.225387
O17	O	0.973746	0.476742	-0.305432
C18	C	0.834197	0.331694	-0.271975
C19	C	0.755971	0.328908	-0.274782
C20	C	1.016960	0.501026	-0.265416
C21	C	1.016984	0.570669	-0.265421
C22	C	1.017165	0.174823	-0.265492
C23	C	1.017213	0.105183	-0.265512
C24	C	0.719175	0.367604	-0.235962
C25	C	0.645673	0.364986	-0.238608
C26	C	0.608968	0.323668	-0.280072
C27	C	0.645769	0.284970	-0.318896
C28	C	0.719270	0.287591	-0.316253
C29	C	0.389150	0.311541	-0.292284
C30	C	0.315644	0.308921	-0.294923
C31	C	0.315553	0.388939	-0.214636
C32	C	0.389055	0.391554	-0.211993
C33	C	0.425850	0.352858	-0.250820
N34	N	0.533838	0.320990	-0.282776
N35	N	0.500979	0.355540	-0.248119
C36	C	1.200622	0.344816	-0.258895
C37	C	1.278848	0.347618	-0.256103
C38	C	1.017111	0.338232	-0.428869
C39	C	1.017136	0.338227	-0.498509
C40	C	1.062023	0.604977	-0.223781
C41	C	1.062056	0.670414	-0.223794
C42	C	1.017037	0.701539	-0.265441
C43	C	0.971995	0.667222	-0.307089
C44	C	0.971969	0.601787	-0.307079
C45	C	0.953668	0.802989	-0.272619
C46	C	0.953693	0.868423	-0.272625
C47	C	1.017119	0.903362	-0.265475
C48	C	1.080522	0.872860	-0.258306
C49	C	1.080495	0.807425	-0.258297
C50	C	1.017061	0.772492	-0.265456
C51	C	1.062198	1.008625	-0.223846
C52	C	1.062231	1.074063	-0.223864
C53	C	0.972164	1.070870	-0.307155
C54	C	0.972137	1.005434	-0.307141
C55	C	1.017152	0.974315	-0.265483
C56	C	1.062175	0.299765	-0.529628
C57	C	1.062174	0.299738	-0.595063
C58	C	1.017141	0.338185	-0.629378
C59	C	0.972094	0.376649	-0.598252
C60	C	0.972091	0.376670	-0.532818
C61	C	1.011552	0.394400	-0.733240
C62	C	1.011560	0.394380	-0.798673
C63	C	1.017146	0.338118	-0.831198
C64	C	1.022739	0.281876	-0.798282
C65	C	1.022736	0.281897	-0.732848
C66	C	1.017139	0.338165	-0.700330
C67	C	1.062186	0.299624	-0.933269
C68	C	1.062180	0.299596	-0.998706
C69	C	0.972104	0.376513	-1.001893
C70	C	0.972106	0.376535	-0.936458
C71	C	1.017151	0.338092	-0.902149
C72	C	1.017035	0.338209	-0.102661
C73	C	1.017146	0.338042	-0.033016
H74	H	0.615717	0.396497	-0.206996
C75	C	0.275274	0.263460	-0.340533
C76	C	0.224763	0.212423	-0.315281
C77	C	0.184395	0.166959	-0.360883
C78	C	0.194539	0.172531	-0.431738
C79	C	0.245052	0.223570	-0.456993
C80	C	0.285420	0.269035	-0.411391
H81	H	0.217252	0.208296	-0.262827
H82	H	0.147002	0.129176	-0.342187
H83	H	0.164657	0.138875	-0.465495
H84	H	0.252563	0.227697	-0.509447
H85	H	0.322813	0.306817	-0.430087
H86	H	0.935342	0.692569	-0.340999
C87	C	1.005486	0.456246	-0.697367
C88	C	0.940524	0.495873	-0.708521
C89	C	0.934494	0.557693	-0.672601
C90	C	0.993426	0.579887	-0.625527
C91	C	1.058393	0.540259	-0.614370
C92	C	1.064423	0.478439	-0.650290
H93	H	0.896894	0.479444	-0.743371
H94	H	0.886401	0.587027	-0.680861
H95	H	0.988963	0.625650	-0.598936
H96	H	1.102023	0.556688	-0.579520
H97	H	1.112516	0.449104	-0.642031
H98	H	0.935512	1.096211	-0.341068
H99	H	0.285587	0.420444	-0.183026
C100	C	0.922547	0.418985	-0.498585
C101	C	0.842543	0.411003	-0.510417
C102	C	0.792999	0.453318	-0.476184
C103	C	0.823459	0.503617	-0.430119
C104	C	0.903467	0.511601	-0.418286
C105	C	0.953011	0.469285	-0.452518
H106	H	0.819991	0.373767	-0.544518
H107	H	0.733772	0.447408	-0.484944
H108	H	0.786784	0.534942	-0.404778
H109	H	0.926019	0.548837	-0.384184
H110	H	1.012239	0.475196	-0.443758
C111	C	0.883953	0.901972	-0.280506
C112	C	0.883977	0.973948	-0.280511
C113	C	0.814235	1.007495	-0.288391
C114	C	0.744469	0.969066	-0.296266
C115	C	0.744442	0.897086	-0.296261
C116	C	0.814184	0.863539	-0.288381
H117	H	0.935625	1.002398	-0.274681
H118	H	0.814256	1.060779	-0.288394
H119	H	0.692841	0.993900	-0.302099
H120	H	0.692794	0.868635	-0.302091
H121	H	0.814164	0.810254	-0.288378
H122	H	0.418935	0.425199	-0.178228
H123	H	1.027288	0.236102	-0.706051
C124	C	0.429609	0.268971	-0.334994
C125	C	0.419533	0.273832	-0.406572
C126	C	0.459992	0.231258	-0.449286
C127	C	0.510528	0.183824	-0.420422
C128	C	0.520607	0.178961	-0.348840
C129	C	0.480148	0.221535	-0.306126
H130	H	0.382121	0.308947	-0.427942
H131	H	0.452530	0.234858	-0.502275
H132	H	0.540478	0.152309	-0.452041
H133	H	0.558019	0.143846	-0.327470
H134	H	0.487610	0.217935	-0.253137
H135	H	0.615878	0.251331	-0.352660
H136	H	1.098861	0.268317	-0.905334
C137	C	0.922560	0.418804	-1.039626
C138	C	0.953013	0.469075	-1.083529
C139	C	0.903463	0.511365	-1.121263
C140	C	0.823460	0.503384	-1.115093
C141	C	0.793003	0.453110	-1.071188
C142	C	0.842553	0.410820	-1.033454
H143	H	1.012240	0.474985	-1.088098
H144	H	0.926010	0.548581	-1.153765
H145	H	0.786780	0.534689	-1.143026
H146	H	0.733776	0.447200	-1.066619
H147	H	0.820006	0.373604	-1.000953
C148	C	0.759748	0.245023	-0.358955
C149	C	0.719378	0.199572	-0.404564
C150	C	0.759855	0.157005	-0.447270
C151	C	0.840703	0.159889	-0.444367
C152	C	0.881078	0.205342	-0.398756
C153	C	0.840600	0.247909	-0.356050
H154	H	0.659525	0.197436	-0.406714
H155	H	0.729966	0.123358	-0.481034
H156	H	0.870667	0.128379	-0.475980
H157	H	0.940930	0.207478	-0.396606
H158	H	0.870489	0.281556	-0.322286
C159	C	0.883895	0.764556	-0.280484
C160	C	0.861185	0.718804	-0.228855
C161	C	0.791417	0.680371	-0.236721
C162	C	0.744357	0.687691	-0.296216
C163	C	0.767066	0.733444	-0.347850
C164	C	0.836835	0.771877	-0.339984
H165	H	0.896022	0.713384	-0.184808
H166	H	0.774606	0.646501	-0.198498
H167	H	0.692710	0.659240	-0.302039
H168	H	0.732229	0.738864	-0.391896
H169	H	0.853645	0.805747	-0.378207
C170	C	1.111726	0.257433	-0.629304
C171	C	1.161274	0.215149	-0.591567
C172	C	1.210827	0.172846	-0.625805
C173	C	1.210832	0.172827	-0.697779
C174	C	1.161282	0.215112	-0.735520
C175	C	1.111729	0.257415	-0.701283
H176	H	1.161272	0.215162	-0.538283
H177	H	1.247508	0.141544	-0.597866
H178	H	1.247515	0.141512	-0.723124
H179	H	1.161284	0.215100	-0.788804
H180	H	1.075049	0.288718	-0.729221
H181	H	0.749055	0.401248	-0.202195
H182	H	0.935434	0.407859	-0.911121
H183	H	1.027289	0.236062	-0.824763
H184	H	1.098735	0.698353	-0.189886
C185	C	1.111547	0.570751	-0.177963
C186	C	1.105846	0.579591	-0.106937
C187	C	1.155371	0.545364	-0.061119
C188	C	1.210597	0.502297	-0.086326
C189	C	1.216300	0.493455	-0.157356
C190	C	1.166775	0.527682	-0.203174
H191	H	1.064963	0.611473	-0.088273
H192	H	1.151150	0.551909	-0.008538
H193	H	1.247258	0.476960	-0.052409
H194	H	1.257183	0.461573	-0.176020
H195	H	1.170996	0.521136	-0.255755
H196	H	1.132119	0.782592	-0.252462
H197	H	1.098854	0.983287	-0.189928
H198	H	1.132169	0.901307	-0.252485
C199	C	1.111724	0.257282	-1.032939
C200	C	1.161269	0.214998	-0.995198
C201	C	1.210812	0.172683	-1.029432
C202	C	1.210812	0.172651	-1.101407
C203	C	1.161266	0.214937	-1.139152
C204	C	1.111722	0.257252	-1.104918
H205	H	1.161271	0.215020	-0.941914
H206	H	1.247490	0.141380	-1.001490
H207	H	1.247487	0.141327	-1.126749
H208	H	1.161264	0.214915	-1.192436
H209	H	1.075045	0.288555	-1.132860
C210	C	1.005330	0.456292	-0.834783
C211	C	1.064126	0.478783	-0.877679
C212	C	1.057858	0.540719	-0.913742
C213	C	0.992795	0.580164	-0.906908
C214	C	0.933995	0.557673	-0.864010
C215	C	0.940263	0.495737	-0.827947
H216	H	1.112293	0.449583	-0.882739
H217	H	1.101386	0.557368	-0.945498
H218	H	0.988156	0.626012	-0.933604
H219	H	0.885827	0.586873	-0.858950
H220	H	0.896734	0.479088	-0.796191
H221	H	1.098912	1.101996	-0.189956
H222	H	0.935459	0.977498	-0.341046
H223	H	0.935425	0.407950	-0.626195
H224	H	0.935292	0.573853	-0.340988
H225	H	1.098853	0.268461	-0.501698
