data_functionalizedCrystal
_audit_creation_method	'MofGen! by Chris Wilmer'
_symmetry_space_group_name_H-M	'P1'
_symmetry_Int_Tables_number	1
_symmetry_cell_setting	triclinic
loop_
_symmetry_equiv_pos_as_xyz
  x,y,z
_cell_length_a	10.540539
_cell_length_b	14.044220
_cell_length_c	12.503552
_cell_angle_alpha	86.160109
_cell_angle_beta	86.442701
_cell_angle_gamma	91.142815
loop_
_atom_site_label
_atom_site_type_symbol
_atom_site_fract_x
_atom_site_fract_y
_atom_site_fract_z
O1	O	0.299547	-1.265199	0.089197
O2	O	0.799547	-0.765199	0.589197
O3	O	0.288494	-0.989157	0.089224
O4	O	0.788494	-0.489157	0.589224
O5	O	0.109951	-1.133476	0.089209
O6	O	0.609951	-0.633476	0.589209
O7	O	0.478090	-1.120880	0.089213
O8	O	0.978090	-0.620880	0.589213
O9	O	0.123390	-1.122609	-0.089433
O10	O	0.623390	-0.622609	0.410567
O11	O	0.301933	-0.978291	-0.089417
O12	O	0.801933	-0.478291	0.410583
O13	O	0.312986	-1.254333	-0.089444
O14	O	0.812986	-0.754333	0.410556
Cu15	Cu	0.308687	-1.115320	-0.105742
Cu16	Cu	0.808687	-0.615320	0.394258
Cu17	Cu	0.292794	-1.128170	0.105522
Cu18	Cu	0.792794	-0.628170	0.605522
O19	O	0.491529	-1.110014	-0.089429
O20	O	0.991529	-0.610014	0.410571
C21	C	0.290375	-0.948377	-0.000093
C22	C	0.790375	-0.448377	0.499907
C23	C	0.275945	-0.843054	-0.000082
C24	C	0.775945	-0.343054	0.499918
C25	C	0.069272	-1.127098	-0.000110
C26	C	0.569272	-0.627098	0.499890
C27	C	-0.071962	-1.124272	-0.000104
C28	C	0.428038	-0.624272	0.499896
N29	N	0.319865	-1.106288	-0.254334
N30	N	0.819865	-0.606288	0.245666
C31	C	-0.266368	-1.016008	0.000308
C32	C	0.233632	-0.516008	0.500308
C33	C	-0.119430	-1.018848	-0.000095
C34	C	0.380570	-0.518848	0.499905
C35	C	-0.120816	-1.168802	-0.102122
C36	C	0.379184	-0.668802	0.397878
C37	C	-0.267718	-1.165199	-0.102207
C38	C	0.232282	-0.665199	0.397793
C39	C	-0.283302	-1.179700	0.100941
C40	C	0.216698	-0.679700	0.600941
C41	C	-0.136323	-1.180753	0.102290
C42	C	0.363677	-0.680753	0.602290
C43	C	0.532208	-1.116392	-0.000108
C44	C	1.032208	-0.616392	0.499892
C45	C	0.673442	-1.119218	-0.000107
C46	C	1.173442	-0.619218	0.499893
C47	C	0.311105	-1.295113	-0.000125
C48	C	0.811105	-0.795113	0.499875
C49	C	0.325535	-1.400436	-0.000129
C50	C	0.825535	-0.900436	0.499871
C51	C	0.249566	-0.650213	-0.000104
C52	C	0.749566	-0.150213	0.499896
C53	C	0.351908	-0.593272	-0.000107
C54	C	0.851908	-0.093272	0.499893
C55	C	0.337231	-0.485969	-0.000119
C56	C	0.837231	0.014031	0.499881
C57	C	0.264241	-0.757526	-0.000092
C58	C	0.764241	-0.257526	0.499908
C59	C	0.265158	-1.150490	-0.526772
C60	C	0.765158	-0.650490	-0.026772
C61	C	0.336310	-1.093011	-0.473441
C62	C	0.836310	-0.593011	0.026559
C63	C	0.327157	-1.100400	-0.351519
C64	C	0.827157	-0.600400	0.148481
C65	C	0.274308	-1.143101	-0.648706
C66	C	0.774308	-0.643101	-0.148706
N67	N	0.281606	-1.137209	0.254114
N68	N	0.781606	-0.637209	0.754114
H69	H	-0.304682	-0.978813	0.073467
H70	H	0.195318	-0.478813	0.573467
N71	N	0.175361	-1.223006	-0.465953
N72	N	0.675361	-0.723006	0.034047
H73	H	0.225208	-1.268137	-0.419285
H74	H	0.725208	-0.768137	0.080715
H75	H	0.129154	-1.260277	-0.518584
H76	H	0.629154	-0.760277	-0.018584
H77	H	-0.086364	-0.983376	0.073036
H78	H	0.413636	-0.483376	0.573036
N79	N	0.118915	-0.608038	-0.000113
N80	N	0.618915	-0.108038	0.499887
H81	H	0.103302	-0.571451	0.066106
H82	H	0.603302	-0.071451	0.566106
H83	H	0.052729	-0.661033	-0.000148
H84	H	0.552729	-0.161033	0.499852
N85	N	-0.094589	-1.137720	0.202258
N86	N	0.405411	-0.637720	0.702258
H87	H	0.000857	-1.141173	0.204296
H88	H	0.500857	-0.641173	0.704296
H89	H	-0.136371	-1.174363	0.267797
H90	H	0.363629	-0.674363	0.767797
H91	H	-0.295296	-0.970108	-0.072433
H92	H	0.204704	-0.470108	0.427567
H93	H	0.404099	-1.038252	-0.519351
H94	H	0.904099	-0.538252	-0.019351
H95	H	-0.293972	-1.123065	-0.178461
H96	H	0.206028	-0.623065	0.321539
N97	N	-0.062189	-0.959704	-0.097116
N98	N	0.437811	-0.459704	0.402884
H99	H	-0.132421	-0.931689	-0.139793
H100	H	0.367579	-0.431689	0.360207
H101	H	-0.008399	-1.001460	-0.143520
H102	H	0.491601	-0.501460	0.356480
H103	H	-0.307673	-1.240737	-0.106843
H104	H	0.192327	-0.740737	0.393157
N105	N	-0.094575	-1.283066	0.110440
N106	N	0.405425	-0.783066	0.610440
H107	H	-0.137428	-1.317528	0.176923
H108	H	0.362572	-0.817528	0.676923
H109	H	0.000712	-1.284481	0.114946
H110	H	0.500712	-0.784481	0.614946
N111	N	-0.080483	-1.271055	-0.107128
N112	N	0.419517	-0.771055	0.392872
H113	H	0.015371	-1.273480	-0.110370
H114	H	0.515371	-0.773480	0.389630
H115	H	-0.112999	-1.298201	-0.173319
H116	H	0.387001	-0.798201	0.326681
N117	N	-0.061534	-1.116021	-0.202681
N118	N	0.438466	-0.616021	0.297319
H119	H	-0.003030	-1.063260	-0.182386
H120	H	0.496970	-0.563260	0.317614
H121	H	-0.130675	-1.087709	-0.246406
H122	H	0.369325	-0.587709	0.253594
N123	N	-0.337370	-1.140742	0.203368
N124	N	0.162630	-0.640742	0.703368
H125	H	-0.390461	-1.083487	0.185302
H126	H	0.109539	-0.583487	0.685302
H127	H	-0.265524	-1.121112	0.247638
H128	H	0.234476	-0.621112	0.747638
N129	N	-0.335720	-1.280622	0.101848
N130	N	0.164280	-0.780622	0.601848
H131	H	-0.387240	-1.287177	0.037158
H132	H	0.112760	-0.787177	0.537158
H133	H	-0.391788	-1.295718	0.169566
H134	H	0.108212	-0.795718	0.669566
H135	H	0.450550	-0.625111	-0.000101
H136	H	0.950550	-0.125111	0.499899
