data_functionalizedCrystal
_audit_creation_method	'MofGen! by Chris Wilmer'
_symmetry_space_group_name_H-M	'P1'
_symmetry_Int_Tables_number	1
_symmetry_cell_setting	triclinic
loop_
_symmetry_equiv_pos_as_xyz
  x,y,z
_cell_length_a	10.489746
_cell_length_b	15.995350
_cell_length_c	14.472310
_cell_angle_alpha	89.998838
_cell_angle_beta	90.010138
_cell_angle_gamma	84.016838
loop_
_atom_site_label
_atom_site_type_symbol
_atom_site_fract_x
_atom_site_fract_y
_atom_site_fract_z
O1	O	-1.692413	-0.118146	-0.076774
O2	O	-1.321063	-0.129230	-0.076789
O3	O	-1.516889	-0.001862	-0.076780
O4	O	-1.496587	-0.245514	-0.076783
O5	O	-1.516839	-0.001869	0.076902
O6	O	-1.321013	-0.129237	0.076893
O7	O	-1.692363	-0.118153	0.076908
Cu8	Cu	-1.506683	-0.123696	0.090933
Cu9	Cu	-1.506743	-0.123687	-0.090814
O10	O	-1.496537	-0.245521	0.076899
C11	C	-1.516025	0.029335	0.000059
C12	C	-1.513509	0.122300	0.000054
C13	C	-1.273518	-0.128395	0.000050
C14	C	-1.131924	-0.125888	0.000044
C15	C	-1.739908	-0.118988	0.000067
C16	C	-1.881502	-0.121495	0.000067
C17	C	-0.980221	-0.043363	0.000058
C18	C	-1.057013	-0.084626	0.075828
C19	C	-1.057018	-0.084638	-0.075690
C20	C	-0.956428	-0.162725	0.075900
C21	C	-0.956428	-0.162726	-0.075687
C22	C	-1.033170	-0.204046	0.000102
C23	C	-1.497401	-0.276718	0.000058
C24	C	-1.499918	-0.369683	0.000057
N25	N	-1.506651	-0.123701	0.218764
C26	C	-1.504472	0.460102	0.000057
C27	C	-1.365008	0.413511	-0.000294
C28	C	-1.367525	0.316805	0.000053
C29	C	-1.508954	0.292515	0.000055
C30	C	-1.577714	0.333172	0.087816
C31	C	-1.574211	0.429829	0.087889
C32	C	-1.577149	0.430178	-0.086876
C33	C	-1.577116	0.333233	-0.088036
C34	C	-1.511495	0.197802	0.000057
C35	C	-1.501935	0.554815	0.000061
N36	N	-1.506786	-0.123675	-0.218645
C37	C	-1.506741	-0.123684	0.592855
C38	C	-1.401607	-0.191603	0.553685
C39	C	-1.401850	-0.191855	0.446597
C40	C	-1.506695	-0.123693	0.407264
C41	C	-1.639780	-0.143578	0.446106
C42	C	-1.639189	-0.144062	0.553228
C43	C	-1.479978	-0.035683	0.553384
C44	C	-1.476925	-0.036250	0.446257
C45	C	-1.506678	-0.123696	0.302376
C46	C	-1.506768	-0.123683	0.697743
H47	H	-0.956451	0.024575	0.000135
C48	C	-1.267531	-0.175703	0.588539
N49	N	-1.166544	-0.163730	0.614803
C50	C	-1.424946	-0.280055	0.411962
N51	N	-1.442351	-0.346489	0.385877
C52	C	-1.515574	0.458298	-0.176739
N53	N	-1.469181	0.479477	-0.244419
C54	C	-1.424374	-0.279308	0.590037
N55	N	-1.441526	-0.345366	0.617418
C56	C	-1.748000	-0.078574	0.411683
N57	N	-1.829510	-0.029612	0.385754
H58	H	-1.663928	-0.207055	0.419270
H59	H	-1.719866	-0.096587	0.579138
C60	C	-1.573675	0.035314	0.410110
N61	N	-1.646566	0.089213	0.382893
H62	H	-1.529916	0.305077	0.153123
C63	C	-1.344663	-0.015888	0.411967
N64	N	-1.245041	-0.000555	0.386137
C65	C	-1.583547	0.032613	0.587610
N66	N	-1.661557	0.084048	0.613395
H67	H	-1.302925	-0.179888	0.420337
C68	C	-1.351691	-0.010137	0.589912
N69	N	-1.255059	0.009094	0.617424
H70	H	-1.680254	0.317248	-0.093333
C71	C	-1.116349	-0.040071	0.162370
N72	N	-1.161037	-0.006508	0.227550
C73	C	-0.897055	-0.207237	-0.162234
N74	N	-0.852333	-0.240756	-0.227429
H75	H	-1.662774	-0.208266	0.578204
H76	H	-1.056695	-0.272036	0.000143
C77	C	-1.116354	-0.040057	-0.162234
N78	N	-1.161042	-0.006474	-0.227416
C79	C	-1.294493	0.278851	-0.084933
N80	N	-1.239476	0.250267	-0.148944
C81	C	-0.897314	-0.207253	0.162544
N82	N	-0.852786	-0.240787	0.227805
C83	C	-1.289719	0.439014	-0.085310
N84	N	-1.233009	0.458231	-0.149345
C85	C	-1.718075	0.313225	0.092242
N86	N	-1.823792	0.298193	0.095578
C87	C	-1.293961	0.279598	0.085184
N88	N	-1.238551	0.251575	0.149310
C89	C	-1.290022	0.440404	0.084269
N90	N	-1.233551	0.460653	0.147970
H91	H	-1.524028	0.448431	0.153490
H92	H	-1.676601	0.461459	0.091872
C93	C	-1.716059	0.472251	-0.087675
N94	N	-1.820681	0.503946	-0.088271
C95	C	-1.509265	0.296788	-0.175748
N96	N	-1.458147	0.269339	-0.241811
