data_functionalizedCrystal
_audit_creation_method	'MofGen! by Chris Wilmer'
_symmetry_space_group_name_H-M	'P1'
_symmetry_Int_Tables_number	1
_symmetry_cell_setting	triclinic
loop_
_symmetry_equiv_pos_as_xyz
  x,y,z
_cell_length_a	11.792241
_cell_length_b	19.188924
_cell_length_c	10.868271
_cell_angle_alpha	89.992800
_cell_angle_beta	89.999893
_cell_angle_gamma	83.667690
loop_
_atom_site_label
_atom_site_type_symbol
_atom_site_fract_x
_atom_site_fract_y
_atom_site_fract_z
O1	O	1.505472	0.095695	-0.102209
O2	O	1.174983	0.105558	-0.102238
O3	O	1.349769	-0.000975	-0.102208
O4	O	1.330686	0.202229	-0.102239
O5	O	1.349755	-0.000980	0.102436
O6	O	1.174969	0.105554	0.102406
O7	O	1.505458	0.095691	0.102436
Zn8	Zn	1.340211	0.100622	0.134913
Zn9	Zn	1.340230	0.100627	-0.134715
O10	O	1.330672	0.202224	0.102406
C11	C	1.132694	0.104936	0.000081
C12	C	1.006708	0.103082	0.000070
C13	C	0.776047	0.099672	0.000106
C14	C	0.904404	0.101567	0.000086
C15	C	1.349145	-0.026992	0.000115
C16	C	1.347294	-0.104507	0.000118
C17	C	1.346438	-0.140909	-0.111434
C18	C	1.344682	-0.213741	-0.111443
C19	C	1.343806	-0.250172	0.000106
C20	C	1.344656	-0.213761	0.111673
C21	C	1.346400	-0.140929	0.111679
N22	N	1.405648	-0.369486	0.083134
N23	N	1.403994	-0.438674	0.083121
C24	C	1.338549	-0.469610	0.000093
N25	N	1.274835	-0.428747	-0.082939
N26	N	1.276495	-0.359553	-0.082929
C27	C	1.341914	-0.329146	0.000111
C28	C	1.335788	-0.584985	-0.111477
C29	C	1.334025	-0.657819	-0.111482
C30	C	1.334010	-0.657838	0.111637
C31	C	1.335761	-0.585005	0.111639
C32	C	1.336655	-0.548583	0.000078
C33	C	1.547747	0.096313	0.000114
C34	C	1.673733	0.098167	0.000117
C35	C	1.331296	0.228241	0.000080
C36	C	1.333147	0.305756	0.000068
N37	N	1.340207	0.100618	0.318927
N38	N	1.340243	0.100626	-0.318729
C39	C	1.340224	0.100626	0.569933
C40	C	1.340211	0.100623	0.430255
H41	H	1.347163	-0.111259	-0.202275
O42	O	1.343960	-0.249082	0.220109
C43	C	1.442663	-0.238842	0.287977
H44	H	1.476694	-0.188470	0.256270
H45	H	1.510499	-0.285108	0.272516
C46	C	1.371079	-0.295071	0.464774
C47	C	1.412871	-0.233199	0.425837
H48	H	1.352705	-0.291593	0.549813
H49	H	1.304583	-0.301972	0.419049
H50	H	1.427616	-0.333620	0.451879
H51	H	1.356330	-0.194653	0.438717
H52	H	1.479358	-0.226291	0.471568
O53	O	1.347037	-0.105518	0.220013
C54	C	1.249793	-0.055837	0.226665
H55	H	1.180583	-0.072510	0.163353
H56	H	1.273340	-0.002342	0.196696
C57	C	1.290252	-0.030828	0.437698
C58	C	1.205245	-0.051310	0.359945
H59	H	1.262775	-0.028033	0.519912
H60	H	1.355770	-0.064297	0.433217
H61	H	1.309868	0.013749	0.412710
H62	H	1.185641	-0.095890	0.384925
H63	H	1.139722	-0.017848	0.364434
H64	H	1.336509	-0.555329	-0.202316
O65	O	1.333258	-0.693078	-0.219960
C66	C	1.334401	-0.645309	-0.318417
H67	H	1.371555	-0.596148	-0.285696
H68	H	1.243565	-0.630580	-0.352750
C69	C	1.362532	-0.739811	-0.463976
C70	C	1.408174	-0.679434	-0.423790
H71	H	1.408034	-0.760862	-0.528979
H72	H	1.361757	-0.771995	-0.397645
H73	H	1.286836	-0.727529	-0.492579
H74	H	1.483863	-0.691719	-0.395174
H75	H	1.408963	-0.647253	-0.490119
O76	O	1.336457	-0.549708	0.220082
C77	C	1.237743	-0.559958	0.287929
H78	H	1.203710	-0.610322	0.256202
H79	H	1.169914	-0.513686	0.272468
C80	C	1.309313	-0.503772	0.464754
C81	C	1.267518	-0.565632	0.425793
H82	H	1.327676	-0.507269	0.549796
H83	H	1.375817	-0.496863	0.419043
H84	H	1.252782	-0.465218	0.451859
H85	H	1.324054	-0.604183	0.438674
H86	H	1.201024	-0.572547	0.471510
H87	H	1.343978	-0.243385	-0.202285
H88	H	1.333288	-0.687498	0.202463
