data_functionalizedCrystal
_audit_creation_method	'MofGen! by Chris Wilmer'
_symmetry_space_group_name_H-M	'P1'
_symmetry_Int_Tables_number	1
_symmetry_cell_setting	triclinic
loop_
_symmetry_equiv_pos_as_xyz
  x,y,z
_cell_length_a	16.120490
_cell_length_b	16.120444
_cell_length_c	12.759387
_cell_angle_alpha	92.864319
_cell_angle_beta	87.081216
_cell_angle_gamma	90.165174
loop_
_atom_site_label
_atom_site_type_symbol
_atom_site_fract_x
_atom_site_fract_y
_atom_site_fract_z
Zn1	Zn	1.254501	-0.395624	-0.699339
Zn2	Zn	1.754501	0.104376	-0.199339
Zn3	Zn	1.247334	-0.534697	-0.532073
Zn4	Zn	1.747334	-0.034697	-0.032073
Zn5	Zn	1.115432	-0.388598	-0.514349
Zn6	Zn	1.615432	0.111402	-0.014349
Zn7	Zn	1.108350	-0.527570	-0.698384
Zn8	Zn	1.608350	-0.027570	-0.198384
O9	O	1.181404	-0.461622	-0.611036
O10	O	1.681404	0.038378	-0.111036
O11	O	1.369916	-0.419996	-0.684969
O12	O	1.869916	0.080004	-0.184969
O13	O	1.229801	-0.515358	-0.382701
O14	O	1.729801	-0.015358	0.117299
O15	O	1.139842	-0.273167	-0.531870
O16	O	1.639842	0.226833	-0.031870
O17	O	1.364650	-0.522172	-0.562079
O18	O	1.864650	-0.022172	-0.062079
O19	O	1.242016	-0.278330	-0.667782
O20	O	1.742016	0.221670	-0.167782
O21	O	1.132893	-0.408020	-0.369679
O22	O	1.632893	0.091980	0.130321
O23	O	0.998126	-0.401109	-0.530944
O24	O	1.498126	0.098891	-0.030944
O25	O	1.127773	-0.510025	-0.845532
O26	O	1.627773	-0.010025	-0.345532
O27	O	0.992924	-0.503212	-0.666154
O28	O	1.492924	-0.003212	-0.166154
O29	O	1.235149	-0.413085	-0.846233
O30	O	1.735149	0.086915	-0.346233
O31	O	1.222934	-0.650114	-0.561153
O32	O	1.722934	-0.150114	-0.061153
O33	O	1.120824	-0.644878	-0.683341
O34	O	1.620824	-0.144878	-0.183341
C35	C	0.965353	-0.450625	-0.596522
C36	C	1.465353	0.049375	-0.096522
C37	C	0.872924	-0.445941	-0.590339
C38	C	1.372924	0.054059	-0.090339
C39	C	0.659956	-0.485915	-0.643110
C40	C	1.159956	0.014085	-0.143110
C41	C	0.703700	-0.437396	-0.579049
C42	C	1.203700	0.062604	-0.079049
C43	C	0.797865	-0.442152	-0.585333
C44	C	1.297865	0.057848	-0.085333
C45	C	0.565782	-0.481160	-0.636828
C46	C	1.065782	0.018840	-0.136828
C47	C	1.170355	-0.677669	-0.624091
C48	C	1.670355	-0.177669	-0.124091
C49	C	1.165705	-0.770098	-0.629716
C50	C	1.665705	-0.270098	-0.129716
C51	C	1.205733	-0.983077	-0.582096
C52	C	1.705733	-0.483077	-0.082096
C53	C	1.157229	-0.939324	-0.639998
C54	C	1.657229	-0.439324	-0.139998
C55	C	1.161946	-0.845158	-0.634275
C56	C	1.661946	-0.345158	-0.134275
C57	C	1.201017	-1.077252	-0.587817
C58	C	1.701017	-0.577252	-0.087817
C59	C	1.398299	-0.472663	-0.625608
C60	C	1.898299	0.027337	-0.125608
C61	C	1.490727	-0.477367	-0.631817
C62	C	1.990727	0.022633	-0.131817
C63	C	1.181471	-0.461544	-0.885069
C64	C	1.681471	0.038456	-0.385069
C65	C	1.181500	-0.461510	-1.001846
C66	C	1.681500	0.038490	-0.501846
C67	C	1.192519	-0.244733	-0.597955
C68	C	1.692519	0.255267	-0.097955
C69	C	1.197255	-0.152308	-0.592381
C70	C	1.697255	0.347692	-0.092381
C71	C	1.293317	-0.360574	-1.002597
C72	C	1.793317	0.139426	-0.502597
C73	C	1.349238	-0.310094	-1.057834
C74	C	1.849238	0.189906	-0.557834
C75	C	1.349260	-0.310065	-1.167555
C76	C	1.849260	0.189935	-0.667555
C77	C	1.293353	-0.360519	-1.222042
C78	C	1.793353	0.139481	-0.722042
C79	C	1.237432	-0.410999	-1.166805
C80	C	1.737432	0.089001	-0.666805
C81	C	1.237418	-0.411025	-1.057082
C82	C	1.737418	0.088975	-0.557082
C83	C	1.125612	-0.511930	-1.166053
C84	C	1.625612	-0.011930	-0.666053
C85	C	1.125593	-0.511965	-1.056333
C86	C	1.625593	-0.011965	-0.556333
C87	C	1.069705	-0.562384	-1.220540
C88	C	1.569705	-0.062384	-0.720540
C89	C	1.013786	-0.612870	-1.165304
C90	C	1.513786	-0.112870	-0.665304
C91	C	1.013768	-0.612897	-1.055576
C92	C	1.513768	-0.112897	-0.555576
C93	C	1.069672	-0.562445	-1.001096
C94	C	1.569672	-0.062445	-0.501096
C95	C	1.181388	-0.461643	-0.338069
C96	C	1.681388	0.038357	0.161931
C97	C	1.181533	-0.461450	-0.221290
C98	C	1.681533	0.038550	0.278710
H99	H	1.250797	-0.949819	-0.528229
H100	H	1.750797	-0.449819	-0.028229
N101	N	0.704020	-0.545674	-0.721992
N102	N	1.204020	-0.045674	-0.221992
H103	H	0.685922	-0.604324	-0.708146
H104	H	1.185922	-0.104324	-0.208146
H105	H	0.689634	-0.532023	-0.795298
H106	H	1.189634	-0.032023	-0.295298
H107	H	1.293312	-0.360601	-0.913257
H108	H	1.793312	0.139399	-0.413257
N109	N	1.069732	-0.562359	-1.338882
N110	N	1.569732	-0.062359	-0.838882
H111	H	1.025832	-0.601980	-1.365015
H112	H	1.525832	-0.101980	-0.865015
H113	H	1.057411	-0.504504	-1.360770
H114	H	1.557411	-0.004504	-0.860770
H115	H	0.670431	-0.392285	-0.519486
H116	H	1.170431	0.107715	-0.019486
H117	H	1.394755	-0.269014	-1.013458
H118	H	1.894755	0.230986	-0.513458
H119	H	1.112161	-0.972585	-0.693867
H120	H	1.612161	-0.472585	-0.193867
N121	N	1.409565	-0.255614	-1.227138
N122	N	1.909565	0.244386	-0.727138
H123	H	1.444977	-0.223653	-1.175977
H124	H	1.944977	0.276347	-0.675977
H125	H	1.446317	-0.291412	-1.277293
H126	H	1.946317	0.208588	-0.777293
H127	H	1.293369	-0.360484	-1.311382
H128	H	1.793369	0.139516	-0.811382
N129	N	0.953477	-0.667265	-1.224066
N130	N	1.453477	-0.167265	-0.724066
H131	H	0.961968	-0.659578	-1.301954
H132	H	1.461968	-0.159578	-0.801954
H133	H	0.963356	-0.727322	-1.209353
H134	H	1.463356	-0.227322	-0.709353
H135	H	0.968221	-0.653995	-1.010608
H136	H	1.468221	-0.153995	-0.510608
N137	N	1.069638	-0.562482	-0.882754
N138	N	1.569638	-0.062482	-0.382754
H139	H	1.125889	-0.580684	-0.861073
H140	H	1.625889	-0.080684	-0.361073
H141	H	1.057240	-0.504652	-0.851942
H142	H	1.557240	-0.004652	-0.351942
