data_functionalizedCrystal
_audit_creation_method	'MofGen! by Chris Wilmer'
_symmetry_space_group_name_H-M	'P1'
_symmetry_Int_Tables_number	1
_symmetry_cell_setting	triclinic
loop_
_symmetry_equiv_pos_as_xyz
  x,y,z
_cell_length_a	6.817900
_cell_length_b	11.102183
_cell_length_c	16.255661
_cell_angle_alpha	93.854172
_cell_angle_beta	103.488922
_cell_angle_gamma	108.603876
loop_
_atom_site_label
_atom_site_type_symbol
_atom_site_fract_x
_atom_site_fract_y
_atom_site_fract_z
V1	V	-4.052928	-0.176865	-0.263870
O2	O	-4.013087	0.007443	-0.258848
O3	O	-4.030096	-0.349678	-0.262063
O4	O	-4.004156	-0.174608	-0.378953
O5	O	-4.039207	-0.168839	-0.141149
V6	V	-4.533291	-0.154765	-0.249191
O7	O	-4.321118	-0.225344	-0.296067
O8	O	-4.715299	-0.106287	-0.216994
O9	O	-4.332918	0.018048	-0.250998
O10	O	-4.690529	-0.339073	-0.254213
O11	O	-4.664410	-0.162791	-0.371912
O12	O	-4.358858	-0.157022	-0.134108
C13	C	-3.881328	-0.391791	-0.257900
C14	C	-3.943944	-0.533071	-0.257191
C15	C	-3.848238	-0.168471	-0.407003
C16	C	-3.889814	-0.167769	-0.501085
C17	C	-3.858008	-0.496191	-0.102181
C18	C	-3.844453	-0.544123	-0.024346
C19	C	-3.903293	-0.676868	-0.023684
C20	C	-3.975700	-0.761687	-0.100865
C21	C	-3.989255	-0.713754	-0.178700
C22	C	-3.930403	-0.581004	-0.179354
C23	C	-4.075205	-0.750635	-0.333709
C24	C	-4.016351	-0.617889	-0.334372
C25	C	-4.147612	-0.835453	-0.410890
C26	C	-4.161154	-0.787521	-0.488727
C27	C	-4.102306	-0.654766	-0.489386
C28	C	-4.029906	-0.569957	-0.412208
C29	C	-3.799128	-0.159385	-0.723903
C30	C	-3.971583	-0.267595	-0.793379
C31	C	-3.966003	-0.166453	-0.673333
C32	C	-3.867654	-0.057005	-0.771495
C33	C	-4.039582	-0.165176	-0.839717
C34	C	-4.137955	-0.274759	-0.741578
C35	C	-4.033950	-0.064074	-0.719680
C36	C	-4.206547	-0.172315	-0.789136
C37	C	-3.923611	-0.167190	-0.577484
C38	C	-4.081992	-0.164449	-0.935565
C39	C	-4.145028	0.060155	-0.255158
C40	C	-4.061650	0.201433	-0.255873
C41	C	-4.178118	-0.163163	-0.106053
C42	C	-4.115780	-0.163859	-0.011971
H43	H	-3.810033	-0.388098	-0.102711
H44	H	-4.059790	0.021975	-0.687572
C45	C	-4.439838	-0.179762	-0.827465
N46	N	-4.615554	-0.185387	-0.856349
H47	H	-3.785499	-0.475050	0.038494
C48	C	-3.936563	-0.383828	-0.836734
N49	N	-3.910170	-0.471369	-0.869387
C50	C	-3.566036	-0.152194	-0.685418
N51	N	-3.390479	-0.146785	-0.656430
H52	H	-4.195533	-0.943541	-0.410346
C53	C	-4.291787	-0.399223	-0.723388
N54	N	-4.407642	-0.492969	-0.709684
H55	H	-4.113375	-0.615751	-0.552770
H56	H	-3.753782	0.034998	-0.785106
C57	C	-3.888381	-0.729595	0.061938
N58	N	-3.877145	-0.769309	0.126429
H59	H	-4.023632	-0.869774	-0.100320
H60	H	-4.220121	-0.856589	-0.551562
C61	C	-3.965174	-0.423931	-0.412925
N62	N	-3.916424	-0.313941	-0.413462
