data_functionalizedCrystal
_audit_creation_method	'MofGen! by Chris Wilmer'
_symmetry_space_group_name_H-M	'P1'
_symmetry_Int_Tables_number	1
_symmetry_cell_setting	triclinic
loop_
_symmetry_equiv_pos_as_xyz
  x,y,z
_cell_length_a	14.971486
_cell_length_b	15.944551
_cell_length_c	13.448316
_cell_angle_alpha	89.992444
_cell_angle_beta	89.998199
_cell_angle_gamma	83.556434
loop_
_atom_site_label
_atom_site_type_symbol
_atom_site_fract_x
_atom_site_fract_y
_atom_site_fract_z
O1	O	1.186829	0.109463	-0.082580
O2	O	0.926415	0.122572	-0.082607
O3	O	1.063733	-0.006250	-0.082584
O4	O	1.049511	0.238286	-0.082603
O5	O	1.063716	-0.006258	0.082800
O6	O	0.926398	0.122564	0.082777
O7	O	1.186812	0.109456	0.082804
Cu8	Cu	1.056603	0.116009	0.097891
Cu9	Cu	1.056624	0.116018	-0.097694
O10	O	1.049494	0.238278	0.082781
C11	C	0.893082	0.121982	0.000081
C12	C	0.793787	0.120225	0.000071
C13	C	1.063134	-0.037549	0.000108
C14	C	1.061364	-0.130797	0.000109
C15	C	0.736480	0.195904	0.000067
C16	C	0.643182	0.194249	0.000082
C17	C	0.607194	0.116913	0.000094
C18	C	0.664508	0.041227	0.000102
C19	C	0.757804	0.042884	0.000094
C20	C	0.470049	0.037780	0.000116
C21	C	0.376747	0.036123	0.000122
C22	C	0.355428	0.189145	0.000104
C23	C	0.448724	0.190801	0.000096
C24	C	0.506032	0.115116	0.000101
C25	C	0.972017	-0.345738	0.000086
C26	C	1.013498	-0.406720	0.081634
C27	C	1.058162	-0.301526	0.000101
C28	C	1.013536	-0.406696	-0.081421
C29	C	1.055062	-0.466441	0.000089
C30	C	1.099667	-0.361279	0.081717
C31	C	1.099692	-0.361248	-0.081412
C32	C	1.141236	-0.422212	0.000156
C33	C	1.059945	-0.206522	0.000109
C34	C	1.053286	-0.561444	0.000088
C35	C	1.220145	0.110046	0.000113
C36	C	1.319440	0.111802	0.000117
C37	C	1.050093	0.269576	0.000087
C38	C	1.051863	0.362824	0.000080
N39	N	1.056595	0.116002	0.235456
N40	N	1.056639	0.116019	-0.235258
C41	C	1.117419	0.058983	0.287506
C42	C	1.117425	0.058982	0.391610
C43	C	1.056610	0.116005	0.443660
C44	C	0.995780	0.173027	0.391602
C45	C	0.995771	0.173023	0.287501
C46	C	0.995805	0.173033	0.608582
C47	C	0.995815	0.173038	0.712691
C48	C	1.117459	0.058992	0.712691
C49	C	1.117449	0.058988	0.608590
C50	C	1.056620	0.116011	0.556539
H51	H	0.765774	0.258881	0.000056
H52	H	0.977096	-0.426804	-0.150369
H53	H	0.977055	-0.426866	0.150570
H54	H	1.166987	0.012562	0.755077
H55	H	0.308763	0.250771	0.000103
C56	C	0.928875	0.235745	0.448862
N57	N	0.878481	0.282986	0.491989
C58	C	1.184314	-0.003764	0.448861
N59	N	1.234690	-0.051034	0.491981
C60	C	0.928868	0.235755	0.230246
N61	N	0.878474	0.283007	0.187122
C62	C	1.184320	-0.003749	0.230260
N63	N	1.234710	-0.051003	0.187145
H64	H	0.596526	0.255875	0.000077
C65	C	1.148882	-0.333998	-0.174546
N66	N	1.185926	-0.313470	-0.244703
H67	H	1.166973	0.012560	0.566210
H68	H	0.946293	0.219471	0.755065
C69	C	0.488309	0.275875	0.000086
N70	N	0.518125	0.339954	0.000084
H71	H	0.900512	-0.312499	0.000160
C72	C	0.337161	-0.048951	0.000137
N73	N	0.307346	-0.113029	0.000149
C74	C	0.533086	-0.045479	0.000118
N75	N	0.580566	-0.108188	0.000113
H76	H	1.136065	-0.341257	0.150735
H77	H	0.635199	-0.021741	0.000126
C78	C	0.820842	-0.040370	0.000096
N79	N	0.868321	-0.103079	0.000100
H80	H	1.212804	-0.455303	0.000210
H81	H	0.946269	0.219464	0.566206
