data_functionalizedCrystal
_audit_creation_method	'MofGen! by Chris Wilmer'
_symmetry_space_group_name_H-M	'P1'
_symmetry_Int_Tables_number	1
_symmetry_cell_setting	triclinic
loop_
_symmetry_equiv_pos_as_xyz
  x,y,z
_cell_length_a	12.759401
_cell_length_b	12.759399
_cell_length_c	12.759393
_cell_angle_alpha	89.969094
_cell_angle_beta	89.980446
_cell_angle_gamma	90.015277
loop_
_atom_site_label
_atom_site_type_symbol
_atom_site_fract_x
_atom_site_fract_y
_atom_site_fract_z
Zn1	Zn	1.606263	-0.418211	-0.593978
Zn2	Zn	2.106263	0.081789	-0.093978
Zn3	Zn	1.606153	-0.593927	-0.418297
Zn4	Zn	2.106153	-0.093927	0.081703
Zn5	Zn	1.430562	-0.418263	-0.418318
Zn6	Zn	1.930562	0.081737	0.081682
Zn7	Zn	1.430553	-0.593849	-0.593939
Zn8	Zn	1.930553	-0.093849	-0.093939
O9	O	1.518383	-0.506062	-0.506133
O10	O	2.018383	-0.006062	-0.006133
O11	O	1.753270	-0.441531	-0.570682
O12	O	2.253270	0.058469	-0.070682
O13	O	1.582818	-0.570678	-0.271279
O14	O	2.082818	-0.070678	0.228721
O15	O	1.453919	-0.271235	-0.441645
O16	O	1.953919	0.228765	0.058355
O17	O	1.753189	-0.570628	-0.441610
O18	O	2.253189	-0.070628	0.058390
O19	O	1.583006	-0.271197	-0.570702
O20	O	2.083006	0.228803	-0.070702
O21	O	1.453812	-0.441619	-0.271294
O22	O	1.953812	0.058381	0.228706
O23	O	1.283540	-0.441544	-0.441606
O24	O	1.783540	0.058456	0.058394
O25	O	1.453903	-0.570496	-0.740965
O26	O	1.953903	-0.070496	-0.240965
O27	O	1.283533	-0.570546	-0.570634
O28	O	1.783533	-0.070546	-0.070634
O29	O	1.582997	-0.441456	-0.740994
O30	O	2.082997	0.058544	-0.240994
O31	O	1.582809	-0.740937	-0.441571
O32	O	2.082809	-0.240937	0.058429
O33	O	1.453796	-0.740880	-0.570614
O34	O	1.953796	-0.240880	-0.070614
C35	C	1.518318	-0.779030	-0.506109
C36	C	2.018318	-0.279030	-0.006109
C37	C	1.518387	-0.895806	-0.506134
C38	C	2.018387	-0.395806	-0.006134
C39	C	1.245415	-0.506043	-0.506119
C40	C	1.745415	-0.006043	-0.006119
C41	C	1.128639	-0.506060	-0.506138
C42	C	1.628639	-0.006060	-0.006138
C43	C	1.585641	-0.950663	-0.439018
C44	C	2.085641	-0.450663	0.060982
C45	C	1.585708	-1.060387	-0.439053
C46	C	2.085708	-0.560387	0.060947
C47	C	1.451259	-1.060388	-0.573324
C48	C	1.951259	-0.560388	-0.073324
C49	C	1.451198	-0.950666	-0.573293
C50	C	1.951198	-0.450666	-0.073293
C51	C	1.073801	-0.573339	-0.573211
C52	C	1.573801	-0.073339	-0.073211
C53	C	0.964077	-0.573352	-0.573223
C54	C	1.464077	-0.073352	-0.073223
C55	C	0.964038	-0.438805	-0.439078
C56	C	1.464038	0.061195	0.060922
C57	C	1.073761	-0.438787	-0.439072
C58	C	1.573761	0.061213	0.060928
C59	C	1.128679	-0.640612	-0.640276
C60	C	1.628679	-0.140612	-0.140276
C61	C	1.073841	-0.707898	-0.707355
C62	C	1.573841	-0.207898	-0.207355
C63	C	0.964117	-0.707911	-0.707366
C64	C	1.464117	-0.207911	-0.207366
C65	C	0.909231	-0.640639	-0.640299
C66	C	1.409231	-0.140639	-0.140299
C67	C	1.792416	-0.506082	-0.506148
C68	C	2.292416	-0.006082	-0.006148
C69	C	1.909193	-0.506091	-0.506154
C70	C	2.409193	-0.006091	-0.006154
C71	C	1.518461	-0.505961	-0.780166
C72	C	2.018461	-0.005961	-0.280166
C73	C	1.518495	-0.505918	-0.896943
C74	C	2.018495	-0.005918	-0.396943
C75	C	1.518476	-0.232029	-0.506180
C76	C	2.018476	0.267971	-0.006180
C77	C	1.518516	-0.115252	-0.506200
C78	C	2.018516	0.384748	-0.006200
C79	C	1.585719	-0.438716	-0.951822
C80	C	2.085719	0.061284	-0.451822
C81	C	1.585737	-0.438671	-1.061546
C82	C	2.085737	0.061329	-0.561546
C83	C	1.451303	-0.573039	-1.061503
C84	C	1.951303	-0.073039	-0.561503
C85	C	1.451281	-0.573078	-0.951781
C86	C	1.951281	-0.073078	-0.451781
C87	C	1.518365	-0.506087	-0.233166
C88	C	2.018365	-0.006087	0.266834
C89	C	1.518535	-0.505834	-0.116389
C90	C	2.018535	-0.005834	0.383611
H91	H	1.640352	-0.905999	-0.384334
H92	H	2.140352	-0.405999	0.115666
H93	H	1.396583	-0.627720	-1.106165
H94	H	1.896583	-0.127720	-0.606165
H95	H	1.396432	-0.905999	-0.627952
H96	H	1.896432	-0.405999	-0.127952
N97	N	1.378778	-0.645573	-0.892584
N98	N	1.878778	-0.145573	-0.392584
H99	H	1.388962	-0.635403	-0.814755
H100	H	1.888962	-0.135403	-0.314755
H101	H	1.303752	-0.629208	-0.911754
H102	H	1.803752	-0.129208	-0.411754
N103	N	1.378783	-1.119553	-0.645750
N104	N	1.878783	-0.619553	-0.145750
H105	H	1.421476	-1.165006	-0.694486
H106	H	1.921476	-0.665006	-0.194486
H107	H	1.330155	-1.165088	-0.602948
H108	H	1.830155	-0.665088	-0.102948
H109	H	1.640446	-0.384028	-0.907176
H110	H	2.140446	0.115972	-0.407176
H111	H	1.218022	-0.640611	-0.640273
H112	H	1.718022	-0.140611	-0.140273
N113	N	1.133029	-0.780456	-0.779685
N114	N	1.633029	-0.280456	-0.279685
H115	H	1.113972	-0.764234	-0.854783
H116	H	1.613972	-0.264234	-0.354783
H117	H	1.210840	-0.770211	-0.769411
H118	H	1.710840	-0.270211	-0.269411
H119	H	1.640474	-1.105046	-0.384402
H120	H	2.140474	-0.605046	0.115598
H121	H	0.919470	-0.762691	-0.761992
H122	H	1.419470	-0.262691	-0.261992
N123	N	0.790885	-0.640640	-0.640319
N124	N	1.290885	-0.140640	-0.140319
H125	H	0.764471	-0.693466	-0.692991
H126	H	1.264471	-0.193466	-0.192991
H127	H	0.764502	-0.659836	-0.568181
H128	H	1.264502	-0.159836	-0.068181
H129	H	0.919342	-0.384036	-0.384474
H130	H	1.419342	0.115964	0.115526
H131	H	1.118411	-0.383994	-0.384463
H132	H	1.618411	0.116006	0.115537
H133	H	1.640476	-0.383947	-1.106224
H134	H	2.140476	0.116053	-0.606224
