data_functionalizedCrystal
_audit_creation_method	'MofGen! by Chris Wilmer'
_symmetry_space_group_name_H-M	'P1'
_symmetry_Int_Tables_number	1
_symmetry_cell_setting	triclinic
loop_
_symmetry_equiv_pos_as_xyz
  x,y,z
_cell_length_a	14.971482
_cell_length_b	10.967829
_cell_length_c	13.448316
_cell_angle_alpha	77.865540
_cell_angle_beta	89.993798
_cell_angle_gamma	84.173805
loop_
_atom_site_label
_atom_site_type_symbol
_atom_site_fract_x
_atom_site_fract_y
_atom_site_fract_z
O1	O	1.187825	0.162598	-0.110539
O2	O	0.927529	0.182077	-0.113882
O3	O	1.063678	-0.009305	-0.081080
O4	O	1.051676	0.353980	-0.143340
O5	O	1.063661	-0.009317	0.084306
O6	O	0.927512	0.182065	0.051504
O7	O	1.187808	0.162586	0.054847
Cu8	Cu	1.057658	0.172324	0.068277
Cu9	Cu	1.057679	0.172338	-0.127311
O10	O	1.051659	0.353968	0.022046
C11	C	0.894191	0.181201	-0.031040
C12	C	0.794880	0.178593	-0.030595
C13	C	0.748219	0.177358	0.059769
C14	C	0.654908	0.174887	0.060193
C15	C	0.608257	0.173661	-0.029749
C16	C	0.654925	0.174892	-0.120118
C17	C	0.748236	0.177353	-0.120540
C18	C	0.460435	0.169764	-0.119233
C19	C	0.367118	0.167305	-0.118812
C20	C	0.367107	0.167298	0.061500
C21	C	0.460418	0.169760	0.061078
C22	C	0.507079	0.170993	-0.029292
C23	C	1.062795	-0.055803	0.009578
C24	C	1.060178	-0.194333	0.033313
C25	C	1.059021	-0.256081	-0.041781
C26	C	1.056316	-0.399259	-0.017252
C27	C	1.221146	0.163462	-0.027997
C28	C	1.320457	0.166070	-0.028449
C29	C	1.052542	0.400466	-0.068615
C30	C	1.055159	0.538996	-0.092357
N31	N	1.057650	0.172314	0.205843
N32	N	1.057694	0.172339	-0.264876
C33	C	1.117956	0.087605	0.272401
C34	C	1.117962	0.087604	0.376505
C35	C	1.057665	0.172319	0.414046
C36	C	0.997353	0.257032	0.347480
C37	C	0.997344	0.257026	0.243379
C38	C	0.997378	0.257040	0.564458
C39	C	0.997388	0.257048	0.668565
C40	C	1.117996	0.087618	0.697584
C41	C	1.117987	0.087612	0.593483
C42	C	1.057675	0.172327	0.526924
H43	H	0.786194	0.178367	0.133008
H44	H	1.055299	-0.452387	0.065204
H45	H	1.167060	0.018625	0.241843
F46	F	0.510064	0.171078	0.156802
F47	F	0.797895	0.178663	-0.216716
H48	H	0.498424	0.170769	-0.192823
H49	H	1.167067	0.018626	0.430698
F50	F	1.056452	-0.391564	-0.200135
H51	H	0.948287	0.326031	0.699125
H52	H	0.948235	0.326003	0.189187
H53	H	0.948263	0.326021	0.510268
H54	H	1.059162	-0.247465	0.115763
F55	F	0.605277	0.173548	-0.215835
F56	F	1.182165	-0.002543	0.553528
H57	H	1.167103	0.018640	0.751783
H58	H	0.616922	0.173861	0.133780
F59	F	0.317446	0.165986	0.157680
H60	H	0.329138	0.166307	-0.192051
H61	H	1.060028	-0.202947	-0.124231
F62	F	0.933175	0.347188	0.387436
