data_functionalizedCrystal
_audit_creation_method	'MofGen! by Chris Wilmer'
_symmetry_space_group_name_H-M	'P1'
_symmetry_Int_Tables_number	1
_symmetry_cell_setting	triclinic
loop_
_symmetry_equiv_pos_as_xyz
  x,y,z
_cell_length_a	11.792241
_cell_length_b	10.654541
_cell_length_c	10.868271
_cell_angle_alpha	89.997037
_cell_angle_beta	90.005281
_cell_angle_gamma	95.661328
loop_
_atom_site_label
_atom_site_type_symbol
_atom_site_fract_x
_atom_site_fract_y
_atom_site_fract_z
O1	O	0.159408	-1.667393	0.102285
O2	O	0.174599	-1.301871	0.102296
O3	O	0.001853	-1.493502	0.102282
O4	O	0.332153	-1.475761	0.102299
O5	O	0.001846	-1.493486	-0.102363
O6	O	0.174592	-1.301855	-0.102349
O7	O	0.159401	-1.667377	-0.102360
Zn8	Zn	0.166995	-1.484613	-0.134846
Zn9	Zn	0.167004	-1.484634	0.134782
O10	O	0.332146	-1.475746	-0.102345
C11	C	-0.040444	-1.492380	-0.000040
C12	C	-0.166465	-1.489044	-0.000039
C13	C	0.173481	-1.255068	-0.000025
C14	C	0.170145	-1.115634	-0.000021
C15	C	0.160519	-1.714180	-0.000036
C16	C	0.163854	-1.853614	-0.000032
C17	C	-0.397192	-1.482911	-0.000018
C18	C	-0.268799	-1.486319	-0.000030
C19	C	0.374443	-1.476868	-0.000021
C20	C	0.500465	-1.480203	-0.000014
N21	N	0.166988	-1.484608	-0.318860
C22	C	0.376710	-1.087078	0.000005
C23	C	0.478420	-1.007297	0.000023
C24	C	0.475279	-0.876287	0.000024
C25	C	0.370416	-0.825059	0.000004
C26	C	0.268706	-0.904841	-0.000015
C27	C	0.271858	-1.035851	-0.000012
C28	C	0.062144	-0.933396	-0.000050
C29	C	0.065282	-1.064405	-0.000042
C30	C	-0.042719	-0.882167	-0.000071
C31	C	-0.144432	-0.961949	-0.000080
C32	C	-0.141286	-1.092966	-0.000080
C33	C	-0.036428	-1.144187	-0.000060
C34	C	0.167002	-1.484628	-0.569866
C35	C	0.166998	-1.484613	-0.430188
N36	N	0.167002	-1.484649	0.318796
H37	H	0.379277	-1.193752	0.000032
H38	H	-0.033857	-1.250860	-0.000045
C39	C	0.593763	-1.063644	0.000053
H40	H	0.653886	-0.997364	0.000056
H41	H	0.599277	-1.114161	0.071419
H42	H	0.599291	-1.114152	-0.071318
H43	H	-0.045269	-0.775491	-0.000077
H44	H	0.367868	-0.718383	-0.000010
H45	H	-0.229803	-0.920227	-0.000096
C46	C	-0.253170	-1.180717	-0.000093
H47	H	-0.316065	-1.131439	-0.000095
H48	H	-0.256239	-1.232420	-0.071452
H49	H	-0.256241	-1.232413	0.071285
H50	H	0.558101	-0.811328	0.000031
