data_functionalizedCrystal
_audit_creation_method	'MofGen! by Chris Wilmer'
_symmetry_space_group_name_H-M	'P1'
_symmetry_Int_Tables_number	1
_symmetry_cell_setting	triclinic
loop_
_symmetry_equiv_pos_as_xyz
  x,y,z
_cell_length_a	12.837943
_cell_length_b	14.971486
_cell_length_c	14.048226
_cell_angle_alpha	90.003819
_cell_angle_beta	89.996231
_cell_angle_gamma	90.778466
loop_
_atom_site_label
_atom_site_type_symbol
_atom_site_fract_x
_atom_site_fract_y
_atom_site_fract_z
O1	O	1.375743	-0.232550	-0.079145
O2	O	1.073923	-0.221062	-0.079150
O3	O	1.232922	-0.097288	-0.079141
O4	O	1.216743	-0.356324	-0.079155
O5	O	1.232907	-0.097286	0.079181
O6	O	1.073908	-0.221060	0.079171
O7	O	1.375728	-0.232548	0.079176
Zn8	Zn	1.224815	-0.226803	0.104311
Zn9	Zn	1.224835	-0.226807	-0.104285
O10	O	1.216728	-0.356322	0.079167
C11	C	1.035290	-0.217180	0.000010
C12	C	0.920199	-0.205606	0.000008
C13	C	0.679413	-0.344749	0.000014
C14	C	0.571273	-0.333878	0.000013
C15	C	0.595779	-0.172995	0.000011
C16	C	0.703918	-0.183866	0.000012
C17	C	0.745731	-0.269745	0.000012
C18	C	0.853872	-0.280615	0.000006
C19	C	0.878375	-0.119733	0.000012
C20	C	0.770236	-0.108862	0.000011
C21	C	1.232191	-0.063901	0.000020
C22	C	1.230023	0.035579	0.000019
C23	C	1.414361	-0.236430	0.000014
C24	C	1.529452	-0.248004	0.000010
C25	C	1.217459	-0.389709	0.000004
C26	C	1.219628	-0.489189	-0.000001
N27	N	1.224809	-0.226801	0.246671
C28	C	1.323431	0.084929	0.000021
C29	C	1.321387	0.178400	0.000012
C30	C	1.225935	0.222520	0.000006
C31	C	1.132520	0.173164	0.000001
C32	C	1.134564	0.079694	0.000004
C33	C	1.128265	0.367985	-0.000002
C34	C	1.126220	0.461461	-0.000003
C35	C	1.315088	0.466692	0.000005
C36	C	1.317132	0.373222	0.000008
C37	C	1.223717	0.323871	0.000005
N38	N	1.224850	-0.226802	-0.246645
C39	C	1.287749	-0.286449	0.296483
C40	C	1.287762	-0.286446	0.396141
C41	C	1.224830	-0.226799	0.445985
C42	C	1.161887	-0.167145	0.396166
C43	C	1.161880	-0.167145	0.296510
C44	C	1.161904	-0.167153	0.603880
C45	C	1.161910	-0.167155	0.703543
C46	C	1.287787	-0.286455	0.703511
C47	C	1.287780	-0.286454	0.603855
C48	C	1.224836	-0.226801	0.554043
H49	H	0.561715	-0.103076	0.000090
C50	C	1.417843	0.520973	-0.000008
H51	H	1.402958	0.582959	-0.000026
H52	H	1.456979	0.506741	0.055202
H53	H	1.456976	0.506718	-0.055225
H54	H	1.397450	0.218577	0.000016
H55	H	1.339020	-0.335027	0.563275
H56	H	1.338990	-0.335025	0.255908
H57	H	1.339016	-0.335016	0.436694
C58	C	1.025510	0.313701	-0.000005
H59	H	0.968368	0.353363	0.000002
H60	H	1.022384	0.277123	-0.055213
H61	H	1.022380	0.277137	0.055215
C62	C	1.428427	0.036401	0.000030
H63	H	1.416270	-0.026335	0.000041
H64	H	1.466900	0.052789	-0.055179
H65	H	1.466883	0.052802	0.055249
C66	C	1.031816	0.025408	0.000004
H67	H	0.974674	0.065070	0.000008
H68	H	1.028694	-0.011168	-0.055206
H69	H	1.028682	-0.011158	0.055221
H70	H	1.339034	-0.335030	0.744073
H71	H	1.048494	0.497381	0.000008
C72	C	1.092661	-0.101565	0.758370
H73	H	1.055174	-0.066036	0.714432
H74	H	1.045002	-0.134154	0.797234
H75	H	1.135083	-0.064032	0.797258
H76	H	1.110650	-0.118576	0.563326
H77	H	1.110651	-0.118576	0.436756
H78	H	0.932384	-0.058660	0.000004
H79	H	1.110628	-0.118574	0.255954
H80	H	1.394858	0.337302	0.000019
H81	H	0.736177	-0.038941	0.000022
H82	H	0.887914	-0.350543	0.000008
H83	H	0.517280	-0.394954	0.000017
H84	H	0.713457	-0.414675	0.000012
H85	H	1.054801	0.209093	-0.000009
