data_functionalizedCrystal
_audit_creation_method	'MofGen! by Chris Wilmer'
_symmetry_space_group_name_H-M	'P1'
_symmetry_Int_Tables_number	1
_symmetry_cell_setting	triclinic
loop_
_symmetry_equiv_pos_as_xyz
  x,y,z
_cell_length_a	25.639242
_cell_length_b	25.639240
_cell_length_c	25.639243
_cell_angle_alpha	90.016535
_cell_angle_beta	90.004678
_cell_angle_gamma	90.025061
loop_
_atom_site_label
_atom_site_type_symbol
_atom_site_fract_x
_atom_site_fract_y
_atom_site_fract_z
Zn1	Zn	0.799197	-0.208370	0.295607
Zn2	Zn	0.799144	-0.295775	0.208160
Zn3	Zn	0.711788	-0.208343	0.208183
Zn4	Zn	0.711727	-0.295765	0.295562
O5	O	0.755464	-0.252063	0.251878
O6	O	0.872355	-0.219980	0.284016
O7	O	0.787559	-0.284170	0.134998
O8	O	0.723430	-0.135182	0.219808
O9	O	0.872316	-0.284196	0.219770
O10	O	0.787649	-0.135201	0.284038
O11	O	0.723379	-0.219934	0.135015
O12	O	0.638614	-0.219925	0.219765
O13	O	0.723327	-0.284179	0.368733
O14	O	0.638570	-0.284153	0.283962
O15	O	0.787590	-0.219970	0.368766
O16	O	0.787500	-0.368939	0.219726
O17	O	0.723276	-0.368931	0.283940
C18	C	0.619621	-0.252035	0.251861
C19	C	0.561507	-0.252036	0.251866
C20	C	0.310342	-0.218686	0.285392
C21	C	0.364946	-0.218680	0.285389
O22	O	0.393207	-0.190302	0.313891
N23	N	0.392233	-0.252057	0.251884
C24	C	0.364913	-0.285445	0.218383
O25	O	0.393137	-0.313835	0.189885
C26	C	0.310310	-0.285452	0.218389
C27	C	0.283026	-0.252070	0.251893
C28	C	0.283058	-0.185306	0.318894
C29	C	0.228457	-0.185311	0.318896
C30	C	0.201141	-0.218695	0.285397
C31	C	0.228425	-0.252074	0.251895
C32	C	0.282991	-0.318843	0.184892
C33	C	0.228384	-0.318847	0.184901
C34	C	0.201100	-0.285465	0.218405
C35	C	0.146508	-0.285463	0.218398
N36	N	0.119221	-0.252086	0.251903
C37	C	0.146538	-0.218702	0.285403
C38	C	0.479584	-0.285428	0.218374
C39	C	0.534186	-0.285418	0.218365
C40	C	0.534215	-0.218654	0.285372
C41	C	0.479612	-0.218661	0.285378
C42	C	0.452297	-0.252051	0.251879
C43	C	0.031872	-0.218714	0.285404
C44	C	-0.022733	-0.218720	0.285402
C45	C	-0.022757	-0.285486	0.218397
C46	C	0.031843	-0.285478	0.218398
C47	C	0.059157	-0.252090	0.251905
O48	O	0.118213	-0.313828	0.189913
O49	O	0.118307	-0.190322	0.313901
C50	C	0.755390	-0.387906	0.251837
C51	C	0.755406	-0.446020	0.251837
C52	C	0.788919	-0.806355	0.285383
C53	C	0.788935	-0.860959	0.285394
O54	O	0.817341	-0.889172	0.313873
N55	N	0.755536	-0.888302	0.251929
C56	C	0.722117	-0.861038	0.218455
O57	O	0.693710	-0.889310	0.189991
C58	C	0.722099	-0.806435	0.218447
C59	C	0.755503	-0.779095	0.251910
C60	C	0.822320	-0.779014	0.318844
C61	C	0.822305	-0.724414	0.318833
C62	C	0.788890	-0.697154	0.285360
C63	C	0.755488	-0.724494	0.251899
C64	C	0.688677	-0.779172	0.184976
C65	C	0.688662	-0.724565	0.184972
C66	C	0.722066	-0.697225	0.218435
C67	C	0.722058	-0.642634	0.218415
N68	N	0.755456	-0.615290	0.251880
C69	C	0.788872	-0.642550	0.285353
C70	C	0.722156	-0.975709	0.218474
C71	C	0.722176	-1.030311	0.218478
C72	C	0.788993	-1.030228	0.285418
C73	C	0.788975	-0.975625	0.285411
C74	C	0.755554	-0.948366	0.251939
C75	C	0.788838	-0.527885	0.285326
C76	C	0.788822	-0.473280	0.285310
C77	C	0.722003	-0.473368	0.218372
C78	C	0.722021	-0.527968	0.218386
C79	C	0.755440	-0.555226	0.251867
O80	O	0.693664	-0.614386	0.189951
O81	O	0.817269	-0.614272	0.313816
C82	C	0.891837	-0.252092	0.251895
C83	C	0.949951	-0.252104	0.251903
C84	C	0.755458	-0.252076	0.388251
C85	C	0.755455	-0.252082	0.446365
C86	C	0.755552	-0.115690	0.251931
C87	C	0.755590	-0.057576	0.251953
C88	C	0.721996	-0.285501	0.697536
C89	C	0.721994	-0.285502	0.642931
O90	O	0.693526	-0.313918	0.614675
N91	N	0.755453	-0.252075	0.615639
C92	C	0.788914	-0.218641	0.642954
O93	O	0.817373	-0.190208	0.614725
C94	C	0.788913	-0.218638	0.697557
C95	C	0.755455	-0.252071	0.724847
C96	C	0.688540	-0.318931	0.724825
C97	C	0.688543	-0.318931	0.779426
C98	C	0.722002	-0.285501	0.806737
C99	C	0.755458	-0.252071	0.779447
C100	C	0.822370	-0.185202	0.724871
C101	C	0.822366	-0.185202	0.779478
C102	C	0.788908	-0.218635	0.806767
C103	C	0.788920	-0.218641	0.861359
N104	N	0.755460	-0.252068	0.888651
C105	C	0.722001	-0.285498	0.861340
C106	C	0.788912	-0.218649	0.528283
C107	C	0.788916	-0.218654	0.473681
C108	C	0.721995	-0.285514	0.473662
C109	C	0.721994	-0.285511	0.528266
C110	C	0.755453	-0.252076	0.555576
C111	C	0.722011	-0.285496	0.976005
C112	C	0.722018	-0.285495	1.030611
C113	C	0.788937	-0.218633	1.030624
C114	C	0.788931	-0.218636	0.976024
C115	C	0.755464	-0.252069	0.948716
O116	O	0.817371	-0.190238	0.889649
O117	O	0.693542	-0.313921	0.889575
C118	C	0.755468	-0.252064	1.116036
C119	C	0.755477	-0.252065	1.057922
H120	H	0.457347	-0.312616	0.191091
H121	H	0.054105	-0.191526	0.312689
H122	H	0.849616	-0.157978	0.702661
C123	C	0.825564	-0.443208	0.322125
H124	H	0.845461	-0.467267	0.342066
H125	H	0.848358	-0.421899	0.302147
H126	H	0.805532	-0.421913	0.344885
C127	C	0.859044	-0.694344	0.355647
H128	H	0.854256	-0.657918	0.350850
H129	H	0.851362	-0.703287	0.390768
H130	H	0.894185	-0.703272	0.348027
H131	H	0.849532	-0.801204	0.346105
H132	H	-0.044945	-0.191533	0.312685
H133	H	0.849610	-0.157972	0.801711
C134	C	0.651732	-0.355701	0.809438
H135	H	0.631804	-0.375604	0.785345
H136	H	0.671710	-0.378490	0.830736
H137	H	0.628962	-0.335690	0.830738
H138	H	0.816176	-0.953367	0.312660
C139	C	0.825733	-0.181859	0.946004
H140	H	0.845657	-0.161947	0.970092
H141	H	0.848500	-0.201857	0.924693
H142	H	0.805737	-0.159072	0.924716
H143	H	0.661445	-0.702373	0.157715
C144	C	0.685435	-1.060382	0.181667
H145	H	0.690228	-1.096807	0.186461
H146	H	0.650298	-1.051452	0.189285
H147	H	0.693118	-1.051444	0.146541
C148	C	0.651736	-0.355711	0.694792
H149	H	0.631818	-0.375620	0.718872
H150	H	0.628964	-0.335716	0.673490
H151	H	0.671727	-0.378502	0.673492
C152	C	0.685187	-0.322283	0.558279
H153	H	0.665260	-0.342190	0.534189
H154	H	0.705169	-0.345068	0.579579
H155	H	0.662415	-0.302274	0.579580
C156	C	0.198451	-0.148595	0.355756
H157	H	0.222547	-0.128718	0.375707
H158	H	0.177153	-0.125780	0.335808
H159	H	0.177151	-0.168639	0.378503
H160	H	0.816048	-0.550072	0.312593
H161	H	0.816201	-1.052433	0.312674
C162	C	0.685279	-0.558044	0.181576
H163	H	0.665374	-0.533986	0.161642
H164	H	0.705300	-0.579346	0.158819
H165	H	0.662483	-0.579346	0.201566
C166	C	0.685211	-0.322270	1.060626
H167	H	0.665280	-0.342175	1.036537
H168	H	0.705194	-0.345057	1.081922
H169	H	0.662441	-0.302261	1.081930
H170	H	0.694754	-0.312716	0.953777
H171	H	0.305293	-0.158120	0.346176
H172	H	0.661476	-0.801424	0.157726
H173	H	0.694942	-0.953517	0.191213
C174	C	0.449604	-0.181946	0.322237
H175	H	0.473698	-0.162067	0.342187
H176	H	0.428304	-0.159134	0.302288
H177	H	0.428306	-0.201991	0.344985
H178	H	0.694798	-0.451164	0.191117
H179	H	0.816180	-0.191417	1.052871
H180	H	0.694750	-0.312734	0.451416
H181	H	0.206146	-0.346039	0.157623
H182	H	0.556466	-0.191471	0.312649
C183	C	0.825723	-0.181880	0.443668
H184	H	0.845645	-0.161970	0.467759
H185	H	0.848491	-0.201882	0.422361
H186	H	0.805734	-0.159091	0.422375
H187	H	0.556396	-0.312596	0.191077
C188	C	0.312992	-0.355567	0.148039
H189	H	0.288895	-0.375451	0.128097
H190	H	0.334297	-0.335534	0.125291
H191	H	0.334285	-0.378382	0.167998
H192	H	0.054059	-0.312656	0.191111
H193	H	-0.045008	-0.312664	0.191121
C194	C	0.825726	-0.181875	0.558320
H195	H	0.845655	-0.161973	0.534241
H196	H	0.805747	-0.159085	0.579626
H197	H	0.848497	-0.201884	0.579615
