data_functionalizedCrystal
_audit_creation_method	'MofGen! by Chris Wilmer'
_symmetry_space_group_name_H-M	'P1'
_symmetry_Int_Tables_number	1
_symmetry_cell_setting	triclinic
loop_
_symmetry_equiv_pos_as_xyz
  x,y,z
_cell_length_a	21.295420
_cell_length_b	21.295417
_cell_length_c	19.805399
_cell_angle_alpha	89.969157
_cell_angle_beta	89.981220
_cell_angle_gamma	90.028757
loop_
_atom_site_label
_atom_site_type_symbol
_atom_site_fract_x
_atom_site_fract_y
_atom_site_fract_z
Zn1	Zn	0.962319	-0.250653	-0.382690
Zn2	Zn	1.295652	0.082680	-0.049357
Zn3	Zn	1.628985	0.416013	0.283977
Zn4	Zn	0.962232	-0.355922	-0.269495
Zn5	Zn	1.295565	-0.022589	0.063838
Zn6	Zn	1.628899	0.310745	0.397171
Zn7	Zn	0.857053	-0.250667	-0.269516
Zn8	Zn	1.190386	0.082666	0.063817
Zn9	Zn	1.523719	0.415999	0.397151
Zn10	Zn	0.857011	-0.355885	-0.382644
Zn11	Zn	1.190345	-0.022552	-0.049310
Zn12	Zn	1.523678	0.310781	0.284023
O13	O	0.909654	-0.303282	-0.326086
O14	O	1.242987	0.030051	0.007247
O15	O	1.576320	0.363385	0.340580
O16	O	1.050396	-0.264627	-0.367685
O17	O	1.383730	0.068707	-0.034352
O18	O	1.717063	0.402040	0.298982
O19	O	0.948261	-0.341981	-0.174781
O20	O	1.281594	-0.008648	0.158552
O21	O	1.614927	0.324686	0.491885
O22	O	0.871070	-0.162576	-0.284557
O23	O	1.204403	0.170757	0.048776
O24	O	1.537737	0.504091	0.382110
O25	O	1.050333	-0.341967	-0.284521
O26	O	1.383666	-0.008634	0.048812
O27	O	1.716999	0.324699	0.382145
O28	O	0.948409	-0.162566	-0.367705
O29	O	1.281742	0.170768	-0.034372
O30	O	1.615075	0.504101	0.298961
O31	O	0.870986	-0.264651	-0.174797
O32	O	1.204319	0.068682	0.158537
O33	O	1.537653	0.402016	0.491870
O34	O	0.768958	-0.264615	-0.284512
O35	O	1.102291	0.068718	0.048821
O36	O	1.435624	0.402051	0.382155
O37	O	0.870999	-0.341905	-0.477366
O38	O	1.204333	-0.008571	-0.144033
O39	O	1.537666	0.324762	0.189300
O40	O	0.768927	-0.341918	-0.367626
O41	O	1.102261	-0.008585	-0.034293
O42	O	1.435594	0.324748	0.299040
O43	O	0.948368	-0.264591	-0.477400
O44	O	1.281702	0.068742	-0.144067
O45	O	1.615035	0.402075	0.189266
O46	O	0.948220	-0.444006	-0.284476
O47	O	1.281554	-0.110673	0.048857
O48	O	1.614887	0.222660	0.382190
O49	O	0.870915	-0.443980	-0.367606
O50	O	1.204249	-0.110646	-0.034273
O51	O	1.537582	0.222687	0.299061
C52	C	0.746102	-0.303265	-0.326067
C53	C	1.079435	0.030068	0.007267
C54	C	1.412769	0.363402	0.340600
C55	C	0.676134	-0.303273	-0.326075
C56	C	1.009467	0.030061	0.007259
C57	C	1.342801	0.363394	0.340592
C58	C	0.176677	-0.343608	-0.369322
C59	C	0.510010	-0.010274	-0.035988
C60	C	0.843343	0.323059	0.297345
C61	C	0.242419	-0.343608	-0.369315
C62	C	0.575752	-0.010275	-0.035981
C63	C	0.909086	0.323059	0.297352
C64	C	0.275294	-0.303296	-0.326107
C65	C	0.608628	0.030037	0.007226
C66	C	0.941961	0.363370	0.340559
C67	C	0.242422	-0.262993	-0.282892
C68	C	0.575755	0.070341	0.050441
C69	C	0.909089	0.403674	0.383775
C70	C	0.176681	-0.262998	-0.282895
C71	C	0.510014	0.070335	0.050438
C72	C	0.843347	0.403669	0.383771
N73	N	0.378536	-0.248179	-0.321019
N74	N	0.711869	0.085154	0.012314
N75	N	1.045202	0.418487	0.345648
N76	N	0.440987	-0.248176	-0.321019
N77	N	0.774320	0.085157	0.012314
N78	N	1.107654	0.418490	0.345647
C79	C	0.473369	-0.303278	-0.326093
C80	C	0.806703	0.030055	0.007240
C81	C	1.140036	0.363388	0.340574
N82	N	0.440941	-0.358385	-0.331179
N83	N	0.774274	-0.025052	0.002154
N84	N	1.107607	0.308281	0.335487
N85	N	0.378483	-0.358388	-0.331182
N86	N	0.711817	-0.025055	0.002151
N87	N	1.045150	0.308279	0.335484
C88	C	0.346580	-0.303286	-0.326099
C89	C	0.679913	0.030047	0.007235
C90	C	1.013246	0.363381	0.340568
C91	C	0.577519	-0.343583	-0.369295
C92	C	0.910853	-0.010250	-0.035962
C93	C	1.244186	0.323084	0.297372
C94	C	0.643263	-0.343584	-0.369283
C95	C	0.976596	-0.010251	-0.035950
C96	C	1.309930	0.323082	0.297384
C97	C	0.643265	-0.262963	-0.282864
C98	C	0.976598	0.070370	0.050470
C99	C	1.309931	0.403704	0.383803
C100	C	0.577522	-0.262967	-0.282872
C101	C	0.910856	0.070366	0.050461
C102	C	1.244189	0.403699	0.383795
C103	C	0.544653	-0.303277	-0.326091
C104	C	0.877987	0.030057	0.007242
C105	C	1.211320	0.363390	0.340575
C106	C	0.909571	-0.466834	-0.326049
C107	C	1.242904	-0.133500	0.007285
C108	C	1.576238	0.199833	0.340618
C109	C	0.909593	-0.536802	-0.326055
C110	C	1.242927	-0.203468	0.007278
C111	C	1.576260	0.129865	0.340611
C112	C	0.949882	-0.569661	-0.282814
C113	C	1.283215	-0.236328	0.050519
C114	C	1.616549	0.097005	0.383853
C115	C	0.949911	-0.635404	-0.282829
C116	C	1.283245	-0.302071	0.050504
C117	C	1.616578	0.031263	0.383837
C118	C	0.909641	-0.668284	-0.326079
C119	C	1.242974	-0.334951	0.007255
C120	C	1.576308	-0.001617	0.340588
C121	C	0.869350	-0.635416	-0.369328
C122	C	1.202683	-0.302083	-0.035995
C123	C	1.536016	0.031250	0.297338
C124	C	0.869326	-0.569675	-0.369317
C125	C	1.202659	-0.236342	-0.035983
C126	C	1.535993	0.096991	0.297350
N127	N	0.854574	-0.771548	-0.331232
N128	N	1.187907	-0.438215	0.002101
N129	N	1.521240	-0.104882	0.335435
N130	N	0.854598	-0.834000	-0.331239
N131	N	1.187931	-0.500666	0.002094
N132	N	1.521265	-0.167333	0.335427
C133	C	0.909712	-0.866359	-0.326117
C134	C	1.243045	-0.533025	0.007216
C135	C	1.576378	-0.199692	0.340549
N136	N	0.964801	-0.833907	-0.320975
N137	N	1.298134	-0.500574	0.012358
N138	N	1.631468	-0.167241	0.345692
N139	N	0.964776	-0.771450	-0.320964
N140	N	1.298109	-0.438117	0.012369
N141	N	1.631442	-0.104783	0.345702
C142	C	0.909663	-0.739569	-0.326096
C143	C	1.242996	-0.406236	0.007237
C144	C	1.576330	-0.072903	0.340570
C145	C	0.950036	-0.970504	-0.282890
C146	C	1.283369	-0.637171	0.050443
C147	C	1.616702	-0.303837	0.383776
C148	C	0.950066	-1.036248	-0.282910
C149	C	1.283399	-0.702914	0.050423
C150	C	1.616733	-0.369581	0.383756
C151	C	0.869499	-1.036259	-0.369406
C152	C	1.202832	-0.702926	-0.036073
C153	C	1.536166	-0.369592	0.297261
C154	C	0.869474	-0.970517	-0.369389
C155	C	1.202807	-0.637183	-0.036056
C156	C	1.536141	-0.303850	0.297277
C157	C	0.909741	-0.937643	-0.326128
C158	C	1.243075	-0.604310	0.007205
C159	C	1.576408	-0.270976	0.340539
C160	C	1.073844	-0.303299	-0.326106
C161	C	1.407177	0.030034	0.007227
C162	C	1.740511	0.363367	0.340561
C163	C	1.143812	-0.303307	-0.326115
C164	C	1.477145	0.030026	0.007219
C165	C	1.810479	0.363360	0.340552
C166	C	0.909689	-0.303242	-0.502629
C167	C	1.243022	0.030091	-0.169296
C168	C	1.576356	0.363424	0.164038
C169	C	0.909704	-0.303225	-0.577861
C170	C	1.243037	0.030108	-0.244528
C171	C	1.576371	0.363441	0.088806
C172	C	0.909754	-0.139092	-0.326139
C173	C	1.243087	0.194242	0.007195
C174	C	1.576420	0.527575	0.340528
C175	C	0.909796	-0.069123	-0.326161
C176	C	1.243130	0.264210	0.007172
C177	C	1.576463	0.597543	0.340506
C178	C	0.949991	-0.262966	-0.613224
C179	C	1.283324	0.070367	-0.279891
C180	C	1.616658	0.403700	0.053443
C181	C	0.949997	-0.262948	-0.683913
C182	C	1.283331	0.070385	-0.350579
C183	C	1.616664	0.403719	-0.017246
C184	C	0.909720	-0.303192	-0.719237
C185	C	1.243053	0.030141	-0.385903
C186	C	1.576386	0.363474	-0.052570
C187	C	0.869428	-0.343453	-0.683869
C188	C	1.202762	-0.010120	-0.350535
C189	C	1.536095	0.323213	-0.017202
C190	C	0.869419	-0.343468	-0.613182
C191	C	1.202752	-0.010135	-0.279848
C192	C	1.536086	0.323199	0.053485
C193	C	0.869464	-0.343395	-0.968942
C194	C	1.202797	-0.010061	-0.635609
C195	C	1.536130	0.323272	-0.302276
C196	C	0.869477	-0.343378	-1.039634
C197	C	1.202811	-0.010045	-0.706301
C198	C	1.536144	0.323288	-0.372968
C199	C	0.950042	-0.262875	-1.039673
C200	C	1.283375	0.070459	-0.706340
C201	C	1.616709	0.403792	-0.373007
C202	C	0.950033	-0.262889	-0.968986
C203	C	1.283366	0.070444	-0.635653
C204	C	1.616700	0.403777	-0.302319
C205	C	0.909739	-0.303148	-0.933624
C206	C	1.243073	0.030186	-0.600291
C207	C	1.576406	0.363519	-0.266958
C208	C	0.909732	-0.303166	-0.856976
C209	C	1.243065	0.030167	-0.523642
C210	C	1.576399	0.363501	-0.190309
C211	C	0.909730	-0.303178	-0.795884
C212	C	1.243063	0.030156	-0.462551
C213	C	1.576396	0.363489	-0.129217
C214	C	0.909655	-0.303276	-0.150230
C215	C	1.242988	0.030057	0.183103
C216	C	1.576321	0.363391	0.516436
C217	C	0.909762	-0.303116	-0.074999
C218	C	1.243095	0.030218	0.258335
C219	C	1.576428	0.363551	0.591668
H220	H	0.670031	-0.230143	-0.247681
H221	H	1.003364	0.103191	0.085652
H222	H	1.336698	0.436524	0.418985
N223	N	0.277882	-0.219512	-0.236296
N224	N	0.611216	0.113822	0.097037
N225	N	0.944549	0.447155	0.430371
H226	H	0.266462	-0.174549	-0.246896
H227	H	0.599795	0.158785	0.086437
H228	H	0.933129	0.492118	0.419770
H229	H	0.266411	-0.229285	-0.187934
H230	H	0.599745	0.104049	0.145400
H231	H	0.933078	0.437382	0.478733
N232	N	0.826021	-0.386782	-1.077728
N233	N	1.159355	-0.053448	-0.744394
N234	N	1.492688	0.279885	-0.411061
H235	H	0.796875	-0.361184	-1.107058
H236	H	1.130208	-0.027850	-0.773725
H237	H	1.463541	0.305483	-0.440391
H238	H	0.851627	-0.415948	-1.107013
H239	H	1.184960	-0.082614	-0.773679
H240	H	1.518293	0.250719	-0.440346
H241	H	0.149923	-0.230178	-0.247711
H242	H	0.483256	0.103155	0.085623
H243	H	0.816589	0.436488	0.418956
N244	N	0.993362	-0.670848	-0.236177
N245	N	1.326696	-0.337514	0.097157
N246	N	1.660029	-0.004181	0.430490
H247	H	0.967799	-0.698163	-0.204794
H248	H	1.301132	-0.364829	0.128539
H249	H	1.634466	-0.031496	0.461872
H250	H	1.022526	-0.698048	-0.263754
H251	H	1.355859	-0.364715	0.069579
H252	H	1.689193	-0.031381	0.402912
H253	H	0.836665	-0.943760	-0.404598
H254	H	1.169998	-0.610427	-0.071264
H255	H	1.503331	-0.277094	0.262069
N256	N	0.993491	-0.219441	-1.077816
N257	N	1.326824	0.113893	-0.744482
N258	N	1.660157	0.447226	-0.411149
H259	H	1.019005	-0.193950	-1.044711
H260	H	1.352338	0.139383	-0.711377
H261	H	1.685672	0.472717	-0.378044
H262	H	1.022611	-0.245058	-1.107145
H263	H	1.355944	0.088276	-0.773812
H264	H	1.689277	0.421609	-0.440478
H265	H	0.982672	-0.542898	-0.247590
H266	H	1.316005	-0.209564	0.085743
H267	H	1.649338	0.123769	0.419077
N268	N	0.825916	-0.670875	-0.415978
N269	N	1.159250	-0.337542	-0.082645
N270	N	1.492583	-0.004209	0.250688
H271	H	0.832043	-0.717509	-0.409423
H272	H	1.165376	-0.384176	-0.076090
H273	H	1.498710	-0.050842	0.257244
H274	H	0.780961	-0.659428	-0.405398
H275	H	1.114294	-0.326095	-0.072065
H276	H	1.447627	0.007238	0.261269
N277	N	0.542070	-0.219498	-0.236272
N278	N	0.875404	0.113835	0.097062
N279	N	1.208737	0.447169	0.430395
H280	H	0.572870	-0.193960	-0.208898
H281	H	0.906204	0.139373	0.124435
H282	H	1.239537	0.472707	0.457769
H283	H	0.514815	-0.190401	-0.263881
H284	H	0.848149	0.142932	0.069452
H285	H	1.181482	0.476265	0.402786
N286	N	0.993456	-0.219522	-0.722042
N287	N	1.326789	0.113811	-0.388709
N288	N	1.660122	0.447144	-0.055375
H289	H	1.022617	-0.245097	-0.751370
H290	H	1.355950	0.088236	-0.418037
H291	H	1.689283	0.421569	-0.084703
H292	H	0.967855	-0.190343	-0.751332
H293	H	1.301188	0.142990	-0.417999
H294	H	1.634522	0.476324	-0.084666
N295	N	0.542062	-0.387057	-0.415905
N296	N	0.875395	-0.053724	-0.082572
N297	N	1.208729	0.279609	0.250761
H298	H	0.572860	-0.412592	-0.443273
H299	H	0.906194	-0.079259	-0.109940
H300	H	1.239527	0.254075	0.223393
H301	H	0.514760	-0.416157	-0.388300
H302	H	0.848094	-0.082823	-0.054967
H303	H	1.181427	0.250510	0.278366
N304	N	0.993438	-0.219563	-0.575127
N305	N	1.326771	0.113770	-0.241793
N306	N	1.660104	0.447103	0.091540
H307	H	1.018959	-0.194056	-0.608258
H308	H	1.352293	0.139277	-0.274925
H309	H	1.685626	0.472611	0.058408
H310	H	0.967829	-0.190435	-0.545802
H311	H	1.301162	0.142899	-0.212469
H312	H	1.634496	0.476232	0.120865
N313	N	0.825869	-0.534229	-0.415956
N314	N	1.159202	-0.200895	-0.082623
N315	N	1.492536	0.132438	0.250711
H316	H	0.800362	-0.565031	-0.443359
H317	H	1.133696	-0.231698	-0.110026
H318	H	1.467029	0.101635	0.223307
H319	H	0.796743	-0.506998	-0.388368
H320	H	1.130076	-0.173665	-0.055035
H321	H	1.463409	0.159668	0.278299
N322	N	0.678713	-0.387059	-0.415881
N323	N	1.012047	-0.053726	-0.082548
N324	N	1.345380	0.279607	0.250785
H325	H	0.647913	-0.412593	-0.443259
H326	H	0.981246	-0.079260	-0.109926
H327	H	1.314580	0.254073	0.223408
H328	H	0.706015	-0.361470	-0.447249
H329	H	1.039349	-0.028137	-0.113916
H330	H	1.372682	0.305196	0.219417
H331	H	0.269183	-0.376426	-0.404501
H332	H	0.602516	-0.043092	-0.071168
H333	H	0.935849	0.290241	0.262165
N334	N	0.141226	-0.387093	-0.415923
N335	N	0.474560	-0.053760	-0.082590
N336	N	0.807893	0.279573	0.250743
H337	H	0.152687	-0.377378	-0.464304
H338	H	0.486020	-0.044045	-0.130971
H339	H	0.819354	0.289288	0.202363
H340	H	0.152666	-0.432036	-0.405258
H341	H	0.485999	-0.098703	-0.071924
H342	H	0.819333	0.234630	0.261409
N343	N	0.825966	-0.386895	-0.575045
N344	N	1.159299	-0.053561	-0.241711
N345	N	1.492632	0.279772	0.091622
H346	H	0.851523	-0.416076	-0.545710
H347	H	1.184856	-0.082743	-0.212377
H348	H	1.518190	0.250590	0.120957
H349	H	0.796812	-0.361271	-0.545760
H350	H	1.130146	-0.027937	-0.212427
H351	H	1.463479	0.305396	0.120906
N352	N	0.993465	-0.935042	-0.236235
N353	N	1.326798	-0.601708	0.097099
N354	N	1.660132	-0.268375	0.430432
H355	H	1.018997	-0.965837	-0.208846
H356	H	1.352330	-0.632504	0.124487
H357	H	1.685664	-0.299170	0.457820
H358	H	1.022570	-0.907719	-0.263809
H359	H	1.355903	-0.574385	0.069524
H360	H	1.689236	-0.241052	0.402858
H361	H	0.982878	-1.063001	-0.247700
H362	H	1.316211	-0.729668	0.085634
H363	H	1.649545	-0.396334	0.418967
N364	N	0.993479	-0.219484	-0.930890
N365	N	1.326812	0.113849	-0.597557
N366	N	1.660146	0.447182	-0.264223
H367	H	0.983731	-0.174504	-0.943203
H368	H	1.317064	0.158830	-0.609870
H369	H	1.650398	0.492163	-0.276537
H370	H	0.987341	-0.225657	-0.880756
H371	H	1.320674	0.107676	-0.547423
H372	H	1.654008	0.441010	-0.214089
N373	N	0.826068	-1.071713	-0.416060
N374	N	1.159401	-0.738380	-0.082727
N375	N	1.492735	-0.405046	0.250607
H376	H	0.832197	-1.118347	-0.409508
H377	H	1.165531	-0.785013	-0.076175
H378	H	1.498864	-0.451680	0.257158
H379	H	0.781111	-1.060269	-0.405480
H380	H	1.114445	-0.726936	-0.072147
H381	H	1.447778	-0.393603	0.261187
H382	H	0.836664	-0.376185	-0.940159
H383	H	1.169997	-0.042851	-0.606826
H384	H	1.503330	0.290482	-0.273493
H385	H	0.836631	-0.376219	-0.712635
H386	H	1.169965	-0.042886	-0.379302
H387	H	1.503298	0.290448	-0.045969
