data_functionalizedCrystal
_audit_creation_method	'MofGen! by Chris Wilmer'
_symmetry_space_group_name_H-M	'P1'
_symmetry_Int_Tables_number	1
_symmetry_cell_setting	triclinic
loop_
_symmetry_equiv_pos_as_xyz
  x,y,z
_cell_length_a	23.532355
_cell_length_b	23.532407
_cell_length_c	22.610064
_cell_angle_alpha	90.000603
_cell_angle_beta	89.997644
_cell_angle_gamma	97.161912
loop_
_atom_site_label
_atom_site_type_symbol
_atom_site_fract_x
_atom_site_fract_y
_atom_site_fract_z
O1	O	0.755283	-0.068986	-0.049110
O2	O	1.088616	0.264347	0.284223
O3	O	1.421949	0.597680	0.617557
O4	O	0.589415	-0.079020	-0.049130
O5	O	0.922748	0.254313	0.284204
O6	O	1.256082	0.587646	0.617537
O7	O	0.677351	0.008929	-0.049108
O8	O	1.010684	0.342263	0.284225
O9	O	1.344017	0.675596	0.617558
O10	O	0.667347	-0.156936	-0.049131
O11	O	1.000680	0.176397	0.284202
O12	O	1.334014	0.509731	0.617535
O13	O	0.677335	0.008916	0.049261
O14	O	1.010668	0.342250	0.382594
O15	O	1.344002	0.675583	0.715927
O16	O	0.589400	-0.079033	0.049239
O17	O	0.922733	0.254300	0.382573
O18	O	1.256066	0.587633	0.715906
O19	O	0.755267	-0.068999	0.049259
O20	O	1.088600	0.264334	0.382592
O21	O	1.421934	0.597667	0.715926
Zn22	Zn	0.672331	-0.074018	0.064868
Zn23	Zn	1.005664	0.259315	0.398201
Zn24	Zn	1.338998	0.592648	0.731534
Zn25	Zn	0.672351	-0.074001	-0.064738
Zn26	Zn	1.005685	0.259332	0.268595
Zn27	Zn	1.339018	0.592665	0.601929
O28	O	0.667332	-0.156949	0.049238
O29	O	1.000665	0.176384	0.382571
O30	O	1.333998	0.509718	0.715905
C31	C	0.568191	-0.078776	0.000052
C32	C	0.901524	0.254557	0.333386
C33	C	1.234857	0.587891	0.666719
C34	C	0.504972	-0.078022	0.000045
C35	C	0.838305	0.255311	0.333379
C36	C	1.171639	0.588645	0.666712
C37	C	0.112950	-0.073291	0.053692
C38	C	0.446283	0.260042	0.387025
C39	C	0.779616	0.593376	0.720359
C40	C	0.053550	-0.072573	0.053694
C41	C	0.386884	0.260760	0.387028
C42	C	0.720217	0.594093	0.720361
O43	O	0.022825	-0.072189	0.099296
O44	O	0.356158	0.261144	0.432630
O45	O	0.689491	0.594478	0.765963
N46	N	0.023850	-0.072211	0.000074
N47	N	0.357184	0.261123	0.333407
N48	N	0.690517	0.594456	0.666740
C49	C	0.053554	-0.072560	-0.053553
C50	C	0.386887	0.260774	0.279780
C51	C	0.720220	0.594107	0.613113
O52	O	0.022837	-0.072185	-0.099162
O53	O	0.356171	0.261149	0.234172
O54	O	0.689504	0.594482	0.567505
C55	C	0.112953	-0.073273	-0.053555
C56	C	0.446286	0.260060	0.279778
C57	C	0.779619	0.593394	0.613112
C58	C	0.142649	-0.073641	0.000069
C59	C	0.475982	0.259692	0.333403
C60	C	0.809315	0.593025	0.666736
C61	C	0.142646	-0.073659	0.107312
C62	C	0.475979	0.259675	0.440645
C63	C	0.809313	0.593008	0.773979
C64	C	0.202041	-0.074377	0.107309
C65	C	0.535375	0.258956	0.440643
C66	C	0.868708	0.592289	0.773976
C67	C	0.231740	-0.074728	0.053687
C68	C	0.565073	0.258605	0.387020
C69	C	0.898407	0.591939	0.720353
C70	C	0.202044	-0.074360	0.000067
C71	C	0.535377	0.258973	0.333400
C72	C	0.868711	0.592307	0.666733
C73	C	0.142655	-0.073618	-0.107181
C74	C	0.475989	0.259716	0.226152
C75	C	0.809322	0.593049	0.559486
C76	C	0.202058	-0.074331	-0.107178
C77	C	0.535392	0.259003	0.226155
C78	C	0.868725	0.592336	0.559489
C79	C	0.231754	-0.074699	-0.053554
C80	C	0.565088	0.258634	0.279779
C81	C	0.898421	0.591967	0.613113
C82	C	0.291138	-0.075429	-0.053558
C83	C	0.624471	0.257904	0.279775
C84	C	0.957805	0.591238	0.613108
N85	N	0.320838	-0.075792	0.000062
N86	N	0.654171	0.257542	0.333396
N87	N	0.987505	0.590875	0.666729
C88	C	0.291139	-0.075441	0.053685
C89	C	0.624472	0.257892	0.387018
C90	C	0.957806	0.591225	0.720352
C91	C	-0.071188	-0.071061	-0.053545
C92	C	0.262145	0.262273	0.279788
C93	C	0.595479	0.595606	0.613121
C94	C	-0.130586	-0.070351	-0.053544
C95	C	0.202747	0.262982	0.279789
C96	C	0.536080	0.596315	0.613122
C97	C	-0.130585	-0.070364	0.053703
C98	C	0.202748	0.262969	0.387037
C99	C	0.536081	0.596303	0.720370
C100	C	-0.071186	-0.071077	0.053702
C101	C	0.262147	0.262256	0.387035
C102	C	0.595480	0.595589	0.720368
C103	C	-0.041488	-0.071423	0.000075
C104	C	0.291846	0.261910	0.333409
C105	C	0.625179	0.595243	0.666742
C106	C	0.415873	-0.076951	0.053675
C107	C	0.749206	0.256383	0.387009
C108	C	1.082540	0.589716	0.720342
C109	C	0.475273	-0.077671	0.053668
C110	C	0.808607	0.255662	0.387001
C111	C	1.141940	0.588995	0.720335
C112	C	0.475267	-0.077656	-0.053579
C113	C	0.808601	0.255678	0.279754
C114	C	1.141934	0.589011	0.613087
C115	C	0.415872	-0.076938	-0.053572
C116	C	0.749205	0.256396	0.279761
C117	C	1.082539	0.589729	0.613094
C118	C	0.386177	-0.076583	0.000060
C119	C	0.719510	0.256750	0.333393
C120	C	1.052843	0.590083	0.666727
O121	O	0.321902	-0.075812	-0.099137
O122	O	0.655235	0.257522	0.234196
O123	O	0.988568	0.590855	0.567529
O124	O	0.321864	-0.075809	0.099286
O125	O	0.655197	0.257525	0.432619
O126	O	0.988530	0.590858	0.765952
C127	C	0.677088	0.030139	0.000078
C128	C	1.010421	0.363472	0.333411
C129	C	1.343755	0.696805	0.666744
C130	C	0.676322	0.093356	0.000082
C131	C	1.009656	0.426689	0.333415
C132	C	1.342989	0.760022	0.666749
C133	C	0.776491	-0.069244	0.000076
C134	C	1.109825	0.264090	0.333409
C135	C	1.443158	0.597423	0.666742
C136	C	0.839710	-0.069998	0.000079
C137	C	1.173043	0.263336	0.333412
C138	C	1.506377	0.596669	0.666745
C139	C	0.667594	-0.178158	0.000050
C140	C	1.000927	0.155175	0.333384
C141	C	1.334261	0.488508	0.666717
C142	C	0.668360	-0.241375	0.000042
C143	C	1.001693	0.091958	0.333375
C144	C	1.335027	0.425291	0.666709
N145	N	0.672321	-0.074029	0.153320
N146	N	1.005654	0.259304	0.486653
N147	N	1.338988	0.592637	0.819987
C148	C	0.723557	0.492468	0.000055
C149	C	1.056890	0.825801	0.333389
C150	C	1.390224	1.159134	0.666722
C151	C	0.722845	0.551868	0.000051
C152	C	1.056179	0.885201	0.333384
C153	C	1.389512	1.218534	0.666717
O154	O	0.766632	0.588620	0.000034
O155	O	1.099966	0.921954	0.333367
O156	O	1.433299	1.255287	0.666701
N157	N	0.670568	0.574484	0.000045
N158	N	1.003901	0.907817	0.333378
N159	N	1.337234	1.241151	0.666712
C160	C	0.618998	0.537697	0.000038
C161	C	0.952332	0.871030	0.333371
C162	C	1.285665	1.204364	0.666704
O163	O	0.574467	0.562388	0.000032
O164	O	0.907800	0.895722	0.333365
O165	O	1.241133	1.229055	0.666698
C166	C	0.619710	0.478298	0.000038
C167	C	0.953044	0.811631	0.333371
C168	C	1.286377	1.144965	0.666705
C169	C	0.671991	0.455685	0.000050
C170	C	1.005325	0.789018	0.333383
C171	C	1.338658	1.122352	0.666716
C172	C	0.775834	0.469854	0.000066
C173	C	1.109167	0.803187	0.333400
C174	C	1.442500	1.136521	0.666733
C175	C	0.776545	0.410458	0.000072
C176	C	1.109878	0.743791	0.333405
C177	C	1.443212	1.077125	0.666739
C178	C	0.724979	0.373676	0.000067
C179	C	1.058313	0.707009	0.333400
C180	C	1.391646	1.040342	0.666733
C181	C	0.672703	0.396289	0.000055
C182	C	1.006036	0.729622	0.333389
C183	C	1.339369	1.062956	0.666722
C184	C	0.568141	0.441512	0.000027
C185	C	0.901475	0.774845	0.333360
C186	C	1.234808	1.108179	0.666693
C187	C	0.568858	0.382110	0.000026
C188	C	0.902191	0.715443	0.333360
C189	C	1.235525	1.048776	0.666693
C190	C	0.621139	0.359497	0.000038
C191	C	0.954472	0.692830	0.333372
C192	C	1.287806	1.026163	0.666705
C193	C	0.621848	0.300110	0.000056
C194	C	0.955182	0.633444	0.333389
C195	C	1.288515	0.966777	0.666722
N196	N	0.674126	0.277494	0.000061
N197	N	1.007459	0.610827	0.333395
N198	N	1.340793	0.944161	0.666728
C199	C	0.725691	0.314277	0.000067
C200	C	1.059025	0.647610	0.333400
C201	C	1.392358	0.980943	0.666734
C202	C	0.617507	0.662439	0.000036
C203	C	0.950840	0.995772	0.333369
C204	C	1.284173	1.329106	0.666703
C205	C	0.616794	0.721837	0.000040
C206	C	0.950127	1.055170	0.333373
C207	C	1.283461	1.388504	0.666706
C208	C	0.720642	0.736004	0.000052
C209	C	1.053975	1.069337	0.333385
C210	C	1.387308	1.402670	0.666718
C211	C	0.721354	0.676605	0.000052
C212	C	1.054687	1.009938	0.333385
C213	C	1.388020	1.343271	0.666719
C214	C	0.669784	0.639823	0.000042
C215	C	1.003118	0.973156	0.333375
C216	C	1.336451	1.306489	0.666708
C217	C	0.727181	0.189540	0.000079
C218	C	1.060514	0.522873	0.333413
C219	C	1.393848	0.856207	0.666746
C220	C	0.727888	0.130138	0.000087
C221	C	1.061221	0.463472	0.333421
C222	C	1.394554	0.796805	0.666754
C223	C	0.624041	0.115977	0.000072
C224	C	0.957374	0.449310	0.333406
C225	C	1.290707	0.782643	0.666739
C226	C	0.623334	0.175373	0.000067
C227	C	0.956667	0.508707	0.333401
C228	C	1.290000	0.842040	0.666734
C229	C	0.674909	0.212154	0.000069
C230	C	1.008242	0.545488	0.333402
C231	C	1.341575	0.878821	0.666736
O232	O	0.578084	0.263323	0.000070
O233	O	0.911418	0.596656	0.333403
O234	O	1.244751	0.929990	0.666737
O235	O	0.770216	0.289577	0.000065
O236	O	1.103549	0.622910	0.333398
O237	O	1.436882	0.956244	0.666732
N238	N	0.672366	-0.073986	-0.153191
N239	N	1.005699	0.259348	0.180143
N240	N	1.339032	0.592681	0.513476
C241	C	0.711291	-0.035063	0.561971
C242	C	1.044624	0.298270	0.895304
C243	C	1.377958	0.631603	1.228637
C244	C	0.711294	-0.035059	0.623891
C245	C	1.044627	0.298274	0.957224
C246	C	1.377961	0.631608	1.290557
O247	O	0.744403	-0.001937	0.655917
O248	O	1.077736	0.331396	0.989251
O249	O	1.411070	0.664730	1.322584
N250	N	0.672351	-0.073990	0.654857
N251	N	1.005684	0.259344	0.988190
N252	N	1.339018	0.592677	1.321524
C253	C	0.633399	-0.112923	0.623900
C254	C	0.966732	0.220410	0.957234
C255	C	1.300065	0.553744	1.290567
O256	O	0.600275	-0.146036	0.655926
O257	O	0.933608	0.187298	0.989259
O258	O	1.266941	0.520631	1.322592
C259	C	0.633394	-0.112924	0.561982
C260	C	0.966727	0.220409	0.895315
C261	C	1.300060	0.553743	1.228648
C262	C	0.672343	-0.073995	0.531018
C263	C	1.005676	0.259339	0.864352
C264	C	1.339010	0.592672	1.197685
C265	C	0.750237	0.003863	0.531007
C266	C	1.083570	0.337197	0.864341
C267	C	1.416903	0.670530	1.197674
C268	C	0.750234	0.003858	0.469092
C269	C	1.083568	0.337192	0.802425
C270	C	1.416901	0.670525	1.135759
C271	C	0.711286	-0.035073	0.438139
C272	C	1.044620	0.298260	0.771473
C273	C	1.377953	0.631593	1.104806
C274	C	0.672340	-0.074000	0.469103
C275	C	1.005674	0.259334	0.802436
C276	C	1.339007	0.592667	1.135769
C277	C	0.594439	-0.151854	0.531026
C278	C	0.927772	0.181479	0.864359
C279	C	1.261106	0.514813	1.197693
C280	C	0.594437	-0.151851	0.469103
C281	C	0.927770	0.181482	0.802436
C282	C	1.261104	0.514815	1.135770
C283	C	0.633386	-0.112922	0.438140
C284	C	0.966720	0.220411	0.771473
C285	C	1.300053	0.553744	1.104807
C286	C	0.633390	-0.112936	0.376235
C287	C	0.966723	0.220397	0.709568
C288	C	1.300057	0.553730	1.042901
N289	N	0.672333	-0.074006	0.345268
N290	N	1.005666	0.259328	0.678602
N291	N	1.339000	0.592661	1.011935
C292	C	0.711281	-0.035074	0.376221
C293	C	1.044614	0.298259	0.709554
C294	C	1.377948	0.631593	1.042887
C295	C	0.633412	-0.112917	0.753934
C296	C	0.966745	0.220416	1.087267
C297	C	1.300079	0.553749	1.420601
C298	C	0.633419	-0.112919	0.815852
C299	C	0.966753	0.220414	1.149185
C300	C	1.300086	0.553747	1.482518
C301	C	0.711314	-0.035055	0.815838
C302	C	1.044647	0.298279	1.149171
C303	C	1.377981	0.631612	1.482504
C304	C	0.711309	-0.035056	0.753919
C305	C	1.044642	0.298278	1.087252
C306	C	1.377975	0.631611	1.420586
C307	C	0.672355	-0.073987	0.722968
C308	C	1.005688	0.259347	1.056301
C309	C	1.339021	0.592680	1.389634
C310	C	0.711273	-0.035088	0.246193
C311	C	1.044607	0.298245	0.579527
C312	C	1.377940	0.631579	0.912860
C313	C	0.711269	-0.035098	0.184272
C314	C	1.044602	0.298235	0.517606
C315	C	1.377936	0.631569	0.850939
C316	C	0.633373	-0.112960	0.184292
C317	C	0.966706	0.220373	0.517625
C318	C	1.300040	0.553706	0.850958
C319	C	0.633379	-0.112953	0.246207
C320	C	0.966712	0.220381	0.579541
C321	C	1.300046	0.553714	0.912874
C322	C	0.672331	-0.074012	0.277157
C323	C	1.005665	0.259322	0.610490
C324	C	1.338998	0.592655	0.943823
O325	O	0.600296	-0.146040	0.344169
O326	O	0.933629	0.187294	0.677502
O327	O	1.266963	0.520627	1.010835
O328	O	0.744395	-0.001962	0.344188
O329	O	1.077728	0.331371	0.677521
O330	O	1.411061	0.664705	1.010855
H331	H	0.226236	-0.074613	-0.150848
H332	H	0.559569	0.258721	0.182485
H333	H	0.892902	0.592054	0.515818
H334	H	0.819117	0.392053	0.000079
H335	H	1.152451	0.725386	0.333413
H336	H	1.485784	1.058719	0.666746
Cl337	Cl	0.545471	-0.200795	0.569939
Cl338	Cl	0.878804	0.132539	0.903272
Cl339	Cl	1.212137	0.465872	1.236606
H340	H	0.601692	-0.144624	0.728736
H341	H	0.935026	0.188709	1.062070
H342	H	1.268359	0.522042	1.395403
H343	H	-0.047012	-0.071348	-0.097217
H344	H	0.286322	0.261986	0.236116
H345	H	0.619655	0.595319	0.569450
H346	H	0.391691	-0.076647	-0.097238
H347	H	0.725024	0.256686	0.236096
H348	H	1.058358	0.590020	0.569429
Cl349	Cl	0.512615	-0.078093	-0.120987
Cl350	Cl	0.845948	0.255241	0.212346
Cl351	Cl	1.179281	0.588574	0.545680
H352	H	-0.154777	-0.070078	0.097366
H353	H	0.178557	0.263256	0.430699
H354	H	0.511890	0.596589	0.764033
Cl355	Cl	0.512602	-0.078136	0.121087
Cl356	Cl	0.845935	0.255197	0.454420
Cl357	Cl	1.179268	0.588530	0.787753
H358	H	0.601709	-0.144625	0.841058
H359	H	0.935043	0.188708	1.174391
H360	H	1.268376	0.522042	1.507724
H361	H	0.781953	0.035569	0.556203
H362	H	1.115286	0.368902	0.889537
H363	H	1.448619	0.702235	1.222870
H364	H	0.763925	0.658198	0.000061
H365	H	1.097259	0.991531	0.333394
H366	H	1.430592	1.324864	0.666728
H367	H	0.575510	0.632494	0.000033
H368	H	0.908844	0.965827	0.333366
H369	H	1.242177	1.299160	0.666699
Cl370	Cl	0.840668	0.516085	0.000074
Cl371	Cl	1.174002	0.849419	0.333408
Cl372	Cl	1.507335	1.182752	0.666741
Cl373	Cl	0.584418	-0.161900	0.285131
Cl374	Cl	0.917752	0.171433	0.618464
Cl375	Cl	1.251085	0.504767	0.951798
Cl376	Cl	0.502412	0.469924	0.000008
Cl377	Cl	0.835746	0.803258	0.333341
Cl378	Cl	1.169079	1.136591	0.666675
Cl379	Cl	0.551067	0.750257	0.000036
Cl380	Cl	0.884400	1.083590	0.333370
Cl381	Cl	1.217733	1.416923	0.666703
H382	H	0.526863	0.352164	0.000017
H383	H	0.860196	0.685497	0.333351
H384	H	1.193530	1.018830	0.666684
Cl385	Cl	0.557608	0.203802	0.000064
Cl386	Cl	0.890942	0.537135	0.333397
Cl387	Cl	1.224275	0.870469	0.666730
H388	H	0.743024	-0.003356	0.728712
H389	H	1.076358	0.329977	1.062046
H390	H	1.409691	0.663311	1.395379
Cl391	Cl	0.584412	-0.161901	0.145370
Cl392	Cl	0.917745	0.171432	0.478704
Cl393	Cl	1.251079	0.504765	0.812037
Cl394	Cl	0.785467	0.782256	0.000054
Cl395	Cl	1.118801	1.115589	0.333388
Cl396	Cl	1.452134	1.448922	0.666721
H397	H	0.391701	-0.076667	0.097348
H398	H	0.725035	0.256666	0.430681
H399	H	1.058368	0.590000	0.764014
H400	H	0.582057	0.086018	0.000070
H401	H	0.915391	0.419351	0.333404
H402	H	1.248724	0.752684	0.666737
H403	H	0.118487	-0.073317	-0.150848
H404	H	0.451820	0.260016	0.182486
H405	H	0.785154	0.593350	0.515819
Cl406	Cl	0.793617	0.101715	0.000101
Cl407	Cl	1.126951	0.435048	0.333434
Cl408	Cl	1.460284	0.768382	0.666768
Cl409	Cl	0.760238	0.013844	0.145350
Cl410	Cl	1.093572	0.347178	0.478684
Cl411	Cl	1.426905	0.680511	0.812017
Cl412	Cl	-0.167913	-0.069899	-0.120961
Cl413	Cl	0.165421	0.263434	0.212373
Cl414	Cl	0.498754	0.596767	0.545706
H415	H	0.769178	0.219481	0.000078
H416	H	1.102512	0.552814	0.333412
H417	H	1.435845	0.886147	0.666745
H418	H	0.226215	-0.074674	0.150976
H419	H	0.559548	0.258660	0.484309
H420	H	0.892882	0.591993	0.817642
H421	H	0.743027	-0.003354	0.841050
H422	H	1.076360	0.329980	1.174384
H423	H	1.409694	0.663313	1.507717
Cl424	Cl	-0.033860	-0.071539	0.121117
Cl425	Cl	0.299473	0.261795	0.454451
Cl426	Cl	0.632807	0.595128	0.787784
Cl427	Cl	0.105321	-0.073221	0.174733
Cl428	Cl	0.438654	0.260112	0.508066
Cl429	Cl	0.771987	0.593445	0.841399
H430	H	0.742991	-0.003378	0.271385
H431	H	1.076325	0.329955	0.604719
H432	H	1.409658	0.663289	0.938052
Cl433	Cl	0.545462	-0.200796	0.430197
Cl434	Cl	0.878795	0.132537	0.763531
Cl435	Cl	1.212129	0.465871	1.096864
H436	H	0.781948	0.035559	0.443885
H437	H	1.115282	0.368893	0.777219
H438	H	1.448615	0.702226	1.110552
