data_functionalizedCrystal
_audit_creation_method	'MofGen! by Chris Wilmer'
_symmetry_space_group_name_H-M	'P1'
_symmetry_Int_Tables_number	1
_symmetry_cell_setting	triclinic
loop_
_symmetry_equiv_pos_as_xyz
  x,y,z
_cell_length_a	10.654550
_cell_length_b	10.489741
_cell_length_c	9.730223
_cell_angle_alpha	89.995878
_cell_angle_beta	89.999957
_cell_angle_gamma	84.512052
loop_
_atom_site_label
_atom_site_type_symbol
_atom_site_fract_x
_atom_site_fract_y
_atom_site_fract_z
O1	O	1.667923	0.179162	-0.114186
O2	O	2.167923	0.679162	0.385814
O3	O	1.302452	0.196231	-0.114212
O4	O	1.802452	0.696231	0.385788
O5	O	1.493504	0.002095	-0.114190
O6	O	1.993504	0.502095	0.385810
O7	O	1.476872	0.373298	-0.114208
O8	O	1.976872	0.873298	0.385792
O9	O	1.493491	0.002089	0.114390
O10	O	1.993491	0.502089	0.614390
O11	O	1.302440	0.196226	0.114368
O12	O	1.802440	0.696226	0.614368
O13	O	1.667911	0.179157	0.114393
O14	O	2.167911	0.679157	0.614393
Zn15	Zn	1.485173	0.187690	0.150673
Zn16	Zn	1.985173	0.687690	0.650673
Zn17	Zn	1.485190	0.187697	-0.150491
Zn18	Zn	1.985190	0.687697	0.349509
O19	O	1.476859	0.373293	0.114372
O20	O	1.976859	0.873293	0.614372
C21	C	1.255648	0.194975	0.000075
C22	C	1.755648	0.694975	0.500075
C23	C	1.116203	0.191225	0.000066
C24	C	1.616203	0.691225	0.500066
C25	C	1.036771	0.305530	0.000064
C26	C	1.536771	0.805530	0.500064
C27	C	0.905748	0.301999	0.000088
C28	C	1.405748	0.801999	0.500088
C29	C	0.933603	0.069849	0.000110
C30	C	1.433603	0.569849	0.500110
C31	C	1.064623	0.073381	0.000095
C32	C	1.564623	0.573381	0.500095
C33	C	1.492241	-0.045439	0.000099
C34	C	1.992241	0.454561	0.500099
C35	C	1.488483	-0.187067	0.000096
C36	C	1.988483	0.312933	0.500096
C37	C	1.366923	-0.255148	0.000078
C38	C	1.866923	0.244852	0.500078
C39	C	1.424341	-0.347301	0.112783
C40	C	1.924341	0.152699	0.612783
C41	C	1.424382	-0.347270	-0.112579
C42	C	1.924382	0.152730	0.387421
C43	C	1.545951	-0.277354	0.112895
C44	C	2.045951	0.222646	0.612895
C45	C	1.545975	-0.277314	-0.112568
C46	C	2.045975	0.222686	0.387432
C47	C	1.603481	-0.369439	0.000165
C48	C	2.103481	0.130561	0.500165
C49	C	1.714715	0.180413	0.000104
C50	C	2.214715	0.680413	0.500104
C51	C	1.854160	0.184162	0.000104
C52	C	2.354160	0.684162	0.500104
C53	C	1.478122	0.420827	0.000080
C54	C	1.978122	0.920827	0.500080
C55	C	1.481880	0.562454	0.000074
C56	C	1.981880	1.062454	0.500074
N57	N	1.485171	0.187685	0.356209
N58	N	1.985171	0.687685	0.856209
N59	N	1.485201	0.187693	-0.356027
N60	N	1.985201	0.687693	0.143973
C61	C	1.569798	0.101758	0.428145
C62	C	2.069798	0.601758	0.928145
C63	C	1.569811	0.101758	0.572028
C64	C	2.069811	0.601758	1.072028
C65	C	1.400566	0.273624	0.572027
C66	C	1.900566	0.773624	1.072027
C67	C	1.400548	0.273616	0.428147
C68	C	1.900548	0.773616	0.928147
H69	H	0.841079	0.395078	0.000090
H70	H	1.341079	0.895078	0.500090
O71	O	1.614109	-0.236300	-0.238781
O72	O	2.114109	0.263700	0.261219
H73	H	1.698057	-0.188536	-0.207071
H74	H	2.198057	0.311464	0.292929
H75	H	1.703517	-0.418912	0.000234
H76	H	2.203517	0.081088	0.500234
H77	H	1.078762	0.401486	0.000050
H78	H	1.578762	0.901486	0.500050
H79	H	1.129300	-0.019705	0.000100
H80	H	1.629300	0.480295	0.500100
H81	H	1.638720	0.031787	0.630593
H82	H	2.138720	0.531787	1.130593
O83	O	1.356245	-0.388273	-0.238799
O84	O	1.856245	0.111727	0.261201
H85	H	1.258079	-0.342058	-0.238558
H86	H	1.758079	0.157942	0.261442
H87	H	1.638702	0.031785	0.369576
H88	H	2.138702	0.531785	0.869576
H89	H	0.891590	-0.026096	0.000142
H90	H	1.391590	0.473904	0.500142
H91	H	1.372900	-0.378290	0.208061
H92	H	1.872900	0.121710	0.708061
O93	O	1.234542	-0.189296	0.000209
O94	O	1.734542	0.310704	0.500209
H95	H	1.184380	-0.217146	0.093905
H96	H	1.684380	0.282854	0.593905
O97	O	1.614011	-0.236567	0.239261
O98	O	2.114011	0.263433	0.739261
H99	H	1.616223	-0.130997	0.238306
H100	H	2.116223	0.369003	0.738306
H101	H	1.331669	0.343590	0.630613
H102	H	1.831669	0.843590	1.130613
O103	O	1.309273	0.366303	0.350543
O104	O	1.809273	0.866303	0.850543
H105	H	1.250445	0.426072	0.424735
H106	H	1.750445	0.926072	0.924735
