data_functionalizedCrystal
_audit_creation_method	'MofGen! by Chris Wilmer'
_symmetry_space_group_name_H-M	'P1'
_symmetry_Int_Tables_number	1
_symmetry_cell_setting	triclinic
loop_
_symmetry_equiv_pos_as_xyz
  x,y,z
_cell_length_a	10.654550
_cell_length_b	17.699083
_cell_length_c	9.130313
_cell_angle_alpha	89.997869
_cell_angle_beta	89.996220
_cell_angle_gamma	83.883958
loop_
_atom_site_label
_atom_site_type_symbol
_atom_site_fract_x
_atom_site_fract_y
_atom_site_fract_z
O1	O	1.665973	0.106299	-0.121923
O2	O	1.300318	0.116427	-0.121900
O3	O	1.493476	0.001240	-0.121899
O4	O	1.472815	0.221487	-0.121924
O5	O	1.493474	0.001243	0.121700
O6	O	1.300315	0.116430	0.121699
O7	O	1.665971	0.106302	0.121676
Cu8	Cu	1.483143	0.111366	0.143930
Cu9	Cu	1.483146	0.111363	-0.144154
O10	O	1.472812	0.221490	0.121675
C11	C	1.253531	0.115685	-0.000097
C12	C	1.114127	0.113460	-0.000088
C13	C	1.033454	0.181281	-0.000117
C14	C	0.902470	0.179185	-0.000142
C15	C	0.932845	0.041443	-0.000115
C16	C	1.063826	0.043539	-0.000080
C17	C	1.015917	0.260805	-0.000139
C18	C	0.884933	0.258710	-0.000164
C19	C	1.492735	-0.026961	-0.000099
C20	C	1.490514	-0.110993	-0.000099
C21	C	1.603894	-0.158893	-0.000104
C22	C	1.601799	-0.237850	-0.000117
C23	C	1.486324	-0.268905	-0.000114
C24	C	1.372935	-0.220998	-0.000113
C25	C	1.375031	-0.142043	-0.000111
C26	C	1.364481	-0.539415	-0.000124
C27	C	1.362394	-0.618376	-0.000122
C28	C	1.591249	-0.635222	-0.000130
C29	C	1.593345	-0.556266	-0.000128
C30	C	1.479957	-0.508367	-0.000135
C31	C	1.482229	-0.422753	-0.000124
C32	C	1.484050	-0.354517	-0.000114
C33	C	1.712757	0.107044	-0.000130
C34	C	1.852161	0.109269	-0.000149
C35	C	1.473554	0.249690	-0.000128
C36	C	1.475775	0.333722	-0.000138
N37	N	1.483150	0.111369	0.346553
N38	N	1.483149	0.111355	-0.346777
C39	C	1.568702	0.060381	0.423205
C40	C	1.568699	0.060372	0.576542
C41	C	1.397587	0.162345	0.576561
C42	C	1.397585	0.162349	0.423226
C43	C	1.667496	0.001510	0.423195
C44	C	1.667493	0.001501	0.576532
H45	H	1.697927	-0.133615	-0.000097
H46	H	1.763777	0.014469	0.618141
H47	H	1.044703	0.291908	0.101809
H48	H	0.838840	0.282744	0.105002
H49	H	0.891873	-0.015484	-0.000131
H50	H	0.842677	0.288672	-0.102121
H51	H	1.282705	-0.103043	-0.000107
N52	N	1.628386	-0.071324	0.639530
H53	H	1.540251	-0.078455	0.605405
H54	H	1.688976	-0.115585	0.605356
H55	H	1.129507	-0.011687	-0.000035
H56	H	1.683575	-0.674231	-0.000132
N57	N	1.062578	0.294339	-0.139450
H58	H	0.988783	0.309002	-0.206786
H59	H	1.105711	0.340888	-0.115126
N60	N	1.248383	-0.254489	-0.000120
H61	H	1.264257	-0.311775	-0.000117
H62	H	1.198778	-0.237009	0.090187
N63	N	1.724087	-0.289514	-0.000114
H64	H	1.797557	-0.257860	-0.000102
H65	H	1.728190	-0.322641	0.090192
N66	N	1.717893	-0.522771	-0.000119
H67	H	1.789403	-0.565098	-0.000126
H68	H	1.723746	-0.490376	-0.090423
H69	H	1.327912	0.203861	0.360818
N70	N	1.305300	0.217327	0.659259
H71	H	1.318278	0.209586	0.768027
H72	H	1.319632	0.271103	0.632464
N73	N	1.237840	-0.651874	-0.000111
H74	H	1.166326	-0.609550	-0.000116
H75	H	1.231993	-0.684268	-0.090411
N76	N	1.242190	-0.487758	-0.000126
H77	H	1.168722	-0.519415	-0.000117
H78	H	1.238071	-0.454633	0.090179
N79	N	1.640447	-0.075543	0.368057
H80	H	1.628368	-0.109931	0.454050
H81	H	1.561209	-0.069825	0.306568
H82	H	1.758357	0.019943	0.375629
