data_functionalizedCrystal
_audit_creation_method	'MofGen! by Chris Wilmer'
_symmetry_space_group_name_H-M	'P1'
_symmetry_Int_Tables_number	1
_symmetry_cell_setting	triclinic
loop_
_symmetry_equiv_pos_as_xyz
  x,y,z
_cell_length_a	16.959454
_cell_length_b	19.077236
_cell_length_c	19.076919
_cell_angle_alpha	89.887323
_cell_angle_beta	92.275489
_cell_angle_gamma	92.313014
loop_
_atom_site_label
_atom_site_type_symbol
_atom_site_fract_x
_atom_site_fract_y
_atom_site_fract_z
Zn1	Zn	-0.286928	1.058310	-0.440559
Zn2	Zn	0.213072	1.558310	0.059441
Zn3	Zn	-0.413600	1.062959	-0.323060
Zn4	Zn	0.086400	1.562959	0.176940
Zn5	Zn	-0.286514	0.945526	-0.318339
Zn6	Zn	0.213486	1.445526	0.181661
Zn7	Zn	-0.424146	0.940779	-0.435799
Zn8	Zn	0.075854	1.440779	0.064201
O9	O	-0.352797	1.001893	-0.379439
O10	O	0.147203	1.501893	0.120561
O11	O	-0.299492	1.157260	-0.428941
O12	O	0.200508	1.657260	0.071059
O13	O	-0.392155	1.051313	-0.224103
O14	O	0.107845	1.551313	0.275897
O15	O	-0.175957	0.960528	-0.334568
O16	O	0.324043	1.460528	0.165432
O17	O	-0.392557	1.160675	-0.342615
O18	O	0.107443	1.660675	0.157385
O19	O	-0.176261	1.043390	-0.424363
O20	O	0.323739	1.543390	0.075637
O21	O	-0.298785	0.965036	-0.220634
O22	O	0.201215	1.465036	0.279366
O23	O	-0.309011	0.846563	-0.329953
O24	O	0.190989	1.346563	0.170047
O25	O	-0.410530	0.952437	-0.534762
O26	O	0.089470	1.452437	-0.034762
O27	O	-0.410128	0.843075	-0.416250
O28	O	0.089872	1.343075	0.083750
O29	O	-0.309717	1.038787	-0.538259
O30	O	0.190283	1.538787	-0.038259
O31	O	-0.525611	1.046710	-0.337999
O32	O	-0.025611	1.546710	0.162001
O33	O	-0.533359	0.956945	-0.420828
O34	O	-0.033359	1.456945	0.079172
C35	C	-0.360669	0.819322	-0.372073
C36	C	0.139331	1.319322	0.127927
C37	C	-0.364057	0.741216	-0.368938
C38	C	0.135943	1.241216	0.131062
C39	C	-0.317278	0.702742	-0.412479
C40	C	0.182722	1.202742	0.087521
C41	C	-0.320457	0.629354	-0.409528
C42	C	0.179543	1.129354	0.090472
C43	C	-0.370420	0.594441	-0.363038
C44	C	0.129580	1.094441	0.136962
C45	C	-0.417201	0.632921	-0.319492
C46	C	0.082799	1.132921	0.180508
C47	C	-0.414017	0.706308	-0.322441
C48	C	0.085983	1.206308	0.177559
C49	C	-0.385124	0.375149	-0.349389
C50	C	0.114876	0.875149	0.150611
C51	C	-0.388306	0.301757	-0.346446
C52	C	0.111694	0.801757	0.153554
C53	C	-0.291561	0.298195	-0.436481
C54	C	0.208439	0.798195	0.063519
C55	C	-0.288385	0.371583	-0.439428
C56	C	0.211615	0.871583	0.060572
C57	C	-0.335163	0.410056	-0.395880
C58	C	0.164837	0.910056	0.104120
N59	N	-0.373672	0.519427	-0.360021
N60	N	0.126328	1.019427	0.139979
N61	N	-0.331906	0.485070	-0.398893
N62	N	0.168094	0.985070	0.101107
C63	C	-0.558165	1.001835	-0.379425
C64	C	-0.058165	1.501835	0.120575
C65	C	-0.646021	1.001873	-0.379445
C66	C	-0.146021	1.501873	0.120555
C67	C	-1.021556	0.955218	-0.422566
C68	C	-0.521556	1.455218	0.077434
C69	C	-1.013429	1.048761	-0.336392
C70	C	-0.513429	1.548761	0.163608
C71	C	-0.930884	1.048737	-0.336385
C72	C	-0.430884	1.548737	0.163615
C73	C	-0.893671	1.001952	-0.379468
C74	C	-0.393671	1.501952	0.120532
C75	C	-0.939004	0.955191	-0.422558
C76	C	-0.439004	1.455191	0.077442
C77	C	-0.885546	1.095492	-0.293290
C78	C	-0.385546	1.595492	0.206710
C79	C	-0.802995	1.095470	-0.293280
C80	C	-0.302995	1.595470	0.206720
C81	C	-0.765781	1.048687	-0.336367
C82	C	-0.265781	1.548687	0.163633
C83	C	-0.811119	1.001925	-0.379460
C84	C	-0.311119	1.501925	0.120540
C85	C	-0.773906	0.955139	-0.422543
C86	C	-0.273906	1.455139	0.077457
C87	C	-0.819242	0.908380	-0.465641
C88	C	-0.319242	1.408380	0.034359
C89	C	-0.901790	0.908408	-0.465646
C90	C	-0.401790	1.408408	0.034354
C91	C	-0.683234	1.048659	-0.336362
C92	C	-0.183234	1.548659	0.163638
C93	C	-0.691353	0.955112	-0.422536
C94	C	-0.191353	1.455112	0.077464
C95	C	-0.146627	1.001970	-0.379470
C96	C	0.353373	1.501970	0.120530
C97	C	-0.058769	1.002003	-0.379483
C98	C	0.441231	1.502003	0.120517
C99	C	-0.361346	0.994564	-0.562719
C100	C	0.138654	1.494564	-0.062719
C101	C	-0.364989	0.991441	-0.640822
C102	C	0.135011	1.491441	-0.140822
C103	C	-0.344894	1.185177	-0.386835
C104	C	0.155106	1.685177	0.113165
C105	C	-0.341527	1.263282	-0.389987
C106	C	0.158473	1.763282	0.110013
C107	C	-0.314215	1.034929	-0.679337
C108	C	0.185785	1.534929	-0.179337
C109	C	-0.317636	1.031986	-0.752723
C110	C	0.182364	1.531986	-0.252723
C111	C	-0.371834	0.985558	-0.787592
C112	C	0.128166	1.485558	-0.287592
C113	C	-0.422611	0.942065	-0.749072
C114	C	0.077389	1.442065	-0.249072
C115	C	-0.419186	0.945005	-0.675688
C116	C	0.080814	1.445005	-0.175688
C117	C	-0.387702	0.971941	-1.006873
C118	C	0.112298	1.471941	-0.506873
C119	C	-0.391125	0.969005	-1.080262
C120	C	0.108875	1.469005	-0.580262
C121	C	-0.286148	1.058926	-1.083908
C122	C	0.213852	1.558926	-0.583908
C123	C	-0.282732	1.061865	-1.010522
C124	C	0.217268	1.561865	-0.510522
C125	C	-0.333505	1.018369	-0.972008
C126	C	0.166495	1.518369	-0.472008
N127	N	-0.375334	0.982550	-0.862604
N128	N	0.124666	1.482550	-0.362604
N129	N	-0.330001	1.021374	-0.896997
N130	N	0.169999	1.521374	-0.396997
C131	C	-0.344222	1.009234	-0.196874
C132	C	0.155778	1.509234	0.303126
C133	C	-0.340351	1.012494	-0.118777
C134	C	0.159649	1.512494	0.381223
H135	H	-0.452109	0.737633	-0.286984
H136	H	0.047891	1.237633	0.213016
H137	H	-0.276595	0.731162	-0.450338
H138	H	0.223405	1.231162	0.049662
N139	N	-0.651226	0.904645	-0.469005
N140	N	-0.151226	1.404645	0.030995
H141	H	-0.617087	0.873234	-0.439105
H142	H	-0.117087	1.373234	0.060895
H143	H	-0.617272	0.931908	-0.502732
H144	H	-0.117272	1.431908	-0.002732
H145	H	-0.244811	1.094337	-1.115274
H146	H	0.255189	1.594337	-0.615274
N147	N	-0.241097	0.256703	-0.483440
N148	N	0.258903	0.756703	0.016560
H149	H	-0.255244	0.267474	-0.534142
H150	H	0.244756	0.767474	-0.034142
H151	H	-0.250710	0.204930	-0.474461
H152	H	0.249290	0.704930	0.025539
N153	N	-0.481052	0.891972	-0.786677
N154	N	0.018948	1.391972	-0.286677
H155	H	-0.475515	0.896705	-0.839010
H156	H	0.024485	1.396705	-0.339010
H157	H	-0.536440	0.903388	-0.774287
H158	H	-0.036440	1.403388	-0.274287
N159	N	-0.634330	1.099082	-0.289886
N160	N	-0.134330	1.599082	0.210114
H161	H	-0.646844	1.090218	-0.239233
H162	H	-0.146844	1.590218	0.260767
H163	H	-0.647015	1.148826	-0.302921
H164	H	-0.147015	1.648826	0.197079
N165	N	-0.449587	0.918929	-1.117875
N166	N	0.050413	1.418929	-0.617875
H167	H	-0.481232	0.891820	-1.082341
H168	H	0.018768	1.391820	-0.582341
H169	H	-0.420233	0.885207	-1.147017
H170	H	0.079767	1.385207	-0.647017
H171	H	-0.938710	0.870339	-0.500732
H172	H	-0.438710	1.370339	-0.000732
H173	H	-0.460524	0.909585	-0.644329
H174	H	0.039476	1.409585	-0.144329
H175	H	-0.428996	0.273333	-0.308588
H176	H	0.071004	0.773333	0.191412
N177	N	-0.435573	0.416640	-0.302420
N178	N	0.064427	0.916640	0.197580
H179	H	-0.467707	0.383385	-0.272524
H180	H	0.032293	0.883385	0.227476
H181	H	-0.472214	0.445949	-0.332185
H182	H	0.027786	0.945949	0.167815
H183	H	-0.457877	0.604489	-0.281636
H184	H	0.042123	1.104489	0.218364
N185	N	-0.779103	0.857913	-0.512101
N186	N	-0.279103	1.357913	-0.012101
H187	H	-0.719931	0.864991	-0.505550
H188	H	-0.219931	1.364991	-0.005550
H189	H	-0.795370	0.866804	-0.562738
H190	H	-0.295370	1.366804	-0.062738
H191	H	-1.058473	0.917149	-0.457657
H192	H	-0.558473	1.417149	0.042343
N193	N	-1.053561	1.099209	-0.289914
N194	N	-0.553561	1.599209	0.210086
H195	H	-1.112734	1.092127	-0.296454
H196	H	-0.612734	1.592127	0.203546
H197	H	-1.037440	1.148946	-0.302909
H198	H	-0.537440	1.648946	0.197091
H199	H	-0.282366	0.598031	-0.444985
H200	H	0.217634	1.098031	0.055015
N201	N	-0.925679	1.145937	-0.246809
N202	N	-0.425679	1.645937	0.253191
H203	H	-0.984852	1.138857	-0.253354
H204	H	-0.484852	1.638857	0.246646
H205	H	-0.909555	1.195675	-0.259797
H206	H	-0.409555	1.695675	0.240203
N207	N	-0.234470	0.409222	-0.489560
N208	N	0.265530	0.909222	0.010440
H209	H	-0.195142	0.440804	-0.462273
H210	H	0.304858	0.940804	0.037727
H211	H	-0.266882	0.438336	-0.523297
H212	H	0.233118	0.938336	-0.023297
N213	N	-0.754100	1.145906	-0.246807
N214	N	-0.254100	1.645906	0.253193
H215	H	-0.790201	1.175549	-0.219517
H216	H	-0.290201	1.675549	0.280483
H217	H	-0.719755	1.177244	-0.276752
H218	H	-0.219755	1.677244	0.223248
N219	N	-0.255762	1.085011	-0.641730
N220	N	0.244238	1.585011	-0.141730
H221	H	-0.224116	1.112112	-0.677268
H222	H	0.275884	1.612112	-0.177268
H223	H	-0.218994	1.057642	-0.610131
H224	H	0.281006	1.557642	-0.110131
N225	N	-0.262858	1.078877	-0.794264
N226	N	0.237142	1.578877	-0.294264
H227	H	-0.228003	1.108734	-0.761039
H228	H	0.271997	1.608734	-0.261039
H229	H	-0.295039	1.110166	-0.826030
H230	H	0.204961	1.610166	-0.326030
H231	H	-0.238599	1.099674	-0.982136
H232	H	0.261401	1.599674	-0.482136
N233	N	-0.442437	0.925007	-0.965337
N234	N	0.057563	1.425007	-0.465337
H235	H	-0.477283	0.895144	-0.998564
H236	H	0.022717	1.395144	-0.498564
H237	H	-0.476374	0.954790	-0.936023
H238	H	0.023626	1.454790	-0.436023
