data_functionalizedCrystal
_audit_creation_method	'MofGen! by Chris Wilmer'
_symmetry_space_group_name_H-M	'P1'
_symmetry_Int_Tables_number	1
_symmetry_cell_setting	triclinic
loop_
_symmetry_equiv_pos_as_xyz
  x,y,z
_cell_length_a	16.974800
_cell_length_b	10.489716
_cell_length_c	16.053802
_cell_angle_alpha	92.595649
_cell_angle_beta	91.074188
_cell_angle_gamma	83.958131
loop_
_atom_site_label
_atom_site_type_symbol
_atom_site_fract_x
_atom_site_fract_y
_atom_site_fract_z
O1	O	1.049991	0.162595	0.001550
O2	O	0.820639	0.182121	-0.013953
O3	O	0.940544	-0.013302	-0.005851
O4	O	0.930086	0.358018	-0.006552
O5	O	0.933944	-0.002590	0.132562
O6	O	0.814039	0.192833	0.124460
O7	O	1.043391	0.173308	0.139963
Zn8	Zn	0.927667	0.184771	0.154188
Zn9	Zn	0.936363	0.170657	-0.028177
O10	O	0.923486	0.368731	0.131861
C11	C	0.787971	0.186539	0.053268
C12	C	0.700462	0.183726	0.047353
C13	C	0.655757	0.188241	0.120024
C14	C	0.573535	0.185578	0.114468
C15	C	0.536019	0.178409	0.036240
C16	C	0.580730	0.173890	-0.036437
C17	C	0.662951	0.176544	-0.030880
C18	C	0.290500	0.169837	0.011530
C19	C	0.208273	0.167187	0.005979
C20	C	0.201084	0.178873	0.156885
C21	C	0.283307	0.181534	0.162435
C22	C	0.328011	0.177008	0.089758
N23	N	0.451975	0.175691	0.030559
N24	N	0.412054	0.179717	0.095440
C25	C	0.936458	-0.055469	0.063300
C26	C	0.934108	-0.197074	0.063134
C27	C	1.007637	-0.295591	0.068111
C28	C	0.972036	-0.377787	-0.002758
C29	C	0.965512	-0.367190	0.133706
C30	C	0.898541	-0.277409	-0.007790
C31	C	0.892024	-0.266801	0.128735
C32	C	0.856371	-0.348949	0.057846
C33	C	1.076059	0.168890	0.072740
C34	C	1.163568	0.171702	0.078651
C35	C	0.927572	0.410898	0.062709
C36	C	0.929922	0.552502	0.062870
N37	N	0.921738	0.194403	0.278647
N38	N	0.942298	0.161016	-0.152637
C39	C	0.972777	0.111280	0.325790
C40	C	0.968637	0.118029	0.412917
C41	C	0.913461	0.207909	0.452900
C42	C	0.862417	0.291036	0.405751
C43	C	0.866554	0.284279	0.318625
C44	C	0.895391	0.237386	0.713089
C45	C	0.891259	0.244139	0.800221
C46	C	0.997478	0.071130	0.807381
C47	C	1.001614	0.064387	0.720254
C48	C	0.950567	0.147509	0.673112
N49	N	0.909230	0.214813	0.541958
N50	N	0.954795	0.140598	0.584055
H51	H	0.686296	0.194089	0.183726
O52	O	0.780054	-0.377401	0.052537
C53	C	0.769830	-0.455740	-0.019742
H54	H	0.829544	-0.507308	-0.039280
H55	H	0.744132	-0.393760	-0.072250
C56	C	0.639370	-0.492044	0.022623
C57	C	0.712711	-0.555389	-0.001370
H58	H	0.604134	-0.553508	0.033954
H59	H	0.646257	-0.439261	0.071317
H60	H	0.617966	-0.440396	-0.021137
H61	H	0.734119	-0.607022	0.042394
H62	H	0.705827	-0.608182	-0.050056
H63	H	1.071598	-0.271654	0.072366
H64	H	1.039038	0.003455	0.845772
H65	H	0.550178	0.168044	-0.100132
H66	H	0.817488	0.364213	0.438310
H67	H	1.046542	-0.008800	0.687701
H68	H	0.326889	0.166148	-0.047649
O69	O	1.012470	-0.435401	-0.069013
C70	C	1.092135	-0.408727	-0.063400
H71	H	1.107894	-0.383666	0.004290
H72	H	1.100636	-0.324291	-0.103406
C73	C	1.127030	-0.558281	-0.177801
C74	C	1.146387	-0.527512	-0.094662
H75	H	1.160496	-0.631550	-0.197088
H76	H	1.073358	-0.576250	-0.181586
H77	H	1.134114	-0.487908	-0.211129
H78	H	1.139294	-0.597878	-0.061334
H79	H	1.200060	-0.509558	-0.090873
O80	O	0.530223	0.190037	0.185144
C81	C	0.580969	0.196912	0.255381
H82	H	0.637594	0.237436	0.237014
H83	H	0.596307	0.096756	0.279697
C84	C	0.469640	0.235202	0.346628
C85	C	0.539186	0.284985	0.324071
H86	H	0.443866	0.289524	0.389002
H87	H	0.435451	0.230566	0.299309
H88	H	0.482432	0.151739	0.366886
H89	H	0.526392	0.368438	0.303804
H90	H	0.573371	0.289637	0.371389
H91	H	0.858261	-0.218462	0.184337
O92	O	0.816942	0.365161	0.272955
C93	C	0.767342	0.445921	0.326925
H94	H	0.796714	0.452321	0.391208
H95	H	0.708125	0.404967	0.332235
C96	C	0.717404	0.572955	0.212915
C97	C	0.753483	0.580824	0.291867
H98	H	0.708851	0.656168	0.191289
H99	H	0.750818	0.518543	0.176554
H100	H	0.668060	0.538822	0.217351
H101	H	0.802830	0.614941	0.287428
H102	H	0.720077	0.635245	0.328226
O103	O	0.845775	0.318267	0.667430
C104	C	0.796180	0.399025	0.721406
H105	H	0.825557	0.405418	0.785686
H106	H	0.736962	0.358073	0.726719
C107	C	0.746236	0.526070	0.607404
C108	C	0.782320	0.533931	0.686353
H109	H	0.737682	0.609286	0.585781
H110	H	0.779646	0.471660	0.571038
H111	H	0.696891	0.491939	0.611842
H112	H	0.831667	0.568047	0.681911
H113	H	0.748917	0.588350	0.722717
H114	H	0.313847	0.187365	0.226137
H115	H	0.870272	-0.238219	-0.067645
O116	O	0.999384	-0.414017	0.205024
C117	C	1.079080	-0.387425	0.210134
H118	H	1.087221	-0.302312	0.170602
H119	H	1.119047	-0.475018	0.186113
C120	C	1.091154	-0.459565	0.350121
C121	C	1.101151	-0.355020	0.301572
H122	H	1.104771	-0.439582	0.406523
H123	H	1.037462	-0.477486	0.346677
H124	H	1.124461	-0.532550	0.330093
H125	H	1.067838	-0.282043	0.321593
H126	H	1.154839	-0.337087	0.305021
O127	O	0.157642	0.183027	0.227456
C128	C	0.118163	0.071485	0.229306
H129	H	0.150790	-0.008168	0.188552
H130	H	0.054935	0.092858	0.204701
C131	C	0.076303	0.126201	0.369671
C132	C	0.116380	0.028366	0.319622
H133	H	0.075198	0.099605	0.425383
H134	H	0.102897	0.201352	0.368425
H135	H	0.023617	0.144003	0.349157
H136	H	0.169067	0.010578	0.340131
H137	H	0.089793	-0.046789	0.320875
H138	H	0.177729	0.161353	-0.057727
H139	H	1.010196	0.050343	0.451301
H140	H	0.699349	0.172870	-0.090058
H141	H	1.017710	0.038096	0.293242
H142	H	0.846327	0.317335	0.832770
