data_functionalizedCrystal
_audit_creation_method	'MofGen! by Chris Wilmer'
_symmetry_space_group_name_H-M	'P1'
_symmetry_Int_Tables_number	1
_symmetry_cell_setting	triclinic
loop_
_symmetry_equiv_pos_as_xyz
  x,y,z
_cell_length_a	14.971486
_cell_length_b	14.853567
_cell_length_c	13.448316
_cell_angle_alpha	89.997194
_cell_angle_beta	89.998199
_cell_angle_gamma	83.624529
loop_
_atom_site_label
_atom_site_type_symbol
_atom_site_fract_x
_atom_site_fract_y
_atom_site_fract_z
O1	O	1.186969	0.117488	-0.082569
O2	O	0.926571	0.131557	-0.082595
O3	O	1.063725	-0.006709	-0.082584
O4	O	1.049814	0.255753	-0.082580
O5	O	1.063708	-0.006717	0.082800
O6	O	0.926554	0.131549	0.082789
O7	O	1.186951	0.117479	0.082815
Cu8	Cu	1.056751	0.124513	0.097903
Cu9	Cu	1.056771	0.124523	-0.097683
O10	O	1.049797	0.255745	0.082804
C11	C	0.893238	0.130924	0.000093
C12	C	0.793940	0.129038	0.000083
C13	C	0.736730	0.210265	0.000086
C14	C	0.643430	0.208488	0.000101
C15	C	0.607342	0.125483	0.000106
C16	C	0.664560	0.044249	0.000106
C17	C	0.757858	0.046027	0.000098
C18	C	0.470097	0.040549	0.000119
C19	C	0.376793	0.038771	0.000125
C20	C	0.355669	0.203010	0.000122
C21	C	0.448967	0.204788	0.000114
C22	C	0.506178	0.123554	0.000113
C23	C	1.063087	-0.040301	0.000105
C24	C	1.061198	-0.140385	0.000096
C25	C	0.971740	-0.552902	0.000106
C26	C	1.134683	-0.574213	0.000122
C27	C	1.136459	-0.480180	0.000116
C28	C	1.055874	-0.422503	0.000107
C29	C	0.973514	-0.458860	0.000103
C30	C	1.218818	-0.443816	0.000130
C31	C	1.220597	-0.349777	0.000126
C32	C	1.140012	-0.292099	0.000109
C33	C	1.057648	-0.328461	0.000104
C34	C	0.977064	-0.270784	0.000095
C35	C	0.894699	-0.307144	0.000083
C36	C	0.892928	-0.401181	0.000087
C37	C	1.141782	-0.198061	0.000105
C38	C	0.978837	-0.176741	0.000092
C39	C	1.220285	0.118113	0.000124
C40	C	1.319582	0.119998	0.000128
C41	C	1.050436	0.289338	0.000113
C42	C	1.052325	0.389421	0.000115
N43	N	1.056743	0.124505	0.235467
N44	N	1.056786	0.124524	-0.235247
C45	C	1.117494	0.063307	0.287512
C46	C	1.117500	0.063306	0.391615
C47	C	1.056758	0.124509	0.443672
C48	C	0.996001	0.185711	0.391619
C49	C	0.995991	0.185707	0.287518
C50	C	0.996025	0.185717	0.608599
C51	C	0.996036	0.185723	0.712708
C52	C	1.117534	0.063316	0.712697
C53	C	1.117525	0.063312	0.608595
C54	C	1.056768	0.124515	0.556550
H55	H	0.596852	0.274632	0.000102
C56	C	0.929168	0.253037	0.230269
N57	N	0.878835	0.303753	0.187150
H58	H	0.766104	0.277858	0.000081
H59	H	0.347414	-0.028819	0.000130
H60	H	0.309082	0.269154	0.000128
C61	C	0.488660	0.296098	0.000113
N62	N	0.518558	0.364874	0.000118
C63	C	0.929180	0.253035	0.551352
N64	N	0.878834	0.303737	0.508233
H65	H	0.946539	0.235541	0.434009
H66	H	0.516677	-0.025600	0.000120
H67	H	0.635171	-0.023335	0.000124
H68	H	0.946572	0.235560	0.755087
C69	C	1.307455	-0.507265	0.000148
N70	N	1.374219	-0.555059	0.000160
H71	H	0.804439	-0.020116	0.000095
C72	C	0.881143	-0.592899	0.000102
N73	N	0.812905	-0.623026	0.000103
H74	H	1.166967	0.013473	0.433990
H75	H	0.913214	-0.129786	0.000080
H76	H	0.829087	-0.260172	0.000082
H77	H	1.200291	-0.621179	0.000138
C78	C	0.802335	-0.441185	0.000094
N79	N	0.734101	-0.471320	0.000109
H80	H	1.287664	-0.320181	0.000134
C81	C	1.232378	-0.158069	0.000119
N82	N	1.300619	-0.127948	0.000126
H83	H	1.166961	0.013472	0.245135
C84	C	1.184344	-0.004014	0.551336
N85	N	1.234670	-0.054728	0.508208
C86	C	1.184363	-0.004011	0.769948
N87	N	1.234699	-0.054719	0.813075
