data_functionalizedCrystal
_audit_creation_method	'MofGen! by Chris Wilmer'
_symmetry_space_group_name_H-M	'P1'
_symmetry_Int_Tables_number	1
_symmetry_cell_setting	triclinic
loop_
_symmetry_equiv_pos_as_xyz
  x,y,z
_cell_length_a	29.839131
_cell_length_b	12.759395
_cell_length_c	12.759387
_cell_angle_alpha	89.981019
_cell_angle_beta	90.038413
_cell_angle_gamma	89.961103
loop_
_atom_site_label
_atom_site_type_symbol
_atom_site_fract_x
_atom_site_fract_y
_atom_site_fract_z
Zn1	Zn	-0.178855	-1.606056	0.593962
Zn2	Zn	-0.253994	-1.605870	0.418263
Zn3	Zn	-0.178875	-1.430359	0.418299
Zn4	Zn	-0.253955	-1.430265	0.593902
O5	O	-0.216420	-1.518137	0.506107
O6	O	-0.188830	-1.753052	0.570666
O7	O	-0.244054	-1.582550	0.271247
O8	O	-0.116006	-1.453783	0.441641
O9	O	-0.244034	-1.752916	0.441580
O10	O	-0.115990	-1.582867	0.570701
O11	O	-0.188865	-1.453603	0.271273
O12	O	-0.188827	-1.283326	0.441582
O13	O	-0.243968	-1.453622	0.740931
O14	O	-0.243988	-1.283256	0.570597
O15	O	-0.188792	-1.582775	0.740976
O16	O	-0.316856	-1.582458	0.441522
O17	O	-0.316827	-1.453442	0.570562
C18	C	-0.216406	-1.245170	0.506088
C19	C	-0.216411	-1.128393	0.506105
C20	C	-0.159020	-1.128516	0.640739
C21	C	-0.130328	-1.073717	0.708063
C22	C	-0.130334	-0.963995	0.708073
C23	C	-0.159034	-0.909071	0.640750
C24	C	-0.187725	-0.963870	0.573426
C25	C	-0.187717	-1.073594	0.573425
C26	C	-0.245114	-0.963747	0.438789
C27	C	-0.245110	-1.073468	0.438781
C28	C	-0.273813	-0.908822	0.371466
C29	C	-0.302507	-0.963621	0.304145
C30	C	-0.302500	-1.073350	0.304138
C31	C	-0.273802	-1.128268	0.371457
C32	C	-0.333142	-1.517948	0.506054
C33	C	-0.383077	-1.517963	0.506067
C34	C	-0.692722	-1.585438	0.439013
C35	C	-0.880395	-1.585568	0.439054
O36	O	-0.904662	-1.642788	0.382002
N37	N	-0.903862	-1.518355	0.506186
C38	C	-0.880407	-1.451110	0.573317
O39	O	-0.904673	-1.393952	0.630425
C40	C	-0.692735	-1.450987	0.573281
C41	C	-0.669271	-1.518196	0.506137
C42	C	-0.669258	-1.652644	0.371876
C43	C	-0.622343	-1.652606	0.371862
C44	C	-0.598892	-1.585364	0.438986
C45	C	-0.622356	-1.518159	0.506123
C46	C	-0.669281	-1.383747	0.640417
C47	C	-0.622360	-1.383724	0.640404
C48	C	-0.598896	-1.450934	0.573260
C49	C	-0.551989	-1.450880	0.573234
N50	N	-0.528522	-1.518093	0.506102
C51	C	-0.551974	-1.585335	0.438978
C52	C	-0.978938	-1.451178	0.573330
C53	C	-1.025856	-1.451208	0.573338
C54	C	-1.025841	-1.585667	0.439076
C55	C	-0.978922	-1.585632	0.439063
C56	C	-0.955471	-1.518391	0.506198
C57	C	-0.453448	-1.585251	0.438954
C58	C	-0.406528	-1.585205	0.438943
C59	C	-0.406547	-1.450750	0.573209
C60	C	-0.453463	-1.450791	0.573216
C61	C	-0.476912	-1.518051	0.506085
O62	O	-0.527693	-1.393698	0.630264
O63	O	-0.527700	-1.642501	0.381895
C64	C	-0.739638	-1.585476	0.439027
C65	C	-0.763102	-1.518271	0.506164
C66	C	-0.739650	-1.451028	0.573288
C67	C	-0.810020	-1.518300	0.506172
C68	C	-0.833471	-1.585542	0.439048
C69	C	-0.810005	-1.652755	0.371916
C70	C	-0.763089	-1.652718	0.371903
C71	C	-0.763117	-1.383816	0.640420
C72	C	-0.810032	-1.383857	0.640427
C73	C	-0.833484	-1.451100	0.573303
C74	C	-0.099241	-1.518357	0.506182
C75	C	-0.049307	-1.518450	0.506214
C76	C	-0.216373	-1.518209	0.780140
C77	C	-0.216354	-1.518239	0.896917
C78	C	-0.216430	-0.792171	0.506121
C79	C	-0.216422	-0.908948	0.506113
C80	C	-0.216434	-1.518127	0.233139
C81	C	-0.216327	-1.518300	0.116363
C82	C	-0.158881	-1.383976	0.896963
C83	C	-0.130136	-1.316863	0.951847
C84	C	-0.130120	-1.316895	1.061569
C85	C	-0.158853	-1.384044	1.116409
C86	C	-0.187598	-1.451156	1.061525
C87	C	-0.187610	-1.451120	0.951801
C88	C	-0.245072	-1.585413	1.061479
C89	C	-0.245087	-1.585388	0.951757
C90	C	-0.273805	-1.652562	1.116319
C91	C	-0.302549	-1.719681	1.061435
C92	C	-0.302563	-1.719648	0.951707
C93	C	-0.273832	-1.652501	0.896873
H94	H	-0.273815	-0.819481	0.371476
H95	H	-0.106743	-1.262189	0.907184
N96	N	-0.331819	-0.907535	0.235368
N97	N	-0.328787	-0.919762	0.138436
H98	H	-0.349489	-0.880149	0.089860
H99	H	-0.273791	-1.217609	0.371453
H100	H	-0.688378	-1.329013	0.695087
H101	H	-0.106714	-1.262244	1.106255
N102	N	-0.158837	-1.384048	1.228486
N103	N	-0.133174	-1.324113	1.277477
H104	H	-0.133164	-1.324114	1.356633
N105	N	-0.477427	-1.382116	0.641789
N106	N	-0.456480	-1.322075	0.701707
H107	H	-0.473401	-1.273575	0.750143
H108	H	-0.159032	-0.819729	0.640757
H109	H	-0.325863	-1.117961	0.249311
N110	N	-0.477390	-1.653943	0.370361
N111	N	-0.472178	-1.647008	0.273411
H112	H	-0.489087	-1.695516	0.224960
N113	N	-0.382568	-1.653862	0.370342
N114	N	-0.403516	-1.713894	0.310417
H115	H	-0.386596	-1.762383	0.261968
H116	H	-0.159010	-1.217857	0.640732
H117	H	-0.688348	-1.707406	0.317215
N118	N	-0.101008	-1.129823	0.776813
N119	N	-0.072356	-1.191068	0.739969
H120	H	-0.051647	-1.230691	0.788521
N121	N	-0.382580	-1.382064	0.641756
N122	N	-0.340690	-1.382050	0.641726
H123	H	-0.323761	-1.333543	0.690140
N124	N	-1.049827	-1.382544	0.641900
N125	N	-1.076046	-1.315629	0.604884
H126	H	-1.092976	-1.267136	0.653310
H127	H	-0.273792	-1.652578	1.205660
H128	H	-0.106969	-0.919378	0.762888
H129	H	-0.603241	-1.707337	0.317191
H130	H	-0.959820	-1.640360	0.384390
H131	H	-0.603269	-1.328970	0.695076
H132	H	-0.325942	-1.774344	1.106095
H133	H	-1.044943	-1.640419	0.384421
N134	N	-0.331926	-1.788219	0.895666
N135	N	-0.328955	-1.885173	0.907938
H136	H	-0.349693	-1.933605	0.868364
N137	N	-0.954994	-1.382483	0.641919
N138	N	-0.975957	-1.322482	0.701847
H139	H	-0.959049	-1.273962	0.750288
N140	N	-0.739132	-1.721376	0.303307
N141	N	-0.760084	-1.781402	0.243384
H142	H	-0.743167	-1.829896	0.194934
H143	H	-0.829107	-1.707503	0.317259
H144	H	-0.829133	-1.329118	0.695103
H145	H	-0.744026	-1.329060	0.695082
H146	H	-0.158888	-1.383952	0.807622
N147	N	-0.273835	-1.652465	0.784796
N148	N	-0.248178	-1.592514	0.735849
H149	H	-0.248178	-1.592486	0.656693
