data_functionalizedCrystal
_audit_creation_method	'MofGen! by Chris Wilmer'
_symmetry_space_group_name_H-M	'P1'
_symmetry_Int_Tables_number	1
_symmetry_cell_setting	triclinic
loop_
_symmetry_equiv_pos_as_xyz
  x,y,z
_cell_length_a	10.654550
_cell_length_b	13.339070
_cell_length_c	9.130313
_cell_angle_alpha	89.997998
_cell_angle_beta	89.999724
_cell_angle_gamma	100.057112
loop_
_atom_site_label
_atom_site_type_symbol
_atom_site_fract_x
_atom_site_fract_y
_atom_site_fract_z
O1	O	1.715933	0.142435	-0.121681
O2	O	1.355037	0.156005	-0.121708
O3	O	1.494066	0.001665	-0.121693
O4	O	1.576904	0.296774	-0.121696
O5	O	1.494051	0.001661	0.121906
O6	O	1.355022	0.156000	0.121891
O7	O	1.715918	0.142430	0.121917
Cu8	Cu	1.535469	0.149215	0.144147
Cu9	Cu	1.535486	0.149220	-0.143937
O10	O	1.576889	0.296769	0.121903
C11	C	1.307895	0.155006	0.000088
C12	C	1.167445	0.152025	0.000078
C13	C	1.480065	-0.036124	0.000103
C14	C	1.438355	-0.148719	0.000094
C15	C	1.118643	0.242897	0.000082
C16	C	0.986674	0.240090	0.000107
C17	C	0.952320	0.055530	0.000120
C18	C	1.084286	0.058338	0.000105
C19	C	1.762670	-0.511236	0.000119
C20	C	1.801862	-0.405448	0.000135
C21	C	1.710989	-0.341261	0.000124
C22	C	1.580916	-0.382871	0.000098
C23	C	1.541720	-0.488669	0.000093
C24	C	1.490039	-0.318694	0.000099
C25	C	1.359966	-0.360304	0.000073
C26	C	1.320776	-0.466092	0.000066
C27	C	1.411650	-0.530280	0.000077
C28	C	1.529235	-0.212896	0.000104
C29	C	1.308285	-0.190329	0.000078
C30	C	1.269093	-0.296117	0.000062
C31	C	1.763060	0.143429	0.000118
C32	C	1.903510	0.146410	0.000119
C33	C	1.590890	0.334559	0.000103
C34	C	1.632600	0.447153	0.000103
N35	N	1.535465	0.149210	0.346770
N36	N	1.535497	0.149216	-0.346560
C37	C	1.597066	0.080898	0.423428
C38	C	1.597078	0.080898	0.576765
C39	C	1.473888	0.217532	0.576771
C40	C	1.473869	0.217526	0.423437
H41	H	0.946947	0.314088	0.000113
H42	H	1.635141	-0.179028	0.000126
H43	H	1.124020	-0.015666	0.000106
H44	H	0.884597	-0.020746	0.000150
H45	H	1.742907	-0.255124	0.000138
H46	H	1.907767	-0.371577	0.000159
C47	C	1.718858	-0.054147	0.561346
C48	C	1.664799	0.005811	0.661027
H49	H	1.760672	-0.100500	0.613369
H50	H	1.653738	-0.091021	0.501555
H51	H	1.778843	-0.011581	0.501526
H52	H	1.604807	-0.036755	0.720840
H53	H	1.729926	0.042687	0.720843
H54	H	1.214863	-0.499968	0.000056
C55	C	1.276671	0.275437	0.624025
C56	C	1.406189	0.292623	0.661056
H57	H	1.234878	0.321793	0.676066
H58	H	1.267850	0.285217	0.521747
H59	H	1.239444	0.207649	0.649172
H60	H	1.443418	0.360409	0.635899
H61	H	1.415017	0.282852	0.763357
C62	C	1.110916	-0.448273	0.000048
C63	C	1.126119	-0.341863	0.000048
H64	H	1.022650	-0.476513	0.000049
H65	H	1.149887	-0.470234	-0.084892
H66	H	1.149885	-0.470238	0.085006
H67	H	1.087158	-0.319897	-0.084915
H68	H	1.087131	-0.319894	0.084997
H69	H	1.379745	-0.616422	0.000058
H70	H	1.186348	0.319183	0.000071
C71	C	1.224181	-0.058270	-0.125171
C72	C	1.208382	-0.119787	0.000057
H73	H	1.162504	-0.014722	-0.125183
H74	H	1.307243	-0.018352	-0.125151
H75	H	1.213488	-0.100020	-0.210108
H76	H	1.219084	-0.078037	0.084995
H77	H	1.125299	-0.159709	0.000051
C78	C	1.461087	0.392537	0.376197
C79	C	1.406157	0.292624	0.339162
H80	H	1.419287	0.438893	0.324161
H81	H	1.452277	0.402314	0.478476
H82	H	1.548948	0.404166	0.351046
H83	H	1.318298	0.280993	0.364324
H84	H	1.414956	0.282843	0.236861
C85	C	1.846768	-0.643304	-0.125091
C86	C	1.862547	-0.581790	0.000134
H87	H	1.908439	-0.686858	-0.125080
H88	H	1.763702	-0.683217	-0.125089
H89	H	1.857484	-0.601553	-0.210030
H90	H	1.851821	-0.623542	0.085074
H91	H	1.945633	-0.541874	0.000146
H92	H	1.647220	0.025270	0.361008
