data_functionalizedCrystal
_audit_creation_method	'MofGen! by Chris Wilmer'
_symmetry_space_group_name_H-M	'P1'
_symmetry_Int_Tables_number	1
_symmetry_cell_setting	triclinic
loop_
_symmetry_equiv_pos_as_xyz
  x,y,z
_cell_length_a	19.377372
_cell_length_b	14.809374
_cell_length_c	19.376995
_cell_angle_alpha	66.031493
_cell_angle_beta	86.407462
_cell_angle_gamma	66.029554
loop_
_atom_site_label
_atom_site_type_symbol
_atom_site_fract_x
_atom_site_fract_y
_atom_site_fract_z
Zr1	Zr	0.490423	1.299269	-0.289806
O2	O	0.396155	1.420713	-0.384079
O3	O	0.532156	1.119353	-0.248072
O4	O	0.538511	1.270027	-0.390428
O5	O	0.370185	1.313495	-0.144030
O6	O	0.636205	1.313474	-0.410037
O7	O	0.389799	1.270039	-0.241722
O8	O	0.624836	1.043946	-0.155387
O9	O	0.381555	1.583023	-0.398679
O10	O	0.607355	1.247435	-0.260413
O11	O	0.519810	1.247442	-0.172873
O12	O	0.527293	1.424841	-0.340479
O13	O	0.439749	1.424848	-0.252938
Zr14	Zr	0.614951	1.437869	-0.165272
Zr15	Zr	0.646233	1.368562	-0.321080
Zr16	Zr	0.459142	1.368576	-0.133998
Zr17	Zr	0.467138	1.558135	-0.313092
Zr18	Zr	0.638237	1.179003	-0.141986
O19	O	0.573219	1.617784	-0.207007
O20	O	0.617696	1.519239	-0.428546
O21	O	0.351677	1.519259	-0.162539
O22	O	0.709219	1.316425	-0.071000
O23	O	0.753697	1.217879	-0.292539
O24	O	0.487678	1.217899	-0.026532
O25	O	0.735189	1.423643	-0.311048
O26	O	0.566863	1.467110	-0.064651
O27	O	0.469169	1.423663	-0.045042
O28	O	0.715575	1.467099	-0.213356
O29	O	0.505403	1.638102	-0.423538
O30	O	0.599971	1.099036	-0.031541
O31	O	0.723819	1.154114	-0.056399
O32	O	0.748684	1.099024	-0.180246
O33	O	0.356691	1.638113	-0.274832
O34	O	0.480539	1.693192	-0.299691
O35	O	0.578081	1.312296	-0.114600
O36	O	0.665626	1.312290	-0.202140
O37	O	0.585564	1.489696	-0.282206
O38	O	0.498019	1.489703	-0.194665
C39	C	0.581813	1.044767	-0.198412
C40	C	0.591698	0.934871	-0.188526
C41	C	0.357793	1.281894	-0.188420
C42	C	0.291647	1.252477	-0.175144
C43	C	0.547582	0.925356	-0.232644
C44	C	0.557798	0.811774	-0.222428
C45	C	-0.134848	1.618737	-0.340445
C46	C	-0.196990	1.591072	-0.327958
C47	C	-0.113403	1.405873	-0.244376
C48	C	-0.051252	1.433525	-0.256853
C49	C	-0.061981	1.539958	-0.304889
C50	C	0.021615	1.354745	-0.221297
C51	C	0.083760	1.382394	-0.233777
C52	C	0.073039	1.488821	-0.281812
C53	C	0.000165	1.567606	-0.317369
C54	C	0.032343	1.248311	-0.173266
C55	C	0.105210	1.169531	-0.137710
C56	C	0.167356	1.197181	-0.150185
C57	C	0.156635	1.303608	-0.198220
C58	C	0.240231	1.118396	-0.114628
C59	C	0.302376	1.146044	-0.127108
C60	C	0.218781	1.331256	-0.210700
C61	C	0.747582	1.455244	-0.266658
C62	C	0.813727	1.484660	-0.279935
C63	C	0.591815	1.281876	-0.422432
C64	C	0.605095	1.252453	-0.488576
C65	C	0.523561	1.692371	-0.256667
C66	C	0.513676	1.802267	-0.266552
C67	C	0.665600	1.118385	-0.540015
C68	C	0.653117	1.146043	-0.477867
C69	C	0.569533	1.331247	-0.561444
C70	C	0.582006	1.303603	-0.623600
C71	C	0.630041	1.197171	-0.612879
C72	C	0.546447	1.382388	-0.696464
C73	C	0.558922	1.354748	-0.758615
C74	C	0.606957	1.248322	-0.747902
C75	C	0.642516	1.169530	-0.675030
C76	C	0.498417	1.488822	-0.707184
C77	C	0.462858	1.567607	-0.780048
C78	C	0.475329	1.539966	-0.842200
C79	C	0.523363	1.433539	-0.831487
C80	C	0.439770	1.618757	-0.915072
C81	C	0.452245	1.591116	-0.977223
C82	C	0.535838	1.405899	-0.893638
C83	C	0.513559	1.455262	-0.032647
C84	C	0.500279	1.484684	0.033498
C85	C	0.776708	1.131441	-0.237531
C86	C	0.852738	1.050963	-0.240922
C87	C	0.542685	1.131459	-0.003519
C88	C	0.539291	1.050987	0.072511
C89	C	0.737580	1.218134	-0.042638
C90	C	0.800331	1.167078	0.020115
C91	C	0.367794	1.519003	-0.412440
C92	C	0.305044	1.570060	-0.475194
C93	C	0.328667	1.605696	-0.217548
C94	C	0.252636	1.686175	-0.214157
C95	C	0.562689	1.605678	-0.451559
C96	C	0.566083	1.686151	-0.527589
C97	C	0.858028	0.979312	-0.272938
C98	C	0.929462	0.903699	-0.276139
C99	C	0.995606	0.899733	-0.247318
C100	C	0.990314	0.971393	-0.215301
C101	C	0.918880	1.047010	-0.212105
C102	C	0.568112	1.047052	0.138640
C103	C	0.564917	0.971455	0.210084
C104	C	0.532906	0.899789	0.215396
C105	C	0.504080	0.903728	0.149260
C106	C	0.507271	0.979329	0.077818
C107	C	0.875503	1.143101	0.003889
C108	C	0.934470	1.095143	0.062844
C109	C	0.918263	1.071155	0.138026
C110	C	0.843083	1.095139	0.154252
C111	C	0.784117	1.143103	0.095297
C112	C	0.229870	1.594049	-0.458968
C113	C	0.170900	1.642039	-0.517926
C114	C	0.187106	1.666032	-0.593109
C115	C	0.262287	1.642042	-0.609334
C116	C	0.321255	1.594060	-0.550377
C117	C	0.247347	1.757833	-0.182147
C118	C	0.175913	1.833467	-0.178966
C119	C	0.109770	1.837436	-0.207790
C120	C	0.115062	1.765773	-0.239804
C121	C	0.186494	1.690145	-0.242990
C122	C	0.598100	1.757799	-0.532877
C123	C	0.601304	1.833407	-0.604311
C124	C	0.572486	1.837371	-0.670456
C125	C	0.540468	1.765713	-0.665166
C126	C	0.537270	1.690102	-0.593733
H127	H	0.502253	1.001298	-0.277981
F128	F	0.090893	1.667559	-0.500642
H129	H	0.603135	0.735833	-0.177092
F130	F	0.401261	1.568525	-0.567657
F131	F	0.595601	0.967277	0.280461
F132	F	0.192112	1.613880	-0.277055
F133	F	0.124339	1.717099	-0.655850
F134	F	0.485142	1.518238	-0.641036
F135	F	0.454423	0.901522	-0.325818
F136	F	0.212605	1.568520	-0.378957
H137	H	0.483804	0.982518	0.023977
H138	H	0.275474	1.661584	-0.670555
H139	H	-0.018262	1.225801	-0.163112
F140	F	1.014477	1.069622	0.045560
H141	H	0.301196	1.754612	-0.158670
H142	H	1.044178	0.968151	-0.191836
F143	F	0.509794	1.769951	-0.735570
H144	H	0.575095	1.898944	-0.728617
H145	H	0.530426	1.417904	-0.570163
F146	F	0.650956	0.835613	-0.129273
H147	H	0.171619	1.891808	-0.152894
H148	H	0.621568	1.754588	-0.479026
F149	F	0.503184	1.613860	-0.588116
F150	F	0.207362	1.444539	-0.261818
F151	F	0.139181	1.518246	-0.295097
F152	F	0.913262	1.123256	-0.178022
F153	F	0.044659	1.770007	-0.270476
H154	H	0.051609	1.899022	-0.205191
H155	H	0.966285	1.032100	0.186024
H156	H	1.053767	0.838155	-0.249924
H157	H	0.627374	1.891747	-0.608604
F158	F	0.411740	1.680877	-0.791450
H159	H	0.478017	0.845367	0.153598
F160	F	-0.011254	1.680889	-0.368487
H161	H	0.829898	1.075601	0.215473
F162	F	0.892768	1.168628	-0.076122
F163	F	0.704114	1.168610	0.112579
H164	H	-0.143590	1.705415	-0.379540
H165	H	-0.256323	1.655230	-0.356917
F166	F	0.787641	0.983518	-0.303619
F167	F	0.116619	1.056261	-0.086590
F168	F	-0.101993	1.292603	-0.193256
F169	F	0.251639	1.005123	-0.063514
H170	H	0.574945	1.319228	-0.884905
F171	F	0.379930	1.062197	-0.089268
H172	H	0.594178	1.105400	0.134328
H173	H	0.681623	1.082859	-0.666297
F174	F	0.620239	1.218906	-0.814050
H175	H	0.530313	0.838235	0.273574
F176	F	0.716717	1.005105	-0.528605
H177	H	0.400666	1.705416	-0.923791
F178	F	0.690984	1.062188	-0.400319
H179	H	0.423289	1.655271	-1.036553
F180	F	0.935078	0.827440	-0.310214
