data_functionalizedCrystal
_audit_creation_method	'MofGen! by Chris Wilmer'
_symmetry_space_group_name_H-M	'P1'
_symmetry_Int_Tables_number	1
_symmetry_cell_setting	triclinic
loop_
_symmetry_equiv_pos_as_xyz
  x,y,z
_cell_length_a	14.908520
_cell_length_b	14.908932
_cell_length_c	18.215399
_cell_angle_alpha	86.726112
_cell_angle_beta	93.269364
_cell_angle_gamma	83.580804
loop_
_atom_site_label
_atom_site_type_symbol
_atom_site_fract_x
_atom_site_fract_y
_atom_site_fract_z
Zn1	Zn	-0.280488	-1.362988	-0.365252
Zn2	Zn	0.219512	-0.862988	0.134748
Zn3	Zn	-0.431867	-1.354147	-0.249725
Zn4	Zn	0.068133	-0.854147	0.250275
Zn5	Zn	-0.289254	-1.211621	-0.249726
Zn6	Zn	0.210746	-0.711621	0.250274
Zn7	Zn	-0.440550	-1.202856	-0.380269
Zn8	Zn	0.059450	-0.702856	0.119731
O9	O	-0.360540	-1.282903	-0.311243
O10	O	0.139460	-0.782903	0.188757
O11	O	-0.293267	-1.488479	-0.343642
O12	O	0.206733	-0.988479	0.156358
O13	O	-0.412985	-1.335209	-0.146744
O14	O	0.087015	-0.835209	0.353256
O15	O	-0.161421	-1.239069	-0.258767
O16	O	0.338579	-0.739069	0.241233
O17	O	-0.404484	-1.481984	-0.258764
O18	O	0.095516	-0.981984	0.241236
O19	O	-0.154980	-1.350278	-0.343643
O20	O	0.345020	-0.850278	0.156357
O21	O	-0.308207	-1.230496	-0.146745
O22	O	0.191793	-0.730496	0.353255
O23	O	-0.316626	-1.083795	-0.273329
O24	O	0.183374	-0.583795	0.226671
O25	O	-0.419282	-1.224129	-0.481259
O26	O	0.080718	-0.724129	0.018741
O27	O	-0.427782	-1.077355	-0.369238
O28	O	0.072218	-0.577355	0.130762
O29	O	-0.301685	-1.341778	-0.470225
O30	O	0.198315	-0.841778	0.029775
O31	O	-0.559689	-1.326709	-0.273326
O32	O	-0.059689	-0.826709	0.226674
O33	O	-0.566068	-1.215556	-0.369237
O34	O	-0.066068	-0.715556	0.130763
C35	C	-0.374098	-1.047732	-0.322914
C36	C	0.125902	-0.547732	0.177086
C37	C	-0.379920	-0.947124	-0.327925
C38	C	0.120080	-0.447124	0.172075
C39	C	-0.446087	-0.801987	-0.384842
C40	C	0.053913	-0.301987	0.115158
C41	C	-0.440617	-0.896517	-0.380140
C42	C	0.059383	-0.396517	0.119860
C43	C	-0.324691	-0.903194	-0.280406
C44	C	0.175309	-0.403194	0.219594
C45	C	-0.330161	-0.808663	-0.285109
C46	C	0.169839	-0.308663	0.214891
C47	C	-0.390860	-0.758063	-0.337329
C48	C	0.109140	-0.258063	0.162671
C49	C	-0.396325	-0.663531	-0.342034
C50	C	0.103675	-0.163531	0.157966
C51	C	-0.280404	-0.670209	-0.242297
C52	C	0.219596	-0.170209	0.257703
C53	C	-0.274934	-0.764740	-0.237595
C54	C	0.225066	-0.264740	0.262405
C55	C	-0.595722	-1.269247	-0.322926
C56	C	-0.095722	-0.769247	0.177074
C57	C	-0.696329	-1.263487	-0.327944
C58	C	-0.196329	-0.763487	0.172056
C59	C	-0.878670	-1.368528	-0.237572
C60	C	-0.378670	-0.868528	0.262428
C61	C	-0.973199	-1.363119	-0.242285
C62	C	-0.473199	-0.863119	0.257715
C63	C	-0.979917	-1.247267	-0.342085
C64	C	-0.479917	-0.747267	0.157915
C65	C	-0.885388	-1.252676	-0.337372
C66	C	-0.385388	-0.752676	0.162628
C67	C	-0.834768	-1.313307	-0.285113
C68	C	-0.334768	-0.813307	0.214887
C69	C	-0.740237	-1.318710	-0.280398
C70	C	-0.240237	-0.818710	0.219602
C71	C	-0.746957	-1.202863	-0.380201
C72	C	-0.246957	-0.702863	0.119799
C73	C	-0.841486	-1.197455	-0.384913
C74	C	-0.341486	-0.697455	0.115087
C75	C	-0.124438	-1.296637	-0.299530
C76	C	0.375562	-0.796637	0.200470
C77	C	-0.023826	-1.302490	-0.294539
C78	C	0.476174	-0.802490	0.205461
C79	C	-0.360474	-1.282962	-0.503190
C80	C	0.139526	-0.782962	-0.003190
C81	C	-0.360446	-1.282987	-0.584987
C82	C	0.139554	-0.782987	-0.084987
C83	C	-0.346921	-0.518993	-0.299523
C84	C	0.153079	-0.018993	0.200477
C85	C	-0.341096	-0.619601	-0.294516
C86	C	0.158904	-0.119601	0.205484
C87	C	-0.299158	-1.344271	-0.767433
C88	C	0.200842	-0.844271	-0.267433
C89	C	-0.299131	-1.344283	-0.844290
C90	C	0.200869	-0.844283	-0.344290
C91	C	-0.421590	-1.221775	-0.855768
C92	C	0.078410	-0.721775	-0.355768
C93	C	-0.421612	-1.221759	-0.778913
C94	C	0.078388	-0.721759	-0.278913
C95	C	-0.360397	-1.283012	-0.734747
C96	C	0.139603	-0.783012	-0.234747
C97	C	-0.360348	-1.283040	-0.888459
C98	C	0.139652	-0.783040	-0.388459
C99	C	-0.360320	-1.283053	-0.971791
C100	C	0.139680	-0.783053	-0.471791
C101	C	-0.360425	-1.282998	-0.651410
C102	C	0.139575	-0.782998	-0.151410
C103	C	-0.360537	-1.282900	-0.120037
C104	C	0.139463	-0.782900	0.379963
C105	C	-0.360300	-1.283066	-0.038220
C106	C	0.139700	-0.783066	0.461780
H107	H	-0.275280	-0.944408	-0.237886
H108	H	0.224720	-0.444408	0.262114
C109	C	-0.463099	-0.607872	-0.399474
C110	C	0.036901	-0.107872	0.100526
N111	N	-0.513398	-0.565952	-0.442737
N112	N	-0.013398	-0.065952	0.057263
C113	C	-1.021488	-1.423863	-0.189983
C114	C	-0.521488	-0.923863	0.310017
N115	N	-1.057859	-1.469618	-0.150587
N116	N	-0.557859	-0.969618	0.349413
H117	H	-0.225517	-0.805951	-0.195077
H118	H	0.274483	-0.305951	0.304923
C119	C	-0.231765	-1.411674	-0.880241
C120	C	0.268235	-0.911674	-0.380241
N121	N	-0.181022	-1.462436	-0.907319
N122	N	0.318978	-0.962436	-0.407319
C123	C	-0.219652	-0.621886	-0.190028
C124	C	0.280348	-0.121886	0.309972
N125	N	-0.173893	-0.585487	-0.150661
N126	N	0.326107	-0.085487	0.349339
C127	C	-1.035616	-1.180577	-0.399563
C128	C	-0.535616	-0.680577	0.100437
N129	N	-1.077569	-1.130342	-0.442855
N130	N	-0.577569	-0.630342	0.057145
H131	H	-0.882714	-1.148093	-0.427462
H132	H	-0.382714	-0.648093	0.072538
C133	C	-0.488981	-1.154364	-0.742956
C134	C	0.011019	-0.654364	-0.242956
N135	N	-0.539719	-1.103602	-0.715873
N136	N	-0.039719	-0.603602	-0.215873
C137	C	-0.501370	-0.944830	-0.432410
C138	C	-0.001370	-0.444830	0.067590
N139	N	-0.547132	-0.981219	-0.471782
N140	N	-0.047132	-0.481219	0.028218
C141	C	-0.512851	-0.746325	-0.442288
C142	C	-0.012851	-0.246325	0.057712
N143	N	-0.563139	-0.704402	-0.485557
N144	N	-0.063139	-0.204402	0.014443
C145	C	-0.698657	-1.142116	-0.432499
C146	C	-0.198657	-0.642116	0.067501
N147	N	-0.662277	-1.096362	-0.471889
N148	N	-0.162277	-0.596362	0.028111
C149	C	-0.231813	-1.411643	-0.718854
C150	C	0.268187	-0.911643	-0.218854
N151	N	-0.181083	-1.462386	-0.682265
N152	N	0.318917	-0.962386	-0.182265
H153	H	-0.471431	-1.171907	-0.891737
H154	H	0.028569	-0.671907	-0.391737
C155	C	-0.684556	-1.385405	-0.222913
C156	C	-0.184556	-0.885405	0.277087
N157	N	-0.642619	-1.435644	-0.179615
N158	N	-0.142619	-0.935644	0.320385
H159	H	-0.837454	-1.417890	-0.195016
H160	H	-0.337454	-0.917890	0.304984
