data_functionalizedCrystal
_audit_creation_method	'MofGen! by Chris Wilmer'
_symmetry_space_group_name_H-M	'P1'
_symmetry_Int_Tables_number	1
_symmetry_cell_setting	triclinic
loop_
_symmetry_equiv_pos_as_xyz
  x,y,z
_cell_length_a	10.654554
_cell_length_b	9.065215
_cell_length_c	9.730223
_cell_angle_alpha	89.999584
_cell_angle_beta	89.999030
_cell_angle_gamma	84.750770
loop_
_atom_site_label
_atom_site_type_symbol
_atom_site_fract_x
_atom_site_fract_y
_atom_site_fract_z
O1	O	1.668650	0.207262	-0.114311
O2	O	1.303250	0.226999	-0.114308
O3	O	1.493504	0.002446	-0.114304
O4	O	1.478395	0.431814	-0.114316
O5	O	1.493502	0.002452	0.114276
O6	O	1.303248	0.227004	0.114271
O7	O	1.668647	0.207268	0.114269
Zn8	Zn	1.485947	0.217137	0.150562
Zn9	Zn	1.485950	0.217129	-0.150602
O10	O	1.478393	0.431820	0.114264
C11	C	1.256445	0.225551	-0.000018
C12	C	1.116985	0.221211	-0.000017
C13	C	0.933868	0.080837	-0.000031
C14	C	1.064906	0.084914	-0.000017
C15	C	1.038019	0.353439	-0.000017
C16	C	0.906983	0.349361	-0.000021
C17	C	0.949393	-0.074195	-0.000037
C18	C	1.080431	-0.070118	-0.000023
C19	C	1.492052	-0.052530	-0.000016
C20	C	1.487713	-0.216349	-0.000020
C21	C	1.715452	0.208715	-0.000025
C22	C	1.854912	0.213055	-0.000035
C23	C	1.479845	0.486796	-0.000027
C24	C	1.484185	0.650615	-0.000032
N25	N	1.485954	0.217141	0.356098
N26	N	1.485953	0.217113	-0.356138
C27	C	1.570221	0.117743	0.428026
C28	C	1.570218	0.117725	0.571909
C29	C	1.401677	0.316516	0.571924
C30	C	1.401675	0.316526	0.428043
C31	C	1.667531	0.002977	0.428019
C32	C	1.667527	0.002959	0.571902
H33	H	1.080431	0.464415	-0.000004
H34	H	0.919789	-0.134826	0.095618
H35	H	1.645640	-0.110430	0.388968
H36	H	1.758856	0.038915	0.383391
C37	C	1.141842	-0.133409	0.133310
N38	N	1.188098	-0.181076	0.233736
H39	H	0.913570	-0.123563	-0.098733
H40	H	1.636591	-0.104211	0.616521
C41	C	1.136538	-0.149020	-0.129255
N42	N	1.178796	-0.208441	-0.226591
C43	C	1.309073	0.425984	0.348928
N44	N	1.239359	0.508478	0.289338
H45	H	1.333058	0.397431	0.630517
H46	H	1.764139	0.028241	0.610951
C47	C	0.820135	0.494812	0.000012
N48	N	0.754721	0.604371	0.000045
