data_functionalizedCrystal
_audit_creation_method	'MofGen! by Chris Wilmer'
_symmetry_space_group_name_H-M	'P1'
_symmetry_Int_Tables_number	1
_symmetry_cell_setting	triclinic
loop_
_symmetry_equiv_pos_as_xyz
  x,y,z
_cell_length_a	6.817900
_cell_length_b	11.102188
_cell_length_c	16.305550
_cell_angle_alpha	93.872451
_cell_angle_beta	103.455250
_cell_angle_gamma	108.603875
loop_
_atom_site_label
_atom_site_type_symbol
_atom_site_fract_x
_atom_site_fract_y
_atom_site_fract_z
V1	V	-4.052576	-0.176911	-0.263031
O2	O	-4.012740	0.007398	-0.258024
O3	O	-4.029746	-0.349724	-0.261233
O4	O	-4.003649	-0.174674	-0.377748
O5	O	-4.039018	-0.168864	-0.140702
V6	V	-4.532958	-0.154809	-0.248400
O7	O	-4.320722	-0.225395	-0.295127
O8	O	-4.715009	-0.106325	-0.216304
O9	O	-4.332581	0.018004	-0.250199
O10	O	-4.690191	-0.339118	-0.253407
O11	O	-4.663912	-0.162856	-0.370729
O12	O	-4.358679	-0.157046	-0.133683
C13	C	-3.880985	-0.391837	-0.257083
C14	C	-3.943603	-0.533117	-0.256377
C15	C	-3.930165	-0.581026	-0.178790
C16	C	-3.989024	-0.713775	-0.178130
C17	C	-4.074749	-0.750694	-0.332650
C18	C	-4.015905	-0.617948	-0.333310
C19	C	-3.847693	-0.168542	-0.405710
C20	C	-3.889143	-0.167857	-0.499492
C21	C	-4.039835	-0.165200	-0.840237
C22	C	-3.802613	-0.157314	-0.799308
C23	C	-3.759604	-0.158553	-0.701814
C24	C	-3.965073	-0.166517	-0.671189
C25	C	-4.150787	-0.292033	-0.721816
C26	C	-4.192545	-0.291323	-0.819365
C27	C	-4.077232	-0.048574	-0.794394
C28	C	-4.029155	-0.047580	-0.696551
C29	C	-3.922835	-0.167266	-0.575651
C30	C	-4.082084	-0.164460	-0.935776
C31	C	-4.144685	0.060110	-0.254346
C32	C	-4.061306	0.201389	-0.255057
C33	C	-4.177977	-0.163182	-0.105717
C34	C	-4.115765	-0.163861	-0.011935
H35	H	-3.619675	-0.068308	-0.666790
H36	H	-3.705792	-0.243311	-0.685520
H37	H	-4.026862	-0.578943	-0.396494
H38	H	-4.368019	-0.302331	-0.847357
H39	H	-3.871294	-0.511958	-0.116147
C40	C	-4.093670	-0.411345	-0.699111
C41	C	-4.251397	-0.546855	-0.740808
C42	C	-4.194267	-0.666164	-0.718105
C43	C	-3.979410	-0.649962	-0.653705
C44	C	-3.821670	-0.514446	-0.612004
C45	C	-3.878800	-0.395138	-0.634707
H46	H	-4.410459	-0.558854	-0.788485
H47	H	-4.311038	-0.766482	-0.748975
H48	H	-3.937119	-0.738281	-0.636898
H49	H	-3.662608	-0.502448	-0.564327
H50	H	-3.762029	-0.294820	-0.603837
H51	H	-3.894291	0.045258	-0.662173
H52	H	-3.682980	-0.066643	-0.811672
H53	H	-3.769993	-0.241106	-0.830821
H54	H	-4.169540	-0.379612	-0.849747
C55	C	-3.934594	0.079909	-0.812429
C56	C	-3.782330	0.080565	-0.869028
C57	C	-3.639653	0.209041	-0.887056
C58	C	-3.649241	0.336861	-0.848485
C59	C	-3.801511	0.336211	-0.791883
C60	C	-3.944188	0.207735	-0.773855
H61	H	-3.775227	-0.014060	-0.897583
H62	H	-3.526933	0.209522	-0.928957
H63	H	-3.543623	0.431967	-0.861831
H64	H	-3.808613	0.430835	-0.763327
H65	H	-4.056908	0.207254	-0.731953
H66	H	-3.978079	-0.752775	-0.114952
H67	H	-4.249991	-0.053235	-0.821209
H68	H	-4.133620	-0.819780	-0.395286
H69	H	-4.305486	-0.302400	-0.702903
H70	H	-4.176210	-0.046019	-0.675203
