data_functionalizedCrystal
_audit_creation_method	'MofGen! by Chris Wilmer'
_symmetry_space_group_name_H-M	'P1'
_symmetry_Int_Tables_number	1
_symmetry_cell_setting	triclinic
loop_
_symmetry_equiv_pos_as_xyz
  x,y,z
_cell_length_a	19.077105
_cell_length_b	14.908520
_cell_length_c	19.076919
_cell_angle_alpha	95.429006
_cell_angle_beta	90.076224
_cell_angle_gamma	91.150228
loop_
_atom_site_label
_atom_site_type_symbol
_atom_site_fract_x
_atom_site_fract_y
_atom_site_fract_z
Zn1	Zn	1.037881	-0.436364	-0.459234
Zn2	Zn	1.035744	-0.581390	-0.347980
Zn3	Zn	0.925663	-0.424281	-0.336506
Zn4	Zn	0.913591	-0.580846	-0.460710
O5	O	0.978220	-0.505720	-0.401107
O6	O	1.135682	-0.460886	-0.448660
O7	O	1.025299	-0.555720	-0.247919
O8	O	0.946495	-0.299666	-0.347366
O9	O	1.134112	-0.567437	-0.366923
O10	O	1.028941	-0.308543	-0.437534
O11	O	0.944423	-0.440292	-0.239489
O12	O	0.825977	-0.439765	-0.348797
O13	O	0.925920	-0.566510	-0.559053
O14	O	0.817107	-0.554793	-0.440049
O15	O	1.017235	-0.460359	-0.557969
O16	O	1.013594	-0.707536	-0.368354
O17	O	0.923848	-0.707136	-0.451175
C18	C	0.796110	-0.495910	-0.393339
C19	C	0.718201	-0.491735	-0.390033
C20	C	0.676998	-0.549746	-0.435923
C21	C	0.603795	-0.545812	-0.432820
C22	C	0.571795	-0.483870	-0.383823
C23	C	0.613003	-0.425853	-0.337931
C24	C	0.686205	-0.429783	-0.341038
C25	C	0.353358	-0.465680	-0.369446
C26	C	0.280150	-0.461756	-0.366341
C27	C	0.270947	-0.581715	-0.461231
C28	C	0.344151	-0.585643	-0.464331
C29	C	0.385353	-0.527623	-0.418441
N30	N	0.496969	-0.479850	-0.380648
N31	N	0.460177	-0.531640	-0.421620
C32	C	0.967198	-0.740065	-0.411186
C33	C	0.962545	-0.840323	-0.415524
C34	C	1.047344	-1.029082	-0.337510
C35	C	1.042976	-1.123283	-0.341584
C36	C	0.949443	-1.122929	-0.427749
C37	C	0.953812	-1.028727	-0.423675
C38	C	1.002763	-0.981807	-0.378553
C39	C	1.007128	-0.887604	-0.374476
C40	C	0.913600	-0.887251	-0.460644
C41	C	0.909231	-0.981453	-0.464718
C42	C	1.161040	-0.515570	-0.408907
C43	C	1.238948	-0.519767	-0.412230
C44	C	0.970470	-0.514721	-0.584776
C45	C	0.967167	-0.518557	-0.663044
C46	C	0.989303	-0.270463	-0.391006
C47	C	0.994026	-0.170210	-0.386701
C48	C	1.013156	-0.465095	-0.699251
C49	C	1.010044	-0.468695	-0.772793
C50	C	0.960947	-0.525763	-0.810125
C51	C	0.914953	-0.579227	-0.773913
C52	C	0.918062	-0.575622	-0.700373
C53	C	0.946548	-0.542468	-1.030127
C54	C	0.943444	-0.546071	-1.103672
C55	C	1.038535	-0.435537	-1.102547
C56	C	1.041642	-0.431941	-1.029006
C57	C	0.995646	-0.485402	-0.992799
N58	N	0.957767	-0.529446	-0.885296
N59	N	0.998824	-0.481713	-0.917629
C60	C	0.985983	-0.496691	-0.218153
C61	C	0.989433	-0.492609	-0.139879
H62	H	0.703047	-0.600189	-0.475819
H63	H	1.087198	-0.990878	-0.300765
H64	H	0.570251	-0.593052	-0.470187
C65	C	1.067163	-0.402321	-0.658189
H66	H	1.062434	-0.407835	-0.609205
H67	H	1.059252	-0.341758	-0.667201
H68	H	1.113128	-0.418657	-0.672822
C69	C	0.379346	-0.653774	-0.518231
H70	H	0.344323	-0.687755	-0.545122
H71	H	0.407192	-0.693230	-0.494146
H72	H	0.408229	-0.622362	-0.548689
C73	C	1.092011	-1.175282	-0.296433
H74	H	1.121785	-1.133843	-0.268974
H75	H	1.119688	-1.214948	-0.326283
H76	H	1.064809	-1.209125	-0.266173
C77	C	1.060635	-0.409890	-0.812618
H78	H	1.090327	-0.375396	-0.779852
H79	H	1.034466	-0.370549	-0.838473
H80	H	1.088337	-0.447454	-0.844092
H81	H	0.880606	-0.619147	-0.670893
C82	C	0.895602	-1.174551	-0.477375
H83	H	0.899385	-1.237424	-0.473918
H84	H	0.904534	-1.161950	-0.524464
H85	H	0.849663	-1.156136	-0.464347
H86	H	0.237393	-0.628951	-0.498592
C87	C	0.244952	-0.393612	-0.312446
H88	H	0.279973	-0.359613	-0.285565
H89	H	0.216067	-0.425011	-0.281988
H90	H	0.217107	-0.354159	-0.336543
C91	C	1.089121	-0.376728	-1.142374
H92	H	1.080236	-0.387041	-1.191519
H93	H	1.136103	-0.391872	-1.132901
H94	H	1.082221	-0.314980	-1.127281
H95	H	0.386895	-0.418442	-0.332074
C96	C	0.860946	-0.642002	-0.814973
H97	H	0.833997	-0.673321	-0.782875
H98	H	0.884693	-0.684153	-0.846494
H99	H	0.830816	-0.607255	-0.840875
C100	C	1.060974	-0.835992	-0.324848
H101	H	1.086904	-0.877644	-0.300994
H102	H	1.037190	-0.796342	-0.291411
H103	H	1.092060	-0.802163	-0.351529
H104	H	0.877297	-0.848750	-0.494062
H105	H	0.869378	-1.019668	-0.501457
C106	C	0.577805	-0.357721	-0.284033
H107	H	0.528307	-0.363695	-0.288749
H108	H	0.592211	-0.298291	-0.292316
H109	H	0.591175	-0.369161	-0.237775
H110	H	0.903461	-0.592545	-1.134066
C111	C	0.731527	-0.365970	-0.290560
H112	H	0.701987	-0.328520	-0.260931
H113	H	0.760794	-0.329582	-0.317075
H114	H	0.759756	-0.400440	-0.262524
H115	H	1.081624	-0.385472	-0.998614
C116	C	0.895941	-0.601253	-0.990307
H117	H	0.866257	-0.635755	-1.023076
H118	H	0.868244	-0.563679	-0.958843
H119	H	0.922099	-0.640603	-0.964442
