data_functionalizedCrystal
_audit_creation_method	'MofGen! by Chris Wilmer'
_symmetry_space_group_name_H-M	'P1'
_symmetry_Int_Tables_number	1
_symmetry_cell_setting	triclinic
loop_
_symmetry_equiv_pos_as_xyz
  x,y,z
_cell_length_a	19.188928
_cell_length_b	19.188924
_cell_length_c	10.868271
_cell_angle_alpha	90.007200
_cell_angle_beta	89.978983
_cell_angle_gamma	96.857113
loop_
_atom_site_label
_atom_site_type_symbol
_atom_site_fract_x
_atom_site_fract_y
_atom_site_fract_z
O1	O	-0.926144	0.087160	0.102804
O2	O	-0.722832	0.098896	0.102703
O3	O	-0.830357	-0.008628	0.102742
O4	O	-0.818618	0.194684	0.102765
O5	O	-0.830348	-0.008632	-0.101903
O6	O	-0.722823	0.098892	-0.101942
O7	O	-0.926135	0.087156	-0.101841
Zn8	Zn	-0.824477	0.093024	-0.134383
Zn9	Zn	-0.824489	0.093029	0.135245
O10	O	-0.818609	0.194680	-0.101880
C11	C	-0.696816	0.098515	0.000367
C12	C	-0.619312	0.097375	0.000328
C13	C	-0.829973	-0.034641	0.000418
C14	C	-0.828835	-0.112145	0.000414
C15	C	-0.574386	0.160466	0.000351
C16	C	-0.501562	0.159395	0.000358
C17	C	-0.473667	0.095229	0.000367
C18	C	-0.518603	0.032129	0.000337
C19	C	-0.591425	0.033202	0.000317
N20	N	-0.365691	0.046184	0.070051
N21	N	-0.296512	0.045169	0.070072
C22	C	-0.254258	0.091993	0.000423
N23	N	-0.283795	0.139880	-0.069233
N24	N	-0.352980	0.140897	-0.069249
C25	C	-0.394705	0.094058	0.000387
C26	C	-0.130368	0.153927	0.000451
C27	C	-0.057544	0.152853	0.000451
C28	C	-0.074586	0.025586	0.000442
C29	C	-0.147409	0.026661	0.000430
C30	C	-0.175296	0.090834	0.000441
C31	C	-0.828308	-0.148542	0.111966
C32	C	-0.827228	-0.221365	0.111975
C33	C	-0.826689	-0.257790	0.000425
C34	C	-0.827212	-0.221384	-0.111141
C35	C	-0.828285	-0.148562	-0.111147
N36	N	-0.864733	-0.377455	-0.082579
N37	N	-0.863716	-0.446633	-0.082566
C38	C	-0.823455	-0.477199	0.000436
N39	N	-0.784259	-0.435974	0.083443
N40	N	-0.785280	-0.366790	0.083433
C41	C	-0.825525	-0.336753	0.000419
C42	C	-0.821756	-0.592558	0.112005
C43	C	-0.820672	-0.665382	0.112009
C44	C	-0.820663	-0.665400	-0.111110
C45	C	-0.821740	-0.592577	-0.111111
C46	C	-0.822290	-0.556161	0.000450
C47	C	0.047850	0.087540	0.000475
C48	C	-0.029654	0.088687	0.000458
C49	C	-0.818993	0.220694	0.000446
C50	C	-0.820132	0.298198	0.000458
N51	N	-0.824475	0.093020	-0.318397
C52	C	-0.824485	0.093028	-0.569403
C53	C	-0.824477	0.093025	-0.429726
N54	N	-0.824497	0.093028	0.319259
H55	H	-0.597086	0.212720	0.000362
H56	H	-0.183988	-0.024715	0.000418
H57	H	-0.051874	-0.026660	0.000526
H58	H	-0.828754	-0.118896	0.202808
H59	H	-0.826795	-0.251004	0.202816
H60	H	-0.495886	-0.020115	0.000361
H61	H	-0.826771	-0.251046	-0.201965
H62	H	-0.822200	-0.562906	0.202844
H63	H	-0.820240	-0.695014	0.202851
H64	H	-0.828711	-0.118928	-0.201989
H65	H	-0.820218	-0.695056	-0.201936
H66	H	-0.464977	0.210773	0.000373
H67	H	-0.628004	-0.018176	0.000300
H68	H	-0.822175	-0.562944	-0.201949
H69	H	-0.020965	0.204232	0.000462
H70	H	-0.153075	0.206180	0.000442
