data_functionalizedCrystal
_audit_creation_method	'MofGen! by Chris Wilmer'
_symmetry_space_group_name_H-M	'P1'
_symmetry_Int_Tables_number	1
_symmetry_cell_setting	triclinic
loop_
_symmetry_equiv_pos_as_xyz
  x,y,z
_cell_length_a	26.210047
_cell_length_b	19.188930
_cell_length_c	19.188922
_cell_angle_alpha	83.142936
_cell_angle_beta	90.001990
_cell_angle_gamma	89.977114
loop_
_atom_site_label
_atom_site_type_symbol
_atom_site_fract_x
_atom_site_fract_y
_atom_site_fract_z
O1	O	0.042596	-0.926148	-0.087158
O2	O	0.542596	-0.426148	0.412842
O3	O	0.042561	-0.722836	-0.098892
O4	O	0.542561	-0.222836	0.401108
O5	O	0.042573	-0.830362	0.008631
O6	O	0.542573	-0.330362	0.508631
O7	O	0.042584	-0.818622	-0.194681
O8	O	0.542584	-0.318622	0.305319
O9	O	-0.042285	-0.830342	0.008614
O10	O	0.457715	-0.330342	0.508614
O11	O	-0.042297	-0.722815	-0.098909
O12	O	0.457703	-0.222815	0.401091
O13	O	-0.042262	-0.926127	-0.087175
O14	O	0.457738	-0.426127	0.412825
Cu15	Cu	-0.050028	-0.824469	-0.093043
Cu16	Cu	0.449972	-0.324469	0.406957
Cu17	Cu	0.050327	-0.824494	-0.093024
Cu18	Cu	0.550327	-0.324494	0.406976
O19	O	-0.042274	-0.818601	-0.194698
O20	O	0.457726	-0.318601	0.305302
C21	C	0.000128	-0.696815	-0.098521
C22	C	0.500128	-0.196815	0.401479
C23	C	0.000114	-0.619310	-0.097380
C24	C	0.500114	-0.119310	0.402620
C25	C	0.000143	-0.829973	0.034634
C26	C	0.500143	-0.329973	0.534634
C27	C	0.000141	-0.828835	0.112139
C28	C	0.500141	-0.328835	0.612139
N29	N	-0.120612	-0.824457	-0.093057
N30	N	0.379388	-0.324457	0.406943
C31	C	-0.473121	-0.872102	-0.045423
C32	C	0.026879	-0.372102	0.454577
C33	C	-0.686779	-0.872117	-0.045413
C34	C	-0.186779	-0.372117	0.454587
O35	O	-0.714397	-0.912599	-0.004916
O36	O	-0.214397	-0.412599	0.495084
N37	N	-0.713506	-0.824498	-0.093008
N38	N	-0.213506	-0.324498	0.406992
C39	C	-0.686814	-0.776868	-0.140606
C40	C	-0.186814	-0.276868	0.359394
O41	O	-0.714449	-0.736360	-0.181083
O42	O	-0.214449	-0.236360	0.318917
C43	C	-0.473157	-0.776850	-0.140612
C44	C	0.026843	-0.276850	0.359388
C45	C	-0.446433	-0.824477	-0.093018
C46	C	0.053567	-0.324477	0.406982
C47	C	-0.446397	-0.919724	0.002167
C48	C	0.053603	-0.419724	0.502167
C49	C	-0.392985	-0.919723	0.002162
C50	C	0.107015	-0.419723	0.502162
C51	C	-0.366298	-0.872098	-0.045434
C52	C	0.133702	-0.372098	0.454566
C53	C	-0.393021	-0.824475	-0.093024
C54	C	0.106979	-0.324475	0.406976
C55	C	-0.446466	-0.729217	-0.188206
C56	C	0.053534	-0.229217	0.311794
C57	C	-0.393048	-0.729216	-0.188202
C58	C	0.106952	-0.229216	0.311798
C59	C	-0.366325	-0.776843	-0.140608
C60	C	0.133675	-0.276843	0.359392
C61	C	-0.312922	-0.776849	-0.140625
C62	C	0.187078	-0.276849	0.359375
N63	N	-0.286196	-0.824468	-0.093030
N64	N	0.213804	-0.324468	0.406970
C65	C	-0.312883	-0.872093	-0.045434
C66	C	0.187117	-0.372093	0.454566
C67	C	-0.798988	-0.776882	-0.140600
C68	C	-0.298988	-0.276882	0.359400
C69	C	-0.852402	-0.776887	-0.140600
C70	C	-0.352402	-0.276887	0.359400
C71	C	-0.852363	-0.872135	-0.045406
C72	C	-0.352363	-0.372135	0.454594
C73	C	-0.798948	-0.872133	-0.045411
C74	C	-0.298948	-0.372133	0.454589
C75	C	-0.772261	-0.824501	-0.093005
C76	C	-0.272261	-0.324501	0.406995
C77	C	-0.200716	-0.872086	-0.045450
C78	C	0.299284	-0.372086	0.454550
C79	C	-0.147299	-0.872082	-0.045461
C80	C	0.352701	-0.372082	0.454539
C81	C	-0.147343	-0.776831	-0.140652
C82	C	0.352657	-0.276831	0.359348
C83	C	-0.200754	-0.776837	-0.140644
C84	C	0.299246	-0.276837	0.359356
C85	C	-0.227439	-0.824467	-0.093036
C86	C	0.272561	-0.324467	0.406964
O87	O	-0.285272	-0.736383	-0.181095
O88	O	0.214728	-0.236383	0.318905
O89	O	-0.285239	-0.912584	-0.004953
O90	O	0.214761	-0.412584	0.495047
C91	C	-0.526532	-0.872103	-0.045418
C92	C	-0.026532	-0.372103	0.454582
C93	C	-0.553256	-0.824481	-0.093008
C94	C	-0.053256	-0.324481	0.406992
C95	C	-0.526568	-0.776856	-0.140603
C96	C	-0.026568	-0.276856	0.359397
C97	C	-0.606670	-0.824486	-0.093007
C98	C	-0.106670	-0.324486	0.406993
C99	C	-0.633358	-0.872110	-0.045412
C100	C	-0.133358	-0.372110	0.454588
C101	C	-0.606631	-0.919730	0.002183
C102	C	-0.106631	-0.419730	0.502183
C103	C	-0.553220	-0.919728	0.002178
C104	C	-0.053220	-0.419728	0.502178
C105	C	-0.553295	-0.729237	-0.188198
C106	C	-0.053295	-0.229237	0.311802
C107	C	-0.606706	-0.729243	-0.188189
C108	C	-0.106706	-0.229243	0.311811
C109	C	-0.633394	-0.776867	-0.140594
C110	C	-0.133394	-0.276867	0.359406
N111	N	0.120911	-0.824512	-0.093004
N112	N	0.620911	-0.324512	0.406996
C113	C	0.000172	-0.952148	-0.087546
C114	C	0.500172	-0.452148	0.412454
C115	C	0.000189	-1.029653	-0.088687
C116	C	0.500189	-0.529653	0.411313
C117	C	0.000126	-0.574384	-0.160471
C118	C	0.500126	-0.074384	0.339529
C119	C	0.000131	-0.501560	-0.159399
C120	C	0.500131	-0.001560	0.340601
C121	C	0.000136	-0.473666	-0.095233
C122	C	0.500136	0.026334	0.404767
C123	C	0.000121	-0.518602	-0.032134
C124	C	0.500121	-0.018602	0.467866
C125	C	0.000111	-0.591424	-0.033207
C126	C	0.500111	-0.091424	0.466793
N127	N	0.029034	-0.365694	-0.046180
N128	N	0.529034	0.134306	0.453820
N129	N	0.029045	-0.296516	-0.045165
N130	N	0.529045	0.203484	0.454835
C131	C	0.000167	-0.254257	-0.091995
C132	C	0.500167	0.245743	0.408005
N133	N	-0.028718	-0.283790	-0.139889
N134	N	0.471282	0.216210	0.360111
N135	N	-0.028727	-0.352974	-0.140907
N136	N	0.471273	0.147026	0.359093
C137	C	0.000147	-0.394704	-0.094062
C138	C	0.500147	0.105296	0.405938
C139	C	0.000183	-0.130367	-0.153928
C140	C	0.500183	0.369633	0.346072
C141	C	0.000186	-0.057542	-0.152854
C142	C	0.500186	0.442458	0.347146
C143	C	0.000181	-0.074585	-0.025586
C144	C	0.500181	0.425415	0.474414
C145	C	0.000173	-0.147408	-0.026663
C146	C	0.500173	0.352592	0.473337
C147	C	0.000177	-0.175295	-0.090835
C148	C	0.500177	0.324705	0.409165
C149	C	0.046397	-0.828315	0.148547
C150	C	0.546397	-0.328315	0.648547
C151	C	0.046400	-0.827235	0.221369
C152	C	0.546400	-0.327235	0.721369
C153	C	0.000145	-0.826690	0.257783
C154	C	0.500145	-0.326690	0.757783
C155	C	-0.046117	-0.827206	0.221366
C156	C	0.453883	-0.327206	0.721366
C157	C	-0.046119	-0.828278	0.148544
C158	C	0.453881	-0.328278	0.648544
N159	N	-0.034275	-0.864730	0.377440
N160	N	0.465725	-0.364730	0.877440
N161	N	-0.034270	-0.863713	0.446618
N162	N	0.465730	-0.363713	0.946618
C163	C	0.000148	-0.823458	0.477193
C164	C	0.500148	-0.323458	0.977193
N165	N	0.034570	-0.784266	0.435977
N166	N	0.534570	-0.284266	0.935977
N167	N	0.034566	-0.785287	0.366792
N168	N	0.534566	-0.285287	0.866792
C169	C	0.000142	-0.825527	0.336747
C170	C	0.500142	-0.325527	0.836747
C171	C	0.046411	-0.821766	0.592563
C172	C	0.546411	-0.321766	1.092563
C173	C	0.046412	-0.820683	0.665387
C174	C	0.546412	-0.320683	1.165387
C175	C	-0.046106	-0.820660	0.665383
C176	C	0.453894	-0.320660	1.165383
C177	C	-0.046106	-0.821737	0.592560
C178	C	0.453894	-0.321737	1.092560
C179	C	0.000154	-0.822293	0.556155
C180	C	0.500154	-0.322293	1.056155
C181	C	0.000155	-0.818992	0.779300
C182	C	0.500155	-0.318992	1.279300
C183	C	0.000157	-0.820136	0.701795
C184	C	0.500157	-0.320136	1.201795
H185	H	-0.125543	-0.910868	-0.006705
H186	H	0.374457	-0.410868	0.493295
C187	C	-0.523945	-0.676851	-0.240560
C188	C	-0.023945	-0.176851	0.259440
H189	H	-0.547516	-0.648498	-0.268905
H190	H	-0.047516	-0.148498	0.231095
H191	H	-0.503113	-0.647861	-0.215526
H192	H	-0.003113	-0.147861	0.284474
H193	H	-0.503106	-0.701880	-0.269569
H194	H	-0.003106	-0.201880	0.230431
C195	C	0.000169	-0.196829	0.042739
C196	C	0.500169	0.303171	0.542739
H197	H	0.000176	-0.169788	0.081108
H198	H	0.500176	0.330212	0.581108
H199	H	-0.029426	-0.225569	0.044961
H200	H	0.470574	0.274431	0.544961
H201	H	0.029761	-0.225613	0.044968
H202	H	0.529761	0.274387	0.544968
C203	C	0.000120	-0.605056	-0.231058
C204	C	0.500120	-0.105056	0.268942
H205	H	0.000123	-0.567865	-0.268480
H206	H	0.500123	-0.067865	0.231520
H207	H	0.029706	-0.633138	-0.234121
H208	H	0.529706	-0.133138	0.265879
H209	H	-0.029482	-0.633080	-0.234125
H210	H	0.470518	-0.133080	0.265875
H211	H	0.000179	-0.153073	-0.206182
H212	H	0.500179	0.346927	0.293818
H213	H	0.084079	-0.822215	0.562920
H214	H	0.584079	-0.322215	1.062920
H215	H	-0.083768	-0.820211	0.695030
H216	H	0.416232	-0.320211	1.195030
C217	C	-0.636096	-0.676846	-0.240542
C218	C	-0.136096	-0.176846	0.259458
H219	H	-0.612547	-0.648480	-0.268881
H220	H	-0.112547	-0.148480	0.231119
H221	H	-0.656931	-0.701858	-0.269549
H222	H	-0.156931	-0.201858	0.230451
H223	H	-0.656936	-0.647861	-0.215485
H224	H	-0.156936	-0.147861	0.284515
C225	C	-0.363696	-0.676823	-0.240561
C226	C	0.136304	-0.176823	0.259439
H227	H	-0.387265	-0.648466	-0.268906
H228	H	0.112735	-0.148466	0.231094
H229	H	-0.342865	-0.647838	-0.215520
H230	H	0.157135	-0.147838	0.284480
H231	H	-0.342855	-0.701848	-0.269571
H232	H	0.157145	-0.201848	0.230429
H233	H	0.084066	-0.828766	0.118910
H234	H	0.584066	-0.328766	0.618910
C235	C	0.000129	-0.487921	0.038447
C236	C	0.500129	0.012079	0.538447
H237	H	0.000143	-0.438116	0.030051
H238	H	0.500143	0.061884	0.530051
H239	H	-0.029465	-0.503329	0.064413
H240	H	0.470535	-0.003329	0.564413
H241	H	0.029722	-0.503383	0.064419
H242	H	0.529722	-0.003383	0.564419
H243	H	0.084069	-0.826808	0.251018
H244	H	0.584069	-0.326808	0.751018
C245	C	0.000199	-0.008120	-0.222256
C246	C	0.500199	0.491880	0.277744
H247	H	0.000199	0.039245	-0.212428
H248	H	0.500199	0.539245	0.287572
H249	H	0.029792	-0.016577	-0.248567
H250	H	0.529792	0.483423	0.251433
H251	H	-0.029395	-0.016530	-0.248586
H252	H	0.470605	0.483470	0.251414
C253	C	-0.096996	-0.826608	0.261418
C254	C	0.403004	-0.326608	0.761418
H255	H	-0.090371	-0.825902	0.310004
H256	H	0.409629	-0.325902	0.810004
H257	H	-0.116010	-0.786072	0.244035
H258	H	0.383990	-0.286072	0.744035
H259	H	-0.115996	-0.867490	0.254932
H260	H	0.384004	-0.367490	0.754932
C261	C	0.000146	-0.452130	-0.228800
C262	C	0.500146	0.047870	0.271200
H263	H	0.000149	-0.404766	-0.218968
H264	H	0.500149	0.095234	0.281032
H265	H	0.029739	-0.460588	-0.255113
H266	H	0.529739	0.039412	0.244887
H267	H	-0.029449	-0.460535	-0.255130
H268	H	0.470551	0.039465	0.244870
C269	C	-0.097003	-0.828857	0.108494
C270	C	0.402997	-0.328857	0.608494
H271	H	-0.124551	-0.828381	0.140608
H272	H	0.375449	-0.328381	0.640608
H273	H	-0.098933	-0.788571	0.074632
H274	H	0.401067	-0.288571	0.574632
H275	H	-0.098918	-0.869989	0.085541
H276	H	0.401082	-0.369989	0.585541
H277	H	0.000101	-0.628004	0.018171
H278	H	0.500101	-0.128004	0.518171
H279	H	0.084081	-0.820256	0.695029
H280	H	0.584081	-0.320256	1.195029
C281	C	-0.475745	-0.972120	0.054523
C282	C	0.024255	-0.472120	0.554523
H283	H	-0.452172	-1.000480	0.082857
H284	H	0.047828	-0.500480	0.582857
H285	H	-0.496592	-0.947110	0.083533
H286	H	0.003408	-0.447110	0.583533
H287	H	-0.496569	-1.001111	0.029473
H288	H	0.003431	-0.501111	0.529473
H289	H	-0.083773	-0.822166	0.562917
H290	H	0.416227	-0.322166	1.062917
H291	H	0.000216	-0.051875	0.026659
H292	H	0.500216	0.448125	0.526659
H293	H	-0.222437	-0.910870	-0.006683
H294	H	0.277563	-0.410870	0.493317
H295	H	-0.371230	-0.958503	0.040918
H296	H	0.128770	-0.458503	0.540918
H297	H	-0.777192	-0.910915	-0.006656
H298	H	-0.277192	-0.410915	0.493344
H299	H	-0.874101	-0.910914	-0.006653
H300	H	-0.374101	-0.410914	0.493347
H301	H	-0.874156	-0.738112	-0.179362
H302	H	-0.374156	-0.238112	0.320638
H303	H	-0.468217	-0.690435	-0.226960
H304	H	0.031783	-0.190435	0.273040
C305	C	-0.230152	-0.724423	-0.192968
C306	C	0.269848	-0.224423	0.307032
H307	H	-0.206605	-0.696049	-0.221304
H308	H	0.293395	-0.196049	0.278696
H309	H	-0.250999	-0.749412	-0.221981
H310	H	0.249001	-0.249412	0.278019
H311	H	-0.250979	-0.695448	-0.167884
H312	H	0.249021	-0.195448	0.332116
C313	C	-0.769638	-0.724489	-0.192964
C314	C	-0.269638	-0.224489	0.307036
H315	H	-0.793210	-0.696139	-0.221311
H316	H	-0.293210	-0.196139	0.278689
H317	H	-0.748810	-0.695498	-0.167928
H318	H	-0.248810	-0.195498	0.332072
H319	H	-0.748796	-0.749515	-0.221972
H320	H	-0.248796	-0.249515	0.278028
H321	H	-0.125605	-0.738058	-0.179406
H322	H	0.374395	-0.238058	0.320594
H323	H	-0.531465	-0.958510	0.040933
H324	H	-0.031465	-0.458510	0.540933
H325	H	-0.628369	-0.958510	0.040935
H326	H	-0.128369	-0.458510	0.540935
