data_functionalizedCrystal
_audit_creation_method	'MofGen! by Chris Wilmer'
_symmetry_space_group_name_H-M	'P1'
_symmetry_Int_Tables_number	1
_symmetry_cell_setting	triclinic
loop_
_symmetry_equiv_pos_as_xyz
  x,y,z
_cell_length_a	19.121275
_cell_length_b	19.120786
_cell_length_c	18.101389
_cell_angle_alpha	87.539356
_cell_angle_beta	92.422663
_cell_angle_gamma	90.130801
loop_
_atom_site_label
_atom_site_type_symbol
_atom_site_fract_x
_atom_site_fract_y
_atom_site_fract_z
Zn1	Zn	1.059818	-0.324891	-0.356395
Zn2	Zn	1.559818	0.175109	0.143605
Zn3	Zn	1.054731	-0.442115	-0.227504
Zn4	Zn	1.554731	0.057885	0.272496
Zn5	Zn	0.942587	-0.319895	-0.238070
Zn6	Zn	1.442587	0.180105	0.261930
Zn7	Zn	0.937552	-0.437099	-0.356805
Zn8	Zn	1.437552	0.062901	0.143195
O9	O	0.998672	-0.381000	-0.294694
O10	O	1.498672	0.119000	0.205306
O11	O	1.157245	-0.344631	-0.334704
O12	O	1.657245	0.155369	0.165296
O13	O	1.039832	-0.425911	-0.125274
O14	O	1.539832	0.074089	0.374726
O15	O	0.962374	-0.222449	-0.258016
O16	O	1.462374	0.277551	0.241984
O17	O	1.153507	-0.430756	-0.240009
O18	O	1.653507	0.069244	0.259991
O19	O	1.048504	-0.226119	-0.344949
O20	O	1.548504	0.273881	0.155051
O21	O	0.957441	-0.336116	-0.133036
O22	O	1.457441	0.163884	0.366964
O23	O	0.843817	-0.331252	-0.258414
O24	O	1.343817	0.168748	0.241586
O25	O	0.953793	-0.422205	-0.460383
O26	O	1.453793	0.077795	0.039617
O27	O	0.840118	-0.417361	-0.345648
O28	O	1.340118	0.082639	0.154352
O29	O	1.043622	-0.339767	-0.460082
O30	O	1.543622	0.160233	0.039918
O31	O	1.034951	-0.539559	-0.240406
O32	O	1.534951	-0.039559	0.259594
O33	O	0.948860	-0.535873	-0.335403
O34	O	1.448860	-0.035873	0.164597
C35	C	0.816531	-0.373220	-0.303223
C36	C	1.316531	0.126780	0.196777
C37	C	0.738609	-0.369909	-0.306888
C38	C	1.238609	0.130091	0.193112
C39	C	0.700056	-0.413121	-0.259240
C40	C	1.200056	0.086879	0.240760
C41	C	0.626840	-0.410010	-0.262694
C42	C	1.126840	0.089990	0.237306
C43	C	0.592180	-0.363683	-0.313793
C44	C	1.092180	0.136317	0.186207
C45	C	0.630738	-0.320469	-0.361446
C46	C	1.130738	0.179531	0.138554
C47	C	0.703952	-0.323584	-0.357995
C48	C	1.203952	0.176416	0.142005
C49	C	0.371218	-0.352041	-0.326686
C50	C	0.871218	0.147959	0.173314
C51	C	0.297999	-0.348927	-0.330132
C52	C	0.797999	0.151073	0.169868
C53	C	0.294105	-0.438469	-0.231380
C54	C	0.794105	0.061531	0.268620
C55	C	0.367321	-0.441577	-0.227931
C56	C	0.867321	0.058423	0.272069
C57	C	0.405873	-0.398366	-0.275586
C58	C	0.905873	0.101634	0.224414
C59	C	0.517342	-0.360500	-0.317323
C60	C	1.017342	0.139500	0.182677
C61	C	0.480710	-0.401553	-0.272059
C62	C	0.980710	0.098447	0.227941
C63	C	0.990826	-0.563155	-0.286818
C64	C	1.490826	-0.063155	0.213182
C65	C	0.987533	-0.641085	-0.283471
C66	C	1.487533	-0.141085	0.216529
C67	C	1.030796	-0.679546	-0.327199
C68	C	1.530796	-0.179546	0.172801
C69	C	1.027700	-0.752769	-0.324055
C70	C	1.527700	-0.252769	0.175945
C71	C	0.981343	-0.787530	-0.277178
C72	C	1.481343	-0.287530	0.222822
C73	C	0.938076	-0.749064	-0.233448
C74	C	1.438076	-0.249064	0.266552
C75	C	0.941169	-0.675842	-0.236596
C76	C	1.441169	-0.175842	0.263404
C77	C	0.969758	-1.008520	-0.265409
C78	C	1.469758	-0.508520	0.234591
C79	C	0.966670	-1.081747	-0.262263
C80	C	1.466670	-0.581747	0.237737
C81	C	1.056293	-1.085447	-0.352872
C82	C	1.556293	-0.585447	0.147128
C83	C	1.059385	-1.012223	-0.356012
C84	C	1.559385	-0.512223	0.143988
C85	C	1.016115	-0.973764	-0.312285
C86	C	1.516115	-0.473764	0.187715
C87	C	0.978179	-0.862375	-0.273962
C88	C	1.478179	-0.362375	0.226038
C89	C	1.019277	-0.898919	-0.315506
C90	C	1.519277	-0.398919	0.184494
C91	C	1.181524	-0.388810	-0.286132
C92	C	1.681524	0.111190	0.213868
C93	C	1.259445	-0.392139	-0.282483
C94	C	1.759445	0.107861	0.217517
C95	C	0.998713	-0.380984	-0.487855
C96	C	1.498713	0.119016	0.012145
C97	C	0.998731	-0.380977	-0.570168
C98	C	1.498731	0.119023	-0.070168
C99	C	1.006568	-0.198134	-0.302616
C100	C	1.506568	0.301866	0.197384
C101	C	1.009933	-0.120207	-0.305991
C102	C	1.509933	0.379793	0.194009
C103	C	0.998777	-0.380847	-0.869263
C104	C	1.498777	0.119153	-0.369263
C105	C	0.942080	-0.432535	-0.838144
C106	C	1.442080	0.067465	-0.338144
C107	C	0.942216	-0.432792	-0.752508
C108	C	1.442216	0.067208	-0.252508
C109	C	0.998754	-0.380912	-0.720879
C110	C	1.498754	0.119088	-0.220879
C111	C	1.071761	-0.404116	-0.747646
C112	C	1.571761	0.095884	-0.247646
C113	C	1.071443	-0.404458	-0.833290
C114	C	1.571443	0.095542	-0.333290
C115	C	0.983114	-0.305862	-0.841771
C116	C	1.483114	0.194138	-0.341771
C117	C	0.981452	-0.306221	-0.756179
C118	C	1.481452	0.193779	-0.256179
C119	C	0.998745	-0.380947	-0.637018
C120	C	1.498745	0.119053	-0.137018
C121	C	0.998791	-0.380814	-0.953124
C122	C	1.498791	0.119186	-0.453124
C123	C	0.998673	-0.380967	-0.102285
C124	C	1.498673	0.119033	0.397715
C125	C	0.998800	-0.380782	-0.019974
C126	C	1.498800	0.119218	0.480026
H127	H	0.735342	-0.288396	-0.396795
H128	H	1.235342	0.211604	0.103205
H129	H	0.402598	-0.316856	-0.365491
H130	H	0.902598	0.183144	0.134509
Cl131	Cl	1.077547	-0.855218	-0.374439
Cl132	Cl	1.577547	-0.355218	0.125561
Cl133	Cl	0.473762	-0.302263	-0.381561
Cl134	Cl	0.973762	0.197737	0.118439
H135	H	0.940437	-0.890686	-0.235792
H136	H	1.440437	-0.390686	0.264208
H137	H	0.395536	-0.479300	-0.186320
H138	H	0.895536	0.020700	0.313680
Cl139	Cl	0.587165	-0.262235	-0.425691
Cl140	Cl	1.087165	0.237765	0.074309
Cl141	Cl	1.089080	-0.635854	-0.386129
Cl142	Cl	1.589080	-0.135854	0.113871
Cl143	Cl	0.858479	-0.409807	-0.724844
Cl144	Cl	1.358479	0.090193	-0.224844
H145	H	0.262708	-0.473650	-0.192583
H146	H	0.762708	0.026350	0.307417
Cl147	Cl	0.902603	-0.274168	-0.880153
Cl148	Cl	1.402603	0.225832	-0.380153
H149	H	0.952056	-0.487711	-0.856735
H150	H	1.452056	0.012289	-0.356735
Cl151	Cl	1.082081	-0.801116	-0.379042
Cl152	Cl	1.582081	-0.301116	0.120958
Cl153	Cl	0.743621	-0.471362	-0.194997
Cl154	Cl	1.243621	0.028638	0.305003
Cl155	Cl	0.886778	-0.627491	-0.181622
Cl156	Cl	1.386778	-0.127491	0.318378
Cl157	Cl	0.858075	-0.409739	-0.874736
Cl158	Cl	1.358075	0.090261	-0.374736
Cl159	Cl	0.254427	-0.290679	-0.394371
Cl160	Cl	0.754427	0.209321	0.105629
Cl161	Cl	0.524284	-0.459792	-0.207825
Cl162	Cl	1.024284	0.040208	0.292175
Cl163	Cl	1.040953	-0.243215	-0.723329
Cl164	Cl	1.540953	0.256785	-0.223329
Cl165	Cl	0.879792	-0.792763	-0.174524
Cl166	Cl	1.379792	-0.292763	0.325476
Cl167	Cl	1.110683	-1.133800	-0.407843
Cl168	Cl	1.610683	-0.633800	0.092157
Cl169	Cl	1.117663	-0.968529	-0.414947
Cl170	Cl	1.617663	-0.468529	0.085053
Cl171	Cl	0.908391	-1.125445	-0.203324
Cl172	Cl	1.408391	-0.625445	0.296676
H173	H	0.595453	-0.445197	-0.223894
H174	H	1.095453	0.054803	0.276106
Cl175	Cl	0.915355	-0.960179	-0.210444
Cl176	Cl	1.415355	-0.460179	0.289556
Cl177	Cl	1.093298	-0.488020	-0.709794
Cl178	Cl	1.593298	0.011980	-0.209794
Cl179	Cl	1.046929	-0.246345	-0.872875
Cl180	Cl	1.546929	0.253655	-0.372875
H181	H	0.952302	-0.488308	-0.729070
H182	H	1.452302	0.011692	-0.229070
Cl183	Cl	1.092511	-0.489233	-0.859378
Cl184	Cl	1.592511	0.010767	-0.359378
H185	H	1.114949	-0.368616	-0.853681
H186	H	1.614949	0.131384	-0.353681
H187	H	0.927741	-0.288779	-0.739055
H188	H	1.427741	0.211221	-0.239055
Cl189	Cl	1.138525	-0.348034	-0.715750
Cl190	Cl	1.638525	0.151966	-0.215750
