data_functionalizedCrystal
_audit_creation_method	'MofGen! by Chris Wilmer'
_symmetry_space_group_name_H-M	'P1'
_symmetry_Int_Tables_number	1
_symmetry_cell_setting	triclinic
loop_
_symmetry_equiv_pos_as_xyz
  x,y,z
_cell_length_a	6.817900
_cell_length_b	13.694001
_cell_length_c	17.110486
_cell_angle_alpha	80.499415
_cell_angle_beta	99.060439
_cell_angle_gamma	106.288079
loop_
_atom_site_label
_atom_site_type_symbol
_atom_site_fract_x
_atom_site_fract_y
_atom_site_fract_z
V1	V	-3.978696	-0.140005	-0.216416
O2	O	-3.965283	0.007039	-0.243547
O3	O	-3.932312	-0.277906	-0.184879
O4	O	-3.908524	-0.137715	-0.324514
O5	O	-3.989236	-0.134122	-0.102945
V6	V	-4.464884	-0.122433	-0.206495
O7	O	-4.234109	-0.178551	-0.238178
O8	O	-4.659668	-0.083888	-0.184733
O9	O	-4.288061	0.015467	-0.238031
O10	O	-4.595693	-0.269477	-0.179363
O11	O	-4.571741	-0.128316	-0.319965
O12	O	-4.311849	-0.124723	-0.098396
C13	C	-3.778508	-0.311527	-0.173710
C14	C	-3.821726	-0.424262	-0.148645
C15	C	-3.748163	-0.132699	-0.351827
C16	C	-3.772087	-0.131739	-0.440001
C17	C	-4.046720	-0.799618	-0.355395
C18	C	-4.006129	-0.693700	-0.378948
C19	C	-3.960026	-0.626335	-0.321374
C20	C	-3.954518	-0.664899	-0.240244
C21	C	-3.995128	-0.770829	-0.216689
C22	C	-3.908435	-0.597545	-0.182668
C23	C	-3.902927	-0.636110	-0.101538
C24	C	-3.943532	-0.742029	-0.077987
C25	C	-3.989635	-0.809393	-0.135561
C26	C	-3.867824	-0.491616	-0.206223
C27	C	-3.816233	-0.462826	-0.067517
C28	C	-3.856823	-0.568745	-0.043964
C29	C	-3.964687	-0.136350	-0.484361
C30	C	-3.987154	-0.135447	-0.567210
C31	C	-3.817022	-0.129942	-0.605696
C32	C	-3.624404	-0.125328	-0.561331
C33	C	-3.601937	-0.126223	-0.478484
C34	C	-3.875783	-0.126979	-0.855692
C35	C	-3.898267	-0.126087	-0.938545
C36	C	-4.261016	-0.136204	-0.944418
C37	C	-4.238533	-0.137105	-0.861569
C38	C	-4.045917	-0.132486	-0.817212
C39	C	-3.839983	-0.129022	-0.690380
C40	C	-4.022955	-0.133398	-0.732530
C41	C	-4.105207	0.049083	-0.249197
C42	C	-4.041227	0.161817	-0.274267
C43	C	-4.135553	-0.129743	-0.071078
C44	C	-4.090867	-0.130697	0.017096
H45	H	-3.926977	-0.540092	-0.340556
O46	O	-4.033412	-0.923639	-0.110160
H47	H	-4.021834	-0.939142	-0.044074
O48	O	-3.937594	-0.783630	0.009516
H49	H	-3.898692	-0.718995	0.045595
H50	H	-4.143984	-0.139195	-0.603325
H51	H	-4.377077	-0.141587	-0.830240
H52	H	-3.852346	-0.600159	0.022093
O53	O	-3.394186	-0.121225	-0.430641
H54	H	-3.407134	-0.122752	-0.366570
O55	O	-4.012043	-0.652112	-0.466447
H56	H	-3.976076	-0.567141	-0.473154
O57	O	-3.766494	-0.390183	-0.005410
H58	H	-3.739156	-0.310049	-0.035417
O59	O	-4.468753	-0.141168	-0.992261
H60	H	-4.455799	-0.139610	-1.056336
H61	H	-3.759712	-0.121601	-0.969878
O62	O	-4.206459	-0.139332	-0.691028
H63	H	-4.234132	-0.209414	-0.646846
H64	H	-3.872326	-0.460228	-0.272280
O65	O	-4.148185	-0.142278	-0.442852
H66	H	-4.285880	-0.145318	-0.487622
O67	O	-3.668050	-0.122011	-0.807852
H68	H	-3.553535	-0.118047	-0.848534
O69	O	-3.440820	-0.119448	-0.602771
H70	H	-3.412971	-0.049390	-0.646972
O71	O	-4.096469	-0.872270	-0.417488
H72	H	-4.123780	-0.952403	-0.387477
O73	O	-3.656472	-0.123116	-0.731873
H74	H	-3.628752	-0.053046	-0.776066
