data_functionalizedCrystal
_audit_creation_method	'MofGen! by Chris Wilmer'
_symmetry_space_group_name_H-M	'P1'
_symmetry_Int_Tables_number	1
_symmetry_cell_setting	triclinic
loop_
_symmetry_equiv_pos_as_xyz
  x,y,z
_cell_length_a	20.875822
_cell_length_b	20.875662
_cell_length_c	20.875641
_cell_angle_alpha	92.967262
_cell_angle_beta	119.331720
_cell_angle_gamma	119.807894
loop_
_atom_site_label
_atom_site_type_symbol
_atom_site_fract_x
_atom_site_fract_y
_atom_site_fract_z
Zr1	Zr	-0.733516	0.583364	-0.088685
O2	O	-0.866064	0.478166	-0.199375
O3	O	-0.595425	0.620451	-0.049637
O4	O	-0.726036	0.618692	-0.185340
O5	O	-0.743287	0.475809	0.037553
O6	O	-0.726442	0.724038	-0.180088
O7	O	-0.735453	0.479925	-0.063672
O8	O	-0.492802	0.727184	0.062660
O9	O	-0.976926	0.472663	-0.205194
O10	O	-0.654580	0.709042	-0.035245
O11	O	-0.660124	0.627351	0.036379
O12	O	-0.813902	0.625281	-0.123393
O13	O	-0.819445	0.543590	-0.051769
Zr14	Zr	-0.746658	0.744814	0.081133
Zr15	Zr	-0.734164	0.751379	-0.080309
Zr16	Zr	-0.746011	0.576800	0.072757
Zr17	Zr	-0.910329	0.574587	-0.097966
Zr18	Zr	-0.569845	0.753592	0.090415
O19	O	-0.884750	0.707728	0.042085
O20	O	-0.866985	0.717061	-0.187465
O21	O	-0.883829	0.468833	0.030176
O22	O	-0.614111	0.850012	0.191823
O23	O	-0.596346	0.859346	-0.037727
O24	O	-0.613190	0.611117	0.179914
O25	O	-0.736888	0.852369	-0.045105
O26	O	-0.754138	0.709486	0.177788
O27	O	-0.753732	0.604141	0.172536
O28	O	-0.744722	0.848253	0.056120
O29	O	-0.977441	0.606212	-0.198536
O30	O	-0.502734	0.721967	0.190985
O31	O	-0.503248	0.855516	0.197643
O32	O	-0.493317	0.860733	0.069317
O33	O	-0.986857	0.467445	-0.076869
O34	O	-0.987372	0.600994	-0.070211
O35	O	-0.666273	0.702898	0.115842
O36	O	-0.660730	0.784588	0.044218
O37	O	-0.820051	0.700827	-0.043931
O38	O	-0.825594	0.619137	0.027693
C39	C	-0.518922	0.675068	0.007834
C40	C	-0.443860	0.678795	0.011774
C41	C	-0.739277	0.453929	-0.014253
C42	C	-0.739002	0.382602	-0.017809
C43	C	-0.015114	0.706352	0.040667
C44	C	-0.085670	0.702807	0.036949
C45	C	-0.177462	0.642230	-0.026773
C46	C	-0.198697	0.585199	-0.086784
C47	C	-0.128141	0.588748	-0.083069
C48	C	-0.394539	0.625313	-0.044522
C49	C	-0.465096	0.621767	-0.048232
C50	C	-0.352064	0.739376	0.075501
C51	C	-0.281512	0.742916	0.079213
C52	C	-0.302752	0.685888	0.019200
N53	N	-0.249584	0.638603	-0.030573
N54	N	-0.230631	0.689519	0.022998
C55	C	0.038738	0.653095	-0.015389
C56	C	-0.036350	0.649324	-0.019339
C57	C	-0.743186	0.346824	0.036286
C58	C	-0.742932	0.279803	0.032936
C59	C	-0.738488	0.248565	-0.024505
C60	C	-0.734306	0.284347	-0.078605
C61	C	-0.734567	0.351363	-0.075258
C62	C	-0.737251	0.048375	-0.040497
C63	C	-0.736988	-0.018645	-0.043838
C64	C	-0.745616	-0.023185	0.067703
C65	C	-0.745871	0.043835	0.071048
C66	C	-0.741694	0.079609	0.016945
N67	N	-0.738225	0.180060	-0.027928
N68	N	-0.741964	0.148109	0.020365
C69	C	-0.724459	0.672301	-0.205716
C70	C	-0.719155	0.675087	-0.274252
C71	C	-0.740897	0.874250	0.006701
C72	C	-0.741172	0.945576	0.010257
C73	C	-0.799825	0.632676	-0.352463
C74	C	-0.794836	0.635304	-0.416857
C75	C	-0.709176	0.680341	-0.403039
C76	C	-0.628500	0.722758	-0.324820
C77	C	-0.633490	0.720133	-0.260427
C78	C	-0.685334	0.692883	-0.590688
C79	C	-0.680350	0.695503	-0.655088
C80	C	-0.846687	0.608051	-0.747122
C81	C	-0.851669	0.605426	-0.682724
C82	C	-0.770993	0.647846	-0.604510
N83	N	-0.704074	0.683027	-0.468859
N84	N	-0.776096	0.645164	-0.538692
C85	C	-0.755716	0.655878	0.198164
C86	C	-0.761020	0.653091	0.266701
C87	C	-0.519732	0.885229	0.018311
C88	C	-0.444945	0.960282	0.025807
C89	C	-0.534550	0.666857	0.209774
C90	C	-0.464792	0.667797	0.282250
C91	C	-0.535360	0.877018	0.220251
C92	C	-0.465877	0.949284	0.296283
C93	C	-0.944815	0.451161	-0.227802
C94	C	-1.014297	0.378895	-0.303835
C95	C	-0.960443	0.442950	-0.025862
C96	C	-1.035230	0.367897	-0.033358
C97	C	-0.945625	0.661322	-0.217325
C98	C	-1.015382	0.660382	-0.289802
C99	C	-0.406614	0.956093	-0.012158
C100	C	-0.336352	1.026606	-0.005131
C101	C	-0.304419	1.101308	0.039867
C102	C	-0.342757	1.105495	0.077833
C103	C	-0.413022	1.034982	0.070800
C104	C	-0.435244	0.707672	0.357772
C105	C	-0.369710	0.708551	0.425877
C106	C	-0.333720	0.669559	0.418459
C107	C	-0.363275	0.629678	0.342930
C108	C	-0.428813	0.628795	0.274826
C109	C	-0.430354	1.025869	0.294603
C110	C	-0.365077	1.093777	0.366037
C111	C	-0.335320	1.085097	0.439151
C112	C	-0.370850	1.008504	0.440830
C113	C	-0.436130	0.940598	0.369396
C114	C	-1.049829	0.302309	-0.302155
C115	C	-1.115128	0.234401	-0.373590
C116	C	-1.144889	0.243080	-0.446705
C117	C	-1.109354	0.319673	-0.448383
C118	C	-1.044062	0.387580	-0.376949
C119	C	-1.073568	0.372086	0.004600
C120	C	-1.143847	0.301572	-0.002447
C121	C	-1.175783	0.226870	-0.047447
C122	C	-1.137442	0.222683	-0.085409
C123	C	-1.067168	0.293196	-0.078367
C124	C	-1.051351	0.699382	-0.282359
C125	C	-1.116887	0.698515	-0.350451
C126	C	-1.146457	0.658643	-0.425986
C127	C	-1.110481	0.619641	-0.433427
C128	C	-1.044942	0.620514	-0.365336
H129	H	-0.068372	0.749246	0.085810
H130	H	-0.749490	0.069268	0.117821
N131	N	-0.308294	1.186070	0.126377
H132	H	-0.343232	1.178033	0.149368
H133	H	-0.317876	1.216530	0.091002
N134	N	-0.454360	1.039509	0.111751
H135	H	-0.503722	0.983509	0.100471
H136	H	-0.482075	1.068539	0.090981
H137	H	-1.133594	0.326730	-0.507922
N138	N	-1.153444	0.151793	-0.371776
H139	H	-1.184867	0.142913	-0.345164
H140	H	-1.101762	0.147089	-0.340839
H141	H	-0.539841	0.572420	-0.100111
H142	H	-0.336154	1.156136	0.364656
H143	H	-0.731162	0.380493	-0.119309
N144	N	-1.185201	0.306101	0.038491
H145	H	-1.234577	0.250100	0.027196
H146	H	-1.212903	0.335140	0.017719
H147	H	-1.015663	0.588751	-0.371407
N148	N	-1.142380	0.576637	-0.514899
H149	H	-1.189359	0.582004	-0.556900
H150	H	-1.170916	0.518037	-0.525265
N151	N	-1.017751	0.292927	-0.223306
H152	H	-1.032323	0.317141	-0.194178
H153	H	-0.949266	0.321241	-0.189879
H154	H	-0.280356	0.670284	0.473920
N155	N	-0.881862	0.589582	-0.501203
H156	H	-0.918956	0.530539	-0.512098
H157	H	-0.865658	0.598139	-0.539863
H158	H	-1.198055	0.187779	-0.504865
H159	H	-0.333963	0.597932	0.336902
H160	H	-1.233005	0.169460	-0.053174
H161	H	-0.454572	1.032951	0.235076
H162	H	0.059624	0.755677	0.092558
H163	H	-0.452862	0.596326	0.213336
N164	N	-1.019454	0.742406	-0.200895
H165	H	-0.972474	0.737049	-0.158879
H166	H	-1.073692	0.717953	-0.198826
N167	N	-0.264910	1.158343	0.516195
H168	H	-0.246924	1.208174	0.504028
H169	H	-0.208828	1.159954	0.550230
H170	H	-0.346612	1.001449	0.500370
H171	H	-1.199824	0.657938	-0.481425
H172	H	-0.432612	0.895273	-0.048809
H173	H	-0.206773	0.792245	0.131102
N174	N	-0.474051	0.749733	0.365784
H175	H	-0.445382	0.775121	0.423965
H176	H	-0.542770	0.709553	0.335184
H177	H	-0.465045	0.878241	0.370776
N178	N	-1.171878	0.142109	-0.133927
H179	H	-1.239492	0.110565	-0.178801
H180	H	-1.162220	0.111698	-0.098514
H181	H	-0.411845	0.578875	-0.093387
N182	N	-0.747981	0.380506	0.098244
H183	H	-0.804837	0.378476	0.070829
H184	H	-0.691684	0.437928	0.133396
N185	N	-0.337838	0.751569	0.507334
H186	H	-0.370577	0.776142	0.501693
H187	H	-0.269399	0.795184	0.541547
H188	H	-1.015131	0.449938	-0.378326
H189	H	-1.047571	0.432905	0.041248
H190	H	-0.567799	0.754669	-0.196744
N191	N	-0.228633	1.177355	0.047444
H192	H	-0.171853	1.179367	0.072955
H193	H	-0.214291	1.225276	0.081692
N194	N	-0.944059	0.556860	-0.697629
H195	H	-0.994408	0.530394	-0.756948
H196	H	-0.949894	0.593344	-0.670945
N197	N	-0.933697	0.562301	-0.831477
H198	H	-0.917542	0.570796	-0.870175
H199	H	-0.971038	0.582219	-0.838346
N200	N	-0.297697	0.519857	-0.155513
H201	H	-0.308177	0.523762	-0.207341
H202	H	-0.339114	0.526293	-0.148691
N203	N	-1.025821	0.288673	-0.119310
H204	H	-1.056720	0.230648	-0.148882
H205	H	-0.957926	0.316725	-0.078091
N206	N	-1.155679	0.740585	-0.342415
H207	H	-1.127004	0.765968	-0.284231
H208	H	-1.224399	0.700412	-0.373011
H209	H	-0.334780	0.785805	0.124360
N210	N	-0.587961	0.744072	-0.640195
H211	H	-0.552317	0.723263	-0.610839
H212	H	-0.552689	0.802191	-0.606934
N213	N	-0.151040	0.527244	-0.147792
H214	H	-0.219896	0.488329	-0.188723
H215	H	-0.126178	0.497157	-0.123520
H216	H	-0.749018	-0.052319	0.111751
N217	N	-0.747440	0.241214	0.091283
H218	H	-0.805924	0.222153	0.084961
H219	H	-0.692769	0.281655	0.147508
N220	N	-0.732190	-0.052338	-0.105792
H221	H	-0.729585	-0.019507	-0.139559
H222	H	-0.788449	-0.109782	-0.140897
H223	H	-0.733848	0.077497	-0.084548
N224	N	-0.294998	1.022085	-0.046070
H225	H	-0.304307	1.049052	-0.085114
H226	H	-0.325904	0.964045	-0.075587
N227	N	-0.729532	0.250638	-0.140566
H228	H	-0.672678	0.252665	-0.113155
H229	H	-0.726966	0.283486	-0.174319
N230	N	-0.892216	0.584096	-0.367371
H231	H	-0.942562	0.557630	-0.426690
H232	H	-0.898062	0.620572	-0.340689
H233	H	-0.619642	0.727425	-0.527011
H234	H	-0.558753	0.759432	-0.313573
