data_functionalizedCrystal
_audit_creation_method	'MofGen! by Chris Wilmer'
_symmetry_space_group_name_H-M	'P1'
_symmetry_Int_Tables_number	1
_symmetry_cell_setting	triclinic
loop_
_symmetry_equiv_pos_as_xyz
  x,y,z
_cell_length_a	14.853566
_cell_length_b	10.540510
_cell_length_c	13.930277
_cell_angle_alpha	89.997952
_cell_angle_beta	89.995631
_cell_angle_gamma	84.073862
loop_
_atom_site_label
_atom_site_type_symbol
_atom_site_fract_x
_atom_site_fract_y
_atom_site_fract_z
O1	O	1.197276	0.165722	-0.079762
O2	O	0.934925	0.185466	-0.079777
O3	O	1.072100	-0.009181	-0.079769
O4	O	1.060101	0.360369	-0.079770
O5	O	1.072080	-0.009185	0.079893
O6	O	0.934905	0.185462	0.079885
O7	O	1.197257	0.165718	0.079900
Zn8	Zn	1.066078	0.175589	0.105242
Zn9	Zn	1.066103	0.175595	-0.105119
O10	O	1.060082	0.360365	0.079891
C11	C	0.901321	0.184570	0.000052
C12	C	0.801223	0.181890	0.000046
C13	C	1.071196	-0.056477	0.000060
C14	C	1.068521	-0.197397	0.000054
C15	C	0.377986	0.170556	-0.086969
C16	C	0.377987	0.170553	0.087100
C17	C	0.472035	0.173069	0.087097
C18	C	0.519063	0.174332	0.000060
C19	C	0.472043	0.173077	-0.086975
C20	C	0.519061	0.174337	0.174130
C21	C	0.613114	0.176855	0.174131
C22	C	0.660144	0.178108	0.087092
C23	C	0.613119	0.176852	0.000054
C24	C	0.660147	0.178115	-0.086983
C25	C	0.613124	0.176849	-0.174022
C26	C	0.519073	0.174330	-0.174013
C27	C	0.754195	0.180627	0.087083
C28	C	0.754203	0.180635	-0.086989
C29	C	1.163816	-0.415902	0.000425
C30	C	1.166669	-0.269338	0.000061
C31	C	1.018289	-0.241600	-0.091122
C32	C	1.016131	-0.388338	-0.091193
C33	C	1.014065	-0.388128	0.090372
C34	C	1.018720	-0.241838	0.091572
C35	C	1.230860	0.166614	0.000069
C36	C	1.330959	0.169294	0.000068
C37	C	1.060985	0.407661	0.000060
C38	C	1.063661	0.548581	0.000060
N39	N	1.066067	0.175585	0.248808
N40	N	1.066121	0.175589	-0.248685
C41	C	1.005360	0.261751	0.701074
C42	C	1.126872	0.089429	0.701050
C43	C	1.126861	0.089425	0.600555
C44	C	1.066100	0.175586	0.550314
C45	C	1.005349	0.261752	0.600569
C46	C	1.187617	0.003270	0.550292
C47	C	1.187609	0.003263	0.449790
C48	C	1.126843	0.089420	0.399548
C49	C	1.066089	0.175588	0.449809
C50	C	1.005327	0.261749	0.399568
C51	C	0.944568	0.347912	0.449827
C52	C	0.944582	0.347908	0.550326
C53	C	1.126829	0.089423	0.299049
C54	C	1.005317	0.261750	0.299063
H55	H	0.792487	0.181659	-0.157867
C56	C	1.219775	-0.230278	0.088342
H57	H	1.239799	-0.304049	0.124751
H58	H	1.181676	-0.173050	0.126917
H59	H	1.270635	-0.189661	0.067816
C60	C	1.065432	-0.200449	-0.182784
H61	H	1.034533	-0.227633	-0.237577
H62	H	1.126352	-0.238115	-0.183599
H63	H	1.064482	-0.110201	-0.183731
H64	H	0.339697	0.169521	-0.157834
C65	C	1.220084	-0.231538	-0.088383
H66	H	1.240114	-0.305800	-0.124235
H67	H	1.270936	-0.190777	-0.068056
H68	H	1.182142	-0.174730	-0.127439
C69	C	0.326274	0.168997	0.182833
H70	H	0.263531	0.167259	0.170371
H71	H	0.335243	0.243318	0.218679
H72	H	0.348138	0.095381	0.218508
H73	H	0.895115	0.418060	0.591253
C74	C	1.055956	-0.445916	0.183734
H75	H	1.025051	-0.406409	0.237355
H76	H	1.118089	-0.432071	0.186538
H77	H	1.050562	-0.534929	0.184910
H78	H	1.202046	-0.458279	0.065812
C79	C	0.805919	0.181987	0.182813
H80	H	0.764442	0.180862	0.234650
H81	H	0.836217	0.256923	0.186441
H82	H	0.849003	0.108983	0.186417
H83	H	0.480779	0.173299	-0.244876
C84	C	0.467368	0.172521	0.269861
H85	H	0.404633	0.170693	0.257397
H86	H	0.476269	0.246766	0.305830
H87	H	0.489312	0.098834	0.305414
H88	H	0.651425	0.177886	-0.244888
H89	H	0.651392	0.177883	0.245004
H90	H	1.050475	-0.428929	-0.159344
C91	C	1.254444	-0.091508	0.605552
H92	H	1.290631	-0.142816	0.561228
H93	H	1.221678	-0.144431	0.644760
H94	H	1.292266	-0.045745	0.644753
H95	H	1.237081	-0.066896	0.408876
H96	H	1.176302	0.019277	0.258132
H97	H	0.955888	0.331900	0.741997
C98	C	0.938479	0.356532	0.243805
H99	H	0.902303	0.407848	0.288133
H100	H	0.900661	0.310776	0.204604
H101	H	0.971246	0.409467	0.204599
H102	H	1.201841	-0.459824	-0.064587
C103	C	0.916969	-0.418319	-0.096817
H104	H	0.878181	-0.340848	-0.099054
H105	H	0.902952	-0.465861	-0.041845
H106	H	0.908595	-0.466726	-0.153046
C107	C	0.920683	-0.176502	-0.095726
H108	H	0.891553	-0.204581	-0.151389
H109	H	0.921806	-0.086629	-0.098463
H110	H	0.888469	-0.198154	-0.040168
C111	C	1.068085	-0.203722	0.182696
H112	H	1.118832	-0.160896	0.165051
H113	H	1.087973	-0.278071	0.218500
H114	H	1.027906	-0.148653	0.220746
C115	C	0.921921	-0.174483	0.099015
H116	H	0.910558	-0.118135	0.046164
H117	H	0.915746	-0.127407	0.157207
H118	H	0.879735	-0.236359	0.098244
C119	C	1.193704	-0.005339	0.756312
H120	H	1.185006	0.006997	0.823364
H121	H	1.253956	0.008595	0.739828
H122	H	1.183367	-0.090089	0.739850
H123	H	0.940374	-0.409467	0.090982
C124	C	0.877736	0.442690	0.394560
H125	H	0.841555	0.494012	0.438880
H126	H	0.839922	0.396930	0.355357
H127	H	0.910508	0.495620	0.355354
