data_functionalizedCrystal
_audit_creation_method	'MofGen! by Chris Wilmer'
_symmetry_space_group_name_H-M	'P1'
_symmetry_Int_Tables_number	1
_symmetry_cell_setting	triclinic
loop_
_symmetry_equiv_pos_as_xyz
  x,y,z
_cell_length_a	17.019383
_cell_length_b	17.038272
_cell_length_c	9.730217
_cell_angle_alpha	89.996329
_cell_angle_beta	86.122618
_cell_angle_gamma	87.246883
loop_
_atom_site_label
_atom_site_type_symbol
_atom_site_fract_x
_atom_site_fract_y
_atom_site_fract_z
O1	O	1.053347	0.099656	-0.238834
O2	O	0.824537	0.112345	-0.211784
O3	O	0.937582	-0.007814	-0.225137
O4	O	0.940302	0.219815	-0.225481
O5	O	0.937578	-0.007815	0.003443
O6	O	0.824533	0.112344	0.016797
O7	O	1.053343	0.099655	-0.010254
Zn8	Zn	0.938938	0.105999	0.039564
Zn9	Zn	0.938943	0.106001	-0.261601
O10	O	0.940298	0.219814	0.003100
C11	C	0.795114	0.111861	-0.094015
C12	C	0.707448	0.110412	-0.083651
C13	C	0.666257	0.109734	-0.203371
C14	C	0.583885	0.108385	-0.193612
C15	C	0.542705	0.107708	-0.064132
C16	C	0.583902	0.108389	0.055597
C17	C	0.666272	0.109744	0.045837
C18	C	0.293999	0.103623	-0.028430
C19	C	0.211623	0.102266	-0.018679
C20	C	0.211612	0.102263	-0.267889
C21	C	0.293984	0.103613	-0.277637
C22	C	0.335173	0.104298	-0.157908
C23	C	0.458507	0.106327	-0.054154
C24	C	0.419369	0.105685	-0.167888
C25	C	0.935107	-0.036941	-0.110555
C26	C	0.927726	-0.123728	-0.109683
C27	C	0.995486	-0.173896	-0.117692
C28	C	0.988546	-0.255441	-0.116885
C29	C	0.913847	-0.286816	-0.108058
C30	C	0.846083	-0.236641	-0.100052
C31	C	0.853023	-0.155097	-0.100870
C32	C	0.889330	-0.532554	-0.105178
C33	C	0.882395	-0.614104	-0.104358
C34	C	1.024859	-0.632899	-0.121192
C35	C	1.031792	-0.551353	-0.122001
C36	C	0.964028	-0.501185	-0.114002
C37	C	0.906752	-0.370168	-0.107228
C38	C	0.971123	-0.417835	-0.114842
C39	C	1.082766	0.100139	-0.128025
C40	C	1.170432	0.101588	-0.138399
C41	C	0.942774	0.248940	-0.111486
C42	C	0.950154	0.335727	-0.112367
N43	N	0.938940	0.105998	0.245100
N44	N	0.938946	0.105996	-0.467138
C45	C	1.039087	-0.000372	0.233261
C46	C	1.089166	-0.053555	0.299280
C47	C	1.089174	-0.053555	0.443159
C48	C	1.039096	-0.000369	0.521022
C49	C	0.989017	0.052814	0.455003
C50	C	0.989016	0.052810	0.311120
C51	C	0.888867	0.159179	0.466842
C52	C	0.888862	0.159184	0.322963
C53	C	0.838789	0.212365	0.544706
C54	C	0.788713	0.265553	0.478686
C55	C	0.788708	0.265552	0.334798
C56	C	0.838783	0.212367	0.256944
H57	H	0.550366	0.107843	0.161022
Cl58	Cl	0.838794	0.212362	0.725584
Cl59	Cl	0.718055	0.110600	0.196348
Cl60	Cl	0.406732	0.105475	0.108616
H61	H	0.178095	0.101738	0.086765
H62	H	0.845932	-0.395722	-0.100039
H63	H	0.747939	0.308850	0.542091
Cl64	Cl	0.471139	0.106538	-0.330656
H65	H	0.178067	0.101708	-0.365365
Cl66	Cl	1.073734	-0.318508	-0.126950
H67	H	1.056314	-0.148358	-0.124871
Cl68	Cl	1.125704	-0.511917	-0.133142
H69	H	1.080029	-0.673754	-0.127707
H70	H	0.327526	0.104176	0.069062
H71	H	0.834151	-0.491717	-0.098665
H72	H	1.129949	-0.096864	0.496912
Cl73	Cl	1.152116	-0.120418	0.201393
H74	H	1.031943	-0.392286	-0.122059
H75	H	0.785261	-0.262192	-0.092874
Cl76	Cl	0.532105	0.107533	-0.344125
Cl77	Cl	0.838784	0.212363	0.076065
Cl78	Cl	1.039096	-0.000380	0.701901
H79	H	0.747924	0.308856	0.281053
Cl80	Cl	0.345747	0.104459	-0.440419
Cl81	Cl	1.039093	-0.000367	0.052381
Cl82	Cl	0.718018	0.110579	-0.366154
Cl83	Cl	0.788480	-0.653544	-0.093252
Cl84	Cl	0.767836	-0.092027	-0.090806
