data_functionalizedCrystal
_audit_creation_method	'MofGen! by Chris Wilmer'
_symmetry_space_group_name_H-M	'P1'
_symmetry_Int_Tables_number	1
_symmetry_cell_setting	triclinic
loop_
_symmetry_equiv_pos_as_xyz
  x,y,z
_cell_length_a	19.288867
_cell_length_b	16.176319
_cell_length_c	19.288857
_cell_angle_alpha	90.008960
_cell_angle_beta	83.135089
_cell_angle_gamma	90.005931
loop_
_atom_site_label
_atom_site_type_symbol
_atom_site_fract_x
_atom_site_fract_y
_atom_site_fract_z
O1	O	0.921348	0.068721	0.086656
O2	O	1.421348	0.568721	0.586656
O3	O	0.719087	0.068730	0.098344
O4	O	1.219087	0.568730	0.598344
O5	O	0.826064	0.068716	-0.008631
O6	O	1.326064	0.568716	0.491369
O7	O	0.814370	0.068736	0.193631
O8	O	1.314370	0.568736	0.693631
O9	O	0.826050	-0.068778	-0.008637
O10	O	1.326050	0.431222	0.491363
O11	O	0.719072	-0.068763	0.098337
O12	O	1.219072	0.431237	0.598337
O13	O	0.921333	-0.068772	0.086650
O14	O	1.421333	0.431228	0.586650
Cu15	Cu	0.820201	-0.081322	0.092493
Cu16	Cu	1.320201	0.418678	0.592493
Cu17	Cu	0.820219	0.081280	0.092501
Cu18	Cu	1.320219	0.581280	0.592501
O19	O	0.814355	-0.068757	0.193624
O20	O	1.314355	0.431243	0.693624
C21	C	0.693203	-0.000016	0.097964
C22	C	1.193203	0.499984	0.597964
C23	C	0.616100	-0.000013	0.096834
C24	C	1.116100	0.499987	0.596834
C25	C	0.060543	0.074924	0.088702
C26	C	0.560543	0.574924	0.588702
C27	C	0.132990	0.074928	0.089759
C28	C	0.632990	0.574928	0.589759
C29	C	0.169211	-0.000020	0.090287
C30	C	0.669211	0.499980	0.590287
C31	C	0.132980	-0.074976	0.089740
C32	C	0.632980	0.425024	0.589740
C33	C	0.060535	-0.074977	0.088676
C34	C	0.560535	0.425023	0.588676
C35	C	0.278531	-0.057435	0.132652
C36	C	0.778531	0.442565	0.632652
C37	C	0.350974	-0.057431	0.133721
C38	C	0.850974	0.442569	0.633721
C39	C	0.392656	-0.000020	0.093566
C40	C	0.892656	0.499980	0.593566
C41	C	0.361885	0.057401	0.052352
C42	C	0.861885	0.557401	0.552352
C43	C	0.289440	0.057400	0.051288
C44	C	0.789440	0.557400	0.551288
C45	C	0.247765	-0.000027	0.091441
C46	C	0.747765	0.499973	0.591441
C47	C	0.507435	0.074935	0.095255
C48	C	1.007435	0.574935	0.595255
C49	C	0.579884	0.074935	0.096308
C50	C	1.079884	0.574935	0.596308
C51	C	0.579872	-0.074970	0.096296
C52	C	1.079872	0.425030	0.596296
C53	C	0.507425	-0.074968	0.095236
C54	C	1.007425	0.425032	0.595236
C55	C	0.471210	-0.000013	0.094719
C56	C	0.971210	0.499987	0.594719
N57	N	0.820194	-0.195687	0.092487
N58	N	1.320194	0.304313	0.592487
C59	C	0.867578	-0.238957	0.045138
C60	C	1.367578	0.261043	0.545138
C61	C	0.867582	-0.325505	0.045137
C62	C	1.367582	0.174495	0.545137
C63	C	0.820204	-0.368779	0.092489
C64	C	1.320204	0.131221	0.592489
C65	C	0.772815	-0.325503	0.139840
C66	C	1.272815	0.174497	0.639840
C67	C	0.772809	-0.238957	0.139837
C68	C	1.272809	0.261043	0.639837
C69	C	0.772839	-0.674531	0.139853
C70	C	1.272839	-0.174531	0.639853
C71	C	0.772850	-0.761083	0.139854
C72	C	1.272850	-0.261083	0.639854
C73	C	0.867612	-0.761078	0.045153
C74	C	1.367612	-0.261078	0.545153
C75	C	0.867605	-0.674533	0.045150
C76	C	1.367605	-0.174533	0.545150
C77	C	0.820214	-0.631264	0.092498
C78	C	1.320214	-0.131264	0.592498
C79	C	0.820210	-0.537420	0.092498
C80	C	1.320210	-0.037420	0.592498
C81	C	0.820211	-0.462622	0.092493
C82	C	1.320211	0.037378	0.592493
C83	C	0.947217	-0.000024	0.087029
C84	C	1.447217	0.499976	0.587029
C85	C	1.024320	-0.000022	0.088159
C86	C	1.524320	0.499978	0.588159
C87	C	0.825682	-0.000032	-0.034511
C88	C	1.325682	0.499968	0.465489
C89	C	0.824555	-0.000034	-0.111614
C90	C	1.324555	0.499966	0.388386
N91	N	0.820231	0.195645	0.092501
N92	N	1.320231	0.695645	0.592501
C93	C	0.824037	0.074914	-0.147821
C94	C	1.324037	0.574914	0.352179
C95	C	0.822968	0.074920	-0.220267
C96	C	1.322968	0.574920	0.279733
C97	C	0.822431	-0.000026	-0.256506
C98	C	1.322431	0.499974	0.243494
C99	C	0.822946	-0.074984	-0.220289
C100	C	1.322946	0.425016	0.279711
C101	C	0.824007	-0.074988	-0.147844
C102	C	1.324007	0.425012	0.352156
C103	C	0.861427	-0.057441	-0.376740
C104	C	1.361427	0.442559	0.123260
C105	C	0.860370	-0.057433	-0.449184
C106	C	1.360370	0.442567	0.050816
C107	C	0.819154	-0.000017	-0.479951
C108	C	1.319154	0.499983	0.020049
C109	C	0.779004	0.057407	-0.438266
C110	C	1.279004	0.557407	0.061734
C111	C	0.780066	0.057403	-0.365820
C112	C	1.280066	0.557403	0.134180
C113	C	0.821280	-0.000030	-0.335061
C114	C	1.321280	0.499970	0.164939
C115	C	0.817476	0.074943	-0.594712
C116	C	1.317476	0.574943	-0.094712
C117	C	0.816403	0.074946	-0.667159
C118	C	1.316403	0.574946	-0.167159
C119	C	0.816387	-0.074959	-0.667181
C120	C	1.316387	0.425041	-0.167181
C121	C	0.817453	-0.074960	-0.594734
C122	C	1.317453	0.425040	-0.094734
C123	C	0.818001	-0.000007	-0.558505
C124	C	1.318001	0.499993	-0.058505
C125	C	0.814738	-0.000008	0.219504
C126	C	1.314738	0.499992	0.719504
C127	C	0.815865	-0.000000	0.296608
C128	C	1.315865	0.500000	0.796608
H129	H	0.031043	-0.136009	0.088237
H130	H	0.531043	0.363991	0.588237
C131	C	0.822357	-0.157422	-0.260148
C132	C	1.322357	0.342578	0.239852
H133	H	0.821657	-0.146686	-0.308481
H134	H	1.321657	0.353314	0.191519
H135	H	0.782031	-0.188216	-0.242858
H136	H	1.282031	0.311784	0.257142
H137	H	0.863028	-0.188219	-0.253704
H138	H	1.363028	0.311781	0.246296
C139	C	0.735898	0.120555	-0.319968
C140	C	1.235898	0.620555	0.180032
H141	H	0.711194	0.154750	-0.348662
H142	H	1.211194	0.654750	0.151338
H143	H	0.765644	0.153758	-0.295627
H144	H	1.265644	0.653758	0.204373
H145	H	0.703594	0.092112	-0.287333
H146	H	1.203594	0.592112	0.212667
H147	H	0.162487	0.135960	0.090205
H148	H	0.662487	0.635960	0.590205
C149	C	0.720731	-0.808688	0.191939
C150	C	1.220731	-0.308688	0.691939
H151	H	0.727529	-0.866428	0.185163
H152	H	1.227529	-0.366428	0.685163
H153	H	0.674400	-0.794522	0.184510
H154	H	1.174400	-0.294522	0.684510
H155	H	0.728123	-0.794491	0.238281
H156	H	1.228123	-0.294491	0.738281
H157	H	0.824426	-0.136021	-0.118364
H158	H	1.324426	0.363979	0.381636
H159	H	0.264389	0.104153	0.017729
H160	H	0.764389	0.604153	0.517729
H161	H	0.734253	-0.639308	0.178407
H162	H	1.234253	-0.139308	0.678407
C163	C	0.619706	-0.157411	0.096876
C164	C	1.119706	0.342589	0.596876
H165	H	0.668039	-0.146678	0.097591
H166	H	1.168039	0.353322	0.597591
H167	H	0.613255	-0.188210	0.056204
H168	H	1.113255	0.311790	0.556204
H169	H	0.602405	-0.188202	0.137201
H170	H	1.102405	0.311798	0.637201
H171	H	0.817918	0.135975	-0.565212
H172	H	1.317918	0.635975	-0.065212
H173	H	0.734223	-0.203727	0.178393
H174	H	1.234223	0.296273	0.678393
C175	C	0.407726	0.120558	0.008181
C176	C	0.907726	0.620558	0.508181
H177	H	0.455279	0.112331	0.014710
H178	H	0.955279	0.612331	0.514710
H179	H	0.393941	0.174968	0.022316
H180	H	0.893941	0.674968	0.522316
H181	H	0.402246	0.113324	-0.039738
H182	H	0.902246	0.613324	0.460262
C183	C	0.720702	-0.373103	0.191928
C184	C	1.220702	0.126897	0.691928
H185	H	0.727496	-0.430844	0.185154
H186	H	1.227496	0.069156	0.685154
H187	H	0.674370	-0.358934	0.184503
H188	H	1.174370	0.141066	0.684503
H189	H	0.728101	-0.358903	0.238267
H190	H	1.228101	0.141097	0.738267
C191	C	0.919698	-0.191359	-0.006944
C192	C	1.419698	0.308641	0.493056
H193	H	0.912915	-0.133617	-0.000160
H194	H	1.412915	0.366383	0.499840
H195	H	0.912310	-0.205553	-0.053284
H196	H	1.412310	0.294447	0.446716
H197	H	0.966029	-0.205534	0.000492
H198	H	1.466029	0.294466	0.500492
H199	H	0.815978	0.135980	-0.696637
H200	H	1.315978	0.635980	-0.196637
H201	H	0.906164	-0.360735	0.006581
H202	H	1.406164	0.139265	0.506581
C203	C	0.919735	-0.808676	-0.006937
C204	C	1.419735	-0.308676	0.493063
H205	H	0.912950	-0.866418	-0.000162
H206	H	1.412950	-0.366418	0.499838
H207	H	0.966063	-0.794481	0.000489
H208	H	1.466063	-0.294481	0.500489
H209	H	0.912335	-0.794502	-0.053278
H210	H	1.412335	-0.294502	0.446722
H211	H	0.815945	-0.135982	-0.696684
H212	H	1.315945	0.364018	-0.196684
H213	H	0.477947	0.135968	0.094831
H214	H	0.977947	0.635968	0.594831
C215	C	0.919718	-0.626935	-0.006939
C216	C	1.419718	-0.126935	0.493061
H217	H	0.947935	-0.665101	-0.035144
H218	H	1.447935	-0.165101	0.464856
H219	H	0.948548	-0.593158	0.017970
H220	H	1.448548	-0.093158	0.517970
H221	H	0.894816	-0.593190	-0.035793
H222	H	1.394816	-0.093190	0.464207
H223	H	0.817881	-0.135991	-0.565255
H224	H	1.317881	0.364009	-0.065255
H225	H	0.822542	0.135953	-0.249752
H226	H	1.322542	0.635953	0.250248
C227	C	0.619729	0.157380	0.096905
C228	C	1.119729	0.657380	0.596905
H229	H	0.587781	0.202017	0.096451
H230	H	1.087781	0.702017	0.596451
H231	H	0.653415	0.160501	0.056824
H232	H	1.153415	0.660501	0.556824
H233	H	0.642564	0.160492	0.137821
H234	H	1.142564	0.660492	0.637821
H235	H	0.824481	0.135947	-0.118328
H236	H	1.324481	0.635947	0.381672
H237	H	0.745443	0.104162	-0.463314
H238	H	1.245443	0.604162	0.036686
C239	C	0.904530	-0.120596	-0.495031
C240	C	1.404530	0.379404	0.004969
H241	H	0.929219	-0.154802	-0.466332
H242	H	1.429219	0.345198	0.033668
H243	H	0.936837	-0.092170	-0.527670
H244	H	1.436837	0.407830	-0.027670
H245	H	0.874774	-0.153797	-0.519367
H246	H	1.374774	0.346203	-0.019367
C247	C	0.906766	-0.120604	-0.342903
C248	C	1.406766	0.379396	0.157097
H249	H	0.930532	-0.154793	-0.378104
H250	H	1.430532	0.345207	0.121896
H251	H	0.877847	-0.153811	-0.310718
H252	H	1.377847	0.346189	0.189282
H253	H	0.939901	-0.092170	-0.319021
H254	H	1.439901	0.407830	0.180979
H255	H	0.477932	-0.135997	0.094796
H256	H	0.977932	0.364003	0.594796
C257	C	0.020713	0.157371	0.088115
C258	C	0.520713	0.657371	0.588115
H259	H	0.052667	0.202007	0.088581
H260	H	0.552667	0.702007	0.588581
H261	H	-0.012979	0.160498	0.128191
H262	H	0.487021	0.660498	0.628191
H263	H	-0.002114	0.160478	0.047194
H264	H	0.497886	0.660478	0.547194
H265	H	0.244599	-0.104195	0.165347
H266	H	0.744599	0.395805	0.665347
C267	C	0.384819	-0.120586	0.179054
C268	C	0.884819	0.379414	0.679054
H269	H	0.433933	-0.112357	0.173945
H270	H	0.933933	0.387643	0.673945
H271	H	0.374862	-0.174997	0.164568
H272	H	0.874862	0.325003	0.664568
H273	H	0.366548	-0.113355	0.226624
H274	H	0.866548	0.386645	0.726624
C275	C	0.172819	-0.157415	0.090324
C276	C	0.672819	0.342585	0.590324
H277	H	0.221152	-0.146681	0.091043
H278	H	0.721152	0.353319	0.591043
H279	H	0.166372	-0.188215	0.049651
H280	H	0.666372	0.311785	0.549651
H281	H	0.155516	-0.188207	0.130648
H282	H	0.655516	0.311793	0.630648
