data_functionalizedCrystal
_audit_creation_method	'MofGen! by Chris Wilmer'
_symmetry_space_group_name_H-M	'P1'
_symmetry_Int_Tables_number	1
_symmetry_cell_setting	triclinic
loop_
_symmetry_equiv_pos_as_xyz
  x,y,z
_cell_length_a	27.732048
_cell_length_b	15.995350
_cell_length_c	14.472310
_cell_angle_alpha	89.998838
_cell_angle_beta	90.007492
_cell_angle_gamma	83.067515
loop_
_atom_site_label
_atom_site_type_symbol
_atom_site_fract_x
_atom_site_fract_y
_atom_site_fract_z
O1	O	-0.641363	-0.099622	-0.076718
O2	O	-0.500635	-0.114770	-0.076745
O3	O	-0.574846	0.014741	-0.076730
O4	O	-0.567152	-0.229134	-0.076733
O5	O	-0.574827	0.014733	0.076952
O6	O	-0.500616	-0.114778	0.076937
O7	O	-0.641344	-0.099630	0.076964
Cu8	Cu	-0.570978	-0.107205	0.090983
Cu9	Cu	-0.571001	-0.107196	-0.090764
O10	O	-0.567133	-0.229141	0.076949
C11	C	-0.482617	-0.114456	0.000092
C12	C	-0.428958	-0.113499	0.000082
N13	N	-0.570966	-0.107210	0.218814
C14	C	-0.659362	-0.099944	0.000125
C15	C	-0.713021	-0.100901	0.000129
C16	C	-0.090447	-0.184004	0.000121
C17	C	0.111228	-0.180451	0.000129
O18	O	0.142205	-0.244923	0.000168
N19	N	0.130683	-0.103656	0.000128
C20	C	0.099715	-0.027744	0.000132
O21	O	0.120891	0.037657	0.000141
C22	C	-0.101958	-0.031297	0.000130
C23	C	-0.121410	-0.108097	0.000121
C24	C	-0.109900	-0.260797	0.000113
C25	C	-0.160315	-0.261685	0.000106
C26	C	-0.191279	-0.185778	0.000107
C27	C	-0.171826	-0.108985	0.000114
C28	C	-0.132925	0.044614	0.000140
C29	C	-0.183346	0.043719	0.000142
C30	C	-0.202798	-0.033081	0.000133
C31	C	-0.253205	-0.033965	0.000108
N32	N	-0.272660	-0.110761	0.000108
C33	C	-0.241697	-0.186667	0.000108
C34	C	0.205598	-0.025883	0.000131
C35	C	0.256016	-0.024995	0.000130
C36	C	0.267525	-0.177703	0.000129
C37	C	0.217106	-0.178590	0.000123
C38	C	0.186143	-0.102679	0.000132
C39	C	-0.347574	-0.188525	0.000092
C40	C	-0.397995	-0.189405	0.000081
C41	C	-0.409499	-0.036698	0.000087
C42	C	-0.359083	-0.035817	0.000093
C43	C	-0.328121	-0.111737	0.000099
O44	O	-0.284211	0.030472	0.000079
O45	O	-0.262881	-0.252058	0.000119
C46	C	-0.040031	-0.183116	0.000128
C47	C	-0.020579	-0.106323	0.000136
C48	C	-0.051542	-0.030416	0.000136
C49	C	0.029839	-0.105434	0.000134
C50	C	0.060803	-0.181340	0.000134
C51	C	0.041348	-0.258135	0.000134
C52	C	-0.009068	-0.259023	0.000127
C53	C	-0.032087	0.046379	0.000136
C54	C	0.018329	0.047260	0.000142
C55	C	0.049292	-0.028646	0.000141
C56	C	-0.574518	0.045928	0.000109
C57	C	-0.573565	0.138866	0.000104
C58	C	-0.567461	-0.260328	0.000108
C59	C	-0.568414	-0.353266	0.000107
C60	C	-0.570140	0.476569	0.000106
C61	C	-0.517289	0.428451	-0.000249
C62	C	-0.518242	0.331773	0.000098
C63	C	-0.571839	0.309031	0.000105
C64	C	-0.597896	0.350441	0.087868
C65	C	-0.596569	0.447060	0.087941
C66	C	-0.597682	0.447441	-0.086824
C67	C	-0.597670	0.350495	-0.087984
C68	C	-0.572802	0.214346	0.000107
C69	C	-0.569179	0.571255	0.000110
N70	N	-0.571017	-0.107183	-0.218595
C71	C	-0.571000	-0.107192	0.592905
C72	C	-0.531158	-0.176262	0.553731
C73	C	-0.531250	-0.176511	0.446643
C74	C	-0.570983	-0.107201	0.407314
C75	C	-0.621417	-0.125630	0.446161
C76	C	-0.621193	-0.126121	0.553282
C77	C	-0.560858	-0.019484	0.553433
C78	C	-0.559701	-0.020084	0.446305
C79	C	-0.570976	-0.107205	0.302426
C80	C	-0.571010	-0.107190	0.697793
H81	H	-0.413829	-0.251948	0.000073
N82	N	-0.539620	-0.262014	0.589362
H83	H	-0.513872	-0.306015	0.563868
H84	H	-0.537939	-0.262280	0.659074
H85	H	-0.578618	0.323003	-0.152909
N86	N	-0.649444	0.330824	-0.095003
H87	H	-0.656923	0.294596	-0.040938
H88	H	-0.672244	0.385058	-0.094247
N89	N	-0.661634	-0.060743	0.412414
H90	H	-0.678353	-0.030540	0.467070
H91	H	-0.647480	-0.018725	0.371506
N92	N	-0.571377	0.470973	0.174833
H93	H	-0.537180	0.440987	0.176310
H94	H	-0.570299	0.533856	0.175701
N95	N	-0.633539	-0.209365	0.410627
H96	H	-0.666055	-0.220660	0.436009
H97	H	-0.634981	-0.207952	0.340906
N98	N	-0.649299	0.490174	-0.087606
H99	H	-0.654837	0.528220	-0.031955
H100	H	-0.655079	0.524694	-0.145863
H101	H	-0.579782	0.321822	0.153174
N102	N	0.196124	-0.261421	0.000126
H103	H	0.175458	-0.265194	-0.056842
H104	H	0.223420	-0.309322	0.000159
N105	N	-0.181290	-0.344521	0.000119
H106	H	-0.217929	-0.333578	0.000120
H107	H	-0.169966	-0.377709	-0.056849
N108	N	-0.661646	-0.061970	0.587588
H109	H	-0.684967	-0.091035	0.626246
H110	H	-0.647499	-0.018400	0.626335
N111	N	-0.650055	0.332417	0.092226
H112	H	-0.672346	0.387227	0.091369
H113	H	-0.657277	0.297123	0.037211
N114	N	-0.513193	0.004197	0.589247
H115	H	-0.497691	-0.041696	0.631428
H116	H	-0.490805	0.011321	0.535530
N117	N	-0.481337	-0.162106	0.587880
H118	H	-0.473689	-0.104915	0.566988
H119	H	-0.480665	-0.164855	0.657595
H120	H	-0.322370	-0.250346	0.000100
H121	H	-0.084694	-0.322613	0.000116
H122	H	-0.522601	-0.006083	0.420916
H123	H	0.180391	0.035937	0.000138
N124	N	-0.338093	0.047009	0.000094
H125	H	-0.349383	0.080240	-0.056877
H126	H	-0.349389	0.080165	0.057101
N127	N	0.300926	-0.259575	0.000126
H128	H	0.335816	-0.247351	0.000127
H129	H	0.294632	-0.293071	0.057102
H130	H	-0.580411	0.467760	-0.153343
H131	H	-0.537727	-0.241612	0.421009
N132	N	-0.481593	-0.162098	0.411845
H133	H	-0.459447	-0.155527	0.466093
H134	H	-0.467704	-0.211816	0.373181
N135	N	-0.633032	-0.210820	0.586377
H136	H	-0.638346	-0.247487	0.531379
H137	H	-0.605176	-0.238702	0.624702
H138	H	-0.434719	0.025103	0.000084
H139	H	0.271849	0.037543	0.000122
N140	N	-0.595645	0.051127	0.410864
H141	H	-0.619860	0.027821	0.368843
H142	H	-0.613298	0.080996	0.464762
H143	H	-0.117096	0.107153	0.000148
H144	H	-0.589913	0.031908	0.578765
N145	N	-0.216738	0.125601	0.000155
H146	H	-0.210482	0.159141	-0.056811
H147	H	-0.251617	0.113324	0.000187
N148	N	-0.030045	-0.341857	0.000112
H149	H	-0.002773	-0.389802	0.000111
H150	H	-0.050710	-0.345565	0.057080
N151	N	-0.647963	0.490445	0.093255
H152	H	-0.647502	0.553487	0.093349
H153	H	-0.666991	0.473835	0.038097
N154	N	0.074749	-0.340007	0.000128
H155	H	0.109639	-0.327783	0.000133
H156	H	0.068455	-0.373508	0.057099
H157	H	0.034161	0.109804	0.000141
H158	H	-0.057293	0.108193	0.000138
N159	N	-0.491115	0.293768	-0.083238
H160	H	-0.462984	0.252049	-0.062292
H161	H	-0.513797	0.264029	-0.122687
N162	N	-0.489310	0.452639	-0.083608
H163	H	-0.506534	0.437857	-0.141784
H164	H	-0.487156	0.515210	-0.082311
N165	N	-0.489417	0.454033	0.082641
H166	H	-0.510877	0.496655	0.120421
H167	H	-0.478872	0.402784	0.121757
H168	H	-0.497605	0.303639	0.063110
