data_functionalizedCrystal
_audit_creation_method	'MofGen! by Chris Wilmer'
_symmetry_space_group_name_H-M	'P1'
_symmetry_Int_Tables_number	1
_symmetry_cell_setting	triclinic
loop_
_symmetry_equiv_pos_as_xyz
  x,y,z
_cell_length_a	16.109302
_cell_length_b	10.654545
_cell_length_c	15.186229
_cell_angle_alpha	90.001401
_cell_angle_beta	90.005299
_cell_angle_gamma	83.973604
loop_
_atom_site_label
_atom_site_type_symbol
_atom_site_fract_x
_atom_site_fract_y
_atom_site_fract_z
O1	O	1.104090	0.161423	0.073264
O2	O	0.862148	0.181511	0.073256
O3	O	0.988681	-0.011348	0.073259
O4	O	0.977557	0.354282	0.073260
O5	O	0.988673	-0.011350	-0.073198
O6	O	0.862140	0.181508	-0.073201
O7	O	1.104082	0.161421	-0.073194
Zn8	Zn	0.983109	0.171464	-0.096451
Zn9	Zn	0.983121	0.171467	0.096513
O10	O	0.977549	0.354279	-0.073197
C11	C	0.831164	0.180695	0.000027
C12	C	0.738854	0.178255	0.000024
C13	C	0.526475	0.172612	-0.079801
C14	C	0.439741	0.170306	-0.079798
C15	C	0.439761	0.170315	0.079878
C16	C	0.526494	0.172612	0.079874
C17	C	0.569848	0.173767	0.000032
C18	C	0.396382	0.169164	0.000039
C19	C	0.302341	0.166664	0.000042
C20	C	0.663895	0.176265	0.000027
C21	C	0.987860	-0.058136	0.000032
C22	C	0.985416	-0.197546	0.000037
C23	C	0.985435	-0.197552	0.159710
C24	C	0.984299	-0.263049	0.239545
C25	C	0.982003	-0.394037	0.239546
C26	C	0.980840	-0.459530	0.159703
C27	C	0.981975	-0.394032	0.079867
C28	C	0.984274	-0.263042	0.079875
C29	C	0.981950	-0.394026	-0.079803
C30	C	0.984252	-0.263039	-0.079806
C31	C	0.980786	-0.459518	-0.159646
C32	C	0.981928	-0.394022	-0.239484
C33	C	0.984226	-0.263027	-0.239482
C34	C	0.985388	-0.197542	-0.159642
C35	C	1.135066	0.162236	0.000038
C36	C	1.227376	0.164676	0.000046
C37	C	0.978370	0.401067	0.000032
C38	C	0.980814	0.540477	0.000033
N39	N	0.983108	0.171461	-0.228143
C40	C	1.039156	0.086092	-0.453865
C41	C	1.039159	0.086089	-0.546054
C42	C	0.927074	0.256834	-0.546066
C43	C	0.927068	0.256830	-0.453878
C44	C	0.983114	0.171460	-0.407780
C45	C	0.983123	0.171461	-0.592158
C46	C	0.983125	0.171459	-0.692114
C47	C	0.983111	0.171461	-0.307818
N48	N	0.983129	0.171461	0.228206
H49	H	0.561810	0.173550	0.144887
C50	C	0.392034	0.169044	-0.167614
H51	H	0.430278	0.170070	-0.215162
H52	H	0.364118	0.094959	-0.170935
H53	H	0.352279	0.241346	-0.170930
C54	C	1.100808	-0.007812	-0.596744
H55	H	1.134188	-0.058645	-0.556083
H56	H	1.070607	-0.060105	-0.632713
H57	H	1.135679	0.037390	-0.632698
C58	C	0.392068	0.169062	0.167696
H59	H	0.334199	0.167543	0.156266
H60	H	0.412202	0.096254	0.200505
H61	H	0.400368	0.242642	0.200492
C62	C	0.865426	0.350746	-0.403178
H63	H	0.873447	0.338508	-0.341672
H64	H	0.874941	0.434563	-0.418280
H65	H	0.809859	0.337083	-0.418292
C66	C	0.574165	0.173845	-0.167623
H67	H	0.535910	0.172809	-0.215167
H68	H	0.602087	0.247922	-0.170960
H69	H	0.613913	0.101535	-0.170929
H70	H	0.987314	-0.090897	0.159717
H71	H	0.985245	-0.209710	0.304552
C72	C	0.980773	-0.466090	0.327362
H73	H	0.981805	-0.408333	0.374914
H74	H	0.931487	-0.507609	0.330695
H75	H	1.028288	-0.526772	0.330660
C76	C	0.978258	-0.603600	-0.159651
H77	H	0.977721	-0.633220	-0.218635
H78	H	1.026140	-0.642833	-0.130172
H79	H	0.929340	-0.623635	-0.130163
H80	H	0.978959	-0.566185	0.159711
C81	C	0.980649	-0.466064	-0.327299
H82	H	0.979119	-0.553455	-0.315864
H83	H	0.932626	-0.434997	-0.360103
H84	H	1.029427	-0.454203	-0.360102
H85	H	0.985138	-0.209704	-0.304494
H86	H	0.987263	-0.090886	-0.159632
C87	C	1.100796	-0.007821	-0.403159
H88	H	1.134167	-0.058672	-0.443813
H89	H	1.135663	0.037361	-0.367187
H90	H	1.070578	-0.060116	-0.367207
H91	H	0.881444	0.326341	-0.583609
