data_functionalizedCrystal
_audit_creation_method	'MofGen! by Chris Wilmer'
_symmetry_space_group_name_H-M	'P1'
_symmetry_Int_Tables_number	1
_symmetry_cell_setting	triclinic
loop_
_symmetry_equiv_pos_as_xyz
  x,y,z
_cell_length_a	11.792241
_cell_length_b	15.995292
_cell_length_c	10.868271
_cell_angle_alpha	89.998057
_cell_angle_beta	89.999893
_cell_angle_gamma	83.831016
loop_
_atom_site_label
_atom_site_type_symbol
_atom_site_fract_x
_atom_site_fract_y
_atom_site_fract_z
O1	O	1.505919	0.114766	-0.102193
O2	O	1.175476	0.126594	-0.102221
O3	O	1.349764	-0.001170	-0.102208
O4	O	1.331630	0.242530	-0.102206
O5	O	1.349750	-0.001175	0.102436
O6	O	1.175461	0.126589	0.102424
O7	O	1.505904	0.114761	0.102451
Zn8	Zn	1.340681	0.120674	0.134929
Zn9	Zn	1.340699	0.120681	-0.134699
O10	O	1.331616	0.242525	0.102438
C11	C	1.133184	0.125849	0.000098
C12	C	1.007189	0.123625	0.000087
C13	C	0.776512	0.119536	0.000122
C14	C	0.904878	0.121808	0.000102
C15	C	1.349019	-0.032371	0.000111
C16	C	1.346806	-0.125334	0.000101
C17	C	1.338672	-0.463110	0.000112
C18	C	1.464469	-0.439226	0.000580
C19	C	1.466860	-0.342540	0.000114
C20	C	1.342708	-0.295535	0.000107
C21	C	1.279824	-0.324919	-0.116756
C22	C	1.278309	-0.421716	-0.116850
C23	C	1.275724	-0.421591	0.115869
C24	C	1.280386	-0.325077	0.117410
C25	C	1.344983	-0.200829	0.000101
C26	C	1.336393	-0.557816	0.000110
C27	C	1.548196	0.115507	0.000130
C28	C	1.674191	0.117730	0.000133
C29	C	1.332361	0.273726	0.000117
C30	C	1.334574	0.366689	0.000118
N31	N	1.340676	0.120669	0.318943
N32	N	1.340713	0.120679	-0.318713
C33	C	1.340693	0.120679	0.569949
C34	C	1.340680	0.120676	0.430272
H35	H	1.516109	-0.323293	0.083885
C36	C	1.152186	-0.440634	0.116858
C37	C	1.080163	-0.365153	0.113036
C38	C	0.966357	-0.382666	0.113920
H39	H	1.137750	-0.470482	0.189770
H40	H	1.138274	-0.473859	0.047118
H41	H	1.094068	-0.331941	0.182770
H42	H	1.094562	-0.335294	0.040129
H43	H	0.952445	-0.415891	0.044180
H44	H	0.951933	-0.412515	0.186833
H45	H	0.917475	-0.331456	0.111316
H46	H	1.186074	-0.436685	-0.122150
H47	H	1.516412	-0.323908	-0.083797
C48	C	1.528949	-0.476373	0.112369
C49	C	1.456838	-0.521392	0.182873
C50	C	1.516202	-0.555637	0.285857
H51	H	1.553992	-0.432372	0.160623
H52	H	1.593087	-0.513081	0.086142
H53	H	1.392721	-0.484686	0.209100
H54	H	1.431793	-0.565405	0.134655
H55	H	1.580340	-0.592345	0.259631
H56	H	1.541242	-0.511630	0.334101
H57	H	1.467287	-0.586192	0.333701
H58	H	1.512693	-0.468023	-0.082750
H59	H	1.188465	-0.293466	-0.121106
H60	H	1.323504	-0.304658	-0.203720
C61	C	1.341527	-0.300219	0.232727
C62	C	1.379232	-0.372511	0.300099
C63	C	1.435579	-0.349641	0.406323
H64	H	1.290607	-0.264115	0.281651
H65	H	1.405114	-0.271783	0.210153
H66	H	1.315654	-0.400934	0.322675
H67	H	1.430167	-0.408624	0.251211
H68	H	1.499165	-0.321205	0.383749
H69	H	1.384651	-0.313536	0.455236
H70	H	1.461177	-0.398687	0.452042
H71	H	1.189767	-0.292519	0.124462
C72	C	1.336491	-0.457057	-0.233360
C73	C	1.372666	-0.391223	-0.303010
C74	C	1.426284	-0.423744	-0.410340
H75	H	1.284296	-0.485309	-0.280226
H76	H	1.400539	-0.495515	-0.212049
H77	H	1.308627	-0.352780	-0.324324
H78	H	1.424874	-0.362965	-0.256182
H79	H	1.490331	-0.462201	-0.389029
H80	H	1.374082	-0.451996	-0.457195
H81	H	1.450844	-0.379082	-0.457605
H82	H	1.315334	-0.449502	0.204451
