data_functionalizedCrystal
_audit_creation_method	'MofGen! by Chris Wilmer'
_symmetry_space_group_name_H-M	'P1'
_symmetry_Int_Tables_number	1
_symmetry_cell_setting	triclinic
loop_
_symmetry_equiv_pos_as_xyz
  x,y,z
_cell_length_a	18.050589
_cell_length_b	13.032831
_cell_length_c	13.032268
_cell_angle_alpha	90.886977
_cell_angle_beta	97.149417
_cell_angle_gamma	82.833186
loop_
_atom_site_label
_atom_site_type_symbol
_atom_site_fract_x
_atom_site_fract_y
_atom_site_fract_z
Zn1	Zn	-0.501530	1.498351	-0.780835
Zn2	Zn	-0.168197	1.831684	-0.447502
Zn3	Zn	0.165136	2.165018	-0.114169
Zn4	Zn	-0.612177	1.520065	-0.608855
Zn5	Zn	-0.278843	1.853398	-0.275522
Zn6	Zn	0.054490	2.186732	0.057811
Zn7	Zn	-0.470507	1.348217	-0.587076
Zn8	Zn	-0.137174	1.681551	-0.253743
Zn9	Zn	0.196159	2.014884	0.079591
Zn10	Zn	-0.608161	1.326314	-0.758980
Zn11	Zn	-0.274828	1.659647	-0.425647
Zn12	Zn	0.058505	1.992981	-0.092314
O13	O	-0.548094	1.423237	-0.683937
O14	O	-0.214761	1.756570	-0.350603
O15	O	0.118573	2.089903	-0.017270
O16	O	-0.530872	1.645148	-0.776283
O17	O	-0.197538	1.978482	-0.442949
O18	O	0.135795	2.311815	-0.109616
O19	O	-0.582081	1.515523	-0.462049
O20	O	-0.248748	1.848856	-0.128716
O21	O	0.084586	2.182190	0.204617
O22	O	-0.370708	1.368212	-0.612810
O23	O	-0.037375	1.701545	-0.279477
O24	O	0.295959	2.034879	0.053856
O25	O	-0.612163	1.661101	-0.649930
O26	O	-0.278830	1.994435	-0.316596
O27	O	0.054504	2.327768	0.016737
O28	O	-0.393501	1.478515	-0.755164
O29	O	-0.060167	1.811848	-0.421831
O30	O	0.273166	2.145181	-0.088498
O31	O	-0.477997	1.389267	-0.446048
O32	O	-0.144664	1.722601	-0.112715
O33	O	0.188670	2.055934	0.220618
O34	O	-0.474104	1.201395	-0.591619
O35	O	-0.140770	1.534728	-0.258285
O36	O	0.192563	1.868062	0.075048
O37	O	-0.605320	1.330881	-0.905796
O38	O	-0.271986	1.664214	-0.572463
O39	O	0.061347	1.997548	-0.239130
O40	O	-0.575238	1.185303	-0.717916
O41	O	-0.241904	1.518636	-0.384583
O42	O	0.091429	1.851969	-0.051249
O43	O	-0.526978	1.457276	-0.921853
O44	O	-0.193645	1.790609	-0.588520
O45	O	0.139688	2.123943	-0.255186
O46	O	-0.715559	1.494284	-0.628738
O47	O	-0.382225	1.827618	-0.295405
O48	O	-0.048892	2.160951	0.037929
O49	O	-0.712609	1.351936	-0.739034
O50	O	-0.379275	1.685270	-0.405701
O51	O	-0.045942	2.018603	-0.072368
C52	C	-0.520869	1.156033	-0.650033
C53	C	-0.187536	1.489366	-0.316700
C54	C	0.145798	1.822699	0.016634
C55	C	-0.509242	1.041718	-0.635553
C56	C	-0.175909	1.375052	-0.302220
C57	C	0.157425	1.708385	0.031113
C58	C	-0.741032	1.423115	-0.683904
C59	C	-0.407699	1.756448	-0.350571
C60	C	-0.074365	2.089781	-0.017237
C61	C	-0.823584	1.423152	-0.683936
C62	C	-0.490251	1.756486	-0.350603
C63	C	-0.156918	2.089819	-0.017270
C64	C	-0.554162	0.982831	-0.691494
C65	C	-0.220829	1.316164	-0.358160
C66	C	0.112504	1.649498	-0.024827
C67	C	-0.542146	0.864681	-0.676530
C68	C	-0.208813	1.198014	-0.343196
C69	C	0.124520	1.531348	-0.009863
C70	C	-1.021463	1.345814	-0.743900
C71	C	-0.688129	1.679147	-0.410567
C72	C	-0.354796	2.012481	-0.077233
C73	C	-1.060964	1.332669	-0.646879
C74	C	-0.727631	1.666002	-0.313546
C75	C	-0.394297	1.999335	0.019788
C76	C	-0.974726	1.423252	-0.683962
C77	C	-0.641393	1.756585	-0.350629
C78	C	-0.308059	2.089918	-0.017296
C79	C	-1.082312	1.436446	-0.781001
C80	C	-0.748979	1.769780	-0.447667
C81	C	-0.415645	2.103113	-0.114334
C82	C	-1.120722	1.423345	-0.683996
C83	C	-0.787389	1.756678	-0.350662
C84	C	-0.454056	2.090011	-0.017329
C85	C	-1.013131	1.410063	-0.586886
C86	C	-0.679798	1.743397	-0.253552
C87	C	-0.346465	2.076730	0.079781
C88	C	-1.034484	1.513876	-0.721076
C89	C	-0.701151	1.847210	-0.387743
C90	C	-0.367818	2.180543	-0.054409
C91	C	-1.073962	1.500775	-0.623995
C92	C	-0.740629	1.834108	-0.290662
C93	C	-0.407295	2.167441	0.042672
C94	C	-0.890621	1.423195	-0.683944
C95	C	-0.557288	1.756529	-0.350611
C96	C	-0.223954	2.089862	-0.017278
C97	C	-1.204825	1.423402	-0.684003
C98	C	-0.871491	1.756736	-0.350670
C99	C	-0.538158	2.090069	-0.017337
C100	C	-0.354407	1.423384	-0.683996
C101	C	-0.021074	1.756718	-0.350662
C102	C	0.312260	2.090051	-0.017329
C103	C	-0.271869	1.423447	-0.684021
C104	C	0.061464	1.756781	-0.350688
C105	C	0.394798	2.090114	-0.017354
C106	C	-0.569162	1.389213	-0.952184
C107	C	-0.235828	1.722546	-0.618851
C108	C	0.097505	2.055880	-0.285517
C109	C	-0.578139	1.374714	-1.066495
C110	C	-0.244806	1.708048	-0.733162
C111	C	0.088527	2.041381	-0.399828
C112	C	-0.575426	1.691484	-0.717973
C113	C	-0.242092	2.024818	-0.384640
C114	C	0.091241	2.358151	-0.051307
C115	C	-0.587073	1.805795	-0.732478
C116	C	-0.253740	2.139129	-0.399144
C117	C	0.079594	2.472462	-0.065811
C118	C	-0.543380	1.430788	-1.125403
C119	C	-0.210047	1.764121	-0.792069
C120	C	0.123287	2.097455	-0.458736
C121	C	-0.552658	1.415804	-1.243549
C122	C	-0.219325	1.749137	-0.910216
C123	C	0.114008	2.082471	-0.576883
C124	C	-0.527061	1.457187	-0.416741
C125	C	-0.193727	1.790521	-0.083407
C126	C	0.139606	2.123854	0.249926
C127	C	-0.517894	1.471885	-0.302456
C128	C	-0.184561	1.805219	0.030878
C129	C	0.148772	2.138552	0.364211
H130	H	-0.601514	1.019885	-0.750468
H131	H	-0.268181	1.353218	-0.417135
H132	H	0.065153	1.686551	-0.083802
F133	F	-1.018764	1.613962	-0.762126
F134	F	-0.685431	1.947296	-0.428793
F135	F	-0.352097	2.280629	-0.095460
F136	F	-0.973951	1.395409	-0.479594
F137	F	-0.640618	1.728743	-0.146260
F138	F	-0.307284	2.062076	0.187073
H139	H	-0.634426	0.842843	-0.791459
H140	H	-0.301093	1.176176	-0.458126
H141	H	0.032240	1.509509	-0.124793
H142	H	-0.614761	1.315608	-1.103528
H143	H	-0.281428	1.648941	-0.770195
H144	H	0.051906	1.982275	-0.436861
F145	F	-0.600532	1.338545	-1.291945
F146	F	-0.267199	1.671878	-0.958611
F147	F	0.066134	2.005212	-0.625278
H148	H	-0.494786	0.827631	-0.617559
H149	H	-0.161453	1.160964	-0.284225
H150	H	0.171880	1.494298	0.049108
F151	F	-0.447342	0.993291	-0.558477
F152	F	-0.114009	1.326625	-0.225144
F153	F	0.219325	1.659958	0.108189
H154	H	-0.998449	1.280253	-0.794494
H155	H	-0.665116	1.613586	-0.461161
H156	H	-0.331782	1.946919	-0.127827
F157	F	-1.076662	1.232551	-0.605859
F158	F	-0.743328	1.565884	-0.272526
F159	F	-0.409995	1.899217	0.060808
H160	H	-1.096823	1.566310	-0.573255
H161	H	-0.763490	1.899643	-0.239922
H162	H	-0.430156	2.232976	0.093412
F163	F	-1.121601	1.450986	-0.888245
F164	F	-0.788268	1.784319	-0.554912
F165	F	-0.454934	2.117653	-0.221578
H166	H	-0.506750	1.489884	-1.088368
H167	H	-0.173416	1.823217	-0.755035
H168	H	0.159917	2.156550	-0.421702
F169	F	-0.470024	1.549150	-1.254063
F170	F	-0.136691	1.882483	-0.920730
F171	F	0.196643	2.215817	-0.587396
