data_functionalizedCrystal
_audit_creation_method	'MofGen! by Chris Wilmer'
_symmetry_space_group_name_H-M	'P1'
_symmetry_Int_Tables_number	1
_symmetry_cell_setting	triclinic
loop_
_symmetry_equiv_pos_as_xyz
  x,y,z
_cell_length_a	31.640172
_cell_length_b	19.902436
_cell_length_c	19.902436
_cell_angle_alpha	90.004631
_cell_angle_beta	60.003466
_cell_angle_gamma	59.996325
loop_
_atom_site_label
_atom_site_type_symbol
_atom_site_fract_x
_atom_site_fract_y
_atom_site_fract_z
Zr1	Zr	0.462545	-0.088119	0.647411
O2	O	0.550727	-0.195419	0.540126
O3	O	0.374373	-0.055227	0.680287
O4	O	0.462550	-0.195409	0.680289
O5	O	0.462542	0.055342	0.540136
O6	O	0.462542	-0.195400	0.790868
O7	O	0.462550	-0.055237	0.540123
O8	O	0.304809	0.055359	0.790863
O9	O	0.620275	-0.195417	0.540141
O10	O	0.410629	-0.041191	0.776847
O11	O	0.410629	0.041326	0.694333
O12	O	0.514446	-0.123720	0.694337
O13	O	0.514446	-0.041203	0.611823
Zr14	Zr	0.462519	0.088255	0.823792
Zr15	Zr	0.462532	-0.088105	0.823772
Zr16	Zr	0.462532	0.088241	0.647432
Zr17	Zr	0.573465	-0.088117	0.647435
Zr18	Zr	0.351598	0.088253	0.823768
O19	O	0.550690	0.055363	0.790917
O20	O	0.550709	-0.195398	0.790887
O21	O	0.550709	0.055343	0.540155
O22	O	0.374336	0.195555	0.931078
O23	O	0.374354	-0.055207	0.931048
O24	O	0.374354	0.195534	0.680316
O25	O	0.462521	-0.055205	0.931068
O26	O	0.462513	0.195545	0.790914
O27	O	0.462521	0.195536	0.680335
O28	O	0.462513	0.055373	0.931081
O29	O	0.620264	-0.195406	0.680324
O30	O	0.304799	0.195542	0.790880
O31	O	0.304788	0.195554	0.931063
O32	O	0.304799	0.055370	0.931046
O33	O	0.620264	-0.055234	0.540157
O34	O	0.620254	-0.055223	0.680340
O35	O	0.410617	0.123856	0.776867
O36	O	0.410617	0.041339	0.859381
O37	O	0.514434	-0.041190	0.776870
O38	O	0.514434	0.041327	0.694356
C39	C	0.323787	0.000066	0.735571
C40	C	0.276699	0.000065	0.735561
C41	C	0.462548	0.000050	0.515002
C42	C	0.462554	0.000044	0.440132
C43	C	0.462515	0.220668	0.735628
C44	C	0.462510	0.295538	0.735636
C45	C	-0.015343	-0.042997	0.778690
C46	C	-0.192339	-0.042997	0.778707
O47	O	-0.215244	-0.079599	0.815367
N48	N	-0.214468	0.000074	0.735634
C49	C	-0.192348	0.043153	0.692559
O50	O	-0.215236	0.079795	0.655930
C51	C	-0.015356	0.043157	0.692547
C52	C	0.006775	0.000076	0.735616
C53	C	0.006788	-0.086074	0.821755
C54	C	0.051036	-0.086077	0.821747
C55	C	0.073154	-0.043004	0.778673
C56	C	0.051023	0.000073	0.735607
C57	C	0.006760	0.086240	0.649477
C58	C	0.051009	0.086239	0.649480
C59	C	0.073140	0.043158	0.692548
C60	C	0.117390	0.043143	0.692525
N61	N	0.139519	0.000071	0.735597
C62	C	0.117401	-0.043002	0.778671
C63	C	-0.285271	0.043147	0.692567
C64	C	-0.329518	0.043145	0.692568
C65	C	-0.329506	-0.043004	0.778717
C66	C	-0.285255	-0.043007	0.778711
C67	C	-0.263142	0.000075	0.735639
C68	C	0.210327	-0.043006	0.778650
C69	C	0.254581	-0.043009	0.778635
C70	C	0.254563	0.043144	0.692490
C71	C	0.210315	0.043143	0.692501
C72	C	0.188196	0.000066	0.735587
O73	O	0.140317	0.079734	0.655891
O74	O	0.140287	-0.079623	0.815309
C75	C	-0.059592	-0.042994	0.778698
C76	C	-0.081722	0.000083	0.735632
C77	C	-0.059604	0.043156	0.692558
C78	C	-0.125969	0.000081	0.735634
C79	C	-0.148087	-0.042993	0.778708
C80	C	-0.125958	-0.086064	0.821780
C81	C	-0.081710	-0.086067	0.821772
C82	C	-0.081733	0.086227	0.649486
C83	C	-0.125982	0.086227	0.649497
C84	C	-0.148100	0.043153	0.692571
C85	C	0.601276	0.000071	0.735632
C86	C	0.648364	0.000071	0.735642
C87	C	0.462548	-0.220532	0.735576
C88	C	0.462554	-0.295402	0.735567
C89	C	0.462539	0.567540	0.735590
C90	C	0.397049	0.591110	0.787392
C91	C	0.397008	0.513272	0.787683
C92	C	0.462524	0.432597	0.735613
C93	C	0.495043	0.435017	0.773580
C94	C	0.494624	0.513245	0.773959
C95	C	0.495979	0.512236	0.645800
C96	C	0.494748	0.435315	0.645942
C97	C	0.462519	0.356330	0.735625
C98	C	0.462546	0.643805	0.735581
C99	C	0.462524	0.000076	0.168130
C100	C	0.528014	-0.051735	0.144571
C101	C	0.528055	-0.052023	0.222409
C102	C	0.462539	0.000060	0.303073
C103	C	0.430020	-0.037903	0.300650
C104	C	0.430439	-0.038286	0.222423
C105	C	0.429084	0.089874	0.223425
C106	C	0.430315	0.089736	0.300346
C107	C	0.462544	0.000052	0.379340
C108	C	0.462517	0.000081	0.091865
C109	C	0.462515	0.000086	0.956202
C110	C	0.462510	0.000092	1.031071
C111	C	0.323771	0.000083	0.956171
C112	C	0.276677	0.000089	1.031031
C113	C	0.323771	0.220666	0.735597
C114	C	0.276677	0.295534	0.735596
C115	C	0.323755	0.220683	0.956197
C116	C	0.276655	0.295558	1.031065
C117	C	0.601309	-0.220547	0.515006
C118	C	0.648408	-0.295422	0.440138
C119	C	0.601292	0.000053	0.515032
C120	C	0.648386	0.000047	0.440173
C121	C	0.601292	-0.220529	0.735606
C122	C	0.648386	-0.295398	0.735608
C123	C	0.254567	-0.042996	1.023104
C124	C	0.210324	-0.043008	1.093435
C125	C	0.188187	0.000071	1.171693
C126	C	0.210301	0.043157	1.179618
C127	C	0.254547	0.043163	1.109288
C128	C	0.254555	0.373781	0.778677
C129	C	0.210311	0.444135	0.778672
C130	C	0.188187	0.436240	0.735591
C131	C	0.210314	0.357986	0.692505
C132	C	0.254560	0.287633	0.692505
C133	C	0.254537	0.287647	1.109303
C134	C	0.210288	0.357993	1.179657
C135	C	0.188155	0.436250	1.171770
C136	C	0.210278	0.444159	1.093524
C137	C	0.254529	0.373814	1.023173
C138	C	0.670532	-0.287511	0.361900
C139	C	0.714795	-0.357857	0.291547
C140	C	0.736930	-0.436114	0.299433
C141	C	0.714804	-0.444023	0.377679
C142	C	0.670545	-0.373678	0.448031
C143	C	0.670500	0.043125	0.448099
C144	C	0.714756	0.043117	0.377768
C145	C	0.736895	0.000036	0.299510
C146	C	0.714779	-0.043047	0.291585
C147	C	0.670526	-0.043043	0.361916
C148	C	0.670496	-0.287477	0.778697
C149	C	0.714740	-0.357818	0.778715
C150	C	0.736877	-0.436078	0.735637
C151	C	0.714763	-0.443998	0.692546
C152	C	0.670516	-0.373658	0.692534
H153	H	0.272600	-0.078093	0.813706
H154	H	0.652520	-0.380119	0.657442
F155	F	-0.016743	-0.131926	0.867602
F156	F	-0.353053	-0.088846	0.824561
H157	H	0.192301	0.507846	0.813761
H158	H	0.772968	-0.493387	0.242142
F159	F	0.186716	0.527452	1.085144
H160	H	0.542547	0.377853	0.604099
F161	F	0.141058	0.511111	1.246653
H162	H	0.272543	0.078253	1.115753
F163	F	0.646992	-0.088890	0.353467
H164	H	0.192294	0.351570	0.657429
H165	H	-0.267239	-0.078086	0.813781
F166	F	0.278111	0.088982	0.646649
F167	F	0.367637	0.007841	0.247700
H168	H	0.192322	-0.078082	0.813736
H169	H	0.450038	0.121586	0.187121
F170	F	0.460657	-0.124656	0.174650
H171	H	0.371493	0.514440	0.762219
F172	F	0.186795	-0.088865	1.084984
F173	F	0.186749	0.349558	1.262924
F174	F	0.561611	-0.018625	0.093386
H175	H	0.652479	0.078212	0.511814
F176	F	0.363451	0.642302	0.754278
F177	F	0.646944	-0.204193	0.824549
H178	H	0.553699	-0.026757	0.221139
F179	F	0.783992	0.000040	0.224664
F180	F	-0.058162	-0.131921	0.867612
H181	H	0.069051	-0.121155	0.856820
F182	F	0.465516	0.433003	0.859125
H183	H	0.272550	0.223933	1.115740
H184	H	0.452611	-0.103353	0.302198
F185	F	0.141096	0.000058	1.246539
F186	F	0.464409	0.561024	0.860322
H187	H	0.544224	0.492309	0.607023
F188	F	0.783969	-0.510934	0.735656
F189	F	0.738333	-0.349422	0.208280
H190	H	-0.063731	0.121306	0.614411
F191	F	0.278062	0.382246	0.939908
H192	H	-0.143972	-0.121140	0.856850
F193	F	0.646981	-0.204231	0.353488
F194	F	0.561452	-0.137796	0.092403
H195	H	0.732756	0.078203	0.384237
F196	F	0.738367	-0.527316	0.386059
H197	H	0.272591	-0.078086	0.959389
H198	H	0.371469	0.631026	0.853229
H199	H	0.272563	0.380225	0.813759
F200	F	0.738332	-0.527295	0.646697
H201	H	-0.267270	0.078232	0.657491
F202	F	-0.353059	0.088985	0.646717
F203	F	0.738270	-0.349372	0.824575
H204	H	0.652532	-0.380129	0.511733
F205	F	0.561622	-0.138603	0.220083
F206	F	0.367833	0.144437	0.375432
H207	H	0.732810	-0.078123	0.227858
H208	H	0.380841	0.128660	0.243336
F209	F	0.557426	0.487958	0.727848
H210	H	0.371329	0.515059	0.853919
F211	F	-0.016786	0.132096	0.603639
F212	F	0.367056	0.009048	0.374900
H213	H	0.069013	0.121321	0.614404
H214	H	0.192271	0.078230	1.243345
H215	H	0.192302	0.078212	0.657420
H216	H	-0.143994	0.121306	0.614417
H217	H	0.272566	0.223924	0.657426
F218	F	0.558007	0.360757	0.726641
H219	H	0.475023	0.548539	0.614085
F220	F	0.461299	0.126813	0.299880
H221	H	0.471036	0.435688	0.617580
F222	F	0.141096	0.511124	0.735599
