data_functionalizedCrystal
_audit_creation_method	'MofGen! by Chris Wilmer'
_symmetry_space_group_name_H-M	'P1'
_symmetry_Int_Tables_number	1
_symmetry_cell_setting	triclinic
loop_
_symmetry_equiv_pos_as_xyz
  x,y,z
_cell_length_a	30.711293
_cell_length_b	30.700791
_cell_length_c	30.700862
_cell_angle_alpha	89.998029
_cell_angle_beta	59.999649
_cell_angle_gamma	60.000191
loop_
_atom_site_label
_atom_site_type_symbol
_atom_site_fract_x
_atom_site_fract_y
_atom_site_fract_z
O1	O	-0.311648	-0.371257	0.012946
O2	O	-0.222486	-0.307915	-0.012905
O3	O	-0.311647	-0.307914	0.076286
O4	O	-0.222487	-0.371258	-0.076244
O5	O	-0.384064	-0.235471	0.076281
O6	O	-0.294903	-0.235472	-0.012909
O7	O	-0.384065	-0.298814	0.012941
Cu8	Cu	-0.346097	-0.260528	0.000016
Cu9	Cu	-0.260455	-0.346201	0.000021
O10	O	-0.294905	-0.298815	-0.076249
C11	C	-0.215946	-0.155921	-0.018773
C12	C	-0.246517	-0.098464	-0.015067
C13	C	-0.241901	-0.182377	-0.019145
C14	C	-0.137093	-0.234800	-0.018780
C15	C	-0.083353	-0.261680	-0.015083
C16	C	-0.163168	-0.261136	-0.019153
C17	C	-0.215940	-0.234800	-0.018783
C18	C	-0.246504	-0.261681	-0.015089
C19	C	-0.163173	-0.182377	-0.019143
C20	C	-0.535506	-0.574966	0.039266
C21	C	-0.588276	-0.548513	0.039633
C22	C	-0.535503	-0.496092	0.039261
C23	C	-0.588273	-0.469758	0.039628
C24	C	-0.614351	-0.496093	0.039261
C25	C	-0.509547	-0.548512	0.039633
C26	C	-0.393517	-0.765171	0.024998
C27	C	-0.364490	-0.819035	0.020964
C28	C	-0.389408	-0.846056	0.018939
C29	C	-0.357931	-0.904462	0.014555
C30	C	-0.443357	-0.819209	0.020953
C31	C	-0.472384	-0.765347	0.024994
C32	C	-0.447462	-0.738328	0.027016
C33	C	-0.790217	-0.447931	0.024977
C34	C	-0.840027	-0.423106	0.020938
C35	C	-0.865011	-0.371162	0.018906
C36	C	-0.919010	-0.344244	0.014518
C37	C	-0.840185	-0.344042	0.020919
C38	C	-0.790385	-0.368863	0.024968
C39	C	-0.765401	-0.420813	0.026993
C40	C	-0.393506	-0.447926	0.024978
C41	C	-0.364472	-0.423102	0.020932
C42	C	-0.389387	-0.371157	0.018902
C43	C	-0.357907	-0.344239	0.014513
C44	C	-0.443332	-0.344040	0.020913
C45	C	-0.472361	-0.368866	0.024957
C46	C	-0.447446	-0.420809	0.026994
C47	C	-0.478939	-0.679924	0.031393
C48	C	-0.504029	-0.633370	0.034884
C49	C	-0.504023	-0.469176	0.034874
C50	C	-0.478931	-0.447722	0.031379
C51	C	-0.668351	-0.469178	0.034874
C52	C	-0.711396	-0.447725	0.031378
C53	C	-0.071062	-0.496430	-0.503877
C54	C	-0.018292	-0.548850	-0.530210
C55	C	-0.071062	-0.496430	-0.425001
C56	C	-0.018292	-0.548851	-0.451454
C57	C	0.007785	-0.575305	-0.503874
C58	C	-0.097019	-0.470095	-0.451457
C59	C	-0.213054	-0.368667	-0.552046
C60	C	-0.242083	-0.343666	-0.576874
C61	C	-0.217167	-0.370617	-0.628819
C62	C	-0.248645	-0.343515	-0.655738
C63	C	-0.163218	-0.422570	-0.655937
C64	C	-0.134190	-0.447564	-0.631112
C65	C	-0.159110	-0.420611	-0.579165
C66	C	0.183647	-0.765510	-0.631630
C67	C	0.233456	-0.819374	-0.656629
C68	C	0.258441	-0.846398	-0.629678
C69	C	0.312440	-0.904802	-0.656775
C70	C	0.233618	-0.819550	-0.577726
C71	C	0.183818	-0.765686	-0.552731
C72	C	0.158832	-0.738669	-0.579689
C73	C	-0.213052	-0.368669	-0.234798
C74	C	-0.242085	-0.343671	-0.180932
C75	C	-0.217169	-0.370623	-0.153909
C76	C	-0.248646	-0.343521	-0.095503
C77	C	-0.163224	-0.422573	-0.180754
C78	C	-0.134196	-0.447569	-0.234618
C79	C	-0.159113	-0.420610	-0.261638
C80	C	-0.127632	-0.447719	-0.552248
C81	C	-0.102540	-0.469326	-0.530793
C82	C	-0.102539	-0.469327	-0.366598
C83	C	-0.127630	-0.447721	-0.320044
C84	C	0.061784	-0.633709	-0.530976
C85	C	0.104829	-0.680263	-0.552580
O86	O	0.063309	-0.298819	0.012947
O87	O	-0.063337	-0.235469	-0.012895
O88	O	-0.063332	-0.235483	0.076292
O89	O	0.063304	-0.298804	-0.076240
O90	O	-0.063327	-0.307931	0.076282
O91	O	-0.063332	-0.307917	-0.012905
O92	O	0.063314	-0.371267	0.012938
Cu93	Cu	-0.000009	-0.346207	0.000016
Cu94	Cu	-0.000014	-0.260529	0.000027
O95	O	0.063309	-0.371252	-0.076249
O96	O	-0.384087	0.076278	0.012980
O97	O	-0.294919	-0.076256	-0.012883
O98	O	-0.384078	0.012923	0.076312
O99	O	-0.294928	-0.012900	-0.076216
O100	O	-0.311659	0.012923	0.076315
O101	O	-0.222500	-0.076255	-0.012880
O102	O	-0.311668	0.076279	0.012982
Cu103	Cu	-0.260471	0.000012	0.000051
Cu104	Cu	-0.346115	0.000011	0.000048
O105	O	-0.222509	-0.012900	-0.076213
O106	O	0.456756	-1.076592	-0.692373
O107	O	0.330119	-0.924062	-0.629035
O108	O	0.330115	-1.013250	-0.629031
O109	O	0.456760	-0.987404	-0.692377
O110	O	0.330114	-1.013248	-0.701476
O111	O	0.330117	-0.924060	-0.701479
O112	O	0.456755	-1.076591	-0.764818
Cu113	Cu	0.393436	-1.000325	-0.739763
Cu114	Cu	0.393438	-1.000327	-0.654089
O115	O	0.456758	-0.987402	-0.764821
O116	O	-0.311647	-0.307914	-0.764507
O117	O	-0.222491	-0.371255	-0.701160
O118	O	-0.311650	-0.371255	-0.701160
O119	O	-0.222488	-0.307914	-0.764507
O120	O	-0.384068	-0.298811	-0.628718
O121	O	-0.294909	-0.298811	-0.628719
O122	O	-0.384066	-0.235470	-0.692065
Cu123	Cu	-0.346100	-0.260525	-0.653777
Cu124	Cu	-0.260456	-0.346199	-0.739448
O125	O	-0.294906	-0.235469	-0.692065
C126	C	-0.469459	-0.155927	0.234817
C127	C	-0.523196	-0.098472	0.261693
C128	C	-0.443383	-0.182382	0.261154
C129	C	-0.390613	-0.234802	0.155945
C130	C	-0.360047	-0.261680	0.098491
C131	C	-0.364656	-0.261137	0.182401
C132	C	-0.390613	-0.234802	0.234821
C133	C	-0.360047	-0.261680	0.261701
C134	C	-0.443383	-0.182382	0.182398
C135	C	-0.215937	-0.234835	0.234815
C136	C	-0.246501	-0.261718	0.261687
C137	C	-0.241898	-0.182415	0.261154
C138	C	-0.137088	-0.234825	0.155948
C139	C	-0.083347	-0.261698	0.098494
C140	C	-0.163169	-0.182405	0.182407
C141	C	-0.215942	-0.155956	0.234826
C142	C	-0.246513	-0.098501	0.261708
C143	C	-0.163163	-0.261164	0.182396
C144	C	-0.390614	0.018780	0.234847
C145	C	-0.360045	0.015077	0.261724
C146	C	-0.443383	0.019144	0.261180
C147	C	-0.390620	0.018793	0.155974
C148	C	-0.360058	0.015103	0.098520
C149	C	-0.443389	0.019157	0.182427
C150	C	-0.469462	0.018780	0.234845
C151	C	-0.523197	0.015076	0.261721
C152	C	-0.364661	0.019157	0.182428
C153	C	0.464517	-0.574918	-0.503872
C154	C	0.490473	-0.548459	-0.530201
C155	C	0.385663	-0.496049	-0.424994
C156	C	0.411739	-0.469710	-0.451443
C157	C	0.464512	-0.496040	-0.503862
C158	C	0.411744	-0.548469	-0.451453
C159	C	0.526952	-0.765127	-0.552055
C160	C	0.555809	-0.818991	-0.576885
C161	C	0.609766	-0.846007	-0.628829
C162	C	0.641064	-0.904413	-0.655751
C163	C	0.634860	-0.819155	-0.655943
C164	C	0.605999	-0.765293	-0.631116
C165	C	0.552042	-0.738279	-0.579169
C166	C	0.606502	-0.447857	-0.631603
C167	C	0.635529	-0.423027	-0.656598
C168	C	0.610613	-0.371084	-0.629644
C169	C	0.642085	-0.344159	-0.656737
C170	C	0.556661	-0.343969	-0.577693
C171	C	0.527630	-0.368794	-0.552703
C172	C	0.552560	-0.420744	-0.579664
C173	C	0.209790	-0.447905	-0.234797
C174	C	0.159982	-0.423087	-0.180932
C175	C	0.134993	-0.371141	-0.153906
C176	C	0.080990	-0.344230	-0.095501
C177	C	0.159816	-0.344019	-0.180746
C178	C	0.209624	-0.368840	-0.234610
C179	C	0.234604	-0.420783	-0.261633
C180	C	0.520753	-0.679876	-0.552249
C181	C	0.495810	-0.633322	-0.530792
C182	C	0.331660	-0.469140	-0.366591
C183	C	0.288612	-0.447690	-0.320038
C184	C	0.495988	-0.469120	-0.530959
C185	C	0.521078	-0.447662	-0.552560
O186	O	-0.311682	0.076246	0.298846
O187	O	-0.222503	-0.076287	0.235498
O188	O	-0.311678	0.012896	0.235508
O189	O	-0.222507	-0.012937	0.298837
O190	O	-0.384084	0.012882	0.307954
O191	O	-0.294908	-0.076301	0.307945
O192	O	-0.384088	0.076231	0.371293
Cu193	Cu	-0.346109	-0.000036	0.346234
Cu194	Cu	-0.260481	-0.000019	0.260557
O195	O	-0.294913	-0.012952	0.371283
C196	C	0.007393	-0.039139	-0.503833
C197	C	-0.018687	-0.039504	-0.530167
C198	C	-0.071449	-0.039152	-0.424962
C199	C	-0.097408	-0.039517	-0.451416
C200	C	-0.071456	-0.039140	-0.503834
C201	C	-0.018680	-0.039516	-0.451415
C202	C	0.183255	-0.024850	-0.551992
C203	C	0.233063	-0.020808	-0.576817
C204	C	0.258044	-0.018773	-0.628760
C205	C	0.312042	-0.014380	-0.655676
C206	C	0.233217	-0.020784	-0.655880
C207	C	0.183418	-0.024833	-0.631058
C208	C	0.158437	-0.026866	-0.579112
C209	C	-0.133891	-0.024840	-0.631591
C210	C	-0.162748	-0.020798	-0.656591
C211	C	-0.216700	-0.018774	-0.629643
C212	C	-0.247997	-0.014384	-0.656741
C213	C	-0.241792	-0.020797	-0.577692
C214	C	-0.212931	-0.024848	-0.552697
C215	C	-0.158978	-0.026866	-0.579652
C216	C	-0.133856	-0.024902	-0.234761
C217	C	-0.162710	-0.020866	-0.180895
C218	C	-0.216662	-0.018844	-0.153875
C219	C	-0.247951	-0.014466	-0.095471
C220	C	-0.241761	-0.020853	-0.180721
C221	C	-0.212907	-0.024887	-0.234584
C222	C	-0.158950	-0.026916	-0.261601
C223	C	0.104434	-0.031251	-0.552199
C224	C	0.061391	-0.034749	-0.530746
C225	C	-0.102733	-0.034776	-0.366559
C226	C	-0.127669	-0.031290	-0.320006
C227	C	-0.102748	-0.034750	-0.530937
C228	C	-0.127690	-0.031253	-0.552542
H229	H	-0.610092	-0.426688	0.040215
C230	C	0.693417	-0.848384	-0.712349
C231	C	0.709206	-0.813338	-0.730784
C232	C	0.763142	-0.840243	-0.782747
H233	H	0.725886	-0.877576	-0.712400
H234	H	0.686820	-0.861210	-0.735046
H235	H	0.715807	-0.800521	-0.708094
H236	H	0.676752	-0.784147	-0.730747
H237	H	0.756545	-0.853069	-0.805444
H238	H	0.795606	-0.869433	-0.782793
H239	H	0.773858	-0.816467	-0.795264
H240	H	-0.516285	-0.346783	0.026595
C241	C	-0.472438	0.019834	0.154092
C242	C	-0.472662	-0.025578	0.151476
C243	C	-0.499405	-0.024980	0.125371
H244	H	-0.513528	0.050899	0.173241
H245	H	-0.449329	0.019969	0.119003
H246	H	-0.495772	-0.025708	0.186559
H247	H	-0.431580	-0.056651	0.132324
H248	H	-0.476295	-0.024845	0.090281
H249	H	-0.540493	0.006088	0.144522
H250	H	-0.499555	-0.055793	0.123588
C251	C	0.236569	-0.339424	-0.263838
C252	C	0.231720	-0.334643	-0.306828
C253	C	0.256543	-0.307554	-0.333769
H254	H	0.214588	-0.304913	-0.240097
H255	H	0.278687	-0.358808	-0.276703
H256	H	0.189611	-0.315258	-0.293963
H257	H	0.253703	-0.369145	-0.330582
H258	H	0.298660	-0.326938	-0.346634
H259	H	0.234559	-0.273045	-0.310023
H260	H	0.253262	-0.304311	-0.362944
C261	C	-0.133937	-0.318618	0.154027
C262	C	-0.073417	-0.350770	0.139367
C263	C	-0.046473	-0.403694	0.113224
H264	H	-0.156963	-0.330663	0.177244
H265	H	-0.133679	-0.320664	0.123012
H266	H	-0.073680	-0.348727	0.170378
H267	H	-0.050376	-0.338741	0.116145
H268	H	-0.046215	-0.405740	0.082209
H269	H	-0.069503	-0.415734	0.136443
H270	H	-0.005406	-0.425515	0.103269
C271	C	-0.300672	-0.287280	-0.151688
C272	C	-0.320769	-0.271164	-0.098730
C273	C	-0.374740	-0.219221	-0.071775
H274	H	-0.292671	-0.263769	-0.168665
H275	H	-0.331657	-0.286492	-0.152343
H276	H	-0.289791	-0.271948	-0.098078
H277	H	-0.328784	-0.294660	-0.081739
H278	H	-0.405725	-0.218433	-0.072429
H279	H	-0.366734	-0.195715	-0.088755
H280	H	-0.388386	-0.208281	-0.035838
H281	H	-0.141347	-0.161163	0.161169
H282	H	-0.089923	-0.026552	-0.256755
C283	C	-0.472382	0.019810	0.318570
C284	C	-0.429603	-0.025608	0.321406
C285	C	-0.456298	-0.025019	0.374261
H286	H	-0.484293	0.050872	0.340529
H287	H	-0.507594	0.019946	0.330537
H288	H	-0.394403	-0.025739	0.309445
H289	H	-0.417688	-0.056677	0.299459
H290	H	-0.491510	-0.024884	0.386228
H291	H	-0.468208	0.006045	0.396216
H292	H	-0.427279	-0.055837	0.376192
H293	H	-0.285693	-0.019206	-0.158718
C294	C	-0.305883	-0.452465	0.018715
C295	C	-0.285783	-0.419612	0.014724
C296	C	-0.231811	-0.446645	0.012676
H297	H	-0.313883	-0.461437	0.050230
H298	H	-0.274900	-0.484114	-0.011491
H299	H	-0.316760	-0.387972	0.044927
H300	H	-0.277771	-0.410638	-0.016789
H301	H	-0.200828	-0.478294	-0.017530
H302	H	-0.239816	-0.455616	0.044191
H303	H	-0.218163	-0.424360	0.009963
H304	H	-0.463617	-0.301742	0.019258
H305	H	-0.284359	-0.161184	0.304226
C306	C	-0.763095	-0.504296	0.027270
C307	C	-0.767935	-0.504127	0.075112
C308	C	-0.742946	-0.556042	0.077237
H309	H	-0.784977	-0.516946	0.025526
H310	H	-0.720971	-0.526976	-0.001995
H311	H	-0.810052	-0.481455	0.104369
H312	H	-0.746052	-0.491487	0.076867
H313	H	-0.700822	-0.578722	0.047972
H314	H	-0.764830	-0.568688	0.075491
H315	H	-0.746221	-0.555935	0.109695
C316	C	-0.153592	-0.412644	-0.423087
C317	C	-0.139880	-0.380485	-0.408418
C318	C	-0.191985	-0.327565	-0.382271
H319	H	-0.165449	-0.400599	-0.446304
H320	H	-0.186380	-0.410606	-0.392076
H321	H	-0.107103	-0.382521	-0.439425
H322	H	-0.128030	-0.392514	-0.385196
H323	H	-0.224773	-0.325526	-0.351259
H324	H	-0.203839	-0.315525	-0.405490
H325	H	-0.182691	-0.305739	-0.372310
C326	C	-0.307985	0.019867	0.154141
C327	C	-0.259749	-0.025535	0.151533
C328	C	-0.207535	-0.024897	0.125483
H329	H	-0.296118	0.020015	0.119053
H330	H	-0.317153	0.050950	0.173336
H331	H	-0.250582	-0.056609	0.132337
H332	H	-0.271596	-0.025692	0.186612
H333	H	-0.216702	0.006186	0.144678
H334	H	-0.195673	-0.024748	0.090397
H335	H	-0.174802	-0.055699	0.123714
H336	H	0.389910	-0.426640	-0.430197
C337	C	0.633227	-0.736097	-0.660457
C338	C	0.647734	-0.717232	-0.631766
C339	C	0.672813	-0.690329	-0.658774
H340	H	0.669517	-0.759847	-0.694948
H341	H	0.604101	-0.706885	-0.663742
H342	H	0.676860	-0.746440	-0.628487
H343	H	0.611455	-0.693475	-0.597276
H344	H	0.643686	-0.661117	-0.662059
H345	H	0.709101	-0.714082	-0.693264
H346	H	0.682654	-0.677522	-0.639309
C347	C	-0.300339	-0.018646	-0.548355
C348	C	-0.316123	-0.021302	-0.497520
C349	C	-0.370048	-0.019329	-0.470483
H350	H	-0.332815	0.013782	-0.545060
H351	H	-0.293731	-0.047942	-0.567791
H352	H	-0.322735	0.007992	-0.478088
H353	H	-0.283662	-0.053727	-0.500799
H354	H	-0.363440	-0.048626	-0.489919
H355	H	-0.402519	0.013099	-0.467192
H356	H	-0.380761	-0.021136	-0.435990
H357	H	0.532935	-0.569695	-0.573272
H358	H	0.003137	-0.040091	-0.573237
C359	C	-0.136047	-0.451876	-0.151508
C360	C	-0.076405	-0.465039	-0.176628
C361	C	-0.051348	-0.492040	-0.149709
H362	H	-0.160982	-0.429601	-0.115583
H363	H	-0.134563	-0.483546	-0.152141
H364	H	-0.077893	-0.433373	-0.175989
H365	H	-0.051455	-0.487319	-0.212551
H366	H	-0.049864	-0.523710	-0.150342
H367	H	-0.076288	-0.469762	-0.113785
H368	H	-0.010877	-0.500979	-0.166752
C369	C	0.633638	-0.504245	-0.660975
C370	C	0.687084	-0.522669	-0.711823
C371	C	0.712090	-0.574608	-0.738895
H372	H	0.643520	-0.526980	-0.641588
H373	H	0.604464	-0.504243	-0.664242
H374	H	0.716252	-0.522675	-0.708554
H375	H	0.677218	-0.499949	-0.731224
H376	H	0.682917	-0.574605	-0.742161
H377	H	0.721969	-0.597337	-0.719504
H378	H	0.748353	-0.587113	-0.773399
C379	C	0.382720	-0.576874	-0.423235
C380	C	0.416872	-0.628539	-0.457644
C381	C	0.390151	-0.654717	-0.431670
H382	H	0.382492	-0.578746	-0.392246
H383	H	0.341653	-0.557717	-0.413273
H384	H	0.457928	-0.647691	-0.467599
H385	H	0.417102	-0.626683	-0.488634
H386	H	0.349084	-0.635560	-0.421708
H387	H	0.389925	-0.656585	-0.400681
H388	H	0.413316	-0.689773	-0.455014
C389	C	0.010325	-0.040202	-0.423033
C390	C	-0.032453	0.005198	-0.377389
C391	C	-0.005754	0.004588	-0.351236
H392	H	0.022243	-0.071276	-0.413005
H393	H	0.045533	-0.040330	-0.446281
H394	H	-0.067650	0.005321	-0.354146
H395	H	-0.044375	0.036279	-0.387401
H396	H	0.029454	0.004460	-0.374484
H397	H	0.006163	-0.026487	-0.341212
H398	H	-0.034773	0.035393	-0.320267
H399	H	-0.142316	-0.019148	-0.698888
C400	C	-0.305929	-0.848269	0.018790
C401	C	-0.285849	-0.901220	0.014831
C402	C	-0.231907	-0.928164	0.012832
H403	H	-0.274916	-0.847640	-0.011404
H404	H	-0.313977	-0.831259	0.050322
H405	H	-0.277798	-0.918225	-0.016697
H406	H	-0.316846	-0.901865	0.045021
H407	H	-0.239955	-0.911155	0.044364
H408	H	-0.200899	-0.927532	-0.017362
H409	H	-0.218279	-0.964093	0.010151
H410	H	0.139780	-0.445177	-0.159080
C411	C	-0.866871	-0.452647	0.018731
C412	C	-0.834322	-0.503456	0.021360
C413	C	-0.859028	-0.530688	0.019322
H414	H	-0.908968	-0.433328	0.048005
H415	H	-0.863600	-0.455981	-0.013717
H416	H	-0.837599	-0.500120	0.053804
H417	H	-0.792225	-0.522789	-0.007912
H418	H	-0.855758	-0.534021	-0.013126
H419	H	-0.901126	-0.511364	0.048597
H420	H	-0.836945	-0.565166	0.021101
C421	C	-0.300708	-0.287298	-0.547459
C422	C	-0.348461	-0.287371	-0.542677
C423	C	-0.402473	-0.235453	-0.515586
H424	H	-0.311470	-0.274778	-0.512949
H425	H	-0.294193	-0.264549	-0.566843
H426	H	-0.354976	-0.310112	-0.523291
H427	H	-0.337719	-0.299880	-0.577178
H428	H	-0.395958	-0.212704	-0.534971
H429	H	-0.413229	-0.222938	-0.481078
H430	H	-0.434878	-0.235495	-0.512342
C431	C	0.236852	-0.504315	-0.264036
C432	C	0.204470	-0.522764	-0.228999
C433	C	0.229391	-0.574729	-0.255914
H434	H	0.233618	-0.504366	-0.293228
H435	H	0.278960	-0.527004	-0.276860
H436	H	0.162373	-0.500081	-0.216182
H437	H	0.207701	-0.522726	-0.199806
H438	H	0.271498	-0.597418	-0.268738
H439	H	0.226155	-0.574774	-0.285106
H440	H	0.207427	-0.587255	-0.232144
C441	C	0.468356	-0.735885	-0.495667
C442	C	0.452546	-0.770922	-0.477243
C443	C	0.398568	-0.744000	-0.425305
H444	H	0.474893	-0.723041	-0.472932
H445	H	0.435921	-0.706701	-0.495670
H446	H	0.484973	-0.800097	-0.477237
H447	H	0.445996	-0.783768	-0.499964
H448	H	0.366133	-0.714816	-0.425308
H449	H	0.405111	-0.731157	-0.402575
H450	H	0.387831	-0.767767	-0.412800
C451	C	-0.240073	-0.027157	-0.496339
C452	C	-0.197032	-0.075013	-0.496425
C453	C	-0.222018	-0.077161	-0.444518
H454	H	-0.249967	0.002085	-0.473555
H455	H	-0.276323	-0.025404	-0.483858
H456	H	-0.160792	-0.076762	-0.508899
H457	H	-0.187133	-0.104263	-0.519198
H458	H	-0.258268	-0.075407	-0.432037
H459	H	-0.231912	-0.047917	-0.421738
H460	H	-0.192820	-0.109633	-0.444570
H461	H	-0.141336	-0.304210	-0.019753
C462	C	0.528690	-0.848233	-0.547478
C463	C	0.571744	-0.891219	-0.542702
C464	C	0.546787	-0.918172	-0.515620
H465	H	0.492437	-0.824497	-0.512966
H466	H	0.518817	-0.861102	-0.566866
H467	H	0.581608	-0.878350	-0.523313
H468	H	0.607998	-0.914967	-0.577205
H469	H	0.536914	-0.931041	-0.535009
H470	H	0.510534	-0.894433	-0.481110
H471	H	0.575997	-0.947344	-0.512381
C472	C	-0.240237	-0.027084	-0.263642
C473	C	-0.293653	-0.024461	-0.228457
C474	C	-0.318844	-0.026487	-0.255207
H475	H	-0.250192	0.002196	-0.276473
H476	H	-0.211136	-0.059527	-0.292823
H477	H	-0.322748	0.007977	-0.199285
H478	H	-0.283714	-0.053739	-0.215624
H479	H	-0.289744	-0.058930	-0.284387
H480	H	-0.328796	0.002794	-0.268036
H481	H	-0.355086	-0.024713	-0.231338
H482	H	-0.233339	-0.346711	-0.256798
C483	C	-0.135346	-0.018721	-0.151851
C484	C	-0.081910	-0.021375	-0.187045
C485	C	-0.056679	-0.019412	-0.160312
H486	H	-0.164401	0.013703	-0.122664
H487	H	-0.125412	-0.048022	-0.139037
H488	H	-0.091847	0.007923	-0.199851
H489	H	-0.052841	-0.053797	-0.216233
H490	H	-0.046745	-0.048713	-0.147498
H491	H	-0.085739	0.013012	-0.131126
H492	H	-0.020418	-0.021217	-0.184188
H493	H	-0.465211	-0.161141	0.304225
C494	C	0.694162	-0.452432	-0.712962
C495	C	0.741899	-0.457201	-0.712867
C496	C	0.795920	-0.484280	-0.764780
H497	H	0.704939	-0.486945	-0.725494
H498	H	0.687651	-0.433043	-0.735710
H499	H	0.748410	-0.476590	-0.690127
H500	H	0.731143	-0.422696	-0.700345
H501	H	0.789409	-0.464891	-0.787527
H502	H	0.806690	-0.518791	-0.777307
H503	H	0.828314	-0.487515	-0.764723
H504	H	-0.141350	-0.161136	-0.019736
C505	C	-0.366397	-0.735917	0.027241
C506	C	-0.312959	-0.770948	0.024640
C507	C	-0.287971	-0.744012	0.026721
H508	H	-0.356509	-0.723064	-0.002027
H509	H	-0.395583	-0.706739	0.059694
H510	H	-0.283778	-0.800116	-0.007809
H511	H	-0.322829	-0.783803	0.053907
H512	H	-0.317158	-0.714834	0.059173
H513	H	-0.278088	-0.731160	-0.002548
H514	H	-0.251714	-0.767775	0.024961
H515	H	-0.516310	-0.743491	0.026635
H516	H	-0.322188	-0.304205	0.161159
H517	H	-0.465198	-0.161135	0.161154
C518	C	0.529490	-0.287560	-0.548346
C519	C	0.476024	-0.269124	-0.497510
C520	C	0.450975	-0.217161	-0.470463
H521	H	0.558617	-0.287508	-0.545052
H522	H	0.519629	-0.264864	-0.567775
H523	H	0.485888	-0.291814	-0.478086
H524	H	0.446883	-0.269163	-0.500789
H525	H	0.441114	-0.194466	-0.489892
H526	H	0.480107	-0.217115	-0.467173
H527	H	0.414693	-0.204645	-0.435970
H528	H	-0.610099	-0.569754	0.040226
C529	C	0.156244	-0.027082	-0.495605
C530	C	0.188656	-0.024471	-0.477175
C531	C	0.163794	-0.026532	-0.425236
H532	H	0.114140	0.002190	-0.472872
H533	H	0.159509	-0.059531	-0.495609
H534	H	0.185385	0.007974	-0.477167
H535	H	0.230759	-0.053741	-0.499893
H536	H	0.167058	-0.058981	-0.425241
H537	H	0.121689	0.002741	-0.402509
H538	H	0.185784	-0.024766	-0.412727
H539	H	-0.284361	-0.161138	-0.019745
C540	C	0.469109	-0.339452	-0.496274
C541	C	0.478923	-0.368141	-0.462891
C542	C	0.425026	-0.341131	-0.410906
H543	H	0.458372	-0.304961	-0.483723
H544	H	0.436627	-0.336169	-0.496204
H545	H	0.511394	-0.371418	-0.462958
H546	H	0.489651	-0.402631	-0.475425
H547	H	0.392544	-0.337848	-0.410836
H548	H	0.414294	-0.306641	-0.398361
H549	H	0.431676	-0.360595	-0.388250
H550	H	0.253663	-0.841229	-0.698927
C551	C	0.132582	-0.287613	-0.151322
C552	C	0.083640	-0.271673	-0.098410
C553	C	0.058536	-0.219716	-0.071291
H554	H	0.163323	-0.286717	-0.151874
H555	H	0.118000	-0.264073	-0.168263
H556	H	0.098223	-0.295207	-0.081473
H557	H	0.052887	-0.272557	-0.097841
H558	H	0.043953	-0.196176	-0.088232
H559	H	0.089280	-0.218825	-0.071848
H560	H	0.025322	-0.208892	-0.035389
H561	H	-0.233350	-0.346714	-0.509750
H562	H	-0.467082	-0.569754	0.040224
H563	H	-0.373212	-0.490223	0.026632
H564	H	-0.139870	-0.040113	-0.430176
C565	C	-0.470297	-0.848644	0.018722
C566	C	-0.433323	-0.901565	0.014740
C567	C	-0.458119	-0.928697	0.012677
H568	H	-0.510760	-0.831742	0.050229
H569	H	-0.471726	-0.848061	-0.011492
H570	H	-0.431901	-0.902145	0.044951
H571	H	-0.392860	-0.918482	-0.016766
H572	H	-0.459548	-0.928114	-0.017538
H573	H	-0.498581	-0.911790	0.044184
H574	H	-0.433033	-0.964608	0.009969
H575	H	0.253271	-0.019169	-0.554732
C576	C	0.260401	-0.018537	-0.712259
C577	C	0.309316	-0.014545	-0.728189
C578	C	0.334364	-0.012464	-0.780120
H579	H	0.275001	-0.050040	-0.735839
H580	H	0.229608	0.011680	-0.713097
H581	H	0.340103	-0.044759	-0.727355
H582	H	0.294731	0.016956	-0.704623
H583	H	0.303572	0.017753	-0.780958
H584	H	0.348962	-0.043968	-0.803695
H585	H	0.367552	-0.009751	-0.790933
H586	H	0.163208	-0.026470	-0.653142
H587	H	-0.089960	-0.026487	-0.653543
H588	H	-0.770177	-0.346778	0.026608
C589	C	-0.867376	-0.287657	0.018684
C590	C	-0.916294	-0.271726	0.014697
C591	C	-0.941350	-0.219791	0.012627
H592	H	-0.881976	-0.264083	0.050190
H593	H	-0.836587	-0.286813	-0.011530
H594	H	-0.947076	-0.272567	0.044909
H595	H	-0.901710	-0.295286	-0.016808
H596	H	-0.910562	-0.218946	-0.017588
H597	H	-0.955946	-0.196221	0.044134
H598	H	-0.974540	-0.208977	0.009916
H599	H	0.003536	-0.570083	-0.573284
C600	C	0.010738	-0.577073	-0.423054
C601	C	-0.023407	-0.542667	-0.371390
C602	C	0.003322	-0.568644	-0.345218
H603	H	0.010966	-0.608062	-0.421182
H604	H	0.051806	-0.587035	-0.442216
H605	H	-0.064464	-0.532712	-0.352233
H606	H	-0.023637	-0.511676	-0.373247
H607	H	0.044389	-0.578606	-0.364380
H608	H	0.003548	-0.599633	-0.343350
H609	H	-0.019839	-0.545302	-0.310163
H610	H	-0.142934	-0.444508	-0.698232
C611	C	-0.075571	-0.503935	-0.660645
C612	C	-0.030061	-0.504924	-0.707272
C613	C	0.023944	-0.556845	-0.734493
H614	H	-0.061770	-0.515014	-0.638485
H615	H	-0.083606	-0.527406	-0.669649
H616	H	-0.022025	-0.481462	-0.698266
H617	H	-0.043841	-0.493855	-0.729444
H618	H	0.015908	-0.580316	-0.743498
H619	H	0.037738	-0.567920	-0.712330
H620	H	0.054827	-0.557524	-0.766135
C621	C	0.156645	-0.736181	-0.660975
C622	C	0.202174	-0.737166	-0.707580
C623	C	0.177324	-0.710150	-0.734624
H624	H	0.142108	-0.753119	-0.669998
H625	H	0.123444	-0.700243	-0.638683
H626	H	0.235364	-0.773097	-0.729867
H627	H	0.216716	-0.720225	-0.698572
H628	H	0.144123	-0.674211	-0.712333
H629	H	0.162787	-0.727089	-0.743644
H630	H	0.208210	-0.710810	-0.766246
C631	C	0.260811	-0.848983	-0.548541
C632	C	0.309729	-0.901904	-0.581543
C633	C	0.334789	-0.929036	-0.554674
H634	H	0.275412	-0.832080	-0.539574
H635	H	0.230025	-0.848399	-0.516897
H636	H	0.340510	-0.902484	-0.613177
H637	H	0.295144	-0.918821	-0.590512
H638	H	0.304002	-0.928452	-0.523029
H639	H	0.349386	-0.912129	-0.545707
H640	H	0.367978	-0.964946	-0.577059
H641	H	-0.090272	-0.489868	-0.256471
C642	C	0.156938	-0.736638	-0.496320
C643	C	0.189467	-0.771830	-0.478059
C644	C	0.164718	-0.745092	-0.426093
H645	H	0.160183	-0.707454	-0.496210
H646	H	0.114837	-0.723818	-0.473562
H647	H	0.231558	-0.784642	-0.500811
H648	H	0.186225	-0.801014	-0.478156
H649	H	0.122617	-0.732273	-0.403336
H650	H	0.167964	-0.715910	-0.425988
H651	H	0.186781	-0.768967	-0.413695
