data_functionalizedCrystal
_audit_creation_method	'MofGen! by Chris Wilmer'
_symmetry_space_group_name_H-M	'P1'
_symmetry_Int_Tables_number	1
_symmetry_cell_setting	triclinic
loop_
_symmetry_equiv_pos_as_xyz
  x,y,z
_cell_length_a	23.532407
_cell_length_b	23.532407
_cell_length_c	22.610064
_cell_angle_alpha	90.003642
_cell_angle_beta	89.994072
_cell_angle_gamma	97.151322
loop_
_atom_site_label
_atom_site_type_symbol
_atom_site_fract_x
_atom_site_fract_y
_atom_site_fract_z
O1	O	0.069122	-0.755259	0.049117
O2	O	0.569122	-0.255259	0.549117
O3	O	0.079125	-0.589395	0.049135
O4	O	0.579125	-0.089395	0.549135
O5	O	-0.008808	-0.677329	0.049114
O6	O	0.491192	-0.177329	0.549114
O7	O	0.157056	-0.667325	0.049137
O8	O	0.657056	-0.167325	0.549137
O9	O	-0.008785	-0.677323	-0.049255
O10	O	0.491215	-0.177323	0.450745
O11	O	0.079148	-0.589389	-0.049234
O12	O	0.579148	-0.089389	0.450766
O13	O	0.069145	-0.755253	-0.049252
O14	O	0.569145	-0.255253	0.450748
Zn15	Zn	0.074150	-0.672320	-0.064862
Zn16	Zn	0.574150	-0.172320	0.435138
Zn17	Zn	0.074120	-0.672328	0.064744
Zn18	Zn	0.574120	-0.172328	0.564744
O19	O	0.157078	-0.667319	-0.049232
O20	O	0.657078	-0.167319	0.450768
C21	C	0.078882	-0.568176	-0.000048
C22	C	0.578882	-0.068176	0.499952
C23	C	0.078116	-0.504959	-0.000041
C24	C	0.578116	-0.004959	0.499959
C25	C	-0.030013	-0.677071	-0.000072
C26	C	0.469987	-0.177071	0.499928
C27	C	-0.093230	-0.676305	-0.000076
C28	C	0.406770	-0.176305	0.499924
C29	C	0.069388	-0.776472	-0.000069
C30	C	0.569388	-0.276472	0.499931
C31	C	0.070154	-0.839689	-0.000071
C32	C	0.570154	-0.339689	0.499929
C33	C	-0.492333	-0.723539	-0.000049
C34	C	0.007667	-0.223539	0.499951
C35	C	-0.551733	-0.722827	-0.000044
C36	C	-0.051733	-0.222827	0.499956
O37	O	-0.588478	-0.766613	-0.000027
O38	O	-0.088478	-0.266613	0.499973
N39	N	-0.574359	-0.670551	-0.000039
N40	N	-0.074359	-0.170551	0.499961
C41	C	-0.537582	-0.618983	-0.000032
C42	C	-0.037582	-0.118983	0.499968
O43	O	-0.562281	-0.574452	-0.000027
O44	O	-0.062281	-0.074452	0.499973
C45	C	-0.478182	-0.619695	-0.000033
C46	C	0.021818	-0.119695	0.499967
C47	C	-0.455560	-0.671974	-0.000044
C48	C	0.044440	-0.171974	0.499956
C49	C	-0.469710	-0.775814	-0.000060
C50	C	0.030290	-0.275814	0.499940
C51	C	-0.410313	-0.776525	-0.000065
C52	C	0.089687	-0.276525	0.499935
C53	C	-0.373540	-0.724961	-0.000060
C54	C	0.126460	-0.224961	0.499940
C55	C	-0.396164	-0.672685	-0.000050
C56	C	0.103836	-0.172685	0.499950
C57	C	-0.441406	-0.568127	-0.000022
C58	C	0.058594	-0.068127	0.499978
C59	C	-0.382004	-0.568844	-0.000021
C60	C	0.117996	-0.068844	0.499979
C61	C	-0.359381	-0.621123	-0.000033
C62	C	0.140619	-0.121123	0.499967
C63	C	-0.299995	-0.621832	-0.000050
C64	C	0.200005	-0.121832	0.499950
N65	N	-0.277368	-0.674109	-0.000056
N66	N	0.222632	-0.174109	0.499944
C67	C	-0.314141	-0.725673	-0.000061
C68	C	0.185859	-0.225673	0.499939
C69	C	-0.662324	-0.617491	-0.000031
C70	C	-0.162324	-0.117491	0.499969
C71	C	-0.721722	-0.616778	-0.000034
C72	C	-0.221722	-0.116778	0.499966
C73	C	-0.735869	-0.720623	-0.000045
C74	C	-0.235869	-0.220623	0.499955
C75	C	-0.676470	-0.721335	-0.000046
C76	C	-0.176470	-0.221335	0.499954
C77	C	-0.639698	-0.669767	-0.000036
C78	C	-0.139698	-0.169767	0.499964
C79	C	-0.189405	-0.727163	-0.000073
C80	C	0.310595	-0.227163	0.499927
C81	C	-0.130003	-0.727869	-0.000081
C82	C	0.369997	-0.227869	0.499919
C83	C	-0.115860	-0.624025	-0.000067
C84	C	0.384140	-0.124025	0.499933
C85	C	-0.175257	-0.623318	-0.000062
C86	C	0.324743	-0.123318	0.499938
C87	C	-0.212029	-0.674891	-0.000063
C88	C	0.287971	-0.174891	0.499937
O89	O	-0.263215	-0.578070	-0.000065
O90	O	0.236785	-0.078070	0.499935
O91	O	-0.289433	-0.770196	-0.000058
O92	O	0.210567	-0.270196	0.499942
C93	C	0.178283	-0.667577	-0.000045
C94	C	0.678283	-0.167577	0.499955
C95	C	0.241500	-0.668343	-0.000036
C96	C	0.741500	-0.168343	0.499964
N97	N	0.074170	-0.672319	-0.153314
N98	N	0.574170	-0.172319	0.346686
C99	C	0.125350	-0.105856	-0.000061
C100	C	0.625350	0.394144	0.499939
C101	C	0.124638	-0.046456	-0.000065
C102	C	0.624638	0.453544	0.499935
O103	O	0.168424	-0.009711	-0.000081
O104	O	0.668424	0.490289	0.499919
N105	N	0.072362	-0.023830	-0.000071
N106	N	0.572362	0.476170	0.499929
C107	C	0.020794	-0.060607	-0.000080
C108	C	0.520794	0.439393	0.499920
O109	O	-0.023737	-0.035908	-0.000086
O110	O	0.476263	0.464092	0.499914
C111	C	0.021506	-0.120006	-0.000080
C112	C	0.521506	0.379994	0.499920
C113	C	0.073785	-0.142629	-0.000068
C114	C	0.573785	0.357371	0.499932
C115	C	0.177625	-0.128479	-0.000050
C116	C	0.677625	0.371521	0.499950
C117	C	0.178336	-0.187876	-0.000045
C118	C	0.678336	0.312124	0.499955
C119	C	0.126772	-0.224649	-0.000052
C120	C	0.626772	0.275351	0.499948
C121	C	0.074497	-0.202025	-0.000063
C122	C	0.574497	0.297975	0.499937
C123	C	-0.030062	-0.156783	-0.000093
C124	C	0.469938	0.343217	0.499907
C125	C	-0.029345	-0.216185	-0.000094
C126	C	0.470655	0.283815	0.499906
C127	C	0.022934	-0.238808	-0.000082
C128	C	0.522934	0.261192	0.499918
C129	C	0.023643	-0.298194	-0.000065
C130	C	0.523643	0.201806	0.499935
N131	N	0.075920	-0.320820	-0.000059
N132	N	0.575920	0.179180	0.499941
C133	C	0.127484	-0.284048	-0.000052
C134	C	0.627484	0.215952	0.499948
C135	C	0.019302	0.064135	-0.000080
C136	C	0.519302	0.564135	0.499920
C137	C	0.018589	0.123533	-0.000075
C138	C	0.518589	0.623533	0.499925
C139	C	0.122434	0.137680	-0.000061
C140	C	0.622434	0.637680	0.499939
C141	C	0.123146	0.078281	-0.000062
C142	C	0.623146	0.578281	0.499938
C143	C	0.071578	0.041509	-0.000074
C144	C	0.571578	0.541509	0.499926
C145	C	0.128974	-0.408784	-0.000042
C146	C	0.628974	0.091216	0.499958
C147	C	0.129680	-0.468186	-0.000034
C148	C	0.629680	0.031814	0.499966
C149	C	0.025836	-0.482329	-0.000051
C150	C	0.525836	0.017671	0.499949
C151	C	0.025129	-0.422932	-0.000055
C152	C	0.525129	0.077068	0.499945
C153	C	0.076702	-0.386160	-0.000052
C154	C	0.576702	0.113840	0.499948
O155	O	-0.020119	-0.334974	-0.000052
O156	O	0.479881	0.165026	0.499948
O157	O	0.172007	-0.308755	-0.000054
O158	O	0.672007	0.191245	0.499946
C159	C	0.113059	-0.633369	-0.438153
C160	C	0.613059	-0.133369	0.061847
C161	C	0.113065	-0.633368	-0.376233
C162	C	0.613065	-0.133368	0.123767
O163	O	0.146156	-0.600234	-0.344207
O164	O	0.646156	-0.100234	0.155793
N165	N	0.074147	-0.672315	-0.345266
N166	N	0.574147	-0.172315	0.154734
C167	C	0.035217	-0.711262	-0.376223
C168	C	0.535217	-0.211262	0.123777
O169	O	0.002114	-0.744389	-0.344197
O170	O	0.502114	-0.244389	0.155803
C171	C	0.035209	-0.711260	-0.438141
C172	C	0.535209	-0.211260	0.061859
C173	C	0.074134	-0.672315	-0.469105
C174	C	0.574134	-0.172315	0.030895
C175	C	0.151980	-0.594426	-0.469117
C176	C	0.651980	-0.094426	0.030883
C177	C	0.151975	-0.594429	-0.531032
C178	C	0.651975	-0.094429	-0.031032
C179	C	0.113050	-0.633374	-0.561984
C180	C	0.613050	-0.133374	-0.061984
C181	C	0.074129	-0.672317	-0.531021
C182	C	0.574129	-0.172317	-0.031021
C183	C	-0.003723	-0.750205	-0.469097
C184	C	0.496277	-0.250205	0.030903
C185	C	-0.003728	-0.750199	-0.531020
C186	C	0.496272	-0.250199	-0.031020
C187	C	0.035197	-0.711254	-0.561983
C188	C	0.535197	-0.211254	-0.061983
C189	C	0.035198	-0.711265	-0.623888
C190	C	0.535198	-0.211265	-0.123888
N191	N	0.074116	-0.672318	-0.654855
N192	N	0.574116	-0.172318	-0.154855
C193	C	0.113042	-0.633373	-0.623903
C194	C	0.613042	-0.133373	-0.123903
C195	C	0.035235	-0.711262	-0.246189
C196	C	0.535235	-0.211262	0.253811
C197	C	0.035245	-0.711266	-0.184271
C198	C	0.535245	-0.211266	0.315729
C199	C	0.113093	-0.633371	-0.184286
C200	C	0.613093	-0.133371	0.315714
C201	C	0.113085	-0.633370	-0.246205
C202	C	0.613085	-0.133370	0.253795
C203	C	0.074154	-0.672315	-0.277156
C204	C	0.574154	-0.172315	0.222844
C205	C	0.113029	-0.633381	-0.753930
C206	C	0.613029	-0.133381	-0.253930
C207	C	0.113022	-0.633388	-0.815852
C208	C	0.613022	-0.133388	-0.315852
C209	C	0.035173	-0.711281	-0.815831
C210	C	0.535173	-0.211281	-0.315831
C211	C	0.035181	-0.711276	-0.753916
C212	C	0.535181	-0.211276	-0.253916
C213	C	0.074111	-0.672321	-0.722967
C214	C	0.574111	-0.172321	-0.222967
O215	O	0.002122	-0.744380	-0.655954
O216	O	0.502122	-0.244380	-0.155954
O217	O	0.146134	-0.600246	-0.655936
O218	O	0.646134	-0.100246	-0.155936
N219	N	0.074096	-0.672334	0.153196
N220	N	0.574096	-0.172334	0.653196
H221	H	-0.111587	-0.770443	-0.000092
H222	H	0.388413	-0.270443	0.499908
C223	C	-0.007096	-0.753463	-0.279822
C224	C	0.492904	-0.253463	0.220178
C225	C	-0.041825	-0.723333	-0.315347
C226	C	0.458175	-0.223333	0.184653
C227	C	-0.080832	-0.762188	-0.346329
C228	C	0.419168	-0.262188	0.153671
H229	H	0.013201	-0.777069	-0.304031
H230	H	0.513201	-0.277069	0.195969
H231	H	-0.030303	-0.776649	-0.252526
H232	H	0.469697	-0.276649	0.247474
H233	H	-0.018621	-0.700157	-0.342640
H234	H	0.481379	-0.200157	0.157360
H235	H	-0.062135	-0.699729	-0.291153
H236	H	0.437865	-0.199729	0.208847
H237	H	-0.104039	-0.785374	-0.319033
H238	H	0.395961	-0.285374	0.180967
H239	H	-0.060530	-0.785791	-0.370535
H240	H	0.439470	-0.285791	0.129465
H241	H	-0.104404	-0.741750	-0.370432
H242	H	0.395596	-0.241750	0.129568
H243	H	0.144721	-0.601674	-0.841060
H244	H	0.644721	-0.101674	-0.341060
H245	H	0.220908	-0.206289	-0.000035
H246	H	0.720908	0.293711	0.499965
H247	H	-0.391900	-0.819097	-0.000072
H248	H	0.108100	-0.319097	0.499928
H249	H	0.164421	0.167632	-0.000059
H250	H	0.664421	0.667632	0.499941
C251	C	-0.465846	-0.511306	0.000024
C252	C	0.034154	-0.011306	0.500024
C253	C	-0.420918	-0.466308	0.000048
C254	C	0.079082	0.033692	0.500048
C255	C	-0.443409	-0.413953	0.000099
C256	C	0.056591	0.086047	0.500099
H257	H	-0.488712	-0.508777	-0.034267
H258	H	0.011288	-0.008777	0.465733
H259	H	-0.488708	-0.508840	0.034344
H260	H	0.011292	-0.008840	0.534344
H261	H	-0.398067	-0.468772	-0.034269
H262	H	0.101933	0.031228	0.465731
H263	H	-0.398048	-0.468819	0.034337
H264	H	0.101952	0.031181	0.534337
H265	H	-0.466270	-0.411488	0.034419
H266	H	0.033730	0.088512	0.534419
H267	H	-0.466275	-0.411430	-0.034193
H268	H	0.033725	0.088570	0.465807
H269	H	-0.412929	-0.383416	0.000121
H270	H	0.087071	0.116584	0.500121
H271	H	-0.085909	-0.582043	-0.000065
H272	H	0.414091	-0.082043	0.499935
C273	C	0.194313	-0.552115	-0.435625
C274	C	0.694313	-0.052115	0.064375
C275	C	0.228401	-0.518025	-0.476007
C276	C	0.728401	-0.018025	0.023993
C277	C	0.267415	-0.479047	-0.445182
C278	C	0.767415	0.020953	0.054818
H279	H	0.174024	-0.528466	-0.411460
H280	H	0.674024	-0.028466	0.088540
H281	H	0.217955	-0.572451	-0.411494
H282	H	0.717955	-0.072451	0.088506
H283	H	0.204762	-0.497690	-0.500128
H284	H	0.704762	0.002310	-0.000128
H285	H	0.248703	-0.541658	-0.500174
H286	H	0.748703	-0.041658	-0.000174
H287	H	0.291057	-0.499383	-0.421051
H288	H	0.791057	0.000617	0.078949
H289	H	0.247120	-0.455402	-0.421017
H290	H	0.747120	0.044598	0.078983
H291	H	0.290551	-0.455916	-0.472576
H292	H	0.790551	0.044084	0.027424
H293	H	0.183670	-0.562714	-0.556239
H294	H	0.683670	-0.062714	-0.056239
C295	C	-0.045987	-0.792376	-0.435356
C296	C	0.454013	-0.292376	0.064644
C297	C	-0.015972	-0.827100	-0.399703
C298	C	0.484028	-0.327100	0.100297
C299	C	-0.054930	-0.865882	-0.368573
C300	C	0.445070	-0.365882	0.131427
H301	H	-0.069501	-0.771906	-0.411221
H302	H	0.430499	-0.271906	0.088779
H303	H	-0.069255	-0.815608	-0.462563
H304	H	0.430745	-0.315608	0.037437
H305	H	0.007286	-0.803872	-0.372499
H306	H	0.507286	-0.303872	0.127501
H307	H	0.007540	-0.847583	-0.423823
H308	H	0.507540	-0.347583	0.076177
H309	H	-0.078198	-0.889114	-0.395781
H310	H	0.421802	-0.389114	0.104219
H311	H	-0.078442	-0.845408	-0.344442
H312	H	0.421558	-0.345408	0.155558
H313	H	-0.034570	-0.889451	-0.344384
H314	H	0.465430	-0.389451	0.155616
H315	H	-0.035433	-0.781913	-0.556217
H316	H	0.464567	-0.281913	-0.056217
H317	H	-0.632386	-0.575496	-0.000028
H318	H	-0.132386	-0.075496	0.499972
H319	H	-0.022693	0.034198	-0.000084
H320	H	0.477307	0.534198	0.499916
C321	C	-0.006943	-0.753710	-0.720312
C322	C	0.493057	-0.253710	-0.220312
C323	C	0.023283	-0.788397	-0.684837
C324	C	0.523283	-0.288397	-0.184837
C325	C	-0.015487	-0.827533	-0.653906
C326	C	0.484513	-0.327533	-0.153906
H327	H	-0.030611	-0.733513	-0.696073
H328	H	0.469389	-0.233513	-0.196073
H329	H	-0.030072	-0.776933	-0.747638
H330	H	0.469928	-0.276933	-0.247638
H331	H	0.046403	-0.765177	-0.657515
H332	H	0.546403	-0.265177	-0.157515
H333	H	0.046949	-0.808607	-0.709062
H334	H	0.546949	-0.308607	-0.209062
H335	H	-0.038617	-0.850756	-0.681232
H336	H	0.461383	-0.350756	-0.181232
H337	H	-0.039154	-0.807331	-0.629670
H338	H	0.460846	-0.307331	-0.129670
H339	H	0.005015	-0.851076	-0.629837
H340	H	0.505015	-0.351076	-0.129837
H341	H	0.003481	-0.742992	-0.841042
H342	H	0.503481	-0.242992	-0.341042
H343	H	-0.219337	-0.769159	-0.000071
H344	H	0.280663	-0.269159	0.499929
C345	C	-0.086883	-0.132343	-0.000143
C346	C	0.413117	0.367657	0.499857
C347	C	-0.131881	-0.177271	-0.000170
C348	C	0.368119	0.322729	0.499830
C349	C	-0.184236	-0.154780	-0.000226
C350	C	0.315764	0.345220	0.499774
H351	H	-0.089420	-0.109471	0.034148
H352	H	0.410580	0.390529	0.534148
H353	H	-0.089341	-0.109486	-0.034464
H354	H	0.410659	0.390514	0.465536
H355	H	-0.129424	-0.200117	0.034147
H356	H	0.370576	0.299883	0.534147
H357	H	-0.129363	-0.200146	-0.034458
H358	H	0.370637	0.299854	0.465542
H359	H	-0.186693	-0.131924	-0.034547
H360	H	0.313307	0.368076	0.465453
H361	H	-0.186767	-0.131909	0.034065
H362	H	0.313233	0.368091	0.534065
H363	H	-0.214773	-0.185260	-0.000250
H364	H	0.285227	0.314740	0.499750
C365	C	-0.775707	-0.776671	-0.000075
C366	C	-0.275707	-0.276671	0.499925
C367	C	-0.743187	-0.822610	-0.000096
C368	C	-0.243187	-0.322610	0.499904
C369	C	-0.779867	-0.874245	-0.000131
C370	C	-0.279867	-0.374245	0.499869
H371	H	-0.799187	-0.778629	0.034221
H372	H	-0.299187	-0.278629	0.534221
H373	H	-0.799164	-0.778579	-0.034391
H374	H	-0.299164	-0.278579	0.465609
H375	H	-0.719740	-0.820702	0.034217
H376	H	-0.219740	-0.320702	0.534217
H377	H	-0.719708	-0.820670	-0.034389
H378	H	-0.219708	-0.320670	0.465611
H379	H	-0.803323	-0.876154	-0.034447
H380	H	-0.303323	-0.376154	0.465553
H381	H	-0.803345	-0.876198	0.034165
H382	H	-0.303345	-0.376198	0.534165
H383	H	-0.757807	-0.905421	-0.000151
H384	H	-0.257807	-0.405421	0.499849
H385	H	-0.071339	-0.246123	-0.000104
H386	H	0.428661	0.253877	0.499896
H387	H	-0.499645	-0.817806	-0.000061
H388	H	0.000355	-0.317806	0.499939
C389	C	-0.038231	0.147980	-0.000111
C390	C	0.461769	0.647980	0.499889
C391	C	-0.083232	0.103055	-0.000130
C392	C	0.416768	0.603055	0.499870
C393	C	-0.135584	0.125551	-0.000174
C394	C	0.364416	0.625551	0.499826
H395	H	-0.040759	0.170851	0.034181
H396	H	0.459241	0.670851	0.534181
H397	H	-0.040693	0.170837	-0.034430
H398	H	0.459307	0.670837	0.465570
H399	H	-0.080771	0.080208	0.034186
H400	H	0.419229	0.580208	0.534186
H401	H	-0.080722	0.080180	-0.034419
H402	H	0.419278	0.580180	0.465581
H403	H	-0.138046	0.148408	-0.034494
H404	H	0.361954	0.648408	0.465506
H405	H	-0.138106	0.148422	0.034118
H406	H	0.361894	0.648422	0.534118
H407	H	-0.166123	0.095074	-0.000193
H408	H	0.333877	0.595074	0.499807
H409	H	-0.658056	-0.763906	-0.000054
H410	H	-0.158056	-0.263906	0.499946
H411	H	0.170970	-0.378851	-0.000041
H412	H	0.670970	0.121149	0.499959
H413	H	-0.352066	-0.526850	-0.000013
H414	H	0.147934	-0.026850	0.499987
C415	C	-0.007118	-0.753424	-0.150629
C416	C	0.492882	-0.253424	0.349371
C417	C	-0.041812	-0.723228	-0.115118
C418	C	0.458188	-0.223228	0.384882
C419	C	-0.080878	-0.762025	-0.084136
C420	C	0.419122	-0.262025	0.415864
H421	H	-0.030350	-0.776591	-0.177906
H422	H	0.469650	-0.276591	0.322094
H423	H	0.013150	-0.777053	-0.126413
H424	H	0.513150	-0.277053	0.373587
H425	H	-0.062079	-0.699609	-0.139333
H426	H	0.437921	-0.199609	0.360667
H427	H	-0.018596	-0.700063	-0.087830
H428	H	0.481404	-0.200063	0.412170
H429	H	-0.060610	-0.785655	-0.059920
H430	H	0.439390	-0.285655	0.440080
H431	H	-0.104106	-0.785191	-0.111418
H432	H	0.395894	-0.285191	0.388582
H433	H	-0.104419	-0.741543	-0.060035
H434	H	0.395581	-0.241543	0.439965
C435	C	0.186503	-0.492636	-0.000053
C436	C	0.686503	0.007364	0.499947
C437	C	0.231506	-0.447714	-0.000066
C438	C	0.731506	0.052286	0.499934
C439	C	0.283857	-0.470213	-0.000093
C440	C	0.783857	0.029787	0.499907
H441	H	0.189015	-0.515501	0.034243
H442	H	0.689015	-0.015501	0.534243
H443	H	0.188979	-0.515500	-0.034369
H444	H	0.688979	-0.015500	0.465631
H445	H	0.229032	-0.424859	0.034246
H446	H	0.729032	0.075141	0.534246
H447	H	0.229013	-0.424845	-0.034360
H448	H	0.729013	0.075155	0.465640
H449	H	0.286333	-0.493077	-0.034408
H450	H	0.786333	0.006923	0.465592
H451	H	0.286363	-0.493077	0.034204
H452	H	0.786363	0.006923	0.534204
H453	H	0.314398	-0.439737	-0.000107
H454	H	0.814398	0.060263	0.499893
C455	C	-0.199903	-0.566601	0.000037
C456	C	0.300097	-0.066601	0.500037
C457	C	-0.233600	-0.563169	0.050645
C458	C	0.266400	-0.063169	0.550645
C459	C	-0.256315	-0.510933	0.050758
C460	C	0.243685	-0.010933	0.550758
H461	H	-0.169553	-0.535943	0.000067
H462	H	0.330447	-0.035943	0.500067
H463	H	-0.222815	-0.564157	-0.034244
H464	H	0.277185	-0.064157	0.465756
H465	H	-0.210689	-0.565607	0.084917
H466	H	0.289311	-0.065607	0.584917
H467	H	-0.263959	-0.593815	0.050625
H468	H	0.236041	-0.093815	0.550625
H469	H	-0.279227	-0.508490	0.016477
H470	H	0.220773	-0.008490	0.516477
H471	H	-0.225962	-0.480279	0.050787
H472	H	0.274038	0.019721	0.550787
H473	H	-0.279185	-0.508600	0.085092
H474	H	0.220815	-0.008600	0.585092
C475	C	0.233676	-0.088655	-0.000009
C476	C	0.733676	0.411345	0.499991
C477	C	0.279602	-0.121193	0.000015
C478	C	0.779602	0.378807	0.500015
C479	C	0.331248	-0.084531	0.000066
C480	C	0.831248	0.415469	0.500066
H481	H	0.235655	-0.065174	-0.034301
H482	H	0.735655	0.434826	0.465699
H483	H	0.235582	-0.065198	0.034310
H484	H	0.735582	0.434802	0.534310
H485	H	0.277697	-0.144640	-0.034301
H486	H	0.777697	0.355360	0.465699
H487	H	0.277642	-0.144673	0.034305
H488	H	0.777642	0.355327	0.534305
H489	H	0.333154	-0.061075	0.034385
H490	H	0.833154	0.438925	0.534385
H491	H	0.333221	-0.061052	-0.034227
H492	H	0.833221	0.438948	0.465773
H493	H	0.362414	-0.106603	0.000088
H494	H	0.862414	0.393397	0.500088
C495	C	-0.031613	-0.398332	0.000058
C496	C	0.468387	0.101668	0.500058
C497	C	-0.035075	-0.364646	0.050667
C498	C	0.464925	0.135354	0.550667
C499	C	-0.087340	-0.341986	0.050789
C500	C	0.412660	0.158014	0.550789
H501	H	-0.034096	-0.375422	-0.034210
H502	H	0.465904	0.124578	0.465790
H503	H	-0.062239	-0.428725	0.000088
H504	H	0.437761	0.071275	0.500088
H505	H	-0.004458	-0.334257	0.050631
H506	H	0.495542	0.165743	0.550631
H507	H	-0.032602	-0.387544	0.084943
H508	H	0.467398	0.112456	0.584943
H509	H	-0.117966	-0.372380	0.050819
H510	H	0.382034	0.127620	0.550819
H511	H	-0.089818	-0.319079	0.016519
H512	H	0.410182	0.180921	0.516519
H513	H	-0.089698	-0.319132	0.085129
H514	H	0.410302	0.180868	0.585129
C515	C	0.155363	-0.591065	-0.720442
C516	C	0.655363	-0.091065	-0.220442
C517	C	0.189453	-0.556976	-0.760821
C518	C	0.689453	-0.056976	-0.260821
C519	C	0.228465	-0.517997	-0.729994
C520	C	0.728465	-0.017997	-0.229994
H521	H	0.135071	-0.567416	-0.696279
H522	H	0.635071	-0.067416	-0.196279
H523	H	0.179002	-0.611400	-0.696308
H524	H	0.679002	-0.111400	-0.196308
H525	H	0.165817	-0.536642	-0.784945
H526	H	0.665817	-0.036642	-0.284945
H527	H	0.209758	-0.580609	-0.784986
H528	H	0.709758	-0.080609	-0.284986
H529	H	0.252105	-0.538333	-0.705860
H530	H	0.752105	-0.038333	-0.205860
H531	H	0.208168	-0.494352	-0.705832
H532	H	0.708168	0.005648	-0.205832
H533	H	0.251603	-0.494867	-0.757387
H534	H	0.751603	0.005133	-0.257387
C535	C	0.155251	-0.591055	-0.279896
C536	C	0.655251	-0.091055	0.220104
C537	C	0.125086	-0.556373	-0.315441
C538	C	0.625086	-0.056373	0.184559
C539	C	0.163910	-0.517388	-0.346488
C540	C	0.663910	-0.017388	0.153512
H541	H	0.178451	-0.567807	-0.252658
H542	H	0.678451	-0.067807	0.247342
H543	H	0.178846	-0.611387	-0.304095
H544	H	0.678846	-0.111387	0.195905
H545	H	0.101501	-0.536043	-0.291245
H546	H	0.601501	-0.036043	0.208755
H547	H	0.101888	-0.579604	-0.342691
H548	H	0.601888	-0.079604	0.157309
H549	H	0.187505	-0.537720	-0.370687
H550	H	0.687505	-0.037720	0.129313
H551	H	0.187108	-0.494145	-0.319245
H552	H	0.687108	0.005855	0.180755
H553	H	0.143449	-0.493856	-0.370613
H554	H	0.643449	0.006144	0.129387
H555	H	0.144788	-0.601659	-0.159074
H556	H	0.644788	-0.101659	0.340926
H557	H	-0.740136	-0.574207	-0.000035
H558	H	-0.240136	-0.074207	0.499965
H559	H	0.165717	0.059867	-0.000055
H560	H	0.665717	0.559867	0.499945
H561	H	-0.016146	-0.512280	-0.000054
H562	H	0.483854	-0.012280	0.499946
