data_functionalizedCrystal
_audit_creation_method	'MofGen! by Chris Wilmer'
_symmetry_space_group_name_H-M	'P1'
_symmetry_Int_Tables_number	1
_symmetry_cell_setting	triclinic
loop_
_symmetry_equiv_pos_as_xyz
  x,y,z
_cell_length_a	23.532355
_cell_length_b	22.610064
_cell_length_c	23.532407
_cell_angle_alpha	89.996958
_cell_angle_beta	82.838087
_cell_angle_gamma	90.009453
loop_
_atom_site_label
_atom_site_type_symbol
_atom_site_fract_x
_atom_site_fract_y
_atom_site_fract_z
O1	O	0.755288	0.049095	0.068993
O2	O	1.088621	0.382428	0.402326
O3	O	1.421954	0.715761	0.735659
O4	O	0.589420	0.049112	0.079027
O5	O	0.922753	0.382446	0.412360
O6	O	1.256087	0.715779	0.745694
O7	O	0.677356	0.049110	-0.008923
O8	O	1.010689	0.382444	0.324411
O9	O	1.344022	0.715777	0.657744
O10	O	0.667352	0.049097	0.156942
O11	O	1.000686	0.382430	0.490276
O12	O	1.334019	0.715763	0.823609
O13	O	0.677330	-0.049259	-0.008923
O14	O	1.010663	0.284075	0.324411
O15	O	1.343997	0.617408	0.657744
O16	O	0.589394	-0.049257	0.079027
O17	O	0.922728	0.284076	0.412360
O18	O	1.256061	0.617410	0.745694
O19	O	0.755262	-0.049274	0.068993
O20	O	1.088595	0.284059	0.402326
O21	O	1.421929	0.617392	0.735659
Zn22	Zn	0.672324	-0.064884	0.074010
Zn23	Zn	1.005658	0.268449	0.407343
Zn24	Zn	1.338991	0.601783	0.740677
Zn25	Zn	0.672358	0.064722	0.074010
Zn26	Zn	1.005691	0.398055	0.407343
Zn27	Zn	1.339025	0.731388	0.740676
O28	O	0.667327	-0.049273	0.156942
O29	O	1.000660	0.284061	0.490276
O30	O	1.333993	0.617394	0.823609
C31	C	0.568191	-0.000070	0.078776
C32	C	0.901524	0.333263	0.412109
C33	C	1.234857	0.666597	0.745443
C34	C	0.504972	-0.000063	0.078022
C35	C	0.838305	0.333271	0.411355
C36	C	1.171639	0.666604	0.744689
N37	N	0.672305	-0.153336	0.074009
N38	N	1.005639	0.179997	0.407343
N39	N	1.338972	0.513330	0.740676
C40	C	0.112944	-0.053708	0.073284
C41	C	0.446278	0.279625	0.406617
C42	C	0.779611	0.612959	0.739951
C43	C	0.053545	-0.053710	0.072566
C44	C	0.386878	0.279623	0.405900
C45	C	0.720212	0.612956	0.739233
O46	O	0.022814	-0.099312	0.072176
O47	O	0.356148	0.234021	0.405509
O48	O	0.689481	0.567354	0.738843
N49	N	0.023850	-0.000090	0.072211
N50	N	0.357184	0.333244	0.405544
N51	N	0.690517	0.666577	0.738877
C52	C	0.053559	0.053537	0.072567
C53	C	0.386893	0.386870	0.405900
C54	C	0.720226	0.720204	0.739233
O55	O	0.022847	0.099146	0.072198
O56	O	0.356181	0.432479	0.405531
O57	O	0.689514	0.765812	0.738864
C58	C	0.112958	0.053539	0.073280
C59	C	0.446291	0.386872	0.406613
C60	C	0.779625	0.720205	0.739947
C61	C	0.142649	-0.000086	0.073641
C62	C	0.475982	0.333248	0.406975
C63	C	0.809315	0.666581	0.740308
C64	C	0.142635	-0.107328	0.073645
C65	C	0.475968	0.226005	0.406978
C66	C	0.809302	0.559338	0.740311
C67	C	0.202030	-0.107326	0.074363
C68	C	0.535364	0.226008	0.407697
C69	C	0.868697	0.559341	0.741030
C70	C	0.231735	-0.053703	0.074721
C71	C	0.565068	0.279630	0.408054
C72	C	0.898401	0.612963	0.741387
C73	C	0.202044	-0.000083	0.074360
C74	C	0.535377	0.333250	0.407693
C75	C	0.868711	0.666583	0.741027
C76	C	0.142666	0.107165	0.073632
C77	C	0.476000	0.440498	0.406965
C78	C	0.809333	0.773831	0.740298
C79	C	0.202069	0.107162	0.074345
C80	C	0.535403	0.440495	0.407678
C81	C	0.868736	0.773828	0.741011
C82	C	0.231760	0.053537	0.074706
C83	C	0.565093	0.386871	0.408040
C84	C	0.898427	0.720204	0.741373
C85	C	0.291143	0.053542	0.075436
C86	C	0.624477	0.386875	0.408769
C87	C	0.957810	0.720208	0.742103
N88	N	0.320838	-0.000079	0.075792
N89	N	0.654171	0.333254	0.409125
N90	N	0.987505	0.666587	0.742458
C91	C	0.291134	-0.053702	0.075434
C92	C	0.624467	0.279632	0.408768
C93	C	0.957800	0.612965	0.742101
C94	C	-0.071182	0.053530	0.071068
C95	C	0.262151	0.386863	0.404401
C96	C	0.595484	0.720196	0.737734
C97	C	-0.130581	0.053529	0.070358
C98	C	0.202753	0.386862	0.403692
C99	C	0.536086	0.720195	0.737025
C100	C	-0.130591	-0.053719	0.070357
C101	C	0.202743	0.279614	0.403690
C102	C	0.536076	0.612948	0.737024
C103	C	-0.071192	-0.053717	0.071070
C104	C	0.262141	0.279616	0.404404
C105	C	0.595475	0.612949	0.737737
C106	C	-0.041488	-0.000091	0.071423
C107	C	0.291845	0.333242	0.404757
C108	C	0.625179	0.666575	0.738090
C109	C	0.415868	-0.053692	0.076944
C110	C	0.749201	0.279641	0.410277
C111	C	1.082534	0.612974	0.743610
C112	C	0.475268	-0.053685	0.077664
C113	C	0.808601	0.279648	0.410998
C114	C	1.141934	0.612981	0.744331
C115	C	0.475273	0.053562	0.077663
C116	C	0.808606	0.386895	0.410996
C117	C	1.141940	0.720229	0.744329
C118	C	0.415878	0.053555	0.076945
C119	C	0.749211	0.386889	0.410278
C120	C	1.082544	0.720222	0.743611
C121	C	0.386177	-0.000077	0.076583
C122	C	0.719510	0.333257	0.409917
C123	C	1.052843	0.666590	0.743250
O124	O	0.321912	0.099120	0.075825
O125	O	0.655245	0.432454	0.409158
O126	O	0.988579	0.765787	0.742491
O127	O	0.321853	-0.099303	0.075796
O128	O	0.655187	0.234031	0.409129
O129	O	0.988520	0.567364	0.742462
C130	C	0.706704	-0.561985	0.108364
C131	C	1.040037	-0.228651	0.441697
C132	C	1.373370	0.104682	0.775031
C133	C	0.706711	-0.623905	0.108362
C134	C	1.040044	-0.290571	0.441696
C135	C	1.373377	0.042762	0.775029
O136	O	0.735935	-0.655929	0.137568
O137	O	1.069268	-0.322596	0.470901
O138	O	1.402601	0.010737	0.804235
N139	N	0.672369	-0.654874	0.074003
N140	N	1.005702	-0.321540	0.407337
N141	N	1.339036	0.011793	0.740670
C142	C	0.638022	-0.623919	0.039639
C143	C	0.971356	-0.290586	0.372972
C144	C	1.304689	0.042747	0.706306
O145	O	0.608813	-0.655946	0.010413
O146	O	0.942146	-0.322613	0.343747
O147	O	1.275480	0.010720	0.677080
C148	C	0.638019	-0.562000	0.039638
C149	C	0.971352	-0.228667	0.372971
C150	C	1.304685	0.104666	0.706304
C151	C	0.672358	-0.531035	0.074003
C152	C	1.005691	-0.197701	0.407337
C153	C	1.339025	0.135632	0.740670
C154	C	0.741041	-0.531019	0.142726
C155	C	1.074374	-0.197686	0.476060
C156	C	1.407708	0.135648	0.809393
C157	C	0.741033	-0.469103	0.142728
C158	C	1.074366	-0.135770	0.476062
C159	C	1.407699	0.197563	0.809395
C160	C	0.706687	-0.438153	0.108368
C161	C	1.040021	-0.104820	0.441701
C162	C	1.373354	0.228513	0.775035
C163	C	0.672350	-0.469119	0.074006
C164	C	1.005683	-0.135786	0.407339
C165	C	1.339017	0.197547	0.740672
C166	C	0.603675	-0.531047	0.005271
C167	C	0.937009	-0.197714	0.338604
C168	C	1.270342	0.135619	0.671937
C169	C	0.603675	-0.469124	0.005272
C170	C	0.937008	-0.135791	0.338605
C171	C	1.270341	0.197542	0.671939
C172	C	0.638014	-0.438159	0.039638
C173	C	0.971348	-0.104825	0.372971
C174	C	1.304681	0.228508	0.706305
C175	C	0.637997	-0.376254	0.039647
C176	C	0.971330	-0.042920	0.372981
C177	C	1.304663	0.290413	0.706314
N178	N	0.672338	-0.345285	0.074006
N179	N	1.005672	-0.011951	0.407340
N180	N	1.339005	0.321382	0.740673
C181	C	0.706684	-0.376235	0.108367
C182	C	1.040017	-0.042901	0.441700
C183	C	1.373350	0.290432	0.775034
C184	C	0.638033	-0.753953	0.039643
C185	C	0.971367	-0.420619	0.372977
C186	C	1.304700	-0.087286	0.706310
C187	C	0.638034	-0.815870	0.039647
C188	C	0.971367	-0.482537	0.372981
C189	C	1.304700	-0.149204	0.706314
C190	C	0.706723	-0.815852	0.108370
C191	C	1.040056	-0.482518	0.441703
C192	C	1.373390	-0.149185	0.775037
C193	C	0.706719	-0.753933	0.108369
C194	C	1.040053	-0.420600	0.441702
C195	C	1.373386	-0.087266	0.775036
C196	C	0.672375	-0.722984	0.074003
C197	C	1.005708	-0.389651	0.407336
C198	C	1.339042	-0.056317	0.740669
C199	C	0.706664	-0.246207	0.108369
C200	C	1.039997	0.087126	0.441702
C201	C	1.373330	0.420459	0.775036
C202	C	0.706651	-0.184286	0.108370
C203	C	1.039984	0.149047	0.441703
C204	C	1.373317	0.482380	0.775037
C205	C	0.637964	-0.184311	0.039645
C206	C	0.971297	0.149023	0.372978
C207	C	1.304630	0.482356	0.706312
C208	C	0.637974	-0.246226	0.039646
C209	C	0.971308	0.087107	0.372979
C210	C	1.304641	0.420440	0.706313
C211	C	0.672329	-0.277173	0.074010
C212	C	1.005662	0.056160	0.407343
C213	C	1.338995	0.389494	0.740676
O214	O	0.608789	-0.344190	0.010455
O215	O	0.942123	-0.010856	0.343788
O216	O	1.275456	0.322477	0.677121
O217	O	0.735894	-0.344200	0.137582
O218	O	1.069227	-0.010867	0.470915
O219	O	1.402560	0.322467	0.804249
C220	C	0.776491	-0.000091	0.069244
C221	C	1.109825	0.333242	0.402577
C222	C	1.443158	0.666576	0.735910
C223	C	0.839710	-0.000094	0.069998
C224	C	1.173043	0.333239	0.403331
C225	C	1.506377	0.666572	0.736664
C226	C	0.677088	-0.000071	-0.030139
C227	C	1.010421	0.333262	0.303195
C228	C	1.343755	0.666596	0.636528
C229	C	0.676322	-0.000061	-0.093356
C230	C	1.009656	0.333272	0.239978
C231	C	1.342989	0.666605	0.573311
N232	N	0.672381	0.153174	0.074006
N233	N	1.005715	0.486507	0.407339
N234	N	1.339048	0.819841	0.740672
C235	C	0.667594	-0.000090	0.178158
C236	C	1.000927	0.333243	0.511492
C237	C	1.334261	0.666577	0.844825
C238	C	0.668360	-0.000096	0.241375
C239	C	1.001693	0.333238	0.574709
C240	C	1.335027	0.666571	0.908042
C241	C	0.621125	-0.000060	0.640487
C242	C	0.954459	0.333273	0.973821
C243	C	1.287792	0.666606	1.307154
C244	C	0.621837	-0.000056	0.699887
C245	C	0.955170	0.333277	1.033221
C246	C	1.288504	0.666610	1.366554
O247	O	0.578050	-0.000030	0.736640
O248	O	0.911383	0.333303	1.069973
O249	O	1.244716	0.666637	1.403307
N250	N	0.674114	-0.000063	0.722504
N251	N	1.007448	0.333271	1.055837
N252	N	1.340781	0.666604	1.389170
C253	C	0.725684	-0.000067	0.685717
C254	C	1.059017	0.333266	1.019050
C255	C	1.392351	0.666600	1.352383
O256	O	0.770216	-0.000071	0.710408
O257	O	1.103549	0.333262	1.043741
O258	O	1.436882	0.666595	1.377075
C259	C	0.724972	-0.000067	0.626318
C260	C	1.058305	0.333267	0.959651
C261	C	1.391639	0.666600	1.292984
C262	C	0.672691	-0.000066	0.603705
C263	C	1.006024	0.333267	0.937038
C264	C	1.339358	0.666600	1.270371
C265	C	0.568849	-0.000059	0.617874
C266	C	0.902182	0.333274	0.951207
C267	C	1.235515	0.666607	1.284540
C268	C	0.568137	-0.000065	0.558478
C269	C	0.901471	0.333269	0.891811
C270	C	1.234804	0.666602	1.225144
C271	C	0.619703	-0.000071	0.521695
C272	C	0.953036	0.333263	0.855029
C273	C	1.286370	0.666596	1.188362
C274	C	0.671980	-0.000072	0.544309
C275	C	1.005313	0.333262	0.877642
C276	C	1.338646	0.666595	1.210975
C277	C	0.776541	-0.000067	0.589532
C278	C	1.109874	0.333267	0.922865
C279	C	1.443208	0.666600	1.256198
C280	C	0.775824	-0.000066	0.530129
C281	C	1.109158	0.333267	0.863463
C282	C	1.442491	0.666600	1.196796
C283	C	0.723543	-0.000066	0.507516
C284	C	1.056877	0.333267	0.840850
C285	C	1.390210	0.666601	1.174183
C286	C	0.722834	-0.000083	0.448130
C287	C	1.056167	0.333250	0.781463
C288	C	1.389501	0.666584	1.114797
N289	N	0.670556	-0.000077	0.425514
N290	N	1.003890	0.333257	0.758847
N291	N	1.337223	0.666590	1.092180
C292	C	0.618991	-0.000071	0.462296
C293	C	0.952324	0.333263	0.795630
C294	C	1.285657	0.666596	1.128963
C295	C	0.727175	-0.000066	0.810459
C296	C	1.060509	0.333267	1.143792
C297	C	1.393842	0.666600	1.477125
C298	C	0.727888	-0.000071	0.869857
C299	C	1.061221	0.333263	1.203190
C300	C	1.394555	0.666596	1.536523
C301	C	0.624041	-0.000059	0.884023
C302	C	0.957374	0.333274	1.217357
C303	C	1.290707	0.666608	1.550690
C304	C	0.623329	-0.000059	0.824624
C305	C	0.956662	0.333275	1.157958
C306	C	1.289995	0.666608	1.491291
C307	C	0.674898	-0.000060	0.787842
C308	C	1.008231	0.333273	1.121176
C309	C	1.341564	0.666607	1.454509
C310	C	0.617501	-0.000082	0.337560
C311	C	0.950834	0.333251	0.670893
C312	C	1.284168	0.666585	1.004226
C313	C	0.616794	-0.000090	0.278158
C314	C	0.950128	0.333244	0.611491
C315	C	1.283461	0.666577	0.944825
C316	C	0.720642	-0.000098	0.263996
C317	C	1.053975	0.333235	0.597330
C318	C	1.387308	0.666569	0.930663
C319	C	0.721349	-0.000094	0.323393
C320	C	1.054682	0.333240	0.656726
C321	C	1.388015	0.666573	0.990060
C322	C	0.669774	-0.000083	0.360174
C323	C	1.003107	0.333250	0.693507
C324	C	1.336440	0.666583	1.026841
O325	O	0.766598	-0.000107	0.411343
O326	O	1.099931	0.333227	0.744676
O327	O	1.433265	0.666560	1.078009
O328	O	0.574467	-0.000058	0.437597
O329	O	0.907800	0.333275	0.770930
O330	O	1.241133	0.666608	1.104263
H331	H	0.391691	-0.097365	0.076654
H332	H	0.725025	0.235969	0.409988
H333	H	1.058358	0.569302	0.743321
O334	O	0.110544	-0.165137	0.073302
O335	O	0.443877	0.168196	0.406636
O336	O	0.777210	0.501529	0.739969
H337	H	0.127191	-0.190899	0.034635
H338	H	0.460525	0.142435	0.367968
H339	H	0.793858	0.475768	0.701302
O340	O	0.777737	-0.000095	0.347784
O341	O	1.111071	0.333239	0.681118
O342	O	1.444404	0.666572	1.014451
H343	H	0.780541	-0.040185	0.374514
H344	H	1.113875	0.293148	0.707847
H345	H	1.447208	0.626481	1.041181
H346	H	-0.154751	0.097195	0.070073
H347	H	0.178582	0.430528	0.403406
H348	H	0.511916	0.763862	0.736740
H349	H	0.582053	-0.000054	0.913983
H350	H	0.915387	0.333279	1.247316
H351	H	1.248720	0.666612	1.580649
O352	O	0.566940	-0.000059	0.800237
O353	O	0.900274	0.333274	1.133570
O354	O	1.233607	0.666607	1.466903
H355	H	0.564139	0.040032	0.773508
H356	H	0.897472	0.373365	1.106841
H357	H	1.230805	0.706699	1.440174
H358	H	0.499439	-0.097355	0.077961
H359	H	0.832772	0.235979	0.411294
H360	H	1.166106	0.569312	0.744627
O361	O	0.234049	-0.165163	0.074765
O362	O	0.567383	0.168170	0.408099
O363	O	0.900716	0.501503	0.741432
H364	H	0.203407	-0.202446	0.074397
H365	H	0.536740	0.130888	0.407731
H366	H	0.870074	0.464221	0.741064
H367	H	0.734614	-0.159077	0.136357
H368	H	1.067947	0.174257	0.469691
H369	H	1.401281	0.507590	0.803024
O370	O	0.600988	-0.720588	0.002564
O371	O	0.934322	-0.387254	0.335897
O372	O	1.267655	-0.053921	0.669231
H373	H	0.628468	-0.692382	-0.028197
H374	H	0.961802	-0.359049	0.305136
H375	H	1.295135	-0.025715	0.638469
O376	O	-0.039170	-0.111555	0.071457
O377	O	0.294163	0.221778	0.404791
O378	O	0.627496	0.555112	0.738124
H379	H	-0.017411	-0.114124	0.110607
H380	H	0.315922	0.219210	0.443941
H381	H	0.649255	0.552543	0.777274
O382	O	0.778076	-0.435712	0.179792
O383	O	1.111409	-0.102379	0.513126
O384	O	1.444743	0.230954	0.846459
H385	H	0.772305	-0.387455	0.174029
H386	H	1.105639	-0.054121	0.507363
H387	H	1.438972	0.279212	0.840696
H388	H	0.574219	-0.000092	0.259750
H389	H	0.907552	0.333241	0.593084
H390	H	1.240886	0.666575	0.926417
O391	O	0.561876	-0.000080	0.377227
O392	O	0.895209	0.333253	0.710560
O393	O	1.228543	0.666586	1.043893
H394	H	0.525410	-0.000088	0.351515
H395	H	0.858743	0.333246	0.684848
H396	H	1.192076	0.666579	1.018181
H397	H	0.226251	0.150832	0.074632
H398	H	0.559585	0.484165	0.407966
H399	H	0.892918	0.817498	0.741299
O400	O	0.743777	-0.849242	0.145423
O401	O	1.077110	-0.515908	0.478756
O402	O	1.410443	-0.182575	0.812089
H403	H	0.716305	-0.877468	0.176171
H404	H	1.049638	-0.544135	0.509504
H405	H	1.382971	-0.210801	0.842837
H406	H	0.391701	0.097221	0.076660
H407	H	0.725034	0.430554	0.409993
H408	H	1.058368	0.763887	0.743326
H409	H	0.762625	-0.000106	0.234037
H410	H	1.095958	0.333227	0.567371
H411	H	1.429291	0.666561	0.900704
H412	H	0.525565	-0.000059	0.540072
H413	H	0.858898	0.333274	0.873406
H414	H	1.192231	0.666607	1.206739
H415	H	0.770461	-0.000080	0.888262
H416	H	1.103794	0.333253	1.221596
H417	H	1.437127	0.666587	1.554929
H418	H	0.769172	-0.000071	0.780513
H419	H	1.102505	0.333262	1.113847
H420	H	1.435839	0.666595	1.447180
H421	H	-0.154787	-0.097382	0.070065
H422	H	0.178547	0.235952	0.403398
H423	H	0.511880	0.569285	0.736732
H424	H	0.819114	-0.000067	0.607932
H425	H	1.152447	0.333267	0.941265
H426	H	1.485780	0.666600	1.274599
H427	H	0.610064	-0.841078	0.011670
H428	H	0.943397	-0.507744	0.345003
H429	H	1.276731	-0.174411	0.678337
O430	O	0.831446	-0.000074	0.490456
O431	O	1.164780	0.333259	0.823789
O432	O	1.498113	0.666593	1.157122
H433	H	0.867916	-0.000080	0.516164
H434	H	1.201249	0.333253	0.849497
H435	H	1.534582	0.666587	1.182830
H436	H	0.118502	0.150832	0.073337
H437	H	0.451836	0.484165	0.406670
H438	H	0.785169	0.817498	0.740003
O439	O	-0.039146	0.111373	0.071459
O440	O	0.294187	0.444706	0.404793
O441	O	0.627521	0.778039	0.738126
H442	H	-0.069779	0.148654	0.071098
H443	H	0.263554	0.481987	0.404431
H444	H	0.596888	0.815320	0.737765
H445	H	0.575713	-0.556249	-0.022714
H446	H	0.909046	-0.222916	0.310619
H447	H	1.242380	0.110418	0.643952
O448	O	0.566628	-0.435742	-0.031791
O449	O	0.899961	-0.102409	0.301542
O450	O	1.233294	0.230924	0.634875
H451	H	0.542749	-0.467681	-0.055681
H452	H	0.876082	-0.134348	0.277652
H453	H	1.209416	0.198985	0.610986
H454	H	0.609999	-0.159100	0.011671
H455	H	0.943332	0.174233	0.345005
H456	H	1.276666	0.507567	0.678338
O457	O	0.513225	-0.000063	0.657539
O458	O	0.846558	0.333270	0.990873
O459	O	1.179891	0.666604	1.324206
H460	H	0.488194	0.040027	0.649527
H461	H	0.821528	0.373360	0.982861
H462	H	1.154861	0.706694	1.316194
H463	H	0.734639	-0.271397	0.136351
H464	H	1.067972	0.061936	0.469684
H465	H	1.401305	0.395270	0.803018
O466	O	0.507318	0.111397	0.078035
O467	O	0.840651	0.444730	0.411369
O468	O	1.173984	0.778064	0.744702
H469	H	0.553610	0.102384	0.078584
H470	H	0.886943	0.435718	0.411918
H471	H	1.220276	0.769051	0.745251
O472	O	0.778085	-0.564397	0.179793
O473	O	1.111418	-0.231063	0.513126
O474	O	1.444751	0.102270	0.846459
H475	H	0.801954	-0.532452	0.203686
H476	H	1.135287	-0.199119	0.537019
H477	H	1.468620	0.134215	0.870353
O478	O	0.743759	-0.720535	0.145431
O479	O	1.077093	-0.387201	0.478764
O480	O	1.410426	-0.053868	0.812097
H481	H	0.767642	-0.752465	0.169320
H482	H	1.100976	-0.419132	0.502653
H483	H	1.434309	-0.085798	0.835987
H484	H	0.610005	-0.271440	0.011670
H485	H	0.943338	0.061894	0.345003
H486	H	1.276672	0.395227	0.678337
