data_functionalizedCrystal
_audit_creation_method	'MofGen! by Chris Wilmer'
_symmetry_space_group_name_H-M	'P1'
_symmetry_Int_Tables_number	1
_symmetry_cell_setting	triclinic
loop_
_symmetry_equiv_pos_as_xyz
  x,y,z
_cell_length_a	19.805407
_cell_length_b	21.295417
_cell_length_c	19.805399
_cell_angle_alpha	89.968796
_cell_angle_beta	89.984884
_cell_angle_gamma	90.027018
loop_
_atom_site_label
_atom_site_type_symbol
_atom_site_fract_x
_atom_site_fract_y
_atom_site_fract_z
Zn1	Zn	1.034702	-0.250660	-0.382677
Zn2	Zn	1.368036	0.082673	-0.049344
Zn3	Zn	1.701369	0.416007	0.283989
Zn4	Zn	1.034616	-0.355931	-0.269485
Zn5	Zn	1.367949	-0.022598	0.063849
Zn6	Zn	1.701283	0.310735	0.397182
Zn7	Zn	0.921522	-0.250675	-0.269505
Zn8	Zn	1.254855	0.082658	0.063828
Zn9	Zn	1.588189	0.415992	0.397161
Zn10	Zn	0.921474	-0.355890	-0.382635
Zn11	Zn	1.254807	-0.022557	-0.049302
Zn12	Zn	1.588141	0.310776	0.284032
O13	O	0.978079	-0.303289	-0.326075
O14	O	1.311412	0.030044	0.007258
O15	O	1.644745	0.363377	0.340591
O16	O	1.129407	-0.264635	-0.367671
O17	O	1.462741	0.068698	-0.034338
O18	O	1.796074	0.402031	0.298996
O19	O	1.019598	-0.341992	-0.174771
O20	O	1.352931	-0.008659	0.158563
O21	O	1.686264	0.324674	0.491896
O22	O	0.936592	-0.162584	-0.284544
O23	O	1.269925	0.170750	0.048789
O24	O	1.603259	0.504083	0.382122
O25	O	1.129344	-0.341978	-0.284509
O26	O	1.462677	-0.008645	0.048824
O27	O	1.796011	0.324689	0.382158
O28	O	1.019745	-0.162573	-0.367691
O29	O	1.353078	0.170761	-0.034358
O30	O	1.686412	0.504094	0.298976
O31	O	0.936508	-0.264661	-0.174786
O32	O	1.269842	0.068672	0.158547
O33	O	1.603175	0.402006	0.491881
O34	O	0.826799	-0.264621	-0.284503
O35	O	1.160133	0.068712	0.048830
O36	O	1.493466	0.402045	0.382164
O37	O	0.936510	-0.341908	-0.477357
O38	O	1.269843	-0.008575	-0.144024
O39	O	1.603176	0.324759	0.189310
O40	O	0.826764	-0.341923	-0.367619
O41	O	1.160097	-0.008589	-0.034286
O42	O	1.493430	0.324744	0.299048
O43	O	1.019698	-0.264596	-0.477388
O44	O	1.353031	0.068738	-0.144055
O45	O	1.686365	0.402071	0.189278
O46	O	1.019551	-0.444015	-0.284468
O47	O	1.352884	-0.110682	0.048866
O48	O	1.686218	0.222651	0.382199
O49	O	0.936426	-0.443985	-0.367599
O50	O	1.269759	-0.110652	-0.034265
O51	O	1.603093	0.222681	0.299068
C52	C	0.802223	-0.303270	-0.326059
C53	C	1.135556	0.030064	0.007274
C54	C	1.468889	0.363397	0.340608
C55	C	0.726991	-0.303276	-0.326068
C56	C	1.060324	0.030057	0.007265
C57	C	1.393657	0.363390	0.340599
C58	C	0.691680	-0.263075	-0.369436
C59	C	1.025013	0.070258	-0.036103
C60	C	1.358347	0.403591	0.297230
C61	C	0.620992	-0.263079	-0.369439
C62	C	0.954325	0.070255	-0.036106
C63	C	1.287658	0.403588	0.297228
C64	C	0.585615	-0.303287	-0.326076
C65	C	0.918948	0.030047	0.007257
C66	C	1.252282	0.363380	0.340590
C67	C	0.620930	-0.343489	-0.282703
C68	C	0.954264	-0.010156	0.050630
C69	C	1.287597	0.323177	0.383964
C70	C	0.691618	-0.343482	-0.282698
C71	C	1.024951	-0.010149	0.050636
C72	C	1.358284	0.323184	0.383969
C73	C	0.335857	-0.343518	-0.282724
C74	C	0.669190	-0.010184	0.050610
C75	C	1.002524	0.323149	0.383943
C76	C	0.265165	-0.343523	-0.282734
C77	C	0.598498	-0.010189	0.050599
C78	C	0.931832	0.323144	0.383933
C79	C	0.265231	-0.263114	-0.369465
C80	C	0.598564	0.070219	-0.036132
C81	C	0.931898	0.403553	0.297201
C82	C	0.335918	-0.263107	-0.369460
C83	C	0.669252	0.070226	-0.036126
C84	C	1.002585	0.403560	0.297207
C85	C	0.371228	-0.303307	-0.326084
C86	C	0.704561	0.030026	0.007249
C87	C	1.037894	0.363360	0.340582
C88	C	0.447876	-0.303302	-0.326081
C89	C	0.781209	0.030031	0.007252
C90	C	1.114543	0.363365	0.340585
C91	C	0.508968	-0.303295	-0.326082
C92	C	0.842301	0.030038	0.007251
C93	C	1.175634	0.363372	0.340584
C94	C	0.977992	-0.466841	-0.326041
C95	C	1.311326	-0.133508	0.007292
C96	C	1.644659	0.199826	0.340625
C97	C	0.978017	-0.536809	-0.326049
C98	C	1.311351	-0.203476	0.007284
C99	C	1.644684	0.129858	0.340617
C100	C	1.021290	-0.569613	-0.369375
C101	C	1.354624	-0.236279	-0.036041
C102	C	1.687957	0.097054	0.297292
C103	C	1.021314	-0.635355	-0.369391
C104	C	1.354647	-0.302022	-0.036058
C105	C	1.687981	0.031311	0.297275
C106	C	0.978072	-0.668292	-0.326071
C107	C	1.311406	-0.334958	0.007263
C108	C	1.644739	-0.001625	0.340596
C109	C	0.934791	-0.635480	-0.282742
C110	C	1.268124	-0.302147	0.050591
C111	C	1.601457	0.031187	0.383925
C112	C	0.934763	-0.569739	-0.282731
C113	C	1.268097	-0.236405	0.050602
C114	C	1.601430	0.096928	0.383935
N115	N	0.972964	-0.771554	-0.266835
N116	N	1.306297	-0.438220	0.066498
N117	N	1.639630	-0.104887	0.399832
N118	N	0.972994	-0.834005	-0.266847
N119	N	1.306327	-0.500672	0.066486
N120	N	1.639660	-0.167339	0.399820
C121	C	0.978151	-0.866366	-0.326101
C122	C	1.311485	-0.533033	0.007232
C123	C	1.644818	-0.199700	0.340566
N124	N	0.983291	-0.833916	-0.385344
N125	N	1.316624	-0.500583	-0.052011
N126	N	1.649958	-0.167250	0.281323
N127	N	0.983264	-0.771459	-0.385331
N128	N	1.316598	-0.438126	-0.051998
N129	N	1.649931	-0.104793	0.281335
C130	C	0.978097	-0.739577	-0.326078
C131	C	1.311430	-0.406244	0.007256
C132	C	1.644763	-0.072910	0.340589
C133	C	1.021452	-0.970455	-0.369448
C134	C	1.354786	-0.637122	-0.036115
C135	C	1.688119	-0.303789	0.297218
C136	C	1.021471	-1.036199	-0.369466
C137	C	1.354805	-0.702866	-0.036133
C138	C	1.688138	-0.369533	0.297200
C139	C	0.934952	-1.036323	-0.282811
C140	C	1.268285	-0.702989	0.050523
C141	C	1.601618	-0.369656	0.383856
C142	C	0.934929	-0.970580	-0.282799
C143	C	1.268262	-0.637247	0.050534
C144	C	1.601596	-0.303913	0.383868
C145	C	0.978183	-0.937650	-0.326117
C146	C	1.311516	-0.604317	0.007217
C147	C	1.644850	-0.270984	0.340550
C148	C	1.154621	-0.303310	-0.326092
C149	C	1.487955	0.030024	0.007241
C150	C	1.821288	0.363357	0.340574
C151	C	1.229853	-0.303318	-0.326100
C152	C	1.563187	0.030015	0.007234
C153	C	1.896520	0.363348	0.340567
C154	C	0.978108	-0.303246	-0.502618
C155	C	1.311442	0.030088	-0.169285
C156	C	1.644775	0.363421	0.164048
C157	C	0.978121	-0.303227	-0.577850
C158	C	1.311454	0.030106	-0.244517
C159	C	1.644788	0.363440	0.088816
C160	C	0.978184	-0.139099	-0.326125
C161	C	1.311517	0.194234	0.007209
C162	C	1.644850	0.527568	0.340542
C163	C	0.978228	-0.069131	-0.326146
C164	C	1.311562	0.264202	0.007188
C165	C	1.644895	0.597536	0.340521
C166	C	0.934869	-0.262957	-0.613202
C167	C	1.268202	0.070377	-0.279869
C168	C	1.601535	0.403710	0.053465
C169	C	0.934878	-0.262945	-0.683890
C170	C	1.268211	0.070389	-0.350557
C171	C	1.601545	0.403722	-0.017224
C172	C	0.978143	-0.303200	-0.719226
C173	C	1.311477	0.030134	-0.385893
C174	C	1.644810	0.363467	-0.052559
C175	C	1.021398	-0.343474	-0.683869
C176	C	1.354731	-0.010141	-0.350536
C177	C	1.688064	0.323192	-0.017203
C178	C	1.021384	-0.343489	-0.613182
C179	C	1.354718	-0.010156	-0.279849
C180	C	1.688051	0.323177	0.053484
C181	C	1.021451	-0.343416	-0.968943
C182	C	1.354785	-0.010082	-0.635610
C183	C	1.688118	0.323251	-0.302276
C184	C	1.021463	-0.343396	-1.039635
C185	C	1.354796	-0.010063	-0.706302
C186	C	1.688129	0.323270	-0.372968
C187	C	0.934945	-0.262871	-1.039651
C188	C	1.268278	0.070463	-0.706318
C189	C	1.601611	0.403796	-0.372984
C190	C	0.934932	-0.262886	-0.968964
C191	C	1.268265	0.070448	-0.635630
C192	C	1.601598	0.403781	-0.302297
C193	C	0.978183	-0.303162	-0.933613
C194	C	1.311516	0.030171	-0.600280
C195	C	1.644850	0.363504	-0.266947
C196	C	0.978171	-0.303176	-0.856965
C197	C	1.311505	0.030157	-0.523632
C198	C	1.644838	0.363491	-0.190298
C199	C	0.978159	-0.303183	-0.795873
C200	C	1.311492	0.030150	-0.462540
C201	C	1.644826	0.363483	-0.129206
C202	C	0.978088	-0.303287	-0.150220
C203	C	1.311421	0.030046	0.183114
C204	C	1.644755	0.363379	0.516447
C205	C	0.978206	-0.303129	-0.074988
C206	C	1.311540	0.030205	0.258345
C207	C	1.644873	0.363538	0.591679
H208	H	0.592245	-0.230344	-0.404755
H209	H	0.925578	0.102989	-0.071422
H210	H	1.258912	0.436322	0.261911
N211	N	0.374075	-0.219744	-0.416233
N212	N	0.707408	0.113590	-0.082899
N213	N	1.040741	0.446923	0.250434
H214	H	0.340979	-0.194276	-0.443707
H215	H	0.674312	0.139058	-0.110374
H216	H	1.007645	0.472391	0.222960
H217	H	0.403406	-0.190577	-0.388736
H218	H	0.736739	0.142756	-0.055402
H219	H	1.070072	0.476089	0.277931
H220	H	1.056670	-0.943643	-0.404723
H221	H	1.390004	-0.610310	-0.071389
H222	H	1.723337	-0.276976	0.261944
H223	H	1.056508	-0.542803	-0.404648
H224	H	1.389842	-0.209470	-0.071315
H225	H	1.723175	0.123863	0.262018
H226	H	0.720479	-0.230335	-0.404749
H227	H	1.053812	0.102998	-0.071416
H228	H	1.387145	0.436332	0.261917
H229	H	0.899695	-0.943869	-0.247516
H230	H	1.233028	-0.610536	0.085817
H231	H	1.566362	-0.277203	0.419150
N232	N	1.067989	-0.670747	-0.416122
N233	N	1.401322	-0.337414	-0.082789
N234	N	1.734656	-0.004081	0.250544
H235	H	1.095385	-0.639911	-0.443562
H236	H	1.428718	-0.306577	-0.110229
H237	H	1.762051	0.026756	0.223104
H238	H	1.099337	-0.698015	-0.388597
H239	H	1.432670	-0.364682	-0.055263
H240	H	1.766003	-0.031348	0.278070
H241	H	0.236474	-0.230379	-0.404781
H242	H	0.569807	0.102955	-0.071448
H243	H	0.903141	0.436288	0.261885
N244	N	1.068121	-1.071584	-0.416224
N245	N	1.401454	-0.738251	-0.082890
N246	N	1.734788	-0.404917	0.250443
H247	H	1.095510	-1.040745	-0.443668
H248	H	1.428843	-0.707412	-0.110334
H249	H	1.762176	-0.374078	0.222999
H250	H	1.099477	-1.098867	-0.388726
H251	H	1.432811	-0.765534	-0.055392
H252	H	1.766144	-0.432201	0.277941
H253	H	1.056622	-0.376254	-0.712645
H254	H	1.389955	-0.042921	-0.379312
H255	H	1.723288	0.290412	-0.045979
H256	H	0.899739	-1.063139	-0.247542
H257	H	1.233072	-0.729805	0.085791
H258	H	1.566406	-0.396472	0.419124
H259	H	0.899581	-0.662301	-0.247471
H260	H	1.232915	-0.328967	0.085862
H261	H	1.566248	0.004366	0.419195
N262	N	1.068124	-0.386818	-1.077754
N263	N	1.401457	-0.053485	-0.744421
N264	N	1.734791	0.279849	-0.411087
H265	H	1.116491	-0.377057	-1.065461
H266	H	1.449824	-0.043724	-0.732128
H267	H	1.783158	0.289610	-0.398794
H268	H	1.057518	-0.431780	-1.065427
H269	H	1.390851	-0.098446	-0.732093
H270	H	1.724184	0.234887	-0.398760
H271	H	0.899525	-0.543029	-0.247450
H272	H	1.232858	-0.209696	0.085884
H273	H	1.566191	0.123637	0.419217
N274	N	1.068037	-0.386919	-0.575047
N275	N	1.401371	-0.053586	-0.241713
N276	N	1.734704	0.279748	0.091620
H277	H	1.040504	-0.416093	-0.545708
H278	H	1.373837	-0.082760	-0.212375
H279	H	1.707170	0.250574	0.120958
H280	H	1.095441	-0.412377	-0.608197
H281	H	1.428775	-0.079043	-0.274864
H282	H	1.762108	0.254290	0.058470
N283	N	0.888210	-0.219532	-0.575092
N284	N	1.221543	0.113801	-0.241759
N285	N	1.554876	0.447135	0.091574
H286	H	0.860811	-0.194019	-0.608216
H287	H	1.194145	0.139314	-0.274883
H288	H	1.527478	0.472647	0.058450
H289	H	0.856863	-0.245155	-0.545750
H290	H	1.190197	0.088178	-0.212417
H291	H	1.523530	0.421512	0.120916
H292	H	0.899655	-0.230155	-0.712670
H293	H	1.232988	0.103178	-0.379337
H294	H	1.566322	0.436512	-0.046004
H295	H	0.236363	-0.376266	-0.247420
H296	H	0.569697	-0.042933	0.085913
H297	H	0.903030	0.290400	0.419246
N298	N	0.888276	-0.219460	-0.930852
N299	N	1.221609	0.113874	-0.597518
N300	N	1.554943	0.447207	-0.264185
H301	H	0.860877	-0.193945	-0.963974
H302	H	1.194211	0.139388	-0.630640
H303	H	1.527544	0.472722	-0.297307
H304	H	0.856930	-0.245082	-0.901509
H305	H	1.190263	0.088252	-0.568175
H306	H	1.523596	0.421585	-0.234842
H307	H	0.899725	-0.230077	-1.068442
H308	H	1.233059	0.103256	-0.735108
H309	H	1.566392	0.436589	-0.401775
H310	H	1.056662	-0.376218	-0.940169
H311	H	1.389995	-0.042885	-0.606836
H312	H	1.723329	0.290448	-0.273502
H313	H	0.364597	-0.376252	-0.247406
H314	H	0.697931	-0.042918	0.085928
H315	H	1.031264	0.290415	0.419261
H316	H	0.720366	-0.376218	-0.247382
H317	H	1.053700	-0.042884	0.085951
H318	H	1.387033	0.290449	0.419285
N319	N	0.582778	-0.386851	-0.235925
N320	N	0.916111	-0.053518	0.097408
N321	N	1.249445	0.279816	0.430742
H322	H	0.532640	-0.380757	-0.242509
H323	H	0.865973	-0.047423	0.090824
H324	H	1.199306	0.285910	0.424158
H325	H	0.595119	-0.431821	-0.246366
H326	H	0.928453	-0.098488	0.086967
H327	H	1.261786	0.234846	0.420301
