data_functionalizedCrystal
_audit_creation_method	'MofGen! by Chris Wilmer'
_symmetry_space_group_name_H-M	'P1'
_symmetry_Int_Tables_number	1
_symmetry_cell_setting	triclinic
loop_
_symmetry_equiv_pos_as_xyz
  x,y,z
_cell_length_a	15.995300
_cell_length_b	14.472310
_cell_length_c	11.026607
_cell_angle_alpha	90.003014
_cell_angle_beta	83.971088
_cell_angle_gamma	90.014612
loop_
_atom_site_label
_atom_site_type_symbol
_atom_site_fract_x
_atom_site_fract_y
_atom_site_fract_z
O1	O	1.134554	0.076873	-0.156114
O2	O	0.893694	0.076867	-0.175493
O3	O	0.994162	0.076866	0.010845
O4	O	1.034086	0.076874	-0.342451
O5	O	0.994130	-0.076816	0.010834
O6	O	0.893662	-0.076815	-0.175503
O7	O	1.134522	-0.076809	-0.156125
Cu8	Cu	1.014090	-0.090844	-0.165815
Cu9	Cu	1.014127	0.090902	-0.165802
O10	O	1.034055	-0.076808	-0.342462
C11	C	0.862363	0.000025	-0.174708
C12	C	0.769054	0.000023	-0.172338
C13	C	0.598211	0.000030	-0.167962
C14	C	0.570744	0.000031	-0.300638
C15	C	0.473691	0.000382	-0.298218
C16	C	0.430005	0.000036	-0.163655
C17	C	0.461234	0.087622	-0.097824
C18	C	0.558373	0.087693	-0.101181
C19	C	0.558321	-0.087079	-0.099229
C20	C	0.461378	-0.088227	-0.099241
C21	C	0.334942	0.000042	-0.161214
C22	C	0.693274	0.000030	-0.170399
N23	N	1.014069	-0.218675	-0.165823
C24	C	1.014125	-0.592766	-0.165797
C25	C	0.960085	-0.553600	-0.265168
C26	C	0.960299	-0.446512	-0.265531
C27	C	1.014097	-0.407175	-0.165810
C28	C	1.105628	-0.446010	-0.193442
C29	C	1.105347	-0.553131	-0.194148
C30	C	0.977368	-0.553299	-0.038500
C31	C	0.975492	-0.446172	-0.039349
C32	C	1.014086	-0.302287	-0.165815
C33	C	1.014142	-0.697655	-0.165795
C34	C	1.165853	0.000035	-0.156910
C35	C	1.259163	0.000043	-0.159279
C36	C	0.986781	0.000026	0.056048
C37	C	0.964824	0.000029	0.190756
N38	N	1.014152	0.218733	-0.165784
C39	C	1.041436	0.000034	-0.387665
C40	C	1.063392	0.000037	-0.522374
C41	C	1.025449	0.000032	0.264578
C42	C	1.002758	0.000035	0.403806
H43	H	0.597259	-0.062767	-0.353961
Cl44	Cl	1.169473	0.000044	0.416085
H45	H	1.147594	-0.420527	-0.122989
Cl46	Cl	1.131525	0.000040	0.203028
Cl47	Cl	0.600114	-0.189606	-0.166676
Cl48	Cl	0.999038	-0.595121	-0.410202
Cl49	Cl	0.613256	0.096860	-0.381730
H50	H	1.135314	-0.419170	-0.285220
H51	H	0.575962	0.091433	-0.003756
H52	H	0.985758	-0.420875	-0.359996
Cl53	Cl	0.414861	-0.096804	0.052226
H54	H	0.896121	0.000033	0.230630
H55	H	0.453011	-0.062388	-0.349945
H56	H	1.147829	-0.579037	-0.124624
H57	H	0.911038	-0.580369	-0.011925
Cl58	Cl	0.442694	0.097888	-0.377718
Cl59	Cl	0.896678	0.000041	0.465351
Cl60	Cl	0.416458	0.092274	0.054830
Cl61	Cl	0.597721	0.189161	-0.174417
H62	H	0.441270	-0.153024	-0.147315
Cl63	Cl	0.584641	-0.088397	0.051787
Cl64	Cl	0.428031	0.188641	-0.167591
H65	H	0.892494	-0.579390	-0.248980
Cl66	Cl	0.856201	-0.405974	-0.240199
H67	H	1.134823	-0.578104	-0.286984
Cl68	Cl	0.871386	-0.406988	-0.006967
H69	H	1.016553	-0.578626	0.035448
Cl70	Cl	1.030056	-0.404851	0.080169
