data_functionalizedCrystal
_audit_creation_method	'MofGen! by Chris Wilmer'
_symmetry_space_group_name_H-M	'P1'
_symmetry_Int_Tables_number	1
_symmetry_cell_setting	triclinic
loop_
_symmetry_equiv_pos_as_xyz
  x,y,z
_cell_length_a	15.944551
_cell_length_b	15.944551
_cell_length_c	13.930277
_cell_angle_alpha	90.010789
_cell_angle_beta	89.996314
_cell_angle_gamma	83.498738
loop_
_atom_site_label
_atom_site_type_symbol
_atom_site_fract_x
_atom_site_fract_y
_atom_site_fract_z
O1	O	0.108320	1.114528	0.079926
O2	O	0.608320	1.614528	0.579926
O3	O	0.121676	0.869978	0.079908
O4	O	0.621676	1.369978	0.579908
O5	O	-0.007277	0.998931	0.079909
O6	O	0.492723	1.498931	0.579909
O7	O	0.237273	0.985575	0.079925
O8	O	0.737273	1.485575	0.579925
O9	O	-0.007257	0.998912	-0.079753
O10	O	0.492743	1.498912	0.420247
O11	O	0.121696	0.869959	-0.079754
O12	O	0.621696	1.369959	0.420246
O13	O	0.108340	1.114509	-0.079736
O14	O	0.608340	1.614509	0.420264
Zn15	Zn	0.115021	0.992231	-0.105095
Zn16	Zn	0.615021	1.492231	0.394905
Zn17	Zn	0.114995	0.992256	0.105267
Zn18	Zn	0.614995	1.492256	0.605267
O19	O	0.237293	0.985556	-0.079737
O20	O	0.737293	1.485556	0.420263
C21	C	-0.038561	0.998367	0.000078
C22	C	0.461439	1.498367	0.500078
C23	C	-0.131807	0.996705	0.000077
C24	C	0.368193	1.496705	0.500077
C25	C	0.121132	0.838675	0.000075
C26	C	0.621132	1.338675	0.500075
C27	C	0.119470	0.745429	0.000067
C28	C	0.619470	1.245429	0.500067
C29	C	0.108885	1.145813	0.000100
C30	C	0.608885	1.645813	0.500100
C31	C	0.110547	1.239059	0.000113
C32	C	0.610547	1.739059	0.500113
C33	C	-0.346663	0.912801	0.000084
C34	C	0.153337	1.412801	0.500084
C35	C	-0.407671	0.951754	-0.078636
C36	C	0.092329	1.451754	0.421364
C37	C	-0.302533	0.993698	0.000084
C38	C	0.197467	1.493698	0.500084
C39	C	-0.407674	0.951792	0.078778
C40	C	0.092326	1.451792	0.578778
C41	C	-0.467445	0.990787	0.000095
C42	C	0.032555	1.490787	0.500095
C43	C	-0.362312	1.032673	-0.078701
C44	C	0.137688	1.532673	0.421299
C45	C	-0.362308	1.032700	0.078784
C46	C	0.137692	1.532700	0.578784
C47	C	-0.423298	1.071711	0.000045
C48	C	0.076702	1.571711	0.500045
C49	C	-0.207530	0.995372	0.000077
C50	C	0.292470	1.495372	0.500077
C51	C	-0.562446	0.989119	0.000096
C52	C	-0.062446	1.489119	0.500096
C53	C	0.268577	0.986120	0.000097
C54	C	0.768577	1.486120	0.500097
C55	C	0.361823	0.987782	0.000104
C56	C	0.861823	1.487782	0.500104
C57	C	0.194451	1.453915	0.000097
C58	C	0.694451	1.953915	0.500097
C59	C	0.155479	1.514945	0.078815
C60	C	0.655479	2.014945	0.578815
C61	C	0.113554	1.409784	0.000100
C62	C	0.613554	1.909784	0.500100
C63	C	0.155479	1.514904	-0.078599
C64	C	0.655479	2.014904	0.421401
C65	C	0.116465	1.574697	0.000082
C66	C	0.616465	2.074697	0.500082
C67	C	0.074560	1.469586	0.078883
C68	C	0.574560	1.969586	0.578883
C69	C	0.074571	1.469539	-0.078602
C70	C	0.574571	1.969539	0.421398
C71	C	0.035540	1.530550	0.000135
C72	C	0.535540	2.030550	0.500135
C73	C	0.111880	1.314782	0.000110
C74	C	0.611880	1.814782	0.500110
C75	C	0.118133	1.669698	0.000078
C76	C	0.618133	2.169698	0.500078
N77	N	0.115038	0.992220	-0.248661
N78	N	0.615038	1.492220	0.251339
C79	C	0.165957	1.043211	-0.700912
C80	C	0.665957	1.543211	-0.200912
C81	C	0.063999	0.941327	-0.700917
C82	C	0.563999	1.441327	-0.200917
C83	C	0.064013	0.941314	-0.600421
C84	C	0.564013	1.441314	-0.100421
C85	C	0.114998	0.992252	-0.550166
C86	C	0.614998	1.492252	-0.050166
C87	C	0.165970	1.043202	-0.600407
C88	C	0.665970	1.543202	-0.100407
C89	C	0.013035	0.890372	-0.550173
C90	C	0.513035	1.390372	-0.050173
C91	C	0.013046	0.890357	-0.449671
C92	C	0.513046	1.390357	0.050329
C93	C	0.064037	0.941291	-0.399414
C94	C	0.564037	1.441291	0.100586
C95	C	0.115011	0.992242	-0.449661
C96	C	0.615011	1.492242	0.050339
C97	C	0.165997	1.043180	-0.399406
C98	C	0.665997	1.543180	0.100594
C99	C	0.216977	1.094128	-0.449652
C100	C	0.716977	1.594128	0.050348
C101	C	0.216961	1.094135	-0.550150
C102	C	0.716961	1.594135	-0.050150
C103	C	0.064053	0.941283	-0.298916
C104	C	0.564053	1.441283	0.201084
C105	C	0.166010	1.043171	-0.298901
C106	C	0.666010	1.543171	0.201099
N107	N	0.114971	0.992274	0.248833
N108	N	0.614971	1.492274	0.748833
H109	H	-0.427771	0.917530	-0.145193
H110	H	0.072229	1.417530	0.354807
N111	N	0.011997	0.889247	-0.247577
N112	N	0.511997	1.389247	0.252423
N113	N	0.012019	0.889240	-0.157846
N114	N	0.512019	1.389240	0.342154
H115	H	-0.024746	0.852486	-0.121587
H116	H	0.475254	1.352486	0.378413
N117	N	0.218077	1.095218	-0.247568
N118	N	0.718077	1.595218	0.252432
N119	N	0.185312	1.150747	-0.191471
N120	N	0.685312	1.650747	0.308529
H121	H	0.222082	1.187507	-0.155216
H122	H	0.722082	1.687507	0.344784
H123	H	-0.313356	0.845652	0.000000
H124	H	0.186644	1.345652	0.500000
H125	H	0.189689	1.535067	0.145368
H126	H	0.689689	2.035067	0.645368
N127	N	-0.337245	1.075543	-0.162295
N128	N	0.162755	1.575543	0.337705
N129	N	-0.391477	1.104839	-0.221828
N130	N	0.108523	1.604839	0.278172
H131	H	-0.373773	1.135113	-0.280868
H132	H	0.126227	1.635113	0.219132
H133	H	0.040366	1.449605	0.145510
H134	H	0.540366	1.949605	0.645510
H135	H	-0.456457	1.138919	0.000005
H136	H	0.043543	1.638919	0.500005
H137	H	-0.342186	1.066894	0.145344
H138	H	0.157814	1.566894	0.645344
H139	H	-0.028464	0.848872	-0.408770
H140	H	0.471536	1.348872	0.091230
N141	N	0.198415	1.540106	-0.162089
N142	N	0.698415	2.040106	0.337911
N143	N	0.206016	1.616346	-0.175819
N144	N	0.706016	2.116346	0.324181
H145	H	0.236343	1.634143	-0.234780
H146	H	0.736343	2.134143	0.265220
H147	H	0.022483	0.899862	-0.741841
H148	H	0.522483	1.399862	-0.241841
H149	H	0.258486	1.135604	-0.408721
H150	H	0.758486	1.635604	0.091279
N151	N	-0.039050	0.838362	-0.601520
N152	N	0.460950	1.338362	-0.101520
N153	N	-0.039053	0.838382	-0.691251
N154	N	0.460947	1.338382	-0.191251
H155	H	-0.075842	0.801650	-0.727520
H156	H	0.424158	1.301650	-0.227520
N157	N	-0.432884	0.908851	0.162254
N158	N	0.067116	1.408851	0.662254
N159	N	-0.405113	0.833357	0.176252
N160	N	0.094887	1.333357	0.676252
H161	H	-0.422916	0.803023	0.235203
H162	H	0.077084	1.303023	0.735203
H163	H	0.261600	1.420609	0.000180
H164	H	0.761600	1.920609	0.500180
N165	N	0.031678	1.444264	-0.162084
N166	N	0.531678	1.944264	0.337916
N167	N	-0.043434	1.472980	-0.176900
N168	N	0.456566	1.972980	0.323100
H169	H	-0.073723	1.455127	-0.235866
H170	H	0.426277	1.955127	0.264134
N171	N	-0.048772	1.572142	0.000190
N172	N	0.451228	2.072142	0.500190
N173	N	-0.097622	1.560440	0.067839
N174	N	0.402378	2.060440	0.567839
H175	H	-0.157167	1.589815	0.067882
H176	H	0.342833	2.089815	0.567882
N177	N	0.269023	1.146171	-0.601489
N178	N	0.769023	1.646171	-0.101489
N179	N	0.268997	1.146175	-0.691220
N180	N	0.768997	1.646175	-0.191220
H181	H	0.305762	1.182927	-0.727483
H182	H	0.805762	1.682927	-0.227483
N183	N	0.218015	1.095265	-0.752229
N184	N	0.718015	1.595265	-0.252229
N185	N	0.208006	1.173538	-0.740979
N186	N	0.708006	1.673538	-0.240979
H187	H	0.244772	1.210304	-0.777222
H188	H	0.744772	1.710304	-0.277222
