data_functionalizedCrystal
_audit_creation_method	'MofGen! by Chris Wilmer'
_symmetry_space_group_name_H-M	'P1'
_symmetry_Int_Tables_number	1
_symmetry_cell_setting	triclinic
loop_
_symmetry_equiv_pos_as_xyz
  x,y,z
_cell_length_a	17.077404
_cell_length_b	12.759394
_cell_length_c	12.759387
_cell_angle_alpha	89.967183
_cell_angle_beta	89.978893
_cell_angle_gamma	90.015062
loop_
_atom_site_label
_atom_site_type_symbol
_atom_site_fract_x
_atom_site_fract_y
_atom_site_fract_z
Zn1	Zn	1.200111	-0.418193	-0.594063
Zn2	Zn	1.200033	-0.593913	-0.418381
Zn3	Zn	1.068839	-0.418250	-0.418393
Zn4	Zn	1.068829	-0.593831	-0.594013
O5	O	1.134453	-0.506047	-0.506212
O6	O	1.309948	-0.441513	-0.570774
O7	O	1.182601	-0.570669	-0.271361
O8	O	1.086289	-0.271221	-0.441722
O9	O	1.309890	-0.570614	-0.441701
O10	O	1.182734	-0.271179	-0.570786
O11	O	1.086214	-0.441610	-0.271370
O12	O	0.958991	-0.441530	-0.441673
O13	O	1.086273	-0.570474	-0.741041
O14	O	0.958984	-0.570529	-0.570701
O15	O	1.182725	-0.441433	-0.741078
O16	O	1.182592	-0.740924	-0.441653
O17	O	1.086197	-0.740863	-0.570689
C18	C	0.930505	-0.506028	-0.506183
C19	C	0.843255	-0.506045	-0.506196
C20	C	0.802282	-0.573316	-0.573273
C21	C	0.720302	-0.573318	-0.573289
C22	C	0.679296	-0.506054	-0.506223
C23	C	0.720275	-0.438775	-0.439144
C24	C	0.802254	-0.438769	-0.439133
C25	C	0.549405	-0.438796	-0.439169
C26	C	0.467420	-0.438804	-0.439178
C27	C	0.467453	-0.573346	-0.573325
C28	C	0.549432	-0.573339	-0.573315
C29	C	0.590405	-0.506061	-0.506233
C30	C	1.134406	-0.779014	-0.506187
C31	C	1.134458	-0.895791	-0.506211
C32	C	1.234909	-0.895800	-0.371947
C33	C	1.285155	-0.950666	-0.304827
C34	C	1.285201	-1.060388	-0.304855
C35	C	1.234997	-1.115246	-0.372013
C36	C	1.184751	-1.060381	-0.439133
C37	C	1.184709	-0.950656	-0.439095
C38	C	1.084305	-1.060371	-0.573401
C39	C	1.084254	-0.950649	-0.573369
C40	C	1.034101	-1.115229	-0.640559
C41	C	0.983850	-1.060364	-0.707676
C42	C	0.983805	-0.950636	-0.707644
C43	C	1.034008	-0.895784	-0.640489
C44	C	1.339197	-0.506067	-0.506242
C45	C	1.426447	-0.506075	-0.506255
C46	C	1.134506	-0.505938	-0.780246
C47	C	1.134529	-0.505892	-0.897023
C48	C	1.134522	-0.232013	-0.506261
C49	C	1.134551	-0.115237	-0.506282
C50	C	1.034167	-0.371493	-0.897051
C51	C	0.984001	-0.304273	-0.951926
C52	C	0.984024	-0.304235	-1.061647
C53	C	1.034218	-0.371427	-1.116497
C54	C	1.084385	-0.438647	-1.061622
C55	C	1.084357	-0.438675	-0.951898
C56	C	1.184741	-0.573049	-1.061594
C57	C	1.184723	-0.573084	-0.951872
C58	C	1.234935	-0.640241	-1.116443
C59	C	1.285107	-0.707458	-1.061568
C60	C	1.285082	-0.707492	-0.951840
C61	C	1.234889	-0.640304	-0.896997
C62	C	1.134445	-0.506079	-0.233245
C63	C	1.134575	-0.505829	-0.116469
H64	H	0.686882	-0.384003	-0.384542
H65	H	0.943132	-0.249569	-0.907255
Cl66	Cl	1.033827	-1.253165	-0.640151
Cl67	Cl	0.920961	-0.219724	-1.130636
Cl68	Cl	1.034232	-0.371396	-1.254434
Cl69	Cl	0.600913	-0.354217	-0.354837
Cl70	Cl	0.853764	-0.354193	-0.354807
Cl71	Cl	1.235075	-0.757864	-0.372201
Cl72	Cl	1.234957	-0.640204	-1.254380
Cl73	Cl	0.920639	-0.881671	-0.792034
H74	H	1.325967	-0.762164	-1.106235
Cl75	Cl	1.348268	-0.881697	-0.220409
Cl76	Cl	1.234725	-1.253181	-0.371602
H77	H	1.234867	-0.640322	-0.807656
Cl78	Cl	1.348147	-0.792009	-0.882864
H79	H	1.034149	-0.371509	-0.807710
H80	H	0.686945	-0.628098	-0.627909
Cl81	Cl	0.853824	-0.657887	-0.657584
Cl82	Cl	1.034184	-0.757848	-0.640749
Cl83	Cl	0.600981	-0.657908	-0.657620
H84	H	0.434088	-0.628122	-0.627949
H85	H	0.942982	-1.105038	-0.762355
Cl86	Cl	0.415871	-0.354247	-0.354860
Cl87	Cl	1.348371	-1.129365	-0.220481
