data_functionalizedCrystal
_audit_creation_method	'MofGen! by Chris Wilmer'
_symmetry_space_group_name_H-M	'P1'
_symmetry_Int_Tables_number	1
_symmetry_cell_setting	triclinic
loop_
_symmetry_equiv_pos_as_xyz
  x,y,z
_cell_length_a	18.215407
_cell_length_b	16.625545
_cell_length_c	18.215399
_cell_angle_alpha	90.026887
_cell_angle_beta	90.017368
_cell_angle_gamma	90.023001
loop_
_atom_site_label
_atom_site_type_symbol
_atom_site_fract_x
_atom_site_fract_y
_atom_site_fract_z
Zn1	Zn	1.125068	-0.321065	0.416073
Zn2	Zn	1.124975	-0.455905	0.293009
Zn3	Zn	1.002001	-0.321084	0.293026
Zn4	Zn	1.001965	-0.455853	0.416039
O5	O	1.063503	-0.388477	0.354537
O6	O	1.228040	-0.338965	0.399755
O7	O	1.108639	-0.438051	0.190027
O8	O	1.018380	-0.208249	0.309369
O9	O	1.227972	-0.438032	0.309341
O10	O	1.108797	-0.208235	0.399772
O11	O	1.018290	-0.338998	0.190039
O12	O	0.899012	-0.338948	0.309336
O13	O	1.018319	-0.437943	0.519028
O14	O	0.898986	-0.437962	0.399714
O15	O	1.108763	-0.338915	0.519053
O16	O	1.108604	-0.568731	0.309308
O17	O	1.018229	-0.568693	0.399698
C18	C	0.872296	-0.388452	0.354524
C19	C	0.790497	-0.388461	0.354536
C20	C	0.602338	-0.336983	0.401689
C21	C	0.525479	-0.336990	0.401691
C22	C	0.525419	-0.439993	0.307397
C23	C	0.602276	-0.439982	0.307392
C24	C	0.640734	-0.388478	0.354542
C25	C	0.487018	-0.388496	0.354550
C26	C	0.403684	-0.388504	0.354552
C27	C	0.724073	-0.388469	0.354539
C28	C	1.063423	-0.597968	0.354513
C29	C	1.063456	-0.687589	0.354528
C30	C	1.063484	-0.760371	0.354543
C31	C	1.063527	-0.851680	0.354559
C32	C	1.063565	-0.924456	0.354568
C33	C	1.063607	-1.015770	0.354583
C34	C	1.255455	-0.388502	0.354550
C35	C	1.337254	-0.388513	0.354556
C36	C	1.063547	-0.388421	0.546490
C37	C	1.063567	-0.388398	0.628289
C38	C	1.063603	-0.178168	0.354576
C39	C	1.063646	-0.088547	0.354593
C40	C	1.063500	-0.388474	0.163330
C41	C	1.063624	-0.388271	0.081532
C42	C	1.110677	-0.336785	0.816497
C43	C	1.110686	-0.336762	0.893355
C44	C	1.016508	-0.439885	0.893318
C45	C	1.016496	-0.439904	0.816461
C46	C	1.063585	-0.388355	0.778052
C47	C	1.063606	-0.388313	0.931768
C48	C	1.063615	-0.388288	1.015102
C49	C	1.063575	-0.388379	0.694713
H50	H	0.633539	-0.481916	0.268995
Br51	Br	0.654528	-0.267084	0.465676
H52	H	0.494221	-0.295057	0.440082
H53	H	0.494098	-0.481927	0.269010
H54	H	0.978171	-0.481856	0.924600
H55	H	1.149018	-0.294809	0.785226
H56	H	0.978142	-0.481898	0.785159
H57	H	1.149032	-0.294767	0.924654
