data_functionalizedCrystal
_audit_creation_method	'MofGen! by Chris Wilmer'
_symmetry_space_group_name_H-M	'P1'
_symmetry_Int_Tables_number	1
_symmetry_cell_setting	triclinic
loop_
_symmetry_equiv_pos_as_xyz
  x,y,z
_cell_length_a	8.597278
_cell_length_b	7.088929
_cell_length_c	8.597340
_cell_angle_alpha	103.954719
_cell_angle_beta	86.360014
_cell_angle_gamma	76.027249
loop_
_atom_site_label
_atom_site_type_symbol
_atom_site_fract_x
_atom_site_fract_y
_atom_site_fract_z
O1	O	0.219207	0.151022	2.101070
O2	O	0.245263	0.070173	1.636352
O3	O	-0.000135	0.151023	1.881729
O4	O	0.464606	0.070172	1.855692
O5	O	-0.033004	0.479815	1.914522
O6	O	0.212394	0.398965	1.669144
O7	O	0.186338	0.479814	2.133862
Cu8	Cu	0.196365	0.469411	1.904497
Cu9	Cu	0.235236	0.080576	1.865717
O10	O	0.431737	0.398964	1.888485
C11	C	-0.076034	0.325052	1.897156
C12	C	-0.253218	0.353750	1.894247
C13	C	0.227862	0.224933	1.593286
C14	C	0.224961	0.196223	1.416109
N15	N	0.169024	0.742898	1.931785
C16	C	0.507636	0.224931	1.873058
C17	C	0.684821	0.196220	1.875965
N18	N	0.262565	-0.192907	1.838441
C19	C	0.203740	0.325050	2.176927
C20	C	0.206642	0.353747	2.354104
H21	H	-0.335723	0.510580	1.907668
H22	H	-0.232662	0.039375	1.862520
C23	C	0.243167	-0.015669	1.304716
H24	H	0.255039	-0.110638	1.367375
H25	H	0.335876	-0.050895	1.226740
H26	H	0.149793	-0.016200	1.251331
H27	H	0.072093	0.856462	2.028544
H28	H	0.193167	0.510583	1.436567
C29	C	0.393515	0.653702	1.707749
H30	H	0.391628	0.520813	1.709606
H31	H	0.496631	0.672832	1.728435
H32	H	0.373054	0.672803	1.604564
