data_functionalizedCrystal
_audit_creation_method	'MofGen! by Chris Wilmer'
_symmetry_space_group_name_H-M	'P1'
_symmetry_Int_Tables_number	1
_symmetry_cell_setting	triclinic
loop_
_symmetry_equiv_pos_as_xyz
  x,y,z
_cell_length_a	19.188933
_cell_length_b	19.188940
_cell_length_c	9.730217
_cell_angle_alpha	89.996322
_cell_angle_beta	90.000010
_cell_angle_gamma	83.147142
loop_
_atom_site_label
_atom_site_type_symbol
_atom_site_fract_x
_atom_site_fract_y
_atom_site_fract_z
O1	O	0.926144	0.087172	-0.114245
O2	O	0.722833	0.098905	-0.114258
O3	O	0.830352	-0.008616	-0.114241
O4	O	0.818625	0.194694	-0.114263
O5	O	0.830349	-0.008617	0.114339
O6	O	0.722830	0.098904	0.114322
O7	O	0.926141	0.087172	0.114335
Zn8	Zn	0.824485	0.093038	0.150620
Zn9	Zn	0.824489	0.093039	-0.150544
O10	O	0.818622	0.194693	0.114317
C11	C	0.696821	0.098525	0.000030
C12	C	0.619316	0.097383	0.000025
C13	C	0.066062	0.089239	-0.124558
C14	C	0.138887	0.090307	-0.124563
C15	C	0.175302	0.090844	0.000035
C16	C	0.138889	0.090294	0.124648
C17	C	0.066067	0.089219	0.124650
N18	N	0.284322	0.132262	0.092775
N19	N	0.353499	0.133284	0.092765
C20	C	0.394711	0.094081	0.000037
N21	N	0.364129	0.053826	-0.092701
N22	N	0.294945	0.052806	-0.092695
C23	C	0.254265	0.092009	0.000047
C24	C	0.510080	0.095784	-0.124574
C25	C	0.582906	0.096848	-0.124574
C26	C	0.582906	0.096842	0.124641
C27	C	0.510082	0.095771	0.124638
C28	C	0.473673	0.095246	0.000026
C29	C	0.829970	-0.034628	0.000049
C30	C	0.828826	-0.112132	0.000048
C31	C	0.820690	-0.665392	0.124614
C32	C	0.821757	-0.592567	0.124622
C33	C	0.822295	-0.556147	0.000024
C34	C	0.821749	-0.592555	-0.124590
C35	C	0.820675	-0.665377	-0.124594
N36	N	0.863713	-0.447123	-0.092714
N37	N	0.864734	-0.377945	-0.092701
C38	C	0.825529	-0.336738	0.000029
N39	N	0.785272	-0.367323	0.092768
N40	N	0.784254	-0.436508	0.092759
C41	C	0.823459	-0.477184	0.000015
C42	C	0.827227	-0.221373	0.124644
C43	C	0.828289	-0.148547	0.124647
C44	C	0.828288	-0.148537	-0.124569
C45	C	0.827219	-0.221361	-0.124568
C46	C	0.826691	-0.257775	0.000043
C47	C	0.952153	0.087552	0.000043
C48	C	1.029658	0.088693	0.000039
C49	C	0.819004	0.220704	0.000024
C50	C	0.820148	0.298209	0.000016
N51	N	0.824487	0.093036	0.356157
N52	N	0.824492	0.093035	-0.356081
C53	C	0.919733	-0.002147	0.356163
C54	C	0.967361	-0.049736	0.428106
C55	C	0.967368	-0.049737	0.571985
C56	C	0.919741	-0.002144	0.643926
C57	C	0.872113	0.045446	0.571983
C58	C	0.872113	0.045442	0.428100
C59	C	0.776865	0.140624	0.571977
C60	C	0.776860	0.140629	0.428097
C61	C	0.729237	0.188217	0.643917
C62	C	0.681612	0.235811	0.571974
C63	C	0.681607	0.235810	0.428085
C64	C	0.729232	0.188219	0.356154
H65	H	0.612555	0.097277	0.226091
Br66	Br	0.460663	0.095067	-0.293685
Br67	Br	0.819938	-0.714781	-0.293705
H68	H	0.822185	-0.562923	0.226087
Br69	Br	0.460671	0.095041	0.293743
Br70	Br	0.616975	0.300389	0.669609
H71	H	0.642820	0.274561	0.369517
Br72	Br	0.919739	-0.002155	0.839192
Br73	Br	0.919740	-0.002140	0.160896
Br74	Br	0.826509	-0.270797	0.293753
Br75	Br	0.729239	0.188214	0.839184
H76	H	1.006149	-0.088491	0.630561
H77	H	0.828729	-0.118911	0.226113
Br78	Br	0.828985	-0.099114	-0.293669
H79	H	0.820260	-0.695036	0.226082
Br80	Br	0.822481	-0.543130	-0.293688
H81	H	0.168543	0.090730	0.226097
Br82	Br	0.729234	0.188218	0.160887
Br83	Br	0.016653	0.088521	-0.293672
Br84	Br	0.016657	0.088480	0.293759
H85	H	0.168532	0.090755	-0.226028
H86	H	0.826782	-0.250999	-0.226029
Br87	Br	0.632315	0.097577	-0.293686
H88	H	1.006138	-0.088487	0.369519
