data_functionalizedCrystal
_audit_creation_method	'MofGen! by Chris Wilmer'
_symmetry_space_group_name_H-M	'P1'
_symmetry_Int_Tables_number	1
_symmetry_cell_setting	triclinic
loop_
_symmetry_equiv_pos_as_xyz
  x,y,z
_cell_length_a	12.827893
_cell_length_b	21.295417
_cell_length_c	12.827885
_cell_angle_alpha	90.037053
_cell_angle_beta	90.019272
_cell_angle_gamma	90.029673
loop_
_atom_site_label
_atom_site_type_symbol
_atom_site_fract_x
_atom_site_fract_y
_atom_site_fract_z
Zn1	Zn	1.597566	-0.250579	0.590796
Zn2	Zn	1.930899	0.082754	0.924129
Zn3	Zn	2.264232	0.416087	1.257463
Zn4	Zn	1.597416	-0.355861	0.416034
Zn5	Zn	1.930749	-0.022528	0.749367
Zn6	Zn	2.264083	0.310805	1.082701
Zn7	Zn	1.422807	-0.250610	0.416070
Zn8	Zn	1.756140	0.082723	0.749403
Zn9	Zn	2.089474	0.416057	1.082736
Zn10	Zn	1.422749	-0.355814	0.590734
Zn11	Zn	1.756082	-0.022481	0.924067
Zn12	Zn	2.089415	0.310852	1.257401
O13	O	1.510134	-0.303216	0.503408
O14	O	1.843468	0.030117	0.836742
O15	O	2.176801	0.363450	1.170075
O16	O	1.743782	-0.264552	0.567624
O17	O	2.077115	0.068781	0.900958
O18	O	2.410449	0.402115	1.234291
O19	O	1.574216	-0.341932	0.269803
O20	O	1.907549	-0.008599	0.603136
O21	O	2.240882	0.324735	0.936469
O22	O	1.446076	-0.162516	0.439288
O23	O	1.779410	0.170817	0.772621
O24	O	2.112743	0.504150	1.105955
O25	O	1.743672	-0.341902	0.439228
O26	O	2.077005	-0.008569	0.772561
O27	O	2.410339	0.324764	1.105894
O28	O	1.574471	-0.162494	0.567659
O29	O	1.907804	0.170839	0.900992
O30	O	2.241137	0.504173	1.234325
O31	O	1.445931	-0.264604	0.269829
O32	O	1.779264	0.068729	0.603162
O33	O	2.112598	0.402063	0.936495
O34	O	1.276563	-0.264559	0.439228
O35	O	1.609897	0.068775	0.772561
O36	O	1.943230	0.402108	1.105895
O37	O	1.445977	-0.341822	0.736978
O38	O	1.779310	-0.008489	1.070312
O39	O	2.112643	0.324844	1.403645
O40	O	1.276520	-0.341852	0.567553
O41	O	1.609854	-0.008519	0.900887
O42	O	1.943187	0.324815	1.234220
O43	O	1.574414	-0.264506	0.737024
O44	O	1.907747	0.068827	1.070357
O45	O	2.241081	0.402160	1.403690
O46	O	1.574159	-0.443944	0.439168
O47	O	1.907492	-0.110611	0.772501
O48	O	2.240826	0.222722	1.105834
O49	O	1.445832	-0.443910	0.567519
O50	O	1.779165	-0.110577	0.900852
O51	O	2.112498	0.222757	1.234186
C52	C	1.238625	-0.303204	0.503388
C53	C	1.571958	0.030129	0.836722
C54	C	1.905291	0.363463	1.170055
C55	C	1.122471	-0.303214	0.503405
C56	C	1.455805	0.030119	0.836738
C57	C	1.789138	0.363453	1.170071
C58	C	1.070693	-0.341521	0.566806
C59	C	1.404026	-0.008188	0.900140
C60	C	1.737360	0.325146	1.233473
C61	C	0.950643	-0.341532	0.566824
C62	C	1.283976	-0.008199	0.900158
C63	C	1.617309	0.325134	1.233491
C64	C	1.510001	-0.466768	0.503355
C65	C	1.843335	-0.133435	0.836689
C66	C	2.176668	0.199899	1.170022
C67	C	1.510040	-0.536736	0.503368
C68	C	1.843373	-0.203403	0.836701
C69	C	2.176707	0.129931	1.170034
C70	C	1.576857	-0.569534	0.570258
C71	C	1.910190	-0.236200	0.903591
C72	C	2.243523	0.097133	1.236925
C73	C	1.576893	-0.635276	0.570284
C74	C	1.910227	-0.301943	0.903617
C75	C	2.243560	0.031390	1.236951
C76	C	1.510125	-0.668218	0.503401
C77	C	1.843458	-0.334885	0.836734
C78	C	2.176791	-0.001552	1.170067
C79	C	1.443295	-0.635413	0.436506
C80	C	1.776628	-0.302079	0.769839
C81	C	2.109962	0.031254	1.103172
C82	C	1.443253	-0.569672	0.436489
C83	C	1.776586	-0.236338	0.769822
C84	C	2.109919	0.096995	1.103156
N85	N	1.502229	-0.771487	0.411945
N86	N	1.835562	-0.438153	0.745278
N87	N	2.168895	-0.104820	1.078612
N88	N	1.502275	-0.833938	0.411964
N89	N	1.835608	-0.500605	0.745297
N90	N	2.168942	-0.167271	1.078630
C91	C	1.510247	-0.866293	0.503448
C92	C	1.843580	-0.532960	0.836781
C93	C	2.176913	-0.199626	1.170115
N94	N	1.518191	-0.833838	0.594915
N95	N	1.851524	-0.500504	0.928248
N96	N	2.184857	-0.167171	1.261581
N97	N	1.518150	-0.771380	0.594895
N98	N	1.851483	-0.438047	0.928228
N99	N	2.184816	-0.104714	1.261562
C100	C	1.510163	-0.739504	0.503412
C101	C	1.843496	-0.406170	0.836745
C102	C	2.176829	-0.072837	1.170078
C103	C	1.577107	-0.970376	0.570372
C104	C	1.910440	-0.637043	0.903705
C105	C	2.243774	-0.303710	1.237039
C106	C	1.577136	-1.036120	0.570399
C107	C	1.910470	-0.702787	0.903733
C108	C	2.243803	-0.369453	1.237066
C109	C	1.443543	-1.036255	0.436612
C110	C	1.776877	-0.702922	0.769945
C111	C	2.110210	-0.369589	1.103278
C112	C	1.443508	-0.970513	0.436594
C113	C	1.776842	-0.637180	0.769927
C114	C	2.110175	-0.303846	1.103260
C115	C	1.510296	-0.937577	0.503472
C116	C	1.843629	-0.604244	0.836805
C117	C	2.176962	-0.270911	1.170139
C118	C	1.782704	-0.303229	0.503429
C119	C	2.116038	0.030104	0.836762
C120	C	2.449371	0.363438	1.170096
C121	C	1.898858	-0.303234	0.503438
C122	C	2.232191	0.030099	0.836771
C123	C	2.565524	0.363432	1.170104
C124	C	1.510206	-0.303156	0.775979
C125	C	1.843539	0.030178	1.109312
C126	C	2.176872	0.363511	1.442645
C127	C	1.510236	-0.303130	0.892132
C128	C	1.843569	0.030203	1.225465
C129	C	2.176903	0.363537	1.558799
C130	C	1.510297	-0.139026	0.503484
C131	C	1.843630	0.194307	0.836818
C132	C	2.176963	0.527641	1.170151
C133	C	1.510366	-0.069058	0.503517
C134	C	1.843699	0.264276	0.836850
C135	C	2.177032	0.597609	1.170183
C136	C	1.510124	-0.303231	0.231898
C137	C	1.843457	0.030102	0.565232
C138	C	2.176790	0.363436	0.898565
C139	C	1.510296	-0.303079	0.115746
C140	C	1.843629	0.030254	0.449079
C141	C	2.176963	0.363587	0.782412
C142	C	1.573798	-0.264864	0.943939
C143	C	1.907131	0.068469	1.277272
C144	C	2.240464	0.401803	1.610606
C145	C	1.573830	-0.264837	1.063990
C146	C	1.907164	0.068497	1.397323
C147	C	2.240497	0.401830	1.730656
H148	H	1.115240	-0.374306	0.621077
H149	H	1.448574	-0.040973	0.954410
H150	H	1.781907	0.292360	1.287743
Cl151	Cl	1.661130	-1.077352	0.654511
Cl152	Cl	1.994463	-0.744019	0.987844
Cl153	Cl	2.327797	-0.410686	1.321178
Cl154	Cl	1.426247	-0.353678	0.960863
Cl155	Cl	1.759580	-0.020345	1.294196
Cl156	Cl	2.092913	0.312989	1.627529
H157	H	1.455879	-0.335844	1.071200
H158	H	1.789213	-0.002511	1.404533
H159	H	2.122546	0.330822	1.737866
Cl160	Cl	1.657755	-0.214297	0.875208
Cl161	Cl	1.991088	0.119036	1.208542
Cl162	Cl	2.324422	0.452370	1.541875
Cl163	Cl	0.881901	-0.392173	0.650628
Cl164	Cl	1.215234	-0.058840	0.983961
Cl165	Cl	1.548567	0.274494	1.317295
H166	H	1.628251	-0.232078	1.108542
H167	H	1.961585	0.101255	1.441876
H168	H	2.294918	0.434589	1.775209
Cl169	Cl	1.359601	-1.077662	0.352532
Cl170	Cl	1.692934	-0.744329	0.685865
Cl171	Cl	2.026268	-0.410996	1.019198
H172	H	1.077924	-0.270424	0.449142
H173	H	1.411257	0.062910	0.782476
H174	H	1.744591	0.396243	1.115809
H175	H	1.631486	-0.943559	0.624832
H176	H	1.964819	-0.610226	0.958165
H177	H	2.298153	-0.276892	1.291499
H178	H	1.631236	-0.542719	0.624717
H179	H	1.964569	-0.209386	0.958050
H180	H	2.297903	0.123947	1.291384
Cl181	Cl	0.967593	-0.252599	0.419620
Cl182	Cl	1.300926	0.080735	0.752953
Cl183	Cl	1.634260	0.414068	1.086286
Cl184	Cl	1.660905	-0.676516	0.654374
Cl185	Cl	1.994238	-0.343183	0.987708
Cl186	Cl	2.327572	-0.009850	1.321041
Cl187	Cl	1.359505	-0.929279	0.352497
Cl188	Cl	1.692839	-0.595946	0.685831
Cl189	Cl	2.026172	-0.262612	1.019164
H190	H	1.388929	-0.662239	0.382051
H191	H	1.722262	-0.328905	0.715384
H192	H	2.055596	0.004428	1.048718
H193	H	1.388841	-0.542967	0.382018
H194	H	1.722174	-0.209634	0.715351
H195	H	2.055508	0.123700	1.048685
