data_functionalizedCrystal
_audit_creation_method	'MofGen! by Chris Wilmer'
_symmetry_space_group_name_H-M	'P1'
_symmetry_Int_Tables_number	1
_symmetry_cell_setting	triclinic
loop_
_symmetry_equiv_pos_as_xyz
  x,y,z
_cell_length_a	10.967874
_cell_length_b	14.519731
_cell_length_c	9.482900
_cell_angle_alpha	99.351580
_cell_angle_beta	68.707142
_cell_angle_gamma	84.210075
loop_
_atom_site_label
_atom_site_type_symbol
_atom_site_fract_x
_atom_site_fract_y
_atom_site_fract_z
O1	O	1.745664	0.063246	-0.558223
O2	O	1.367165	0.086855	-0.463404
O3	O	1.566433	-0.059433	-0.513310
O4	O	1.546396	0.209534	-0.508317
O5	O	1.525958	-0.029604	-0.261380
O6	O	1.326689	0.116684	-0.211475
O7	O	1.705189	0.093076	-0.306293
Cu8	Cu	1.512243	0.107604	-0.235881
Cu9	Cu	1.560110	0.072327	-0.533816
O10	O	1.505920	0.239364	-0.256387
C11	C	1.298486	0.102306	-0.325304
C12	C	1.154148	0.103892	-0.289145
C13	C	1.545256	-0.078855	-0.387110
C14	C	1.542442	-0.181165	-0.386404
C15	C	1.110765	0.089146	-0.403532
C16	C	0.961585	0.090785	-0.366162
C17	C	1.540156	-0.264253	-0.385834
C18	C	1.537301	-0.368492	-0.385130
C19	C	1.535035	-0.451576	-0.384572
C20	C	1.532179	-0.555822	-0.383865
C21	C	1.773868	0.077624	-0.444396
C22	C	1.918208	0.076037	-0.480565
C23	C	1.527098	0.258785	-0.382591
C24	C	1.529913	0.361094	-0.383307
N25	N	1.478585	0.132415	-0.026331
N26	N	1.593778	0.047508	-0.743369
C27	C	1.550174	0.079640	0.027939
C28	C	1.522179	0.100290	0.202368
H29	H	1.184066	0.075313	-0.529127
O30	O	1.369971	0.212534	0.083161
H31	H	1.321792	0.248055	0.016873
H32	H	1.440155	0.160762	0.285035
H33	H	0.888286	0.104629	-0.240558
H34	H	0.991503	0.062205	-0.606169
H35	H	1.080846	0.117734	-0.163550
H36	H	1.632184	0.019166	-0.054728
H37	H	1.675793	-0.012970	0.173967
