data_functionalizedCrystal
_audit_creation_method	'MofGen! by Chris Wilmer'
_symmetry_space_group_name_H-M	'P1'
_symmetry_Int_Tables_number	1
_symmetry_cell_setting	triclinic
loop_
_symmetry_equiv_pos_as_xyz
  x,y,z
_cell_length_a	14.044220
_cell_length_b	8.559649
_cell_length_c	12.503567
_cell_angle_alpha	86.974501
_cell_angle_beta	93.840205
_cell_angle_gamma	81.483771
loop_
_atom_site_label
_atom_site_type_symbol
_atom_site_fract_x
_atom_site_fract_y
_atom_site_fract_z
O1	O	-1.236026	-0.372906	-0.089199
O2	O	-0.736026	0.127094	0.410801
O3	O	-0.961060	-0.359145	-0.089227
O4	O	-0.461060	0.140855	0.410773
O5	O	-1.122768	-0.136877	-0.089210
O6	O	-0.622768	0.363123	0.410790
O7	O	-1.074319	-0.595174	-0.089217
O8	O	-0.574319	-0.095174	0.410783
O9	O	-1.110592	-0.153610	0.089432
O10	O	-0.610592	0.346390	0.589432
O11	O	-0.948884	-0.375879	0.089414
O12	O	-0.448884	0.124121	0.589414
O13	O	-1.223850	-0.389639	0.089442
O14	O	-0.723850	0.110361	0.589442
Cu15	Cu	-1.085255	-0.384287	0.105739
Cu16	Cu	-0.585255	0.115713	0.605739
Cu17	Cu	-1.099655	-0.364498	-0.105525
Cu18	Cu	-0.599655	0.135502	0.394475
O19	O	-1.062142	-0.611908	0.089425
O20	O	-0.562142	-0.111908	0.589425
C21	C	-1.120352	-0.086237	0.000109
C22	C	-0.620352	0.413763	0.500109
C23	C	-1.131281	0.089586	0.000104
C24	C	-0.631281	0.589586	0.500104
C25	C	-0.920096	-0.361489	0.000090
C26	C	-0.420096	0.138511	0.500090
C27	C	-0.816179	-0.343524	0.000080
C28	C	-0.316179	0.156476	0.500080
C29	C	-1.264814	-0.387295	0.000122
C30	C	-0.764814	0.112705	0.500122
C31	C	-1.368732	-0.405259	0.000126
C32	C	-0.868732	0.094741	0.500126
C33	C	-0.625907	-0.310685	0.000101
C34	C	-0.125907	0.189315	0.500101
C35	C	-0.558999	-0.438092	0.000104
C36	C	-0.058999	0.061908	0.500104
C37	C	-0.453125	-0.419819	0.000116
C38	C	0.046875	0.080181	0.500116
C39	C	-0.731791	-0.328955	0.000089
C40	C	-0.231791	0.171045	0.500089
C41	C	-1.064559	-0.662547	0.000103
C42	C	-0.564559	-0.162547	0.500103
C43	C	-1.053630	-0.838370	0.000101
C44	C	-0.553630	-0.338370	0.500101
N45	N	-1.075134	-0.398206	0.254331
N46	N	-0.575134	0.101794	0.754331
C47	C	-1.124662	-0.330105	0.526769
C48	C	-0.624662	0.169895	1.026769
C49	C	-1.060254	-0.418681	0.473439
C50	C	-0.560254	0.081319	0.973439
C51	C	-1.068535	-0.407286	0.351516
C52	C	-0.568535	0.092714	0.851516
C53	C	-1.116382	-0.341499	0.648703
C54	C	-0.616382	0.158501	1.148703
N55	N	-1.109778	-0.350586	0.745884
N56	N	-0.609778	0.149414	1.245884
H57	H	-0.603676	-0.187896	0.000109
H58	H	-0.103676	0.312104	0.500109
H59	H	-1.206127	0.162423	0.000121
H60	H	-0.706127	0.662423	0.500121
H61	H	-0.978788	0.088801	0.000097
H62	H	-0.478788	0.588801	0.500097
H63	H	-0.998893	-0.503073	0.519348
H64	H	-0.498893	-0.003073	1.019348
N65	N	-1.201629	-0.224248	0.469171
N66	N	-0.701629	0.275752	0.969171
N67	N	-1.208329	-0.215030	0.368774
N68	N	-0.708329	0.284970	0.868774
H69	H	-1.262688	-0.140272	0.328082
H70	H	-0.762688	0.359728	0.828082
H71	H	-0.581231	-0.560891	0.000097
H72	H	-0.081231	-0.060891	0.500097
