data_functionalizedCrystal
_audit_creation_method	'MofGen! by Chris Wilmer'
_symmetry_space_group_name_H-M	'P1'
_symmetry_Int_Tables_number	1
_symmetry_cell_setting	triclinic
loop_
_symmetry_equiv_pos_as_xyz
  x,y,z
_cell_length_a	10.489716
_cell_length_b	27.731996
_cell_length_c	8.965430
_cell_angle_alpha	89.994463
_cell_angle_beta	89.996523
_cell_angle_gamma	83.575262
loop_
_atom_site_label
_atom_site_type_symbol
_atom_site_fract_x
_atom_site_fract_y
_atom_site_fract_z
O1	O	1.691043	0.068132	-0.124049
O2	O	1.319559	0.074546	-0.124057
O3	O	1.516873	0.001013	-0.124021
O4	O	1.493729	0.141665	-0.124086
O5	O	1.516857	0.001018	0.124058
O6	O	1.319542	0.074550	0.124022
O7	O	1.691027	0.068137	0.124030
Cu8	Cu	1.505283	0.071344	0.146677
Cu9	Cu	1.505303	0.071338	-0.146705
O10	O	1.493712	0.141670	0.123993
C11	C	1.272040	0.074066	-0.000018
C12	C	1.130473	0.072624	-0.000019
C13	C	1.030795	0.117717	-0.000044
C14	C	0.954500	0.093892	0.122290
C15	C	0.954523	0.093876	-0.122297
C16	C	1.056042	0.048818	0.122415
C17	C	1.056071	0.048809	-0.122281
C18	C	0.979826	0.024951	0.000082
C19	C	1.516389	-0.016995	0.000024
C20	C	1.514957	-0.070660	0.000039
C21	C	1.505957	-0.403436	-0.135262
C22	C	1.500519	-0.605128	-0.135288
O23	O	1.499769	-0.631206	-0.250295
N24	N	1.499834	-0.630347	-0.000062
C25	C	1.500501	-0.605139	0.135181
O26	O	1.499781	-0.631216	0.250199
C27	C	1.505930	-0.403447	0.135206
C28	C	1.506627	-0.378232	-0.000029
C29	C	1.506653	-0.378220	-0.270486
C30	C	1.508019	-0.327800	-0.270478
C31	C	1.508690	-0.302596	-0.135246
C32	C	1.507994	-0.327812	-0.000022
C33	C	1.506587	-0.378240	0.270447
C34	C	1.507941	-0.327813	0.270441
C35	C	1.508639	-0.302598	0.135206
C36	C	1.510030	-0.252188	0.135219
N37	N	1.510715	-0.226969	-0.000008
C38	C	1.510044	-0.252173	-0.135240
C39	C	1.497653	-0.711030	0.135159
C40	C	1.496299	-0.761453	0.135153
C41	C	1.496314	-0.761439	-0.135317
C42	C	1.497678	-0.711015	-0.135310
C43	C	1.498338	-0.685811	-0.000068
C44	C	1.512915	-0.146288	-0.135213
C45	C	1.514287	-0.095864	-0.135193
C46	C	1.514265	-0.095883	0.135276
C47	C	1.512900	-0.146303	0.135257
C48	C	1.512221	-0.171504	0.000000
O49	O	1.510767	-0.226078	0.250165
O50	O	1.510736	-0.226086	-0.250241
C51	C	1.504590	-0.453855	-0.135270
C52	C	1.503894	-0.479071	-0.000045
C53	C	1.504565	-0.453867	0.135187
C54	C	1.502540	-0.529494	-0.000051
C55	C	1.501869	-0.554698	-0.135283
C56	C	1.502554	-0.529479	-0.270510
C57	C	1.503920	-0.479060	-0.270502
C58	C	1.503880	-0.479086	0.270413
C59	C	1.502515	-0.529505	0.270394
C60	C	1.501845	-0.554710	0.135162
C61	C	1.738546	0.068617	-0.000013
C62	C	1.880113	0.070058	-0.000021
C63	C	1.494196	0.159678	-0.000055
C64	C	1.495628	0.213343	-0.000080
N65	N	1.505278	0.071348	0.353026
N66	N	1.505317	0.071331	-0.353054
C67	C	1.414000	0.105343	0.450316
C68	C	1.529063	0.115119	0.549726
C69	C	1.390264	0.061576	0.549743
C70	C	1.620399	0.081146	0.450248
C71	C	1.481525	0.027584	0.450256
C72	C	1.596672	0.037342	0.549622
H73	H	0.957141	-0.014302	0.000171
H74	H	1.100419	0.029786	-0.225690
H75	H	1.053721	0.156941	0.000052
H76	H	1.498197	-0.690514	0.245295
O77	O	1.321863	0.139604	0.398208
C78	C	1.233037	0.117142	0.311694
H79	H	1.235892	0.077413	0.345568
H80	H	1.132479	0.136314	0.330945
H81	H	1.258909	0.119534	0.188613
H82	H	0.910164	0.112929	0.225694
O83	O	1.552849	0.159295	0.601794
C84	C	1.456393	0.195043	0.551178
H85	H	1.366251	0.177400	0.523290
H86	H	1.433612	0.223409	0.642179
H87	H	1.491317	0.213225	0.447139
O88	O	1.495447	-0.785986	0.266431
C89	C	1.384136	-0.810041	0.274529
H90	H	1.347118	-0.815899	0.157111
H91	H	1.408011	-0.846643	0.331791
H92	H	1.307272	-0.787034	0.341233
O93	O	1.736362	0.091098	0.398093
C94	C	1.734919	0.091013	0.240839
H95	H	1.631710	0.098224	0.199718
H96	H	1.792573	0.120564	0.197433
H97	H	1.779305	0.054183	0.198206
O98	O	1.457642	-0.016585	0.398253
C99	C	1.552786	-0.052471	0.451016
H100	H	1.597961	-0.038931	0.556482
H101	H	1.507490	-0.086998	0.477247
H102	H	1.629841	-0.060503	0.361988
H103	H	1.100197	0.029796	0.225940
H104	H	0.910200	0.112919	-0.225704
H105	H	1.514858	-0.075336	-0.245323
H106	H	1.498244	-0.690488	-0.245430
H107	H	1.673964	0.008584	0.592952
O108	O	1.274103	0.051778	0.601699
C109	C	1.178149	0.087726	0.551129
H110	H	1.212993	0.105558	0.446431
H111	H	1.087332	0.070368	0.524343
H112	H	1.156529	0.116320	0.641717
O113	O	1.512293	-0.170691	-0.266732
C114	C	1.513155	-0.137612	-0.386067
H115	H	1.554539	-0.103541	-0.346406
H116	H	1.574687	-0.155032	-0.480672
H117	H	1.410938	-0.127517	-0.427622
H118	H	1.508582	-0.307274	-0.380601
H119	H	1.506102	-0.398736	-0.380615
O120	O	1.495710	-0.785854	-0.266818
C121	C	1.496561	-0.752788	-0.386188
H122	H	1.537931	-0.718709	-0.346563
H123	H	1.558101	-0.770215	-0.480775
H124	H	1.394343	-0.742702	-0.427750
H125	H	1.508460	-0.307294	0.380574
O126	O	1.505662	-0.402686	0.401867
C127	C	1.395490	-0.385244	0.484097
H128	H	1.318659	-0.367826	0.404925
H129	H	1.357474	-0.416683	0.545469
H130	H	1.421246	-0.357120	0.568389
H131	H	1.512344	-0.166835	0.245376
H132	H	1.514816	-0.075353	0.245378
H133	H	1.504487	-0.458534	-0.380625
O134	O	1.501667	-0.553982	-0.401832
C135	C	1.390389	-0.578057	-0.409875
H136	H	1.313571	-0.559293	-0.333138
H137	H	1.353278	-0.576923	-0.529476
H138	H	1.414334	-0.617423	-0.373516
H139	H	1.501958	-0.550032	0.380528
H140	H	1.504428	-0.458570	0.380538
