data_functionalizedCrystal
_audit_creation_method	'MofGen! by Chris Wilmer'
_symmetry_space_group_name_H-M	'P1'
_symmetry_Int_Tables_number	1
_symmetry_cell_setting	triclinic
loop_
_symmetry_equiv_pos_as_xyz
  x,y,z
_cell_length_a	16.625548
_cell_length_b	21.295417
_cell_length_c	16.625548
_cell_angle_alpha	90.016382
_cell_angle_beta	90.008236
_cell_angle_gamma	90.031575
loop_
_atom_site_label
_atom_site_type_symbol
_atom_site_fract_x
_atom_site_fract_y
_atom_site_fract_z
Zn1	Zn	1.232537	-0.250696	0.455881
Zn2	Zn	1.482537	-0.000696	0.705881
Zn3	Zn	1.732537	0.249304	0.955881
Zn4	Zn	1.982537	0.499304	1.205881
Zn5	Zn	1.232451	-0.355938	0.321036
Zn6	Zn	1.482451	-0.105938	0.571036
Zn7	Zn	1.732451	0.144062	0.821036
Zn8	Zn	1.982451	0.394062	1.071036
Zn9	Zn	1.097728	-0.250688	0.321061
Zn10	Zn	1.347728	-0.000688	0.571061
Zn11	Zn	1.597728	0.249312	0.821061
Zn12	Zn	1.847728	0.499312	1.071061
Zn13	Zn	1.097651	-0.355933	0.455826
Zn14	Zn	1.347651	-0.105933	0.705826
Zn15	Zn	1.597651	0.144067	0.955826
Zn16	Zn	1.847651	0.394067	1.205826
O17	O	1.165092	-0.303314	0.388451
O18	O	1.415092	-0.053314	0.638451
O19	O	1.665092	0.196686	0.888451
O20	O	1.915092	0.446686	1.138451
O21	O	1.345358	-0.264661	0.438006
O22	O	1.595358	-0.014661	0.688006
O23	O	1.845358	0.235339	0.938006
O24	O	2.095358	0.485339	1.188006
O25	O	1.214576	-0.341975	0.208207
O26	O	1.464576	-0.091975	0.458207
O27	O	1.714576	0.158025	0.708207
O28	O	1.964576	0.408025	0.958207
O29	O	1.115680	-0.162600	0.338979
O30	O	1.365680	0.087400	0.588979
O31	O	1.615680	0.337400	0.838979
O32	O	1.865680	0.587400	1.088979
O33	O	1.345294	-0.341982	0.338936
O34	O	1.595294	-0.091982	0.588936
O35	O	1.845294	0.158018	0.838936
O36	O	2.095294	0.408018	1.088936
O37	O	1.214723	-0.162605	0.438030
O38	O	1.464723	0.087395	0.688030
O39	O	1.714723	0.337395	0.938030
O40	O	1.964723	0.587395	1.188030
O41	O	1.115595	-0.264649	0.208226
O42	O	1.365595	-0.014649	0.458226
O43	O	1.615595	0.235351	0.708226
O44	O	1.865595	0.485351	0.958226
O45	O	0.984885	-0.264644	0.338926
O46	O	1.234885	-0.014644	0.588926
O47	O	1.484885	0.235356	0.838926
O48	O	1.734885	0.485356	1.088926
O49	O	1.115547	-0.341974	0.568665
O50	O	1.365547	-0.091974	0.818665
O51	O	1.615547	0.158026	1.068665
O52	O	1.865547	0.408026	1.318665
O53	O	0.984828	-0.341967	0.437937
O54	O	1.234828	-0.091967	0.687937
O55	O	1.484828	0.158033	0.937937
O56	O	1.734828	0.408033	1.187937
O57	O	1.214648	-0.264657	0.568706
O58	O	1.464648	-0.014657	0.818706
O59	O	1.714648	0.235343	1.068706
O60	O	1.964648	0.485343	1.318706
O61	O	1.214500	-0.444027	0.338883
O62	O	1.464500	-0.194027	0.588883
O63	O	1.714500	0.055973	0.838883
O64	O	1.964500	0.305973	1.088883
O65	O	1.115463	-0.444023	0.437912
O66	O	1.365463	-0.194023	0.687912
O67	O	1.615463	0.055977	0.937912
O68	O	1.865463	0.305977	1.187912
C69	C	0.955601	-0.303305	0.388428
C70	C	1.205601	-0.053305	0.638428
C71	C	1.455601	0.196695	0.888428
C72	C	1.705601	0.446695	1.138428
C73	C	0.865980	-0.303316	0.388438
C74	C	1.115980	-0.053316	0.638438
C75	C	1.365980	0.196684	0.888438
C76	C	1.615980	0.446684	1.138438
C77	C	0.537804	-0.303320	0.388472
C78	C	0.787804	-0.053320	0.638472
C79	C	1.037804	0.196680	0.888472
C80	C	1.287804	0.446680	1.138472
C81	C	0.629112	-0.303317	0.388460
C82	C	0.879112	-0.053317	0.638460
C83	C	1.129112	0.196683	0.888460
C84	C	1.379112	0.446683	1.138460
C85	C	0.701889	-0.303318	0.388454
C86	C	0.951889	-0.053318	0.638454
C87	C	1.201889	0.196682	0.888454
C88	C	1.451889	0.446682	1.138454
C89	C	0.793203	-0.303315	0.388444
C90	C	1.043203	-0.053315	0.638444
C91	C	1.293203	0.196685	0.888444
C92	C	1.543203	0.446685	1.138444
C93	C	1.164986	-0.466865	0.388406
C94	C	1.414986	-0.216865	0.638406
C95	C	1.664986	0.033135	0.888406
C96	C	1.914986	0.283135	1.138406
C97	C	1.165014	-0.536833	0.388414
C98	C	1.415014	-0.286833	0.638414
C99	C	1.665014	-0.036833	0.888414
C100	C	1.915014	0.213167	1.138414
C101	C	1.216629	-0.569681	0.336902
C102	C	1.466629	-0.319681	0.586902
C103	C	1.716629	-0.069681	0.836902
C104	C	1.966629	0.180319	1.086902
C105	C	1.216667	-0.635424	0.336920
C106	C	1.466667	-0.385424	0.586920
C107	C	1.716667	-0.135424	0.836920
C108	C	1.966667	0.114576	1.086920
C109	C	1.165076	-0.668316	0.388442
C110	C	1.415076	-0.418316	0.638442
C111	C	1.665076	-0.168316	0.888442
C112	C	1.915076	0.081684	1.138442
C113	C	1.113458	-0.635460	0.439964
C114	C	1.363458	-0.385460	0.689964
C115	C	1.613458	-0.135460	0.939964
C116	C	1.863458	0.114540	1.189964
C117	C	1.113427	-0.569719	0.439950
C118	C	1.363427	-0.319719	0.689950
C119	C	1.613427	-0.069719	0.939950
C120	C	1.863427	0.180281	1.189950
N121	N	1.094539	-0.771584	0.394581
N122	N	1.344539	-0.521584	0.644581
N123	N	1.594539	-0.271584	0.894581
N124	N	1.844539	-0.021584	1.144581
N125	N	1.094571	-0.834036	0.394590
N126	N	1.344571	-0.584036	0.644590
N127	N	1.594571	-0.334036	0.894590
N128	N	1.844571	-0.084036	1.144590
C129	C	1.165166	-0.866391	0.388488
C130	C	1.415166	-0.616391	0.638488
C131	C	1.665166	-0.366391	0.888488
C132	C	1.915166	-0.116391	1.138488
N133	N	1.235730	-0.833935	0.382362
N134	N	1.485730	-0.583935	0.632362
N135	N	1.735730	-0.333935	0.882362
N136	N	1.985730	-0.083935	1.132362
N137	N	1.235698	-0.771478	0.382349
N138	N	1.485698	-0.521478	0.632349
N139	N	1.735698	-0.271478	0.882349
N140	N	1.985698	-0.021478	1.132349
C141	C	1.165103	-0.739601	0.388463
C142	C	1.415103	-0.489601	0.638463
C143	C	1.665103	-0.239601	0.888463
C144	C	1.915103	0.010399	1.138463
C145	C	1.216826	-0.970524	0.336993
C146	C	1.466826	-0.720524	0.586993
C147	C	1.716826	-0.470524	0.836993
C148	C	1.966826	-0.220524	1.086993
C149	C	1.216865	-1.036268	0.337017
C150	C	1.466865	-0.786268	0.587017
C151	C	1.716865	-0.536268	0.837017
C152	C	1.966865	-0.286268	1.087017
C153	C	1.113649	-1.036303	0.440056
C154	C	1.363649	-0.786303	0.690056
C155	C	1.613649	-0.536303	0.940056
C156	C	1.863649	-0.286303	1.190056
C157	C	1.113617	-0.970561	0.440037
C158	C	1.363617	-0.720561	0.690037
C159	C	1.613617	-0.470561	0.940037
C160	C	1.863617	-0.220561	1.190037
C161	C	1.165204	-0.937675	0.388501
C162	C	1.415204	-0.687675	0.638501
C163	C	1.665204	-0.437675	0.888501
C164	C	1.915204	-0.187675	1.138501
C165	C	1.375400	-0.303323	0.388474
C166	C	1.625400	-0.053323	0.638474
C167	C	1.875400	0.196677	0.888474
C168	C	2.125400	0.446677	1.138474
C169	C	1.465022	-0.303327	0.388484
C170	C	1.715022	-0.053327	0.638484
C171	C	1.965022	0.196673	0.888484
C172	C	2.215022	0.446673	1.138484
C173	C	1.165099	-0.303316	0.598760
C174	C	1.415099	-0.053316	0.848760
C175	C	1.665099	0.196684	1.098760
C176	C	1.915099	0.446684	1.348760
C177	C	1.165102	-0.303316	0.688381
C178	C	1.415102	-0.053316	0.938381
C179	C	1.665102	0.196684	1.188381
C180	C	1.915102	0.446684	1.438381
C181	C	1.165220	-0.139123	0.388513
C182	C	1.415220	0.110877	0.638513
C183	C	1.665220	0.360877	0.888513
C184	C	1.915220	0.610877	1.138513
C185	C	1.165274	-0.069155	0.388540
C186	C	1.415274	0.180845	0.638540
C187	C	1.665274	0.430845	0.888540
C188	C	1.915274	0.680845	1.138540
C189	C	1.165068	-0.303322	1.016557
C190	C	1.415068	-0.053322	1.266557
C191	C	1.665068	0.196678	1.516557
C192	C	1.915068	0.446678	1.766557
C193	C	1.165075	-0.303322	0.925248
C194	C	1.415075	-0.053322	1.175248
C195	C	1.665075	0.196678	1.425248
C196	C	1.915075	0.446678	1.675248
C197	C	1.165085	-0.303320	0.852472
C198	C	1.415085	-0.053320	1.102472
C199	C	1.665085	0.196680	1.352472
C200	C	1.915085	0.446680	1.602472
C201	C	1.165092	-0.303319	0.761157
C202	C	1.415092	-0.053319	1.011157
C203	C	1.665092	0.196681	1.261157
C204	C	1.915092	0.446681	1.511157
C205	C	1.165077	-0.303325	1.178960
C206	C	1.415077	-0.053325	1.428960
C207	C	1.665077	0.196675	1.678960
C208	C	1.915077	0.446675	1.928960
C209	C	1.165069	-0.303320	1.089339
C210	C	1.415069	-0.053320	1.339339
C211	C	1.665069	0.196680	1.589339
C212	C	1.915069	0.446680	1.839339
H213	H	1.258636	-0.542908	0.294941
H214	H	1.508636	-0.292908	0.544941
H215	H	1.758636	-0.042908	0.794941
H216	H	2.008636	0.207092	1.044941
H217	H	1.258834	-0.943747	0.295032
H218	H	1.508834	-0.693747	0.545032
H219	H	1.758834	-0.443747	0.795032
H220	H	2.008834	-0.193747	1.045032
Br221	Br	1.286928	-1.080848	0.267110
Br222	Br	1.536928	-0.830848	0.517110
Br223	Br	1.786928	-0.580848	0.767110
Br224	Br	2.036928	-0.330848	1.017110
H225	H	1.071396	-0.542974	0.481898
H226	H	1.321396	-0.292974	0.731898
H227	H	1.571396	-0.042974	0.981898
H228	H	1.821396	0.207026	1.231898
Br229	Br	1.043639	-1.080935	0.509988
Br230	Br	1.293639	-0.830935	0.759988
Br231	Br	1.543639	-0.580935	1.009988
Br232	Br	1.793639	-0.330935	1.259988
H233	H	1.071584	-0.943814	0.481979
H234	H	1.321584	-0.693814	0.731979
H235	H	1.571584	-0.443814	0.981979
H236	H	1.821584	-0.193814	1.231979
Br237	Br	1.043447	-0.680098	0.509893
Br238	Br	1.293447	-0.430098	0.759893
Br239	Br	1.543447	-0.180098	1.009893
Br240	Br	1.793447	0.069902	1.259893
H241	H	1.258700	-0.662173	0.294974
H242	H	1.508700	-0.412173	0.544974
H243	H	1.758700	-0.162173	0.794974
H244	H	2.008700	0.087827	1.044974
