data_functionalizedCrystal
_audit_creation_method	'MofGen! by Chris Wilmer'
_symmetry_space_group_name_H-M	'P1'
_symmetry_Int_Tables_number	1
_symmetry_cell_setting	triclinic
loop_
_symmetry_equiv_pos_as_xyz
  x,y,z
_cell_length_a	14.853567
_cell_length_b	16.109301
_cell_length_c	15.186229
_cell_angle_alpha	90.005167
_cell_angle_beta	90.000386
_cell_angle_gamma	83.548206
loop_
_atom_site_label
_atom_site_type_symbol
_atom_site_fract_x
_atom_site_fract_y
_atom_site_fract_z
O1	O	-1.196184	-0.108546	-0.073171
O2	O	-0.933703	-0.121477	-0.073186
O3	O	-1.072154	0.006009	-0.073169
O4	O	-1.057733	-0.236033	-0.073188
O5	O	-1.072145	0.006011	0.073288
O6	O	-0.933694	-0.121475	0.073271
O7	O	-1.196175	-0.108545	0.073287
Zn8	Zn	-1.064933	-0.115010	0.096532
Zn9	Zn	-1.064945	-0.115012	-0.096432
O10	O	-1.057724	-0.236031	0.073269
C11	C	-1.071566	0.036986	0.000060
C12	C	-1.069814	0.129284	0.000061
C13	C	-0.900111	-0.120890	0.000041
C14	C	-0.800030	-0.119135	0.000035
C15	C	-1.229767	-0.109131	0.000058
C16	C	-1.329848	-0.110887	0.000058
C17	C	-0.387634	-0.035983	0.000061
C18	C	-0.366102	-0.187440	0.000049
C19	C	-0.460133	-0.189090	0.000046
C20	C	-0.517919	-0.114187	0.000049
C21	C	-0.481674	-0.037632	0.000056
C22	C	-0.496386	-0.265644	0.000030
C23	C	-0.590422	-0.267298	0.000026
C24	C	-0.648210	-0.192393	0.000036
C25	C	-0.611959	-0.115835	0.000044
C26	C	-0.669745	-0.040931	0.000047
C27	C	-0.633496	0.035628	0.000061
C28	C	-0.539461	0.037273	0.000065
C29	C	-0.742245	-0.194038	0.000031
C30	C	-0.763785	-0.042580	0.000041
C31	C	-1.058313	-0.267007	0.000038
C32	C	-1.060064	-0.359305	0.000031
N33	N	-1.064931	-0.115007	0.228225
C34	C	-1.147896	0.351446	0.000052
C35	C	-1.146243	0.438169	0.000044
C36	C	-0.981976	0.418525	0.000038
C37	C	-0.983629	0.331804	0.000039
C38	C	-1.066592	0.298267	0.000051
C39	C	-1.063286	0.471711	0.000042
C40	C	-1.061494	0.565740	0.000034
C41	C	-1.068385	0.204233	0.000057
N42	N	-1.064954	-0.115008	-0.228124
C43	C	-1.126258	-0.058576	0.453955
C44	C	-1.126261	-0.058574	0.546145
C45	C	-1.003620	-0.171442	0.546139
C46	C	-1.003614	-0.171439	0.453951
C47	C	-1.064938	-0.115007	0.407861
C48	C	-1.064947	-0.115008	0.592239
C49	C	-1.064950	-0.115006	0.692195
C50	C	-1.064934	-0.115008	0.307899
H51	H	-0.810829	0.018417	0.000048
O52	O	-1.192409	0.002290	0.595853
H53	H	-1.154483	0.042773	0.637854
H54	H	-0.914430	0.445842	0.000031
O55	O	-0.937461	-0.232302	0.404232
H56	H	-0.947750	-0.222808	0.332385
O57	O	-0.500359	0.119839	0.000076
H58	H	-0.556336	0.171649	0.000087
O59	O	-0.695823	0.116417	0.000071
H60	H	-0.767299	0.102403	0.000069
H61	H	-1.176191	-0.012624	0.416431
O62	O	-0.348547	0.046590	0.000077
H63	H	-0.273450	0.035158	0.000078
H64	H	-0.319048	-0.248423	0.000038
O65	O	-0.937490	-0.232317	0.595848
H66	H	-0.947802	-0.222846	0.667696
H67	H	-0.449331	-0.326626	0.000018
H68	H	-1.212449	0.481464	0.000044
O69	O	-0.629520	-0.349866	0.000033
H70	H	-0.573539	-0.401673	0.000041
H71	H	-0.771754	-0.256371	0.000022
H72	H	-1.215449	0.324144	0.000059
H73	H	-0.917418	0.288503	0.000036
