data_functionalizedCrystal
_audit_creation_method	'MofGen! by Chris Wilmer'
_symmetry_space_group_name_H-M	'P1'
_symmetry_Int_Tables_number	1
_symmetry_cell_setting	triclinic
loop_
_symmetry_equiv_pos_as_xyz
  x,y,z
_cell_length_a	10.868271
_cell_length_b	19.188928
_cell_length_c	11.792241
_cell_angle_alpha	83.668613
_cell_angle_beta	89.994263
_cell_angle_gamma	89.982618
loop_
_atom_site_label
_atom_site_type_symbol
_atom_site_fract_x
_atom_site_fract_y
_atom_site_fract_z
O1	O	0.102799	-0.926944	-0.141683
O2	O	0.602799	-0.426944	0.358317
O3	O	0.102697	-0.723741	-0.160760
O4	O	0.602697	-0.223741	0.339240
O5	O	0.102742	-0.830274	0.014023
O6	O	0.602742	-0.330274	0.514023
O7	O	0.102754	-0.820411	-0.316466
O8	O	0.602754	-0.320411	0.183534
O9	O	-0.101903	-0.830273	0.014032
O10	O	0.398097	-0.330273	0.514032
O11	O	-0.101947	-0.723740	-0.160751
O12	O	0.398053	-0.223740	0.339249
O13	O	-0.101845	-0.926943	-0.141673
O14	O	0.398155	-0.426943	0.358327
Zn15	Zn	-0.134388	-0.825341	-0.151210
Zn16	Zn	0.365612	-0.325341	0.348790
Zn17	Zn	0.135240	-0.825343	-0.151223
Zn18	Zn	0.635240	-0.325343	0.348777
O19	O	-0.101890	-0.820410	-0.316456
O20	O	0.398110	-0.320410	0.183544
C21	C	0.000362	-0.697726	-0.160138
C22	C	0.500362	-0.197726	0.339862
C23	C	0.000323	-0.620211	-0.158285
C24	C	0.500323	-0.120211	0.341715
C25	C	0.000342	-0.575868	-0.260841
C26	C	0.500342	-0.075868	0.239159
C27	C	0.000349	-0.503034	-0.259100
C28	C	0.500349	-0.003034	0.240900
C29	C	0.000362	-0.474546	-0.154797
C30	C	0.500362	0.025454	0.345203
C31	C	0.000335	-0.518899	-0.052227
C32	C	0.500335	-0.018899	0.447773
C33	C	0.000316	-0.591731	-0.053971
C34	C	0.500316	-0.091731	0.446029
N35	N	0.070048	-0.366115	-0.075074
N36	N	0.570048	0.133885	0.424926
N37	N	0.070069	-0.296927	-0.073425
N38	N	0.570069	0.203073	0.426575
C39	C	0.000418	-0.255108	-0.149536
C40	C	0.500418	0.244892	0.350464
N41	N	-0.069240	-0.285089	-0.227377
N42	N	0.430760	0.214911	0.272623
N43	N	-0.069256	-0.354283	-0.229030
N44	N	0.430744	0.145717	0.270970
C45	C	0.000382	-0.395573	-0.152894
C46	C	0.500382	0.104427	0.347106
C47	C	0.000443	-0.131789	-0.250212
C48	C	0.500443	0.368211	0.249788
C49	C	0.000443	-0.058955	-0.248467
C50	C	0.500443	0.441045	0.251533
C51	C	0.000441	-0.074822	-0.041590
C52	C	0.500441	0.425178	0.458410
C53	C	0.000429	-0.147655	-0.043339
C54	C	0.500429	0.352345	0.456661
C55	C	0.000436	-0.176134	-0.147653
C56	C	0.500436	0.323866	0.352347
N57	N	-0.318402	-0.825345	-0.151201
N58	N	0.181598	-0.325345	0.348799
N59	N	0.319254	-0.825344	-0.151223
N60	N	0.819254	-0.325344	0.348777
C61	C	0.570260	-0.825342	-0.151216
C62	C	1.070260	-0.325342	0.348784
C63	C	0.430583	-0.825341	-0.151224
C64	C	0.930583	-0.325341	0.348776
C65	C	0.000420	-0.829654	0.056309
C66	C	0.500420	-0.329654	0.556309
C67	C	0.000420	-0.827799	0.182295
C68	C	0.500420	-0.327799	0.682295
C69	C	0.000471	0.047042	-0.142299
C70	C	0.500471	0.547042	0.357701
C71	C	0.000453	-0.030472	-0.144162
C72	C	0.500453	0.469528	0.355838
C73	C	0.000435	-0.821030	-0.358743
C74	C	0.500435	-0.321030	0.141257
C75	C	0.000442	-0.822885	-0.484729
C76	C	0.500442	-0.322885	0.015271
C77	C	0.000439	-0.824390	0.412956
C78	C	0.500439	-0.324390	0.912956
C79	C	0.000429	-0.826284	0.284600
C80	C	0.500429	-0.326284	0.784600
H81	H	0.000362	-0.466923	-0.342617
H82	H	0.500362	0.033077	0.157383
H83	H	0.000431	-0.154978	-0.335151
H84	H	0.500431	0.345022	0.164849
H85	H	0.000301	-0.627836	0.029546
H86	H	0.500301	-0.127836	0.529546
O87	O	0.000569	-0.491196	0.049065
O88	O	0.500569	0.008804	0.549065
C89	C	0.106577	-0.418169	0.171059
C90	C	0.606577	0.081831	0.671059
C91	C	0.106487	-0.449507	0.056314
C92	C	0.606487	0.050493	0.556314
H93	H	0.192189	-0.384445	0.176947
H94	H	0.692189	0.115555	0.676947
H95	H	0.106640	-0.462349	0.244109
H96	H	0.606640	0.037651	0.744109
H97	H	0.020906	-0.384473	0.177033
H98	H	0.520906	0.115527	0.677033
H99	H	0.192143	-0.483196	0.050228
H100	H	0.692143	0.016804	0.550228
H101	H	0.106360	-0.405294	-0.016681
H102	H	0.606360	0.094706	0.483319
O103	O	0.000513	-0.015977	-0.348201
O104	O	0.500513	0.484023	0.151799
C105	C	0.000460	-0.007929	-0.553574
C106	C	0.500460	0.492071	-0.053574
C107	C	0.000409	-0.056682	-0.440710
C108	C	0.500409	0.443318	0.059290
H109	H	0.000349	-0.040819	-0.628397
H110	H	0.500349	0.459181	-0.128397
H111	H	0.086129	0.026534	-0.558006
H112	H	0.586129	0.526534	-0.058006
H113	H	-0.085158	0.026599	-0.557869
H114	H	0.414842	0.526599	-0.057869
H115	H	0.085969	-0.091253	-0.436340
H116	H	0.585969	0.408747	0.063660
H117	H	-0.085317	-0.091097	-0.436325
H118	H	0.414683	0.408903	0.063675
O119	O	0.000672	-0.047126	0.059704
O120	O	0.500672	0.452874	0.559704
C121	C	0.106675	0.025901	0.181701
C122	C	0.606675	0.525901	0.681701
C123	C	0.106585	-0.005433	0.066954
C124	C	0.606585	0.494567	0.566954
H125	H	0.192283	0.059629	0.187590
H126	H	0.692283	0.559629	0.687590
H127	H	0.106744	-0.018280	0.254749
H128	H	0.606744	0.481720	0.754749
H129	H	0.021000	0.059594	0.187681
H130	H	0.521000	0.559594	0.687681
H131	H	0.192245	-0.039118	0.060863
H132	H	0.692245	0.460882	0.560863
H133	H	0.106452	0.038782	-0.006039
H134	H	0.606452	0.538782	0.493961
O135	O	0.000281	-0.603415	-0.362268
O136	O	0.500281	-0.103415	0.137732
C137	C	0.000361	-0.579988	-0.567273
C138	C	0.500361	-0.079988	-0.067273
C139	C	0.000406	-0.548695	-0.452489
C140	C	0.500406	-0.048695	0.047511
H141	H	0.000488	-0.535762	-0.640247
H142	H	0.500488	-0.035762	-0.140247
H143	H	-0.085314	-0.613640	-0.573337
H144	H	0.414686	-0.113640	-0.073337
H145	H	0.085973	-0.613737	-0.573205
H146	H	0.585973	-0.113737	-0.073205
H147	H	-0.085148	-0.514915	-0.446479
H148	H	0.414852	-0.014915	0.053521
H149	H	0.086137	-0.515083	-0.446474
H150	H	0.586137	-0.015083	0.053526
O151	O	0.000478	-0.190634	0.056391
O152	O	0.500478	0.309366	0.556391
C153	C	0.000404	-0.198683	0.261764
C154	C	0.500404	0.301317	0.761764
C155	C	0.000382	-0.149930	0.148900
C156	C	0.500382	0.350070	0.648900
H157	H	0.000300	-0.165793	0.336587
H158	H	0.500300	0.334207	0.836587
H159	H	0.086058	-0.233186	0.266194
H160	H	0.586058	0.266814	0.766194
H161	H	-0.085229	-0.233171	0.266060
H162	H	0.414771	0.266829	0.766060
H163	H	0.085957	-0.115398	0.144529
H164	H	0.585957	0.384602	0.644529
H165	H	-0.085329	-0.115474	0.144518
H166	H	0.414671	0.384526	0.644518
