data_functionalizedCrystal
_audit_creation_method	'MofGen! by Chris Wilmer'
_symmetry_space_group_name_H-M	'P1'
_symmetry_Int_Tables_number	1
_symmetry_cell_setting	triclinic
loop_
_symmetry_equiv_pos_as_xyz
  x,y,z
_cell_length_a	10.654562
_cell_length_b	14.519731
_cell_length_c	9.130313
_cell_angle_alpha	89.997760
_cell_angle_beta	89.996930
_cell_angle_gamma	84.089478
loop_
_atom_site_label
_atom_site_type_symbol
_atom_site_fract_x
_atom_site_fract_y
_atom_site_fract_z
O1	O	1.666592	0.129583	-0.121899
O2	O	1.300999	0.141911	-0.121881
O3	O	1.493475	0.001560	-0.121878
O4	O	1.474116	0.269934	-0.121903
O5	O	1.493472	0.001564	0.121721
O6	O	1.300996	0.141915	0.121717
O7	O	1.666590	0.129586	0.121700
Cu8	Cu	1.483793	0.135751	0.143951
Cu9	Cu	1.483796	0.135747	-0.144133
O10	O	1.474114	0.269937	0.121696
C11	C	1.254208	0.141006	-0.000080
C12	C	1.114792	0.138290	-0.000072
C13	C	1.049272	0.137025	0.132702
C14	C	0.918274	0.134481	0.132678
C15	C	0.918326	0.134470	-0.132907
C16	C	1.049323	0.137008	-0.132881
C17	C	1.114740	0.138308	0.265511
C18	C	1.049220	0.137044	0.398296
C19	C	0.918222	0.134500	0.398272
C20	C	0.852744	0.133219	0.265462
C21	C	1.492566	-0.032802	-0.000078
C22	C	1.489848	-0.135196	-0.000077
C23	C	1.487640	-0.218352	-0.000080
C24	C	1.484880	-0.322675	-0.000091
C25	C	1.482690	-0.405826	-0.000100
C26	C	1.479930	-0.510155	-0.000109
C27	C	1.713380	0.130492	-0.000106
C28	C	1.852797	0.133208	-0.000122
C29	C	1.475022	0.304300	-0.000107
C30	C	1.477740	0.406694	-0.000118
N31	N	1.483800	0.135754	0.346574
N32	N	1.483798	0.135737	-0.346756
C33	C	1.569050	0.073628	0.423227
C34	C	1.569047	0.073617	0.576564
C35	C	1.398539	0.197866	0.576580
C36	C	1.398537	0.197872	0.423246
C37	C	1.654313	0.011510	0.346555
C38	C	1.739571	-0.050621	0.423209
C39	C	1.739567	-0.050632	0.576546
C40	C	1.654306	0.011488	0.653229
H41	H	1.102670	0.138042	-0.240998
H42	H	1.221405	0.140382	0.265546
H43	H	0.864880	0.133464	0.506392
O44	O	1.822256	-0.110950	0.651236
C45	C	1.803999	-0.097626	0.803015
H46	H	1.704236	-0.063849	0.823967
H47	H	1.817819	-0.167376	0.861282
H48	H	1.875177	-0.050882	0.846530
O49	O	1.822536	-0.110923	0.348859
C50	C	1.946896	-0.095084	0.386259
H51	H	1.946857	-0.059557	0.497603
H52	H	2.008569	-0.163989	0.391458
H53	H	1.985822	-0.048900	0.299963
H54	H	1.329124	0.248442	0.639025
O55	O	0.725486	0.130784	0.265699
C56	C	0.681697	0.129911	0.411369
H57	H	0.752044	0.160524	0.486577
H58	H	0.586195	0.172903	0.419416
H59	H	0.671440	0.055604	0.445907
H60	H	1.329118	0.248460	0.360834
H61	H	1.102542	0.138080	0.506424
O62	O	0.854810	0.133074	-0.261948
C63	C	0.900869	0.053977	-0.342742
H64	H	0.946660	-0.001056	-0.265038
H65	H	0.819434	0.025551	-0.402992
H66	H	0.973754	0.073475	-0.425526
H67	H	1.654326	0.011515	0.221700
H68	H	1.654302	0.011467	0.778086
