data_functionalizedCrystal
_audit_creation_method	'MofGen! by Chris Wilmer'
_symmetry_space_group_name_H-M	'P1'
_symmetry_Int_Tables_number	1
_symmetry_cell_setting	triclinic
loop_
_symmetry_equiv_pos_as_xyz
  x,y,z
_cell_length_a	19.288864
_cell_length_b	13.101039
_cell_length_c	19.288857
_cell_angle_alpha	86.651623
_cell_angle_beta	83.134677
_cell_angle_gamma	93.359745
loop_
_atom_site_label
_atom_site_type_symbol
_atom_site_fract_x
_atom_site_fract_y
_atom_site_fract_z
O1	O	0.925194	0.085549	0.082787
O2	O	1.425194	0.585549	0.582787
O3	O	0.722930	0.085480	0.094479
O4	O	1.222930	0.585480	0.594479
O5	O	0.829909	0.085504	-0.012497
O6	O	1.329909	0.585504	0.487503
O7	O	0.818215	0.085525	0.189763
O8	O	1.318215	0.585525	0.689763
O9	O	0.822233	-0.084927	-0.004809
O10	O	1.322233	0.415073	0.495191
O11	O	0.715254	-0.084952	0.102167
O12	O	1.215254	0.415048	0.602167
O13	O	0.917518	-0.084882	0.090475
O14	O	1.417518	0.415118	0.590475
Zn15	Zn	0.815168	-0.111977	0.097542
Zn16	Zn	1.315168	0.388023	0.597542
Zn17	Zn	0.825281	0.112574	0.087413
Zn18	Zn	1.325281	0.612574	0.587413
O19	O	0.810540	-0.084907	0.197452
O20	O	1.310540	0.415093	0.697452
C21	C	0.693215	0.000255	0.097948
C22	C	1.193215	0.500255	0.597948
C23	C	0.616111	0.000228	0.096820
C24	C	1.116111	0.500228	0.596820
N25	N	0.808271	-0.265227	0.104455
N26	N	1.308271	0.234773	0.604455
C27	C	0.571414	0.000250	0.159587
C28	C	1.071414	0.500250	0.659587
C29	C	0.498967	0.000262	0.158526
C30	C	0.998967	0.500262	0.658526
C31	C	0.471222	0.000271	0.094693
C32	C	0.971222	0.500271	0.594693
C33	C	0.515928	0.000243	0.031918
C34	C	1.015928	0.500243	0.531918
C35	C	0.588373	0.000221	0.032981
C36	C	1.088373	0.500221	0.532981
C37	C	0.365652	0.060010	0.041819
C38	C	0.865652	0.560010	0.541819
C39	C	0.293208	0.060038	0.040758
C40	C	0.793208	0.560038	0.540758
C41	C	0.247779	0.000333	0.091410
C42	C	0.747779	0.500333	0.591410
C43	C	0.274801	-0.059387	0.143136
C44	C	0.774801	0.440613	0.643136
C45	C	0.347245	-0.059409	0.144199
C46	C	0.847245	0.440591	0.644199
C47	C	0.392669	0.000294	0.093533
C48	C	0.892669	0.500294	0.593533
C49	C	0.124526	0.000366	0.153031
C50	C	0.624526	0.500366	0.653031
C51	C	0.052079	0.000371	0.151968
C52	C	0.552079	0.500371	0.651968
C53	C	0.069042	0.000362	0.025358
C54	C	0.569042	0.500362	0.525358
C55	C	0.141488	0.000347	0.026423
C56	C	0.641488	0.500347	0.526423
C57	C	0.169226	0.000354	0.090262
C58	C	0.669226	0.500354	0.590262
C59	C	0.798888	-0.474272	0.113866
C60	C	1.298888	0.025728	0.613866
C61	C	0.841564	-0.525138	0.071086
C62	C	1.341564	-0.025138	0.571086
C63	C	0.836343	-0.641457	0.076322
C64	C	1.336343	-0.141457	0.576322
C65	C	0.804108	-0.357942	0.108630
C66	C	1.304108	0.142058	0.608630
C67	C	0.947233	0.000345	0.087007
C68	C	1.447233	0.500345	0.587007
C69	C	1.024338	0.000378	0.088134
C70	C	1.524338	0.500378	0.588134
C71	C	0.825696	0.000287	-0.034529
C72	C	1.325696	0.500287	0.465471
C73	C	0.824568	0.000284	-0.111633
C74	C	1.324568	0.500284	0.388367
N75	N	0.832183	0.265824	0.080494
N76	N	1.332183	0.765824	0.580494
C77	C	0.828227	0.093186	-0.152035
C78	C	1.328227	0.593186	0.347965
C79	C	0.827158	0.093193	-0.224481
C80	C	1.327158	0.593193	0.275519
C81	C	0.822446	0.000293	-0.256525
C82	C	1.322446	0.500293	0.243475
C83	C	0.818783	-0.092621	-0.216114
C84	C	1.318783	0.407379	0.283886
C85	C	0.819845	-0.092626	-0.143668
C86	C	1.319845	0.407374	0.356332
C87	C	0.858243	-0.070861	-0.373546
C88	C	1.358243	0.429139	0.126454
C89	C	0.857186	-0.070852	-0.445992
C90	C	1.357186	0.429148	0.054008
C91	C	0.819168	0.000304	-0.479971
C92	C	1.319168	0.500304	0.020029
C93	C	0.782218	0.071468	-0.441498
C94	C	1.282218	0.571468	0.058502
C95	C	0.783279	0.071463	-0.369052
C96	C	1.283279	0.571463	0.130948
C97	C	0.821294	0.000288	-0.335079
C98	C	1.321294	0.500288	0.164921
C99	C	0.821667	0.093220	-0.598927
C100	C	1.321667	0.593220	-0.098927
C101	C	0.820594	0.093224	-0.671374
C102	C	1.320594	0.593224	-0.171374
C103	C	0.812226	-0.092594	-0.663006
C104	C	1.312226	0.407406	-0.163006
C105	C	0.813292	-0.092595	-0.590560
C106	C	1.313292	0.407405	-0.090560
C107	C	0.818016	0.000315	-0.558525
C108	C	1.318016	0.500315	-0.058525
C109	C	0.814753	0.000312	0.219484
C110	C	1.314753	0.500312	0.719484
C111	C	0.815880	0.000322	0.296587
C112	C	1.315880	0.500322	0.796587
H113	H	0.593993	0.000258	0.211569
H114	H	1.093993	0.500258	0.711569
H115	H	0.830133	0.168848	-0.257381
H116	H	1.330133	0.668848	0.242619
F117	F	0.376002	-0.122968	0.199245
F118	F	0.876002	0.377032	0.699245
F119	F	0.833251	0.192070	-0.117945
F120	F	1.333251	0.692070	0.382055
H121	H	0.753191	0.129406	-0.337731
H122	H	1.253191	0.629406	0.162269
F123	F	0.413995	0.123560	-0.012097
F124	F	0.913995	0.623560	0.487903
F125	F	0.486399	0.000248	-0.036017
F126	F	0.986399	0.500248	0.463983
F127	F	0.004508	0.000389	0.218777
F128	F	0.504508	0.500389	0.718777
F129	F	0.746011	-0.531531	0.166876
F130	F	1.246011	-0.031531	0.666876
H131	H	0.046456	0.000433	-0.026619
H132	H	0.546456	0.500433	0.473381
F133	F	0.741751	0.147200	-0.477655
F134	F	1.241751	0.647200	0.022345
F135	F	0.189060	0.000328	-0.040383
F136	F	0.689060	0.500328	0.459617
H137	H	0.825510	0.168873	-0.572843
H138	H	1.325510	0.668873	-0.072843
H139	H	0.823570	0.168879	-0.704268
H140	H	1.323570	0.668879	-0.204268
H141	H	0.462568	0.000277	0.209640
H142	H	0.962568	0.500277	0.709640
F143	F	0.807207	-0.191466	-0.697104
F144	F	1.307207	0.308534	-0.197104
H145	H	0.882022	-0.481326	0.030528
H146	H	1.382022	0.018674	0.530528
H147	H	0.810319	-0.168246	-0.557665
H148	H	1.310319	0.331754	-0.057665
H149	H	0.887276	-0.128795	-0.477311
H150	H	1.387276	0.371205	0.022689
F151	F	0.226457	-0.122934	0.197049
F152	F	0.726457	0.377066	0.697049
F153	F	0.815950	-0.191510	-0.100668
F154	F	1.315950	0.308490	0.399332
H155	H	0.889200	-0.128812	-0.345886
H156	H	1.389200	0.371188	0.154114
H157	H	0.624766	0.000203	-0.018133
H158	H	1.124766	0.500203	0.481867
H159	H	0.271213	0.108669	-0.001357
H160	H	0.771213	0.608669	0.498643
F161	F	0.154049	0.000365	0.220973
F162	F	0.654049	0.500365	0.720973
F163	F	0.813763	-0.191492	-0.250217
F164	F	1.313763	0.308508	0.249783
