data_functionalizedCrystal
_audit_creation_method	'MofGen! by Chris Wilmer'
_symmetry_space_group_name_H-M	'P1'
_symmetry_Int_Tables_number	1
_symmetry_cell_setting	triclinic
loop_
_symmetry_equiv_pos_as_xyz
  x,y,z
_cell_length_a	12.594516
_cell_length_b	12.594517
_cell_length_c	12.594509
_cell_angle_alpha	89.972809
_cell_angle_beta	90.027068
_cell_angle_gamma	89.986772
loop_
_atom_site_label
_atom_site_type_symbol
_atom_site_fract_x
_atom_site_fract_y
_atom_site_fract_z
Zn1	Zn	-0.423850	-1.627251	0.602035
Zn2	Zn	-0.601861	-1.627136	0.424060
Zn3	Zn	-0.423881	-1.449255	0.424046
Zn4	Zn	-0.601772	-1.449231	0.601972
O5	O	-0.512841	-1.538218	0.513028
O6	O	-0.447488	-1.776182	0.578459
O7	O	-0.578301	-1.603501	0.275112
O8	O	-0.274931	-1.472925	0.447677
O9	O	-0.578271	-1.776097	0.447701
O10	O	-0.274909	-1.603698	0.578445
O11	O	-0.447541	-1.472813	0.275102
O12	O	-0.447455	-1.300306	0.447616
O13	O	-0.578120	-1.472884	0.750926
O14	O	-0.578150	-1.300288	0.578337
O15	O	-0.447402	-1.603675	0.750973
O16	O	-0.750795	-1.603478	0.447640
O17	O	-0.750729	-1.472772	0.578351
C18	C	-0.512797	-1.261677	0.512969
C19	C	-0.512804	-1.143372	0.512968
C20	C	-0.441629	-1.003334	0.442019
C21	C	-0.415702	-1.074194	0.539151
C22	C	-0.538684	-1.074084	0.415847
C23	C	-0.486851	-1.003446	0.610211
C24	C	-0.609878	-1.003330	0.486842
C25	C	-0.583987	-1.074158	0.584041
C26	C	-0.789382	-1.538138	0.513014
C27	C	-0.907687	-1.538201	0.513043
C28	C	-1.047707	-1.467168	0.584101
C29	C	-0.976804	-1.564203	0.610225
C30	C	-0.977019	-1.441176	0.486966
C31	C	-1.047570	-1.635461	0.539257
C32	C	-1.047791	-1.512369	0.415953
C33	C	-0.976920	-1.609471	0.442041
C34	C	-0.235220	-1.538328	0.513066
C35	C	-0.116915	-1.538374	0.513082
C36	C	-0.512748	-1.538290	0.790649
C37	C	-0.512708	-1.538320	0.908955
C38	C	-0.512867	-0.815839	0.513067
C39	C	-0.512829	-0.934145	0.513028
C40	C	-0.512857	-1.538209	0.236487
C41	C	-0.512597	-1.538384	0.118182
C42	C	-0.583765	-1.467205	0.978183
C43	C	-0.609780	-1.564325	1.048984
C44	C	-0.486629	-1.441276	1.048953
C45	C	-0.538774	-1.635490	0.978198
C46	C	-0.415578	-1.512376	0.978161
C47	C	-0.441556	-1.609563	1.048930
H48	H	-0.691938	-0.972181	0.464684
H49	H	-1.078786	-1.407100	0.644221
H50	H	-1.078992	-1.490412	0.333853
N51	N	-0.938138	-1.338158	0.459244
N52	N	-0.881447	-1.326533	0.378638
H53	H	-0.853990	-1.253775	0.359065
H54	H	-0.333508	-1.490369	0.947028
H55	H	-0.643950	-1.407113	0.947120
H56	H	-0.691873	-1.586303	1.080093
H57	H	-0.560878	-1.717610	0.947247
N58	N	-0.366116	-1.685134	1.087645
N59	N	-0.375888	-1.781197	1.064752
H60	H	-0.322612	-1.834573	1.092096
H61	H	-0.644188	-1.105057	0.644134
N62	N	-0.459028	-1.338286	1.087943
N63	N	-0.515513	-1.259864	1.065261
H64	H	-0.496028	-1.187125	1.092795
N65	N	-0.459260	-0.964687	0.713303
N66	N	-0.371508	-0.988165	0.753348
H67	H	-0.352017	-0.960788	0.826153
N68	N	-0.366046	-0.964329	0.366819
N69	N	-0.269938	-0.987060	0.376758
H70	H	-0.216554	-0.959511	0.323653
H71	H	-0.560562	-1.105116	0.333688
H72	H	-0.333614	-1.105301	0.561293
N73	N	-0.938155	-1.684981	0.366664
N74	N	-0.962268	-1.676213	0.270774
H75	H	-0.934886	-1.729542	0.217541
N76	N	-0.937701	-1.591707	0.713252
N77	N	-0.960376	-1.535215	0.791605
H78	H	-0.932764	-1.554633	0.864371
H79	H	-1.078434	-1.717612	0.561425
