data_functionalizedCrystal
_audit_creation_method	'MofGen! by Chris Wilmer'
_symmetry_space_group_name_H-M	'P1'
_symmetry_Int_Tables_number	1
_symmetry_cell_setting	triclinic
loop_
_symmetry_equiv_pos_as_xyz
  x,y,z
_cell_length_a	16.992694
_cell_length_b	15.186229
_cell_length_c	16.109301
_cell_angle_alpha	89.994833
_cell_angle_beta	87.064852
_cell_angle_gamma	90.002273
loop_
_atom_site_label
_atom_site_type_symbol
_atom_site_fract_x
_atom_site_fract_y
_atom_site_fract_z
O1	O	1.040345	-0.073123	0.176288
O2	O	0.812060	-0.073149	0.174354
O3	O	0.932474	-0.073126	0.054708
O4	O	0.919931	-0.073146	0.295934
O5	O	0.932466	0.073331	0.054706
O6	O	0.812052	0.073308	0.174352
O7	O	1.040337	0.073334	0.176286
Zn8	Zn	0.926193	0.096574	0.175318
Zn9	Zn	0.926204	-0.096389	0.175321
O10	O	0.919923	0.073312	0.295931
C11	C	0.782844	0.000076	0.171865
C12	C	0.695802	0.000067	0.164441
N13	N	0.926192	0.228267	0.175316
N14	N	0.926212	-0.228082	0.175317
C15	C	0.645543	0.000062	0.236067
C16	C	0.563758	0.000074	0.229087
C17	C	0.532234	0.000086	0.150481
C18	C	0.582499	0.000094	0.078849
C19	C	0.664282	0.000087	0.085830
C20	C	0.288644	0.000112	0.121548
C21	C	0.206854	0.000116	0.114572
C22	C	0.188119	0.000098	0.264811
C23	C	0.269904	0.000086	0.271785
C24	C	0.320163	0.000099	0.200154
N25	N	0.448637	0.000096	0.143344
N26	N	0.403758	0.000095	0.207291
C27	C	1.069553	0.000107	0.178775
C28	C	1.156595	0.000111	0.186198
C29	C	0.931962	0.000103	0.023699
C30	C	0.930439	0.000104	-0.068698
C31	C	0.979529	0.454000	0.122357
C32	C	0.979532	0.546190	0.122355
C33	C	0.872869	0.546179	0.228279
C34	C	0.872863	0.453991	0.228275
C35	C	0.926198	0.407904	0.175316
C36	C	0.926206	0.592281	0.175317
C37	C	0.926208	0.692237	0.175316
C38	C	0.926195	0.307941	0.175316
C39	C	0.998348	0.000097	-0.286439
C40	C	0.996911	0.000090	-0.373256
C41	C	0.854044	0.000077	-0.362915
C42	C	0.855482	0.000078	-0.276100
C43	C	0.927636	0.000093	-0.237865
C44	C	0.924761	0.000084	-0.411496
C45	C	0.923202	0.000076	-0.505626
C46	C	0.929196	0.000099	-0.143729
C47	C	0.920435	0.000081	0.326941
C48	C	0.921959	0.000074	0.419338
H49	H	0.671204	0.000052	0.300077
O50	O	1.031307	0.590870	0.070797
C51	C	1.077265	0.619128	-0.070690
C52	C	1.018596	0.568458	-0.012390
H53	H	1.066997	0.601041	-0.137959
H54	H	1.140075	0.600983	-0.055712
H55	H	1.068119	0.692930	-0.061552
H56	H	1.027670	0.494645	-0.021495
H57	H	0.955807	0.586677	-0.027382
H58	H	1.057101	0.000107	-0.255311
O59	O	0.713138	0.000244	0.016276
C60	C	0.816388	0.076096	-0.063010
C61	C	0.761093	0.076033	0.015786
H62	H	0.855185	0.137355	-0.063424
H63	H	0.779848	0.076160	-0.120421
H64	H	0.855104	0.014774	-0.063490
H65	H	0.722365	0.137345	0.016347
H66	H	0.797680	0.075923	0.073162
O67	O	1.031208	0.409153	0.070834
C68	C	1.047862	0.305192	-0.041692
C69	C	0.989262	0.355894	0.016645
H70	H	1.013972	0.262134	-0.085529
H71	H	1.087036	0.261946	-0.003269
H72	H	1.085970	0.354018	-0.079504
H73	H	0.951102	0.307131	0.054470
H74	H	0.950143	0.399152	-0.021825
O75	O	0.515049	0.000029	0.298750
C76	C	0.505097	0.000062	0.448502
C77	C	0.560350	0.000089	0.369674
H78	H	0.541700	0.000129	0.505865
H79	H	0.466346	-0.061240	0.449048
H80	H	0.466333	0.061345	0.448946
H81	H	0.599163	-0.061152	0.369179
H82	H	0.599048	0.061431	0.369160
O83	O	0.784006	-0.000046	-0.400155
C84	C	0.699451	-0.075950	-0.492127
C85	C	0.778804	-0.075913	-0.450024
H86	H	0.695212	-0.137292	-0.532442
H87	H	0.695194	-0.014699	-0.532572
H88	H	0.649170	-0.075912	-0.442481
H89	H	0.829131	-0.075983	-0.499613
H90	H	0.782993	-0.137159	-0.409561
O91	O	0.821087	0.409071	0.279649
C92	C	0.773848	0.267041	0.326623
C93	C	0.832511	0.317803	0.268393
H94	H	0.783075	0.193242	0.317555
H95	H	0.711034	0.285101	0.311584
H96	H	0.784042	0.285209	0.393890
H97	H	0.822389	0.299662	0.201106
H98	H	0.895304	0.299738	0.283504
O99	O	0.300630	0.000172	0.348093
C100	C	0.382097	0.075998	0.443188
C101	C	0.347360	0.076022	0.356741
H102	H	0.419872	0.137326	0.450214
H103	H	0.419956	0.014733	0.450193
H104	H	0.332125	0.075944	0.493182
H105	H	0.397281	0.076108	0.306695
H106	H	0.309480	0.137282	0.349807
O107	O	0.139218	-0.000024	0.334329
C108	C	0.036034	-0.075922	0.413670
C109	C	0.091356	-0.075888	0.334895
H110	H	-0.002665	-0.137261	0.414162
H111	H	-0.002771	-0.014669	0.414165
H112	H	0.072630	-0.075887	0.471038
H113	H	0.054822	-0.075954	0.277484
H114	H	0.130164	-0.137136	0.334473
H115	H	0.829446	0.583712	0.271398
O116	O	0.786809	-0.000082	-0.228874
C117	C	0.705549	-0.075942	-0.124811
C118	C	0.783336	-0.075875	-0.178258
H119	H	0.702724	-0.137205	-0.083863
H120	H	0.653702	-0.076003	-0.167011
H121	H	0.702660	-0.014623	-0.083950
H122	H	0.786303	-0.137183	-0.219127
H123	H	0.835148	-0.075768	-0.136011
H124	H	1.054491	0.000092	-0.412802
O125	O	0.176361	0.000165	0.038145
C126	C	0.203569	0.000126	-0.110136
C127	C	0.238208	0.000097	-0.023641
H128	H	0.253556	0.000052	-0.160112
H129	H	0.165777	0.061432	-0.117212
H130	H	0.165720	-0.061153	-0.117112
H131	H	0.276092	0.061334	-0.016605
H132	H	0.275955	-0.061250	-0.016603
H133	H	0.329554	0.000123	0.063220
O134	O	0.551749	0.000067	0.002554
C135	C	0.434064	0.000134	-0.074786
C136	C	0.468781	0.000146	0.011671
H137	H	0.366980	0.000216	-0.067444
H138	H	0.454703	-0.061169	-0.110474
H139	H	0.454816	0.061415	-0.110451
H140	H	0.448044	-0.061093	0.047405
H141	H	0.448145	0.061490	0.047296
