data_functionalizedCrystal
_audit_creation_method	'MofGen! by Chris Wilmer'
_symmetry_space_group_name_H-M	'P1'
_symmetry_Int_Tables_number	1
_symmetry_cell_setting	triclinic
loop_
_symmetry_equiv_pos_as_xyz
  x,y,z
_cell_length_a	16.959455
_cell_length_b	16.959455
_cell_length_c	16.959454
_cell_angle_alpha	90.010582
_cell_angle_beta	90.019023
_cell_angle_gamma	90.003969
loop_
_atom_site_label
_atom_site_type_symbol
_atom_site_fract_x
_atom_site_fract_y
_atom_site_fract_z
Zn1	Zn	1.208284	0.446979	-0.314814
Zn2	Zn	1.708284	0.946979	0.185186
Zn3	Zn	1.208236	0.314809	-0.446969
Zn4	Zn	1.708236	0.814809	0.053031
Zn5	Zn	1.076142	0.314811	-0.314806
Zn6	Zn	1.576142	0.814811	0.185194
Zn7	Zn	1.076077	0.446942	-0.446952
Zn8	Zn	1.576077	0.946942	0.053048
O9	O	1.142185	0.380885	-0.380885
O10	O	1.642185	0.880885	0.119115
O11	O	1.318889	0.429461	-0.332355
O12	O	1.818889	0.929461	0.167645
O13	O	1.190721	0.204198	-0.429442
O14	O	1.690721	0.704198	0.070558
O15	O	1.093718	0.332360	-0.204196
O16	O	1.593718	0.832360	0.295804
O17	O	1.318853	0.332356	-0.429449
O18	O	1.818853	0.832356	0.070551
O19	O	1.190803	0.429463	-0.204202
O20	O	1.690803	0.929463	0.295798
O21	O	1.093672	0.204200	-0.332342
O22	O	1.593672	0.704200	0.167658
O23	O	0.965523	0.332324	-0.332325
O24	O	1.465523	0.832324	0.167675
O25	O	1.093608	0.557557	-0.429420
O26	O	1.593608	1.057557	0.070580
O27	O	0.965475	0.429399	-0.429412
O28	O	1.465475	0.929399	0.070588
O29	O	1.190740	0.557585	-0.332339
O30	O	1.690740	1.057585	0.167661
O31	O	1.190658	0.332320	-0.557578
O32	O	1.690658	0.832320	-0.057578
O33	O	1.093561	0.429397	-0.557565
O34	O	1.593561	0.929397	-0.057565
C35	C	0.936819	0.380858	-0.380867
C36	C	1.436819	0.880858	0.119133
C37	C	0.848962	0.380865	-0.380878
C38	C	1.348962	0.880865	0.119122
C39	C	0.807689	0.330404	-0.330257
C40	C	1.307689	0.830404	0.169743
C41	C	0.807681	0.431339	-0.431504
C42	C	1.307681	0.931339	0.068496
C43	C	0.725135	0.431351	-0.431513
C44	C	1.225135	0.931351	0.068487
C45	C	0.683863	0.380889	-0.380893
C46	C	1.183863	0.880889	0.119107
C47	C	0.725136	0.330415	-0.330263
C48	C	1.225136	0.830415	0.169737
C49	C	0.683856	0.481829	-0.482137
C50	C	1.183856	0.981829	0.017863
C51	C	0.601305	0.481843	-0.482147
C52	C	1.101305	0.981843	0.017853
C53	C	0.560031	0.431377	-0.431530
C54	C	1.060031	0.931377	0.068470
C55	C	0.601309	0.380900	-0.380898
C56	C	1.101309	0.880900	0.119102
C57	C	0.560036	0.330439	-0.330278
C58	C	1.060036	0.830439	0.169722
C59	C	0.601313	0.279958	-0.279650
C60	C	1.101313	0.779958	0.220350
C61	C	0.683862	0.279949	-0.279645
C62	C	1.183862	0.779949	0.220355
C63	C	0.477482	0.431386	-0.431534
C64	C	0.977482	0.931386	0.068466
C65	C	0.477483	0.330450	-0.330283
C66	C	0.977483	0.830450	0.169717
C67	C	1.142172	0.587053	-0.380878
C68	C	1.642172	1.087053	0.119122
C69	C	1.142166	0.674910	-0.380875
C70	C	1.642166	1.174910	0.119125
C71	C	1.091606	1.046373	-0.431442
C72	C	1.591606	1.546373	0.068558
C73	C	1.192750	1.046397	-0.330351
C74	C	1.692750	1.546397	0.169649
C75	C	1.192748	0.963851	-0.330344
C76	C	1.692748	1.463851	0.169656
C77	C	1.142174	0.922563	-0.380888
C78	C	1.642174	1.422563	0.119112
C79	C	1.091603	0.963820	-0.431439
C80	C	1.591603	1.463820	0.068561
C81	C	1.243323	0.922588	-0.279800
C82	C	1.743323	1.422588	0.220200
C83	C	1.243323	0.840037	-0.279792
C84	C	1.743323	1.340037	0.220208
C85	C	1.192745	0.798747	-0.330333
C86	C	1.692745	1.298747	0.169667
C87	C	1.142172	0.840009	-0.380885
C88	C	1.642172	1.340009	0.119115
C89	C	1.091598	0.798721	-0.431429
C90	C	1.591598	1.298721	0.068571
C91	C	1.041020	0.839981	-0.481978
C92	C	1.541020	1.339981	0.018022
C93	C	1.041025	0.922530	-0.481979
C94	C	1.541025	1.422530	0.018021
C95	C	1.192740	0.716198	-0.330331
C96	C	1.692740	1.216198	0.169669
C97	C	1.091596	0.716167	-0.431426
C98	C	1.591596	1.216167	0.068574
C99	C	1.348353	0.380912	-0.380905
C100	C	1.848353	0.880912	0.119095
C101	C	1.436210	0.380924	-0.380913
C102	C	1.936210	0.880924	0.119087
C103	C	1.142187	1.175519	-0.380907
C104	C	1.642187	1.675519	0.119093
C105	C	1.142179	1.087662	-0.380898
C106	C	1.642179	1.587662	0.119102
C107	C	1.142119	0.380871	-0.586252
C108	C	1.642119	0.880871	-0.086252
C109	C	1.142163	0.380892	-0.674108
C110	C	1.642163	0.880892	-0.174108
C111	C	1.091700	0.431428	-1.045607
C112	C	1.591700	0.931428	-0.545607
C113	C	1.192890	0.330423	-1.045561
C114	C	1.692890	0.830423	-0.545561
C115	C	1.192862	0.330415	-0.963015
C116	C	1.692862	0.830415	-0.463015
C117	C	1.142252	0.380914	-0.921761
C118	C	1.642252	0.880914	-0.421761
C119	C	1.091669	0.431420	-0.963054
C120	C	1.591669	0.931420	-0.463054
C121	C	1.243438	0.279904	-0.921716
C122	C	1.743438	0.779904	-0.421716
C123	C	1.243412	0.279894	-0.839165
C124	C	1.743412	0.779894	-0.339165
C125	C	1.192805	0.330398	-0.797910
C126	C	1.692805	0.830398	-0.297910
C127	C	1.142221	0.380907	-0.839208
C128	C	1.642221	0.880907	-0.339208
C129	C	1.091611	0.431406	-0.797954
C130	C	1.591611	0.931406	-0.297954
C131	C	1.041030	0.481919	-0.839250
C132	C	1.541030	0.981919	-0.339250
C133	C	1.041062	0.481924	-0.921799
C134	C	1.541062	0.981924	-0.421799
C135	C	1.192773	0.330393	-0.715362
C136	C	1.692773	0.830393	-0.215362
C137	C	1.091580	0.431398	-0.715401
C138	C	1.591580	0.931398	-0.215401
C139	C	1.142273	0.380916	-0.174717
C140	C	1.642273	0.880916	0.325283
C141	C	1.142311	0.380929	-0.086861
C142	C	1.642311	0.880929	0.413139
H143	H	1.050405	0.682556	-0.472578
H144	H	1.550405	1.182556	0.027422
O145	O	0.556802	0.225529	-0.225048
O146	O	1.056802	0.725529	0.274952
H147	H	0.572632	0.163470	-0.238515
H148	H	1.072632	0.663470	0.261485
O149	O	0.852198	0.275954	-0.275652
O150	O	1.352198	0.775954	0.224348
H151	H	0.889823	0.311386	-0.235478
H152	H	1.389823	0.811386	0.264522
O153	O	1.037140	0.485897	-1.090146
O154	O	1.537140	0.985897	-0.590146
H155	H	1.072492	0.526148	-1.127725
H156	H	1.572492	1.026148	-0.627725
H157	H	0.717477	0.238851	-0.238426
H158	H	1.217477	0.738851	0.261574
H159	H	0.443885	0.289356	-0.289062
H160	H	0.943885	0.789356	0.210938
H161	H	1.234090	0.289304	-1.079154
H162	H	1.734090	0.789304	-0.579154
H163	H	0.717466	0.522915	-0.523347
H164	H	1.217466	1.022915	-0.023347
H165	H	0.999847	0.806354	-0.523134
H166	H	1.499847	1.306354	-0.023134
O167	O	0.432985	0.485827	-0.486151
O168	O	0.932985	0.985827	0.013849
H169	H	0.395393	0.526119	-0.450851
H170	H	0.895393	1.026119	0.049149
O171	O	1.298021	0.225455	-0.966228
O172	O	1.798021	0.725455	-0.466228
H173	H	1.284516	0.163397	-0.950436
H174	H	1.784516	0.663397	-0.450436
H175	H	1.284598	0.238765	-0.805547
H176	H	1.784598	0.738765	-0.305547
H177	H	0.999850	0.956132	-0.523136
H178	H	1.499850	1.456132	-0.023136
H179	H	1.233951	0.289262	-0.681742
H180	H	1.733951	0.789262	-0.181742
H181	H	0.567705	0.522947	-0.523373
H182	H	1.067705	1.022947	-0.023373
O183	O	0.852190	0.485789	-0.486077
O184	O	1.352190	0.985789	0.013923
H185	H	0.916526	0.477307	-0.477561
H186	H	1.416526	0.977307	0.022439
O187	O	1.037051	1.090867	-0.485959
O188	O	1.537051	1.590867	0.014041
H189	H	1.045546	1.155206	-0.477474
H190	H	1.545546	1.655206	0.022526
O191	O	1.247274	1.090923	-0.275815
O192	O	1.747274	1.590923	0.224185
H193	H	1.238769	1.155256	-0.284299
H194	H	1.738769	1.655256	0.215701
O195	O	1.247292	0.671699	-0.275822
O196	O	1.747292	1.171699	0.224178
H197	H	1.238799	0.607361	-0.284314
H198	H	1.738799	1.107361	0.215686
O199	O	1.297839	0.967116	-0.225258
O200	O	1.797839	1.467116	0.274742
H201	H	1.289325	1.031448	-0.233736
H202	H	1.789325	1.531448	0.266264
O203	O	1.297868	0.795534	-0.225273
O204	O	1.797868	1.295534	0.274727
H205	H	1.333032	0.838114	-0.190126
H206	H	1.833032	1.338114	0.309874
O207	O	1.036981	0.485860	-0.670913
O208	O	1.536981	0.985860	-0.170913
H209	H	1.050481	0.547912	-0.686732
H210	H	1.550481	1.047912	-0.186732
O211	O	0.986444	0.536387	-0.794754
O212	O	1.486444	1.036387	-0.294754
H213	H	0.994926	0.527893	-0.730416
H214	H	1.494926	1.027893	-0.230416
H215	H	0.999882	0.523048	-0.955429
H216	H	1.499882	1.023048	-0.455429
