data_functionalizedCrystal
_audit_creation_method	'MofGen! by Chris Wilmer'
_symmetry_space_group_name_H-M	'P1'
_symmetry_Int_Tables_number	1
_symmetry_cell_setting	triclinic
loop_
_symmetry_equiv_pos_as_xyz
  x,y,z
_cell_length_a	21.295411
_cell_length_b	19.077236
_cell_length_c	19.076808
_cell_angle_alpha	94.519737
_cell_angle_beta	87.682372
_cell_angle_gamma	87.673423
loop_
_atom_site_label
_atom_site_type_symbol
_atom_site_fract_x
_atom_site_fract_y
_atom_site_fract_z
Zn1	Zn	-0.385773	1.066501	-0.237544
Zn2	Zn	0.114227	1.566501	0.262456
Zn3	Zn	-0.276093	1.061666	-0.355424
Zn4	Zn	0.223907	1.561666	0.144576
Zn5	Zn	-0.276105	0.948600	-0.242271
Zn6	Zn	0.223895	1.448600	0.257729
Zn7	Zn	-0.376914	0.943841	-0.360128
Zn8	Zn	0.123086	1.443841	0.139872
O9	O	-0.328721	1.005152	-0.298842
O10	O	0.171279	1.505152	0.201158
O11	O	-0.374927	1.164512	-0.249234
O12	O	0.125073	1.664512	0.250766
O13	O	-0.188003	1.046636	-0.340423
O14	O	0.311997	1.546636	0.159577
O15	O	-0.294365	0.968255	-0.142987
O16	O	0.205635	1.468255	0.357013
O17	O	-0.294345	1.160960	-0.335840
O18	O	0.205655	1.660960	0.164160
O19	O	-0.374939	1.054877	-0.139515
O20	O	0.125061	1.554877	0.360485
O21	O	-0.188012	0.963567	-0.257290
O22	O	0.311988	1.463567	0.242710
O23	O	-0.285775	0.849316	-0.261852
O24	O	0.214225	1.349316	0.238148
O25	O	-0.466180	0.960144	-0.343858
O26	O	0.033820	1.460144	0.156142
O27	O	-0.359839	0.845820	-0.348441
O28	O	0.140161	1.345820	0.151559
O29	O	-0.472689	1.050262	-0.253796
O30	O	0.027311	1.550262	0.246204
O31	O	-0.285754	1.042021	-0.454704
O32	O	0.214246	1.542021	0.045296
O33	O	-0.359827	0.955455	-0.458161
O34	O	0.140173	1.455455	0.041839
C35	C	-0.321847	0.821989	-0.306170
C36	C	0.178153	1.321989	0.193830
C37	C	-0.318921	0.743630	-0.309323
C38	C	0.181079	1.243630	0.190677
C39	C	-0.359559	0.708664	-0.265784
C40	C	0.140441	1.208664	0.234216
C41	C	-0.356804	0.635038	-0.268743
C42	C	0.143196	1.135038	0.231257
C43	C	-0.313413	0.596378	-0.315243
C44	C	0.186587	1.096378	0.184757
C45	C	-0.272770	0.631349	-0.358784
C46	C	0.227230	1.131349	0.141216
C47	C	-0.275522	0.704975	-0.355821
C48	C	0.224478	1.204975	0.144179
C49	C	-0.300673	0.375985	-0.328928
C50	C	0.199327	0.875985	0.171072
C51	C	-0.297925	0.302355	-0.331888
C52	C	0.202075	0.802355	0.168112
C53	C	-0.381959	0.306048	-0.241846
C54	C	0.118041	0.806048	0.258154
C55	C	-0.384710	0.379674	-0.238891
C56	C	0.115290	0.879674	0.261109
C57	C	-0.344065	0.414639	-0.282428
C58	C	0.155935	0.914639	0.217572
N59	N	-0.310597	0.521120	-0.318270
N60	N	0.189403	1.021120	0.181730
N61	N	-0.346878	0.489896	-0.279398
N62	N	0.153122	0.989896	0.220602
C63	C	-0.492914	1.005211	-0.298825
C64	C	0.007086	1.505211	0.201175
C65	C	-0.562884	1.005236	-0.298817
C66	C	-0.062884	1.505236	0.201183
C67	C	-0.599140	1.052159	-0.251920
C68	C	-0.099140	1.552159	0.248080
C69	C	-0.664884	1.052159	-0.251889
C70	C	-0.164884	1.552159	0.248111
C71	C	-0.694368	1.005244	-0.298768
C72	C	-0.194368	1.505244	0.201232
C73	C	-0.658103	0.958312	-0.345669
C74	C	-0.158103	1.458312	0.154331
C75	C	-0.592361	0.958309	-0.345694
C76	C	-0.092361	1.458309	0.154306
N77	N	-0.795077	0.997332	-0.360659
N78	N	-0.295077	1.497332	0.139341
N79	N	-0.857529	0.997340	-0.360633
N80	N	-0.357529	1.497340	0.139367
C81	C	-0.892446	1.005251	-0.298697
C82	C	-0.392446	1.505251	0.201303
N83	N	-0.862551	1.013168	-0.236785
N84	N	-0.362551	1.513168	0.263215
N85	N	-0.800093	1.013164	-0.236811
N86	N	-0.300093	1.513164	0.263189
C87	C	-0.765654	1.005242	-0.298747
C88	C	-0.265654	1.505242	0.201253
C89	C	-0.999990	1.052177	-0.251763
C90	C	-0.499990	1.552177	0.248237
C91	C	-1.065734	1.052172	-0.251731
C92	C	-0.565734	1.552172	0.248269
C93	C	-1.058952	0.958328	-0.345517
C94	C	-0.558952	1.458328	0.154483
C95	C	-0.993208	0.958330	-0.345542
C96	C	-0.493208	1.458330	0.154458
C97	C	-0.963731	1.005257	-0.298666
C98	C	-0.463731	1.505257	0.201334
C99	C	-0.165170	1.005136	-0.298806
C100	C	0.334830	1.505136	0.201194
C101	C	-0.095214	1.005255	-0.298610
C102	C	0.404786	1.505255	0.201390
C103	C	-0.321842	0.997716	-0.482012
C104	C	0.178158	1.497716	0.017988
C105	C	-0.318923	0.994600	-0.560371
C106	C	0.181077	1.494600	-0.060371
C107	C	-0.335623	1.189031	-0.291485
C108	C	0.164377	1.689031	0.208515
C109	C	-0.338563	1.267389	-0.288350
C110	C	0.161437	1.767389	0.211650
C111	C	-0.359533	1.038201	-0.595317
C112	C	0.140467	1.538201	-0.095317
C113	C	-0.356791	1.035270	-0.668943
C114	C	0.143209	1.535270	-0.168943
C115	C	-0.313435	0.988740	-0.707622
C116	C	0.186565	1.488740	-0.207622
C117	C	-0.272823	0.945134	-0.672672
C118	C	0.227177	1.445134	-0.172672
C119	C	-0.275569	0.948063	-0.599047
C120	C	0.224431	1.448063	-0.099047
C121	C	-0.300725	0.975147	-0.928018
C122	C	0.199275	1.475147	-0.428018
C123	C	-0.297981	0.972224	-1.001648
C124	C	0.202019	1.472224	-0.501648
C125	C	-0.381949	1.062359	-0.997914
C126	C	0.118051	1.562359	-0.497914
C127	C	-0.384688	1.065286	-0.924288
C128	C	0.115312	1.565286	-0.424288
C129	C	-0.344079	1.021677	-0.889344
C130	C	0.155921	1.521677	-0.389344
N131	N	-0.310630	0.985745	-0.782880
N132	N	0.189370	1.485745	-0.282880
N133	N	-0.346888	1.024670	-0.814087
N134	N	0.153112	1.524670	-0.314087
C135	C	-0.335642	1.012636	-0.114955
C136	C	0.164358	1.512636	0.385045
C137	C	-0.338591	1.015825	-0.036593
C138	C	0.161409	1.515825	0.463407
H139	H	-0.262590	0.270880	-0.369759
H140	H	0.237410	0.770880	0.130241
H141	H	-0.267577	0.404444	-0.364380
H142	H	0.232423	0.904444	0.135620
H143	H	-0.262675	0.934331	-1.033138
H144	H	0.237325	1.434331	-0.533138
N145	N	-0.228522	0.897629	-0.712185
N146	N	0.271478	1.397629	-0.212185
N147	N	-0.170923	0.902680	-0.703796
N148	N	0.329077	1.402680	-0.203796
H149	H	-0.139630	0.869135	-0.731704
H150	H	0.360370	1.369135	-0.231704
N151	N	-0.403890	0.748139	-0.218284
N152	N	0.096110	1.248139	0.281716
N153	N	-0.440170	0.716907	-0.179413
N154	N	0.059830	1.216907	0.320587
H155	H	-0.471479	0.744784	-0.145862
H156	H	0.028521	1.244784	0.354138
N157	N	-0.398304	0.599333	-0.224245
N158	N	0.101696	1.099333	0.275755
N159	N	-0.437035	0.633859	-0.182720
N160	N	0.062965	1.133859	0.317280
H161	H	-0.466340	0.608644	-0.151284
H162	H	0.033660	1.108644	0.348716
N163	N	-0.228446	0.591873	-0.406292
N164	N	0.271554	1.091873	0.093708
N165	N	-0.192166	0.623104	-0.445163
N166	N	0.307834	1.123104	0.054837
H167	H	-0.160862	0.595225	-0.478718
H168	H	0.339138	1.095225	0.021282
N169	N	-0.429023	0.419158	-0.191376
N170	N	0.070977	0.919158	0.308624
N171	N	-0.410164	0.462045	-0.144759
N172	N	0.089836	0.962045	0.355241
H173	H	-0.441462	0.489930	-0.111201
H174	H	0.058538	0.989930	0.388799
N175	N	-0.569022	1.100075	-0.204030
N176	N	-0.069022	1.600075	0.295970
N177	N	-0.510323	1.100063	-0.204051
N178	N	-0.010323	1.600063	0.295949
H179	H	-0.489049	1.133901	-0.170227
H180	H	0.010951	1.633901	0.329773
N181	N	-0.701920	1.100091	-0.203974
N182	N	-0.201920	1.600091	0.296026
N183	N	-0.675593	1.141982	-0.162121
N184	N	-0.175593	1.641982	0.337879
H185	H	-0.701747	1.175834	-0.128279
H186	H	-0.201747	1.675834	0.371721
H187	H	-1.082957	0.920122	-0.383680
H188	H	-0.582957	1.420122	0.116320
N189	N	-0.969866	1.100103	-0.203885
N190	N	-0.469866	1.600103	0.296115
N191	N	-0.933952	1.144017	-0.226906
N192	N	-0.433952	1.644017	0.273094
H193	H	-0.912678	1.177866	-0.193092
H194	H	-0.412678	1.677866	0.306908
N195	N	-0.956178	0.910395	-0.393453
N196	N	-0.456178	1.410395	0.106547
N197	N	-0.982508	0.868506	-0.435304
N198	N	-0.482508	1.368506	0.064696
H199	H	-0.956356	0.834648	-0.469143
H200	H	-0.456356	1.334648	0.030857
H201	H	-0.419992	1.103174	-0.892797
H202	H	0.080008	1.603174	-0.392797
H203	H	-0.415012	1.097862	-1.026374
H204	H	0.084988	1.597862	-0.526374
H205	H	-0.415049	0.277572	-0.206399
H206	H	0.084951	0.777572	0.293601
H207	H	-1.095254	1.090381	-0.213538
H208	H	-0.595254	1.590381	0.286462
H209	H	-0.394835	1.076093	-0.563829
H210	H	0.105165	1.576093	-0.063829
H211	H	-0.242430	0.733443	-0.391274
H212	H	0.257570	1.233443	0.108726
N213	N	-0.398281	1.079807	-0.704628
N214	N	0.101719	1.579807	-0.204628
N215	N	-0.436988	1.121349	-0.670086
N216	N	0.063012	1.621349	-0.170086
H217	H	-0.466295	1.152805	-0.695287
H218	H	0.033705	1.652805	-0.195287
N219	N	-0.688227	0.910389	-0.393546
N220	N	-0.188227	1.410389	0.106454
N221	N	-0.746925	0.910399	-0.393519
N222	N	-0.246925	1.410399	0.106481
H223	H	-0.768201	0.876549	-0.427331
H224	H	-0.268201	1.376549	0.072669
N225	N	-0.555331	0.910369	-0.393603
N226	N	-0.055331	1.410369	0.106397
N227	N	-0.581660	0.868478	-0.435452
N228	N	-0.081660	1.368478	0.064548
H229	H	-0.555507	0.834620	-0.469290
H230	H	-0.055507	1.334620	0.030710
N231	N	-0.259240	0.930599	-0.892340
N232	N	0.240760	1.430599	-0.392340
N233	N	-0.220533	0.889061	-0.926886
N234	N	0.279467	1.389061	-0.426886
H235	H	-0.191232	0.857596	-0.901687
H236	H	0.308768	1.357596	-0.401687
N237	N	-0.234086	0.903516	-0.563359
N238	N	0.265914	1.403516	-0.063359
N239	N	-0.195380	0.861973	-0.597900
N240	N	0.304620	1.361973	-0.097900
H241	H	-0.166083	0.830507	-0.572697
H242	H	0.333917	1.330507	-0.072697
