data_functionalizedCrystal
_audit_creation_method	'MofGen! by Chris Wilmer'
_symmetry_space_group_name_H-M	'P1'
_symmetry_Int_Tables_number	1
_symmetry_cell_setting	triclinic
loop_
_symmetry_equiv_pos_as_xyz
  x,y,z
_cell_length_a	6.817900
_cell_length_b	10.773972
_cell_length_c	19.453114
_cell_angle_alpha	96.632633
_cell_angle_beta	101.709288
_cell_angle_gamma	96.646171
loop_
_atom_site_label
_atom_site_type_symbol
_atom_site_fract_x
_atom_site_fract_y
_atom_site_fract_z
V1	V	-3.972246	-0.173886	-0.217847
O2	O	-3.996137	0.007019	-0.214877
O3	O	-3.890146	-0.343501	-0.215226
O4	O	-3.915576	-0.171797	-0.313374
O5	O	-3.970532	-0.165872	-0.116049
V6	V	-4.461312	-0.152178	-0.205809
O7	O	-4.221345	-0.221503	-0.244255
O8	O	-4.662410	-0.104561	-0.179402
O9	O	-4.320205	0.017437	-0.208430
O10	O	-4.554817	-0.333083	-0.208780
O11	O	-4.580423	-0.160191	-0.307607
O12	O	-4.294775	-0.154266	-0.110282
C13	C	-3.727217	-0.384831	-0.211498
C14	C	-3.741322	-0.523497	-0.209992
C15	C	-3.933762	-0.734693	-0.211049
C16	C	-3.919188	-0.591376	-0.212610
C17	C	-3.759654	-0.165805	-0.336694
C18	C	-3.794380	-0.165219	-0.414781
C19	C	-3.991233	-0.171206	-0.454998
C20	C	-4.023863	-0.170656	-0.528369
C21	C	-3.859632	-0.164145	-0.561521
C22	C	-3.662750	-0.158151	-0.521293
C23	C	-3.630125	-0.158688	-0.447923
N24	N	-3.786800	-0.230021	-0.679873
N25	N	-3.817806	-0.229514	-0.749572
C26	C	-3.957920	-0.162524	-0.782580
N27	N	-4.065890	-0.096077	-0.743257
N28	N	-4.034888	-0.096590	-0.673552
C29	C	-3.894989	-0.163561	-0.641077
C30	C	-4.190166	-0.167913	-0.902354
C31	C	-4.222788	-0.167355	-0.975725
C32	C	-3.861671	-0.154862	-0.968649
C33	C	-3.829054	-0.155407	-0.895278
C34	C	-3.993309	-0.161939	-0.862136
C35	C	-4.146475	0.058761	-0.212157
C36	C	-4.111607	0.197426	-0.213667
C37	C	-4.114039	-0.160263	-0.086958
C38	C	-4.058552	-0.160842	-0.008871
H39	H	-4.253080	-0.754589	-0.217067
H40	H	-3.529034	-0.152846	-0.548290
H41	H	-4.060674	-0.543395	-0.216010
H42	H	-4.124985	-0.176519	-0.428018
H43	H	-3.727949	-0.149550	-0.995639
H44	H	-3.599838	-0.571478	-0.206599
H45	H	-4.184170	-0.175538	-0.561120
H46	H	-3.668758	-0.150546	-0.862534
H47	H	-3.469820	-0.153804	-0.415177
H48	H	-4.323912	-0.173226	-0.875367
H49	H	-3.792292	-0.782681	-0.207657
H50	H	-4.383091	-0.172221	-1.008468
