data_functionalizedCrystal
_audit_creation_method	'MofGen! by Chris Wilmer'
_symmetry_space_group_name_H-M	'P1'
_symmetry_Int_Tables_number	1
_symmetry_cell_setting	triclinic
loop_
_symmetry_equiv_pos_as_xyz
  x,y,z
_cell_length_a	16.992694
_cell_length_b	15.021413
_cell_length_c	16.992695
_cell_angle_alpha	89.995082
_cell_angle_beta	89.331777
_cell_angle_gamma	89.996978
loop_
_atom_site_label
_atom_site_type_symbol
_atom_site_fract_x
_atom_site_fract_y
_atom_site_fract_z
O1	O	1.050855	-0.073921	-0.166905
O2	O	1.550855	0.426079	0.333095
O3	O	0.822455	-0.073948	-0.165074
O4	O	1.322455	0.426052	0.334926
O5	O	0.935740	-0.073927	-0.051790
O6	O	1.435740	0.426073	0.448210
O7	O	0.937571	-0.073941	-0.280190
O8	O	1.437571	0.426059	0.219810
O9	O	0.935720	0.074137	-0.051808
O10	O	1.435720	0.574137	0.448192
O11	O	0.822435	0.074117	-0.165092
O12	O	1.322435	0.574117	0.334908
O13	O	1.050835	0.074143	-0.166924
O14	O	1.550835	0.574143	0.333076
Zn15	Zn	0.936632	0.097638	-0.166011
Zn16	Zn	1.436632	0.597638	0.333989
Zn17	Zn	0.936658	-0.097443	-0.165987
Zn18	Zn	1.436658	0.402557	0.334013
O19	O	0.937551	0.074123	-0.280208
O20	O	1.437551	0.574123	0.219792
C21	C	0.793085	0.000081	-0.162727
C22	C	1.293085	0.500081	0.337273
C23	C	0.705600	0.000071	-0.155699
C24	C	1.205600	0.500071	0.344301
N25	N	0.936620	0.230776	-0.166027
N26	N	1.436620	0.730776	0.333973
C27	C	0.659610	0.000068	-0.223517
C28	C	1.159610	0.500068	0.276483
C29	C	0.577409	0.000081	-0.216908
C30	C	1.077409	0.500081	0.283092
C31	C	0.541201	0.000090	-0.142480
C32	C	1.041201	0.500090	0.357520
C33	C	0.587198	0.000097	-0.074657
C34	C	1.087198	0.500097	0.425343
C35	C	0.669397	0.000090	-0.081267
C36	C	1.169397	0.500090	0.418733
C37	C	0.295886	0.000116	-0.115086
C38	C	0.795886	0.500116	0.384914
C39	C	0.213681	0.000120	-0.108481
C40	C	0.713681	0.500120	0.391519
C41	C	0.203898	0.000105	-0.250732
C42	C	0.703898	0.500105	0.249268
C43	C	0.286099	0.000094	-0.257336
C44	C	0.786099	0.500094	0.242664
C45	C	0.332089	0.000104	-0.189512
C46	C	0.832089	0.500104	0.310488
N47	N	0.457178	0.000101	-0.135723
N48	N	0.957178	0.500101	0.364277
N49	N	0.416110	0.000101	-0.196270
N50	N	0.916110	0.500101	0.303730
C51	C	0.884224	0.470450	-0.218386
C52	C	1.384224	0.970450	0.281614
C53	C	0.956311	0.529791	-0.238123
C54	C	1.456311	1.029791	0.261877
C55	C	0.936636	0.412383	-0.166011
C56	C	1.436636	0.912383	0.333989
C57	C	0.864567	0.529783	-0.146296
C58	C	1.364567	1.029783	0.353704
C59	C	0.936646	0.587807	-0.165997
C60	C	1.436646	1.087807	0.334003
C61	C	1.008762	0.470418	-0.185785
C62	C	1.508762	0.970418	0.314215
C63	C	0.916969	0.470404	-0.093925
C64	C	1.416969	0.970404	0.406075
C65	C	0.989106	0.529719	-0.113634
C66	C	1.489106	1.029719	0.386366
C67	C	0.936630	0.311325	-0.166021
C68	C	1.436630	0.811325	0.333979
C69	C	0.936661	0.688862	-0.165987
C70	C	1.436661	1.188862	0.334013
C71	C	1.080205	0.000112	-0.169270
C72	C	1.580205	0.500112	0.330730
C73	C	1.167690	0.000116	-0.176299
C74	C	1.667690	0.500116	0.323701
C75	C	0.933374	0.000104	-0.022439
C76	C	1.433374	0.500104	0.477561
C77	C	0.926345	0.000103	0.065046
C78	C	1.426345	0.500103	0.565046
N79	N	0.936664	0.769420	-0.165979
N80	N	1.436664	1.269420	0.334021
C81	C	0.939917	0.000089	-0.309559
C82	C	1.439917	0.500089	0.190441
C83	C	0.946945	0.000084	-0.397044
C84	C	1.446945	0.500084	0.102956
C85	C	0.994163	0.000112	0.111037
C86	C	1.494163	0.500112	0.611037
C87	C	0.987554	0.000103	0.193238
C88	C	1.487554	0.500103	0.693238
C89	C	0.913127	0.000091	0.229446
C90	C	1.413127	0.500091	0.729446
C91	C	0.845303	0.000080	0.183449
C92	C	1.345303	0.500080	0.683449
C93	C	0.851913	0.000083	0.101250
C94	C	1.351913	0.500083	0.601250
C95	C	0.885732	0.000076	0.474760
C96	C	1.385732	0.500076	0.974760
C97	C	0.879127	0.000076	0.556966
C98	C	1.379127	0.500076	1.056966
C99	C	1.021379	0.000097	0.566749
C100	C	1.521379	0.500097	1.066749
C101	C	1.027982	0.000105	0.484547
C102	C	1.527982	0.500105	0.984547
C103	C	0.960159	0.000089	0.438558
C104	C	1.460159	0.500089	0.938558
N105	N	0.906369	0.000085	0.313468
N106	N	1.406369	0.500085	0.813468
N107	N	0.966917	0.000089	0.354537
N108	N	1.466917	0.500089	0.854537
H109	H	0.689084	0.000059	-0.284124
H110	H	1.189084	0.500059	0.215876
H111	H	1.054770	0.000127	0.081563
H112	H	1.554770	0.500127	0.581563
H113	H	1.042779	0.000112	0.230680
H114	H	1.542779	0.500112	0.730680
H115	H	0.784703	0.000065	0.212936
H116	H	1.284703	0.500065	0.712936
H117	H	0.803616	0.555862	-0.129628
H118	H	1.303616	1.055862	0.370372
C119	C	0.826704	0.382546	-0.016817
C120	C	1.326704	0.882546	0.483183
C121	C	0.894473	0.435149	-0.011662
C122	C	1.394473	0.935149	0.488338
H123	H	0.812813	0.360776	0.033968
H124	H	1.312813	0.860776	0.533968
H125	H	0.784731	0.417349	-0.036738
H126	H	1.284731	0.917349	0.463262
H127	H	0.836613	0.333829	-0.051169
H128	H	1.336613	0.833829	0.448831
H129	H	0.884562	0.483871	0.022685
H130	H	1.384562	0.983871	0.522685
H131	H	0.936456	0.400345	0.008270
H132	H	1.436456	0.900345	0.508270
C133	C	0.575995	0.000054	-0.358178
C134	C	1.075995	0.500054	0.141822
C135	C	0.526856	0.000073	-0.291456
C136	C	1.026856	0.500073	0.208544
H137	H	0.544784	0.000045	-0.404202
H138	H	1.044784	0.500045	0.095798
H139	H	0.608260	0.051680	-0.357807
H140	H	1.108260	0.551680	0.142193
H141	H	0.608259	-0.051587	-0.357781
H142	H	1.108259	0.448413	0.142219
H143	H	0.494596	0.051717	-0.291850
H144	H	0.994596	0.551717	0.208150
H145	H	0.494577	-0.051559	-0.291827
H146	H	0.994577	0.448441	0.208173
C147	C	0.805836	0.000074	0.678629
C148	C	1.305836	0.500074	1.178629
C149	C	0.797311	0.000064	0.596768
C150	C	1.297311	0.500064	1.096768
H151	H	0.755329	0.000075	0.703200
H152	H	1.255329	0.500075	1.203200
H153	H	0.833981	-0.051551	0.694111
H154	H	1.333981	0.448449	1.194111
H155	H	0.833972	0.051716	0.694093
H156	H	1.333972	0.551716	1.194093
H157	H	0.769180	-0.051582	0.581303
H158	H	1.269180	0.448418	1.081303
H159	H	0.769155	0.051694	0.581281
H160	H	1.269155	0.551694	1.081281
H161	H	1.088589	0.000115	0.455073
H162	H	1.588589	0.500115	0.955073
H163	H	0.830505	0.000063	0.437325
H164	H	1.330505	0.500063	0.937325
H165	H	0.315574	0.000075	-0.317942
H166	H	0.815574	0.500075	0.182058
H167	H	1.076596	0.000108	0.604202
H168	H	1.576596	0.500108	1.104202
C169	C	0.710641	0.000068	0.099831
C170	C	1.210641	0.500068	0.599831
C171	C	0.777366	0.000075	0.050693
C172	C	1.277366	0.500075	0.550693
H173	H	0.664619	0.000066	0.068618
H174	H	1.164619	0.500066	0.568618
H175	H	0.711031	-0.051561	0.132097
H176	H	1.211031	0.448439	0.632097
H177	H	0.711018	0.051706	0.132093
H178	H	1.211018	0.551706	0.632093
H179	H	0.776992	-0.051566	0.018435
H180	H	1.276992	0.448434	0.518435
H181	H	0.776976	0.051710	0.018413
H182	H	1.276976	0.551710	0.518413
H183	H	0.166444	0.000098	-0.305950
H184	H	0.666444	0.500098	0.194050
H185	H	1.069731	0.444451	-0.202527
H186	H	1.569731	0.944451	0.297473
C187	C	0.824574	0.342097	-0.277120
C188	C	1.324574	0.842097	0.222880
C189	C	0.824458	0.435305	-0.278226
C190	C	1.324458	0.935305	0.221774
H191	H	0.787676	0.320401	-0.314060
H192	H	1.287676	0.820401	0.185940
H193	H	0.875636	0.320907	-0.290621
H194	H	1.375636	0.820907	0.209379
H195	H	0.810474	0.321773	-0.225929
H196	H	1.310474	0.821773	0.274071
H197	H	0.838564	0.455630	-0.329416
H198	H	1.338564	0.955630	0.170584
H199	H	0.773385	0.456504	-0.264730
H200	H	1.273385	0.956504	0.235270
H201	H	0.972956	0.555877	-0.299079
H202	H	1.472956	1.055877	0.200921
C203	C	1.124402	0.534510	-0.074661
C204	C	1.624402	1.034510	0.425339
C205	C	1.049012	0.564642	-0.053836
C206	C	1.549012	1.064642	0.446164
H207	H	1.161386	0.556078	-0.037749
H208	H	1.661386	1.056078	0.462251
H209	H	1.125022	0.471283	-0.074647
H210	H	1.625022	0.971283	0.425353
H211	H	1.137932	0.555750	-0.125709
H212	H	1.637932	1.055750	0.374291
H213	H	1.035480	0.543397	-0.002790
H214	H	1.535480	1.043397	0.497210
H215	H	1.048390	0.627882	-0.053842
H216	H	1.548390	1.127882	0.446158
C217	C	0.799749	0.000092	-0.028237
C218	C	1.299749	0.500092	0.471763
C219	C	0.719954	0.000094	-0.006720
C220	C	1.219954	0.500094	0.493280
H221	H	0.830959	0.000103	0.017787
H222	H	1.330959	0.500103	0.517787
H223	H	0.811206	-0.051542	-0.058529
H224	H	1.311206	0.448458	0.441471
H225	H	0.811199	0.051725	-0.058553
H226	H	1.311199	0.551725	0.441447
H227	H	0.708503	-0.051543	0.023591
H228	H	1.208503	0.448457	0.523591
H229	H	0.708493	0.051733	0.023585
H230	H	1.208493	0.551733	0.523585
H231	H	0.184203	0.000127	-0.047870
H232	H	0.684203	0.500127	0.452130
H233	H	0.557710	0.000117	-0.014056
H234	H	1.057710	0.500117	0.485944
C235	C	0.297288	0.000124	0.026185
C236	C	0.797288	0.500124	0.526185
C237	C	0.346431	0.000121	-0.040535
C238	C	0.846431	0.500121	0.459465
H239	H	0.328496	0.000122	0.072211
H240	H	0.828496	0.500122	0.572211
H241	H	0.265024	0.051755	0.025795
H242	H	0.765024	0.551755	0.525795
H243	H	0.265023	-0.051512	0.025803
H244	H	0.765023	0.448488	0.525803
H245	H	0.378692	0.051761	-0.040156
H246	H	0.878692	0.551761	0.459844
H247	H	0.378708	-0.051515	-0.040144
H248	H	0.878708	0.448485	0.459856
