data_functionalizedCrystal
_audit_creation_method	'MofGen! by Chris Wilmer'
_symmetry_space_group_name_H-M	'P1'
_symmetry_Int_Tables_number	1
_symmetry_cell_setting	triclinic
loop_
_symmetry_equiv_pos_as_xyz
  x,y,z
_cell_length_a	13.339070
_cell_length_b	15.944551
_cell_length_c	12.376457
_cell_angle_alpha	101.276265
_cell_angle_beta	75.589755
_cell_angle_gamma	99.564016
loop_
_atom_site_label
_atom_site_type_symbol
_atom_site_fract_x
_atom_site_fract_y
_atom_site_fract_z
O1	O	1.361721	0.409519	-0.094056
O2	O	1.067189	0.354248	-0.094048
O3	O	1.222496	0.261484	-0.094042
O4	O	1.206414	0.502283	-0.094062
O5	O	1.183683	0.284634	0.093969
O6	O	1.028376	0.377398	0.093963
O7	O	1.322908	0.432670	0.093955
Zn8	Zn	1.169480	0.408710	0.123810
Zn9	Zn	1.220618	0.378208	-0.123903
O10	O	1.167601	0.525433	0.093949
C11	C	1.010092	0.356487	-0.000041
C12	C	0.897788	0.328657	-0.000038
C13	C	1.202422	0.241610	-0.000036
C14	C	1.200420	0.147897	-0.000036
C15	C	0.533017	0.545045	-0.000074
C16	C	0.638533	0.571195	-0.000081
C17	C	0.703352	0.510563	-0.000069
C18	C	0.662645	0.423776	-0.000053
C19	C	0.557120	0.397623	-0.000055
C20	C	0.727455	0.363140	-0.000050
C21	C	0.686748	0.276354	-0.000033
C22	C	0.581233	0.250205	-0.000035
C23	C	0.516415	0.310837	-0.000046
C24	C	0.832979	0.389294	-0.000048
C25	C	0.857082	0.241871	-0.000029
C26	C	0.751566	0.215722	-0.000022
C27	C	1.099369	-0.090507	-0.000048
C28	C	1.127158	-0.129176	0.092651
C29	C	1.196799	-0.023674	-0.000044
C30	C	1.165448	-0.151979	-0.092713
C31	C	1.193296	-0.189405	-0.000057
C32	C	1.224599	-0.061099	0.092732
C33	C	1.262892	-0.083908	-0.092715
C34	C	1.290747	-0.122540	0.000007
C35	C	1.198814	0.071800	-0.000036
C36	C	1.191287	-0.284874	-0.000058
C37	C	1.380005	0.430431	-0.000054
C38	C	1.492311	0.458260	-0.000065
C39	C	1.187676	0.545308	-0.000059
C40	C	1.189680	0.639019	-0.000067
N41	N	1.134587	0.429527	0.292867
N42	N	1.255518	0.357386	-0.292960
C43	C	1.336516	0.309045	0.647859
C44	C	1.360931	0.294473	0.529520
C45	C	1.304347	0.328235	0.470351
C46	C	1.223343	0.376572	0.529532
C47	C	1.198930	0.391151	0.647883
C48	C	1.166762	0.410341	0.470375
C49	C	1.085758	0.458678	0.529556
C50	C	1.061349	0.473254	0.647895
C51	C	1.117933	0.439492	0.707064
C52	C	1.191175	0.395762	0.352024
C53	C	1.053590	0.477868	0.352048
C54	C	1.029174	0.492440	0.470387
H55	H	0.866111	0.459956	-0.000057
C56	C	1.397913	0.272226	0.711962
C57	C	1.387461	0.182310	0.683175
C58	C	1.444018	0.148360	0.742196
H59	H	1.371835	0.287736	0.790934
H60	H	1.469458	0.294672	0.692534
H61	H	1.315931	0.159872	0.702610
H62	H	1.413545	0.166776	0.604214
H63	H	1.515563	0.170806	0.722769
H64	H	1.417935	0.163875	0.821165
H65	H	1.436942	0.087349	0.722665
H66	H	0.430494	0.289550	-0.000040
H67	H	0.789267	0.531859	-0.000078
C68	C	1.448698	0.241895	0.464994
C69	C	1.524738	0.292493	0.396797
C70	C	1.605479	0.243973	0.337252
H71	H	1.421577	0.192841	0.418900
H72	H	1.479023	0.223726	0.516967
H73	H	1.494418	0.310649	0.344830
H74	H	1.551887	0.341546	0.442863
H75	H	1.635804	0.225804	0.389225
H76	H	1.578348	0.194920	0.291164
H77	H	1.657086	0.278299	0.290981
C78	C	0.941159	0.544906	0.534443
C79	C	0.896806	0.571338	0.457308
C80	C	0.815714	0.619659	0.516275
H81	H	0.967904	0.594108	0.580605
H82	H	0.889478	0.510542	0.580595
H83	H	0.948477	0.605701	0.411175
H84	H	0.870038	0.522153	0.411144
H85	H	0.764033	0.585295	0.562427
H86	H	0.842468	0.668857	0.562435
H87	H	0.785604	0.637592	0.463948
C88	C	0.462826	0.610989	-0.000151
C89	C	0.521059	0.692587	-0.000190
C90	C	0.456438	0.753358	-0.000280
H91	H	0.407601	0.612037	0.065389
H92	H	0.434726	0.595817	-0.065746
H93	H	0.549143	0.707755	0.065399
H94	H	0.576281	0.691567	-0.065725
H95	H	0.428338	0.738187	-0.065875
H96	H	0.401215	0.754399	0.065261
H97	H	0.495941	0.808728	-0.000317
H98	H	1.007515	0.505362	0.303873
C99	C	1.257760	-0.008892	0.197486
C100	C	1.186946	-0.032373	0.294208
C101	C	1.217463	0.015694	0.390727
H102	H	1.258785	0.050750	0.197029
H103	H	1.325472	-0.020014	0.197815
H104	H	1.119251	-0.021244	0.293879
H105	H	1.185911	-0.092006	0.294702
H106	H	1.285175	0.004572	0.391056
H107	H	1.218488	0.075334	0.390258
H108	H	1.169427	-0.000236	0.456363
H109	H	0.548096	0.179536	-0.000034
C110	C	1.398631	-0.141530	0.000302
C111	C	1.429086	-0.094799	0.097530
C112	C	1.528452	-0.112281	0.097854
H113	H	1.447071	-0.125207	-0.064850
H114	H	1.396930	-0.201417	-0.000262
H115	H	1.430794	-0.034925	0.098083
H116	H	1.380674	-0.111114	0.162697
H117	H	1.526751	-0.172168	0.097291
H118	H	1.576883	-0.095958	0.032698
H119	H	1.549125	-0.080583	0.163827
C120	C	0.682823	0.665373	-0.000353
C121	C	0.762639	0.672769	-0.097108
C122	C	0.803450	0.759519	-0.097416
H123	H	0.710041	0.686824	0.065124
H124	H	0.629142	0.697752	-0.000427
H125	H	0.816310	0.640403	-0.097024
H126	H	0.735446	0.651337	-0.162601
H127	H	0.749769	0.791898	-0.097490
H128	H	0.830662	0.780962	-0.031935
H129	H	0.857602	0.764550	-0.163068
H130	H	0.909859	0.192498	-0.000025
H131	H	1.098051	0.451353	0.803425
H132	H	0.718409	0.145057	-0.000018
C133	C	1.339519	-0.057224	-0.197180
C134	C	1.439257	-0.074466	-0.197900
C135	C	1.509862	-0.049906	-0.294132
H136	H	1.340824	0.002672	-0.196142
H137	H	1.318457	-0.088779	-0.263015
H138	H	1.460313	-0.042909	-0.132083
H139	H	1.437985	-0.134356	-0.198955
H140	H	1.488800	-0.081461	-0.359967
H141	H	1.511158	0.009989	-0.293086
H142	H	1.577540	-0.061608	-0.294639
H143	H	1.069769	-0.149237	0.171023
C144	C	0.991446	-0.071219	0.000304
C145	C	0.920815	-0.093872	0.097595
C146	C	0.821392	-0.076103	0.097971
H147	H	0.969804	-0.103551	-0.064804
H148	H	0.993555	-0.011458	-0.000309
H149	H	0.918703	-0.153622	0.098197
H150	H	0.942423	-0.061544	0.162719
H151	H	0.823501	-0.016342	0.097358
H152	H	0.799761	-0.108436	0.032859
H153	H	0.773459	-0.091462	0.163986
H154	H	1.140405	-0.191311	-0.171088
H155	H	1.324230	0.316368	0.373994
C156	C	1.278973	0.343101	0.287884
C157	C	1.256562	0.260287	0.316724
C158	C	1.337410	0.211732	0.257672
H159	H	1.342538	0.370262	0.307229
H160	H	1.285438	0.339166	0.208909
H161	H	1.250109	0.264225	0.395682
H162	H	1.193011	0.233101	0.297377
H163	H	1.343875	0.207797	0.178696
H164	H	1.400970	0.238901	0.277021
H165	H	1.322211	0.155536	0.277223
C166	C	0.973328	0.525611	0.712293
C167	C	0.897400	0.474781	0.780277
C168	C	0.816307	0.522986	0.839624
H169	H	0.942999	0.543646	0.660237
H170	H	1.000154	0.574752	0.758511
H171	H	0.870575	0.425655	0.734063
H172	H	0.927696	0.456744	0.832354
H173	H	0.843133	0.572127	0.885842
H174	H	0.785987	0.541019	0.787560
H175	H	0.764785	0.488508	0.885765
