data_functionalizedCrystal
_audit_creation_method	'MofGen! by Chris Wilmer'
_symmetry_space_group_name_H-M	'P1'
_symmetry_Int_Tables_number	1
_symmetry_cell_setting	triclinic
loop_
_symmetry_equiv_pos_as_xyz
  x,y,z
_cell_length_a	18.050591
_cell_length_b	18.050589
_cell_length_c	13.032268
_cell_angle_alpha	82.850583
_cell_angle_beta	82.842055
_cell_angle_gamma	90.024669
loop_
_atom_site_label
_atom_site_type_symbol
_atom_site_fract_x
_atom_site_fract_y
_atom_site_fract_z
Zn1	Zn	1.081955	-0.349040	0.591013
Zn2	Zn	1.097635	-0.457476	0.416282
Zn3	Zn	0.973544	-0.333296	0.416274
Zn4	Zn	0.957728	-0.473179	0.590953
O5	O	1.027716	-0.403248	0.503631
O6	O	1.187957	-0.363441	0.567863
O7	O	1.094355	-0.427843	0.270052
O8	O	0.987982	-0.231462	0.439475
O9	O	1.199477	-0.443109	0.439489
O10	O	1.067632	-0.243029	0.567855
O11	O	1.003186	-0.336608	0.270046
O12	O	0.867524	-0.351835	0.439417
O13	O	0.961026	-0.469873	0.737191
O14	O	0.855904	-0.454607	0.567753
O15	O	1.052295	-0.378668	0.737234
O16	O	1.079019	-0.563482	0.439431
O17	O	0.976230	-0.575019	0.567761
C18	C	0.834768	-0.403217	0.503578
C19	C	0.752222	-0.403224	0.503581
C20	C	1.027628	-0.596198	0.503613
C21	C	1.027655	-0.678747	0.503641
C22	C	0.509679	-0.347300	0.433957
C23	C	0.550505	-0.337813	0.529321
C24	C	0.455094	-0.403269	0.503666
C25	C	0.561353	-0.412699	0.408266
C26	C	0.601083	-0.403245	0.503619
C27	C	0.494828	-0.393752	0.599081
C28	C	0.505678	-0.468664	0.477962
C29	C	0.546475	-0.459209	0.573392
C30	C	0.370994	-0.403282	0.503692
C31	C	0.685181	-0.403234	0.503604
C32	C	0.971809	-0.884496	0.573402
C33	C	0.962317	-0.925335	0.478047
C34	C	1.027726	-0.829878	0.503655
C35	C	1.037254	-0.936122	0.599021
C36	C	1.027794	-0.975865	0.503676
C37	C	1.018203	-0.869626	0.408248
C38	C	1.093166	-0.880414	0.529287
C39	C	1.083706	-0.921225	0.433866
C40	C	1.027686	-0.745779	0.503643
C41	C	1.027835	-1.059962	0.503676
C42	C	1.221416	-0.403279	0.503684
C43	C	1.303960	-0.403293	0.503706
C44	C	1.003147	-0.427778	0.776188
C45	C	0.992678	-0.438231	0.892336
C46	C	1.027822	-0.209546	0.503671
C47	C	1.027868	-0.127002	0.503688
C48	C	1.052231	-0.378759	0.232134
C49	C	1.062845	-0.368097	0.115986
C50	C	1.033168	-0.397765	0.944140
C51	C	1.022348	-0.408568	1.064185
H52	H	0.493311	-0.299954	0.375098
H53	H	0.907007	-0.945160	0.456386
H54	H	1.105520	-0.325447	1.071470
H55	H	0.570255	-0.282500	0.551061
F56	F	0.457123	-0.383227	0.704540
F57	F	1.145561	-0.942389	0.356697
F58	F	0.966560	-0.464306	1.122368
H59	H	0.562695	-0.506536	0.632391
F60	F	1.088935	-0.342013	0.885953
H61	H	0.590293	-0.420686	0.327607
F62	F	0.936892	-0.493965	0.950523
H63	H	0.485900	-0.523957	0.456206
F64	F	0.909932	-0.863135	0.650390
F65	F	1.007622	-0.831937	0.302813
H66	H	1.148459	-0.860595	0.550993
H67	H	1.045287	-0.965046	0.679663
