data_functionalizedCrystal
_audit_creation_method	'MofGen! by Chris Wilmer'
_symmetry_space_group_name_H-M	'P1'
_symmetry_Int_Tables_number	1
_symmetry_cell_setting	triclinic
loop_
_symmetry_equiv_pos_as_xyz
  x,y,z
_cell_length_a	15.995350
_cell_length_b	14.044191
_cell_length_c	12.503572
_cell_angle_alpha	86.162165
_cell_angle_beta	93.525550
_cell_angle_gamma	88.342076
loop_
_atom_site_label
_atom_site_type_symbol
_atom_site_fract_x
_atom_site_fract_y
_atom_site_fract_z
O1	O	0.197459	1.263171	-0.089258
O2	O	0.190168	0.987202	-0.089272
O3	O	0.072489	1.132730	-0.089264
O4	O	0.315137	1.117643	-0.089267
O5	O	0.081355	1.121785	0.089377
O6	O	0.199034	0.976257	0.089369
O7	O	0.206325	1.252226	0.089383
Cu8	Cu	0.203489	1.113242	0.105687
Cu9	Cu	0.193004	1.126186	-0.105577
O10	O	0.324003	1.106698	0.089375
C11	C	0.191411	0.946415	0.000046
C12	C	0.181898	0.841190	0.000041
C13	C	0.231977	0.590903	0.000051
C14	C	0.164519	0.648532	0.000050
C15	C	0.174191	0.755736	0.000045
C16	C	0.222306	0.483688	0.000056
C17	C	0.045681	1.126634	0.000055
C18	C	-0.047410	1.124765	0.000048
C19	C	-0.385659	1.118049	0.000052
C20	C	-0.345988	1.014431	-0.000354
C21	C	-0.249138	1.016276	0.000049
C22	C	-0.217849	1.121380	0.000049
C23	C	-0.250045	1.166250	0.102063
C24	C	-0.346871	1.163641	0.102148
C25	C	-0.357151	1.178229	-0.101000
C26	C	-0.260275	1.178287	-0.102348
C27	C	-0.123011	1.123268	0.000052
C28	C	-0.480497	1.116163	0.000057
C29	C	0.350811	1.112794	0.000054
C30	C	0.443902	1.114664	0.000053
C31	C	0.205081	1.293013	0.000062
C32	C	0.214594	1.398239	0.000060
N33	N	0.210864	1.104146	0.254279
N34	N	0.185623	1.135290	-0.254168
C35	C	0.221719	1.090764	0.473394
C36	C	0.174770	1.148668	0.526724
C37	C	0.180810	1.141223	0.648647
C38	C	0.215680	1.098209	0.351460
H39	H	-0.371246	0.977488	-0.073510
N40	N	0.078396	0.607244	0.000037
H41	H	0.034723	0.660643	0.000031
H42	H	0.074740	0.562646	0.066261
N43	N	0.280968	1.017694	0.534194
H44	H	0.276938	1.022669	0.613934
H45	H	0.340216	1.029940	0.514607
H46	H	0.296987	0.622076	0.000047
H47	H	-0.365053	0.968733	0.072390
N48	N	-0.220265	0.968982	-0.096812
H49	H	-0.270482	0.946744	-0.140156
H50	H	-0.181813	0.912366	-0.072363
H51	H	-0.220660	0.971335	0.073297
H52	H	-0.364172	1.121693	0.178404
H53	H	-0.373204	1.239451	0.106778
H54	H	-0.229962	1.243235	0.105858
N55	N	-0.232754	1.280316	-0.110515
H56	H	-0.192215	1.291145	-0.047670
H57	H	-0.283308	1.324972	-0.109638
H58	H	-0.220548	1.126094	0.177977
N59	N	-0.391694	1.279508	-0.101917
H60	H	-0.454929	1.279345	-0.104705
H61	H	-0.373109	1.317766	-0.167013
N62	N	-0.392794	1.139627	-0.203424
H63	H	-0.427787	1.082732	-0.185353
H64	H	-0.345441	1.119506	-0.247691
H65	H	0.130039	1.203834	0.480814
H66	H	-0.239564	1.145535	-0.177815
