data_functionalizedCrystal
_audit_creation_method	'MofGen! by Chris Wilmer'
_symmetry_space_group_name_H-M	'P1'
_symmetry_Int_Tables_number	1
_symmetry_cell_setting	triclinic
loop_
_symmetry_equiv_pos_as_xyz
  x,y,z
_cell_length_a	23.532355
_cell_length_b	23.532407
_cell_length_c	15.500227
_cell_angle_alpha	92.805592
_cell_angle_beta	87.179784
_cell_angle_gamma	82.838088
loop_
_atom_site_label
_atom_site_type_symbol
_atom_site_fract_x
_atom_site_fract_y
_atom_site_fract_z
O1	O	0.757939	0.066339	-0.071834
O2	O	0.592072	0.076372	-0.071863
O3	O	0.680007	-0.011577	-0.071832
O4	O	0.670004	0.154287	-0.071865
O5	O	0.674671	-0.006261	0.072055
O6	O	0.586736	0.081688	0.072024
O7	O	0.752603	0.071655	0.072052
Cu8	Cu	0.669182	0.077157	0.085176
Cu9	Cu	0.675493	0.070870	-0.084987
O10	O	0.664669	0.159603	0.072021
C11	C	0.568188	0.078779	0.000077
C12	C	0.504970	0.078024	0.000067
C13	C	0.110046	0.076186	0.078536
C14	C	0.050646	0.075468	0.078540
O15	O	0.017454	0.077542	0.145243
N16	N	0.023846	0.072215	0.000108
C17	C	0.056450	0.069672	-0.078333
O18	O	0.028201	0.066839	-0.145046
C19	C	0.115849	0.070386	-0.078336
C20	C	0.142645	0.073645	0.000101
C21	C	0.136842	0.079444	0.156967
C22	C	0.196237	0.080162	0.156964
C23	C	0.228836	0.077622	0.078529
C24	C	0.202040	0.074364	0.000098
C25	C	0.148452	0.067839	-0.156776
C26	C	0.207855	0.068553	-0.156772
C27	C	0.234651	0.071812	-0.078334
C28	C	0.294035	0.072542	-0.078341
N29	N	0.320835	0.075795	0.000091
C30	C	0.288235	0.078335	0.078526
C31	C	-0.068292	0.068174	-0.078322
C32	C	-0.127690	0.067465	-0.078320
C33	C	-0.133490	0.073259	0.078553
C34	C	-0.074091	0.073973	0.078551
C35	C	-0.041492	0.071427	0.000110
C36	C	0.412970	0.079844	0.078512
C37	C	0.472371	0.080565	0.078501
C38	C	0.478165	0.074767	-0.078372
C39	C	0.418770	0.074050	-0.078361
C40	C	0.386173	0.076587	0.000088
O41	O	0.327264	0.070467	-0.145010
O42	O	0.316494	0.081161	0.145227
C43	C	0.677084	-0.030135	0.000114
C44	C	0.676318	-0.093351	0.000120
C45	C	0.723554	-0.492465	0.000081
C46	C	0.722843	-0.551865	0.000074
O47	O	0.766631	-0.588619	0.000050
N48	N	0.670565	-0.574482	0.000066
C49	C	0.618996	-0.537695	0.000055
O50	O	0.574465	-0.562387	0.000047
C51	C	0.619708	-0.478296	0.000056
C52	C	0.671989	-0.455682	0.000073
C53	C	0.775830	-0.469850	0.000097
C54	C	0.776541	-0.410454	0.000105
C55	C	0.724976	-0.373672	0.000097
C56	C	0.672700	-0.396286	0.000081
C57	C	0.568140	-0.441510	0.000039
C58	C	0.568857	-0.382108	0.000039
C59	C	0.621137	-0.359495	0.000056
C60	C	0.621845	-0.300107	0.000082
N61	N	0.674123	-0.277491	0.000090
C62	C	0.725688	-0.314273	0.000098
C63	C	0.617505	-0.662437	0.000053
C64	C	0.616792	-0.721835	0.000058
C65	C	0.720639	-0.736001	0.000076
C66	C	0.721351	-0.676602	0.000076
C67	C	0.669782	-0.639820	0.000061
C68	C	0.727177	-0.189536	0.000116
C69	C	0.727883	-0.130133	0.000128
C70	C	0.624037	-0.115973	0.000106
C71	C	0.623330	-0.175370	0.000099
C72	C	0.674905	-0.212151	0.000101
O73	O	0.578080	-0.263319	0.000102
O74	O	0.770212	-0.289573	0.000095
C75	C	0.776487	0.069248	0.000111
C76	C	0.839706	0.070002	0.000115
C77	C	0.667591	0.178161	0.000074
C78	C	0.668358	0.241378	0.000062
N79	N	0.664748	0.081578	0.204859
N80	N	0.679932	0.066444	-0.204670
C81	C	0.702022	0.044325	0.250149
C82	C	0.698674	0.047674	0.340721
C83	C	0.658054	0.088280	0.386001
C84	C	0.620776	0.125535	0.340705
C85	C	0.624122	0.122182	0.250135
C86	C	0.646000	0.100346	0.659464
C87	C	0.642658	0.103697	0.750040
C88	C	0.720555	0.025835	0.750050
C89	C	0.723900	0.022489	0.659478
C90	C	0.686620	0.059742	0.614190
C91	C	0.654632	0.091705	0.478580
C92	C	0.690040	0.056313	0.521613
H93	H	0.396950	0.071405	-0.142232
H94	H	0.386436	0.081915	0.142393
Br95	Br	-0.037731	0.078396	0.185005
H96	H	0.574220	-0.740240	0.000059
Br97	Br	-0.177743	0.076706	0.185002
H98	H	0.218049	0.082813	0.220836
H99	H	0.819113	-0.392048	0.000116
Br100	Br	0.749258	-0.002886	0.402189
Br101	Br	0.547512	-0.612524	0.000039
Br102	Br	0.587529	0.158812	0.811486
Br103	Br	0.790621	-0.785931	0.000083
Br104	Br	0.498866	-0.332193	0.000014
H105	H	0.580758	-0.193781	0.000109
H106	H	0.621559	0.124768	0.515454
H107	H	0.817823	-0.499794	0.000100
H108	H	0.234395	0.066480	-0.220649
Br109	Br	-0.024057	0.064724	-0.184787
Br110	Br	0.779029	-0.032616	0.598025
Br111	Br	0.771145	-0.024721	0.811515
Br112	Br	0.573530	0.172739	0.188670
Br113	Br	0.554059	-0.066043	0.000096
Br114	Br	0.508732	0.084992	0.184959
H115	H	0.525568	-0.459912	0.000020
H116	H	0.735101	0.011262	0.213288
H117	H	0.615646	0.130680	0.622597
H118	H	0.587700	0.158595	0.377577
Br119	Br	0.792305	-0.645919	0.000101
Br120	Br	0.092611	0.082895	0.263430
H121	H	0.504718	0.072701	-0.142231
Br122	Br	0.112102	0.063415	-0.263234
H123	H	0.770458	-0.111725	0.000144
Br124	Br	-0.164050	0.063055	-0.184775
Br125	Br	0.797172	-0.239443	0.000118
H126	H	0.723111	0.023250	0.484743
