data_functionalizedCrystal
_audit_creation_method	'MofGen! by Chris Wilmer'
_symmetry_space_group_name_H-M	'P1'
_symmetry_Int_Tables_number	1
_symmetry_cell_setting	triclinic
loop_
_symmetry_equiv_pos_as_xyz
  x,y,z
_cell_length_a	11.169417
_cell_length_b	12.594516
_cell_length_c	11.169409
_cell_angle_alpha	90.032222
_cell_angle_beta	90.019513
_cell_angle_gamma	90.019422
loop_
_atom_site_label
_atom_site_type_symbol
_atom_site_fract_x
_atom_site_fract_y
_atom_site_fract_z
Zn1	Zn	1.834897	-0.423620	0.678534
Zn2	Zn	2.334897	0.076380	1.178534
Zn3	Zn	1.834759	-0.601647	0.477851
Zn4	Zn	2.334759	-0.101647	0.977851
Zn5	Zn	1.634183	-0.423687	0.477869
Zn6	Zn	2.134183	0.076313	0.977869
Zn7	Zn	1.634163	-0.601561	0.678497
Zn8	Zn	2.134163	-0.101561	1.178497
O9	O	1.734500	-0.512629	0.578188
O10	O	2.234500	-0.012629	1.078188
O11	O	2.002828	-0.447244	0.651921
O12	O	2.502828	0.052756	1.151921
O13	O	1.808103	-0.578103	0.309904
O14	O	2.308103	-0.078103	0.809904
O15	O	1.660874	-0.274732	0.504511
O16	O	2.160874	0.225268	1.004511
O17	O	2.002727	-0.578039	0.504480
O18	O	2.502727	-0.078039	1.004480
O19	O	1.808338	-0.274683	0.651938
O20	O	2.308338	0.225317	1.151938
O21	O	1.660740	-0.447357	0.309917
O22	O	2.160740	0.052643	0.809917
O23	O	1.466231	-0.447274	0.504475
O24	O	1.966231	0.052726	1.004475
O25	O	1.660840	-0.577894	0.846452
O26	O	2.160840	-0.077894	1.346452
O27	O	1.466216	-0.577958	0.651875
O28	O	1.966216	-0.077958	1.151875
O29	O	1.808319	-0.447161	0.846479
O30	O	2.308319	0.052839	1.346479
O31	O	1.808083	-0.750581	0.504444
O32	O	2.308083	-0.250581	1.004444
O33	O	1.660706	-0.750518	0.651858
O34	O	2.160706	-0.250518	1.151858
C35	C	1.422676	-0.512614	0.578174
C36	C	1.922676	-0.012614	1.078174
C37	C	1.289276	-0.512634	0.578197
C38	C	1.789276	-0.012634	1.078197
C39	C	1.734410	-0.789170	0.578171
C40	C	2.234410	-0.289170	1.078171
C41	C	1.734481	-0.907475	0.578204
C42	C	2.234481	-0.407475	1.078204
C43	C	1.654388	-1.047496	0.658342
C44	C	2.154388	-0.547496	1.158342
C45	C	1.763805	-0.976581	0.687781
C46	C	2.263805	-0.476581	1.187781
C47	C	1.625076	-0.976819	0.548819
C48	C	2.125076	-0.476819	1.048819
C49	C	1.844152	-1.047345	0.607745
C50	C	2.344152	-0.547345	1.107745
C51	C	1.705349	-1.047590	0.468732
C52	C	2.205349	-0.547590	0.968732
C53	C	1.814841	-0.976706	0.498129
C54	C	2.314841	-0.476706	0.998129
C55	C	2.047543	-0.512644	0.578202
C56	C	2.547543	-0.012644	1.078202
C57	C	2.180943	-0.512650	0.578208
C58	C	2.680943	-0.012650	1.078208
C59	C	1.734593	-0.512511	0.891230
C60	C	2.234593	-0.012511	1.391230
C61	C	1.734632	-0.512460	1.024630
C62	C	2.234632	-0.012460	1.524630
C63	C	1.734624	-0.235008	0.578231
C64	C	2.234624	0.264992	1.078231
C65	C	1.734676	-0.116702	0.578249
C66	C	2.234676	0.383298	1.078249
C67	C	1.734478	-0.512670	0.266363
C68	C	2.234478	-0.012670	0.766363
C69	C	1.734671	-0.512420	0.132964
C70	C	2.234671	-0.012420	0.632964
H71	H	1.788535	-0.945393	0.780378
H72	H	2.288535	-0.445393	1.280378
H73	H	1.532470	-0.945834	0.523947
H74	H	2.032470	-0.445834	1.023947
N75	N	1.899982	-0.937940	0.413120
N76	N	2.399982	-0.437940	0.913120
N77	N	1.890092	-0.962063	0.304997
N78	N	2.390092	-0.462063	0.804997
H79	H	1.950223	-0.934680	0.244962
H80	H	2.450223	-0.434680	0.744962
H81	H	1.586658	-1.078576	0.726145
H82	H	2.086658	-0.578576	1.226145
H83	H	1.936785	-1.078198	0.632724
H84	H	2.436785	-0.578198	1.132724
N85	N	1.674301	-1.086736	0.352595
N86	N	2.174301	-0.586736	0.852595
N87	N	1.651152	-1.023172	0.269864
N88	N	2.151152	-0.523172	0.769864
H89	H	1.629214	-1.050820	0.187840
H90	H	2.129214	-0.550820	0.687840
