data_functionalizedCrystal
_audit_creation_method	'MofGen! by Chris Wilmer'
_symmetry_space_group_name_H-M	'P1'
_symmetry_Int_Tables_number	1
_symmetry_cell_setting	triclinic
loop_
_symmetry_equiv_pos_as_xyz
  x,y,z
_cell_length_a	19.805407
_cell_length_b	21.295417
_cell_length_c	19.805399
_cell_angle_alpha	89.967749
_cell_angle_beta	89.983114
_cell_angle_gamma	90.030507
loop_
_atom_site_label
_atom_site_type_symbol
_atom_site_fract_x
_atom_site_fract_y
_atom_site_fract_z
Zn1	Zn	1.034698	-0.250615	-0.382704
Zn2	Zn	1.034611	-0.355886	-0.269510
Zn3	Zn	0.921518	-0.250635	-0.269529
Zn4	Zn	0.921469	-0.355850	-0.382656
O5	O	0.978074	-0.303247	-0.326100
O6	O	1.129403	-0.264586	-0.367701
O7	O	1.019593	-0.341948	-0.174796
O8	O	0.936590	-0.162543	-0.284570
O9	O	1.129339	-0.341929	-0.284537
O10	O	1.019743	-0.162528	-0.367719
O11	O	0.936504	-0.264620	-0.174810
O12	O	0.826795	-0.264585	-0.284523
O13	O	0.936505	-0.341867	-0.477379
O14	O	0.826759	-0.341887	-0.367638
O15	O	1.019694	-0.264551	-0.477415
O16	O	1.019544	-0.443971	-0.284491
O17	O	0.936419	-0.443945	-0.367619
C18	C	0.802218	-0.303235	-0.326078
C19	C	0.726986	-0.303245	-0.326085
C20	C	0.691640	-0.343556	-0.369292
C21	C	0.620952	-0.343557	-0.369302
C22	C	0.585610	-0.303250	-0.326100
C23	C	0.620961	-0.262934	-0.282890
C24	C	0.691648	-0.262930	-0.282885
C25	C	0.335888	-0.262948	-0.282913
C26	C	0.265195	-0.262956	-0.282920
C27	C	0.265192	-0.343575	-0.369330
C28	C	0.335879	-0.343571	-0.369324
C29	C	0.371223	-0.303253	-0.326117
C30	C	0.447871	-0.303252	-0.326109
C31	C	0.508963	-0.303254	-0.326105
C32	C	0.977985	-0.466798	-0.326062
C33	C	0.978009	-0.536766	-0.326069
C34	C	1.021331	-0.569626	-0.282828
C35	C	1.021363	-0.635368	-0.282844
C36	C	0.978061	-0.668249	-0.326092
C37	C	0.934736	-0.635381	-0.369341
C38	C	0.934710	-0.569640	-0.369330
N39	N	0.918850	-0.771515	-0.331245
N40	N	0.918876	-0.833966	-0.331252
C41	C	0.978136	-0.866324	-0.326131
N42	N	1.037371	-0.833870	-0.320989
N43	N	1.037343	-0.771413	-0.320979
C44	C	0.978084	-0.739534	-0.326110
C45	C	1.021496	-0.970469	-0.282905
C46	C	1.021529	-1.036212	-0.282925
C47	C	0.934896	-1.036224	-0.369419
C48	C	0.934869	-0.970482	-0.369402
C49	C	0.978168	-0.937608	-0.326142
C50	C	1.154617	-0.303259	-0.326122
C51	C	1.229849	-0.303265	-0.326132
C52	C	0.978104	-0.303203	-0.502643
C53	C	0.978116	-0.303184	-0.577875
C54	C	0.978181	-0.139056	-0.326152
C55	C	0.978227	-0.069088	-0.326175
C56	C	0.934865	-0.262916	-0.613226
C57	C	0.934874	-0.262904	-0.683914
C58	C	0.978139	-0.303157	-0.719250
C59	C	1.021393	-0.343430	-0.683894
C60	C	1.021379	-0.343445	-0.613207
C61	C	1.021446	-0.343371	-0.968968
C62	C	1.021458	-0.343352	-1.039660
C63	C	0.934941	-0.262830	-1.039675
C64	C	0.934928	-0.262845	-0.968988
C65	C	0.978178	-0.303120	-0.933638
C66	C	0.978167	-0.303133	-0.856989
C67	C	0.978154	-0.303141	-0.795897
C68	C	0.978083	-0.303245	-0.150244
C69	C	0.978202	-0.303086	-0.075012
H70	H	0.364656	-0.230123	-0.247726
C71	C	0.684556	-0.183249	-0.197460
C72	C	0.730503	-0.218624	-0.235383
H73	H	0.708545	-0.155898	-0.168132
H74	H	0.657012	-0.159205	-0.226999
H75	H	0.656960	-0.210654	-0.171522
H76	H	0.758096	-0.191219	-0.261326
H77	H	0.758058	-0.242669	-0.205841
H78	H	1.056616	-0.376208	-0.712671
H79	H	1.056811	-1.062965	-0.247714
C80	C	0.185734	-0.352435	-0.460374
C81	C	0.226338	-0.387887	-0.416832
H82	H	0.161753	-0.379792	-0.489701
H83	H	0.154573	-0.328436	-0.434647
H84	H	0.213344	-0.325041	-0.486314
H85	H	0.198729	-0.415278	-0.390890
H86	H	0.257503	-0.411897	-0.442563
H87	H	0.899590	-0.943726	-0.404610
H88	H	0.899642	-1.062995	-0.404636
C89	C	1.106902	-0.423038	-0.620288
C90	C	1.068923	-0.387710	-0.574347
H91	H	1.136254	-0.450365	-0.596296
H92	H	1.077401	-0.447104	-0.647847
H93	H	1.132818	-0.395601	-0.647870
H94	H	1.043003	-0.415146	-0.546767
H95	H	1.098428	-0.363641	-0.546776
C96	C	1.106970	-0.576223	-0.197339
C97	C	1.068934	-0.533492	-0.235286
H98	H	1.136362	-0.553913	-0.167994
H99	H	1.077506	-0.601902	-0.171423
H100	H	1.132845	-0.601827	-0.226866
H101	H	1.043055	-0.507891	-0.205759
H102	H	1.098401	-0.507802	-0.261204
H103	H	0.899637	-0.230133	-0.584460
H104	H	0.236422	-0.230129	-0.247740
C105	C	1.059834	-0.736144	-0.244430
C106	C	1.068965	-0.671499	-0.235291
H107	H	1.089220	-0.758447	-0.215070
H108	H	1.014365	-0.746947	-0.234504
H109	H	1.069737	-0.746881	-0.289914
H110	H	1.059057	-0.660761	-0.189808
H111	H	1.114444	-0.660691	-0.245212
H112	H	0.720411	-0.376381	-0.404470
H113	H	0.592180	-0.230112	-0.247718
H114	H	0.899651	-0.230116	-0.712694
H115	H	0.899699	-0.230064	-0.940220
H116	H	0.899722	-0.230038	-1.068465
H117	H	0.592177	-0.376383	-0.404485
C118	C	1.106970	-0.422964	-1.032549
C119	C	1.069013	-0.387607	-1.078503
H120	H	1.136323	-0.450285	-1.056531
H121	H	1.132877	-0.395550	-1.004992
H122	H	1.077449	-0.447044	-1.004966
H123	H	1.098533	-0.363523	-1.106083
H124	H	1.043104	-0.415024	-1.106072
C125	C	0.896303	-0.736164	-0.407755
C126	C	0.887135	-0.671521	-0.416879
H127	H	0.866913	-0.758474	-0.437104
H128	H	0.941772	-0.746892	-0.417707
H129	H	0.886429	-0.746969	-0.362269
H130	H	0.897014	-0.660716	-0.462365
H131	H	0.841656	-0.660790	-0.406933
H132	H	1.056656	-0.376172	-0.940194
C133	C	0.849082	-0.576257	-0.454826
C134	C	0.887083	-0.533517	-0.416859
H135	H	0.819676	-0.553953	-0.484165
H136	H	0.878566	-0.601852	-0.480749
H137	H	0.823222	-0.601943	-0.425311
H138	H	0.912947	-0.507833	-0.446374
H139	H	0.857596	-0.507911	-0.390934
H140	H	0.364650	-0.376396	-0.404501
H141	H	1.056755	-0.943702	-0.247681
