data_functionalizedCrystal
_audit_creation_method	'MofGen! by Chris Wilmer'
_symmetry_space_group_name_H-M	'P1'
_symmetry_Int_Tables_number	1
_symmetry_cell_setting	triclinic
loop_
_symmetry_equiv_pos_as_xyz
  x,y,z
_cell_length_a	27.440280
_cell_length_b	18.878441
_cell_length_c	27.440280
_cell_angle_alpha	60.004384
_cell_angle_beta	90.008003
_cell_angle_gamma	59.999415
loop_
_atom_site_label
_atom_site_type_symbol
_atom_site_fract_x
_atom_site_fract_y
_atom_site_fract_z
Zr1	Zr	0.469506	0.775268	-0.063909
O2	O	0.391687	0.923048	-0.141733
O3	O	0.493361	0.627489	-0.040050
O4	O	0.493361	0.775251	-0.141716
O5	O	0.391688	0.775299	0.040127
O6	O	0.573563	0.775237	-0.141706
O7	O	0.391687	0.775286	-0.040066
O8	O	0.573564	0.510917	0.040156
O9	O	0.391688	1.039620	-0.141735
O10	O	0.563390	0.688262	-0.029870
O11	O	0.503537	0.688283	0.029970
O12	O	0.503536	0.862254	-0.089729
O13	O	0.443682	0.862275	-0.029889
Zr14	Zr	0.597422	0.775268	0.064006
Zr15	Zr	0.597420	0.775247	-0.063893
Zr16	Zr	0.469508	0.775290	0.063990
Zr17	Zr	0.469507	0.961186	-0.063914
Zr18	Zr	0.597421	0.589351	0.064010
O19	O	0.573567	0.923048	0.040146
O20	O	0.573564	0.923017	-0.141710
O21	O	0.391689	0.923079	0.040124
O22	O	0.675241	0.627489	0.141829
O23	O	0.675238	0.627458	-0.040027
O24	O	0.493364	0.627520	0.141806
O25	O	0.675239	0.775237	-0.040031
O26	O	0.573567	0.775286	0.141813
O27	O	0.493365	0.775299	0.141803
O28	O	0.675241	0.775251	0.040163
O29	O	0.493362	1.039602	-0.141723
O30	O	0.573566	0.510935	0.141819
O31	O	0.675240	0.510917	0.141832
O32	O	0.675239	0.510900	0.040169
O33	O	0.391689	1.039637	-0.040073
O34	O	0.493364	1.039620	-0.040060
O35	O	0.563392	0.688283	0.089825
O36	O	0.623245	0.688262	0.029985
O37	O	0.563391	0.862254	-0.029874
O38	O	0.503538	0.862275	0.029966
C39	C	0.533462	0.542714	0.000054
C40	C	0.533462	0.463787	0.000056
C41	C	0.564708	0.123823	-0.031195
C42	C	0.564704	0.197985	-0.031196
C43	C	0.533462	0.235068	0.000044
C44	C	0.502217	0.197993	0.031281
C45	C	0.502217	0.123837	0.031277
C46	C	0.502220	0.352555	0.031287
C47	C	0.502220	0.426714	0.031292
C48	C	0.564707	0.426702	-0.031186
C49	C	0.564707	0.352547	-0.031189
C50	C	0.533462	0.315475	0.000049
C51	C	0.373463	0.775296	0.000028
C52	C	0.319160	0.775305	0.000021
C53	C	0.013705	0.684430	0.031310
C54	C	-0.037313	0.684424	0.031316
O55	O	-0.037130	0.607184	0.057907
N56	N	-0.094073	0.775245	0.000069
C57	C	-0.099814	0.866078	-0.031180
O58	O	-0.152777	0.943327	-0.057756
C59	C	-0.048796	0.866082	-0.031181
C60	C	0.007963	0.775255	0.000063
C61	C	0.070462	0.593611	0.062552
C62	C	0.121477	0.593616	0.062546
C63	C	0.115735	0.684442	0.031298
C64	C	0.058978	0.775261	0.000056
C65	C	-0.054537	0.956914	-0.062426
C66	C	-0.003513	0.956910	-0.062424
C67	C	0.053246	0.866083	-0.031181
C68	C	0.104251	0.866093	-0.031198
N69	N	0.161011	0.775272	0.000048
C70	C	0.166753	0.684446	0.031296
C71	C	-0.206952	0.866061	-0.031173
C72	C	-0.257970	0.866058	-0.031176
C73	C	-0.195465	0.684404	0.031321
C74	C	-0.144447	0.684409	0.031319
C75	C	-0.150193	0.775240	0.000073
C76	C	0.273885	0.684466	0.031280
C77	C	0.324902	0.684480	0.031269
C78	C	0.262393	0.866133	-0.031224
C79	C	0.211381	0.866119	-0.031216
C80	C	0.217131	0.775278	0.000041
O81	O	0.104114	0.943294	-0.057774
O82	O	0.219718	0.607210	0.057875
C83	C	0.693465	0.775241	0.000068
C84	C	0.747768	0.775232	0.000075
C85	C	0.533462	0.775241	-0.159934
C86	C	0.533461	0.775232	-0.214231
C87	C	0.533466	1.007823	0.000043
C88	C	0.533466	1.086750	0.000041
C89	C	0.502226	0.866107	-0.582211
C90	C	0.502228	0.866112	-0.633233
O91	O	0.475675	0.943353	-0.686194
N92	N	0.533470	0.775291	-0.627505
C93	C	0.564717	0.684459	-0.570749
O94	O	0.591292	0.607209	-0.570562
C95	C	0.564719	0.684455	-0.519728
C96	C	0.533470	0.775282	-0.525461
C97	C	0.470980	0.956926	-0.587941
C98	C	0.470978	0.956920	-0.536923
C99	C	0.502221	0.866095	-0.480173
C100	C	0.533467	0.775276	-0.474443
C101	C	0.595969	0.593623	-0.462974
C102	C	0.595968	0.593627	-0.411952
C103	C	0.564719	0.684454	-0.417686
C104	C	0.564708	0.684444	-0.366674
N105	N	0.533466	0.775265	-0.372403
C106	C	0.502222	0.866091	-0.429152
C107	C	0.564713	0.684475	-0.677899
C108	C	0.564708	0.684479	-0.728919
C109	C	0.502220	0.866133	-0.791399
C110	C	0.502221	0.866128	-0.740378
C111	C	0.533471	0.775296	-0.683628
C112	C	0.502219	0.866071	-0.322006
C113	C	0.502217	0.866057	-0.270980
C114	C	0.564708	0.684404	-0.208504
C115	C	0.564708	0.684418	-0.259526
C116	C	0.533462	0.775259	-0.316278
O117	O	0.591249	0.607243	-0.313694
O118	O	0.475659	0.943327	-0.429329
C119	C	0.533466	0.775296	0.160031
C120	C	0.533467	0.775305	0.214327
C121	C	0.693463	0.542686	0.000074
C122	C	0.747766	0.463750	0.000082
C123	C	0.533465	0.542741	0.160036
C124	C	0.533465	0.463823	0.214335
C125	C	0.693466	0.542714	0.160056
C126	C	0.747769	0.463787	0.214361
C127	C	0.373462	1.007823	-0.159960
C128	C	0.319159	1.086750	-0.214265
C129	C	0.373464	1.007851	0.000023
C130	C	0.319162	1.086787	0.000014
C131	C	0.533463	1.007796	-0.159940
C132	C	0.533463	1.086714	-0.214238
C133	C	0.742023	0.426681	-0.031162
C134	C	0.793041	0.352522	-0.031166
C135	C	0.849801	0.315429	0.000079
C136	C	0.855543	0.352506	0.031325
C137	C	0.804525	0.426668	0.031325
C138	C	0.564709	0.426763	0.271083
C139	C	0.564707	0.352621	0.322107
C140	C	0.533464	0.315537	0.316381
C141	C	0.502216	0.352605	0.259627
C142	C	0.502215	0.426750	0.208605
C143	C	0.804519	0.426711	0.208628
C144	C	0.855547	0.352561	0.259649
C145	C	0.849825	0.315483	0.316402
C146	C	0.793069	0.352566	0.322135
C147	C	0.742042	0.426720	0.271114
C148	C	0.262409	1.123835	-0.208532
C149	C	0.211381	1.198008	-0.259552
C150	C	0.217103	1.235090	-0.316306
C151	C	0.273859	1.198002	-0.322038
C152	C	0.324886	1.123836	-0.271018
C153	C	0.324905	1.123864	0.031253
C154	C	0.273887	1.198043	0.031243
C155	C	0.217127	1.235139	-0.000004
C156	C	0.211385	1.198059	-0.031247
C157	C	0.262402	1.123886	-0.031240
C158	C	0.564712	1.123775	-0.208494
C159	C	0.564723	1.197916	-0.259508
C160	C	0.533482	1.235001	-0.316266
C161	C	0.502232	1.197933	-0.322010
C162	C	0.502225	1.123787	-0.270996
H163	H	0.590143	0.228169	-0.056631
H164	H	0.901755	0.322376	0.254971
F165	F	0.150983	1.237463	-0.253439
H166	H	0.891379	0.255102	0.357941
H167	H	0.621416	0.519662	-0.458294
F168	F	0.256305	1.084381	-0.148135
H169	H	0.476776	0.228196	0.056714
H170	H	-0.190798	0.610449	0.056762
H171	H	0.476779	0.322400	0.254974
F172	F	0.385282	1.084369	-0.277129
F173	F	0.810647	0.466107	0.064585
H174	H	0.476796	1.228139	-0.368229
H175	H	0.590150	0.322348	-0.056623
F176	F	0.468962	0.466180	0.148210
F177	F	0.786918	0.313073	-0.064422
F178	F	0.468963	0.084386	0.064521
H179	H	0.175549	1.295481	-0.357845
F180	F	-0.213075	0.962744	-0.064437
F181	F	0.533494	1.313916	-0.370555
F182	F	0.437724	1.053604	-0.648336
H183	H	0.891338	0.255040	0.000075
F184	F	0.468970	0.962798	-0.851806
H185	H	-0.100745	1.030875	-0.087867
F186	F	0.468964	0.466188	0.064535
F187	F	0.786988	0.313094	0.382541
F188	F	0.681646	0.466166	0.277226
F189	F	0.279940	1.237476	-0.382445
H190	H	0.278574	1.228221	0.056687
F191	F	0.468952	0.962732	-0.277088
F192	F	0.468958	1.084359	-0.277119
H193	H	0.371117	1.093666	0.056702
H194	H	0.476775	0.940087	-0.745052
F195	F	0.150972	1.237547	-0.064499
H196	H	0.590147	0.456891	-0.056621
F197	F	-0.009634	1.053589	-0.095680
F198	F	0.597966	0.466214	0.277190
F199	F	0.280013	0.587782	0.064547
H200	H	0.476774	0.322378	0.056721
F201	F	0.597965	0.084355	-0.064440
F202	F	0.597966	1.084319	-0.148092
H203	H	0.809189	0.456889	0.162421
F204	F	0.076586	0.496933	0.095815
F205	F	0.385310	0.587805	0.064523
H206	H	0.167689	0.519656	0.087985
H207	H	0.175590	1.295535	-0.000005
H208	H	0.695810	0.456881	-0.056613
F209	F	-0.084043	0.587740	0.064573
F210	F	0.437710	1.053592	-0.543033
F211	F	0.597968	0.313182	0.382503
F212	F	0.256281	1.084428	-0.064488
F213	F	0.597982	1.237358	-0.253383
F214	F	0.468964	0.962755	-0.382401
F215	F	0.256293	0.962790	-0.064472
H216	H	-0.304182	0.940018	-0.056625
H217	H	0.901764	0.322294	0.056763
H218	H	0.590146	0.610519	-0.724243
F219	F	0.150972	0.962786	-0.064480
F220	F	0.597968	0.587793	-0.617501
H221	H	0.590145	0.610459	-0.254857
F222	F	0.629234	0.496948	-0.351554
F223	F	0.597957	0.587746	-0.148100
F224	F	0.533471	0.236624	0.370690
