data_functionalizedCrystal
_audit_creation_method	'MofGen! by Chris Wilmer'
_symmetry_space_group_name_H-M	'P1'
_symmetry_Int_Tables_number	1
_symmetry_cell_setting	triclinic
loop_
_symmetry_equiv_pos_as_xyz
  x,y,z
_cell_length_a	17.639617
_cell_length_b	21.395362
_cell_length_c	21.395355
_cell_angle_alpha	90.020549
_cell_angle_beta	101.248275
_cell_angle_gamma	101.213953
loop_
_atom_site_label
_atom_site_type_symbol
_atom_site_fract_x
_atom_site_fract_y
_atom_site_fract_z
Zn1	Zn	1.208574	-0.056162	0.548274
Zn2	Zn	1.208453	-0.160942	0.443474
Zn3	Zn	1.076363	-0.077314	0.422286
Zn4	Zn	1.076326	-0.182063	0.527002
O5	O	1.142429	-0.119120	0.485259
O6	O	1.319185	-0.052370	0.552142
O7	O	1.190896	-0.149861	0.352979
O8	O	1.093967	0.013180	0.439034
O9	O	1.319096	-0.129351	0.475145
O10	O	1.191102	0.028720	0.531597
O11	O	1.093850	-0.088420	0.337413
O12	O	0.965731	-0.108900	0.418407
O13	O	1.093904	-0.165350	0.617508
O14	O	0.965704	-0.185859	0.495342
O15	O	1.191066	-0.072851	0.633136
O16	O	1.190860	-0.251432	0.454519
O17	O	1.093787	-0.266950	0.515887
C18	C	0.937033	-0.151968	0.452268
C19	C	0.849164	-0.166035	0.438169
C20	C	1.142328	-0.281924	0.485211
C21	C	1.142357	-0.351561	0.485223
C22	C	1.192906	-0.376130	0.533444
C23	C	1.192934	-0.441561	0.533464
C24	C	1.142421	-0.482419	0.485252
C25	C	1.091862	-0.457843	0.437026
C26	C	1.091830	-0.392414	0.437012
C27	C	1.136267	-0.587103	0.427826
C28	C	1.136305	-0.652530	0.427840
C29	C	1.142515	-0.684224	0.485298
C30	C	1.148704	-0.650481	0.542745
C31	C	1.148672	-0.585052	0.542730
C32	C	1.142450	-0.553366	0.485263
C33	C	1.193097	-0.779741	0.533544
C34	C	1.193119	-0.845174	0.533564
C35	C	1.092051	-0.861454	0.437122
C36	C	1.092025	-0.796023	0.437107
C37	C	1.142552	-0.755170	0.485318
C38	C	0.560376	-0.012239	0.592523
C39	C	0.477810	-0.025473	0.579262
C40	C	0.477739	-0.105500	0.498970
C41	C	0.560307	-0.092275	0.512226
C42	C	0.601619	-0.045643	0.559003
C43	C	0.601550	-0.125679	0.478706
C44	C	0.684111	-0.112452	0.491959
C45	C	0.725429	-0.065821	0.538732
C46	C	0.684180	-0.032416	0.572256
C47	C	0.560237	-0.172307	0.431927
C48	C	0.601480	-0.205712	0.398407
C49	C	0.684042	-0.192488	0.411663
C50	C	0.725360	-0.145857	0.458436
C51	C	0.725291	-0.225893	0.378139
C52	C	0.807852	-0.212667	0.391392
C53	C	0.807921	-0.132631	0.471689
C54	C	1.348627	-0.086145	0.518380
C55	C	1.436496	-0.072093	0.532494
C56	C	1.142495	-0.119097	0.648693
C57	C	1.142523	-0.119087	0.718339
C58	C	1.142552	0.044323	0.485325
C59	C	1.142605	0.113972	0.485353
C60	C	1.142409	-0.119091	0.322468
C61	C	1.142535	-0.118900	0.252847
C62	C	1.193113	-0.070922	0.759190
C63	C	1.193112	-0.070895	0.824625
C64	C	1.142529	-0.119043	0.849208
C65	C	1.091929	-0.167213	0.808347
C66	C	1.091926	-0.167235	0.742912
C67	C	1.136252	-0.176463	0.951864
C68	C	1.136260	-0.176441	1.017298
C69	C	1.142534	-0.118976	1.051030
C70	C	1.148815	-0.061529	1.019321
C71	C	1.148812	-0.061551	0.953887
C72	C	1.142526	-0.119025	0.920160
C73	C	1.193126	-0.070778	1.162834
C74	C	1.193119	-0.070751	1.228270
C75	C	1.091940	-0.167075	1.211991
C76	C	1.091943	-0.167097	1.146556
C77	C	1.142539	-0.118949	1.121982
H78	H	1.234047	-0.342869	0.572701
H79	H	1.234320	-0.031570	1.142824
F80	F	0.433764	-0.155125	0.449187
F81	F	1.129724	-0.688436	0.366702
F82	F	1.038078	-0.218502	0.699433
F83	F	1.155493	-0.000413	0.920142
H84	H	0.444233	0.001736	0.606558
F85	F	0.472367	-0.186380	0.417819
F86	F	1.038288	-0.904934	0.385812
F87	F	1.038223	-0.769874	0.385782
F88	F	1.129738	-0.553366	0.366675
H89	H	0.594015	0.025731	0.630615
F90	F	1.246915	-0.871323	0.584896
H91	H	1.050751	-0.206321	1.113294
F92	F	1.155317	-0.684206	0.603900
H93	H	1.234307	-0.031670	0.857893
F94	F	1.155495	-0.000365	1.055216
H95	H	0.567833	-0.243677	0.360319
F96	F	0.681314	-0.275514	0.328352
F97	F	1.038098	-0.501328	0.385719
F98	F	1.246960	-0.019676	0.733040
F99	F	0.728152	0.017210	0.622046
H100	H	1.050741	-0.206415	0.828366
H101	H	1.050666	-0.372410	0.397743
H102	H	1.234091	-0.461570	0.572738
H103	H	1.153709	-0.557579	0.589504
F104	F	0.851893	-0.083004	0.521479
F105	F	1.246976	-0.019490	1.271749
F106	F	1.246869	-0.736260	0.584855
H107	H	1.050746	-0.206273	1.232004
F108	F	0.851749	-0.248224	0.355721
H109	H	1.131150	-0.223218	1.043111
H110	H	0.792656	-0.055051	0.549520
F111	F	1.129592	-0.237628	0.915973
