data_functionalizedCrystal
_audit_creation_method	'MofGen! by Chris Wilmer'
_symmetry_space_group_name_H-M	'P1'
_symmetry_Int_Tables_number	1
_symmetry_cell_setting	triclinic
loop_
_symmetry_equiv_pos_as_xyz
  x,y,z
_cell_length_a	10.654554
_cell_length_b	17.699083
_cell_length_c	9.130313
_cell_angle_alpha	89.997869
_cell_angle_beta	89.998999
_cell_angle_gamma	83.884929
loop_
_atom_site_label
_atom_site_type_symbol
_atom_site_fract_x
_atom_site_fract_y
_atom_site_fract_z
O1	O	1.665970	0.106316	-0.121829
O2	O	1.300315	0.116440	-0.121826
O3	O	1.493473	0.001255	-0.121815
O4	O	1.472812	0.221502	-0.121840
O5	O	1.493470	0.001258	0.121784
O6	O	1.300312	0.116443	0.121773
O7	O	1.665967	0.106319	0.121770
Cu8	Cu	1.483140	0.111382	0.144014
Cu9	Cu	1.483142	0.111378	-0.144070
O10	O	1.472809	0.221505	0.121759
C11	C	1.253529	0.115698	-0.000026
C12	C	1.114125	0.113471	-0.000025
C13	C	0.932823	0.041466	-0.000036
C14	C	1.063808	0.043557	-0.000021
C15	C	1.033448	0.181299	-0.000029
C16	C	0.902466	0.179207	-0.000033
C17	C	0.950352	-0.038059	-0.000037
C18	C	1.081337	-0.035967	-0.000023
C19	C	1.492731	-0.026945	-0.000015
C20	C	1.490510	-0.110978	-0.000014
C21	C	1.603890	-0.158877	-0.000013
C22	C	1.601796	-0.237833	-0.000026
C23	C	1.486320	-0.268889	-0.000030
C24	C	1.372932	-0.220984	-0.000035
C25	C	1.375027	-0.142029	-0.000033
C26	C	1.364478	-0.539401	-0.000047
C27	C	1.362391	-0.618362	-0.000045
C28	C	1.591246	-0.635205	-0.000040
C29	C	1.593341	-0.556250	-0.000038
C30	C	1.479954	-0.508352	-0.000051
C31	C	1.482226	-0.422738	-0.000040
C32	C	1.484047	-0.354501	-0.000030
C33	C	1.712753	0.107062	-0.000033
C34	C	1.852157	0.109288	-0.000044
C35	C	1.473551	0.249705	-0.000044
C36	C	1.475772	0.333737	-0.000055
N37	N	1.483147	0.111384	0.346637
N38	N	1.483145	0.111370	-0.346693
C39	C	1.568699	0.060397	0.423294
C40	C	1.568695	0.060388	0.576630
C41	C	1.397584	0.162359	0.576640
C42	C	1.397582	0.162364	0.423306
C43	C	1.667492	0.001527	0.423290
C44	C	1.667489	0.001518	0.576626
H45	H	0.836791	0.234435	-0.000022
H46	H	0.915168	-0.063383	-0.105217
H47	H	0.921533	-0.069160	0.101905
H48	H	1.272150	-0.500411	-0.000058
C49	C	1.235353	-0.652521	-0.000061
N50	N	1.139673	-0.678250	-0.000075
H51	H	1.282702	-0.103030	-0.000034
C52	C	1.143567	-0.068433	0.142074
N53	N	1.190440	-0.092884	0.249099
C54	C	1.245907	-0.255149	-0.000027
N55	N	1.150230	-0.280880	-0.000010
H56	H	1.327909	0.203874	0.360893
C57	C	1.303467	0.218433	0.660990
N58	N	1.232575	0.260669	0.724521
H59	H	1.647068	-0.056646	0.381677
C60	C	1.627553	-0.072743	0.640877
N61	N	1.597464	-0.128673	0.689272
C62	C	1.790243	0.026426	0.359029
N63	N	1.882700	0.045180	0.310627
C64	C	1.138465	-0.076441	-0.137743
N65	N	1.181491	-0.106922	-0.241473
H66	H	1.074426	0.238225	-0.000018
H67	H	1.763773	0.014487	0.618241
C68	C	1.726523	-0.290519	-0.000001
N69	N	1.820473	-0.330202	0.000025
C70	C	1.730924	-0.124723	-0.000009
N71	N	1.826610	-0.099001	-0.000012
H72	H	1.687373	-0.530969	-0.000028
H73	H	1.683572	-0.674214	-0.000037
