data_functionalizedCrystal
_audit_creation_method	'MofGen! by Chris Wilmer'
_symmetry_space_group_name_H-M	'P1'
_symmetry_Int_Tables_number	1
_symmetry_cell_setting	triclinic
loop_
_symmetry_equiv_pos_as_xyz
  x,y,z
_cell_length_a	16.992694
_cell_length_b	9.730223
_cell_length_c	10.654551
_cell_angle_alpha	89.995171
_cell_angle_beta	87.576826
_cell_angle_gamma	90.003731
loop_
_atom_site_label
_atom_site_type_symbol
_atom_site_fract_x
_atom_site_fract_y
_atom_site_fract_z
O1	O	1.041838	-0.114109	0.266435
O2	O	1.541838	0.385891	0.766435
O3	O	0.813537	-0.114150	0.263512
O4	O	1.313537	0.385850	0.763512
O5	O	0.932936	-0.114125	0.082688
O6	O	1.432936	0.385875	0.582688
O7	O	0.922439	-0.114133	0.447259
O8	O	1.422439	0.385867	0.947259
O9	O	0.932931	0.114455	0.082674
O10	O	1.432931	0.614455	0.582674
O11	O	0.813532	0.114430	0.263498
O12	O	1.313532	0.614430	0.763498
O13	O	1.041833	0.114471	0.266421
O14	O	1.541833	0.614471	0.766421
Zn15	Zn	0.927682	0.150743	0.264957
Zn16	Zn	1.427682	0.650743	0.764957
Zn17	Zn	0.927688	-0.150421	0.264976
Zn18	Zn	1.427688	0.349579	0.764976
O19	O	0.922434	0.114447	0.447245
O20	O	1.422434	0.614447	0.947245
C21	C	0.784301	0.000135	0.259745
C22	C	1.284301	0.500135	0.759745
C23	C	0.697196	0.000120	0.248526
C24	C	1.197196	0.500120	0.748526
N25	N	0.927692	-0.355958	0.264979
N26	N	1.427692	0.144042	0.764979
C27	C	0.932163	0.000162	0.035816
C28	C	1.432163	0.500162	0.535816
C29	C	0.929856	0.000156	-0.103826
C30	C	1.429856	0.500156	0.396174
C31	C	0.647545	0.000118	0.356776
C32	C	1.147545	0.500118	0.856776
C33	C	0.565701	0.000137	0.346227
C34	C	1.065701	0.500137	0.846227
C35	C	0.533510	0.000148	0.227426
C36	C	1.033510	0.500148	0.727426
C37	C	0.583168	0.000153	0.119167
C38	C	1.083168	0.500153	0.619167
C39	C	0.665010	0.000144	0.129718
C40	C	1.165010	0.500144	0.629718
C41	C	0.289674	0.000186	0.183699
C42	C	0.789674	0.500186	0.683699
C43	C	0.207825	0.000191	0.173157
C44	C	0.707825	0.500191	0.673157
C45	C	0.190364	0.000178	0.400218
C46	C	0.690364	0.500178	0.900218
C47	C	0.272209	0.000160	0.410758
C48	C	0.772209	0.500160	0.910758
C49	C	0.321860	0.000173	0.302499
C50	C	0.821860	0.500173	0.802499
N51	N	0.449852	0.000163	0.216640
N52	N	0.949852	0.500163	0.716640
N53	N	0.405515	0.000167	0.313286
N54	N	0.905515	0.500167	0.813286
C55	C	1.071069	0.000183	0.270188
C56	C	1.571069	0.500183	0.770188
C57	C	1.158174	0.000190	0.281408
C58	C	1.658174	0.500190	0.781408
C59	C	0.980658	-0.571765	0.185069
C60	C	1.480658	-0.071765	0.685069
C61	C	0.980661	-0.427882	0.185083
C62	C	1.480661	0.072118	0.685083
C63	C	0.874713	-0.427924	0.344858
C64	C	1.374713	0.072076	0.844858
C65	C	0.874707	-0.571804	0.344837
C66	C	1.374707	-0.071804	0.844837
N67	N	0.927684	0.356279	0.264944
N68	N	1.427684	0.856279	0.764944
C69	C	0.928776	-0.124445	-0.169416
C70	C	1.428776	0.375555	0.330584
C71	C	0.926602	-0.124447	-0.300624
C72	C	1.426602	0.375553	0.199376
C73	C	0.926592	0.124764	-0.300642
C74	C	1.426592	0.624764	0.199358
C75	C	0.928760	0.124764	-0.169435
C76	C	1.428760	0.624764	0.330565
C77	C	0.923207	0.000156	0.494117
C78	C	1.423207	0.500156	0.994117
C79	C	0.925514	0.000154	0.633759
C80	C	1.425514	0.500154	1.133759
H81	H	0.673748	0.000109	0.453517
H82	H	1.173748	0.500109	0.953517
H83	H	1.023796	-0.369300	0.120040
H84	H	1.523796	0.130700	0.620040
F85	F	0.929902	0.257388	-0.099625
F86	F	1.429902	0.757388	0.400375
H87	H	0.929666	-0.225909	-0.116000
H88	H	1.429666	0.274091	0.384000
F89	F	0.548906	0.000174	-0.007271
F90	F	1.048906	0.500174	0.492729
H91	H	0.330091	0.000197	0.095546
H92	H	0.830091	0.500197	0.595546
H93	H	0.925721	-0.225909	-0.354021
H94	H	1.425721	0.274091	0.145979
H95	H	0.705436	0.000144	0.041568
H96	H	1.205436	0.500144	0.541568
F97	F	1.037039	-0.648299	0.100037
F98	F	1.537039	-0.148299	0.600037
H99	H	0.831565	-0.630394	0.409881
H100	H	1.331565	-0.130394	0.909881
H101	H	0.831581	-0.369354	0.409907
H102	H	1.331581	0.130646	0.909907
H103	H	0.925701	0.226216	-0.354077
H104	H	1.425701	0.726216	0.145923
F105	F	0.306462	0.000141	0.537202
F106	F	0.806462	0.500141	1.037202
F107	F	0.137517	0.000167	0.515426
F108	F	0.637517	0.500167	1.015426
F109	F	0.173568	0.000226	0.046707
F110	F	0.673568	0.500226	0.546707
F111	F	0.512861	0.000130	0.461443
F112	F	1.012861	0.500130	0.961443
