data_functionalizedCrystal
_audit_creation_method	'MofGen! by Chris Wilmer'
_symmetry_space_group_name_H-M	'P1'
_symmetry_Int_Tables_number	1
_symmetry_cell_setting	triclinic
loop_
_symmetry_equiv_pos_as_xyz
  x,y,z
_cell_length_a	14.044191
_cell_length_b	15.538191
_cell_length_c	12.503552
_cell_angle_alpha	92.121413
_cell_angle_beta	93.842477
_cell_angle_gamma	109.768065
loop_
_atom_site_label
_atom_site_type_symbol
_atom_site_fract_x
_atom_site_fract_y
_atom_site_fract_z
O1	O	1.188891	-0.215912	0.089253
O2	O	0.915665	-0.207939	0.089267
O3	O	1.105464	-0.079266	0.089262
O4	O	0.999092	-0.344585	0.089258
O5	O	1.091175	-0.088952	-0.089380
O6	O	0.901376	-0.217624	-0.089375
O7	O	1.174602	-0.225597	-0.089389
Cu8	Cu	1.036684	-0.222495	-0.105694
Cu9	Cu	1.053583	-0.211041	0.105571
O10	O	0.984803	-0.354270	-0.089385
C11	C	0.874406	-0.209294	-0.000052
C12	C	0.772759	-0.198892	-0.000046
C13	C	0.503632	-0.253650	-0.000058
C14	C	0.586639	-0.179890	-0.000055
C15	C	0.690205	-0.190465	-0.000050
C16	C	0.400056	-0.243076	-0.000063
C17	C	1.109449	-0.049949	-0.000056
C18	C	1.142600	0.051839	-0.000047
C19	C	1.215861	-0.224242	-0.000068
C20	C	1.317508	-0.234644	-0.000067
C21	C	0.980818	-0.383587	-0.000064
C22	C	0.947667	-0.485375	-0.000066
N23	N	1.024805	-0.230551	-0.254286
C24	C	0.813258	0.367312	-0.000053
C25	C	0.844431	0.462957	-0.000057
C26	C	1.019772	0.470661	-0.000066
C27	C	0.988614	0.375015	-0.000056
C28	C	0.885356	0.323347	-0.000051
C29	C	1.060712	0.331051	-0.000055
C30	C	1.029556	0.235412	-0.000051
C31	C	0.926302	0.183738	-0.000049
C32	C	0.854200	0.227709	-0.000048
C33	C	1.163970	0.382720	-0.000067
C34	C	1.236067	0.338755	-0.000066
C35	C	1.204912	0.243116	-0.000054
C36	C	1.101658	0.191442	-0.000052
C37	C	1.277015	0.199145	-0.000056
C38	C	1.245858	0.103507	-0.000052
C39	C	1.070502	0.095803	-0.000049
C40	C	1.082942	-0.191124	-0.526721
C41	C	1.007339	-0.242402	-0.473395
C42	C	1.017059	-0.235807	-0.351471
C43	C	1.073223	-0.197719	-0.648655
N44	N	1.065471	-0.202978	0.254164
H45	H	0.579929	-0.108795	0.000022
Cl46	Cl	0.514003	-0.363401	-0.000047
Cl47	Cl	1.194143	-0.115704	-0.455840
H48	H	0.785711	0.498748	-0.000074
Cl49	Cl	0.896137	-0.317832	-0.544280
Cl50	Cl	0.887131	0.063505	-0.000054
Cl51	Cl	0.940690	0.030843	-0.000031
Cl52	Cl	0.724388	0.162749	-0.000030
Cl53	Cl	1.149577	0.535623	-0.000080
Cl54	Cl	1.336495	0.048232	-0.000070
H55	H	0.729176	0.325241	-0.000041
H56	H	1.189334	0.460595	-0.000061
Cl57	Cl	1.365872	0.403717	-0.000080
Cl58	Cl	1.406818	0.264108	-0.000083
