data_functionalizedCrystal
_audit_creation_method	'MofGen! by Chris Wilmer'
_symmetry_space_group_name_H-M	'P1'
_symmetry_Int_Tables_number	1
_symmetry_cell_setting	triclinic
loop_
_symmetry_equiv_pos_as_xyz
  x,y,z
_cell_length_a	9.482900
_cell_length_b	15.538191
_cell_length_c	10.967926
_cell_angle_alpha	66.441135
_cell_angle_beta	92.549900
_cell_angle_gamma	95.622696
loop_
_atom_site_label
_atom_site_type_symbol
_atom_site_fract_x
_atom_site_fract_y
_atom_site_fract_z
O1	O	0.264683	0.163649	1.538957
O2	O	0.176969	0.165682	1.188858
O3	O	0.237894	0.030058	1.432059
O4	O	0.203758	0.299272	1.295757
O5	O	0.467298	0.057722	1.382609
O6	O	0.406374	0.193346	1.139408
O7	O	0.494088	0.191313	1.489507
Cu8	Cu	0.471177	0.194855	1.309943
Cu9	Cu	0.199880	0.162139	1.368423
O10	O	0.433163	0.326937	1.246307
C11	C	0.280720	0.177276	1.120421
C12	C	0.248087	0.170595	0.990176
N13	N	0.661996	0.217866	1.268819
C14	C	0.356164	0.009322	1.421595
C15	C	0.366793	-0.093681	1.464075
N16	N	0.009064	0.139122	1.409559
C17	C	0.756107	0.168921	1.356287
C18	C	0.914954	0.188074	1.322078
C19	C	0.261094	-0.397091	1.042068
C20	C	0.271105	-0.493878	1.082011
C21	C	0.327394	-0.508003	1.306685
C22	C	0.317381	-0.411216	1.266762
C23	C	0.284233	-0.355767	1.134452
C24	C	0.340520	-0.369893	1.359146
C25	C	0.330515	-0.273114	1.319225
C26	C	0.297372	-0.217658	1.186919
C27	C	0.274228	-0.258988	1.094531
C28	C	0.373678	-0.425342	1.491454
C29	C	0.396817	-0.384018	1.583837
C30	C	0.386802	-0.287239	1.543919
C31	C	0.353659	-0.231783	1.411613
C32	C	0.409946	-0.245909	1.636307
C33	C	0.399942	-0.149129	1.596386
C34	C	0.343655	-0.135004	1.371692
C35	C	0.314889	0.347672	1.256771
C36	C	0.304252	0.450674	1.214293
C37	C	0.352377	0.181948	0.906492
C38	C	0.318653	0.175044	0.771876
C39	C	0.390334	0.179719	1.557945
C40	C	0.422957	0.186398	1.688192
H41	H	0.719082	0.112835	1.456496
O42	O	0.559190	0.204124	0.721777
C43	C	0.717029	0.227066	0.886631
C44	C	0.562685	0.207012	0.848749
H45	H	0.719909	0.229388	0.989301
H46	H	0.762989	0.297736	0.810382
H47	H	0.782471	0.168848	0.888284
H48	H	0.497130	0.265171	0.847110
H49	H	0.516838	0.136312	0.925007
O50	O	0.182335	0.157516	0.738314
C51	C	-0.009333	0.212687	0.582864
C52	C	0.145043	0.232663	0.620740
H53	H	-0.039521	0.273420	0.487789
H54	H	-0.082689	0.205264	0.666730
H55	H	-0.020043	0.144541	0.565991
H56	H	0.155890	0.300814	0.637593
H57	H	0.218326	0.240026	0.536855
H58	H	0.418785	-0.115483	1.671614
H59	H	0.951972	0.244157	1.221857
O60	O	0.111705	0.153023	0.956838
C61	C	-0.123524	0.205124	0.916822
C62	C	0.030875	0.225125	0.954617
H63	H	-0.188912	0.263416	0.914986
H64	H	-0.169542	0.134510	0.993164
H65	H	-0.126393	0.202668	0.814233
H66	H	0.033868	0.227630	1.057174
H67	H	0.076827	0.295723	0.878190
O68	O	0.964646	0.072095	1.528939
C69	C	0.765759	-0.008424	1.671622
C70	C	0.815896	0.067639	1.536488
H71	H	0.645489	-0.012066	1.677758
H72	H	0.816223	0.010101	1.755319
H73	H	0.798456	-0.079673	1.681796
H74	H	0.783212	0.138916	1.526185
H75	H	0.765442	0.049033	1.452858
H76	H	0.699021	0.273945	1.168606
H77	H	0.316651	-0.089856	1.263954
H78	H	0.289235	-0.138854	1.154416
O79	O	0.242059	-0.205248	0.965941
C80	C	0.187163	-0.201453	0.747308
C81	C	0.223617	-0.262418	0.892875
H82	H	0.172212	-0.247653	0.688199
H83	H	0.277076	-0.144225	0.702219
H84	H	0.085105	-0.167350	0.743768
H85	H	0.325636	-0.296584	0.896534
H86	H	0.133621	-0.319592	0.937902
O87	O	0.228688	-0.343338	0.913547
C88	C	0.058608	-0.315940	0.734946
C89	C	0.095145	-0.376905	0.880491
H90	H	-0.049375	-0.343043	0.708184
H91	H	0.142606	-0.319920	0.666621
H92	H	0.055511	-0.239672	0.722312
H93	H	0.098223	-0.453198	0.893253
H94	H	0.011138	-0.372845	0.948745
O95	O	0.248876	-0.534031	0.992256
C96	C	0.346321	-0.620807	0.881357
C97	C	0.371689	-0.575357	0.983011
H98	H	0.445585	-0.654248	0.873870
H99	H	0.320994	-0.564574	0.779889
H100	H	0.253546	-0.677309	0.915129
H101	H	0.464477	-0.518864	0.949363
H102	H	0.396935	-0.631645	1.084456
O103	O	0.359413	-0.561796	1.435283
C104	C	0.291668	-0.617867	1.665149
C105	C	0.255265	-0.556896	1.519571
H106	H	0.207470	-0.613942	1.733334
H107	H	0.399536	-0.590737	1.692108
H108	H	0.294904	-0.694121	1.677766
H109	H	0.251951	-0.480629	1.506846
H110	H	0.147423	-0.584104	1.492679
H111	H	0.381810	-0.504147	1.523956
O112	O	0.429258	-0.437815	1.712322
C113	C	0.599219	-0.465127	1.891002
C114	C	0.562679	-0.404144	1.745466
H115	H	0.707077	-0.437915	1.917853
H116	H	0.602505	-0.541402	1.903730
H117	H	0.515061	-0.461174	1.959202
H118	H	0.646797	-0.408018	1.677176
H119	H	0.559344	-0.327896	1.732846
O120	O	0.442223	-0.299632	1.764865
C121	C	0.496912	-0.303443	1.983538
C122	C	0.460402	-0.242490	1.837981
H123	H	0.511590	-0.257272	2.042700
H124	H	0.599054	-0.337497	1.987217
H125	H	0.407010	-0.360709	2.028475
H126	H	0.550212	-0.185176	1.792953
H127	H	0.358215	-0.208505	1.834391
H128	H	0.466631	0.196773	0.934510
