data_functionalizedCrystal
_audit_creation_method	'MofGen! by Chris Wilmer'
_symmetry_space_group_name_H-M	'P1'
_symmetry_Int_Tables_number	1
_symmetry_cell_setting	triclinic
loop_
_symmetry_equiv_pos_as_xyz
  x,y,z
_cell_length_a	14.908571
_cell_length_b	29.839131
_cell_length_c	14.908694
_cell_angle_alpha	93.265636
_cell_angle_beta	83.592472
_cell_angle_gamma	86.737317
loop_
_atom_site_label
_atom_site_type_symbol
_atom_site_fract_x
_atom_site_fract_y
_atom_site_fract_z
Zn1	Zn	1.413164	-0.236510	-0.591460
Zn2	Zn	1.404279	-0.307038	-0.440081
Zn3	Zn	1.253073	-0.227321	-0.431397
Zn4	Zn	1.261711	-0.307003	-0.582679
O5	O	1.333056	-0.269468	-0.511404
O6	O	1.538649	-0.249726	-0.578688
O7	O	1.376888	-0.292632	-0.312264
O8	O	1.274412	-0.165677	-0.452670
O9	O	1.532121	-0.301542	-0.467470
O10	O	1.392030	-0.172428	-0.570268
O11	O	1.265797	-0.234065	-0.305884
O12	O	1.127554	-0.234031	-0.444156
O13	O	1.289135	-0.301483	-0.710509
O14	O	1.133901	-0.292573	-0.555302
O15	O	1.400406	-0.249692	-0.716960
O16	O	1.385264	-0.369896	-0.458956
O17	O	1.280519	-0.369870	-0.563722
C18	C	1.097885	-0.262301	-0.497834
C19	C	0.997279	-0.259247	-0.492051
C20	C	0.814877	-0.314551	-0.596763
C21	C	0.720349	-0.311683	-0.591332
C22	C	0.713693	-0.250640	-0.475762
C23	C	0.808221	-0.253508	-0.481193
C24	C	0.858810	-0.285465	-0.541695
C25	C	0.953340	-0.288336	-0.547121
C26	C	0.946682	-0.227291	-0.431556
C27	C	0.852154	-0.224423	-0.426125
C28	C	1.332890	-0.386184	-0.511350
C29	C	1.332904	-0.436119	-0.511362
C30	C	1.387707	-0.745775	-0.456943
C31	C	1.387821	-0.933452	-0.456984
O32	O	1.434284	-0.957722	-0.410674
N33	N	1.333248	-0.956918	-0.511483
C34	C	1.278648	-0.933461	-0.565980
O35	O	1.232240	-0.957727	-0.612342
C36	C	1.278539	-0.745785	-0.565942
C37	C	1.333109	-0.722321	-0.511433
C38	C	1.442272	-0.722311	-0.402439
C39	C	1.442240	-0.675394	-0.402425
C40	C	1.387642	-0.651941	-0.456916
C41	C	1.333076	-0.675405	-0.511420
C42	C	1.223944	-0.722329	-0.620443
C43	C	1.223924	-0.675407	-0.620431
C44	C	1.278493	-0.651944	-0.565922
C45	C	1.278445	-0.605034	-0.565897
N46	N	1.333018	-0.581569	-0.511398
C47	C	1.387616	-0.605022	-0.456908
C48	C	1.278707	-1.031994	-0.565994
C49	C	1.278733	-1.078913	-0.566003
C50	C	1.387907	-1.078901	-0.457008
C51	C	1.387876	-1.031981	-0.456996
C52	C	1.333280	-1.008528	-0.511496
C53	C	1.387542	-0.506494	-0.456883
C54	C	1.387502	-0.459573	-0.456871
C55	C	1.278332	-0.459589	-0.565869
C56	C	1.278368	-0.506506	-0.565877
C57	C	1.332981	-0.529957	-0.511381
O58	O	1.232013	-0.580736	-0.612191
O59	O	1.434032	-0.580749	-0.410567
C60	C	1.387740	-0.792691	-0.456956
C61	C	1.333174	-0.816155	-0.511460
C62	C	1.278576	-0.792702	-0.565951
C63	C	1.333200	-0.863074	-0.511469
C64	C	1.387798	-0.886527	-0.456978
C65	C	1.442370	-0.863062	-0.402480
C66	C	1.442338	-0.816145	-0.402466
C67	C	1.224003	-0.816167	-0.620449
C68	C	1.224039	-0.863084	-0.620458
C69	C	1.278638	-0.886537	-0.565967
C70	C	1.569146	-0.276663	-0.525027
C71	C	1.669753	-0.279729	-0.530833
C72	C	1.346725	-0.276608	-0.747495
C73	C	1.352550	-0.279651	-0.848103
C74	C	1.333249	-0.152297	-0.511480
C75	C	1.333331	-0.102366	-0.511512
C76	C	1.247796	-0.224383	-1.030513
C77	C	1.253265	-0.227241	-1.125043
C78	C	1.368954	-0.288225	-1.131695
C79	C	1.363484	-0.285368	-1.037165
C80	C	1.302904	-0.253445	-0.986577
C81	C	1.297439	-0.250586	-0.892046
C82	C	1.413123	-0.311572	-0.898699
C83	C	1.418593	-0.314430	-0.993229
C84	C	1.319493	-0.262324	-0.276234
C85	C	1.313844	-0.259160	-0.175637
H86	H	0.982462	-0.203608	-0.386714
N87	N	1.193826	-0.195896	-1.172432
H88	H	1.154121	-0.214063	-1.209215
H89	H	1.154678	-0.175249	-1.125982
N90	N	0.797580	-0.189963	-0.360864
H91	H	0.814880	-0.158801	-0.375970
H92	H	0.731050	-0.192603	-0.365813
N93	N	1.165175	-0.888383	-0.679258
H94	H	1.204371	-0.910209	-0.723363
H95	H	1.121142	-0.905464	-0.639974
N96	N	0.659104	-0.216189	-0.410493
H97	H	0.622035	-0.195323	-0.445083
H98	H	0.617487	-0.232008	-0.366265
N99	N	1.472571	-0.342917	-0.851308
H100	H	1.459818	-0.336306	-0.783742
H101	H	1.459489	-0.375074	-0.867100
N102	N	1.219439	-0.434288	-0.624632
H103	H	1.227706	-0.401005	-0.616350
H104	H	1.237224	-0.444850	-0.690102
N105	N	1.446363	-0.434266	-0.398080
H106	H	1.480959	-0.456246	-0.363568
H107	H	1.490343	-0.417160	-0.437371
H108	H	1.432015	-0.525582	-0.412509
H109	H	1.467912	-0.340421	-1.034429
N110	N	1.007907	-0.322804	-0.612368
H111	H	0.965728	-0.340793	-0.646431
H112	H	1.049588	-0.307008	-0.656576
N113	N	0.672962	-0.343054	-0.650725
H114	H	0.719357	-0.363733	-0.689873
H115	H	0.631574	-0.361509	-0.611548
H116	H	1.179544	-0.797075	-0.664823
H117	H	1.486678	-0.656293	-0.358042
H118	H	1.233936	-0.525611	-0.610266
H119	H	1.486824	-0.882165	-0.358109
H120	H	0.856067	-0.340574	-0.646021
H121	H	1.486738	-0.741402	-0.358066
H122	H	1.432311	-1.012879	-0.412610
H123	H	1.418263	-0.314221	-1.172898
N124	N	1.501201	-0.790841	-0.343680
H125	H	1.535791	-0.812825	-0.309170
H126	H	1.545185	-0.773738	-0.382971
N127	N	1.446793	-1.104204	-0.398237
H128	H	1.490844	-1.126033	-0.437488
H129	H	1.481309	-1.082196	-0.363715
N130	N	1.219860	-1.104216	-0.624778
H131	H	1.185272	-1.082235	-0.659293
H132	H	1.259103	-1.126046	-0.668828
H133	H	1.234246	-1.012902	-0.610376
N134	N	1.182462	-0.189956	-0.975941
H135	H	1.217015	-0.169075	-0.938857
H136	H	1.148397	-0.172008	-1.018174
N137	N	1.165082	-0.747629	-0.679231
H138	H	1.130498	-0.725645	-0.713746
H139	H	1.204327	-0.769457	-0.723282
N140	N	1.165029	-0.650110	-0.679204
H141	H	1.204194	-0.633004	-0.723296
H142	H	1.130474	-0.672122	-0.713672
N143	N	1.232110	-0.216154	-0.837480
H144	H	1.198029	-0.198178	-0.879662
H145	H	1.187924	-0.231978	-0.795827
