data_functionalizedCrystal
_audit_creation_method	'MofGen! by Chris Wilmer'
_symmetry_space_group_name_H-M	'P1'
_symmetry_Int_Tables_number	1
_symmetry_cell_setting	triclinic
loop_
_symmetry_equiv_pos_as_xyz
  x,y,z
_cell_length_a	14.519731
_cell_length_b	13.596369
_cell_length_c	10.654549
_cell_angle_alpha	90.004993
_cell_angle_beta	84.086815
_cell_angle_gamma	90.005416
loop_
_atom_site_label
_atom_site_type_symbol
_atom_site_fract_x
_atom_site_fract_y
_atom_site_fract_z
O1	O	1.224710	0.081791	0.164753
O2	O	1.724710	0.581791	0.664753
O3	O	0.956337	0.081793	0.184111
O4	O	1.456337	0.581793	0.684111
O5	O	1.096694	0.081788	-0.008366
O6	O	1.596694	0.581788	0.491634
O7	O	1.084353	0.081796	0.357230
O8	O	1.584353	0.581796	0.857230
O9	O	1.096680	-0.081795	-0.008376
O10	O	1.596680	0.418205	0.491624
O11	O	0.956322	-0.081790	0.184101
O12	O	1.456322	0.418210	0.684101
O13	O	1.224696	-0.081792	0.164742
O14	O	1.724696	0.418208	0.664742
Zn15	Zn	1.090507	-0.107763	0.174420
Zn16	Zn	1.590507	0.392237	0.674420
Zn17	Zn	1.090526	0.107764	0.174434
Zn18	Zn	1.590526	0.607764	0.674434
O19	O	1.084339	-0.081787	0.357220
O20	O	1.584339	0.418213	0.857220
C21	C	0.921965	0.000001	0.183199
C22	C	1.421965	0.500001	0.683199
C23	C	0.819571	0.000002	0.180481
C24	C	1.319571	0.500002	0.680481
C25	C	0.736415	0.000006	0.178272
C26	C	1.236415	0.500006	0.678272
C27	C	0.632092	0.000006	0.175513
C28	C	1.132092	0.500006	0.675513
C29	C	0.548942	0.000006	0.173322
C30	C	1.048942	0.500006	0.673322
C31	C	0.444612	0.000008	0.170563
C32	C	0.944612	0.500008	0.670563
N33	N	1.090501	-0.254855	0.174410
N34	N	1.590501	0.245145	0.674410
C35	C	1.090524	-0.656146	0.174435
C36	C	1.590524	-0.156146	0.674435
C37	C	1.090515	-0.544495	0.174432
C38	C	1.590515	-0.044495	0.674432
C39	C	1.090513	-0.455504	0.174424
C40	C	1.590513	0.044496	0.674424
C41	C	1.090503	-0.343846	0.174419
C42	C	1.590503	0.156154	0.674419
C43	C	1.259067	0.000002	0.165655
C44	C	1.759067	0.500002	0.665655
C45	C	1.361462	0.000008	0.168373
C46	C	1.861462	0.500008	0.668373
C47	C	1.095781	-0.000003	-0.055160
C48	C	1.595781	0.499997	0.444840
C49	C	1.093070	0.000001	-0.194578
C50	C	1.593070	0.500001	0.305422
N51	N	1.090539	0.254856	0.174434
N52	N	1.590539	0.754856	0.674434
C53	C	1.173156	0.000007	-0.405854
C54	C	1.673156	0.500007	0.094146
C55	C	1.175710	-0.000001	-0.274858
C56	C	1.675710	0.499999	0.225142
C57	C	1.007870	-0.000000	-0.245300
C58	C	1.507870	0.500000	0.254700
C59	C	1.005317	0.000001	-0.376294
C60	C	1.505317	0.500001	0.123706
C61	C	1.085252	0.000006	0.404014
C62	C	1.585252	0.500006	0.904014
C63	C	1.087963	0.000009	0.543432
C64	C	1.587963	0.500009	1.043432
H65	H	1.240452	0.000014	-0.471211
H66	H	1.740452	0.500014	0.028789
O67	O	0.927566	-0.000171	-0.167373
O68	O	1.427566	0.499829	0.332627
C69	C	0.784856	-0.084875	-0.102091
C70	C	1.284856	0.415125	0.397909
C71	C	0.875776	-0.084822	-0.190389
C72	C	1.375776	0.415178	0.309611
H73	H	0.742949	-0.153297	-0.120686
H74	H	1.242949	0.346703	0.379314
H75	H	0.801256	-0.084934	0.000272
H76	H	1.301256	0.415066	0.500272
H77	H	0.743021	-0.016382	-0.120551
H78	H	1.243021	0.483618	0.379449
H79	H	0.917656	-0.153303	-0.172041
H80	H	1.417656	0.346697	0.327959
H81	H	0.859311	-0.084711	-0.292722
H82	H	1.359311	0.415289	0.207278
O83	O	1.258546	0.000044	-0.225804
O84	O	1.758546	0.500044	0.274196
C85	C	1.424751	-0.000010	-0.268954
C86	C	1.924751	0.499990	0.231046
C87	C	1.331000	-0.000036	-0.324674
C88	C	1.831000	0.499964	0.175326
H89	H	1.483354	-0.000095	-0.348863
H90	H	1.983354	0.499905	0.151137
H91	H	1.430211	0.068463	-0.208399
H92	H	1.930211	0.568463	0.291601
H93	H	1.430090	-0.068455	-0.208334
H94	H	1.930090	0.431545	0.291666
H95	H	1.325598	0.068364	-0.385351
H96	H	1.825598	0.568364	0.114649
H97	H	1.325581	-0.068554	-0.385156
H98	H	1.825581	0.431446	0.114844
O99	O	0.922531	0.000179	-0.425504
O100	O	1.422531	0.500179	0.074496
C101	C	0.778283	0.084896	-0.440262
C102	C	1.278283	0.584896	0.059738
C103	C	0.872008	0.084833	-0.384472
C104	C	1.372008	0.584833	0.115528
H105	H	0.737400	0.153321	-0.407088
H106	H	1.237400	0.653321	0.092912
H107	H	0.790601	0.084958	-0.547681
H108	H	1.290601	0.584958	-0.047681
H109	H	0.737434	0.016406	-0.407248
H110	H	1.237434	0.516406	0.092752
H111	H	0.912905	0.153312	-0.417389
H112	H	1.412905	0.653312	0.082611
H113	H	0.859624	0.084721	-0.277059
H114	H	1.359624	0.584721	0.222941
