data_functionalizedCrystal
_audit_creation_method	'MofGen! by Chris Wilmer'
_symmetry_space_group_name_H-M	'P1'
_symmetry_Int_Tables_number	1
_symmetry_cell_setting	triclinic
loop_
_symmetry_equiv_pos_as_xyz
  x,y,z
_cell_length_a	15.297475
_cell_length_b	12.594516
_cell_length_c	15.298431
_cell_angle_alpha	99.706714
_cell_angle_beta	91.630971
_cell_angle_gamma	80.319586
loop_
_atom_site_label
_atom_site_type_symbol
_atom_site_fract_x
_atom_site_fract_y
_atom_site_fract_z
Zn1	Zn	1.253572	-0.531641	0.726702
Zn2	Zn	1.278826	-0.744727	0.580222
Zn3	Zn	1.132420	-0.541991	0.554929
Zn4	Zn	1.107069	-0.684797	0.701356
O5	O	1.192972	-0.625789	0.640802
O6	O	1.379506	-0.580656	0.728464
O7	O	1.280583	-0.747246	0.454283
O8	O	1.148533	-0.391676	0.577737
O9	O	1.398059	-0.737210	0.620845
O10	O	1.237542	-0.384072	0.703939
O11	O	1.173020	-0.598297	0.435701
O12	O	1.006474	-0.540185	0.553160
O13	O	1.105324	-0.635067	0.827301
O14	O	0.987848	-0.645104	0.660739
O15	O	1.212960	-0.522544	0.845923
O16	O	1.256001	-0.885719	0.596268
O17	O	1.129811	-0.841688	0.685265
C18	C	0.965376	-0.587265	0.601455
C19	C	0.868007	-0.570805	0.584643
C20	C	0.554906	-0.743437	0.760962
C21	C	0.646390	-0.758911	0.776755
C22	C	0.701798	-0.711886	0.728729
C23	C	0.665714	-0.649385	0.664906
C24	C	0.574222	-0.633917	0.649106
C25	C	0.721114	-0.602365	0.616873
C26	C	0.685030	-0.539864	0.553051
C27	C	0.593546	-0.524398	0.537254
C28	C	0.538138	-0.571424	0.585281
C29	C	0.812607	-0.617833	0.632673
C30	C	0.831923	-0.508312	0.520817
C31	C	0.740439	-0.492839	0.505024
C32	C	1.192916	-0.902322	0.640784
C33	C	1.192967	-1.020631	0.640819
C34	C	1.124334	-1.065983	0.689182
C35	C	1.116821	-1.152387	0.605566
C36	C	1.200558	-1.145036	0.724463
C37	C	1.185418	-1.105480	0.557153
C38	C	1.269184	-1.098115	0.676110
C39	C	1.261710	-1.184506	0.592444
C40	C	1.421456	-0.664463	0.680303
C41	C	1.518822	-0.680944	0.697136
C42	C	1.153497	-0.570966	0.869285
C43	C	1.136676	-0.547604	0.966651
C44	C	1.193048	-0.348175	0.640844
C45	C	1.193081	-0.229873	0.640862
C46	C	1.232343	-0.680330	0.413217
C47	C	1.249334	-0.703420	0.315881
C48	C	1.072769	-0.459075	1.002712
C49	C	1.056953	-0.437124	1.094190
C50	C	1.105047	-0.503696	1.149617
C51	C	1.168960	-0.592223	1.113557
C52	C	1.184772	-0.614181	1.022069
C53	C	1.217050	-0.658802	1.168975
C54	C	1.280963	-0.747329	1.132915
C55	C	1.296773	-0.769282	1.041436
C56	C	1.248679	-0.702710	0.986009
C57	C	1.201238	-0.636844	1.260462
C58	C	1.313241	-0.791950	1.279820
C59	C	1.329057	-0.813900	1.188342
H60	H	0.564171	-0.473519	0.485276
C61	C	0.801097	-0.728758	0.746038
C62	C	0.820836	-0.793533	0.812227
C63	C	0.912302	-0.809084	0.828209
H64	H	0.831653	-0.764161	0.693126
H65	H	0.819192	-0.659956	0.764911
H66	H	0.802750	-0.862322	0.793350
H67	H	0.790302	-0.758148	0.865151
H68	H	0.930398	-0.740282	0.847082
H69	H	0.942850	-0.844485	0.775293
H70	H	0.925706	-0.853026	0.873125
C71	C	0.891930	-0.457205	0.468547
C72	C	0.840753	-0.399192	0.409251
C73	C	0.896007	-0.352118	0.361079
H74	H	0.921851	-0.408802	0.508189
H75	H	0.934200	-0.513037	0.436435
H76	H	0.798499	-0.343366	0.441361
H77	H	0.810833	-0.447570	0.369591
H78	H	0.938277	-0.407950	0.328966
H79	H	0.925925	-0.303720	0.400727
H80	H	0.861293	-0.312759	0.320835
C81	C	1.208932	-1.168703	0.818815
C82	C	1.136859	-1.107858	0.869119
C83	C	1.144542	-1.129615	0.956042
H84	H	1.209423	-1.244338	0.818232
H85	H	1.262543	-1.149077	0.844247
H86	H	1.083263	-1.127490	0.843694
H87	H	1.136355	-1.032220	0.869728
H88	H	1.198153	-1.109989	0.981473
H89	H	1.145034	-1.205251	0.955450
H90	H	1.095647	-1.088328	0.990186
C91	C	1.030856	-1.184443	0.565939
C92	C	0.959165	-1.123615	0.616813
C93	C	0.879959	-1.153119	0.580349
H94	H	1.024908	-1.170091	0.506875
H95	H	1.031701	-1.260077	0.565774
H96	H	0.958319	-1.047999	0.616969
H97	H	0.965083	-1.137958	0.675877
H98	H	0.880805	-1.228752	0.580184
H99	H	0.874021	-1.138765	0.521285
H100	H	0.831308	-1.111859	0.614865
H101	H	1.092166	-0.485818	1.224102
C102	C	1.176773	-1.081570	0.462878
C103	C	1.176752	-0.970182	0.463961
C104	C	1.168773	-0.948111	0.377136
H105	H	1.225289	-1.123187	0.428379
H106	H	1.122843	-1.100524	0.437749
H107	H	1.230675	-0.951239	0.489078
H108	H	1.128238	-0.928541	0.498442
H109	H	1.114844	-0.967065	0.352007
H110	H	1.217291	-0.989734	0.342644
H111	H	1.168750	-0.872532	0.377860
H112	H	1.261556	-0.720574	0.911519
H113	H	1.381095	-0.885980	1.158969
H114	H	0.711046	-0.441950	0.453059
C115	C	0.494679	-0.794273	0.813196
C116	C	0.432473	-0.711739	0.860370
C117	C	0.376983	-0.758530	0.908510
H118	H	0.464690	-0.842587	0.773542
H119	H	0.529227	-0.833674	0.853522
H120	H	0.397930	-0.672357	0.820050
H121	H	0.462437	-0.663420	0.900040
H122	H	0.411531	-0.797930	0.948835
H123	H	0.347000	-0.806842	0.868849
H124	H	0.334775	-0.702537	0.940530
C125	C	0.438792	-0.554420	0.568226
C126	C	0.404636	-0.442624	0.585510
C127	C	0.313119	-0.426930	0.569825
H128	H	0.427733	-0.582700	0.508108
H129	H	0.410936	-0.591319	0.605997
H130	H	0.432482	-0.405739	0.547739
H131	H	0.415670	-0.414320	0.645624
H132	H	0.285263	-0.463829	0.607596
H133	H	0.302070	-0.455215	0.509707
H134	H	0.289931	-0.351077	0.581557
C135	C	1.131858	-0.540817	1.299771
C136	C	1.128282	-0.535848	1.391747
C137	C	1.064368	-0.447405	1.427985
H138	H	1.147215	-0.474995	1.287099
H139	H	1.075562	-0.550029	1.274641
H140	H	1.184565	-0.526627	1.416869
H141	H	1.112914	-0.601648	1.404444
H142	H	1.008072	-0.456617	1.402855
H143	H	1.079731	-0.381590	1.415307
H144	H	1.061927	-0.444028	1.490393
C145	C	1.355065	-1.066107	0.715987
C146	C	1.408266	-1.157535	0.741584
C147	C	1.487380	-1.128083	0.778343
H148	H	1.385678	-1.039638	0.673207
H149	H	1.342028	-1.010588	0.766354
H150	H	1.421305	-1.213036	0.691223
H151	H	1.377681	-1.184017	0.784373
H152	H	1.474342	-1.072564	0.828710
H153	H	1.517984	-1.101613	0.735558
H154	H	1.523482	-1.190109	0.795723
C155	C	1.365525	-0.864394	1.339837
C156	C	1.424859	-0.946643	1.288674
C157	C	1.473023	-1.013402	1.343934
H158	H	1.397614	-0.821706	1.382147
H159	H	1.325855	-0.896593	1.369708
H160	H	1.464524	-0.914445	1.258818
H161	H	1.392794	-0.989356	1.246367
H162	H	1.433352	-1.045602	1.373805
H163	H	1.505106	-0.970706	1.386242
H164	H	1.513280	-1.069222	1.309228
C165	C	1.020400	-0.386909	0.942553
C166	C	0.929880	-0.390100	0.949795
C167	C	0.881606	-0.323644	0.894379
H168	H	1.030536	-0.313917	0.959704
H169	H	1.038914	-0.412674	0.882887
H170	H	0.911372	-0.364331	1.009448
H171	H	0.919717	-0.463076	0.932637
H172	H	0.900120	-0.349409	0.834713
H173	H	0.891749	-0.250657	0.911535
H174	H	0.820184	-0.325808	0.899279
H175	H	1.066218	-1.014731	0.729994
C176	C	1.339087	-1.252578	0.537704
C177	C	1.330765	-1.232778	0.450254
C178	C	1.402017	-1.295480	0.399797
H179	H	1.393156	-1.233277	0.562133
H180	H	1.338986	-1.327854	0.538355
H181	H	1.330875	-1.157518	0.449607
H182	H	1.276711	-1.252085	0.425799
H183	H	1.401916	-1.370756	0.400449
H184	H	1.456081	-1.276173	0.424235
H185	H	1.396376	-1.282061	0.340456
H186	H	1.004912	-0.365049	1.123542
C187	C	1.366091	-0.865536	1.002388
C188	C	1.343154	-0.962272	1.021349
C189	C	1.406995	-1.050960	0.985406
H190	H	1.368680	-0.869238	0.939963
H191	H	1.422371	-0.856383	1.027585
H192	H	1.286889	-0.971424	0.996149
H193	H	1.340572	-0.958606	1.083767
H194	H	1.463275	-1.041807	1.010603
H195	H	1.409579	-1.054652	0.922983
H196	H	1.391445	-1.116605	0.998273
H197	H	0.675763	-0.809802	0.828718
H198	H	0.841977	-0.668721	0.684639
