data_functionalizedCrystal
_audit_creation_method	'MofGen! by Chris Wilmer'
_symmetry_space_group_name_H-M	'P1'
_symmetry_Int_Tables_number	1
_symmetry_cell_setting	triclinic
loop_
_symmetry_equiv_pos_as_xyz
  x,y,z
_cell_length_a	21.395363
_cell_length_b	21.395361
_cell_length_c	21.395355
_cell_angle_alpha	90.021511
_cell_angle_beta	89.979718
_cell_angle_gamma	89.949529
loop_
_atom_site_label
_atom_site_type_symbol
_atom_site_fract_x
_atom_site_fract_y
_atom_site_fract_z
Zn1	Zn	0.957859	0.249181	-0.354177
Zn2	Zn	1.291193	0.582514	-0.020844
Zn3	Zn	1.624526	0.915847	0.312490
Zn4	Zn	0.957762	0.353941	-0.249394
Zn5	Zn	1.291095	0.687274	0.083939
Zn6	Zn	1.624428	1.020607	0.417273
Zn7	Zn	0.853074	0.249217	-0.249422
Zn8	Zn	1.186408	0.582550	0.083912
Zn9	Zn	1.519741	0.915884	0.417245
Zn10	Zn	0.853043	0.353961	-0.354142
Zn11	Zn	1.186377	0.687294	-0.020809
Zn12	Zn	1.519710	1.020627	0.312525
O13	O	0.905435	0.301575	-0.301784
O14	O	1.238768	0.634908	0.031550
O15	O	1.572101	0.968241	0.364883
O16	O	1.045524	0.263054	-0.340281
O17	O	1.378858	0.596387	-0.006947
O18	O	1.712191	0.929720	0.326386
O19	O	0.943847	0.340056	-0.161720
O20	O	1.277180	0.673389	0.171613
O21	O	1.610513	1.006722	0.504947
O22	O	0.867028	0.161534	-0.263344
O23	O	1.200361	0.494868	0.069990
O24	O	1.533695	0.828201	0.403323
O25	O	1.045453	0.340020	-0.263297
O26	O	1.378786	0.673354	0.070036
O27	O	1.712119	1.006687	0.403370
O28	O	0.944013	0.161508	-0.340307
O29	O	1.277346	0.494841	-0.006974
O30	O	1.610680	0.828174	0.326359
O31	O	0.866933	0.263116	-0.161740
O32	O	1.200267	0.596449	0.171593
O33	O	1.533600	0.929782	0.504927
O34	O	0.765392	0.263135	-0.263310
O35	O	1.098726	0.596468	0.070023
O36	O	1.432059	0.929802	0.403357
O37	O	0.866975	0.340054	-0.441825
O38	O	1.200309	0.673388	-0.108491
O39	O	1.533642	1.006721	0.224842
O40	O	0.765370	0.340090	-0.340248
O41	O	1.098703	0.673423	-0.006914
O42	O	1.432036	1.006756	0.326419
O43	O	0.943983	0.263073	-0.441850
O44	O	1.277316	0.596407	-0.108517
O45	O	1.610650	0.929740	0.224816
O46	O	0.943817	0.441621	-0.263263
O47	O	1.277150	0.774955	0.070070
O48	O	1.610484	1.108288	0.403404
O49	O	0.866881	0.441636	-0.340221
O50	O	1.200214	0.774969	-0.006888
O51	O	1.533547	1.108303	0.326446
C52	C	0.742647	0.301619	-0.301778
C53	C	1.075980	0.634952	0.031555
C54	C	1.409314	0.968286	0.364888
C55	C	0.673006	0.301653	-0.301791
C56	C	1.006339	0.634986	0.031543
C57	C	1.339672	0.968320	0.364876
C58	C	0.905352	0.464362	-0.301749
C59	C	1.238685	0.797696	0.031584
C60	C	1.572019	1.131029	0.364918
C61	C	0.905374	0.534004	-0.301755
C62	C	1.238707	0.867337	0.031578
C63	C	1.572041	1.200670	0.364912
C64	C	0.905487	0.301562	-0.465207
C65	C	1.238820	0.634895	-0.131874
C66	C	1.572153	0.968229	0.201460
C67	C	0.905509	0.301557	-0.534848
C68	C	1.238842	0.634890	-0.201515
C69	C	1.572176	0.968223	0.131818
C70	C	1.068858	0.301531	-0.301790
C71	C	1.402191	0.634864	0.031544
C72	C	1.735525	0.968198	0.364877
C73	C	1.138499	0.301512	-0.301792
C74	C	1.471833	0.634846	0.031541
C75	C	1.805166	0.968179	0.364875
C76	C	1.171181	0.341581	-0.341851
C77	C	1.504514	0.674915	-0.008518
C78	C	1.837847	1.008248	0.324815
C79	C	1.236616	0.341603	-0.341849
C80	C	1.569949	0.674936	-0.008516
C81	C	1.903283	1.008270	0.324818
C82	C	1.269368	0.301544	-0.301794
C83	C	1.602701	0.634877	0.031539
C84	C	1.936034	0.968211	0.364872
C85	C	1.236678	0.261472	-0.261728
C86	C	1.570012	0.594805	0.071606
C87	C	1.903345	0.928138	0.404939
C88	C	1.171244	0.261456	-0.261726
C89	C	1.504578	0.594789	0.071607
C90	C	1.837911	0.928123	0.404940
C91	C	1.373097	0.245120	-0.296868
C92	C	1.706430	0.578453	0.036466
C93	C	2.039763	0.911786	0.369799
C94	C	1.438529	0.245135	-0.296873
C95	C	1.771863	0.578468	0.036460
C96	C	2.105196	0.911801	0.369793
C97	C	1.471188	0.301593	-0.301794
C98	C	1.804522	0.634926	0.031539
C99	C	2.137855	0.968260	0.364872
C100	C	1.438406	0.358039	-0.306723
C101	C	1.771739	0.691372	0.026611
C102	C	2.105073	1.024705	0.359944
C103	C	1.372972	0.358023	-0.306722
C104	C	1.706305	0.691356	0.026612
C105	C	2.039639	1.024689	0.359945
C106	C	1.340320	0.301557	-0.301791
C107	C	1.673653	0.634890	0.031542
C108	C	2.006987	0.968224	0.364876
C109	C	1.574822	0.341689	-0.341853
C110	C	1.908155	0.675022	-0.008520
C111	C	2.241489	1.008356	0.324814
C112	C	1.640259	0.341711	-0.341847
C113	C	1.973592	0.675045	-0.008513
C114	C	2.306925	1.008378	0.324820
C115	C	1.640320	0.261575	-0.261728
C116	C	1.973653	0.594908	0.071605
C117	C	2.306986	0.928242	0.404938
C118	C	1.574884	0.261558	-0.261732
C119	C	1.908218	0.594891	0.071602
C120	C	2.241551	0.928225	0.404935
C121	C	1.542140	0.301614	-0.301797
C122	C	1.875473	0.634948	0.031536
C123	C	2.208806	0.968281	0.364869
C124	C	0.905535	0.138151	-0.301832
C125	C	1.238868	0.471485	0.031501
C126	C	1.572201	0.804818	0.364834
C127	C	0.905577	0.068510	-0.301853
C128	C	1.238911	0.401843	0.031480
C129	C	1.572244	0.735177	0.364813
C130	C	0.945470	0.566688	-0.261724
C131	C	1.278803	0.900022	0.071609
C132	C	1.612137	1.233355	0.404943
C133	C	0.945499	0.632124	-0.261738
C134	C	1.278832	0.965457	0.071595
C135	C	1.612166	1.298790	0.404929
C136	C	0.905421	0.664872	-0.301776
C137	C	1.238754	0.998205	0.031557
C138	C	1.572088	1.331539	0.364890
C139	C	0.865322	0.632179	-0.341815
C140	C	1.198655	0.965513	-0.008482
C141	C	1.531989	1.298846	0.324852
C142	C	0.865298	0.566745	-0.341804
C143	C	1.198632	0.900079	-0.008471
C144	C	1.531965	1.233412	0.324862
C145	C	0.849006	0.768607	-0.306691
C146	C	1.182340	1.101940	0.026643
C147	C	1.515673	1.435273	0.359976
C148	C	0.849029	0.834039	-0.306697
C149	C	1.182362	1.167373	0.026636
C150	C	1.515695	1.500706	0.359970
C151	C	0.905494	0.866693	-0.301813
C152	C	1.238827	1.200026	0.031520
C153	C	1.572161	1.533359	0.364854
C154	C	0.961938	0.833905	-0.296910
C155	C	1.295272	1.167238	0.036423
C156	C	1.628605	1.500571	0.369757
C157	C	0.961915	0.768471	-0.296899
C158	C	1.295248	1.101804	0.036434
C159	C	1.628582	1.435137	0.369767
C160	C	0.905442	0.735824	-0.301793
C161	C	1.238776	1.069158	0.031541
C162	C	1.572109	1.402491	0.364874
C163	C	0.945625	0.970330	-0.261795
C164	C	1.278958	1.303663	0.071538
C165	C	1.612292	1.636996	0.404871
C166	C	0.945655	1.035766	-0.261814
C167	C	1.278989	1.369100	0.071520
C168	C	1.612322	1.702433	0.404853
C169	C	0.865473	1.035821	-0.341887
C170	C	1.198806	1.369154	-0.008554
C171	C	1.532139	1.702487	0.324779
C172	C	0.865448	0.970385	-0.341872
C173	C	1.198781	1.303719	-0.008539
C174	C	1.532115	1.637052	0.324794
C175	C	0.905523	0.937644	-0.301823
C176	C	1.238857	1.270977	0.031510
C177	C	1.572190	1.604311	0.364844
C178	C	0.945605	0.261471	-0.567576
C179	C	1.278938	0.594804	-0.234243
C180	C	1.612272	0.928137	0.099091
C181	C	0.945604	0.261444	-0.633011
C182	C	1.278938	0.594777	-0.299678
C183	C	1.612271	0.928110	0.033655
C184	C	0.905514	0.301514	-0.665717
C185	C	1.238847	0.634847	-0.332383
C186	C	1.572180	0.968181	0.000950
C187	C	0.865410	0.341603	-0.632981
C188	C	1.198743	0.674936	-0.299648
C189	C	1.532076	1.008269	0.033685
C190	C	0.865407	0.341624	-0.567547
C191	C	1.198741	0.674957	-0.234214
C192	C	1.532074	1.008291	0.099120
C193	C	0.900538	0.357931	-0.769380
C194	C	1.233871	0.691264	-0.436046
C195	C	1.567204	1.024598	-0.102713
C196	C	0.900545	0.357911	-0.834813
C197	C	1.233878	0.691244	-0.501479
C198	C	1.567211	1.024577	-0.168146
C199	C	0.905518	0.301448	-0.867538
C200	C	1.238851	0.634781	-0.534204
C201	C	1.572184	0.968114	-0.200871
C202	C	0.910497	0.245003	-0.834821
C203	C	1.243830	0.578337	-0.501488
C204	C	1.577164	0.911670	-0.168155
C205	C	0.910494	0.245025	-0.769387
C206	C	1.243828	0.578358	-0.436054
C207	C	1.577161	0.911691	-0.102721
C208	C	0.905512	0.301495	-0.736669
C209	C	1.238845	0.634828	-0.403336
C210	C	1.572178	0.968162	-0.070002
C211	C	0.945615	0.261329	-0.971218
C212	C	1.278948	0.594663	-0.637884
C213	C	1.612282	0.927996	-0.304551
C214	C	0.945610	0.261301	-1.036654
C215	C	1.278943	0.594635	-0.703321
C216	C	1.612276	0.927968	-0.369988
C217	C	0.865419	0.341466	-1.036623
C218	C	1.198752	0.674799	-0.703290
C219	C	1.532085	1.008132	-0.369956
C220	C	0.865421	0.341488	-0.971188
C221	C	1.198754	0.674821	-0.637854
C222	C	1.532087	1.008155	-0.304521
C223	C	0.905522	0.301421	-0.938489
C224	C	1.238855	0.634754	-0.605156
C225	C	1.572189	0.968087	-0.271822
C226	C	0.905419	0.301542	-0.138996
C227	C	1.238752	0.634875	0.194337
C228	C	1.572086	0.968209	0.527670
C229	C	0.905518	0.301371	-0.069355
C230	C	1.238852	0.634704	0.263978
C231	C	1.572185	0.968038	0.597311
H232	H	1.144524	0.374201	-0.374474
H233	H	1.477857	0.707534	-0.041140
H234	H	1.811190	1.040867	0.292193
N235	N	1.271995	0.218258	-0.218529
N236	N	1.605329	0.551591	0.114804
N237	N	1.938662	0.884925	0.448138
H238	H	1.260584	0.227989	-0.173758
H239	H	1.593917	0.561323	0.159575
H240	H	1.927251	0.894656	0.492908
H241	H	1.318396	0.224363	-0.224662
H242	H	1.651730	0.557696	0.108672
H243	H	1.985063	0.891030	0.442005
N244	N	0.822190	0.935130	-0.385040
N245	N	1.155523	1.268463	-0.051706
N246	N	1.488857	1.601797	0.281627
H247	H	0.828256	0.888709	-0.378957
H248	H	1.161589	1.222042	-0.045624
H249	H	1.494922	1.555376	0.287709
H250	H	0.831922	0.946530	-0.429798
H251	H	1.165255	1.279863	-0.096465
H252	H	1.498588	1.613197	0.236868
H253	H	1.666986	0.228960	-0.229113
H254	H	2.000319	0.562294	0.104220
H255	H	2.333652	0.895627	0.437554
N256	N	1.539505	0.384900	-0.385059
N257	N	1.872839	0.718233	-0.051726
N258	N	2.206172	1.051566	0.281608
H259	H	1.512313	0.413928	-0.359587
H260	H	1.845647	0.747262	-0.026254
H261	H	2.178980	1.080595	0.307079
H262	H	1.512433	0.359386	-0.414098
H263	H	1.845767	0.692720	-0.080764
H264	H	2.179100	1.026053	0.252569
N265	N	1.337615	0.418899	-0.312023
N266	N	1.670948	0.752233	0.021310
N267	N	2.004282	1.085566	0.354643
H268	H	1.291208	0.410320	-0.311274
H269	H	1.624542	0.743653	0.022059
H270	H	1.957875	1.076986	0.355393
H271	H	1.349038	0.440196	-0.352563
H272	H	1.682371	0.773529	-0.019230
H273	H	2.015705	1.106863	0.314103
H274	H	0.832647	0.540133	-0.374403
H275	H	1.165980	0.873466	-0.041070
H276	H	1.499314	1.206799	0.292264
N277	N	0.988863	0.218066	-1.071955
N278	N	1.322197	0.551400	-0.738621
N279	N	1.655530	0.884733	-0.405288
H280	H	0.982779	0.224130	-1.118369
H281	H	1.316112	0.557463	-0.785036
H282	H	1.649446	0.890796	-0.451702
H283	H	0.979145	0.173324	-1.060514
H284	H	1.312478	0.506657	-0.727181
H285	H	1.645811	0.839991	-0.393848
N286	N	1.675504	0.384933	-0.385059
N287	N	2.008838	0.718266	-0.051726
N288	N	2.342171	1.051600	0.281608
H289	H	1.702694	0.359473	-0.414099
H290	H	2.036027	0.692807	-0.080765
H291	H	2.369361	1.026140	0.252568
H292	H	1.702573	0.413975	-0.359548
H293	H	2.035907	0.747308	-0.026214
H294	H	2.369240	1.080641	0.307119
N295	N	1.473883	0.184257	-0.291555
N296	N	1.807216	0.517591	0.041779
N297	N	2.140549	0.850924	0.375112
H298	H	1.520290	0.192833	-0.292306
H299	H	1.853623	0.526166	0.041027
H300	H	2.186957	0.859499	0.374361
H301	H	1.462487	0.156237	-0.327792
H302	H	1.795820	0.489570	0.005541
H303	H	2.129153	0.822903	0.338874
H304	H	0.832770	0.374085	-1.063251
H305	H	1.166103	0.707418	-0.729918
H306	H	1.499436	1.040752	-0.396585
H307	H	0.914547	0.199066	-0.742752
H308	H	1.247880	0.532399	-0.409419
H309	H	1.581214	0.865732	-0.076086
N310	N	1.539630	0.218338	-0.218527
N311	N	1.872964	0.551672	0.114807
N312	N	2.206297	0.885005	0.448140
H313	H	1.570305	0.192964	-0.193151
H314	H	1.903639	0.526297	0.140182
H315	H	2.236972	0.859630	0.473516
H316	H	1.512522	0.189334	-0.244039
H317	H	1.845855	0.522668	0.089295
H318	H	2.179189	0.856001	0.422628
N319	N	1.337874	0.184222	-0.291557
N320	N	1.671208	0.517555	0.041777
N321	N	2.004541	0.850889	0.375110
H322	H	1.368569	0.148468	-0.288440
H323	H	1.701902	0.481801	0.044893
H324	H	2.035236	0.815134	0.378226
H325	H	1.310745	0.178395	-0.329733
H326	H	1.644078	0.511729	0.003600
H327	H	1.977412	0.845062	0.336933
N328	N	0.822240	1.071135	-0.385067
N329	N	1.155573	1.404468	-0.051733
N330	N	1.488906	1.737801	0.281600
H331	H	0.796831	1.040497	-0.410423
H332	H	1.130165	1.373830	-0.077089
H333	H	1.463498	1.707163	0.256244
H334	H	0.847737	1.098237	-0.414090
H335	H	1.181070	1.431570	-0.080757
H336	H	1.514403	1.764904	0.252577
H337	H	0.832774	0.374134	-0.944541
H338	H	1.166107	0.707467	-0.611207
H339	H	1.499440	1.040801	-0.277874
N340	N	0.895177	0.418785	-0.870099
N341	N	1.228510	0.752118	-0.536765
N342	N	1.561843	1.085452	-0.203432
H343	H	0.931384	0.446822	-0.858718
H344	H	1.264718	0.780155	-0.525385
H345	H	1.598051	1.113489	-0.192052
H346	H	0.854590	0.440064	-0.858685
H347	H	1.187923	0.773397	-0.525352
H348	H	1.521257	1.106730	-0.192018
N349	N	0.822094	0.667502	-0.384995
N350	N	1.155427	1.000835	-0.051661
N351	N	1.488760	1.334168	0.281672
H352	H	0.777328	0.656173	-0.375224
H353	H	1.110661	0.989506	-0.041891
H354	H	1.443995	1.322839	0.291443
H355	H	0.831851	0.656068	-0.429752
H356	H	1.165185	0.989401	-0.096419
H357	H	1.498518	1.322735	0.236915
H358	H	0.803068	0.860730	-0.310683
H359	H	1.136401	1.194064	0.022650
H360	H	1.469735	1.527397	0.355984
H361	H	0.978152	0.658741	-0.229140
H362	H	1.311486	0.992074	0.104193
H363	H	1.644819	1.325407	0.437527
N364	N	0.988854	0.218256	-0.532308
N365	N	1.322187	0.551589	-0.198975
N366	N	1.655521	0.884923	0.134359
H367	H	1.014255	0.192857	-0.562974
H368	H	1.347588	0.526190	-0.229641
H369	H	1.680921	0.859524	0.103693
H370	H	0.963368	0.189275	-0.505153
H371	H	1.296701	0.522608	-0.171820
H372	H	1.630035	0.855941	0.161514
H373	H	0.978254	0.228798	-0.659663
H374	H	1.311587	0.562131	-0.326330
H375	H	1.644921	0.895464	0.007003
H376	H	0.832753	0.374266	-0.540901
H377	H	1.166087	0.707599	-0.207567
H378	H	1.499420	1.040932	0.125766
H379	H	0.914547	0.199026	-0.861465
H380	H	1.247881	0.532359	-0.528131
H381	H	1.581214	0.865692	-0.194798
N382	N	0.895182	0.418835	-0.734086
N383	N	1.228516	0.752168	-0.400753
N384	N	1.561849	1.085501	-0.067420
H385	H	0.892038	0.454588	-0.764739
H386	H	1.225371	0.787921	-0.431406
H387	H	1.558704	1.121254	-0.098072
H388	H	0.933358	0.424642	-0.706954
H389	H	1.266691	0.757976	-0.373621
H390	H	1.600024	1.091309	-0.040287
N391	N	0.988863	0.218115	-0.935944
N392	N	1.322196	0.551448	-0.602610
N393	N	1.655529	0.884782	-0.269277
H394	H	1.014261	0.192712	-0.966609
H395	H	1.347594	0.526045	-0.633275
H396	H	1.680927	0.859379	-0.299942
H397	H	0.963376	0.189137	-0.908785
H398	H	1.296709	0.522470	-0.575452
H399	H	1.630043	0.855804	-0.242118
H400	H	1.007873	0.741776	-0.292909
H401	H	1.341206	1.075110	0.040425
H402	H	1.674540	1.408443	0.373758
N403	N	1.135990	0.218238	-0.218517
N404	N	1.469324	0.551571	0.114816
N405	N	1.802657	0.884904	0.448149
H406	H	1.166665	0.192864	-0.193139
H407	H	1.499998	0.526197	0.140194
H408	H	1.833331	0.859531	0.473527
H409	H	1.108884	0.189232	-0.244030
H410	H	1.442217	0.522566	0.089303
H411	H	1.775551	0.855899	0.422637
H412	H	0.832766	0.374226	-0.659614
H413	H	1.166099	0.707559	-0.326281
H414	H	1.499432	1.040893	0.007052
H415	H	0.978259	0.943671	-0.229186
H416	H	1.311592	1.277004	0.104147
H417	H	1.644926	1.610337	0.437480
N418	N	1.271876	0.384822	-0.385056
N419	N	1.605209	0.718156	-0.051723
N420	N	1.938543	1.051489	0.281610
H421	H	1.241203	0.410196	-0.410436
H422	H	1.574536	0.743529	-0.077103
H423	H	1.907870	1.076862	0.256230
H424	H	1.299062	0.359317	-0.414056
H425	H	1.632396	0.692651	-0.080723
H426	H	1.965729	1.025984	0.252611
N427	N	0.988701	0.531374	-0.218539
N428	N	1.322035	0.864708	0.114794
N429	N	1.655368	1.198041	0.448128
H430	H	1.014110	0.562013	-0.193184
H431	H	1.347443	0.895347	0.140149
H432	H	1.680776	1.228680	0.473482
H433	H	1.017673	0.504181	-0.244070
H434	H	1.351006	0.837514	0.089263
H435	H	1.684340	1.170847	0.422596
H436	H	1.464995	0.404012	-0.310734
H437	H	1.798329	0.737345	0.022599
H438	H	2.131662	1.070679	0.355932
H439	H	1.007918	0.860489	-0.292933
H440	H	1.341251	1.193823	0.040400
H441	H	1.674584	1.527156	0.373733
H442	H	0.803022	0.742027	-0.310670
H443	H	1.136355	1.075360	0.022663
H444	H	1.469689	1.408693	0.355997
N445	N	0.988907	1.071023	-0.218639
N446	N	1.322241	1.404356	0.114695
N447	N	1.655574	1.737689	0.448028
H448	H	1.014288	1.040349	-0.193267
H449	H	1.347622	1.373683	0.140066
H450	H	1.680955	1.707016	0.473400
H451	H	0.963425	1.098221	-0.189630
H452	H	1.296759	1.431555	0.143703
H453	H	1.630092	1.764888	0.477037
