data_functionalizedCrystal
_audit_creation_method	'MofGen! by Chris Wilmer'
_symmetry_space_group_name_H-M	'P1'
_symmetry_Int_Tables_number	1
_symmetry_cell_setting	triclinic
loop_
_symmetry_equiv_pos_as_xyz
  x,y,z
_cell_length_a	6.817900
_cell_length_b	10.773890
_cell_length_c	14.858572
_cell_angle_alpha	96.150028
_cell_angle_beta	104.524003
_cell_angle_gamma	96.645716
loop_
_atom_site_label
_atom_site_type_symbol
_atom_site_fract_x
_atom_site_fract_y
_atom_site_fract_z
V1	V	-4.003650	-0.173375	-0.288438
V2	V	-3.753650	0.076625	-0.038438
V3	V	-3.503650	0.326625	0.211562
V4	V	-3.253650	0.576625	0.461562
O5	O	-4.027117	0.007524	-0.284507
O6	O	-3.777117	0.257524	-0.034507
O7	O	-3.527117	0.507524	0.215493
O8	O	-3.277117	0.757524	0.465493
O9	O	-3.921170	-0.342997	-0.284966
O10	O	-3.671170	-0.092997	-0.034966
O11	O	-3.421170	0.157003	0.215034
O12	O	-3.171170	0.407003	0.465034
O13	O	-3.960753	-0.171063	-0.414920
O14	O	-3.710753	0.078937	-0.164920
O15	O	-3.460753	0.328937	0.085080
O16	O	-3.210753	0.578937	0.335080
O17	O	-3.987260	-0.165601	-0.153653
O18	O	-3.737260	0.084399	0.096347
O19	O	-3.487260	0.334399	0.346347
O20	O	-3.237260	0.584399	0.596347
V21	V	-4.490981	-0.151696	-0.272499
V22	V	-4.240981	0.098304	-0.022499
V23	V	-3.990981	0.348304	0.227501
V24	V	-3.740981	0.598304	0.477501
O25	O	-4.256556	-0.220931	-0.323403
O26	O	-4.006556	0.029069	-0.073403
O27	O	-3.756556	0.279069	0.176597
O28	O	-3.506556	0.529069	0.426597
O29	O	-4.688273	-0.104140	-0.237535
O30	O	-4.438273	0.145860	0.012465
O31	O	-4.188273	0.395860	0.262465
O32	O	-3.938273	0.645860	0.512465
O33	O	-4.350255	0.017926	-0.275971
O34	O	-4.100255	0.267926	-0.025971
O35	O	-3.850255	0.517926	0.224029
O36	O	-3.600255	0.767926	0.474029
O37	O	-4.584911	-0.332595	-0.276431
O38	O	-4.334911	-0.082595	-0.026431
O39	O	-4.084911	0.167405	0.223569
O40	O	-3.834911	0.417405	0.473569
O41	O	-4.624768	-0.159470	-0.407284
O42	O	-4.374768	0.090530	-0.157284
O43	O	-4.124768	0.340530	0.092716
O44	O	-3.874768	0.590530	0.342716
O45	O	-4.310672	-0.154008	-0.146017
O46	O	-4.060672	0.095992	0.103983
O47	O	-3.810672	0.345992	0.353983
O48	O	-3.560672	0.595992	0.603983
C49	C	-3.757702	-0.384337	-0.280029
C50	C	-3.507702	-0.134337	-0.030029
C51	C	-3.257702	0.115663	0.219971
C52	C	-3.007702	0.365663	0.469971
C53	C	-3.771588	-0.523007	-0.278034
C54	C	-3.521588	-0.273007	-0.028034
C55	C	-3.271588	-0.023007	0.221966
C56	C	-3.021588	0.226993	0.471966
C57	C	-3.808193	-0.165016	-0.445797
C58	C	-3.558193	0.084984	-0.195797
C59	C	-3.308193	0.334984	0.054203
C60	C	-3.058193	0.584984	0.304203
C61	C	-3.854177	-0.164247	-0.549187
C62	C	-3.604177	0.085753	-0.299187
C63	C	-3.354177	0.335753	-0.049187
C64	C	-3.104177	0.585753	0.200813
C65	C	-3.949814	-0.590879	-0.281501
C66	C	-3.699814	-0.340879	-0.031501
C67	C	-3.449814	-0.090879	0.218499
C68	C	-3.199814	0.159121	0.468499
C69	C	-3.964170	-0.734203	-0.279439
C70	C	-3.714170	-0.484203	-0.029439
C71	C	-3.464170	-0.234203	0.220561
C72	C	-3.214170	0.015797	0.470561
C73	C	-4.022481	-0.161439	-0.927780
C74	C	-3.772481	0.088561	-0.677780
C75	C	-3.522481	0.338561	-0.427780
C76	C	-3.272481	0.588561	-0.177780
C77	C	-3.975645	-0.162221	-0.822444
C78	C	-3.725645	0.087779	-0.572444
C79	C	-3.475645	0.337779	-0.322444
C80	C	-3.225645	0.587779	-0.072444
C81	C	-3.938330	-0.162845	-0.738487
C82	C	-3.688330	0.087155	-0.488487
C83	C	-3.438330	0.337155	-0.238487
C84	C	-3.188330	0.587155	0.011513
C85	C	-3.891492	-0.163624	-0.633144
C86	C	-3.641492	0.086376	-0.383144
C87	C	-3.391492	0.336376	-0.133144
C88	C	-3.141492	0.586376	0.116856
C89	C	-4.177064	0.059259	-0.280906
C90	C	-3.927064	0.309259	-0.030906
C91	C	-3.677064	0.559259	0.219094
C92	C	-3.427064	0.809259	0.469094
C93	C	-4.142416	0.197928	-0.282907
C94	C	-3.892416	0.447928	-0.032907
C95	C	-3.642416	0.697928	0.217093
C96	C	-3.392416	0.947928	0.467093
C97	C	-4.126573	-0.160060	-0.115135
C98	C	-3.876573	0.089940	0.134865
C99	C	-3.626573	0.339940	0.384865
C100	C	-3.376573	0.589940	0.634865
C101	C	-4.059828	-0.160822	-0.011745
C102	C	-3.809828	0.089178	0.238255
C103	C	-3.559828	0.339178	0.488255
C104	C	-3.309828	0.589178	0.738255
H105	H	-4.091774	-0.542882	-0.286002
H106	H	-3.841774	-0.292882	-0.036002
H107	H	-3.591774	-0.042882	0.213998
H108	H	-3.341774	0.207118	0.463998
H109	H	-3.822202	-0.782197	-0.274948
H110	H	-3.572202	-0.532197	-0.024948
H111	H	-3.322202	-0.282197	0.225052
H112	H	-3.072202	-0.032197	0.475052
H113	H	-3.629633	-0.571007	-0.273543
H114	H	-3.379633	-0.321007	-0.023543
H115	H	-3.129633	-0.071007	0.226457
H116	H	-2.879633	0.178993	0.476457
H117	H	-4.284390	-0.754082	-0.287407
H118	H	-4.034390	-0.504082	-0.037407
H119	H	-3.784390	-0.254082	0.212593
H120	H	-3.534390	-0.004082	0.462593
