data_functionalizedCrystal
_audit_creation_method	'MofGen! by Chris Wilmer'
_symmetry_space_group_name_H-M	'P1'
_symmetry_Int_Tables_number	1
_symmetry_cell_setting	triclinic
loop_
_symmetry_equiv_pos_as_xyz
  x,y,z
_cell_length_a	10.489711
_cell_length_b	10.489741
_cell_length_c	8.965430
_cell_angle_alpha	90.007587
_cell_angle_beta	90.004707
_cell_angle_gamma	84.533091
loop_
_atom_site_label
_atom_site_type_symbol
_atom_site_fract_x
_atom_site_fract_y
_atom_site_fract_z
O1	O	1.694073	0.179793	0.124092
O2	O	1.322872	0.196726	0.124084
O3	O	1.516919	0.002661	0.124079
O4	O	1.500026	0.373858	0.124097
O5	O	1.516908	0.002642	-0.124000
O6	O	1.322861	0.196707	-0.123995
O7	O	1.694062	0.179775	-0.123986
Cu8	Cu	1.508461	0.188240	-0.146642
Cu9	Cu	1.508473	0.188261	0.146740
O10	O	1.500015	0.373840	-0.123982
C11	C	1.275334	0.195446	0.000043
C12	C	1.133703	0.191644	0.000039
C13	C	0.951317	0.308348	0.000062
C14	C	1.043468	0.250062	0.122373
C15	C	1.043430	0.250012	-0.122214
C16	C	0.973516	0.126519	0.122483
C17	C	0.973469	0.126487	-0.122213
C18	C	1.065593	0.068111	0.000127
C19	C	1.515638	-0.044880	0.000041
C20	C	1.511820	-0.186509	0.000043
C21	C	1.388354	-0.254636	0.000051
C22	C	1.446673	-0.346774	-0.122263
C23	C	1.446713	-0.346730	0.122323
C24	C	1.570190	-0.276781	-0.122372
C25	C	1.570213	-0.276728	0.122324
C26	C	1.628622	-0.368839	-0.000020
C27	C	1.741600	0.181055	0.000058
C28	C	1.883231	0.184857	0.000071
C29	C	1.501296	0.421381	0.000060
C30	C	1.505114	0.563010	0.000067
N31	N	1.508461	0.188224	-0.352992
C32	C	1.597498	0.097768	-0.549664
C33	C	1.624332	0.212912	-0.450180
C34	C	1.481684	0.073088	-0.450267
C35	C	1.535375	0.303470	-0.549617
C36	C	1.392676	0.163571	-0.549712
C37	C	1.419462	0.278799	-0.450274
N38	N	1.508483	0.188267	0.353089
H39	H	0.942442	0.074270	-0.225629
H40	H	1.459025	-0.024298	-0.406624
N41	N	1.639299	-0.235948	-0.259510
H42	H	1.592998	-0.262017	-0.351775
H43	H	1.729781	-0.278588	-0.259818
N44	N	1.639352	-0.235593	0.259312
H45	H	1.642141	-0.139624	0.257764
H46	H	1.729560	-0.278914	0.260221
H47	H	1.672836	0.021340	-0.593302
H48	H	1.074467	0.302325	0.225778
N49	N	1.763199	-0.434338	-0.000088
H50	H	1.826619	-0.367686	-0.001004
H51	H	1.776169	-0.490200	-0.091621
H52	H	1.722258	0.233792	-0.406461
H53	H	1.344173	0.355396	-0.406909
H54	H	0.942712	0.074324	0.226008
H55	H	0.901626	0.409850	0.000188
H56	H	1.115050	-0.033484	0.000184
H57	H	1.394461	-0.377681	0.225740
H58	H	1.558139	0.400882	-0.593075
H59	H	1.294780	0.142656	-0.593464
H60	H	1.074381	0.302278	-0.225619
H61	H	1.394427	-0.377787	-0.225673
H62	H	1.286841	-0.204974	-0.000074
