data_functionalizedCrystal
_audit_creation_method	'MofGen! by Chris Wilmer'
_symmetry_space_group_name_H-M	'P1'
_symmetry_Int_Tables_number	1
_symmetry_cell_setting	triclinic
loop_
_symmetry_equiv_pos_as_xyz
  x,y,z
_cell_length_a	10.654562
_cell_length_b	15.944551
_cell_length_c	9.130313
_cell_angle_alpha	89.997799
_cell_angle_beta	89.996930
_cell_angle_gamma	83.994421
loop_
_atom_site_label
_atom_site_type_symbol
_atom_site_fract_x
_atom_site_fract_y
_atom_site_fract_z
O1	O	1.666298	0.118023	-0.121899
O2	O	1.300676	0.129252	-0.121881
O3	O	1.493471	0.001421	-0.121878
O4	O	1.473503	0.245855	-0.121903
O5	O	1.493469	0.001425	0.121721
O6	O	1.300674	0.129256	0.121718
O7	O	1.666295	0.118027	0.121700
Cu8	Cu	1.483484	0.123642	0.143951
Cu9	Cu	1.483487	0.123638	-0.144133
O10	O	1.473500	0.245858	0.121696
C11	C	1.253888	0.128427	-0.000079
C12	C	1.114477	0.125954	-0.000072
C13	C	1.048960	0.124802	0.132702
C14	C	0.917968	0.122485	0.132678
C15	C	0.918021	0.122475	-0.132907
C16	C	1.049012	0.124786	-0.132881
C17	C	1.048928	0.124812	0.286036
C18	C	0.917936	0.122494	0.286012
C19	C	1.492641	-0.029876	-0.000078
C20	C	1.490156	-0.123136	-0.000077
C21	C	1.364712	-0.338723	-0.000091
C22	C	1.422963	-0.399400	0.120015
C23	C	1.485660	-0.293888	-0.000088
C24	C	1.422993	-0.399386	-0.120154
C25	C	1.481308	-0.458826	-0.000105
C26	C	1.543944	-0.353337	0.120117
C27	C	1.543958	-0.353317	-0.120160
C28	C	1.602296	-0.413976	-0.000024
C29	C	1.488163	-0.198872	-0.000077
C30	C	1.478814	-0.553842	-0.000105
C31	C	1.713084	0.118852	-0.000105
C32	C	1.852494	0.121325	-0.000122
C33	C	1.474330	0.277155	-0.000107
C34	C	1.476816	0.370416	-0.000118
N35	N	1.483491	0.123644	0.346574
N36	N	1.483490	0.123629	-0.346755
C37	C	1.568883	0.067060	0.423227
C38	C	1.568879	0.067050	0.576564
C39	C	1.398089	0.180216	0.576580
C40	C	1.398088	0.180221	0.423246
C41	C	1.667491	0.001727	0.423219
C42	C	1.667488	0.001717	0.576556
H43	H	0.864703	0.121524	-0.241035
C44	C	1.436419	-0.482004	0.340424
C45	C	1.353910	-0.426954	0.257095
H46	H	1.393783	-0.499008	0.425050
H47	H	1.464430	-0.530205	0.283470
H48	H	1.506993	-0.454126	0.369285
H49	H	1.283340	-0.454835	0.228225
H50	H	1.325880	-0.378745	0.314060
H51	H	0.870898	0.180545	0.344870
H52	H	1.371823	-0.419762	-0.221701
H53	H	0.889140	0.061236	0.333597
H54	H	1.328555	0.226278	0.639024
H55	H	1.264320	-0.305999	0.000034
C56	C	1.243416	0.048779	0.365544
C57	C	1.112405	0.046451	0.365524
H58	H	1.282600	0.000405	0.414622
H59	H	1.273048	0.049297	0.267466
H60	H	1.263448	0.098207	0.414583
H61	H	1.092371	-0.002975	0.316475
H62	H	1.082761	0.045925	0.463620
H63	H	1.328545	0.226289	0.360836
C64	C	1.529780	-0.076656	0.281845
C65	C	1.639648	-0.085422	0.367035
H66	H	1.512593	-0.130455	0.247157
H67	H	1.460994	-0.052789	0.339657
H68	H	1.541254	-0.040786	0.200932
H69	H	1.628171	-0.121286	0.447955
H70	H	1.708450	-0.109300	0.309221
H71	H	1.758409	0.022187	0.375654
H72	H	1.102353	0.125711	-0.240999
C73	C	1.629378	-0.076500	0.793932
C74	C	1.627364	-0.080642	0.640772
H75	H	1.604597	-0.127340	0.833575
H76	H	1.712293	-0.069101	0.826046
H77	H	1.572590	-0.030255	0.826047
H78	H	1.684159	-0.126883	0.608656
H79	H	1.544437	-0.088050	0.608645
H80	H	1.595056	-0.333047	0.221769
C81	C	0.979719	0.259455	0.392424
C82	C	1.087796	0.207504	0.350267
H83	H	1.003719	0.310503	0.432082
H84	H	0.927154	0.271702	0.309501
H85	H	0.934999	0.231395	0.464298
H86	H	1.132512	0.235562	0.278384
H87	H	1.140382	0.195258	0.433200
C88	C	1.800944	-0.434720	0.125914
C89	C	1.737934	-0.457961	0.000057
H90	H	1.884676	-0.461881	0.125970
H91	H	1.803245	-0.375332	0.126709
H92	H	1.757652	-0.451199	0.210418
H93	H	1.781221	-0.441475	-0.084448
H94	H	1.735639	-0.517361	-0.000752
C95	C	1.615526	-0.238117	-0.255037
C96	C	1.612961	-0.325731	-0.257242
H97	H	1.658125	-0.221087	-0.339671
H98	H	1.531607	-0.211317	-0.254179
H99	H	1.658605	-0.222531	-0.169773
H100	H	1.569872	-0.341317	-0.342501
H101	H	1.696895	-0.352540	-0.258114
H102	H	1.763812	0.016111	0.618166
