data_functionalizedCrystal
_audit_creation_method	'MofGen! by Chris Wilmer'
_symmetry_space_group_name_H-M	'P1'
_symmetry_Int_Tables_number	1
_symmetry_cell_setting	triclinic
loop_
_symmetry_equiv_pos_as_xyz
  x,y,z
_cell_length_a	16.625546
_cell_length_b	10.686220
_cell_length_c	10.685971
_cell_angle_alpha	98.374195
_cell_angle_beta	85.642545
_cell_angle_gamma	85.595560
loop_
_atom_site_label
_atom_site_type_symbol
_atom_site_fract_x
_atom_site_fract_y
_atom_site_fract_z
Zn1	Zn	-0.256454	-1.885250	0.568998
Zn2	Zn	0.076880	-1.551917	0.902331
Zn3	Zn	0.410213	-1.218584	1.235664
Zn4	Zn	-0.380061	-1.901441	0.356748
Zn5	Zn	-0.046727	-1.568108	0.690081
Zn6	Zn	0.286606	-1.234774	1.023415
Zn7	Zn	-0.256458	-1.689327	0.373028
Zn8	Zn	0.076875	-1.355993	0.706361
Zn9	Zn	0.410208	-1.022660	1.039695
Zn10	Zn	-0.402465	-1.672945	0.585189
Zn11	Zn	-0.069132	-1.339611	0.918523
Zn12	Zn	0.264201	-1.006278	1.251856
O13	O	-0.323859	-1.787241	0.470991
O14	O	0.009474	-1.453907	0.804324
O15	O	0.342807	-1.120574	1.137657
O16	O	-0.263472	-2.065019	0.527253
O17	O	0.069861	-1.731686	0.860586
O18	O	0.403195	-1.398353	1.193920
O19	O	-0.354290	-1.886935	0.181290
O20	O	-0.020957	-1.553602	0.514623
O21	O	0.312377	-1.220269	0.847957
O22	O	-0.143623	-1.715396	0.399061
O23	O	0.189710	-1.382063	0.732394
O24	O	0.523044	-1.048729	1.065728
O25	O	-0.354286	-2.076915	0.371314
O26	O	-0.020952	-1.743581	0.704647
O27	O	0.312381	-1.410248	1.037981
O28	O	-0.143620	-1.859340	0.543039
O29	O	0.189714	-1.526007	0.876372
O30	O	0.523047	-1.192674	1.209706
O31	O	-0.263480	-1.731096	0.193251
O32	O	0.069853	-1.397762	0.526584
O33	O	0.403187	-1.064429	0.859918
O34	O	-0.285205	-1.509532	0.414761
O35	O	0.048128	-1.176199	0.748095
O36	O	0.381462	-0.842865	1.081428
O37	O	-0.392471	-1.687476	0.760659
O38	O	-0.059138	-1.354142	1.093992
O39	O	0.274196	-1.020809	1.427326
O40	O	-0.392476	-1.497496	0.570635
O41	O	-0.059142	-1.164163	0.903968
O42	O	0.274191	-0.830830	1.237302
O43	O	-0.285197	-1.843456	0.748763
O44	O	0.048137	-1.510122	1.082096
O45	O	0.381470	-1.176789	1.415430
O46	O	-0.495867	-1.871051	0.387014
O47	O	-0.162534	-1.537717	0.720347
O48	O	0.170799	-1.204384	1.053681
O49	O	-0.512328	-1.703175	0.554849
O50	O	-0.178995	-1.369842	0.888182
O51	O	0.154339	-1.036509	1.221515
C52	C	-0.341273	-1.457459	0.496222
C53	C	-0.007939	-1.124126	0.829556
C54	C	0.325394	-0.790792	1.162889
C55	C	-0.348743	-1.316375	0.507047
C56	C	-0.015410	-0.983041	0.840380
C57	C	0.317924	-0.649708	1.173713
C58	C	-0.533354	-1.787125	0.470947
C59	C	-0.200021	-1.453791	0.804280
C60	C	0.133313	-1.120458	1.137613
C61	C	-0.622973	-1.787188	0.470962
C62	C	-0.289639	-1.453854	0.804295
C63	C	0.043694	-1.120521	1.137628
C64	C	-0.341333	-1.761832	0.802053
C65	C	-0.007999	-1.428499	1.135386
C66	C	0.325334	-1.095166	1.468720
C67	C	-0.348779	-1.751005	0.943132
C68	C	-0.015445	-1.417671	1.276465
C69	C	0.317888	-1.084338	1.609799
C70	C	-0.951143	-1.787399	0.471077
C71	C	-0.617810	-1.454066	0.804410
C72	C	-0.284477	-1.120732	1.137743
C73	C	-0.859837	-1.787336	0.471049
C74	C	-0.526503	-1.454003	0.804382
C75	C	-0.193170	-1.120669	1.137715
C76	C	-0.787061	-1.787292	0.471019
C77	C	-0.453728	-1.453959	0.804352
C78	C	-0.120394	-1.120626	1.137685
C79	C	-0.695748	-1.787231	0.470992
C80	C	-0.362415	-1.453898	0.804325
C81	C	-0.029082	-1.120565	1.137658
C82	C	-0.113547	-1.787390	0.471060
C83	C	0.219787	-1.454056	0.804393
C84	C	0.553120	-1.120723	1.137727
C85	C	-0.023924	-1.787453	0.471089
C86	C	0.309409	-1.454120	0.804423
C87	C	0.642743	-1.120786	1.137756
C88	C	-0.306379	-2.118310	0.445661
C89	C	0.026954	-1.784977	0.778995
C90	C	0.360288	-1.451643	1.112328
C91	C	-0.298930	-2.259392	0.434867
C92	C	0.034403	-1.926059	0.768201
C93	C	0.367737	-1.592725	1.101534
C94	C	-0.306472	-1.812538	1.141217
C95	C	0.026862	-1.479205	1.474551
C96	C	0.360195	-1.145872	1.807884
C97	C	-0.299022	-1.823359	1.000139
C98	C	0.034312	-1.490026	1.333472
C99	C	0.367645	-1.156692	1.666805
H100	H	-0.250568	-1.318540	0.364789
H101	H	0.082765	-0.985207	0.698123
H102	H	0.416098	-0.651874	1.031456
H103	H	-0.250719	-1.893576	0.941016
H104	H	0.082614	-1.560243	1.274349
H105	H	0.415948	-1.226910	1.607683
H106	H	-0.397076	-1.680769	1.002262
H107	H	-0.063743	-1.347436	1.335596
H108	H	0.269591	-1.014102	1.668929
H109	H	-0.397113	-1.257220	0.577121
H110	H	-0.063779	-0.923887	0.910455
H111	H	0.269554	-0.590553	1.243788
