data_functionalizedCrystal
_audit_creation_method	'MofGen! by Chris Wilmer'
_symmetry_space_group_name_H-M	'P1'
_symmetry_Int_Tables_number	1
_symmetry_cell_setting	triclinic
loop_
_symmetry_equiv_pos_as_xyz
  x,y,z
_cell_length_a	14.519731
_cell_length_b	15.995292
_cell_length_c	13.596369
_cell_angle_alpha	89.997200
_cell_angle_beta	90.006024
_cell_angle_gamma	83.578735
loop_
_atom_site_label
_atom_site_type_symbol
_atom_site_fract_x
_atom_site_fract_y
_atom_site_fract_z
O1	O	1.223633	0.109841	0.081786
O2	O	1.556967	0.443174	0.415120
O3	O	1.890300	0.776508	0.748453
O4	O	0.955133	0.122748	0.081787
O5	O	1.288466	0.456081	0.415120
O6	O	1.621799	0.789415	0.748454
O7	O	1.096751	-0.005585	0.081788
O8	O	1.430084	0.327748	0.415121
O9	O	1.763417	0.661082	0.748455
O10	O	1.082015	0.238174	0.081785
O11	O	1.415349	0.571507	0.415119
O12	O	1.748682	0.904841	0.748452
O13	O	1.096733	-0.005578	-0.081795
O14	O	1.430066	0.327756	0.251539
O15	O	1.763400	0.661089	0.584872
O16	O	0.955115	0.122755	-0.081796
O17	O	1.288449	0.456089	0.251537
O18	O	1.621782	0.789422	0.584871
O19	O	1.223616	0.109848	-0.081797
O20	O	1.556949	0.443181	0.251537
O21	O	1.890282	0.776515	0.584870
Zn22	Zn	1.089363	0.116303	-0.107769
Zn23	Zn	1.422696	0.449636	0.225565
Zn24	Zn	1.756029	0.782969	0.558898
Zn25	Zn	1.089386	0.116293	0.107759
Zn26	Zn	1.422719	0.449627	0.441092
Zn27	Zn	1.756052	0.782960	0.774426
O28	O	1.081998	0.238181	-0.081798
O29	O	1.415331	0.571514	0.251536
O30	O	1.748665	0.904848	0.584869
C31	C	0.920766	0.122147	-0.000004
C32	C	1.254099	0.455480	0.333329
C33	C	1.587432	0.788814	0.666662
C34	C	0.818389	0.120335	-0.000004
C35	C	1.151722	0.453668	0.333330
C36	C	1.485056	0.787001	0.666663
C37	C	0.735248	0.118862	0.000000
C38	C	1.068581	0.452195	0.333334
C39	C	1.401915	0.785529	0.666667
C40	C	0.630943	0.117022	0.000001
C41	C	0.964276	0.450355	0.333334
C42	C	1.297610	0.783689	0.666667
C43	C	0.547807	0.115562	0.000001
C44	C	0.881140	0.448895	0.333334
C45	C	1.214474	0.782228	0.666667
C46	C	0.443495	0.113722	0.000003
C47	C	0.776829	0.447055	0.333336
C48	C	1.110162	0.780389	0.666669
C49	C	1.096142	-0.036778	-0.000001
C50	C	1.429475	0.296555	0.333332
C51	C	1.762809	0.629889	0.666666
C52	C	1.094344	-0.129734	0.000007
C53	C	1.427677	0.203600	0.333340
C54	C	1.761011	0.536933	0.666673
C55	C	1.087734	-0.467482	-0.000002
C56	C	1.421068	-0.134149	0.333331
C57	C	1.754401	0.199184	0.666664
C58	C	1.189950	-0.444010	-0.000368
C59	C	1.523284	-0.110677	0.332965
C60	C	1.856617	0.222657	0.666299
C61	C	1.191893	-0.347331	0.000004
C62	C	1.525226	-0.013998	0.333337
C63	C	1.858560	0.319335	0.666671
C64	C	1.091014	-0.299921	0.000001
C65	C	1.424347	0.033412	0.333335
C66	C	1.757681	0.366745	0.666668
C67	C	1.039921	-0.329107	0.093412
C68	C	1.373254	0.004227	0.426746
C69	C	1.706588	0.337560	0.760079
C70	C	1.038690	-0.425899	0.093487
C71	C	1.372024	-0.092566	0.426820
C72	C	1.705357	0.240768	0.760154
C73	C	1.036583	-0.425751	-0.092537
C74	C	1.369917	-0.092418	0.240796
C75	C	1.703250	0.240915	0.574129
C76	C	1.040371	-0.329253	-0.093768
C77	C	1.373704	0.004081	0.239565
C78	C	1.707038	0.337414	0.572898
C79	C	1.092862	-0.205222	0.000007
C80	C	1.426196	0.128111	0.333340
C81	C	1.759529	0.461444	0.666674
C82	C	1.085883	-0.562181	-0.000001
C83	C	1.419216	-0.228848	0.333332
C84	C	1.752550	0.104486	0.666665
C85	C	1.257983	0.110449	-0.000003
C86	C	1.591316	0.443783	0.333330
C87	C	1.924649	0.777116	0.666664
C88	C	1.360359	0.112261	0.000003
C89	C	1.693693	0.445595	0.333336
C90	C	2.027026	0.778928	0.666669
C91	C	1.082606	0.269374	-0.000007
C92	C	1.415940	0.602707	0.333327
C93	C	1.749273	0.936041	0.666660
C94	C	1.084404	0.362330	-0.000008
C95	C	1.417738	0.695663	0.333326
C96	C	1.751071	1.028996	0.666659
N97	N	1.089354	0.116309	-0.254860
N98	N	1.422687	0.449642	0.078473
N99	N	1.756020	0.782975	0.411806
C100	C	1.089358	0.116310	-0.343858
C101	C	1.422692	0.449644	-0.010525
C102	C	1.756025	0.782977	0.322808
C103	C	1.089367	0.116305	-0.455510
C104	C	1.422701	0.449638	-0.122176
C105	C	1.756034	0.782971	0.211157
C106	C	1.089379	0.116295	-0.544500
C107	C	1.422713	0.449629	-0.211167
C108	C	1.756046	0.782962	0.122166
C109	C	1.089390	0.116290	-0.656159
C110	C	1.422723	0.449624	-0.322825
C111	C	1.756057	0.782957	0.010508
N112	N	1.089402	0.116281	0.254851
N113	N	1.422735	0.449614	0.588184
N114	N	1.756069	0.782948	0.921517
H115	H	1.231908	-0.328241	-0.066955
H116	H	1.565242	0.005093	0.266378
H117	H	1.898575	0.338426	0.599712
C118	C	1.243172	-0.481751	-0.090864
C119	C	1.576506	-0.148418	0.242469
C120	C	1.909839	0.184916	0.575802
N121	N	1.283260	-0.510184	-0.159029
N122	N	1.616594	-0.176850	0.174305
N123	N	1.949927	0.156483	0.507638
H124	H	1.229137	-0.472969	0.066245
H125	H	1.562471	-0.139636	0.399578
H126	H	1.895804	0.193697	0.732912
H127	H	0.961344	-0.439860	-0.093169
H128	H	1.294678	-0.106526	0.240165
H129	H	1.628011	0.226807	0.573498
C130	C	0.939637	-0.286206	0.098110
C131	C	1.272970	0.047127	0.431444
C132	C	1.606304	0.380460	0.764777
N133	N	0.864104	-0.253891	0.101648
N134	N	1.197437	0.079442	0.434981
N135	N	1.530771	0.412776	0.768315
C136	C	1.246286	-0.322382	0.090627
C137	C	1.579620	0.010951	0.423960
C138	C	1.912953	0.344284	0.757293
N139	N	1.287255	-0.303591	0.158889
N140	N	1.620588	0.029742	0.492222
N141	N	1.953922	0.363075	0.825556
C142	C	1.087878	-0.301944	0.187330
C143	C	1.421211	0.031389	0.520663
C144	C	1.754544	0.364722	0.853996
N145	N	1.124005	-0.281489	0.258066
N146	N	1.457338	0.051844	0.591399
N147	N	1.790672	0.385178	0.924733
H148	H	1.068766	-0.453786	-0.163343
H149	H	1.402099	-0.120453	0.169991
H150	H	1.735432	0.212880	0.503324
H151	H	1.074090	-0.452663	0.163315
H152	H	1.407423	-0.119330	0.496649
H153	H	1.740756	0.214004	0.829982
C154	C	0.937446	-0.445717	0.099231
C155	C	1.270779	-0.112384	0.432564
C156	C	1.604113	0.220949	0.765898
N157	N	0.861190	-0.460641	0.103567
N158	N	1.194524	-0.127308	0.436900
N159	N	1.527857	0.206026	0.770233
C160	C	1.090609	-0.304060	-0.187129
C161	C	1.423942	0.029273	0.146205
C162	C	1.757275	0.362607	0.479538
N163	N	1.128443	-0.285071	-0.257447
N164	N	1.461776	0.048263	0.075887
N165	N	1.795110	0.381596	0.409220
C166	C	0.940894	-0.284872	-0.101391
C167	C	1.274227	0.048461	0.231942
C168	C	1.607560	0.381795	0.565275
N169	N	0.865963	-0.251445	-0.107125
N170	N	1.199296	0.081888	0.226208
N171	N	1.532629	0.415221	0.559542
