data_functionalizedCrystal
_audit_creation_method	'MofGen! by Chris Wilmer'
_symmetry_space_group_name_H-M	'P1'
_symmetry_Int_Tables_number	1
_symmetry_cell_setting	triclinic
loop_
_symmetry_equiv_pos_as_xyz
  x,y,z
_cell_length_a	10.654541
_cell_length_b	16.109301
_cell_length_c	15.186229
_cell_angle_alpha	90.000638
_cell_angle_beta	89.996481
_cell_angle_gamma	96.027295
loop_
_atom_site_label
_atom_site_type_symbol
_atom_site_fract_x
_atom_site_fract_y
_atom_site_fract_z
O1	O	0.161419	-1.104089	-0.073172
O2	O	0.181508	-0.862147	-0.073186
O3	O	-0.011352	-0.988682	-0.073174
O4	O	0.354278	-0.977554	-0.073185
O5	O	-0.011354	-0.988673	0.073284
O6	O	0.181505	-0.862138	0.073271
O7	O	0.161416	-1.104081	0.073285
Zn8	Zn	0.171460	-0.983108	0.096531
Zn9	Zn	0.171464	-0.983119	-0.096433
O10	O	0.354276	-0.977546	0.073272
C11	C	0.180692	-0.831163	0.000040
C12	C	0.178253	-0.738853	0.000035
C13	C	-0.058140	-0.987861	0.000054
C14	C	-0.197550	-0.985418	0.000053
C15	C	0.162231	-1.135065	0.000056
C16	C	0.164671	-1.227375	0.000055
C17	C	-0.227574	-1.136725	0.000073
C18	C	-0.308079	-1.211227	0.000084
C19	C	-0.439066	-1.208926	0.000081
C20	C	-0.489549	-1.132115	0.000064
C21	C	-0.409044	-1.057613	0.000053
C22	C	-0.278056	-1.059922	0.000058
C23	C	-0.379021	-0.906308	0.000026
C24	C	-0.248034	-0.908607	0.000036
C25	C	-0.429504	-0.829496	0.000009
C26	C	-0.348998	-0.754992	0.000004
C27	C	-0.218004	-0.757296	0.000008
C28	C	-0.167529	-0.834104	0.000024
C29	C	0.401064	-0.978367	0.000042
C30	C	0.540474	-0.980810	0.000038
N31	N	0.171457	-0.983107	0.228224
C32	C	0.287019	-0.517227	0.000042
C33	C	0.284717	-0.430493	0.000048
C34	C	0.055896	-0.449008	0.000051
C35	C	0.058200	-0.535740	0.000052
C36	C	0.173765	-0.569847	0.000043
C37	C	0.169159	-0.396381	0.000048
C38	C	0.166662	-0.302340	0.000054
C39	C	0.176262	-0.663894	0.000038
N40	N	0.171457	-0.983128	-0.228125
C41	C	0.086088	-1.039156	0.453952
C42	C	0.086085	-1.039158	0.546142
C43	C	0.256830	-0.927072	0.546140
C44	C	0.256826	-0.927066	0.453952
C45	C	0.171456	-0.983113	0.407860
C46	C	0.171458	-0.983121	0.592238
C47	C	0.171455	-0.983124	0.692194
C48	C	0.171457	-0.983110	0.307898
H49	H	-0.120919	-1.138606	0.000087
O50	O	-0.139678	-0.684978	0.000112
C51	C	-0.063044	-0.681755	0.075977
H52	H	-0.056451	-0.747779	0.101282
H53	H	0.035419	-0.651355	0.058915
H54	H	-0.106130	-0.643523	0.129081
O55	O	-0.616767	-1.129772	0.000169
C56	C	-0.652321	-1.087513	0.076021
H57	H	-0.568078	-1.044664	0.101314
H58	H	-0.732566	-1.048780	0.058947
H59	H	-0.685069	-1.134921	0.129138
H60	H	-0.266961	-1.273765	0.000106
H61	H	-0.390113	-0.692459	-0.000016
H62	H	0.016568	-1.084792	0.583667
H63	H	0.016573	-1.084791	0.416427
O64	O	0.394651	-0.379293	-0.000076
C65	C	0.400181	-0.328584	-0.075937
H66	H	0.300502	-0.323625	-0.101220
H67	H	0.446987	-0.263677	-0.058879
H68	H	0.457523	-0.357443	-0.129055
O69	O	0.339935	-0.872707	0.409213
C70	C	0.464260	-0.886923	0.431744
H71	H	0.464906	-0.953490	0.457081
H72	H	0.527277	-0.877719	0.371113
H73	H	0.501131	-0.841057	0.485255
H74	H	0.326339	-0.881442	0.583677
H75	H	-0.536161	-0.827628	0.000001
O76	O	-0.517095	-1.281374	0.000130
C77	C	-0.444459	-1.349663	0.000118
H78	H	-0.346687	-1.329129	0.027845
H79	H	-0.492814	-1.401902	0.042645
H80	H	-0.435139	-1.373179	-0.070141
O81	O	-0.040268	-0.836236	-0.000088
C82	C	0.011734	-0.795542	-0.075958
H83	H	-0.054980	-0.750042	-0.101258
H84	H	0.106745	-0.759889	-0.058904
H85	H	0.025489	-0.843785	-0.129061
O86	O	0.399353	-0.550260	-0.000077
C87	C	0.468385	-0.523449	-0.075938
H88	H	0.434180	-0.463109	-0.101227
H89	H	0.572967	-0.512010	-0.058877
H90	H	0.453832	-0.573547	-0.129052
O91	O	-0.056248	-0.415737	0.000014
C92	C	-0.033999	-0.327900	0.000033
H93	H	0.064013	-0.308099	-0.027695
H94	H	-0.107938	-0.300851	-0.042488
H95	H	-0.040082	-0.303724	0.070295
H96	H	-0.034032	-0.578586	0.000055
