data_functionalizedCrystal
_audit_creation_method	'MofGen! by Chris Wilmer'
_symmetry_space_group_name_H-M	'P1'
_symmetry_Int_Tables_number	1
_symmetry_cell_setting	triclinic
loop_
_symmetry_equiv_pos_as_xyz
  x,y,z
_cell_length_a	17.699083
_cell_length_b	17.038272
_cell_length_c	16.176319
_cell_angle_alpha	89.993159
_cell_angle_beta	89.998611
_cell_angle_gamma	87.197286
loop_
_atom_site_label
_atom_site_type_symbol
_atom_site_fract_x
_atom_site_fract_y
_atom_site_fract_z
O1	O	1.010620	0.098861	-0.068631
O2	O	0.791093	0.111723	-0.068658
O3	O	0.899552	-0.008521	-0.068638
O4	O	0.902161	0.219105	-0.068651
O5	O	0.899535	-0.008529	0.068855
O6	O	0.791077	0.111715	0.068835
O7	O	1.010604	0.098853	0.068862
Cu8	Cu	0.900839	0.105284	0.081403
Cu9	Cu	0.900858	0.105293	-0.081199
O10	O	0.902145	0.219098	0.068842
C11	C	0.762857	0.111258	0.000085
C12	C	0.678748	0.109876	0.000075
C13	C	0.634797	0.180457	0.000071
C14	C	0.555767	0.179153	0.000082
C15	C	0.520690	0.107267	0.000091
C16	C	0.564647	0.036681	0.000097
C17	C	0.643675	0.037986	0.000092
C18	C	0.245935	0.031418	0.000118
C19	C	0.166901	0.030119	0.000120
C20	C	0.158028	0.172585	0.000108
C21	C	0.237056	0.173890	0.000103
C22	C	0.281006	0.103304	0.000113
C23	C	0.366699	0.104719	0.000103
C24	C	0.434999	0.105852	0.000095
C25	C	0.897170	-0.037649	0.000108
C26	C	0.890090	-0.124431	0.000107
C27	C	0.955100	-0.174651	0.000116
C28	C	0.948442	-0.256191	0.000107
C29	C	0.876773	-0.287509	0.000096
C30	C	0.811758	-0.237282	0.000084
C31	C	0.818417	-0.155744	0.000087
C32	C	0.853251	-0.533228	0.000081
C33	C	0.846597	-0.614773	0.000081
C34	C	0.983282	-0.633676	0.000103
C35	C	0.989934	-0.552135	0.000110
C36	C	0.924919	-0.501916	0.000095
C37	C	0.869967	-0.370855	0.000089
C38	C	0.931726	-0.418571	0.000095
C39	C	1.038840	0.099318	0.000117
C40	C	1.122949	0.100701	0.000122
C41	C	0.904526	0.248226	0.000094
C42	C	0.911607	0.335007	0.000090
N43	N	0.900830	0.105277	0.195768
N44	N	0.900872	0.105293	-0.195564
C45	C	0.948873	0.052054	0.239041
C46	C	0.948877	0.052054	0.325588
C47	C	0.900841	0.105280	0.368861
C48	C	0.852793	0.158505	0.325582
C49	C	0.852786	0.158501	0.239036
C50	C	0.852820	0.158519	0.674610
C51	C	0.852833	0.158520	0.761162
C52	C	0.948911	0.052072	0.761162
C53	C	0.948904	0.052068	0.674617
C54	C	0.900853	0.105290	0.631345
C55	C	0.900849	0.105289	0.537501
C56	C	0.900849	0.105285	0.462703
H57	H	0.122235	0.230060	0.000104
H58	H	0.813698	0.201856	0.639385
H59	H	0.988034	0.008733	0.796403
H60	H	1.001381	-0.297077	0.000116
N61	N	0.796768	-0.402865	0.000095
N62	N	0.777812	-0.446268	0.058049
H63	H	0.726116	-0.468880	0.058053
H64	H	1.048294	-0.526642	0.000120
H65	H	0.987992	0.008715	0.203814
N66	N	0.131082	-0.043321	0.000127
N67	N	0.170330	-0.106338	0.000135
H68	H	0.145032	-0.158203	0.000139
H69	H	0.788233	-0.640268	0.000085
N70	N	0.997975	-0.002310	0.630433
N71	N	0.992293	-0.074568	0.640115
H72	H	1.026951	-0.112975	0.608913
N73	N	0.803722	0.212881	0.369768
N74	N	0.760829	0.260395	0.331118
H75	H	0.726170	0.298801	0.362322
N76	N	0.290810	-0.040688	0.000125
N77	N	0.259479	-0.104864	0.000128
H78	H	0.291174	-0.155793	0.000131
H79	H	0.536080	-0.021849	0.000116
N80	N	0.688561	-0.034118	0.000105
N81	N	0.657235	-0.098297	0.000116
H82	H	0.688934	-0.149224	0.000131
H83	H	0.800310	-0.492349	0.000069
N84	N	1.004926	-0.386570	0.000117
N85	N	1.023869	-0.343182	0.058079
H86	H	1.075566	-0.320574	0.058099
H87	H	0.519986	0.236627	0.000078
N88	N	0.997953	-0.002320	0.369777
N89	N	1.040840	-0.049837	0.331132
H90	H	1.075502	-0.088243	0.362339
N91	N	0.272898	0.247312	0.000107
N92	N	0.343459	0.248466	0.000108
H93	H	0.368773	0.300322	0.000115
H94	H	1.013460	-0.149159	0.000131
H95	H	1.036213	-0.674572	0.000114
N96	N	0.738555	-0.269283	0.000062
N97	N	0.732619	-0.342085	0.000060
H98	H	0.680918	-0.364686	0.000046
N99	N	0.803704	0.212869	0.194844
N100	N	0.760818	0.260388	0.233487
H101	H	0.726149	0.298785	0.202278
N102	N	0.803747	0.212887	0.805352
N103	N	0.733730	0.211896	0.795698
H104	H	0.699065	0.250290	0.826908
N105	N	0.670612	0.253894	0.000055
N106	N	0.631357	0.316907	0.000053
H107	H	0.656649	0.368775	0.000044
N108	N	0.752011	-0.104441	0.000060
N109	N	0.705522	-0.107211	-0.057909
H110	H	0.658621	-0.070978	-0.057934
