data_functionalizedCrystal
_audit_creation_method	'MofGen! by Chris Wilmer'
_symmetry_space_group_name_H-M	'P1'
_symmetry_Int_Tables_number	1
_symmetry_cell_setting	triclinic
loop_
_symmetry_equiv_pos_as_xyz
  x,y,z
_cell_length_a	12.759401
_cell_length_b	16.120444
_cell_length_c	12.759393
_cell_angle_alpha	92.863363
_cell_angle_beta	89.982549
_cell_angle_gamma	92.925484
loop_
_atom_site_label
_atom_site_type_symbol
_atom_site_fract_x
_atom_site_fract_y
_atom_site_fract_z
Zn1	Zn	1.584951	-0.331877	-0.615155
Zn2	Zn	1.575902	-0.471316	-0.448370
Zn3	Zn	1.409253	-0.331919	-0.439496
Zn4	Zn	1.400299	-0.471248	-0.624007
O5	O	1.492601	-0.401590	-0.531757
O6	O	1.730771	-0.350385	-0.593039
O7	O	1.553756	-0.452870	-0.300175
O8	O	1.440094	-0.215248	-0.455380
O9	O	1.724123	-0.452830	-0.470503
O10	O	1.569178	-0.215217	-0.584435
O11	O	1.431320	-0.350455	-0.293655
O12	O	1.261045	-0.350390	-0.463963
O13	O	1.424833	-0.452715	-0.769851
O14	O	1.254467	-0.452755	-0.599522
O15	O	1.560496	-0.350319	-0.763347
O16	O	1.545074	-0.587972	-0.479087
O17	O	1.416059	-0.587923	-0.608126
C18	C	1.219635	-0.401570	-0.531741
C19	C	1.102858	-0.401582	-0.531760
C20	C	1.051444	-0.348340	-0.595676
C21	C	0.941719	-0.348356	-0.595683
C22	C	0.934831	-0.454864	-0.467858
C23	C	1.044554	-0.454843	-0.467846
C24	C	1.055420	-0.286851	-0.669478
C25	C	0.945695	-0.286867	-0.669485
C26	C	1.478642	-0.618198	-0.545553
C27	C	1.472766	-0.710863	-0.551490
C28	C	1.523340	-0.921809	-0.501184
C29	C	1.462057	-0.880519	-0.562341
C30	C	1.468017	-0.786114	-0.556302
C31	C	1.517382	-1.016223	-0.507222
C32	C	1.766633	-0.401610	-0.531773
C33	C	1.883409	-0.401619	-0.531780
C34	C	1.492675	-0.401505	-0.805785
C35	C	1.492707	-0.401469	-0.922559
C36	C	1.506644	-0.184136	-0.517930
C37	C	1.512629	-0.091471	-0.512038
C38	C	1.428983	-0.348132	-0.974032
C39	C	1.429017	-0.348107	-1.083755
C40	C	1.556506	-0.454759	-1.090522
C41	C	1.556466	-0.454787	-0.980802
C42	C	1.355382	-0.286555	-0.970126
C43	C	1.355415	-0.286530	-1.079848
C44	C	1.492592	-0.401614	-0.258791
C45	C	1.492780	-0.401416	-0.142002
H46	H	0.914833	-0.304241	-0.751930
H47	H	1.276635	-0.309641	-1.115349
Br48	Br	1.642934	-0.527189	-0.910949
H49	H	1.405114	-0.916070	-0.619234
H50	H	1.381376	-0.221951	-1.105526
Br51	Br	0.895507	-0.184600	-0.614620
H52	H	1.580279	-0.886262	-0.444293
Br53	Br	1.111952	-0.179190	-0.626526
Br54	Br	1.643028	-0.527118	-1.169572
H55	H	1.272883	-0.303844	-0.941451
H56	H	1.086411	-0.498190	-0.415790
Br57	Br	1.109725	-0.325517	-0.800674
Br58	Br	0.855698	-0.527140	-0.381118
Br59	Br	1.410550	-0.184351	-0.906899
