data_functionalizedCrystal
_audit_creation_method	'MofGen! by Chris Wilmer'
_symmetry_space_group_name_H-M	'P1'
_symmetry_Int_Tables_number	1
_symmetry_cell_setting	triclinic
loop_
_symmetry_equiv_pos_as_xyz
  x,y,z
_cell_length_a	9.065218
_cell_length_b	19.288865
_cell_length_c	8.140239
_cell_angle_alpha	89.991261
_cell_angle_beta	90.002802
_cell_angle_gamma	95.923934
loop_
_atom_site_label
_atom_site_type_symbol
_atom_site_fract_x
_atom_site_fract_y
_atom_site_fract_z
O1	O	1.956830	-0.101840	0.136640
O2	O	2.456830	0.398160	0.636640
O3	O	1.527253	-0.110193	0.136644
O4	O	2.027253	0.389807	0.636644
O5	O	1.754454	-0.004983	0.136609
O6	O	2.254454	0.495017	0.636609
O7	O	1.729629	-0.207051	0.136675
O8	O	2.229629	0.292949	0.636675
O9	O	1.754442	-0.004981	-0.136618
O10	O	2.254442	0.495019	0.363382
O11	O	1.527240	-0.110192	-0.136583
O12	O	2.027240	0.389808	0.363417
O13	O	1.956818	-0.101839	-0.136587
O14	O	2.456818	0.398161	0.363413
Zn15	Zn	1.742027	-0.106015	-0.179966
Zn16	Zn	2.242027	0.393985	0.320034
Zn17	Zn	1.742043	-0.106017	0.180023
Zn18	Zn	2.242043	0.393983	0.680023
O19	O	1.729616	-0.207049	-0.136552
O20	O	2.229616	0.292951	0.363448
C21	C	1.472288	-0.109390	0.000031
C22	C	1.972288	0.390610	0.500031
C23	C	1.308529	-0.106989	0.000031
C24	C	1.808529	0.393011	0.500031
C25	C	1.753649	0.020901	-0.000009
C26	C	2.253649	0.520901	0.499991
C27	C	1.751251	0.098023	-0.000024
C28	C	2.251251	0.598023	0.499976
N29	N	1.742027	-0.106014	-0.425648
N30	N	2.242027	0.393986	0.074352
C31	C	2.011782	-0.102642	0.000030
C32	C	2.511782	0.397358	0.500030
C33	C	2.175541	-0.105043	0.000041
C34	C	2.675541	0.394957	0.500041
C35	C	1.730421	-0.232933	0.000070
C36	C	2.230421	0.267067	0.500070
C37	C	1.732819	-0.310055	0.000095
C38	C	2.232819	0.189945	0.500095
C39	C	1.884563	0.141684	-0.000033
C40	C	2.384563	0.641684	0.499967
C41	C	1.882310	0.214149	-0.000007
C42	C	2.382310	0.714149	0.499993
C43	C	1.746738	0.242949	-0.000005
C44	C	2.246738	0.742949	0.499995
C45	C	1.613409	0.199278	0.000014
C46	C	2.113409	0.699278	0.500014
C47	C	1.615666	0.126815	0.000005
C48	C	2.115666	0.626815	0.500005
C49	C	1.640158	0.352064	-0.095709
C50	C	2.140158	0.852064	0.404291
C51	C	1.637908	0.424526	-0.095710
C52	C	2.137908	0.924526	0.404290
C53	C	1.739773	0.466448	0.000032
C54	C	2.239773	0.966448	0.500032
C55	C	1.843914	0.435901	0.095754
C56	C	2.343914	0.935901	0.595754
C57	C	1.846170	0.363438	0.095744
C58	C	2.346170	0.863438	0.595744
C59	C	1.744276	0.321522	0.000007
C60	C	2.244276	0.821522	0.500007
C61	C	1.870651	0.588685	0.000054
C62	C	2.370651	1.088685	0.500054
C63	C	1.868392	0.661150	0.000090
C64	C	2.368392	1.161150	0.500090
C65	C	1.599488	0.646278	0.000094
C66	C	2.099488	1.146278	0.500094
C67	C	1.601750	0.573814	0.000074
C68	C	2.101750	1.073814	0.500074
C69	C	1.737335	0.545022	0.000046
C70	C	2.237335	1.045022	0.500046
N71	N	1.742056	-0.106013	0.425705
N72	N	2.242056	0.393987	0.925705
H73	H	1.994967	0.118247	-0.000050
H74	H	2.494967	0.618247	0.499950
Br75	Br	1.496585	0.465976	-0.225626
Br76	Br	1.996585	0.965976	0.274374
Br77	Br	1.501901	0.295176	-0.225657
Br78	Br	2.001901	0.795176	0.274343
Br79	Br	1.420817	0.514555	0.000085
Br80	Br	1.920817	1.014555	0.500085
H81	H	1.507104	0.091265	0.000012
H82	H	2.007104	0.591265	0.500012
Br83	Br	1.429417	0.238362	0.000038
Br84	Br	1.929417	0.738362	0.500038
Br85	Br	2.049332	0.720407	0.000095
Br86	Br	2.549332	1.220407	0.500095
H87	H	1.489102	0.669726	0.000104
H88	H	1.989102	1.169726	0.500104
Br89	Br	1.982172	0.492787	0.225697
Br90	Br	2.482172	0.992787	0.725697
Br91	Br	2.063245	0.273415	-0.000012
Br92	Br	2.563245	0.773415	0.499988
H93	H	1.981053	0.565241	0.000038
H94	H	2.481053	1.065241	0.500038
H95	H	1.930963	0.338570	0.173687
H96	H	2.430963	0.838570	0.673687
