data_functionalizedCrystal
_audit_creation_method	'MofGen! by Chris Wilmer'
_symmetry_space_group_name_H-M	'P1'
_symmetry_Int_Tables_number	1
_symmetry_cell_setting	triclinic
loop_
_symmetry_equiv_pos_as_xyz
  x,y,z
_cell_length_a	18.101398
_cell_length_b	18.101397
_cell_length_c	13.897441
_cell_angle_alpha	90.034904
_cell_angle_beta	90.027215
_cell_angle_gamma	90.015732
loop_
_atom_site_label
_atom_site_type_symbol
_atom_site_fract_x
_atom_site_fract_y
_atom_site_fract_z
Zn1	Zn	1.132197	-0.294899	0.545519
Zn2	Zn	1.132110	-0.418755	0.384208
Zn3	Zn	1.008350	-0.294922	0.384219
Zn4	Zn	1.008330	-0.418693	0.545443
O5	O	1.070246	-0.356817	0.464847
O6	O	1.235818	-0.311346	0.524148
O7	O	1.115664	-0.402363	0.249228
O8	O	1.024823	-0.191286	0.405652
O9	O	1.235754	-0.402342	0.405634
O10	O	1.115813	-0.191269	0.524159
O11	O	1.024738	-0.311384	0.249236
O12	O	0.904714	-0.311324	0.405578
O13	O	1.024789	-0.402237	0.680435
O14	O	0.904699	-0.402258	0.524029
O15	O	1.115794	-0.311286	0.680491
O16	O	1.115645	-0.522380	0.405560
O17	O	1.024704	-0.522335	0.524018
C18	C	0.877836	-0.356787	0.464797
C19	C	0.795522	-0.356792	0.464798
C20	C	0.496431	-0.356839	0.464879
C21	C	0.527741	-0.299339	0.390717
C22	C	0.613359	-0.299493	0.390401
C23	C	0.644813	-0.356815	0.464839
C24	C	0.613709	-0.434828	0.437059
C25	C	0.528063	-0.434509	0.436544
C26	C	0.528046	-0.337003	0.566996
C27	C	0.613696	-0.335266	0.566438
C28	C	0.728673	-0.356806	0.464818
C29	C	0.412571	-0.356852	0.464898
C30	C	1.070183	-0.549228	0.464801
C31	C	1.070224	-0.631542	0.464813
C32	C	1.070318	-0.930633	0.464901
C33	C	1.127376	-0.899305	0.390170
C34	C	1.127574	-0.813687	0.390364
C35	C	1.070271	-0.782250	0.464856
C36	C	1.091431	-0.813254	0.566533
C37	C	1.091873	-0.898899	0.566126
C38	C	0.991948	-0.899137	0.438835
C39	C	0.992335	-0.813488	0.436565
C40	C	1.070244	-0.698391	0.464837
C41	C	1.070348	-1.014492	0.464927
C42	C	1.263408	-0.356848	0.464898
C43	C	1.345722	-0.356861	0.464920
C44	C	1.070299	-0.356752	0.716440
C45	C	1.070321	-0.356724	0.823654
C46	C	1.070330	-0.163655	0.464915
C47	C	1.070366	-0.081341	0.464944
C48	C	1.070237	-0.356829	0.214233
C49	C	1.070358	-0.356648	0.107020
C50	C	1.070341	-0.356674	1.019950
C51	C	1.070328	-0.356704	0.910717
H52	H	0.507160	-0.241312	0.407939
H53	H	0.634030	-0.277857	0.587385
H54	H	1.148075	-0.791749	0.588985
H55	H	0.947536	-0.792096	0.487008
C56	C	1.037010	-0.785736	0.643782
N57	N	0.996019	-0.765008	0.701964
C58	C	0.965947	-0.928396	0.340402
N59	N	0.946371	-0.950434	0.266259
H60	H	0.508052	-0.451329	0.361892
C61	C	0.970773	-0.786114	0.335485
N62	N	0.954533	-0.765489	0.259352
H63	H	0.507799	-0.378884	0.622253
C64	C	1.206001	-0.785935	0.413658
N65	N	1.265076	-0.765034	0.431202
H66	H	1.114335	-0.792729	0.314973
H67	H	0.635111	-0.374093	0.624656
H68	H	1.114297	-0.919952	0.314553
C69	C	0.498616	-0.316843	0.289091
N70	N	0.476677	-0.330028	0.212547
C71	C	0.500081	-0.494349	0.506328
N72	N	0.479007	-0.539423	0.558884
H73	H	0.949436	-0.919396	0.493264
H74	H	0.635124	-0.451940	0.363213
C75	C	0.641243	-0.494260	0.507737
N76	N	0.661987	-0.539025	0.560970
H77	H	0.633812	-0.312606	0.314734
H78	H	1.052135	-0.919619	0.623725
C79	C	0.641772	-0.221338	0.413912
N80	N	0.663169	-0.162467	0.431615
H81	H	0.506464	-0.281106	0.592252
H82	H	1.185111	-0.920777	0.407219
C83	C	1.169265	-0.925815	0.595941
N84	N	1.227559	-0.946084	0.618394
