data_functionalizedCrystal
_audit_creation_method	'MofGen! by Chris Wilmer'
_symmetry_space_group_name_H-M	'P1'
_symmetry_Int_Tables_number	1
_symmetry_cell_setting	triclinic
loop_
_symmetry_equiv_pos_as_xyz
  x,y,z
_cell_length_a	18.101398
_cell_length_b	13.897448
_cell_length_c	13.897441
_cell_angle_alpha	90.027040
_cell_angle_beta	89.974922
_cell_angle_gamma	89.985164
loop_
_atom_site_label
_atom_site_type_symbol
_atom_site_fract_x
_atom_site_fract_y
_atom_site_fract_z
Zn1	Zn	1.132186	0.384115	-0.545565
Zn2	Zn	1.632186	0.884115	-0.045565
Zn3	Zn	1.132105	0.545434	-0.384274
Zn4	Zn	1.632105	1.045434	0.115726
Zn5	Zn	1.008343	0.384141	-0.384265
Zn6	Zn	1.508343	0.884141	0.115735
Zn7	Zn	1.008320	0.545357	-0.545508
Zn8	Zn	1.508320	1.045357	-0.045508
O9	O	1.070239	0.464762	-0.464903
O10	O	1.570239	0.964762	0.035097
O11	O	1.235808	0.405536	-0.524197
O12	O	1.735808	0.905536	-0.024197
O13	O	1.115663	0.524082	-0.249291
O14	O	1.615663	1.024082	0.250709
O15	O	1.024815	0.249156	-0.405682
O16	O	1.524815	0.749156	0.094318
O17	O	1.235749	0.524056	-0.405697
O18	O	1.735749	1.024056	0.094303
O19	O	1.115801	0.249137	-0.524189
O20	O	1.615801	0.749137	-0.024189
O21	O	1.024736	0.405581	-0.249285
O22	O	1.524736	0.905581	0.250715
O23	O	0.904707	0.405505	-0.405627
O24	O	1.404707	0.905505	0.094373
O25	O	1.024776	0.523924	-0.680498
O26	O	1.524776	1.023924	-0.180498
O27	O	0.904691	0.523950	-0.524092
O28	O	1.404691	1.023950	-0.024092
O29	O	1.115779	0.405461	-0.680539
O30	O	1.615779	0.905461	-0.180539
O31	O	1.115641	0.680405	-0.405642
O32	O	1.615641	1.180405	0.094358
O33	O	1.024697	0.680348	-0.524100
O34	O	1.524697	1.180348	-0.024100
C35	C	0.877828	0.464723	-0.464853
C36	C	1.377828	0.964723	0.035147
C37	C	0.795514	0.464729	-0.464854
C38	C	1.295514	0.964729	0.035146
C39	C	1.070178	0.715376	-0.464887
C40	C	1.570178	1.215376	0.035113
C41	C	1.070220	0.822590	-0.464912
C42	C	1.570220	1.322590	0.035088
C43	C	1.070284	0.464681	-0.716496
C44	C	1.570284	0.964681	-0.216496
C45	C	1.070303	0.464646	-0.823710
C46	C	1.570303	0.964646	-0.323710
C47	C	0.496423	0.464789	-0.464935
C48	C	0.996423	0.964789	0.035065
C49	C	0.527734	0.389895	-0.390764
C50	C	1.027734	0.889895	0.109236
C51	C	0.613352	0.390096	-0.390448
C52	C	1.113352	0.890096	0.109552
C53	C	0.644806	0.464759	-0.464895
C54	C	1.144806	0.964759	0.035105
C55	C	0.613703	0.566370	-0.437128
C56	C	1.113703	1.066370	0.062872
C57	C	0.528058	0.565954	-0.436612
C58	C	1.028058	1.065954	0.063388
C59	C	0.528035	0.438956	-0.567048
C60	C	1.028035	0.938956	-0.067048
C61	C	0.613685	0.436693	-0.566491
C62	C	1.113685	0.936693	-0.066491
C63	C	0.728665	0.464748	-0.464874
C64	C	1.228665	0.964748	0.035126
C65	C	0.412564	0.464807	-0.464954
C66	C	0.912564	0.964807	0.035046
C67	C	1.263401	0.464802	-0.464954
C68	C	1.763401	0.964802	0.035046
C69	C	1.345715	0.464819	-0.464976
C70	C	1.845715	0.964819	0.035024
C71	C	1.070293	1.018885	-0.464981
C72	C	1.570293	1.518885	0.035019
C73	C	1.070251	0.909653	-0.464945
C74	C	1.570251	1.409653	0.035055
C75	C	1.070313	1.213169	-0.464952
C76	C	1.570313	1.713169	0.035048
C77	C	1.070329	1.105955	-0.465002
C78	C	1.570329	1.605955	0.034998
C79	C	1.070319	0.464619	-0.910780
C80	C	1.570319	0.964619	-0.410780
C81	C	1.070340	0.464576	-1.020013
C82	C	1.570340	0.964576	-0.520013
C83	C	1.070236	0.464773	-0.214289
C84	C	1.570236	0.964773	0.285711
C85	C	1.070360	0.464536	-0.107075
C86	C	1.570360	0.964536	0.392925
H87	H	0.507152	0.314316	-0.407977
H88	H	1.007152	0.814316	0.092023
O89	O	0.639388	0.592899	-0.349082
O90	O	1.139388	1.092899	0.150918
C91	C	0.746202	0.626943	-0.251419
C92	C	1.246202	1.126943	0.248581
C93	C	0.717205	0.596887	-0.351169
C94	C	1.217205	1.096887	0.148831
H95	H	0.809119	0.630197	-0.253078
H96	H	1.309119	1.130197	0.246922
H97	H	0.727718	0.572130	-0.195358
H98	H	1.227718	1.072130	0.304642
H99	H	0.723225	0.700827	-0.231988
H100	H	1.223225	1.200827	0.268012
H101	H	0.740169	0.523024	-0.370690
H102	H	1.240169	1.023024	0.129310
H103	H	0.735681	0.651762	-0.407172
H104	H	1.235681	1.151762	0.092828
H105	H	0.634077	0.623667	-0.489460
H106	H	1.134077	1.123667	0.010540
H107	H	0.507345	0.623646	-0.488279
H108	H	1.007345	1.123646	0.011721
O109	O	0.503846	0.503893	-0.633094
O110	O	1.003846	1.003893	-0.133094
C111	C	0.435559	0.529683	-0.779635
C112	C	0.935559	1.029683	-0.279635
C113	C	0.462927	0.456035	-0.704934
C114	C	0.962927	0.956035	-0.204934
H115	H	0.402458	0.491022	-0.837725
H116	H	0.902458	0.991022	-0.337725
H117	H	0.484965	0.567325	-0.813853
H118	H	0.984965	1.067325	-0.313853
H119	H	0.398950	0.585247	-0.742583
H120	H	0.898950	1.085247	-0.242583
H121	H	0.499523	0.400414	-0.741914
H122	H	0.999523	0.900414	-0.241914
H123	H	0.413487	0.418467	-0.670720
H124	H	0.913487	0.918467	-0.170720
H125	H	0.506187	0.406781	-0.315539
H126	H	1.006187	0.906781	0.184461
O127	O	0.502416	0.352053	-0.597222
O128	O	1.002416	0.852053	-0.097222
C129	C	0.533295	0.190778	-0.646714
C130	C	1.033295	0.690778	-0.146714
C131	C	0.562409	0.289157	-0.612587
C132	C	1.062409	0.789157	-0.112587
H133	H	0.581784	0.139894	-0.659127
H134	H	1.081784	0.639894	-0.159127
H135	H	0.501342	0.200247	-0.716746
H136	H	1.001342	0.700247	-0.216746
H137	H	0.495194	0.159341	-0.589460
H138	H	0.995194	0.659341	-0.089460
H139	H	0.600540	0.320649	-0.669773
H140	H	1.100540	0.820649	-0.169773
H141	H	0.594320	0.279628	-0.542531
H142	H	1.094320	0.779628	-0.042531
H143	H	0.635099	0.487266	-0.624715
H144	H	1.135099	0.987266	-0.124715
O145	O	0.638321	0.300133	-0.411139
O146	O	1.138321	0.800133	0.088861
C147	C	0.606103	0.136255	-0.449194
C148	C	1.106103	0.636255	0.050806
C149	C	0.577731	0.238098	-0.425777
C150	C	1.077731	0.738098	0.074223
H151	H	0.557130	0.086077	-0.461055
H152	H	1.057130	0.586077	0.038945
H153	H	0.640914	0.108549	-0.386725
H154	H	1.140914	0.608549	0.113275
H155	H	0.641278	0.138764	-0.517210
H156	H	1.141278	0.638764	-0.017210
H157	H	0.542525	0.235671	-0.357789
H158	H	1.042525	0.735671	0.142211
H159	H	0.542960	0.265765	-0.488300
H160	H	1.042960	0.765765	0.011700
H161	H	0.633808	0.407174	-0.314783
H162	H	1.133808	0.907174	0.185217
O163	O	0.504270	0.592218	-0.347556
O164	O	1.004270	1.092218	0.152444
C165	C	0.503493	0.714873	-0.224946
C166	C	1.003493	1.214873	0.275054
C167	C	0.530490	0.685243	-0.325808
C168	C	1.030490	1.185243	0.174192
H169	H	0.524667	0.790093	-0.207340
H170	H	1.024667	1.290093	0.292660
H171	H	0.525250	0.661650	-0.169356
H172	H	1.025250	1.161650	0.330644
H173	H	0.440522	0.714829	-0.223501
H174	H	0.940522	1.214829	0.276499
H175	H	0.593456	0.685294	-0.327347
H176	H	1.093456	1.185294	0.172653
H177	H	0.508678	0.738473	-0.381353
H178	H	1.008678	1.238473	0.118647
O179	O	0.637962	0.347544	-0.591641
O180	O	1.137962	0.847544	-0.091641
C181	C	0.706723	0.252529	-0.705827
C182	C	1.206723	0.752529	-0.205827
C183	C	0.679264	0.353540	-0.677471
C184	C	1.179264	0.853540	-0.177471
H185	H	0.740135	0.257346	-0.775211
H186	H	1.240135	0.757346	-0.275211
H187	H	0.657351	0.202921	-0.717275
H188	H	1.157351	0.702921	-0.217275
H189	H	0.743057	0.222546	-0.645935
H190	H	1.243057	0.722546	-0.145935
H191	H	0.642943	0.383610	-0.737327
H192	H	1.142943	0.883610	-0.237327
H193	H	0.728670	0.403083	-0.665989
H194	H	1.228670	0.903083	-0.165989
