data_functionalizedCrystal
_audit_creation_method	'MofGen! by Chris Wilmer'
_symmetry_space_group_name_H-M	'P1'
_symmetry_Int_Tables_number	1
_symmetry_cell_setting	triclinic
loop_
_symmetry_equiv_pos_as_xyz
  x,y,z
_cell_length_a	14.908783
_cell_length_b	14.908579
_cell_length_c	14.908308
_cell_angle_alpha	96.363296
_cell_angle_beta	90.211273
_cell_angle_gamma	83.206933
loop_
_atom_site_label
_atom_site_type_symbol
_atom_site_fract_x
_atom_site_fract_y
_atom_site_fract_z
Zn1	Zn	1.325971	0.317646	0.605045
Zn2	Zn	1.825971	0.817646	1.105045
Zn3	Zn	1.325865	0.460297	0.462416
Zn4	Zn	1.825865	0.960297	0.962416
Zn5	Zn	1.184345	0.316663	0.445963
Zn6	Zn	1.684345	0.816663	0.945963
Zn7	Zn	1.165832	0.477688	0.604980
Zn8	Zn	1.665832	0.977688	1.104980
O9	O	1.250503	0.393074	0.529601
O10	O	1.750503	0.893074	1.029601
O11	O	1.452203	0.329702	0.593037
O12	O	1.952203	0.829702	1.093037
O13	O	1.314795	0.433555	0.333993
O14	O	1.814795	0.933555	0.833993
O15	O	1.210924	0.189704	0.460207
O16	O	1.710924	0.689704	0.960207
O17	O	1.452125	0.434508	0.488249
O18	O	1.952125	0.934508	0.988249
O19	O	1.314977	0.190426	0.577083
O20	O	1.814977	0.690426	1.077083
O21	O	1.210821	0.328027	0.321905
O22	O	1.710821	0.828027	0.821905
O23	O	1.055643	0.344890	0.460144
O24	O	1.555643	0.844890	0.960144
O25	O	1.179371	0.464147	0.731228
O26	O	1.679371	0.964147	1.231228
O27	O	1.042042	0.463194	0.576973
O28	O	1.542042	0.963194	1.076973
O29	O	1.297025	0.346565	0.731276
O30	O	1.797025	0.846565	1.231276
O31	O	1.296844	0.589694	0.488186
O32	O	1.796844	1.089694	0.988186
O33	O	1.179268	0.602470	0.592927
O34	O	1.679268	1.102470	1.092927
C35	C	1.016108	0.405823	0.516767
C36	C	1.516108	0.905823	1.016767
C37	C	0.915830	0.411301	0.511299
C38	C	1.415830	0.911301	1.011299
C39	C	0.727456	0.312630	0.610326
C40	C	1.227456	0.812630	1.110326
C41	C	0.633236	0.317773	0.605191
C42	C	1.133236	0.817773	1.105191
C43	C	0.633169	0.426726	0.495890
C44	C	1.133169	0.926726	0.995890
C45	C	0.727389	0.421583	0.501025
C46	C	1.227389	0.921583	1.001025
C47	C	0.774529	0.364533	0.558246
C48	C	1.274529	0.864533	1.058246
C49	C	0.868750	0.359395	0.563385
C50	C	1.368750	0.859395	1.063385
C51	C	0.868682	0.468343	0.454080
C52	C	1.368682	0.968343	0.954080
C53	C	0.774462	0.473487	0.448945
C54	C	1.274462	0.973487	0.948945
C55	C	1.236059	0.629035	0.542356
C56	C	1.736059	1.129035	1.042356
C57	C	1.229961	0.729977	0.547847
C58	C	1.729961	1.229977	1.047847
C59	C	1.341046	0.906293	0.449198
C60	C	1.841046	1.406293	0.949198
C61	C	1.335319	1.001137	0.454355
C62	C	1.835319	1.501137	0.954355
C63	C	1.212785	1.014512	0.563322
C64	C	1.712785	1.514512	1.063322
C65	C	1.218512	0.919668	0.558165
C66	C	1.718512	1.419668	1.058165
C67	C	1.282644	0.865561	0.501100
C68	C	1.782644	1.365561	1.001100
C69	C	1.288366	0.770715	0.495939
C70	C	1.788366	1.270715	0.995939
C71	C	1.165837	0.784092	0.604910
C72	C	1.665837	1.284092	1.104910
C73	C	1.160110	0.878936	0.610067
C74	C	1.660110	1.378936	1.110067
C75	C	1.485814	0.380275	0.542485
C76	C	1.985814	0.880275	1.042485
C77	C	1.586089	0.374821	0.547976
C78	C	2.086089	0.874821	1.047976
C79	C	1.236145	0.407406	0.764900
C80	C	1.736145	0.907406	1.264900
C81	C	1.230027	0.413513	0.865171
C82	C	1.730027	0.913513	1.365171
C83	C	1.265020	1.156192	0.516828
C84	C	1.765020	1.656192	1.016828
C85	C	1.271190	1.055250	0.511414
C86	C	1.771190	1.555250	1.011414
C87	C	1.264861	0.378729	0.295216
C88	C	1.764861	0.878729	0.795216
C89	C	1.271170	0.372356	0.194942
C90	C	1.771170	0.872356	0.694942
C91	C	1.341041	0.302531	1.053640
C92	C	1.841041	0.802531	1.553640
C93	C	1.335295	0.308266	1.147853
C94	C	1.835295	0.808266	1.647853
C95	C	1.212785	0.430714	1.147811
C96	C	1.712785	0.930714	1.647811
C97	C	1.218531	0.424979	1.053598
C98	C	1.718531	0.924979	1.553598
C99	C	1.282662	0.360886	1.006516
C100	C	1.782662	0.860886	1.506516
C101	C	1.288412	0.355155	0.912301
C102	C	1.788412	0.855155	1.412301
C103	C	1.165898	0.477599	0.912261
C104	C	1.665898	0.977599	1.412261
C105	C	1.160152	0.483334	1.006474
C106	C	1.660152	0.983334	1.506474
H107	H	0.736068	0.519931	0.402355
H108	H	1.236068	1.019931	0.902355
Cl109	Cl	0.573893	0.498427	0.423951
Cl110	Cl	1.073893	0.998427	0.923951
H111	H	1.107937	0.535515	1.044821
H112	H	1.607937	1.035515	1.544821
H113	H	0.594913	0.275505	0.647598
H114	H	1.094913	0.775505	1.147598
H115	H	1.118364	0.525118	0.873883
H116	H	1.618364	1.025118	1.373883
H117	H	0.907018	0.510614	0.411680
H118	H	1.407018	1.010614	0.911680
H119	H	1.382878	1.034297	0.412093
H120	H	1.882878	1.534297	0.912093
Cl121	Cl	1.368984	0.702697	0.424198
Cl122	Cl	1.868984	1.202697	0.924198
H123	H	1.160573	0.482895	1.186162
H124	H	1.660573	0.982895	1.686162
H125	H	1.160578	1.058581	0.609787
H126	H	1.660578	1.558581	1.109787
Cl127	Cl	1.079495	0.946963	0.681804
Cl128	Cl	1.579495	1.446963	1.181804
H129	H	1.118279	0.750917	0.647170
H130	H	1.618279	1.250917	1.147170
Cl131	Cl	0.928011	0.287679	0.635320
Cl132	Cl	1.428011	0.787679	1.135320
H133	H	0.765838	0.266182	0.656921
H134	H	1.265838	0.766182	1.156921
H135	H	1.393258	0.862239	0.402727
H136	H	1.893258	1.362239	0.902727
H137	H	1.340631	0.302969	0.873968
H138	H	1.840631	0.802969	1.373968
H139	H	1.382831	0.260745	1.186217
H140	H	1.882831	0.760745	1.686217
Cl141	Cl	1.421669	0.221969	0.994448
Cl142	Cl	1.921669	0.721969	1.494448
