data_functionalizedCrystal
_audit_creation_method	'MofGen! by Chris Wilmer'
_symmetry_space_group_name_H-M	'P1'
_symmetry_Int_Tables_number	1
_symmetry_cell_setting	triclinic
loop_
_symmetry_equiv_pos_as_xyz
  x,y,z
_cell_length_a	15.995363
_cell_length_b	11.026607
_cell_length_c	10.065875
_cell_angle_alpha	100.731764
_cell_angle_beta	81.255455
_cell_angle_gamma	96.041706
loop_
_atom_site_label
_atom_site_type_symbol
_atom_site_fract_x
_atom_site_fract_y
_atom_site_fract_z
O1	O	-1.144120	-0.138671	0.113387
O2	O	-0.903257	-0.157968	0.113411
O3	O	-1.003726	0.028334	0.113396
O4	O	-1.043651	-0.324974	0.113402
O5	O	-0.984589	-0.007334	-0.113590
O6	O	-0.884121	-0.193636	-0.113575
O7	O	-1.124983	-0.174339	-0.113599
Zn8	Zn	-1.001514	-0.189651	-0.149626
Zn9	Zn	-1.026727	-0.142657	0.149438
O10	O	-1.024515	-0.360642	-0.113584
C11	C	-0.862374	-0.175001	-0.000079
C12	C	-0.769063	-0.172600	-0.000069
C13	C	-0.430015	-0.163986	-0.000103
C14	C	-0.457407	-0.031380	-0.000611
C15	C	-0.554503	-0.033698	-0.000088
C16	C	-0.598221	-0.168258	-0.000087
C17	C	-0.577925	-0.213335	0.129528
C18	C	-0.480795	-0.209980	0.129626
C19	C	-0.459108	-0.253283	-0.128500
C20	C	-0.555905	-0.253525	-0.130202
C21	C	-0.693284	-0.170680	-0.000074
C22	C	-0.334953	-0.161567	-0.000107
C23	C	-0.165866	-0.157291	-0.000109
C24	C	-0.259173	-0.159644	-0.000120
C25	C	-0.986792	0.055712	-0.000094
C26	C	-0.964836	0.190428	-0.000087
C27	C	-1.041449	-0.388019	-0.000090
C28	C	-1.063406	-0.522734	-0.000088
N29	N	-0.984312	-0.221722	-0.353729
C30	C	-1.025462	0.264230	-0.000091
C31	C	-1.002771	0.403466	-0.000084
C32	C	-1.020735	-0.153808	-0.421513
C33	C	-1.007505	-0.178500	-0.578678
N34	N	-1.043933	-0.110576	0.353541
H35	H	-0.423751	-0.225340	-0.226746
Br36	Br	-1.139978	0.197748	-0.000089
Br37	Br	-0.601056	0.076656	0.155314
Br38	Br	-0.888253	0.469947	-0.000053
Br39	Br	-0.916002	-0.349096	-0.450920
H40	H	-0.463726	-0.306471	0.135508
H41	H	-1.132123	0.437393	0.000007
Br42	Br	-0.939191	-0.305879	-0.675865
Br43	Br	-0.850323	0.256915	-0.000056
H44	H	-1.061710	-0.077378	-0.363195
Br45	Br	-1.112478	0.016530	-0.549277
H46	H	-0.607357	-0.311435	0.134349
Br47	Br	-0.451900	-0.105057	0.291115
H48	H	-0.585400	-0.352880	-0.138030
Br49	Br	-0.627350	-0.112315	0.290311
H50	H	-0.567345	0.003144	-0.093002
H51	H	-0.423054	0.007054	-0.093564
H52	H	-0.567937	-0.220819	-0.226091
Br53	Br	-0.430627	-0.416566	-0.129961
Br54	Br	-0.424468	0.080838	0.153446
