data_functionalizedCrystal
_audit_creation_method	'MofGen! by Chris Wilmer'
_symmetry_space_group_name_H-M	'P1'
_symmetry_Int_Tables_number	1
_symmetry_cell_setting	triclinic
loop_
_symmetry_equiv_pos_as_xyz
  x,y,z
_cell_length_a	12.759401
_cell_length_b	12.759393
_cell_length_c	12.759400
_cell_angle_alpha	90.031905
_cell_angle_beta	89.982330
_cell_angle_gamma	89.983383
loop_
_atom_site_label
_atom_site_type_symbol
_atom_site_fract_x
_atom_site_fract_y
_atom_site_fract_z
Zn1	Zn	1.606254	-0.593933	0.418117
Zn2	Zn	1.606149	-0.418253	0.593837
Zn3	Zn	1.430556	-0.418278	0.418182
Zn4	Zn	1.430544	-0.593900	0.593764
O5	O	1.518376	-0.506091	0.505975
O6	O	1.753261	-0.570633	0.441430
O7	O	1.582817	-0.271235	0.570594
O8	O	1.453912	-0.441603	0.271152
O9	O	1.753184	-0.441561	0.570531
O10	O	1.582996	-0.570656	0.271105
O11	O	1.453810	-0.271254	0.441541
O12	O	1.283534	-0.441571	0.441470
O13	O	1.453892	-0.740926	0.570406
O14	O	1.283525	-0.570600	0.570469
O15	O	1.582985	-0.740950	0.441359
O16	O	1.582805	-0.441529	0.740848
O17	O	1.453790	-0.570576	0.740795
C18	C	1.245408	-0.506085	0.505969
C19	C	1.128632	-0.506107	0.505992
C20	C	1.518313	-0.506069	0.778942
C21	C	1.518383	-0.506095	0.895719
C22	C	1.518449	-0.780125	0.505867
C23	C	1.518480	-0.896901	0.505821
C24	C	1.792409	-0.506098	0.505982
C25	C	1.909186	-0.506101	0.505984
C26	C	1.964049	-0.438921	0.438827
C27	C	2.073773	-0.438927	0.438828
C28	C	2.073761	-0.573294	0.573152
C29	C	1.964039	-0.573293	0.573145
C30	C	1.964057	-0.361342	0.361280
C31	C	2.073781	-0.361348	0.361280
C32	C	1.451354	-1.061505	0.438585
C33	C	1.451328	-0.951781	0.438614
C34	C	1.585670	-0.951751	0.572996
C35	C	1.585700	-1.061474	0.572961
C36	C	1.373789	-1.061521	0.361003
C37	C	1.373763	-0.951797	0.361033
C38	C	1.518364	-0.233124	0.506006
C39	C	1.518536	-0.116348	0.505756
C40	C	1.518467	-0.506136	0.231942
C41	C	1.518506	-0.506155	0.115165
C42	C	1.585636	-0.438975	0.950574
C43	C	1.585700	-0.439007	1.060298
C44	C	1.451250	-0.573283	1.060302
C45	C	1.451192	-0.573255	0.950580
C46	C	1.663257	-0.361448	0.950573
C47	C	1.663321	-0.361480	1.060297
H48	H	1.919373	-0.628006	0.627822
C49	C	2.134098	-0.647198	0.647028
H50	H	2.085705	-0.687212	0.687018
H51	H	2.176877	-0.607007	0.692823
H52	H	2.176922	-0.692986	0.606811
C53	C	1.377216	-0.647090	0.890243
H54	H	1.337203	-0.687082	0.938633
H55	H	1.417358	-0.692886	0.847366
H56	H	1.331431	-0.606846	0.847515
C57	C	1.413151	-0.905842	0.256630
H58	H	1.430704	-0.961304	0.210113
H59	H	1.473394	-0.863938	0.269128
H60	H	1.359644	-0.863945	0.226233
C61	C	1.377342	-0.647153	1.120648
H62	H	1.337285	-0.687129	1.072260
H63	H	1.331610	-0.606944	1.163527
H64	H	1.417542	-0.692979	1.163372
H65	H	1.744600	-0.383297	0.920711
H66	H	1.292375	-0.922012	0.382826
H67	H	1.929992	-0.284045	0.390457
C68	C	2.119810	-0.400720	0.256845
H69	H	2.064382	-0.418244	0.210333
H70	H	2.161728	-0.460977	0.269297
H71	H	2.161707	-0.347213	0.226466
H72	H	1.740625	-0.390690	1.094237
H73	H	1.640416	-1.106122	0.627649
H74	H	1.634132	-0.284123	0.916627
H75	H	1.934317	-0.383142	0.279898
C76	C	1.633957	-0.251552	1.100654
H77	H	1.634013	-0.251577	1.175111
H78	H	1.566151	-0.233314	1.075921
H79	H	1.683609	-0.201950	1.075838
C80	C	2.113982	-0.251430	0.390775
H81	H	2.188440	-0.251437	0.390763
H82	H	2.089147	-0.233245	0.458583
H83	H	2.089173	-0.201799	0.341156
C84	C	1.659537	-0.891387	0.646921
H85	H	1.649894	-0.818185	0.637327
H86	H	1.730137	-0.909375	0.631545
H87	H	1.644133	-0.909350	0.717510
C88	C	1.403281	-1.101780	0.251075
H89	H	1.415400	-1.043879	0.205891
H90	H	1.347614	-1.143147	0.224025
H91	H	1.465043	-1.143140	0.255494
H92	H	1.296497	-1.095546	0.390139
