data_functionalizedCrystal
_audit_creation_method	'MofGen! by Chris Wilmer'
_symmetry_space_group_name_H-M	'P1'
_symmetry_Int_Tables_number	1
_symmetry_cell_setting	triclinic
loop_
_symmetry_equiv_pos_as_xyz
  x,y,z
_cell_length_a	10.540539
_cell_length_b	10.654550
_cell_length_c	9.730223
_cell_angle_alpha	90.001139
_cell_angle_beta	89.999202
_cell_angle_gamma	84.505197
loop_
_atom_site_label
_atom_site_type_symbol
_atom_site_fract_x
_atom_site_fract_y
_atom_site_fract_z
O1	O	-1.685821	-0.176984	0.114221
O2	O	-1.316402	-0.193660	0.114238
O3	O	-1.509606	-0.002586	0.114224
O4	O	-1.492618	-0.368058	0.114235
O5	O	-1.509593	-0.002596	-0.114356
O6	O	-1.316390	-0.193670	-0.114342
O7	O	-1.685809	-0.176994	-0.114359
Zn8	Zn	-1.501097	-0.185334	-0.150642
Zn9	Zn	-1.501114	-0.185320	0.150522
O10	O	-1.492606	-0.368069	-0.114345
C11	C	-1.269094	-0.192415	-0.000050
C12	C	-1.128147	-0.188673	-0.000044
C13	C	-1.733118	-0.178240	-0.000068
C14	C	-1.874064	-0.181981	-0.000065
C15	C	-1.508352	0.044208	-0.000064
C16	C	-1.504620	0.183652	-0.000059
C17	C	-0.944772	-0.045302	-0.000581
C18	C	-1.091388	-0.049095	-0.000052
C19	C	-1.066457	-0.255838	0.130484
C20	C	-0.919914	-0.251074	0.130579
C21	C	-0.919411	-0.253926	-0.129359
C22	C	-1.066392	-0.255212	-0.131070
C23	C	-1.493859	-0.414862	-0.000054
C24	C	-1.497591	-0.554306	-0.000050
N25	N	-1.501095	-0.185343	-0.356179
C26	C	-1.618375	0.263098	-0.000068
C27	C	-1.614861	0.394120	-0.000059
C28	C	-1.383827	0.366238	-0.000036
C29	C	-1.387343	0.235218	-0.000036
C30	C	-1.735653	0.211532	-0.000092
C31	C	-1.849417	0.290979	-0.000102
C32	C	-1.845903	0.422001	-0.000093
C33	C	-1.728625	0.473576	-0.000072
C34	C	-1.578753	-0.262245	-0.428119
C35	C	-1.578772	-0.262221	-0.572002
C36	C	-1.423465	-0.108391	-0.571991
C37	C	-1.423453	-0.108409	-0.428111
C38	C	-1.656396	-0.339179	-0.356187
C39	C	-1.734059	-0.416089	-0.428127
C40	C	-1.734078	-0.416065	-0.572010
C41	C	-1.656434	-0.339132	-0.643953
N42	N	-1.501126	-0.185301	0.356058
H43	H	-1.134016	0.003754	-0.093620
H44	H	-1.360248	-0.045758	-0.630578
H45	H	-1.725773	0.580264	-0.000049
H46	H	-1.294713	0.170531	-0.000030
N47	N	-1.975904	0.235360	-0.000132
H48	H	-2.025805	0.264248	0.084599
H49	H	-1.960764	0.140314	-0.000194
N50	N	-0.856786	-0.387459	-0.130548
H51	H	-0.886272	-0.433218	-0.213837
H52	H	-0.880982	-0.432389	-0.044414
H53	H	-1.656386	-0.339210	-0.239030
N54	N	-1.657027	-0.338541	-0.799137
H55	H	-1.596245	-0.277952	-0.833790
H56	H	-1.745944	-0.311065	-0.832983
N57	N	-1.098419	-0.390012	-0.141507
H58	H	-1.057485	-0.430288	-0.226583
H59	H	-1.193930	-0.391517	-0.147264
H60	H	-1.288345	0.408241	-0.000021
N61	N	-1.968593	0.507698	-0.000100
H62	H	-2.019720	0.490990	0.084625
H63	H	-2.019592	0.490951	-0.084900
N64	N	-1.817876	-0.498990	-0.649582
H65	H	-1.793642	-0.590136	-0.624565
H66	H	-1.806095	-0.487205	-0.751624
H67	H	-0.914589	0.009611	0.092503
N68	N	-1.339700	-0.025460	-0.350511
H69	H	-1.351484	-0.037139	-0.248449
H70	H	-1.364000	0.065643	-0.375650
N71	N	-1.817808	-0.499047	-0.350533
H72	H	-1.763072	-0.560003	-0.290857
H73	H	-1.867001	-0.547674	-0.418026
N74	N	-0.906938	0.027737	-0.124581
H75	H	-0.843592	-0.027059	-0.181626
H76	H	-0.866932	0.105307	-0.093340
H77	H	-1.133158	0.004135	0.093675
H78	H	-0.871910	-0.351457	0.136506
N79	N	-0.882564	-0.185306	0.259811
H80	H	-0.961261	-0.159675	0.316180
H81	H	-0.839509	-0.107845	0.234392
H82	H	-1.088773	-0.358340	0.135343
N83	N	-0.877659	-0.194105	-0.260426
H84	H	-0.781617	-0.197004	-0.262271
H85	H	-0.915714	-0.103517	-0.264658
H86	H	-1.107367	-0.206145	-0.227634
N87	N	-1.122865	-0.194023	0.259169
H88	H	-1.164924	-0.258133	0.315364
H89	H	-1.188318	-0.122521	0.233108
N90	N	-1.739442	0.070217	-0.000102
H91	H	-1.830995	0.049602	-0.000116
H92	H	-1.694886	0.033279	0.084643
