data_functionalizedCrystal
_audit_creation_method	'MofGen! by Chris Wilmer'
_symmetry_space_group_name_H-M	'P1'
_symmetry_Int_Tables_number	1
_symmetry_cell_setting	triclinic
loop_
_symmetry_equiv_pos_as_xyz
  x,y,z
_cell_length_a	14.908571
_cell_length_b	12.759400
_cell_length_c	14.909227
_cell_angle_alpha	86.676295
_cell_angle_beta	83.209827
_cell_angle_gamma	86.710990
loop_
_atom_site_label
_atom_site_type_symbol
_atom_site_fract_x
_atom_site_fract_y
_atom_site_fract_z
Zn1	Zn	1.413414	-0.473619	-0.591539
Zn2	Zn	1.404590	-0.658904	-0.440176
Zn3	Zn	1.253307	-0.473643	-0.431470
Zn4	Zn	1.262027	-0.639657	-0.582777
O5	O	1.333335	-0.561456	-0.511490
O6	O	1.538911	-0.506243	-0.578770
O7	O	1.377180	-0.642393	-0.312352
O8	O	1.274589	-0.326620	-0.452726
O9	O	1.532428	-0.642370	-0.467565
O10	O	1.392219	-0.326603	-0.570328
O11	O	1.266033	-0.506283	-0.305956
O12	O	1.127796	-0.487620	-0.444231
O13	O	1.289452	-0.609567	-0.710608
O14	O	1.134203	-0.609590	-0.555396
O15	O	1.400674	-0.487579	-0.717045
O16	O	1.385635	-0.803370	-0.459069
O17	O	1.280895	-0.789230	-0.563838
C18	C	1.098156	-0.546519	-0.497918
C19	C	0.997547	-0.540154	-0.492134
C20	C	0.815202	-0.655417	-0.596864
C21	C	0.720671	-0.649439	-0.591432
C22	C	0.713952	-0.522214	-0.475843
C23	C	0.808483	-0.528192	-0.481275
C24	C	0.859105	-0.594797	-0.541786
C25	C	0.953637	-0.600780	-0.547213
C26	C	0.946917	-0.473551	-0.431629
C27	C	0.852386	-0.467573	-0.426197
C28	C	1.333280	-0.834421	-0.511468
C29	C	1.333341	-0.951200	-0.511494
C30	C	1.387947	-1.013390	-0.457009
C31	C	1.388004	-1.123116	-0.457040
C32	C	1.278842	-1.108451	-0.566044
C33	C	1.278790	-0.998727	-0.566017
C34	C	1.442498	-0.965863	-0.402486
C35	C	1.497107	-1.028054	-0.347995
C36	C	1.497165	-1.137779	-0.348026
C37	C	1.442612	-1.185314	-0.402548
C38	C	1.569432	-0.576451	-0.525116
C39	C	1.670042	-0.582841	-0.530922
C40	C	1.347020	-0.546423	-0.747589
C41	C	1.352852	-0.540018	-0.848200
C42	C	1.333415	-0.287425	-0.511534
C43	C	1.333450	-0.170649	-0.511552
C44	C	1.418973	-0.467484	-0.993359
C45	C	1.413498	-0.473499	-0.898826
C46	C	1.297679	-0.600528	-0.892113
C47	C	1.303153	-0.594513	-0.986646
C48	C	1.363802	-0.527987	-1.037266
C49	C	1.369271	-0.521967	-1.131800
C50	C	1.253457	-0.649001	-1.125085
C51	C	1.247982	-0.655017	-1.030552
C52	C	1.319754	-0.576357	-0.276313
C53	C	1.314098	-0.582478	-0.175713
H54	H	0.994852	-0.655015	-0.596484
O55	O	1.477752	-0.402739	-1.042569
C56	C	1.429400	-0.328153	-1.094305
H57	H	1.356460	-0.318954	-1.061698
H58	H	1.430422	-0.355883	-1.165762
C59	C	1.563317	-0.232945	-1.138384
C60	C	1.473733	-0.221639	-1.098332
H61	H	1.590665	-0.167243	-1.140873
H62	H	1.595894	-0.283197	-1.103532
H63	H	1.564156	-0.256057	-1.197928
H64	H	1.472896	-0.198541	-1.038786
H65	H	1.441157	-0.171381	-1.133174
O66	O	0.677881	-0.708222	-0.644895
C67	C	0.583589	-0.688687	-0.627110
H68	H	0.568963	-0.608620	-0.596838
H69	H	0.553948	-0.752299	-0.577276
C70	C	0.558349	-0.787916	-0.753076
C71	C	0.540385	-0.689572	-0.715902
H72	H	0.531697	-0.788466	-0.807845
H73	H	0.621875	-0.801081	-0.765056
H74	H	0.533647	-0.840916	-0.711538
H75	H	0.565096	-0.636576	-0.757435
H76	H	0.476862	-0.676398	-0.703931
O77	O	1.225952	-1.154575	-0.619132
C78	C	1.250864	-1.123189	-0.710495
H79	H	1.323426	-1.097248	-0.719290
H80	H	1.203653	-1.054951	-0.731301
C81	C	1.154706	-1.247988	-0.759504
C82	C	1.243832	-1.216135	-0.770308
H83	H	1.150365	-1.305319	-0.796401
H84	H	1.137920	-1.269131	-0.697951
H85	H	1.115374	-1.191115	-0.776841
H86	H	1.283160	-1.273004	-0.752960
H87	H	1.260625	-1.195004	-0.831859
O88	O	0.864246	-0.720135	-0.655716
C89	C	0.805223	-0.772385	-0.703145
H90	H	0.738026	-0.724895	-0.702472
H91	H	0.793229	-0.853599	-0.669301
C92	C	0.930256	-0.842230	-0.802409
C93	C	0.847726	-0.783897	-0.801589
H94	H	0.956475	-0.849336	-0.863133
H95	H	0.970022	-0.807032	-0.770454
H96	H	0.920250	-0.909902	-0.774201
H97	H	0.857735	-0.716222	-0.829786
H98	H	0.807963	-0.819085	-0.833552
H99	H	0.811157	-0.413342	-0.376932
H100	H	1.418650	-0.467794	-1.173013
O101	O	0.989659	-0.414814	-0.378083
C102	C	1.040904	-0.481716	-0.322656
H103	H	1.056914	-0.560260	-0.355283
H104	H	1.000560	-0.495112	-0.253468
C105	C	1.110089	-0.334133	-0.271427
C106	C	1.129759	-0.430599	-0.311504
H107	H	1.164898	-0.302601	-0.264543
H108	H	1.075562	-0.289058	-0.308766
H109	H	1.076467	-0.345310	-0.213774
H110	H	1.163370	-0.419420	-0.369159
H111	H	1.164294	-0.475671	-0.274174
H112	H	1.442455	-0.876519	-0.402452
O113	O	1.199766	-0.707817	-1.167592
C114	C	1.145083	-0.767840	-1.102639
H115	H	1.138063	-0.728899	-1.035078
H116	H	1.177623	-0.850378	-1.094489
C117	C	1.059495	-0.822339	-1.216940
C118	C	1.050868	-0.774506	-1.133962
H119	H	1.001380	-0.826456	-1.236262
H120	H	1.096339	-0.781904	-1.260701
H121	H	1.086616	-0.891116	-1.210137
H122	H	1.023758	-0.705726	-1.140769
H123	H	1.014017	-0.814930	-1.090203
H124	H	1.234326	-0.948091	-0.610385
H125	H	0.672719	-0.467981	-0.426583
O126	O	1.467125	-0.414617	-0.856316
C127	C	1.521843	-0.354635	-0.921271
H128	H	1.488671	-0.344356	-0.986516
H129	H	1.591160	-0.396835	-0.935288
C130	C	1.573528	-0.258618	-0.805017
C131	C	1.532782	-0.245986	-0.885151
H132	H	1.580280	-0.191600	-0.782736
H133	H	1.536667	-0.299032	-0.761255
H134	H	1.631288	-0.293789	-0.816709
H135	H	1.475018	-0.210829	-0.873456
H136	H	1.569634	-0.205564	-0.928910
H137	H	1.541528	-0.989345	-0.303611
O138	O	1.238899	-0.665324	-0.842965
C139	C	1.260007	-0.769809	-0.867214
H140	H	1.333814	-0.778010	-0.897414
H141	H	1.214628	-0.790729	-0.919250
C142	C	1.154012	-0.834537	-0.745520
C143	C	1.244665	-0.844611	-0.782605
H144	H	1.144545	-0.880680	-0.693331
H145	H	1.139788	-0.764143	-0.729185
H146	H	1.116206	-0.851968	-0.788892
H147	H	1.282468	-0.827167	-0.739237
H148	H	1.258895	-0.915004	-0.798931
O149	O	1.550364	-1.198051	-0.295156
C150	C	1.641689	-1.175569	-0.320248
H151	H	1.645474	-1.093791	-0.355149
H152	H	1.674887	-1.236236	-0.368575
C153	C	1.686843	-1.279969	-0.192361
C154	C	1.691491	-1.179524	-0.235221
H155	H	1.717566	-1.282413	-0.139914
H156	H	1.625316	-1.295119	-0.175458
H157	H	1.714507	-1.330514	-0.232644
H158	H	1.663818	-1.128983	-0.194943
H159	H	1.753015	-1.164365	-0.252116
O160	O	1.442749	-1.291917	-0.402446
C161	C	1.502667	-1.336619	-0.342687
H162	H	1.512288	-1.277578	-0.290526
H163	H	1.570735	-1.357897	-0.382446
C164	C	1.451358	-1.508975	-0.358228
C165	C	1.463168	-1.436464	-0.294158
H166	H	1.426997	-1.570567	-0.328295
H167	H	1.410993	-1.478860	-0.398492
H168	H	1.508085	-1.526695	-0.391356
H169	H	1.406441	-1.418735	-0.261040
H170	H	1.503524	-1.466578	-0.253887
H171	H	1.198607	-0.709183	-0.989325
