data_functionalizedCrystal
_audit_creation_method	'MofGen! by Chris Wilmer'
_symmetry_space_group_name_H-M	'P1'
_symmetry_Int_Tables_number	1
_symmetry_cell_setting	triclinic
loop_
_symmetry_equiv_pos_as_xyz
  x,y,z
_cell_length_a	19.077105
_cell_length_b	18.050589
_cell_length_c	19.076919
_cell_angle_alpha	87.724745
_cell_angle_beta	89.923776
_cell_angle_gamma	87.724731
loop_
_atom_site_label
_atom_site_type_symbol
_atom_site_fract_x
_atom_site_fract_y
_atom_site_fract_z
Zn1	Zn	1.058247	-0.359281	0.440438
Zn2	Zn	1.558247	0.140719	0.940438
Zn3	Zn	1.062879	-0.478689	0.322938
Zn4	Zn	1.562879	0.021311	0.822938
Zn5	Zn	0.945466	-0.349333	0.318231
Zn6	Zn	1.445466	0.150667	0.818231
Zn7	Zn	0.940701	-0.478241	0.435691
Zn8	Zn	1.440701	0.021759	0.935691
O9	O	1.001823	-0.416386	0.379325
O10	O	1.501823	0.083614	0.879325
O11	O	1.157193	-0.379472	0.428809
O12	O	1.657193	0.120528	0.928809
O13	O	1.051237	-0.457554	0.223983
O14	O	1.551237	0.042446	0.723983
O15	O	0.960482	-0.246731	0.334459
O16	O	1.460482	0.253269	0.834459
O17	O	1.160596	-0.467201	0.342482
O18	O	1.660596	0.032799	0.842482
O19	O	1.043342	-0.254040	0.424244
O20	O	1.543342	0.245960	0.924244
O21	O	0.964973	-0.362516	0.220524
O22	O	1.464973	0.137484	0.720524
O23	O	0.846502	-0.362082	0.329856
O24	O	1.346502	0.137918	0.829856
O25	O	0.952361	-0.466437	0.534652
O26	O	1.452361	0.033563	1.034652
O27	O	0.843002	-0.456790	0.416153
O28	O	1.343002	0.043210	0.916153
O29	O	1.038722	-0.379038	0.538140
O30	O	1.538722	0.120962	1.038140
O31	O	1.046617	-0.582551	0.337879
O32	O	1.546617	-0.082551	0.837879
O33	O	0.956853	-0.582222	0.420717
O34	O	1.456853	-0.082222	0.920717
C35	C	0.819256	-0.408308	0.371979
C36	C	1.319256	0.091692	0.871979
C37	C	0.741152	-0.404871	0.368853
C38	C	1.241152	0.095129	0.868853
C39	C	0.702657	-0.452635	0.412244
C40	C	1.202657	0.047365	0.912244
C41	C	0.629270	-0.449396	0.409310
C42	C	1.129270	0.050604	0.909310
C43	C	0.594379	-0.398396	0.362981
C44	C	1.094379	0.101604	0.862981
C45	C	0.632879	-0.350627	0.319588
C46	C	1.132879	0.149373	0.819588
C47	C	0.706264	-0.353863	0.322526
C48	C	1.206264	0.146137	0.822526
C49	C	0.375093	-0.383419	0.349388
C50	C	0.875093	0.116581	0.849388
C51	C	0.301702	-0.380188	0.346452
C52	C	0.801702	0.119812	0.846452
C53	C	0.298098	-0.478956	0.436175
C54	C	0.798098	0.021044	0.936175
C55	C	0.371485	-0.482191	0.439105
C56	C	0.871485	0.017809	0.939105
C57	C	0.409979	-0.434419	0.395715
C58	C	0.909979	0.065581	0.895715
N59	N	0.519366	-0.395085	0.359980
N60	N	1.019366	0.104915	0.859980
N61	N	0.484990	-0.437727	0.398721
N62	N	0.984990	0.062273	0.898721
C63	C	1.001739	-0.609334	0.379310
C64	C	1.501739	-0.109334	0.879310
C65	C	1.001766	-0.691882	0.379329
C66	C	1.501766	-0.191882	0.879329
C67	C	0.952999	-0.891182	0.424363
C68	C	1.452999	-0.391182	0.924363
C69	C	0.938449	-0.937256	0.359556
C70	C	1.438449	-0.437256	0.859556
C71	C	1.001835	-0.843016	0.379341
C72	C	1.501835	-0.343016	0.879341
C73	C	1.016419	-0.944025	0.444157
C74	C	1.516419	-0.444025	0.944157
C75	C	1.001900	-0.989004	0.379358
C76	C	1.501900	-0.489004	0.879358
C77	C	0.987253	-0.887999	0.314499
C78	C	1.487253	-0.387999	0.814499
C79	C	1.065250	-0.894768	0.399145
C80	C	1.565250	-0.394768	0.899145
C81	C	1.050726	-0.940818	0.334295
C82	C	1.550726	-0.440818	0.834295
C83	C	1.001796	-0.758915	0.379332
C84	C	1.501796	-0.258915	0.879332
C85	C	1.001939	-1.073102	0.379360
C86	C	1.501939	-0.573102	0.879360
C87	C	1.185104	-0.424496	0.386700
C88	C	1.685104	0.075504	0.886700
C89	C	1.263207	-0.427952	0.389843
C90	C	1.763207	0.072048	0.889843
C91	C	0.994493	-0.423797	0.562605
C92	C	1.494493	0.076203	1.062605
C93	C	0.991370	-0.426955	0.640709
C94	C	1.491370	0.073045	1.140709
C95	C	1.001926	-0.222686	0.379356
C96	C	1.501926	0.277314	0.879356
C97	C	1.001970	-0.140143	0.379369
C98	C	1.501970	0.359857	0.879369
C99	C	1.009165	-0.408952	0.196759
C100	C	1.509165	0.091048	0.696759
C101	C	1.012425	-0.405591	0.118661
C102	C	1.512425	0.094409	0.618661
C103	C	1.034863	-0.382937	0.679219
C104	C	1.534863	0.117063	1.179219
C105	C	1.031920	-0.385901	0.752605
C106	C	1.531920	0.114099	1.252605
C107	C	0.985486	-0.432888	0.787479
C108	C	1.485486	0.067112	1.287479
C109	C	0.941988	-0.476908	0.748964
C110	C	1.441988	0.023092	1.248964
C111	C	0.944928	-0.473940	0.675579
C112	C	1.444928	0.026060	1.175579
C113	C	0.971867	-0.446642	1.006761
C114	C	1.471867	0.053358	1.506761
C115	C	0.968931	-0.449609	1.080151
C116	C	1.468931	0.050391	1.580151
C117	C	1.058863	-0.358601	1.083787
C118	C	1.558863	0.141399	1.583787
C119	C	1.061802	-0.355639	1.010401
C120	C	1.561802	0.144361	1.510401
C121	C	1.018301	-0.399657	0.971892
C122	C	1.518301	0.100343	1.471892
N123	N	0.982478	-0.435921	0.862492
N124	N	1.482478	0.064079	1.362492
N125	N	1.021307	-0.396619	0.896881
N126	N	1.521307	0.103381	1.396881
H127	H	0.399888	-0.523722	0.476830
H128	H	0.899888	-0.023722	0.976830
H129	H	0.974881	-0.863588	0.259675
H130	H	1.474881	-0.363588	0.759675
H131	H	0.909504	-0.509777	0.644225
H132	H	1.409504	-0.009777	1.144225
H133	H	0.911645	-0.869387	0.462377
H134	H	1.411645	-0.369387	0.962377
H135	H	0.731060	-0.494167	0.449968
H136	H	1.231060	0.005833	0.949968
H137	H	1.092055	-0.962470	0.296183
H138	H	1.592055	-0.462470	0.796183
F139	F	1.078236	-0.339077	0.793588
F140	F	1.578236	0.160923	1.293588
F141	F	0.257126	-0.529796	0.482349
F142	F	0.757126	-0.029796	0.982349
H143	H	1.094278	-0.322763	1.115149
H144	H	1.594278	0.177237	1.615149
F145	F	0.595743	-0.296344	0.270286
F146	F	1.095743	0.203656	0.770286
F147	F	0.868390	-0.961800	0.337665
F148	F	1.368390	-0.461800	0.837665
H149	H	0.273296	-0.338649	0.308729
H150	H	0.773296	0.161351	0.808729
H151	H	0.936456	-0.482496	0.975416
H152	H	1.436456	0.017504	1.475416
F153	F	0.892566	-0.526913	0.786082
F154	F	1.392566	-0.026913	1.286082
F155	F	1.111224	-0.305630	0.973290
F156	F	1.611224	0.194370	1.473290
F157	F	0.416051	-0.332574	0.303209
F158	F	0.916051	0.167426	0.803209
F159	F	0.747233	-0.303025	0.276345
F160	F	1.247233	0.196975	0.776345
H161	H	1.118835	-0.875974	0.415910
H162	H	1.618835	-0.375974	0.915910
H163	H	0.931117	-0.487874	1.108544
H164	H	1.431117	0.012126	1.608544
H165	H	1.028729	-0.968523	0.498964
H166	H	1.528729	-0.468523	0.998964
H167	H	0.597931	-0.488291	0.444643
H168	H	1.097931	0.011709	0.944643
F169	F	1.084289	-0.332930	0.642109
F170	F	1.584289	0.167070	1.142109
