data_functionalizedCrystal
_audit_creation_method	'MofGen! by Chris Wilmer'
_symmetry_space_group_name_H-M	'P1'
_symmetry_Int_Tables_number	1
_symmetry_cell_setting	triclinic
loop_
_symmetry_equiv_pos_as_xyz
  x,y,z
_cell_length_a	21.295417
_cell_length_b	17.077404
_cell_length_c	17.077396
_cell_angle_alpha	90.020778
_cell_angle_beta	89.965204
_cell_angle_gamma	89.973080
loop_
_atom_site_label
_atom_site_type_symbol
_atom_site_fract_x
_atom_site_fract_y
_atom_site_fract_z
Zn1	Zn	-0.250659	-1.199994	-0.443895
Zn2	Zn	-0.355935	-1.199889	-0.312618
Zn3	Zn	-0.250677	-1.068732	-0.312634
Zn4	Zn	-0.355888	-1.068676	-0.443833
O5	O	-0.303290	-1.134323	-0.378245
O6	O	-0.264637	-1.309827	-0.426500
O7	O	-0.342000	-1.182470	-0.202773
O8	O	-0.162586	-1.086211	-0.330079
O9	O	-0.341983	-1.309750	-0.330051
O10	O	-0.162572	-1.182649	-0.426515
O11	O	-0.264668	-1.086109	-0.202785
O12	O	-0.264622	-0.958877	-0.330019
O13	O	-0.341902	-1.086117	-0.553688
O14	O	-0.341919	-0.958837	-0.426410
O15	O	-0.264591	-1.182595	-0.553734
O16	O	-0.444019	-1.182417	-0.329991
O17	O	-0.443984	-1.086015	-0.426395
C18	C	-0.303268	-0.930375	-0.378210
C19	C	-0.303273	-0.843125	-0.378214
C20	C	-0.263089	-0.467348	-0.428554
C21	C	-0.263086	-0.549328	-0.428548
C22	C	-0.303289	-0.590276	-0.378248
C23	C	-0.343502	-0.549240	-0.327956
C24	C	-0.343507	-0.467261	-0.327967
C25	C	-0.343488	-0.720110	-0.327937
C26	C	-0.343482	-0.802094	-0.327925
C27	C	-0.263067	-0.802177	-0.428517
C28	C	-0.263072	-0.720198	-0.428528
C29	C	-0.303284	-0.679167	-0.378235
C30	C	-0.466842	-1.134220	-0.378202
C31	C	-0.536810	-1.134248	-0.378209
C32	C	-0.569674	-1.184489	-0.328064
C33	C	-0.635416	-1.184525	-0.328081
C34	C	-0.668292	-1.134307	-0.378236
C35	C	-0.635421	-1.084063	-0.428392
C36	C	-0.569679	-1.084033	-0.428378
N37	N	-0.771554	-1.065638	-0.384209
N38	N	-0.834006	-1.065669	-0.384217
C39	C	-0.866367	-1.134395	-0.378281
N40	N	-0.833918	-1.203092	-0.372322
N41	N	-0.771460	-1.203060	-0.372309
C42	C	-0.739578	-1.134334	-0.378257
C43	C	-0.970516	-1.184680	-0.328152
C44	C	-1.036260	-1.184718	-0.328175
C45	C	-1.036263	-1.084249	-0.428482
C46	C	-0.970521	-1.084218	-0.428463
C47	C	-0.937651	-1.134432	-0.378294
C48	C	-0.139100	-1.134448	-0.378306
C49	C	-0.069132	-1.134501	-0.378332
C50	C	-0.303239	-1.134362	-0.582989
C51	C	-0.303217	-1.134378	-0.670239
C52	C	-0.303307	-0.339067	-0.378273
C53	C	-0.303297	-0.426317	-0.378265
C54	C	-0.343411	-1.184625	-1.046050
C55	C	-0.343430	-1.184605	-0.964070
C56	C	-0.303173	-1.134429	-0.923088
C57	C	-0.262900	-1.084264	-0.964092
C58	C	-0.262885	-1.084280	-1.046071
C59	C	-0.262932	-1.084234	-0.793222
C60	C	-0.262946	-1.084218	-0.711237
C61	C	-0.343477	-1.184559	-0.711220
C62	C	-0.343462	-1.184576	-0.793199
C63	C	-0.303188	-1.134411	-0.834197
C64	C	-0.303295	-1.134329	-0.174297
C65	C	-0.303140	-1.134465	-0.087048
H66	H	-0.230324	-0.835589	-0.469466
H67	H	-0.376230	-1.225440	-0.930693
H68	H	-0.376250	-0.433854	-0.287018
C69	C	-0.934366	-1.028948	-0.483617
H70	H	-0.890505	-1.036127	-0.476430
H71	H	-0.945182	-0.976218	-0.472081
H72	H	-0.945100	-1.040415	-0.536374
H73	H	-0.376190	-1.225488	-1.079411
H74	H	-0.376239	-0.582586	-0.287005
H75	H	-0.230137	-1.043385	-0.826600
C76	C	-0.533528	-1.028762	-0.483536
H77	H	-0.562521	-0.998855	-0.513409
H78	H	-0.507837	-1.058755	-0.517760
H79	H	-0.507927	-0.994562	-0.453463
H80	H	-1.063030	-1.043364	-0.469322
H81	H	-0.376220	-0.835432	-0.286968
C82	C	-0.934354	-1.239921	-0.272981
H83	H	-0.890494	-1.232702	-0.280148
H84	H	-0.945085	-1.292660	-0.284527
H85	H	-0.945170	-1.228470	-0.220227
C86	C	-0.218867	-0.422312	-0.483888
H87	H	-0.194926	-0.458493	-0.513843
H88	H	-0.191409	-0.390329	-0.453935
H89	H	-0.242991	-0.390341	-0.518039
H90	H	-1.063017	-1.225635	-0.287342
H91	H	-0.230347	-0.582732	-0.469501
C92	C	-0.533521	-1.239731	-0.272889
H93	H	-0.562513	-1.269664	-0.243031
H94	H	-0.507913	-1.209718	-0.238652
H95	H	-0.507837	-1.273907	-0.302952
C96	C	-0.218683	-1.029004	-0.666159
H97	H	-0.194706	-0.999116	-0.702315
H98	H	-0.191260	-1.059028	-0.634187
H99	H	-0.242786	-0.994784	-0.634171
H100	H	-0.230332	-0.686861	-0.469483
H101	H	-0.230125	-1.043406	-0.930718
H102	H	-0.376239	-1.225437	-0.826564
H103	H	-0.662193	-1.043176	-0.469230
C104	C	-0.218585	-1.029107	-1.091168
H105	H	-0.194607	-0.999226	-1.055022
H106	H	-0.242654	-0.994892	-1.123132
H107	H	-0.191153	-1.059168	-1.123166
H108	H	-0.376269	-1.225405	-0.677836
C109	C	-0.671574	-1.239786	-0.272913
H110	H	-0.642582	-1.269683	-0.243029
H111	H	-0.697182	-1.273983	-0.302972
H112	H	-0.697257	-1.209777	-0.238688
C113	C	-0.387719	-0.674977	-0.272614
H114	H	-0.411657	-0.711104	-0.242650
H115	H	-0.415180	-0.642996	-0.302579
H116	H	-0.363600	-0.642994	-0.238471
