data_functionalizedCrystal
_audit_creation_method	'MofGen! by Chris Wilmer'
_symmetry_space_group_name_H-M	'P1'
_symmetry_Int_Tables_number	1
_symmetry_cell_setting	triclinic
loop_
_symmetry_equiv_pos_as_xyz
  x,y,z
_cell_length_a	11.295483
_cell_length_b	12.811524
_cell_length_c	10.489767
_cell_angle_alpha	95.703675
_cell_angle_beta	85.877308
_cell_angle_gamma	80.462898
loop_
_atom_site_label
_atom_site_type_symbol
_atom_site_fract_x
_atom_site_fract_y
_atom_site_fract_z
O1	O	-0.251445	1.411757	-0.150154
O2	O	-0.218230	1.103970	-0.171689
O3	O	-0.235538	1.264848	0.024775
O4	O	-0.234136	1.250879	-0.346618
O5	O	-0.035967	1.250717	0.007546
O6	O	-0.018659	1.089839	-0.188918
O7	O	-0.051873	1.397627	-0.167383
Cu8	Cu	-0.017044	1.242443	-0.179724
Cu9	Cu	-0.253060	1.259154	-0.159348
O10	O	-0.034565	1.236748	-0.363847
C11	C	-0.114190	1.057492	-0.179622
C12	C	-0.101515	0.940055	-0.177577
N13	N	0.148956	1.230697	-0.194054
N14	N	-0.419061	1.270908	-0.145008
C15	C	-0.135627	1.256720	0.063675
C16	C	-0.135251	1.253541	0.205252
C17	C	0.384823	1.355460	-0.041778
C18	C	0.510441	1.346592	-0.052617
C19	C	0.525812	1.204086	-0.226563
C20	C	0.400195	1.212955	-0.215725
C21	C	0.329704	1.288645	-0.123331
C22	C	0.204083	1.297519	-0.112499
C23	C	0.219458	1.155008	-0.286438
C24	C	0.345076	1.146140	-0.297277
C25	C	-0.155916	1.444105	-0.159450
C26	C	-0.168599	1.561542	-0.161494
C27	C	-0.295263	1.734759	-0.154974
C28	C	-0.283345	1.624415	-0.153061
C29	C	-0.065763	1.609020	-0.171846
C30	C	-0.077681	1.719364	-0.173759
C31	C	-0.192434	1.782230	-0.165321
C32	C	-0.204351	1.892577	-0.167225
C33	C	0.013230	1.877179	-0.186020
C34	C	0.025148	1.766835	-0.184106
C35	C	-0.123977	1.149281	0.356533
C36	C	-0.228018	1.208374	0.288425
C37	C	-0.031259	1.194467	0.271479
C38	C	-0.238734	1.307030	0.389409
C39	C	-0.041886	1.293102	0.372461
C40	C	-0.145958	1.352269	0.304405
C41	C	-0.134417	1.244855	0.597246
C42	C	-0.134617	1.247972	0.455646
H43	H	0.146690	1.359153	-0.037270
N44	N	0.148912	1.699027	-0.193215
H45	H	0.140886	1.621757	-0.192173
H46	H	0.192896	1.721971	-0.117663
N47	N	0.308783	1.437103	0.057855
H48	H	0.362763	1.478090	0.107870
H49	H	0.261104	1.399861	0.118604
N50	N	0.084882	1.131472	0.203586
H51	H	0.066367	1.072107	0.141505
H52	H	0.137462	1.100225	0.269110
N53	N	0.160007	1.082928	-0.374390
H54	H	0.223728	1.033634	-0.434561
H55	H	0.103445	1.127531	-0.426145
N56	N	-0.419025	1.802569	-0.145872
H57	H	-0.410971	1.879675	-0.148654
H58	H	-0.465278	1.794603	-0.062382
H59	H	0.096961	1.915841	-0.194443
H60	H	0.555315	1.400998	0.013792
N61	N	-0.354990	1.369991	0.457082
H62	H	-0.363573	1.446441	0.437841
H63	H	-0.353965	1.367351	0.552909
H64	H	0.583223	1.142453	-0.301780
N65	N	0.421108	1.064500	-0.396920
H66	H	0.509051	1.069017	-0.391411
H67	H	0.397732	1.078970	-0.485463
N68	N	-0.111838	1.035621	0.387617
H69	H	-0.182242	1.003733	0.357096
H70	H	-0.110887	1.034342	0.483653
H71	H	-0.367079	1.585769	-0.144638
N72	N	-0.158303	1.466034	0.273680
H73	H	-0.088746	1.498377	0.305717
H74	H	-0.236698	1.508358	0.317186
H75	H	0.027664	1.557815	-0.178728
H76	H	0.036825	1.328836	0.409405
H77	H	-0.297789	1.943761	-0.160353
H78	H	-0.306721	1.172603	0.251504
