data_functionalizedCrystal
_audit_creation_method	'MofGen! by Chris Wilmer'
_symmetry_space_group_name_H-M	'P1'
_symmetry_Int_Tables_number	1
_symmetry_cell_setting	triclinic
loop_
_symmetry_equiv_pos_as_xyz
  x,y,z
_cell_length_a	19.805407
_cell_length_b	16.120444
_cell_length_c	19.805399
_cell_angle_alpha	92.871785
_cell_angle_beta	89.982197
_cell_angle_gamma	92.923874
loop_
_atom_site_label
_atom_site_type_symbol
_atom_site_fract_x
_atom_site_fract_y
_atom_site_fract_z
Zn1	Zn	1.021068	-0.331988	-0.396351
Zn2	Zn	1.354401	0.001346	-0.063018
Zn3	Zn	1.687735	0.334679	0.270315
Zn4	Zn	1.015243	-0.471406	-0.288901
Zn5	Zn	1.348576	-0.138073	0.044432
Zn6	Zn	1.681910	0.195260	0.377765
Zn7	Zn	0.907882	-0.332004	-0.283180
Zn8	Zn	1.241215	0.001329	0.050153
Zn9	Zn	1.574549	0.334662	0.383486
Zn10	Zn	0.902108	-0.471356	-0.402049
Zn11	Zn	1.235442	-0.138022	-0.068716
Zn12	Zn	1.568775	0.195311	0.264617
O13	O	0.961575	-0.401688	-0.342621
O14	O	1.294909	-0.068355	-0.009287
O15	O	1.628242	0.264978	0.324046
O16	O	1.115011	-0.350496	-0.382108
O17	O	1.448345	-0.017163	-0.048774
O18	O	1.781678	0.316170	0.284559
O19	O	1.000980	-0.452943	-0.193427
O20	O	1.334313	-0.119609	0.139906
O21	O	1.667646	0.213724	0.473240
O22	O	0.927750	-0.215336	-0.293414
O23	O	1.261084	0.117998	0.039920
O24	O	1.594417	0.451331	0.373253
O25	O	1.110732	-0.452927	-0.303164
O26	O	1.444065	-0.119593	0.030169
O27	O	1.777398	0.213740	0.363502
O28	O	1.010908	-0.215324	-0.376560
O29	O	1.344241	0.118010	-0.043227
O30	O	1.677574	0.451343	0.290107
O31	O	0.922102	-0.350524	-0.189224
O32	O	1.255435	-0.017191	0.144110
O33	O	1.588769	0.316142	0.477443
O34	O	0.812400	-0.350475	-0.298939
O35	O	1.145733	-0.017142	0.034395
O36	O	1.479067	0.316192	0.367728
O37	O	0.917910	-0.452840	-0.496009
O38	O	1.251243	-0.119507	-0.162676
O39	O	1.584577	0.213827	0.170658
O40	O	0.808158	-0.452856	-0.386272
O41	O	1.141492	-0.119523	-0.052938
O42	O	1.474825	0.213811	0.280395
O43	O	1.005309	-0.350447	-0.491823
O44	O	1.338643	-0.017114	-0.158489
O45	O	1.671976	0.316220	0.174844
O46	O	0.995381	-0.588066	-0.308690
O47	O	1.328715	-0.254733	0.024644
O48	O	1.662048	0.078601	0.357977
O49	O	0.912262	-0.588029	-0.391819
O50	O	1.245595	-0.254695	-0.058486
O51	O	1.578929	0.078638	0.274848
C52	C	0.785720	-0.401662	-0.342603
C53	C	1.119054	-0.068329	-0.009270
C54	C	1.452387	0.265004	0.324064
C55	C	0.710488	-0.401671	-0.342612
C56	C	1.043821	-0.068338	-0.009279
C57	C	1.377155	0.264995	0.324054
C58	C	0.677369	-0.348430	-0.383788
C59	C	1.010702	-0.015097	-0.050455
C60	C	1.344036	0.318237	0.282879
C61	C	0.606680	-0.348435	-0.383791
C62	C	0.940014	-0.015101	-0.050457
C63	C	1.273347	0.318232	0.282876
C64	C	0.569112	-0.401685	-0.342621
C65	C	0.902445	-0.068352	-0.009288
C66	C	1.235779	0.264982	0.324046
C67	C	0.602236	-0.454928	-0.301441
C68	C	0.935569	-0.121595	0.031892
C69	C	1.268902	0.211738	0.365226
C70	C	0.672923	-0.454919	-0.301435
C71	C	1.006257	-0.121586	0.031898
C72	C	1.339590	0.211748	0.365232
C73	C	0.317161	-0.454966	-0.301463
C74	C	0.650494	-0.121632	0.031870
C75	C	0.983828	0.211701	0.365203
C76	C	0.246468	-0.454973	-0.301474
C77	C	0.579802	-0.121639	0.031859
C78	C	0.913135	0.211694	0.365193
C79	C	0.250918	-0.348481	-0.383819
C80	C	0.584251	-0.015148	-0.050486
C81	C	0.917585	0.318185	0.282848
C82	C	0.321605	-0.348472	-0.383813
C83	C	0.654939	-0.015139	-0.050480
C84	C	0.988272	0.318195	0.282854
C85	C	0.354723	-0.401712	-0.342631
C86	C	0.688057	-0.068379	-0.009297
C87	C	1.021390	0.264955	0.324036
C88	C	0.431372	-0.401706	-0.342627
C89	C	0.764705	-0.068372	-0.009294
C90	C	1.098039	0.264961	0.324040
C91	C	0.492464	-0.401696	-0.342628
C92	C	0.825798	-0.068363	-0.009294
C93	C	1.159131	0.264970	0.324039
C94	C	0.952581	-0.618298	-0.351508
C95	C	1.285915	-0.284964	-0.018175
C96	C	1.619248	0.048369	0.315158
C97	C	0.948796	-0.710964	-0.355333
C98	C	1.282129	-0.377630	-0.022000
C99	C	1.615462	-0.044297	0.311334
C100	C	0.981379	-0.921905	-0.322925
C101	C	1.314713	-0.588572	0.010408
C102	C	1.648046	-0.255238	0.343742
C103	C	0.941897	-0.880621	-0.362323
C104	C	1.275230	-0.547287	-0.028990
C105	C	1.608563	-0.213954	0.304343
C106	C	0.945736	-0.786215	-0.358433
C107	C	1.279070	-0.452881	-0.025099
C108	C	1.612403	-0.119548	0.308234
C109	C	0.977540	-1.016319	-0.326815
C110	C	1.310874	-0.682986	0.006519
C111	C	1.644207	-0.349653	0.339852
C112	C	1.138117	-0.401715	-0.342639
C113	C	1.471450	-0.068382	-0.009305
C114	C	1.804784	0.264951	0.324028
C115	C	1.213348	-0.401727	-0.342646
C116	C	1.546682	-0.068393	-0.009313
C117	C	1.880015	0.264940	0.324020
C118	C	0.961615	-0.401636	-0.519161
C119	C	1.294949	-0.068303	-0.185828
C120	C	1.628282	0.265031	0.147505
C121	C	0.961632	-0.401614	-0.594392
C122	C	1.294966	-0.068280	-0.261059
C123	C	1.628299	0.265053	0.072274
C124	C	0.970623	-0.184234	-0.333713
C125	C	1.303956	0.149100	-0.000380
C126	C	1.637289	0.482433	0.332954
C127	C	0.974478	-0.091567	-0.329917
C128	C	1.307811	0.241766	0.003416
C129	C	1.641145	0.575099	0.336749
C130	C	1.007142	-0.348295	-0.627558
C131	C	1.340476	-0.014962	-0.294224
C132	C	1.673809	0.318372	0.039109
C133	C	1.007150	-0.348271	-0.698245
C134	C	1.340484	-0.014937	-0.364912
C135	C	1.673817	0.318396	-0.031578
C136	C	0.961651	-0.401570	-0.735766
C137	C	1.294984	-0.068237	-0.402433
C138	C	1.628318	0.265097	-0.069100
C139	C	0.916136	-0.454891	-0.702596
C140	C	1.249470	-0.121558	-0.369263
C141	C	1.582803	0.211776	-0.035929
C142	C	0.916126	-0.454910	-0.631910
C143	C	1.249459	-0.121577	-0.298576
C144	C	1.582792	0.211756	0.034757
C145	C	0.916178	-0.454813	-0.987666
C146	C	1.249511	-0.121480	-0.654333
C147	C	1.582845	0.211853	-0.321000
C148	C	0.916193	-0.454792	-1.058357
C149	C	1.249527	-0.121458	-0.725024
C150	C	1.582860	0.211875	-0.391691
C151	C	1.007202	-0.348174	-1.054002
C152	C	1.340536	-0.014840	-0.720668
C153	C	1.673869	0.318493	-0.387335
C154	C	1.007192	-0.348193	-0.983315
C155	C	1.340525	-0.014860	-0.649982
C156	C	1.673858	0.318474	-0.316649
C157	C	0.961675	-0.401511	-0.950151
C158	C	1.295008	-0.068177	-0.616818
C159	C	1.628342	0.265156	-0.283485
C160	C	0.961666	-0.401535	-0.873504
C161	C	1.294999	-0.068202	-0.540170
C162	C	1.628333	0.265132	-0.206837
C163	C	0.961663	-0.401550	-0.812413
C164	C	1.294996	-0.068217	-0.479079
C165	C	1.628329	0.265116	-0.145746
C166	C	0.961577	-0.401681	-0.166764
C167	C	1.294910	-0.068347	0.166569
C168	C	1.628243	0.264986	0.499902
C169	C	0.961700	-0.401468	-0.091524
C170	C	1.295034	-0.068135	0.241809
C171	C	1.628367	0.265199	0.575143
H172	H	0.344117	-0.498318	-0.267931
H173	H	0.677450	-0.164985	0.065403
H174	H	1.010783	0.168349	0.398736
C175	C	1.057216	-0.289617	-0.734724
C176	C	1.390549	0.043716	-0.401390
C177	C	1.723882	0.377049	-0.068057
N178	N	1.094927	-0.245437	-0.762199
N179	N	1.428261	0.087896	-0.428865
N180	N	1.761594	0.421230	-0.095532
C181	C	1.030932	-0.873872	-0.273407
C182	C	1.364265	-0.540539	0.059926
C183	C	1.697599	-0.207205	0.393259
N184	N	1.068252	-0.837684	-0.236109
N185	N	1.401585	-0.504350	0.097225
N186	N	1.734918	-0.171017	0.430558
H187	H	0.879061	-0.498320	-0.604907
H188	H	1.212394	-0.164986	-0.271574
H189	H	1.545727	0.168347	0.061759
C190	C	0.570253	-0.289868	-0.429089
C191	C	0.903586	0.043466	-0.095756
C192	C	1.236919	0.376799	0.237578
N193	N	0.542816	-0.245752	-0.463210
N194	N	0.876149	0.087581	-0.129877
N195	N	1.209483	0.420914	0.203456
H196	H	1.044195	-0.304895	-0.597013
H197	H	1.377528	0.028438	-0.263680
H198	H	1.710862	0.361772	0.069654
H199	H	0.879125	-0.498240	-0.960673
H200	H	1.212458	-0.164907	-0.627340
H201	H	1.545791	0.168427	-0.294006
C202	C	0.362927	-0.289890	-0.429100
C203	C	0.696261	0.043444	-0.095767
C204	C	1.029594	0.376777	0.237567
N205	N	0.394050	-0.245760	-0.463208
N206	N	0.727383	0.087573	-0.129875
N207	N	1.060717	0.420906	0.203459
C208	C	1.057241	-0.289557	-0.942046
C209	C	1.390575	0.043777	-0.608713
C210	C	1.723908	0.377110	-0.275379
N211	N	1.094937	-0.245386	-0.910962
N212	N	1.428271	0.087947	-0.577629
N213	N	1.761604	0.421280	-0.244296
C214	C	1.057264	-0.289512	-1.090488
C215	C	1.390598	0.043821	-0.757155
C216	C	1.723931	0.377154	-0.423821
N217	N	1.094970	-0.245329	-1.117969
N218	N	1.428303	0.088004	-0.784635
N219	N	1.761636	0.421337	-0.451302
C220	C	0.560908	-0.513503	-0.256153
C221	C	0.894241	-0.180170	0.077180
C222	C	1.227574	0.153163	0.410514
N223	N	0.529780	-0.557625	-0.222043
N224	N	0.863113	-0.224292	0.111290
N225	N	1.196447	0.109041	0.444624
C226	C	0.892330	-0.928654	-0.411834
C227	C	1.225664	-0.595321	-0.078501
C228	C	1.558997	-0.261988	0.254833
N229	N	0.854996	-0.964837	-0.449122
N230	N	1.188329	-0.631503	-0.115788
N231	N	1.521663	-0.298170	0.217545
H232	H	0.707952	-0.305070	-0.417315
H233	H	1.041286	0.028264	-0.083981
H234	H	1.374619	0.361597	0.249352
H235	H	0.879140	-0.498196	-1.088906
H236	H	1.212473	-0.164863	-0.755572
H237	H	1.545806	0.168471	-0.422239
H238	H	0.699888	-0.498273	-0.267905
H239	H	1.033221	-0.164940	0.065428
H240	H	1.366554	0.168394	0.398761
H241	H	0.879088	-0.498285	-0.733151
H242	H	1.212421	-0.164952	-0.399818
H243	H	1.545755	0.168381	-0.066485
H244	H	0.223945	-0.305128	-0.417349
H245	H	0.557278	0.028206	-0.084016
H246	H	0.890612	0.361539	0.249318
H247	H	0.215882	-0.498338	-0.267946
H248	H	0.549215	-0.165004	0.065387
H249	H	0.882548	0.168329	0.398720
