data_functionalizedCrystal
_audit_creation_method	'MofGen! by Chris Wilmer'
_symmetry_space_group_name_H-M	'P1'
_symmetry_Int_Tables_number	1
_symmetry_cell_setting	triclinic
loop_
_symmetry_equiv_pos_as_xyz
  x,y,z
_cell_length_a	16.959455
_cell_length_b	29.839131
_cell_length_c	16.959447
_cell_angle_alpha	90.041568
_cell_angle_beta	90.014322
_cell_angle_gamma	90.032176
loop_
_atom_site_label
_atom_site_type_symbol
_atom_site_fract_x
_atom_site_fract_y
_atom_site_fract_z
Zn1	Zn	1.208301	-0.178881	0.446847
Zn2	Zn	1.708301	0.321119	0.946847
Zn3	Zn	1.208188	-0.254014	0.314642
Zn4	Zn	1.708188	0.245986	0.814642
Zn5	Zn	1.076129	-0.178895	0.314684
Zn6	Zn	1.576129	0.321105	0.814684
Zn7	Zn	1.076059	-0.253981	0.446781
Zn8	Zn	1.576059	0.246019	0.946781
O9	O	1.142169	-0.216443	0.380739
O10	O	1.642169	0.283557	0.880739
O11	O	1.318896	-0.188856	0.429320
O12	O	1.818896	0.311144	0.929320
O13	O	1.190652	-0.244070	0.204037
O14	O	1.690652	0.255930	0.704037
O15	O	1.093738	-0.116026	0.332261
O16	O	1.593738	0.383974	0.832261
O17	O	1.318814	-0.244056	0.332190
O18	O	1.818814	0.255944	0.832190
O19	O	1.190844	-0.116016	0.429360
O20	O	1.690844	0.383984	0.929360
O21	O	1.093629	-0.188880	0.204068
O22	O	1.593629	0.311120	0.704068
O23	O	0.965509	-0.188847	0.332197
O24	O	1.465509	0.311153	0.832197
O25	O	1.093618	-0.243999	0.557401
O26	O	1.593618	0.256001	1.057401
O27	O	0.965457	-0.244012	0.429248
O28	O	1.465457	0.255988	0.929248
O29	O	1.190776	-0.188823	0.557449
O30	O	1.690776	0.311177	1.057449
O31	O	1.190584	-0.316877	0.332126
O32	O	1.690584	0.183123	0.832126
O33	O	1.093509	-0.316852	0.429207
O34	O	1.593509	0.183148	0.929207
C35	C	0.936803	-0.216428	0.380721
C36	C	1.436803	0.283572	0.880721
C37	C	0.848946	-0.216433	0.380732
C38	C	1.348946	0.283567	0.880732
C39	C	1.142048	-0.333165	0.380672
C40	C	1.642048	0.166835	0.880672
C41	C	1.142069	-0.383100	0.380670
C42	C	1.642069	0.116900	0.880670
C43	C	0.477473	-0.187695	0.330310
C44	C	0.977473	0.312305	0.830310
C45	C	0.477468	-0.245228	0.431213
C46	C	0.977468	0.254772	0.931213
C47	C	0.560014	-0.245221	0.431208
C48	C	1.060014	0.254779	0.931208
C49	C	0.601293	-0.216452	0.380752
C50	C	1.101293	0.283548	0.880752
C51	C	0.560027	-0.187688	0.330302
C52	C	1.060027	0.312312	0.830302
C53	C	0.601287	-0.273987	0.481652
C54	C	1.101287	0.226013	0.981652
C55	C	0.683838	-0.273982	0.481648
C56	C	1.183838	0.226018	0.981648
C57	C	0.725118	-0.245210	0.431196
C58	C	1.225118	0.254790	0.931196
C59	C	0.683847	-0.216445	0.380744
C60	C	1.183847	0.283555	0.880744
C61	C	0.725126	-0.187676	0.330289
C62	C	1.225126	0.312324	0.830289
C63	C	0.683856	-0.158908	0.279840
C64	C	1.183856	0.341092	0.779840
C65	C	0.601307	-0.158916	0.279850
C66	C	1.101307	0.341084	0.779850
C67	C	0.807667	-0.245202	0.431187
C68	C	1.307667	0.254798	0.931187
C69	C	0.807680	-0.187669	0.330281
C70	C	1.307680	0.312331	0.830281
C71	C	1.192721	-0.692703	0.431370
C72	C	1.692721	-0.192703	0.931370
C73	C	1.192807	-0.880376	0.431418
C74	C	1.692807	-0.380376	0.931418
O75	O	1.235755	-0.904607	0.474476
O76	O	1.735755	-0.404607	0.974476
N77	N	1.142303	-0.903885	0.380826
N78	N	1.642303	-0.403885	0.880826
C79	C	1.091771	-0.880473	0.330223
C80	C	1.591771	-0.380473	0.830223
O81	O	1.048811	-0.904775	0.287199
O82	O	1.548811	-0.404775	0.787199
C83	C	1.091682	-0.692800	0.330180
C84	C	1.591682	-0.192800	0.830180
C85	C	1.142194	-0.669294	0.380769
C86	C	1.642194	-0.169294	0.880769
C87	C	1.243229	-0.669196	0.481956
C88	C	1.743229	-0.169196	0.981956
C89	C	1.243210	-0.622281	0.481940
C90	C	1.743210	-0.122281	0.981940
C91	C	1.192683	-0.598872	0.431339
C92	C	1.692683	-0.098872	0.931339
C93	C	1.142175	-0.622379	0.380754
C94	C	1.642175	-0.122379	0.880754
C95	C	1.041146	-0.669389	0.279582
C96	C	1.541146	-0.169389	0.779582
C97	C	1.041127	-0.622468	0.279577
C98	C	1.541127	-0.122468	0.779577
C99	C	1.091639	-0.598962	0.330166
C100	C	1.591639	-0.098962	0.830166
C101	C	1.091630	-0.552054	0.330137
C102	C	1.591630	-0.052054	0.830137
N103	N	1.142133	-0.528545	0.380729
N104	N	1.642133	-0.028545	0.880729
C105	C	1.192660	-0.551954	0.431330
C106	C	1.692660	-0.051954	0.931330
C107	C	1.091823	-0.979003	0.330248
C108	C	1.591823	-0.479003	0.830248
C109	C	1.091846	-1.025921	0.330258
C110	C	1.591846	-0.525921	0.830258
C111	C	1.192881	-1.025821	0.431454
C112	C	1.692881	-0.525821	0.931454
C113	C	1.192861	-0.978902	0.431439
C114	C	1.692861	-0.478902	0.931439
C115	C	1.142326	-0.955494	0.380840
C116	C	1.642326	-0.455494	0.880840
C117	C	1.192617	-0.453428	0.431293
C118	C	1.692617	0.046572	0.931293
C119	C	1.192596	-0.406509	0.431271
C120	C	1.692596	0.093491	0.931271
C121	C	1.091558	-0.406613	0.330078
C122	C	1.591558	0.093387	0.830078
C123	C	1.091582	-0.453528	0.330097
C124	C	1.591582	0.046472	0.830097
C125	C	1.142114	-0.476935	0.380711
C126	C	1.642114	0.023065	0.880711
O127	O	1.048698	-0.527795	0.287109
O128	O	1.548698	-0.027795	0.787109
O129	O	1.235601	-0.527644	0.474360
O130	O	1.735601	-0.027644	0.974360
C131	C	1.192740	-0.739618	0.431386
C132	C	1.692740	-0.239618	0.931386
C133	C	1.142232	-0.763125	0.380800
C134	C	1.642232	-0.263125	0.880800
C135	C	1.091705	-0.739716	0.330199
C136	C	1.591705	-0.239716	0.830199
C137	C	1.142255	-0.810043	0.380810
C138	C	1.642255	-0.310043	0.880810
C139	C	1.192782	-0.833452	0.431411
C140	C	1.692782	-0.333452	0.931411
C141	C	1.243286	-0.809943	0.482002
C142	C	1.743286	-0.309943	0.982002
C143	C	1.243267	-0.763027	0.481987
C144	C	1.743267	-0.263027	0.981987
C145	C	1.041202	-0.763225	0.279608
C146	C	1.541202	-0.263225	0.779608
C147	C	1.041226	-0.810140	0.279627
C148	C	1.541226	-0.310140	0.779627
C149	C	1.091752	-0.833549	0.330228
C150	C	1.591752	-0.333549	0.830228
C151	C	1.348337	-0.216458	0.380757
C152	C	1.848337	0.283542	0.880757
C153	C	1.436194	-0.216465	0.380765
C154	C	1.936194	0.283535	0.880765
C155	C	1.142202	-0.216406	0.586907
C156	C	1.642202	0.283594	1.086907
C157	C	1.142216	-0.216390	0.674764
C158	C	1.642216	0.283610	1.174764
C159	C	1.142312	-0.099264	0.380823
C160	C	1.642312	0.400736	0.880823
C161	C	1.142372	-0.049330	0.380859
C162	C	1.642372	0.450670	0.880859
C163	C	1.142182	-0.216447	0.175372
C164	C	1.642182	0.283553	0.675372
C165	C	1.142321	-0.216337	0.087516
C166	C	1.642321	0.283663	0.587516
C167	C	1.091725	-0.245070	1.046217
C168	C	1.591725	0.254930	1.546217
C169	C	1.192896	-0.187615	1.046262
C170	C	1.692896	0.312385	1.546262
C171	C	1.192875	-0.187625	0.963716
C172	C	1.692875	0.312375	1.463716
C173	C	1.142279	-0.216358	0.922417
C174	C	1.642279	0.283642	1.422417
C175	C	1.091704	-0.245081	0.963663
C176	C	1.591704	0.254919	1.463663
C177	C	1.243455	-0.158905	0.922464
C178	C	1.743455	0.341095	1.422464
C179	C	1.243436	-0.158914	0.839913
C180	C	1.743436	0.341086	1.339913
C181	C	1.192836	-0.187645	0.798612
C182	C	1.692836	0.312355	1.298612
C183	C	1.142258	-0.216369	0.839863
C184	C	1.642258	0.283631	1.339863
C185	C	1.091662	-0.245102	0.798564
C186	C	1.591662	0.254898	1.298564
C187	C	1.041080	-0.273824	0.839814
C188	C	1.541080	0.226176	1.339814
C189	C	1.041103	-0.273812	0.922362
C190	C	1.541103	0.226188	1.422362
C191	C	1.192812	-0.187657	0.716063
C192	C	1.692812	0.312343	1.216063
C193	C	1.091641	-0.245113	0.716010
C194	C	1.591641	0.254887	1.216010
H195	H	0.841283	-0.164238	0.289198
H196	H	1.341283	0.335762	0.789198
H197	H	1.234093	-0.164225	1.079893
H198	H	1.734093	0.335775	1.579893
H199	H	1.284652	-0.135515	0.956096
H200	H	1.784652	0.364485	1.456096
C201	C	0.729274	-0.127261	0.224344
C202	C	1.229274	0.372739	0.724344
N203	N	0.763486	-0.103424	0.182548
N204	N	1.263486	0.396576	0.682548
C205	C	1.035979	-0.276722	0.670587
C206	C	1.535979	0.223278	1.170587
N207	N	0.994054	-0.300529	0.636375
N208	N	1.494054	0.199471	1.136375
C209	C	1.036284	-1.051773	0.274600
C210	C	1.536284	-0.551773	0.774600
N211	N	0.994429	-1.071243	0.232680
N212	N	1.494429	-0.571243	0.732680
C213	C	0.853060	-0.276844	0.486677
C214	C	1.353060	0.223156	0.986677
N215	N	0.887250	-0.300678	0.528477
N216	N	1.387250	0.199322	1.028477
H217	H	0.717433	-0.297406	0.522727
H218	H	1.217433	0.202594	1.022727
H219	H	1.000014	-0.688520	0.238386
H220	H	1.500014	-0.188520	0.738386
C221	C	1.299069	-0.127314	0.794545
C222	C	1.799069	0.372686	1.294545
N223	N	1.340968	-0.103511	0.760374
N224	N	1.840968	0.396489	1.260374
H225	H	1.050670	-0.959948	0.289042
H226	H	1.550670	-0.459948	0.789042
C227	C	0.555904	-0.127277	0.224358
C228	C	1.055904	0.372723	0.724358
N229	N	0.521703	-0.103447	0.182560
N230	N	1.021703	0.396553	0.682560
C231	C	0.985653	-0.835992	0.223971
C232	C	1.485653	-0.335992	0.723971
N233	N	0.943792	-0.855462	0.182058
N234	N	1.443792	-0.355462	0.682058
C235	C	0.985534	-0.596722	0.223910
C236	C	1.485534	-0.096722	0.723910
N237	N	0.943663	-0.577331	0.181981
N238	N	1.443663	-0.077331	0.681981
C239	C	1.248168	-0.380654	0.486923
C240	C	1.748168	0.119346	0.986923
N241	N	1.290024	-0.361183	0.528839
N242	N	1.790024	0.138817	1.028839
H243	H	0.999888	-0.297221	0.806177
H244	H	1.499888	0.202779	1.306177
H245	H	1.050457	-0.472668	0.288897
H246	H	1.550457	0.027332	0.788897
H247	H	0.999925	-0.297198	0.955955
H248	H	1.499925	0.202802	1.455955
C249	C	1.035978	-0.380854	0.274423
C250	C	1.535978	0.119146	0.774423
N251	N	0.994110	-0.361451	0.232508
N252	N	1.494110	0.138549	0.732508
C253	C	0.432058	-0.276874	0.486709
C254	C	0.932058	0.223126	0.986709
N255	N	0.397852	-0.300710	0.528512
N256	N	0.897852	0.199290	1.028512
H257	H	1.233997	-0.164273	0.682481
H258	H	1.733997	0.335727	1.182481
H259	H	0.567671	-0.297413	0.522724
H260	H	1.067671	0.202587	1.022724
C261	C	0.432076	-0.156052	0.274820
C262	C	0.932076	0.343948	0.774820
N263	N	0.397882	-0.132218	0.233023
N264	N	0.897882	0.367782	0.733023
C265	C	1.298781	-0.596430	0.537590
C266	C	1.798781	-0.096430	1.037590
N267	N	1.340641	-0.576962	0.579508
N268	N	1.840641	-0.076962	1.079508
C269	C	1.248210	-0.479169	0.486966
C270	C	1.748210	0.020831	0.986966
N271	N	1.290088	-0.498556	0.528893
N272	N	1.790088	0.001444	1.028893
H273	H	1.050540	-0.268453	1.079806
H274	H	1.550540	0.231547	1.579806
H275	H	1.284374	-0.688251	0.523166
H276	H	1.784374	-0.188251	1.023166
C277	C	1.248425	-0.953050	0.487094
C278	C	1.748425	-0.453050	0.987094
N279	N	1.290277	-0.933580	0.529017
N280	N	1.790277	-0.433580	1.029017
H281	H	1.234022	-1.044889	0.472654
H282	H	1.734022	-0.544889	0.972654
H283	H	1.284429	-0.829010	0.523200
H284	H	1.784429	-0.329010	1.023200
C285	C	1.298836	-0.737176	0.537638
C286	C	1.798836	-0.237176	1.037638
N287	N	1.340694	-0.717708	0.579558
N288	N	1.840694	-0.217708	1.079558
H289	H	1.000056	-0.744169	0.238403
H290	H	1.500056	-0.244169	0.738403
