data_functionalizedCrystal
_audit_creation_method	'MofGen! by Chris Wilmer'
_symmetry_space_group_name_H-M	'P1'
_symmetry_Int_Tables_number	1
_symmetry_cell_setting	triclinic
loop_
_symmetry_equiv_pos_as_xyz
  x,y,z
_cell_length_a	19.188925
_cell_length_b	10.654550
_cell_length_c	9.130313
_cell_angle_alpha	90.004369
_cell_angle_beta	89.995528
_cell_angle_gamma	96.186260
loop_
_atom_site_label
_atom_site_type_symbol
_atom_site_fract_x
_atom_site_fract_y
_atom_site_fract_z
O1	O	0.927171	-0.156747	-0.121831
O2	O	0.723998	-0.177859	-0.121827
O3	O	0.830256	0.015535	-0.121819
O4	O	0.820913	-0.350141	-0.121838
O5	O	0.830249	0.015541	0.121779
O6	O	0.723990	-0.177854	0.121772
O7	O	0.927164	-0.156741	0.121768
Cu8	Cu	0.825577	-0.167297	0.144013
Cu9	Cu	0.825585	-0.167304	-0.144071
O10	O	0.820906	-0.350136	0.121761
C11	C	0.697978	-0.177174	-0.000027
C12	C	0.620460	-0.175125	-0.000025
C13	C	0.059343	-0.274883	-0.000033
C14	C	0.132178	-0.276819	-0.000041
C15	C	0.176371	-0.163341	-0.000033
C16	C	0.147722	-0.047919	-0.000054
C17	C	0.074887	-0.045986	-0.000061
N18	N	0.296508	-0.081186	0.082894
N19	N	0.365697	-0.083030	0.082903
C20	C	0.395818	-0.169158	-0.000016
N21	N	0.354134	-0.253392	-0.082927
N22	N	0.284938	-0.251551	-0.082930
C23	C	0.255349	-0.165425	-0.000027
C24	C	0.503435	-0.286673	-0.000014
C25	C	0.576273	-0.288604	-0.000031
C26	C	0.591815	-0.059701	-0.000029
C27	C	0.518979	-0.057773	-0.000027
C28	C	0.474793	-0.171262	-0.000012
C29	C	0.829566	0.062321	-0.000021
C30	C	0.827514	0.201721	-0.000023
C31	C	0.953183	-0.157427	-0.000035
C32	C	1.030701	-0.159476	-0.000046
C33	C	0.821595	-0.396922	-0.000041
C34	C	0.823648	-0.536322	-0.000048
N35	N	0.825575	-0.167292	0.346635
C36	C	0.890077	0.282533	-0.000025
C37	C	0.888144	0.413513	-0.000043
C38	C	0.761080	0.382856	-0.000051
C39	C	0.763013	0.251879	-0.000043
N40	N	0.825592	-0.167299	-0.346694
C41	C	0.872643	-0.081692	0.423290
C42	C	0.872649	-0.081692	0.576627
C43	C	0.778519	-0.252903	0.576641
C44	C	0.778510	-0.252896	0.423307
H45	H	0.183708	0.044475	-0.000052
Br46	Br	0.615144	-0.445242	-0.000035
Br47	Br	0.936516	0.034486	0.319242
H48	H	0.910975	-0.011988	0.639036
Br49	Br	0.714648	-0.369077	0.680699
Br50	Br	0.977613	0.214465	0.000004
H51	H	0.051569	0.047995	-0.000072
Br52	Br	0.973055	0.523182	-0.000054
Br53	Br	0.678100	0.142196	-0.000061
H54	H	0.708566	0.423711	-0.000064
H55	H	0.740179	-0.322601	0.360890
H56	H	0.023370	-0.367295	-0.000028
Br57	Br	0.443465	-0.440689	0.000005
Br58	Br	0.171059	-0.433454	-0.000024
H59	H	0.495660	0.036205	-0.000029
H60	H	0.627796	0.032695	-0.000034
