data_functionalizedCrystal
_audit_creation_method	'MofGen! by Chris Wilmer'
_symmetry_space_group_name_H-M	'P1'
_symmetry_Int_Tables_number	1
_symmetry_cell_setting	triclinic
loop_
_symmetry_equiv_pos_as_xyz
  x,y,z
_cell_length_a	19.188905
_cell_length_b	19.188930
_cell_length_c	18.266242
_cell_angle_alpha	90.006796
_cell_angle_beta	90.013469
_cell_angle_gamma	83.139668
loop_
_atom_site_label
_atom_site_type_symbol
_atom_site_fract_x
_atom_site_fract_y
_atom_site_fract_z
O1	O	0.926158	0.087081	0.061010
O2	O	1.426158	0.587081	0.561010
O3	O	0.722844	0.098834	0.060986
O4	O	1.222844	0.598834	0.560986
O5	O	0.830369	-0.008699	0.060984
O6	O	1.330369	0.491301	0.560984
O7	O	0.818634	0.194613	0.061011
O8	O	1.318634	0.694613	0.561011
O9	O	0.830355	-0.008695	-0.060778
O10	O	1.330355	0.491305	0.439222
O11	O	0.722831	0.098837	-0.060776
O12	O	1.222831	0.598837	0.439224
O13	O	0.926144	0.087084	-0.060752
O14	O	1.426144	0.587084	0.439248
Zn15	Zn	0.824485	0.092961	-0.080097
Zn16	Zn	1.324485	0.592961	0.419903
Zn17	Zn	0.824504	0.092957	0.080330
Zn18	Zn	1.324504	0.592957	0.580330
O19	O	0.818620	0.194617	-0.060751
O20	O	1.318620	0.694617	0.439249
C21	C	0.829982	-0.034708	0.000101
C22	C	1.329982	0.465292	0.500101
C23	C	0.828841	-0.112213	0.000095
C24	C	1.328841	0.387787	0.500095
C25	C	0.696826	0.098458	0.000102
C26	C	1.196826	0.598458	0.500102
C27	C	0.619321	0.097324	0.000092
C28	C	1.119321	0.597324	0.500092
C29	C	0.582937	0.096777	0.066466
C30	C	1.082937	0.596777	0.566466
C31	C	0.510113	0.095704	0.066475
C32	C	1.010113	0.595704	0.566475
C33	C	0.473678	0.095164	0.000106
C34	C	0.973678	0.595164	0.500106
C35	C	0.510071	0.095714	-0.066277
C36	C	1.010071	0.595714	0.433723
C37	C	0.582892	0.096794	-0.066284
C38	C	1.082892	0.596794	0.433716
N39	N	0.364652	0.053737	-0.049292
N40	N	0.864652	0.553737	0.450708
N41	N	0.295475	0.052709	-0.049280
N42	N	0.795475	0.552709	0.450720
C43	C	0.254272	0.091911	0.000123
C44	C	0.754272	0.591911	0.500123
N45	N	0.284859	0.132171	0.049526
N46	N	0.784859	0.632171	0.549526
N47	N	0.354043	0.133195	0.049517
N48	N	0.854043	0.633195	0.549517
C49	C	0.394716	0.093993	0.000106
C50	C	0.894716	0.593993	0.500106
C51	C	0.138923	0.090202	0.066512
C52	C	0.638923	0.590202	0.566512
C53	C	0.066098	0.089133	0.066518
C54	C	0.566098	0.589133	0.566518
C55	C	0.066058	0.089136	-0.066236
C56	C	0.566058	0.589136	0.433764
C57	C	0.138881	0.090212	-0.066240
C58	C	0.638881	0.590212	0.433760
C59	C	0.175310	0.090742	0.000136
C60	C	0.675310	0.590742	0.500136
C61	C	0.891933	-0.157142	0.000099
C62	C	1.391933	0.342858	0.500099
C63	C	0.890861	-0.229966	0.000110
C64	C	1.390861	0.270034	0.500110
C65	C	0.826694	-0.257857	0.000103
C66	C	1.326694	0.242143	0.500103
C67	C	0.763594	-0.212917	0.000103
C68	C	1.263594	0.287083	0.500103
C69	C	0.764668	-0.140095	0.000099
C70	C	1.264668	0.359905	0.500099
N71	N	0.777641	-0.365856	-0.041341
N72	N	1.277641	0.134144	0.458659
N73	N	0.776626	-0.435035	-0.041338
N74	N	1.276626	0.064965	0.458662
C75	C	0.823456	-0.477265	0.000118
C76	C	1.323456	0.022735	0.500118
N77	N	0.871350	-0.447705	0.041561
N78	N	1.371350	0.052295	0.541561
N79	N	0.872368	-0.378520	0.041556
N80	N	1.372368	0.121480	0.541556
C81	C	0.825523	-0.336819	0.000108
C82	C	1.325523	0.163181	0.500108
C83	C	0.885390	-0.601159	0.000135
C84	C	1.385390	-0.101159	0.500135
C85	C	0.884315	-0.673984	0.000151
C86	C	1.384315	-0.173984	0.500151
C87	C	0.757047	-0.656933	0.000137
C88	C	1.257047	-0.156933	0.500137
C89	C	0.758123	-0.584110	0.000128
C90	C	1.258123	-0.084110	0.500128
C91	C	0.822296	-0.556228	0.000124
C92	C	1.322296	-0.056228	0.500124
C93	C	0.952163	0.087460	0.000134
C94	C	1.452163	0.587460	0.500134
C95	C	1.029668	0.088594	0.000148
C96	C	1.529668	0.588594	0.500148
C97	C	0.819007	0.220626	0.000134
C98	C	1.319007	0.720626	0.500134
C99	C	0.820148	0.298131	0.000145
C100	C	1.320148	0.798131	0.500145
N101	N	0.824478	0.092964	-0.189583
N102	N	1.324478	0.592964	0.310417
C103	C	0.866731	0.135180	-0.771849
C104	C	1.366731	0.635180	-0.271849
C105	C	0.866724	0.135187	-0.695204
C106	C	1.366724	0.635187	-0.195204
C107	C	0.824510	0.092950	-0.656896
C108	C	1.324510	0.592950	-0.156896
C109	C	0.782287	0.050715	-0.695240
C110	C	1.282287	0.550715	-0.195240
C111	C	0.782290	0.050715	-0.771883
C112	C	1.282290	0.550715	-0.271883
N113	N	0.822819	0.031789	-0.536567
N114	N	1.322819	0.531789	-0.036567
N115	N	0.822820	0.031792	-0.463759
N116	N	1.322820	0.531792	0.036241
C117	C	0.824497	0.092950	-0.425974
C118	C	1.324497	0.592950	0.074026
N119	N	0.826186	0.154106	-0.463747
N120	N	1.326186	0.654106	0.036253
N121	N	0.826189	0.154103	-0.536562
N122	N	1.326189	0.654103	-0.036562
C123	C	0.824501	0.092946	-0.573789
C124	C	1.324501	0.592946	-0.073789
C125	C	0.866705	0.135193	-0.304532
C126	C	1.366705	0.635193	0.195468
C127	C	0.866693	0.135201	-0.227886
C128	C	1.366693	0.635201	0.272114
C129	C	0.782260	0.050723	-0.227923
C130	C	1.282260	0.550723	0.272077
C131	C	0.782269	0.050721	-0.304568
C132	C	1.282269	0.550721	0.195432
C133	C	0.824495	0.092954	-0.342868
C134	C	1.324495	0.592954	0.157132
N135	N	0.824516	0.092948	0.189817
N136	N	1.324516	0.592948	0.689817
H137	H	0.480483	0.095260	0.120527
H138	H	0.980483	0.595260	0.620527
H139	H	0.713289	-0.103513	0.000096
H140	H	1.213289	0.396487	0.500096
H141	H	0.942239	-0.266555	0.000116
H142	H	1.442239	0.233445	0.500116
O143	O	0.947680	-0.573984	0.000238
O144	O	1.447680	-0.073984	0.500238
C145	C	0.952118	-0.532371	0.063304
C146	C	1.452118	-0.032371	0.563304
H147	H	0.897032	-0.514059	0.084319
H148	H	1.397032	-0.014059	0.584319
H149	H	0.979801	-0.484771	0.049120
H150	H	1.479801	0.015229	0.549120
H151	H	0.983110	-0.564632	0.107471
H152	H	1.483110	-0.064632	0.607471
H153	H	0.901068	0.169596	-0.196675
H154	H	1.401068	0.669596	0.303325
H155	H	0.747896	0.016327	-0.335780
H156	H	1.247896	0.516327	0.164220
H157	H	0.901114	0.169572	-0.803028
H158	H	1.401114	0.669572	-0.303028
O159	O	0.741240	0.009785	-0.657951
O160	O	1.241240	0.509785	-0.157951
C161	C	0.693458	0.052485	-0.613639
C162	C	1.193458	0.552485	-0.113639
H163	H	0.715028	0.104233	-0.602143
H164	H	1.215028	0.604233	-0.102143
H165	H	0.685763	0.024437	-0.559750
H166	H	1.185763	0.524437	-0.059750
H167	H	0.640945	0.063313	-0.643191
H168	H	1.140945	0.563313	-0.143191
H169	H	0.480401	0.095276	-0.120315
H170	H	0.980401	0.595276	0.379685
H171	H	0.935694	-0.710565	0.000158
H172	H	1.435694	-0.210565	0.500158
H173	H	0.612516	0.097240	-0.120336
H174	H	1.112516	0.597240	0.379664
O175	O	0.030687	0.088510	0.130951
O176	O	0.530687	0.588510	0.630951
C177	C	-0.003322	0.027423	0.134921
C178	C	0.496678	0.527423	0.634921
H179	H	-0.011548	0.007113	0.077289
H180	H	0.488452	0.507113	0.577289
H181	H	-0.056343	0.040261	0.163019
H182	H	0.443657	0.540261	0.663019
H183	H	0.030425	-0.014500	0.167665
H184	H	0.530425	0.485500	0.667665
H185	H	0.711349	-0.235631	0.000099
H186	H	1.211349	0.264369	0.500099
O187	O	0.694775	-0.684134	0.000101
O188	O	1.194775	-0.184134	0.500101
C189	C	0.707355	-0.758044	0.000129
C190	C	1.207355	-0.258044	0.500129
H191	H	0.761891	-0.775320	-0.022919
H192	H	1.261891	-0.275320	0.477081
H193	H	0.666302	-0.780283	-0.035220
H194	H	1.166302	-0.280283	0.464780
H195	H	0.704044	-0.778293	0.058547
H196	H	1.204044	-0.278293	0.558547
H197	H	0.747912	0.016324	-0.803094
H198	H	1.247912	0.516324	-0.303094
O199	O	0.618210	0.097325	0.131007
O200	O	1.118210	0.597325	0.631007
C201	C	0.570476	0.096594	0.189593
C202	C	1.070476	0.596594	0.689593
H203	H	0.515598	0.117925	0.170142
H204	H	1.015598	0.617925	0.670142
H205	H	0.586987	0.130792	0.236021
H206	H	1.086987	0.630792	0.736021
H207	H	0.570244	0.040476	0.209991
H208	H	1.070244	0.540476	0.709991
H209	H	0.901085	0.169586	-0.335718
H210	H	1.401085	0.669586	0.164282
H211	H	0.168584	0.090641	0.120559
H212	H	0.668584	0.590641	0.620559
O213	O	0.030663	0.088483	-0.130691
O214	O	0.530663	0.588483	0.369309
C215	C	-0.003371	0.027411	-0.134657
C216	C	0.496629	0.527411	0.365343
H217	H	0.024248	-0.014517	-0.096994
H218	H	0.524248	0.485483	0.403006
H219	H	-0.001491	0.007104	-0.193363
H220	H	0.498509	0.507104	0.306637
H221	H	-0.060389	0.040261	-0.116823
H222	H	0.439611	0.540261	0.383177
O223	O	0.174126	0.090702	-0.130783
O224	O	0.674126	0.590702	0.369217
C225	C	0.126353	0.090013	-0.189362
C226	C	0.626353	0.590013	0.310638
H227	H	0.077411	0.067144	-0.169902
H228	H	0.577411	0.567144	0.330098
H229	H	0.151922	0.056436	-0.235790
H230	H	0.651922	0.556436	0.264210
H231	H	0.111096	0.145900	-0.209763
H232	H	0.611096	0.645900	0.290237
O233	O	0.954330	-0.130174	0.000131
O234	O	1.454330	0.369826	0.500131
C235	C	1.009787	-0.185453	0.000118
C236	C	1.509787	0.314547	0.500118
H237	H	0.990369	-0.234860	0.023172
H238	H	1.490369	0.265140	0.523172
H239	H	1.054607	-0.170370	0.035470
H240	H	1.554607	0.329630	0.535470
H241	H	1.029227	-0.195827	-0.058296
H242	H	1.529227	0.304173	0.441704
H243	H	0.706747	-0.547527	0.000121
H244	H	1.206747	-0.047527	0.500121
O245	O	0.907800	0.176229	-0.658069
O246	O	1.407800	0.676229	-0.158069
C247	C	0.945055	0.213520	-0.708309
C248	C	1.445055	0.713520	-0.208309
H249	H	0.949218	0.184609	-0.762947
H250	H	1.449218	0.684609	-0.262947
H251	H	0.999942	0.217701	-0.686145
H252	H	1.499942	0.717701	-0.186145
H253	H	0.916130	0.268404	-0.716458
H254	H	1.416130	0.768404	-0.216458
H255	H	0.747885	0.016336	-0.196734
H256	H	1.247885	0.516336	0.303266
