data_functionalizedCrystal
_audit_creation_method	'MofGen! by Chris Wilmer'
_symmetry_space_group_name_H-M	'P1'
_symmetry_Int_Tables_number	1
_symmetry_cell_setting	triclinic
loop_
_symmetry_equiv_pos_as_xyz
  x,y,z
_cell_length_a	7.681481
_cell_length_b	8.559649
_cell_length_c	8.559649
_cell_angle_alpha	110.221336
_cell_angle_beta	85.069100
_cell_angle_gamma	85.086760
loop_
_atom_site_label
_atom_site_type_symbol
_atom_site_fract_x
_atom_site_fract_y
_atom_site_fract_z
O1	O	-0.146402	-2.109661	-0.037797
O2	O	0.353598	-1.609661	0.462203
O3	O	-0.146408	-1.634175	0.045985
O4	O	0.353592	-1.134175	0.545985
O5	O	-0.146402	-1.913809	-0.233649
O6	O	0.353598	-1.413809	0.266351
O7	O	-0.146407	-1.830027	0.241837
O8	O	0.353593	-1.330027	0.741837
O9	O	0.146456	-1.948236	-0.268136
O10	O	0.646456	-1.448236	0.231864
O11	O	0.146450	-1.668602	0.011497
O12	O	0.646450	-1.168602	0.511497
O13	O	0.146457	-2.144088	-0.072285
O14	O	0.646457	-1.644088	0.427715
Zn15	Zn	0.192951	-1.911811	-0.035869
Zn16	Zn	0.692951	-1.411811	0.464131
Zn17	Zn	-0.192902	-1.866452	0.009570
Zn18	Zn	0.307098	-1.366452	0.509570
O19	O	0.146451	-1.864454	0.207349
O20	O	0.646451	-1.364454	0.707349
C21	C	0.000020	-1.591080	0.035090
C22	C	0.500020	-1.091080	0.535090
C23	C	0.000017	-1.411380	0.053990
C24	C	0.500017	-0.911380	0.553990
N25	N	0.456286	-1.942779	-0.066883
N26	N	0.956286	-1.442779	0.433117
C27	C	0.000024	-1.937371	-0.311201
C28	C	0.500024	-1.437371	0.188799
C29	C	0.000014	-1.956269	-0.490899
C30	C	0.500014	-1.456269	0.009101
N31	N	-0.456237	-1.835499	0.040569
N32	N	0.043763	-1.335499	0.540569
C33	C	0.000025	-2.187183	-0.061390
C34	C	0.500025	-1.687183	0.438610
C35	C	0.000016	-2.366881	-0.080288
C36	C	0.500016	-1.866881	0.419712
C37	C	0.000021	-1.840891	0.284902
C38	C	0.500021	-1.340891	0.784902
C39	C	0.000019	-1.821992	0.464601
C40	C	0.500019	-1.321992	0.964601
H41	H	0.468564	-1.725988	0.150245
H42	H	0.968564	-1.225988	0.650245
Cl43	Cl	0.572392	-2.111884	-0.236212
Cl44	Cl	1.072392	-1.611884	0.263788
Cl45	Cl	0.000020	-1.622171	-0.381969
Cl46	Cl	0.500020	-1.122171	0.118031
H47	H	0.000009	-1.466259	-0.209706
H48	H	0.500009	-0.966259	0.290294
Cl49	Cl	-0.000002	-1.257940	0.253823
Cl50	Cl	0.499998	-0.757940	0.753823
H51	H	0.000030	-2.085699	-0.590289
H52	H	0.500030	-1.585699	-0.090289
