data_functionalizedCrystal
_audit_creation_method	'MofGen! by Chris Wilmer'
_symmetry_space_group_name_H-M	'P1'
_symmetry_Int_Tables_number	1
_symmetry_cell_setting	triclinic
loop_
_symmetry_equiv_pos_as_xyz
  x,y,z
_cell_length_a	15.297475
_cell_length_b	25.639239
_cell_length_c	15.298013
_cell_angle_alpha	99.699806
_cell_angle_beta	91.613322
_cell_angle_gamma	80.340538
loop_
_atom_site_label
_atom_site_type_symbol
_atom_site_fract_x
_atom_site_fract_y
_atom_site_fract_z
Zn1	Zn	1.253220	-0.261269	0.726591
Zn2	Zn	1.753220	0.238731	1.226591
Zn3	Zn	1.278446	-0.365914	0.580078
Zn4	Zn	1.778446	0.134086	1.080078
Zn5	Zn	1.132110	-0.266324	0.554821
Zn6	Zn	1.632110	0.233676	1.054821
Zn7	Zn	1.106676	-0.336496	0.701220
Zn8	Zn	1.606676	0.163504	1.201220
O9	O	1.192613	-0.307501	0.640678
O10	O	1.692613	0.192499	1.140678
O11	O	1.379138	-0.285346	0.728345
O12	O	1.879138	0.214654	1.228345
O13	O	1.280236	-0.367130	0.454143
O14	O	1.780236	0.132870	0.954143
O15	O	1.148262	-0.192492	0.577655
O16	O	1.648262	0.307508	1.077655
O17	O	1.397672	-0.362228	0.620702
O18	O	1.897672	0.137772	1.120702
O19	O	1.237241	-0.188778	0.703853
O20	O	1.737241	0.311222	1.203853
O21	O	1.172723	-0.293962	0.435587
O22	O	1.672723	0.206038	0.935587
O23	O	1.006164	-0.265437	0.553053
O24	O	1.506164	0.234563	1.053053
O25	O	1.104914	-0.312090	0.827170
O26	O	1.604914	0.187910	1.327170
O27	O	0.987478	-0.316992	0.660611
O28	O	1.487478	0.183008	1.160611
O29	O	1.212579	-0.256821	0.845810
O30	O	1.712579	0.243179	1.345810
O31	O	1.255574	-0.435173	0.596100
O32	O	1.755574	0.064827	1.096100
O33	O	1.129375	-0.413560	0.685102
O34	O	1.629375	0.086440	1.185102
C35	C	0.965040	-0.288571	0.601338
C36	C	1.465040	0.211429	1.101338
C37	C	0.867679	-0.280483	0.584530
C38	C	1.367679	0.219517	1.084530
C39	C	1.192473	-0.443336	0.640612
C40	C	1.692473	0.056664	1.140612
C41	C	1.192488	-0.501450	0.640627
C42	C	1.692488	-0.001450	1.140627
C43	C	0.554479	-0.365311	0.760814
C44	C	1.054479	0.134689	1.260814
C45	C	0.645955	-0.372914	0.776604
C46	C	1.145955	0.127086	1.276604
C47	C	0.701390	-0.349807	0.728587
C48	C	1.201390	0.150193	1.228587
C49	C	0.665342	-0.319095	0.664777
C50	C	1.165342	0.180905	1.164777
C51	C	0.573858	-0.311495	0.648980
C52	C	1.073858	0.188505	1.148980
C53	C	0.720769	-0.295991	0.616753
C54	C	1.220769	0.204009	1.116753
C55	C	0.684721	-0.265279	0.552943
C56	C	1.184721	0.234721	1.052943
C57	C	0.593246	-0.257679	0.537150
C58	C	1.093246	0.242321	1.037150
C59	C	0.537810	-0.280787	0.585167
C60	C	1.037810	0.219213	1.085167
C61	C	0.812253	-0.303591	0.632550
C62	C	1.312253	0.196409	1.132550
C63	C	0.831631	-0.249775	0.520716
C64	C	1.331631	0.250225	1.020716
C65	C	0.740156	-0.242172	0.504926
C66	C	1.240156	0.257828	1.004926
C67	C	1.258454	-0.873063	0.594455
C68	C	1.758454	-0.373063	1.094455
C69	C	1.258486	-0.927668	0.594473
C70	C	1.758486	-0.427668	1.094473
O71	O	1.314428	-0.965462	0.555145
O72	O	1.814428	-0.465462	1.055145
N73	N	1.192757	-0.943746	0.640762
N74	N	1.692757	-0.443746	1.140762
C75	C	1.126996	-0.905214	0.687045
C76	C	1.626996	-0.405214	1.187045
O77	O	1.071092	-0.923903	0.726420
O78	O	1.571092	-0.423903	1.226420
C79	C	1.126969	-0.850609	0.687032
C80	C	1.626969	-0.350609	1.187032
C81	C	1.192697	-0.834535	0.640732
C82	C	1.692697	-0.334535	1.140732
C83	C	1.324178	-0.856988	0.548160
C84	C	1.824178	-0.356988	1.048160
C85	C	1.324145	-0.802386	0.548141
C86	C	1.824145	-0.302386	1.048141
C87	C	1.258388	-0.763859	0.594418
C88	C	1.758388	-0.263859	1.094418
C89	C	1.192664	-0.779933	0.640713
C90	C	1.692664	-0.279933	1.140713
C91	C	1.061213	-0.812078	0.733319
C92	C	1.561213	-0.312078	1.233319
C93	C	1.061191	-0.757470	0.733303
C94	C	1.561191	-0.257470	1.233303
C95	C	1.126920	-0.741396	0.687002
C96	C	1.626920	-0.241396	1.187002
C97	C	1.126874	-0.686804	0.686971
C98	C	1.626874	-0.186804	1.186971
N99	N	1.192604	-0.670726	0.640681
N100	N	1.692604	-0.170726	1.140681
C101	C	1.258361	-0.709254	0.594405
C102	C	1.758361	-0.209254	1.094405
C103	C	1.127060	-1.019888	0.687070
C104	C	1.627060	-0.519888	1.187070
C105	C	1.127083	-1.074492	0.687078
C106	C	1.627083	-0.574492	1.187078
C107	C	1.258574	-1.096943	0.594507
C108	C	1.758574	-0.596943	1.094507
C109	C	1.258547	-1.042338	0.594494
C110	C	1.758547	-0.542338	1.094494
C111	C	1.192789	-1.003811	0.640780
C112	C	1.692789	-0.503811	1.140780
C113	C	1.258286	-0.594585	0.594368
C114	C	1.758286	-0.094585	1.094368
C115	C	1.258244	-0.539977	0.594350
C116	C	1.758244	-0.039977	1.094350
C117	C	1.126757	-0.517531	0.686925
C118	C	1.626757	-0.017531	1.186925
C119	C	1.126795	-0.572134	0.686939
C120	C	1.626795	-0.072134	1.186939
C121	C	1.192567	-0.610660	0.640659
C122	C	1.692567	-0.110660	1.140659
O123	O	1.070963	-0.648980	0.726281
O124	O	1.570963	-0.148980	1.226281
O125	O	1.314262	-0.690556	0.555045
O126	O	1.814262	-0.190556	1.055045
C127	C	1.421075	-0.326505	0.680171
C128	C	1.921075	0.173495	1.180171
C129	C	1.518431	-0.334603	0.697001
C130	C	2.018431	0.165397	1.197001
C131	C	1.153096	-0.280610	0.869163
C132	C	1.653096	0.219390	1.369163
C133	C	1.136256	-0.269151	0.966531
C134	C	1.636256	0.230849	1.466531
C135	C	1.192774	-0.171135	0.640767
C136	C	1.692774	0.328865	1.140767
C137	C	1.192843	-0.113024	0.640805
C138	C	1.692843	0.386976	1.140805
C139	C	1.312696	-0.389234	1.279631
C140	C	1.812696	0.110766	1.779631
C141	C	1.328513	-0.400004	1.188149
C142	C	1.828513	0.099996	1.688149
C143	C	1.280450	-0.367291	1.132740
C144	C	1.780450	0.132709	1.632740
C145	C	1.216567	-0.323808	1.168822
C146	C	1.716567	0.176192	1.668822
C147	C	1.200743	-0.313040	1.260312
C148	C	1.700743	0.186960	1.760312
C149	C	1.168498	-0.291098	1.113421
C150	C	1.668498	0.208902	1.613421
C151	C	1.104614	-0.247614	1.149503
C152	C	1.604614	0.252386	1.649503
C153	C	1.088794	-0.236848	1.240984
C154	C	1.588794	0.263152	1.740984
C155	C	1.136857	-0.269560	1.296393
C156	C	1.636857	0.230440	1.796393
C157	C	1.184322	-0.301865	1.021931
C158	C	1.684322	0.198135	1.521931
C159	C	1.072369	-0.225671	1.002612
C160	C	1.572369	0.274329	1.502612
C161	C	1.056552	-0.214902	1.094094
C162	C	1.556552	0.285098	1.594094
C163	C	1.231970	-0.334297	1.413079
C164	C	1.731970	0.165703	1.913079
C165	C	1.248809	-0.345754	1.315712
C166	C	1.748809	0.154246	1.815712
H167	H	0.841594	-0.328597	0.684506
H168	H	1.341594	0.171403	1.184506
H169	H	1.004537	-0.179498	1.123485
H170	H	1.504537	0.320502	1.623485
Br171	Br	1.037866	-1.096299	0.749901
Br172	Br	1.537866	-0.596299	1.249901
Br173	Br	0.971947	-0.705185	0.796127
Br174	Br	1.471947	-0.205185	1.296127
H175	H	0.775873	-0.355999	0.741448
H176	H	1.275873	0.144001	1.241448
Br177	Br	1.271016	-0.360877	0.972973
Br178	Br	1.771016	0.139123	1.472973
Br179	Br	1.007122	-0.181281	0.927419
Br180	Br	1.507122	0.318719	1.427419
Br181	Br	1.415208	-0.459014	1.139186
Br182	Br	1.915208	0.040986	1.639186
Br183	Br	1.347452	-0.518167	0.531508
Br184	Br	1.847452	-0.018167	1.031508
H185	H	0.876768	-0.230960	0.481616
H186	H	1.376768	0.269040	0.981616
Br187	Br	1.377903	-0.433630	1.354828
Br188	Br	1.877903	0.066370	1.854828
H189	H	1.036768	-0.201446	1.270357
H190	H	1.536768	0.298554	1.770357
H191	H	1.312069	-1.029255	0.556793
H192	H	1.812069	-0.529255	1.056793
Br193	Br	1.115397	-0.254944	1.420554
Br194	Br	1.615397	0.245056	1.920554
Br195	Br	1.037805	-0.967605	0.749886
Br196	Br	1.537805	-0.467605	1.249886
H197	H	1.073275	-0.585221	0.724643
H198	H	1.573275	-0.085221	1.224643
Br199	Br	0.479248	-0.396684	0.825949
Br200	Br	0.979248	0.103316	1.325949
H201	H	1.007686	-0.825154	0.771017
H202	H	1.507686	-0.325154	1.271017
H203	H	1.073216	-0.486154	0.724600
H204	H	1.573216	0.013846	1.224600
H205	H	1.293332	-0.376063	1.058252
H206	H	1.793332	0.123937	1.558252
H207	H	0.675299	-0.397921	0.828557
H208	H	1.175299	0.102079	1.328557
H209	H	0.563900	-0.232678	0.485182
H210	H	1.063900	0.267322	0.985182
Br211	Br	0.413658	-0.270463	0.563747
Br212	Br	0.913658	0.229537	1.063747
Br213	Br	0.691222	-0.200491	0.418331
Br214	Br	1.191222	0.299509	0.918331
H215	H	1.311845	-0.625948	0.556685
H216	H	1.811845	-0.125948	1.056685
Br217	Br	1.413363	-0.780581	0.485317
Br218	Br	1.913363	-0.280581	0.985317
H219	H	1.377730	-0.888353	0.510476
H220	H	1.877730	-0.388353	1.010476
H221	H	1.312120	-1.128322	0.556829
H222	H	1.812120	-0.628322	1.056829
