data_functionalizedCrystal
_audit_creation_method	'MofGen! by Chris Wilmer'
_symmetry_space_group_name_H-M	'P1'
_symmetry_Int_Tables_number	1
_symmetry_cell_setting	triclinic
loop_
_symmetry_equiv_pos_as_xyz
  x,y,z
_cell_length_a	10.540539
_cell_length_b	14.519709
_cell_length_c	12.996460
_cell_angle_alpha	90.007090
_cell_angle_beta	89.998010
_cell_angle_gamma	95.897182
loop_
_atom_site_label
_atom_site_type_symbol
_atom_site_fract_x
_atom_site_fract_y
_atom_site_fract_z
O1	O	1.684562	-0.129969	-0.085485
O2	O	2.184562	0.370031	0.414515
O3	O	1.315024	-0.142215	-0.085505
O4	O	1.815024	0.357785	0.414495
O5	O	1.509591	-0.001906	-0.085485
O6	O	2.009591	0.498094	0.414515
O7	O	1.489995	-0.270278	-0.085505
O8	O	1.989995	0.229722	0.414495
O9	O	1.509571	-0.001899	0.085649
O10	O	2.009571	0.498101	0.585649
O11	O	1.315004	-0.142207	0.085628
O12	O	1.815004	0.357793	0.585628
O13	O	1.684542	-0.129961	0.085649
O14	O	2.184542	0.370039	0.585649
Cu15	Cu	1.499771	-0.136083	0.101265
Cu16	Cu	1.999771	0.363917	0.601265
Cu17	Cu	1.499795	-0.136093	-0.101121
Cu18	Cu	1.999795	0.363907	0.398879
O19	O	1.489975	-0.270270	0.085629
O20	O	1.989975	0.229730	0.585629
C21	C	1.267720	-0.141293	0.000059
C22	C	1.767720	0.358707	0.500059
C23	C	1.126800	-0.138545	0.000051
C24	C	1.626800	0.361455	0.500051
C25	C	1.731846	-0.130884	0.000083
C26	C	2.231846	0.369116	0.500083
C27	C	1.872766	-0.133631	0.000084
C28	C	2.372766	0.366369	0.500084
C29	C	1.508668	0.032462	0.000082
C30	C	2.008668	0.532462	0.500082
C31	C	1.505931	0.134858	0.000082
C32	C	2.005931	0.634858	0.500082
C33	C	2.055118	-0.238911	0.000437
C34	C	2.555118	0.261089	0.500437
C35	C	1.908528	-0.236126	0.000068
C36	C	2.408528	0.263874	0.500068
C37	C	1.934913	-0.084310	-0.097644
C38	C	2.434913	0.415690	0.402356
C39	C	2.081422	-0.087808	-0.097744
C40	C	2.581422	0.412192	0.402256
C41	C	2.081989	-0.085716	0.096868
C42	C	2.581989	0.414284	0.596868
C43	C	1.935017	-0.084772	0.098176
C44	C	2.435017	0.415228	0.598176
C45	C	1.490899	-0.304639	0.000060
C46	C	1.990899	0.195361	0.500060
C47	C	1.493635	-0.407035	0.000052
C48	C	1.993635	0.092965	0.500052
N49	N	1.499763	-0.136076	0.243612
N50	N	1.999763	0.363924	0.743612
C51	C	1.495856	0.509808	0.000055
C52	C	1.995856	1.009808	0.500055
C53	C	1.498654	0.405485	0.000063
C54	C	1.998654	0.905485	0.500063
C55	C	1.500893	0.322337	0.000070
C56	C	2.000893	0.822337	0.500070
C57	C	1.503692	0.218007	0.000076
C58	C	2.003692	0.718007	0.500076
N59	N	1.499813	-0.136093	-0.243468
N60	N	1.999813	0.363907	0.256532
C61	C	1.499793	-0.136094	0.663426
C62	C	1.999793	0.363906	1.163426
C63	C	1.499781	-0.136092	0.546621
C64	C	1.999781	0.363908	1.046621
C65	C	1.499779	-0.136086	0.453523
C66	C	1.999779	0.363914	0.953523
C67	C	1.499766	-0.136083	0.336710
C68	C	1.999766	0.363917	0.836710
H69	H	1.865538	-0.274938	0.070120
H70	H	2.365538	0.225062	0.570120
H71	H	1.893724	-0.120812	0.170474
H72	H	2.393724	0.379188	0.670474
Cl73	Cl	1.868594	-0.137214	-0.209927
Cl74	Cl	2.368594	0.362786	0.290073
Cl75	Cl	2.130200	-0.136925	0.211216
Cl76	Cl	2.630200	0.363075	0.711216
H77	H	2.083317	-0.279396	0.070509
H78	H	2.583317	0.220604	0.570509
H79	H	2.084902	-0.279236	-0.069260
H80	H	2.584902	0.220764	0.430740
H81	H	2.129967	-0.011683	0.097524
H82	H	2.629967	0.488317	0.597524
Cl83	Cl	1.843420	-0.296464	-0.108274
Cl84	Cl	2.343420	0.203536	0.391726
Cl85	Cl	2.124374	-0.144098	-0.210537
Cl86	Cl	2.624374	0.355902	0.289463
Cl87	Cl	2.156648	0.025993	-0.104606
Cl88	Cl	2.656648	0.525993	0.395394
Cl89	Cl	1.901588	0.031899	-0.103246
Cl90	Cl	2.401588	0.531899	0.396754
Cl91	Cl	1.898800	0.030602	0.107309
Cl92	Cl	2.398800	0.530602	0.607309
