data_functionalizedCrystal
_audit_creation_method	'MofGen! by Chris Wilmer'
_symmetry_space_group_name_H-M	'P1'
_symmetry_Int_Tables_number	1
_symmetry_cell_setting	triclinic
loop_
_symmetry_equiv_pos_as_xyz
  x,y,z
_cell_length_a	13.897449
_cell_length_b	13.897448
_cell_length_c	13.032268
_cell_angle_alpha	97.150371
_cell_angle_beta	82.839289
_cell_angle_gamma	89.979604
loop_
_atom_site_label
_atom_site_type_symbol
_atom_site_fract_x
_atom_site_fract_y
_atom_site_fract_z
Zn1	Zn	1.405368	0.453230	0.590923
Zn2	Zn	1.655368	0.703230	0.840923
Zn3	Zn	1.905368	0.953230	1.090923
Zn4	Zn	2.155368	1.203230	1.340923
Zn5	Zn	1.425755	0.594069	0.416191
Zn6	Zn	1.675755	0.844069	0.666191
Zn7	Zn	1.925755	1.094069	0.916191
Zn8	Zn	2.175755	1.344069	1.166191
Zn9	Zn	1.264555	0.432793	0.416193
Zn10	Zn	1.514555	0.682793	0.666193
Zn11	Zn	1.764555	0.932793	0.916193
Zn12	Zn	2.014555	1.182793	1.166193
Zn13	Zn	1.244040	0.614481	0.590873
Zn14	Zn	1.494040	0.864481	0.840873
Zn15	Zn	1.744040	1.114481	1.090873
Zn16	Zn	1.994040	1.364481	1.340873
O17	O	1.334929	0.523643	0.503545
O18	O	1.584929	0.773643	0.753545
O19	O	1.834929	1.023643	1.003545
O20	O	2.084929	1.273643	1.253545
O21	O	1.543052	0.471923	0.567765
O22	O	1.793052	0.721923	0.817765
O23	O	2.043052	0.971923	1.067765
O24	O	2.293052	1.221923	1.317765
O25	O	1.421489	0.555581	0.269961
O26	O	1.671489	0.805581	0.519961
O27	O	1.921489	1.055581	0.769961
O28	O	2.171489	1.305581	1.019961
O29	O	1.283288	0.300525	0.439393
O30	O	1.533288	0.550525	0.689393
O31	O	1.783288	0.800525	0.939393
O32	O	2.033288	1.050525	1.189393
O33	O	1.558030	0.575397	0.439389
O34	O	1.808030	0.825397	0.689389
O35	O	2.058030	1.075397	0.939389
O36	O	2.308030	1.325397	1.189389
O37	O	1.386743	0.315539	0.567767
O38	O	1.636743	0.565539	0.817767
O39	O	1.886743	0.815539	1.067767
O40	O	2.136743	1.065539	1.317767
O41	O	1.303056	0.437091	0.269962
O42	O	1.553056	0.687091	0.519962
O43	O	1.803056	0.937091	0.769962
O44	O	2.053056	1.187091	1.019962
O45	O	1.126854	0.456883	0.439345
O46	O	1.376854	0.706883	0.689345
O47	O	1.626854	0.956883	0.939345
O48	O	1.876854	1.206883	1.189345
O49	O	1.248322	0.610185	0.737110
O50	O	1.498322	0.860185	0.987110
O51	O	1.748322	1.110185	1.237110
O52	O	1.998322	1.360185	1.487110
O53	O	1.111782	0.590369	0.567681
O54	O	1.361782	0.840369	0.817681
O55	O	1.611782	1.090369	1.067681
O56	O	1.861782	1.340369	1.317681
O57	O	1.366850	0.491715	0.737147
O58	O	1.616850	0.741715	0.987147
O59	O	1.866850	0.991715	1.237147
O60	O	2.116850	1.241715	1.487147
O61	O	1.401596	0.731756	0.439341
O62	O	1.651596	0.981756	0.689341
O63	O	1.901596	1.231756	0.939341
O64	O	2.151596	1.481756	1.189341
O65	O	1.268091	0.746752	0.567679
O66	O	1.518091	0.996752	0.817679
O67	O	1.768091	1.246752	1.067679
O68	O	2.018091	1.496752	1.317679
C69	C	1.084319	0.523624	0.503509
C70	C	1.334319	0.773624	0.753509
C71	C	1.584319	1.023624	1.003509
C72	C	1.834319	1.273624	1.253509
C73	C	0.977104	0.523642	0.503518
C74	C	1.227104	0.773642	0.753518
C75	C	1.477104	1.023642	1.003518
C76	C	1.727104	1.273642	1.253518
C77	C	1.334853	0.774255	0.503527
C78	C	1.584853	1.024255	0.753527
C79	C	1.834853	1.274255	1.003527
C80	C	2.084853	1.524255	1.253527
C81	C	1.334904	0.881472	0.503554
C82	C	1.584904	1.131472	0.753554
C83	C	1.834904	1.381472	1.003554
C84	C	2.084904	1.631472	1.253554
C85	C	0.890033	0.523647	0.503535
C86	C	1.140033	0.773647	0.753535
C87	C	1.390033	1.023647	1.003535
C88	C	1.640033	1.273647	1.253535
C89	C	0.780796	0.523658	0.503567
C90	C	1.030796	0.773658	0.753567
C91	C	1.280796	1.023658	1.003567
C92	C	1.530796	1.273658	1.253567
C93	C	1.334990	1.077776	0.503629
C94	C	1.584990	1.327776	0.753629
C95	C	1.834990	1.577776	1.003629
C96	C	2.084990	1.827776	1.253629
C97	C	1.334939	0.968539	0.503591
C98	C	1.584939	1.218539	0.753591
C99	C	1.834939	1.468539	1.003591
C100	C	2.084939	1.718539	1.253591
C101	C	1.586518	0.523663	0.503582
C102	C	1.836518	0.773663	0.753582
C103	C	2.086518	1.023663	1.003582
C104	C	2.336518	1.273663	1.253582
C105	C	1.693730	0.523672	0.503598
C106	C	1.943730	0.773672	0.753598
C107	C	2.193730	1.023672	1.003598
C108	C	2.443730	1.273672	1.253598
C109	C	1.303024	0.555507	0.776105
C110	C	1.553024	0.805507	1.026105
C111	C	1.803024	1.055507	1.276105
C112	C	2.053024	1.305507	1.526105
C113	C	1.289427	0.569085	0.892253
C114	C	1.539427	0.819085	1.142253
C115	C	1.789427	1.069085	1.392253
C116	C	2.039427	1.319085	1.642253
C117	C	1.335020	1.272056	0.503598
C118	C	1.585020	1.522056	0.753598
C119	C	1.835020	1.772056	1.003598
C120	C	2.085020	2.022056	1.253598
C121	C	1.335034	1.164849	0.503652
C122	C	1.585034	1.414849	0.753652
C123	C	1.835034	1.664849	1.003652
C124	C	2.085034	1.914849	1.253652
C125	C	1.366767	0.491834	0.232046
C126	C	1.616767	0.741834	0.482046
C127	C	1.866767	0.991834	0.732046
C128	C	2.116767	1.241834	0.982046
C129	C	1.380550	0.477984	0.115898
C130	C	1.630550	0.727984	0.365898
C131	C	1.880550	0.977984	0.615898
C132	C	2.130550	1.227984	0.865898
C133	C	1.342010	0.516522	0.944054
C134	C	1.592010	0.766522	1.194054
C135	C	1.842010	1.016522	1.444054
C136	C	2.092010	1.266522	1.694054
C137	C	1.327959	0.530554	1.064100
C138	C	1.577959	0.780554	1.314100
C139	C	1.827959	1.030554	1.564100
C140	C	2.077959	1.280554	1.814100
H141	H	1.397428	0.461128	0.899529
H142	H	1.647428	0.711128	1.149529
H143	H	1.897428	0.961128	1.399529
H144	H	2.147428	1.211128	1.649529
C145	C	1.454588	0.404189	1.056669
C146	C	1.704588	0.654189	1.306669
C147	C	1.954588	0.904189	1.556669
C148	C	2.204588	1.154189	1.806669
C149	C	1.546942	0.428248	1.083158
C150	C	1.796942	0.678248	1.333158
C151	C	2.046942	0.928248	1.583158
C152	C	2.296942	1.178248	1.833158
C153	C	1.615163	0.360284	1.028623
C154	C	1.865163	0.610284	1.278623
C155	C	2.115163	0.860284	1.528623
C156	C	2.365163	1.110284	1.778623
H157	H	1.454335	0.404515	0.983860
H158	H	1.704335	0.654515	1.233860
H159	H	1.954335	0.904515	1.483860
H160	H	2.204335	1.154515	1.733860
H161	H	1.438477	0.341435	1.074534
H162	H	1.688477	0.591435	1.324534
H163	H	1.938477	0.841435	1.574534
H164	H	2.188477	1.091435	1.824534
H165	H	1.563049	0.490985	1.065287
H166	H	1.813049	0.740985	1.315287
H167	H	2.063049	0.990985	1.565287
H168	H	2.313049	1.240985	1.815287
H169	H	1.547227	0.427915	1.155958
H170	H	1.797227	0.677915	1.405958
H171	H	2.047227	0.927915	1.655958
H172	H	2.297227	1.177915	1.905958
H173	H	1.599052	0.297530	1.046488
H174	H	1.849052	0.547530	1.296488
H175	H	2.099052	0.797530	1.546488
H176	H	2.349052	1.047530	1.796488
H177	H	1.614901	0.360615	0.955817
H178	H	1.864901	0.610615	1.205817
H179	H	2.114901	0.860615	1.455817
H180	H	2.364901	1.110615	1.705817
H181	H	1.677832	0.376593	1.046596
H182	H	1.927832	0.626593	1.296596
H183	H	2.177832	0.876593	1.546596
H184	H	2.427832	1.126593	1.796596
H185	H	1.272528	0.585942	1.108620
H186	H	1.522528	0.835942	1.358620
H187	H	1.772528	1.085942	1.608620
H188	H	2.022528	1.335942	1.858620
H189	H	1.234000	0.624469	0.936778
H190	H	1.484000	0.874469	1.186778
H191	H	1.734000	1.124469	1.436778
H192	H	1.984000	1.374469	1.686778
