data_functionalizedCrystal
_audit_creation_method	'MofGen! by Chris Wilmer'
_symmetry_space_group_name_H-M	'P1'
_symmetry_Int_Tables_number	1
_symmetry_cell_setting	triclinic
loop_
_symmetry_equiv_pos_as_xyz
  x,y,z
_cell_length_a	10.654545
_cell_length_b	17.019294
_cell_length_c	9.130313
_cell_angle_alpha	86.116514
_cell_angle_beta	89.996934
_cell_angle_gamma	83.937426
loop_
_atom_site_label
_atom_site_type_symbol
_atom_site_fract_x
_atom_site_fract_y
_atom_site_fract_z
O1	O	1.666108	0.110778	-0.135754
O2	O	1.300464	0.121337	-0.137092
O3	O	1.493486	0.001280	-0.121940
O4	O	1.473085	0.230834	-0.150906
O5	O	1.493473	0.001277	0.121660
O6	O	1.300450	0.121334	0.106508
O7	O	1.666095	0.110774	0.107845
Cu8	Cu	1.483271	0.116054	0.129419
Cu9	Cu	1.483287	0.116058	-0.158665
O10	O	1.473072	0.230831	0.092693
C11	C	1.253671	0.120561	-0.015195
C12	C	1.114264	0.118243	-0.014905
C13	C	1.048769	0.117150	0.118020
C14	C	0.917784	0.114960	0.118296
C15	C	0.917799	0.114958	-0.147289
C16	C	1.048783	0.117143	-0.147563
C17	C	1.492706	-0.028115	0.003566
C18	C	1.490385	-0.115698	0.014608
C19	C	1.489305	-0.156838	-0.112989
C20	C	1.487117	-0.239131	-0.102609
C21	C	1.486018	-0.280283	0.035370
C22	C	1.487094	-0.239137	0.162976
C23	C	1.489273	-0.156845	0.152595
C24	C	1.479429	-0.528752	0.073358
C25	C	1.477253	-0.611050	0.083730
C26	C	1.477274	-0.611039	-0.181857
C27	C	1.479461	-0.528746	-0.192226
C28	C	1.480530	-0.487606	-0.064619
C29	C	1.483785	-0.364400	0.045983
C30	C	1.482754	-0.403490	-0.075234
C31	C	1.712887	0.111550	-0.014054
C32	C	1.852295	0.113868	-0.014354
C33	C	1.473853	0.260226	-0.032816
C34	C	1.476173	0.347809	-0.043867
N35	N	1.483270	0.116050	0.332042
N36	N	1.483299	0.116055	-0.361288
C37	C	1.568769	0.062912	0.415400
C38	C	1.568781	0.062912	0.568737
C39	C	1.397791	0.169196	0.555343
C40	C	1.397774	0.169191	0.402010
H41	H	1.490207	-0.123339	-0.225346
H42	H	0.864464	0.114070	0.226536
Br43	Br	1.484250	-0.347640	-0.262485
Br44	Br	1.684813	-0.009211	0.681865
Br45	Br	1.482281	-0.420255	0.233235
H46	H	1.102080	0.118046	0.226038
H47	H	1.328183	0.212464	0.612326
H48	H	1.486243	-0.272625	-0.206513
H49	H	0.864468	0.114064	-0.255294
H50	H	1.638383	0.019640	0.358437
H51	H	1.102111	0.118031	-0.255812
Br52	Br	1.480961	-0.472903	-0.379490
Br53	Br	1.281722	0.241307	0.288868
H54	H	1.476400	-0.644544	-0.285747
H55	H	1.480325	-0.495268	0.177265
Br56	Br	1.485581	-0.294983	0.350236
Br57	Br	1.475775	-0.666901	0.270999
H58	H	1.490135	-0.123348	0.256499
