data_functionalizedCrystal
_audit_creation_method	'MofGen! by Chris Wilmer'
_symmetry_space_group_name_H-M	'P1'
_symmetry_Int_Tables_number	1
_symmetry_cell_setting	triclinic
loop_
_symmetry_equiv_pos_as_xyz
  x,y,z
_cell_length_a	23.532355
_cell_length_b	23.532357
_cell_length_c	10.868271
_cell_angle_alpha	89.989339
_cell_angle_beta	90.001502
_cell_angle_gamma	82.827896
loop_
_atom_site_label
_atom_site_type_symbol
_atom_site_fract_x
_atom_site_fract_y
_atom_site_fract_z
O1	O	0.755266	0.068996	-0.102170
O2	O	0.589397	0.079030	-0.102211
O3	O	0.677348	-0.008921	-0.102164
O4	O	0.667315	0.156948	-0.102217
O5	O	0.677341	-0.008925	0.102481
O6	O	0.589390	0.079027	0.102434
O7	O	0.755259	0.068993	0.102475
Zn8	Zn	0.672323	0.074009	0.134946
Zn9	Zn	0.672333	0.074014	-0.134682
O10	O	0.667308	0.156945	0.102428
C11	C	0.568177	0.078778	0.000107
C12	C	0.504958	0.078024	0.000092
C13	C	0.112941	0.073284	0.111697
C14	C	0.053542	0.072566	0.111702
O15	O	0.022820	0.072174	0.206571
N16	N	0.023837	0.072212	0.000151
C17	C	0.053536	0.072570	-0.111413
O18	O	0.022816	0.072203	-0.206296
C19	C	0.112935	0.073284	-0.111417
C20	C	0.142636	0.073643	0.000142
C21	C	0.142642	0.073643	0.223246
C22	C	0.202037	0.074361	0.223241
C23	C	0.231731	0.074721	0.111686
C24	C	0.202031	0.074362	0.000136
C25	C	0.142633	0.073637	-0.222979
C26	C	0.202036	0.074350	-0.222973
C27	C	0.231736	0.074710	-0.111415
C28	C	0.291120	0.075440	-0.111424
N29	N	0.320824	0.075794	0.000127
C30	C	0.291130	0.075434	0.111682
C31	C	-0.071205	0.071071	-0.111397
C32	C	-0.130603	0.070362	-0.111394
C33	C	-0.130593	0.070357	0.111721
C34	C	-0.071194	0.071070	0.111717
C35	C	-0.041501	0.071425	0.000155
C36	C	0.415864	0.076944	0.111662
C37	C	0.475264	0.077665	0.111647
C38	C	0.475249	0.077666	-0.111468
C39	C	0.415854	0.076948	-0.111453
C40	C	0.386163	0.076585	0.000122
O41	O	0.321880	0.075830	-0.206245
O42	O	0.321859	0.075794	0.206549
C43	C	0.677094	-0.030140	0.000162
C44	C	0.676339	-0.093358	0.000174
C45	C	0.671606	-0.485367	-0.111446
C46	C	0.670889	-0.544766	-0.111453
O47	O	0.670502	-0.575481	-0.206323
N48	N	0.670529	-0.574479	0.000097
C49	C	0.670881	-0.544789	0.111662
O50	O	0.670509	-0.575516	0.206544
C51	C	0.671594	-0.485390	0.111668
C52	C	0.671960	-0.455681	0.000110
C53	C	0.671971	-0.455657	-0.222994
C54	C	0.672689	-0.396262	-0.222986
C55	C	0.673043	-0.366576	-0.111430
C56	C	0.672678	-0.396286	0.000118
C57	C	0.671942	-0.455700	0.223231
C58	C	0.672655	-0.396297	0.223228
C59	C	0.673020	-0.366588	0.111670
C60	C	0.673750	-0.307205	0.111682
N61	N	0.674109	-0.277492	0.000132
C62	C	0.673756	-0.307178	-0.111424
C63	C	0.669382	-0.669530	0.111641
C64	C	0.668673	-0.728928	0.111637
C65	C	0.668680	-0.728901	-0.111479
C66	C	0.669393	-0.669502	-0.111473
C67	C	0.669742	-0.639817	0.000091
C68	C	0.675265	-0.182444	-0.111400
C69	C	0.675985	-0.123044	-0.111382
C70	C	0.675976	-0.123076	0.111732
C71	C	0.675258	-0.182471	0.111715
C72	C	0.674901	-0.212153	0.000139
O73	O	0.674135	-0.276452	0.206504
O74	O	0.674121	-0.276442	-0.206290
C75	C	0.776479	0.069245	0.000155
C76	C	0.839698	0.069999	0.000161
C77	C	0.667562	0.178163	0.000099
C78	C	0.668317	0.241381	0.000080
N79	N	0.672321	0.074006	0.318960
N80	N	0.672339	0.074013	-0.318696
C81	C	0.672330	0.074013	0.569966
C82	C	0.672323	0.074011	0.430289
H83	H	0.226209	0.074639	-0.313823
H84	H	0.668390	-0.753082	-0.202314
Br85	Br	0.515568	0.078156	0.263058
H86	H	0.118461	0.073344	-0.313822
Br87	Br	-0.030913	0.071558	-0.262818
H88	H	0.668385	-0.753113	0.202478
H89	H	0.669668	-0.645364	0.202495
H90	H	0.391696	0.076653	0.202517
H91	H	0.672930	-0.372129	0.314079
Br92	Br	0.674775	-0.222793	0.263116
Br93	Br	0.375543	0.076472	-0.262855
H94	H	0.499436	0.077961	-0.202293
H95	H	0.118471	0.073349	0.314093
H96	H	0.672984	-0.372078	-0.313828
H97	H	0.676266	-0.098895	0.202558
Br98	Br	0.669889	-0.629189	-0.262877
H99	H	-0.047016	0.071364	0.202558
H100	H	0.676284	-0.098858	-0.202230
H101	H	-0.154781	0.070063	0.202555
H102	H	0.674971	-0.206604	-0.202256
H103	H	0.671645	-0.479879	0.314074
Br104	Br	0.242336	0.074847	0.374650
Br105	Br	-0.170906	0.069888	-0.262801
H106	H	0.671681	-0.479821	-0.313841
