data_functionalizedCrystal
_audit_creation_method	'MofGen! by Chris Wilmer'
_symmetry_space_group_name_H-M	'P1'
_symmetry_Int_Tables_number	1
_symmetry_cell_setting	triclinic
loop_
_symmetry_equiv_pos_as_xyz
  x,y,z
_cell_length_a	10.540539
_cell_length_b	9.016244
_cell_length_c	10.540539
_cell_angle_alpha	89.999933
_cell_angle_beta	95.474508
_cell_angle_gamma	90.005301
loop_
_atom_site_label
_atom_site_type_symbol
_atom_site_fract_x
_atom_site_fract_y
_atom_site_fract_z
O1	O	1.685893	0.123263	-0.178895
O2	O	1.316480	0.123280	-0.195751
O3	O	1.509614	0.123269	-0.002617
O4	O	1.492759	0.123274	-0.372030
O5	O	1.509586	-0.123411	-0.002621
O6	O	1.316452	-0.123400	-0.195755
O7	O	1.685865	-0.123418	-0.178900
Cu8	Cu	1.501156	-0.145933	-0.187328
Cu9	Cu	1.501189	0.145795	-0.187323
O10	O	1.492730	-0.123407	-0.372034
C11	C	1.269163	-0.000058	-0.194489
C12	C	1.128215	-0.000051	-0.190707
N13	N	1.501141	-0.351119	-0.187331
C14	C	0.944788	-0.000628	-0.045790
C15	C	1.091406	-0.000057	-0.049624
C16	C	1.066558	0.140811	-0.258600
C17	C	0.920014	0.140914	-0.253785
C18	C	0.919493	-0.139608	-0.256660
C19	C	1.066475	-0.141455	-0.257960
C20	C	1.397510	-0.586146	-0.290298
C21	C	1.397739	-0.414255	-0.290684
C22	C	1.633864	-0.413464	-0.217464
C23	C	1.633298	-0.585409	-0.218193
C24	C	1.473367	-0.585663	-0.053892
C25	C	1.470322	-0.413709	-0.054757
C26	C	1.733182	-0.000077	-0.180161
C27	C	1.874130	-0.000074	-0.183943
C28	C	1.508336	-0.000068	0.044684
C29	C	1.504554	-0.000060	0.185632
N30	N	1.501213	0.350982	-0.187310
C31	C	1.494008	-0.000066	-0.419335
C32	C	1.497790	-0.000064	-0.560283
C33	C	1.359637	0.000500	0.369059
C34	C	1.363471	-0.000055	0.222441
C35	C	1.572434	-0.140930	0.247287
C36	C	1.567619	-0.141049	0.393832
C37	C	1.570520	0.139473	0.394355
C38	C	1.571820	0.141336	0.247373
H39	H	1.134008	-0.101034	0.003797
H40	H	1.133163	0.101092	0.004177
F41	F	1.286803	0.132543	0.406440
F42	F	1.268823	-0.359159	-0.267050
H43	H	1.548979	-0.626319	0.022762
H44	H	0.887935	-0.246381	-0.211004
H45	H	1.676041	-0.146173	0.224933
F46	F	1.510773	-0.277949	0.191609
H47	H	0.891816	0.246209	-0.203602
H48	H	1.304121	-0.099949	0.399265
H49	H	1.309661	-0.101200	0.180683
F50	F	0.857312	0.149273	-0.386404
H51	H	1.517429	-0.246347	0.422030
F52	F	0.857766	-0.140852	-0.389855
F53	F	1.122236	0.277837	-0.196952
H54	H	1.669083	-0.147444	0.441800
H55	H	1.658762	-0.370386	-0.313702
F56	F	1.510845	0.279031	0.435585
F57	F	1.293657	0.131935	0.166754
F58	F	1.420612	-0.642577	-0.418951
F59	F	1.507411	0.277569	0.193376
H60	H	1.088912	0.146054	-0.362208
H61	H	1.415639	-0.373108	-0.389668
H62	H	1.657653	-0.625498	-0.315531
F63	F	1.119873	-0.277663	-0.193028
H64	H	1.712941	-0.626995	-0.146204
F65	F	1.737198	-0.360012	-0.122095
F66	F	1.342701	-0.360453	-0.024900
F67	F	1.706267	0.152457	0.215709
F68	F	1.703715	0.140709	0.456084
F69	F	0.907404	-0.132671	0.027058
H70	H	0.914592	0.099828	0.009712
F71	F	1.349517	-0.642403	-0.016425
H72	H	1.090700	-0.149959	-0.360819
H73	H	1.298584	-0.627535	-0.272446
F74	F	1.562515	-0.357558	0.050230
