data_functionalizedCrystal
_audit_creation_method	'MofGen! by Chris Wilmer'
_symmetry_space_group_name_H-M	'P1'
_symmetry_Int_Tables_number	1
_symmetry_cell_setting	triclinic
loop_
_symmetry_equiv_pos_as_xyz
  x,y,z
_cell_length_a	31.640172
_cell_length_b	18.878441
_cell_length_c	18.878441
_cell_angle_alpha	89.999813
_cell_angle_beta	60.007274
_cell_angle_gamma	59.999889
loop_
_atom_site_label
_atom_site_type_symbol
_atom_site_fract_x
_atom_site_fract_y
_atom_site_fract_z
Zr1	Zr	0.462599	-0.092970	0.682487
O2	O	0.550761	-0.206068	0.569404
O3	O	0.374433	-0.058301	0.717138
O4	O	0.462597	-0.206075	0.717159
O5	O	0.462600	0.058273	0.569383
O6	O	0.462600	-0.206079	0.833727
O7	O	0.462597	-0.058294	0.569383
O8	O	0.304891	0.058261	0.833690
O9	O	0.620308	-0.206067	0.569420
O10	O	0.410700	-0.043517	0.818927
O11	O	0.410700	0.043480	0.731934
O12	O	0.514501	-0.130505	0.731958
O13	O	0.514501	-0.043509	0.644965
Zr14	Zr	0.462607	0.092935	0.868398
Zr15	Zr	0.462603	-0.092977	0.868399
Zr16	Zr	0.462603	0.092942	0.682486
Zr17	Zr	0.573519	-0.092968	0.682512
Zr18	Zr	0.351686	0.092933	0.868372
O19	O	0.550772	0.058266	0.833746
O20	O	0.550766	-0.206077	0.833748
O21	O	0.550766	0.058275	0.569403
O22	O	0.374445	0.206033	0.981480
O23	O	0.374439	-0.058310	0.981482
O24	O	0.374439	0.206042	0.717137
O25	O	0.462606	-0.058308	0.981502
O26	O	0.462608	0.206040	0.833725
O27	O	0.462606	0.206044	0.717157
O28	O	0.462608	0.058259	0.981501
O29	O	0.620311	-0.206072	0.717196
O30	O	0.304894	0.206037	0.833689
O31	O	0.304897	0.206032	0.981464
O32	O	0.304894	0.058256	0.981465
O33	O	0.620311	-0.058291	0.569420
O34	O	0.620314	-0.058296	0.717195
O35	O	0.410704	0.130470	0.818926
O36	O	0.410704	0.043474	0.905920
O37	O	0.514505	-0.043515	0.818951
O38	O	0.514505	0.043482	0.731957
C39	C	0.323858	-0.000020	0.775410
C40	C	0.276770	-0.000021	0.775400
C41	C	0.462598	-0.000010	0.542894
C42	C	0.462596	-0.000007	0.463970
C43	C	0.462608	0.232530	0.775441
C44	C	0.462609	0.311455	0.775441
C45	C	-0.015272	-0.045421	0.820870
C46	C	-0.192268	-0.045420	0.820887
O47	O	-0.215173	-0.084009	0.859539
N48	N	-0.214397	-0.000011	0.775477
C49	C	-0.192277	0.045406	0.730063
O50	O	-0.215165	0.084037	0.691446
C51	C	-0.015285	0.045410	0.730050
C52	C	0.006846	-0.000009	0.775457
C53	C	0.006859	-0.090836	0.866273
C54	C	0.051107	-0.090839	0.866265
C55	C	0.073225	-0.045428	0.820852
C56	C	0.051094	-0.000013	0.775448
C57	C	0.006831	0.090832	0.684642
C58	C	0.051080	0.090831	0.684645
C59	C	0.073211	0.045411	0.730051
C60	C	0.117461	0.045395	0.730027
N61	N	0.139590	-0.000014	0.775438
C62	C	0.117472	-0.045426	0.820850
C63	C	-0.285200	0.045400	0.730071
C64	C	-0.329447	0.045397	0.730073
C65	C	-0.329435	-0.045428	0.820899
C66	C	-0.285184	-0.045430	0.820892
C67	C	-0.263071	-0.000010	0.775482
C68	C	0.210398	-0.045430	0.820828
C69	C	0.254652	-0.045433	0.820812
C70	C	0.254634	0.045396	0.729990
C71	C	0.210386	0.045395	0.730002
C72	C	0.188267	-0.000020	0.775427
O73	O	0.140388	0.083972	0.691404
O74	O	0.140358	-0.084035	0.859477
C75	C	-0.059521	-0.045417	0.820878
C76	C	-0.081651	-0.000002	0.775475
C77	C	-0.059533	0.045409	0.730062
C78	C	-0.125898	-0.000004	0.775476
C79	C	-0.148016	-0.045416	0.820889
C80	C	-0.125887	-0.090825	0.866300
C81	C	-0.081639	-0.090829	0.866291
C82	C	-0.081662	0.090819	0.684651
C83	C	-0.125911	0.090818	0.684663
C84	C	-0.148029	0.045406	0.730075
C85	C	0.601347	-0.000015	0.775474
C86	C	0.648435	-0.000014	0.775485
C87	C	0.462598	-0.232565	0.775443
C88	C	0.462596	-0.311490	0.775444
C89	C	0.516792	0.303129	0.730045
C90	C	0.516790	0.377290	0.730041
C91	C	0.462605	0.459776	0.775438
C92	C	0.408418	0.468100	0.820835
C93	C	0.408420	0.393940	0.820833
C94	C	0.408416	0.622670	0.820836
C95	C	0.408413	0.696836	0.820839
C96	C	0.516786	0.606020	0.730044
C97	C	0.516788	0.531860	0.730043
C98	C	0.462601	0.540190	0.775441
C99	C	0.408413	0.045397	0.472286
C100	C	0.408415	0.045397	0.398124
C101	C	0.462601	-0.000011	0.315649
C102	C	0.516787	-0.045417	0.307335
C103	C	0.516785	-0.045412	0.381495
C104	C	0.516789	-0.045425	0.152765
C105	C	0.516792	-0.045432	0.078599
C106	C	0.408420	0.045384	0.169394
C107	C	0.408417	0.045389	0.243554
C108	C	0.462604	-0.000018	0.235235
C109	C	0.462608	-0.000025	1.007990
C110	C	0.462609	-0.000028	1.086915
C111	C	0.323863	-0.000028	1.007958
C112	C	0.276776	-0.000032	1.086872
C113	C	0.323863	0.232528	0.775409
C114	C	0.276776	0.311451	0.775398
C115	C	0.323868	0.232520	1.007957
C116	C	0.276783	0.311441	1.086870
C117	C	0.601337	-0.232555	0.542928
C118	C	0.648422	-0.311476	0.464014
C119	C	0.601342	-0.000007	0.542926
C120	C	0.648429	-0.000003	0.464013
C121	C	0.601342	-0.232563	0.775475
C122	C	0.648429	-0.311486	0.775487
C123	C	0.254662	-0.045449	1.078521
C124	C	0.210425	-0.045470	1.152662
C125	C	0.188300	-0.000067	1.235153
C126	C	0.210419	0.045351	1.243502
C127	C	0.254658	0.045367	1.169362
C128	C	0.254666	0.393931	0.820802
C129	C	0.210429	0.468095	0.820788
C130	C	0.188300	0.459778	0.775375
C131	C	0.210415	0.377290	0.729965
C132	C	0.254654	0.303128	0.729974
C133	C	0.254671	0.303092	1.169347
C134	C	0.210436	0.377239	1.243501
C135	C	0.188310	0.459735	1.235178
C136	C	0.210426	0.468082	1.152693
C137	C	0.254664	0.393936	1.078540
C138	C	0.670539	-0.303127	0.381538
C139	C	0.714788	-0.377275	0.307383
C140	C	0.736917	-0.459770	0.315707
C141	C	0.714798	-0.468118	0.398192
C142	C	0.670552	-0.393971	0.472344
C143	C	0.670548	0.045406	0.472363
C144	C	0.714797	0.045407	0.398222
C145	C	0.736923	0.000002	0.315732
C146	C	0.714803	-0.045414	0.307383
C147	C	0.670557	-0.045419	0.381523
C148	C	0.670543	-0.303142	0.820909
C149	C	0.714781	-0.377292	0.820936
C150	C	0.736906	-0.459786	0.775536
C151	C	0.714787	-0.468129	0.730112
C152	C	0.670547	-0.393979	0.730091
H153	H	0.272671	-0.082422	0.857787
H154	H	0.652546	-0.400786	0.693099
H155	H	0.272658	0.082356	1.176173
H156	H	0.364299	0.535267	0.857794
F157	F	0.186862	-0.093764	0.869177
H158	H	0.069122	-0.127821	0.903241
F159	F	0.738330	0.093749	0.407126
F160	F	0.646996	-0.215336	0.372660
F161	F	-0.016672	-0.139177	0.914609
H162	H	0.732825	-0.082381	0.240209
F163	F	-0.352982	-0.093758	0.869231
F164	F	0.784013	0.000015	0.236832
F165	F	0.738319	-0.368373	0.219605
F166	F	0.738316	-0.368395	0.869280
F167	F	0.350749	0.093707	0.178248
H168	H	0.652549	-0.082394	0.374712
F169	F	0.784007	-0.538677	0.236778
H170	H	0.272678	0.400719	0.857783
H171	H	0.560906	-0.082384	0.240176
F172	F	0.738353	-0.555923	0.407037
H173	H	0.192428	0.535253	0.857769
H174	H	0.652536	-0.235978	0.857879
H175	H	0.560914	-0.082384	0.145984
F176	F	0.574464	0.215344	0.681732
H177	H	0.152278	0.520173	0.775374
H178	H	0.732808	-0.535305	0.693149
F179	F	0.574459	0.368423	0.681699
H180	H	0.364295	0.082356	0.310708
H181	H	-0.267168	-0.082414	0.857866
F182	F	0.186858	0.368452	0.681637
F183	F	0.350741	0.093723	0.560060
H184	H	0.772928	-0.520156	0.775561
H185	H	-0.143901	-0.127805	0.903273
F186	F	0.647015	-0.402870	0.560120
F187	F	0.141216	-0.000090	1.314052
F188	F	-0.352988	0.093726	0.681732
H189	H	-0.267199	0.082389	0.693091
F190	F	0.574458	0.444072	0.681731
F191	F	0.186865	0.093671	1.331301
H192	H	0.272651	0.235972	0.693004
F193	F	0.186872	0.555888	1.143848
H194	H	0.272680	0.235926	1.176140
F195	F	-0.016715	0.139177	0.636315
F196	F	0.278189	0.402835	0.990765
H197	H	0.652536	0.082386	0.539525
H198	H	0.192373	0.082368	0.693016
F199	F	0.074612	0.139176	0.636313
F200	F	0.141228	0.538642	1.314106
F201	F	0.278182	0.093723	0.681660
H202	H	0.364291	0.763998	0.857800
H203	H	0.560907	0.599241	0.693077
F204	F	-0.058091	-0.139171	0.914619
H205	H	-0.143923	0.127801	0.647679
H206	H	0.364291	0.629459	0.857800
F207	F	-0.058130	0.139158	0.636317
H208	H	0.364294	0.082371	0.404903
F209	F	0.350752	0.402804	0.869147
H210	H	0.560914	-0.082408	0.011445
H211	H	0.192434	0.370428	1.310657
H212	H	0.560906	-0.082373	0.374719
H213	H	0.272676	-0.082432	1.011360
F214	F	0.186891	-0.093810	1.143758
