data_functionalizedCrystal
_audit_creation_method	'MofGen! by Chris Wilmer'
_symmetry_space_group_name_H-M	'P1'
_symmetry_Int_Tables_number	1
_symmetry_cell_setting	triclinic
loop_
_symmetry_equiv_pos_as_xyz
  x,y,z
_cell_length_a	16.625547
_cell_length_b	12.594516
_cell_length_c	16.625539
_cell_angle_alpha	89.976862
_cell_angle_beta	89.978691
_cell_angle_gamma	90.011753
loop_
_atom_site_label
_atom_site_type_symbol
_atom_site_fract_x
_atom_site_fract_y
_atom_site_fract_z
Zn1	Zn	1.232712	-0.423762	-0.456019
Zn2	Zn	1.566046	-0.090428	-0.122686
Zn3	Zn	1.899379	0.242905	0.210647
Zn4	Zn	1.232649	-0.601757	-0.321194
Zn5	Zn	1.565982	-0.268424	0.012139
Zn6	Zn	1.899315	0.064910	0.345472
Zn7	Zn	1.097882	-0.423793	-0.321190
Zn8	Zn	1.431216	-0.090459	0.012143
Zn9	Zn	1.764549	0.242874	0.345477
Zn10	Zn	1.097870	-0.601698	-0.455974
Zn11	Zn	1.431203	-0.268365	-0.122641
Zn12	Zn	1.764536	0.064968	0.210692
O13	O	1.165278	-0.512752	-0.388594
O14	O	1.498612	-0.179419	-0.055261
O15	O	1.831945	0.153914	0.278072
O16	O	1.345536	-0.447385	-0.438155
O17	O	1.678870	-0.114051	-0.104822
O18	O	2.012203	0.219282	0.228511
O19	O	1.214751	-0.578187	-0.208361
O20	O	1.548084	-0.244854	0.124972
O21	O	1.881417	0.088479	0.458305
O22	O	1.115800	-0.274843	-0.339092
O23	O	1.449133	0.058491	-0.005759
O24	O	1.782466	0.391824	0.327574
O25	O	1.345490	-0.578157	-0.339100
O26	O	1.678823	-0.244824	-0.005767
O27	O	2.012156	0.088510	0.327567
O28	O	1.214859	-0.274820	-0.438151
O29	O	1.548192	0.058513	-0.104818
O30	O	1.881525	0.391847	0.228516
O31	O	1.115738	-0.447438	-0.208358
O32	O	1.449072	-0.114104	0.124975
O33	O	1.782405	0.219229	0.458309
O34	O	0.985048	-0.447381	-0.339049
O35	O	1.318382	-0.114047	-0.005715
O36	O	1.651715	0.219286	0.327618
O37	O	1.115778	-0.578057	-0.568813
O38	O	1.449111	-0.244723	-0.235479
O39	O	1.782445	0.088610	0.097854
O40	O	0.985039	-0.578087	-0.438074
O41	O	1.318372	-0.244754	-0.104741
O42	O	1.651706	0.088580	0.228593
O43	O	1.214846	-0.447327	-0.568846
O44	O	1.548180	-0.113994	-0.235513
O45	O	1.881513	0.219339	0.097821
O46	O	1.214738	-0.750695	-0.339056
O47	O	1.548071	-0.417362	-0.005723
O48	O	1.881405	-0.084028	0.327610
O49	O	1.115716	-0.750652	-0.438078
O50	O	1.449050	-0.417318	-0.104745
O51	O	1.782383	-0.083985	0.228588
C52	C	0.955787	-0.512732	-0.388556
C53	C	1.289121	-0.179398	-0.055223
C54	C	1.622454	0.153935	0.278110
C55	C	0.866166	-0.512748	-0.388559
C56	C	1.199500	-0.179415	-0.055226
C57	C	1.532833	0.153918	0.278107
C58	C	0.793384	-0.512751	-0.388569
C59	C	1.126717	-0.179417	-0.055236
C60	C	1.460050	0.153916	0.278097
C61	C	0.702075	-0.512756	-0.388589
C62	C	1.035409	-0.179423	-0.055256
C63	C	1.368742	0.153910	0.278077
C64	C	0.629299	-0.512766	-0.388610
C65	C	0.962632	-0.179433	-0.055277
C66	C	1.295966	0.153901	0.278057
C67	C	0.537985	-0.512773	-0.388629
C68	C	0.871318	-0.179440	-0.055296
C69	C	1.204651	0.153893	0.278037
C70	C	1.165241	-0.789293	-0.388580
C71	C	1.498574	-0.455960	-0.055247
C72	C	1.831908	-0.122627	0.278086
C73	C	1.165299	-0.907599	-0.388601
C74	C	1.498632	-0.574265	-0.055268
C75	C	1.831965	-0.240932	0.278065
C76	C	1.219219	-0.976837	-0.334801
C77	C	1.552552	-0.643503	-0.001467
C78	C	1.885886	-0.310170	0.331866
C79	C	1.238918	-1.047541	-0.408397
C80	C	1.572251	-0.714208	-0.075063
C81	C	1.905585	-0.380875	0.258270
C82	C	1.145700	-1.047693	-0.315052
C83	C	1.479034	-0.714360	0.018281
C84	C	1.812367	-0.381026	0.351614
C85	C	1.185035	-0.976745	-0.462236
C86	C	1.518369	-0.643412	-0.128903
C87	C	1.851702	-0.310078	0.204431
C88	C	1.091783	-0.976891	-0.368842
C89	C	1.425117	-0.643557	-0.035509
C90	C	1.758450	-0.310224	0.297825
C91	C	1.111454	-1.047563	-0.442489
C92	C	1.444788	-0.714230	-0.109155
C93	C	1.778121	-0.380897	0.224178
C94	C	1.375587	-0.512774	-0.388633
C95	C	1.708920	-0.179441	-0.055300
C96	C	2.042254	0.153893	0.278033
C97	C	1.465208	-0.512783	-0.388650
C98	C	1.798542	-0.179450	-0.055316
C99	C	2.131875	0.153884	0.278017
C100	C	1.165318	-0.512682	-0.598903
C101	C	1.498651	-0.179349	-0.265570
C102	C	1.831984	0.153985	0.067763
C103	C	1.165335	-0.512652	-0.688525
C104	C	1.498668	-0.179319	-0.355191
C105	C	1.832001	0.154014	-0.021858
C106	C	1.165338	-0.235132	-0.388626
C107	C	1.498671	0.098202	-0.055293
C108	C	1.832004	0.431535	0.278040
C109	C	1.165363	-0.116826	-0.388640
C110	C	1.498696	0.216507	-0.055306
C111	C	1.832030	0.549841	0.278027
C112	C	1.165348	-0.512629	-0.761307
C113	C	1.498681	-0.179295	-0.427974
C114	C	1.832014	0.154038	-0.094640
C115	C	1.165367	-0.512589	-0.852616
C116	C	1.498700	-0.179256	-0.519282
C117	C	1.832033	0.154078	-0.185949
C118	C	1.165386	-0.512552	-0.925392
C119	C	1.498719	-0.179218	-0.592059
C120	C	1.832052	0.154115	-0.258725
C121	C	1.165406	-0.512513	-1.016706
C122	C	1.498739	-0.179180	-0.683373
C123	C	1.832072	0.154154	-0.350040
C124	C	1.165285	-0.512746	-0.179104
C125	C	1.498619	-0.179412	0.154230
C126	C	1.831952	0.153921	0.487563
C127	C	1.165425	-0.512476	-0.089483
C128	C	1.498758	-0.179142	0.243850
C129	C	1.832091	0.154191	0.577184
H130	H	1.301116	-1.078578	-0.425131
H131	H	1.634449	-0.745245	-0.091798
H132	H	1.967783	-0.411911	0.241536
O133	O	1.056988	-1.084261	-0.496793
O134	O	1.390321	-0.750928	-0.163460
O135	O	1.723655	-0.417595	0.169874
C136	C	0.979730	-1.046692	-0.476469
C137	C	1.313064	-0.713359	-0.143135
C138	C	1.646397	-0.380026	0.190198
H139	H	0.985561	-0.971798	-0.438430
H140	H	1.318894	-0.638465	-0.105097
H141	H	1.652228	-0.305131	0.228236
H142	H	0.944886	-1.027711	-0.533739
H143	H	1.278219	-0.694378	-0.200405
H144	H	1.611552	-0.361045	0.132928
H145	H	0.946272	-1.110187	-0.440804
H146	H	1.279605	-0.776854	-0.107471
H147	H	1.612939	-0.443520	0.225863
O148	O	1.273732	-0.939828	-0.280662
O149	O	1.607065	-0.606495	0.052671
O150	O	1.940398	-0.273161	0.386005
C151	C	1.351191	-0.975849	-0.301811
C152	C	1.684524	-0.642515	0.031522
C153	C	2.017858	-0.309182	0.364855
H154	H	1.352676	-0.995646	-0.368697
H155	H	1.686009	-0.662313	-0.035364
H156	H	2.019343	-0.328979	0.297969
H157	H	1.397177	-0.911084	-0.288397
H158	H	1.730510	-0.577751	0.044936
H159	H	2.063844	-0.244418	0.378270
H160	H	1.366356	-1.049940	-0.265442
H161	H	1.699689	-0.716607	0.067891
H162	H	2.033022	-0.383274	0.401224
O163	O	1.204956	-0.939556	-0.536424
O164	O	1.538289	-0.606223	-0.203090
O165	O	1.871622	-0.272889	0.130243
C166	C	1.204694	-0.827615	-0.535504
C167	C	1.538027	-0.494282	-0.202170
C168	C	1.871360	-0.160949	0.131163
H169	H	1.213692	-0.798362	-0.471254
H170	H	1.547025	-0.465028	-0.137920
H171	H	1.880359	-0.131695	0.195413
H172	H	1.255522	-0.796629	-0.575126
H173	H	1.588856	-0.463296	-0.241793
H174	H	1.922189	-0.129963	0.091540
H175	H	1.144657	-0.797337	-0.559387
H176	H	1.477991	-0.464004	-0.226053
H177	H	1.811324	-0.130670	0.107280
O178	O	1.017629	-0.939877	-0.348714
O179	O	1.350962	-0.606543	-0.015381
O180	O	1.684295	-0.273210	0.317952
C181	C	0.997154	-0.975986	-0.271077
C182	C	1.330487	-0.642653	0.062257
C183	C	1.663821	-0.309320	0.395590
H184	H	1.054319	-0.995852	-0.236351
H185	H	1.387653	-0.662519	0.096983
H186	H	1.720986	-0.329185	0.430316
H187	H	0.962531	-0.911249	-0.237958
H188	H	1.295864	-0.577916	0.095375
H189	H	1.629198	-0.244582	0.428708
H190	H	0.958056	-1.050055	-0.276140
H191	H	1.291390	-0.716722	0.057193
H192	H	1.624723	-0.383388	0.390527
H193	H	1.129098	-1.078856	-0.252837
H194	H	1.462431	-0.745523	0.080496
H195	H	1.795764	-0.412190	0.413830
