data_functionalizedCrystal
_audit_creation_method	'MofGen! by Chris Wilmer'
_symmetry_space_group_name_H-M	'P1'
_symmetry_Int_Tables_number	1
_symmetry_cell_setting	triclinic
loop_
_symmetry_equiv_pos_as_xyz
  x,y,z
_cell_length_a	10.540510
_cell_length_b	10.540510
_cell_length_c	14.586319
_cell_angle_alpha	89.998684
_cell_angle_beta	89.996246
_cell_angle_gamma	84.513311
loop_
_atom_site_label
_atom_site_type_symbol
_atom_site_fract_x
_atom_site_fract_y
_atom_site_fract_z
O1	O	1.685888	0.178721	-0.076241
O2	O	1.316469	0.195617	-0.076241
O3	O	1.509626	0.002459	-0.076240
O4	O	1.492731	0.371879	-0.076241
O5	O	1.509613	0.002456	0.076241
O6	O	1.316455	0.195614	0.076240
O7	O	1.685875	0.178718	0.076240
Cu8	Cu	1.501164	0.187166	0.090163
Cu9	Cu	1.501180	0.187169	-0.090163
O10	O	1.492717	0.371876	0.076240
C11	C	1.269159	0.194356	-0.000000
C12	C	1.128209	0.190589	-0.000001
C13	C	0.910739	0.324775	-0.000351
C14	C	1.057334	0.328793	-0.000002
C15	C	1.083449	0.119841	0.087071
C16	C	0.936688	0.116801	0.087139
C17	C	0.936898	0.113926	-0.086260
C18	C	1.083239	0.120482	-0.087406
C19	C	1.508361	-0.044846	-0.000002
C20	C	1.504594	-0.185795	-0.000007
C21	C	1.638780	-0.403265	0.000342
C22	C	1.642798	-0.256670	-0.000006
C23	C	1.433854	-0.230545	-0.087079
C24	C	1.430815	-0.377305	-0.087148
C25	C	1.427922	-0.377117	0.086252
C26	C	1.434477	-0.230777	0.087398
C27	C	1.733185	0.179979	-0.000002
C28	C	1.874135	0.183746	-0.000008
C29	C	1.493983	0.419181	-0.000001
C30	C	1.497750	0.560130	-0.000001
N31	N	1.501162	0.187162	0.216995
N32	N	1.501192	0.187162	-0.216995
C33	C	1.586721	0.101661	0.452001
C34	C	1.586724	0.101658	0.547982
C35	C	1.415624	0.272667	0.547992
C36	C	1.415615	0.272663	0.452012
C37	C	1.501171	0.187162	0.404019
C38	C	1.501183	0.187163	0.595980
C39	C	1.501186	0.187160	0.700047
C40	C	1.501166	0.187163	0.299946
H41	H	0.913704	0.013433	0.091094
H42	H	1.327447	-0.400289	-0.091093
H43	H	0.867221	0.378307	0.061739
O44	O	1.492295	-0.193585	-0.164415
C45	C	1.471724	-0.071590	-0.304235
C46	C	1.405386	-0.113321	-0.216684
H47	H	1.401480	-0.006712	-0.346528
H48	H	1.556663	-0.017917	-0.284702
H49	H	1.506127	-0.159335	-0.346323
H50	H	1.370902	-0.025646	-0.174555
H51	H	1.320506	-0.167039	-0.236281
H52	H	1.656386	0.032035	0.587047
O53	O	1.332635	0.355903	0.405439
C54	C	1.260169	0.575933	0.376106
C55	C	1.354234	0.481816	0.428890
H56	H	1.277581	0.677753	0.395061
H57	H	1.274855	0.561351	0.299252
H58	H	1.158360	0.558358	0.394977
H59	H	1.456080	0.499333	0.410095
H60	H	1.339437	0.496420	0.505730
O61	O	1.332650	0.355681	0.594756
C62	C	1.256787	0.431433	0.742621
C63	C	1.350841	0.337368	0.689778
H64	H	1.271444	0.416642	0.819456
H65	H	1.274238	0.533297	0.723810
H66	H	1.154975	0.413938	0.723707
H67	H	1.452688	0.354746	0.708664
H68	H	1.333279	0.235536	0.708594
O69	O	0.886158	0.165850	-0.165021
C70	C	0.772347	0.130900	-0.304630
C71	C	0.829730	0.071923	-0.215466
H72	H	0.726734	0.054981	-0.345449
H73	H	0.696965	0.212189	-0.287231
H74	H	0.850951	0.169182	-0.347252
H75	H	0.751215	0.033567	-0.172802
H76	H	0.905142	-0.009308	-0.232930
H77	H	1.086680	0.384141	-0.062421
H78	H	1.114292	0.168972	0.151870
H79	H	1.471835	-0.419305	0.152253
H80	H	1.085727	0.384475	0.062519
O81	O	1.117232	0.181764	-0.164349
C82	C	1.115136	0.187525	-0.329494
C83	C	1.076529	0.118015	-0.242434
H84	H	1.082268	0.135997	-0.392648
H85	H	1.068631	0.289719	-0.328906
H86	H	1.223187	0.188273	-0.331376
H87	H	0.968495	0.117169	-0.240495
H88	H	1.123127	0.015858	-0.243057
H89	H	0.896461	0.165149	0.152226
O90	O	1.669865	0.018479	0.405522
C91	C	1.839617	-0.151094	0.415648
C92	C	1.745507	-0.056973	0.468396
H93	H	1.900817	-0.212103	0.466458
H94	H	1.784304	-0.215122	0.370746
H95	H	1.903465	-0.095663	0.370680
H96	H	1.681636	-0.112300	0.513414
H97	H	1.800899	0.007056	0.513240
O98	O	1.141587	0.000034	-0.093744
C99	C	1.115258	-0.224399	-0.099761
C100	C	1.049005	-0.088059	-0.092591
H101	H	1.040438	-0.295661	-0.098812
H102	H	1.171626	-0.234880	-0.166481
H103	H	1.182782	-0.243592	-0.039228
H104	H	0.981421	-0.068775	-0.153075
H105	H	0.992719	-0.077646	-0.025834
H106	H	1.130849	0.018097	0.090310
H107	H	0.914755	0.010163	-0.086849
O108	O	0.860923	0.388978	-0.074933
C109	C	0.903750	0.504143	-0.212470
C110	C	0.960331	0.431459	-0.128040
H111	H	0.984091	0.538532	-0.255421
H112	H	0.848023	0.438178	-0.255452
H113	H	0.837224	0.589611	-0.189002
H114	H	1.026910	0.345990	-0.151427
H115	H	1.015981	0.497510	-0.085077
O116	O	1.488595	-0.425093	-0.164818
C117	C	1.595607	-0.378892	-0.305192
C118	C	1.530226	-0.324615	-0.217257
H119	H	1.629259	-0.297680	-0.347622
H120	H	1.680927	-0.448621	-0.286155
H121	H	1.524947	-0.430564	-0.346930
H122	H	1.600788	-0.272882	-0.175478
H123	H	1.444885	-0.254953	-0.236357
H124	H	1.698147	-0.227333	0.062409
H125	H	1.332111	-0.183145	-0.090317
H126	H	1.692617	-0.445227	0.062786
O127	O	1.495963	-0.196874	0.164270
C128	C	1.606976	-0.268394	0.302026
C129	C	1.537390	-0.306974	0.214997
H130	H	1.640465	-0.357385	0.343073
H131	H	1.692794	-0.216418	0.281854
H132	H	1.539093	-0.202793	0.345612
H133	H	1.605172	-0.372616	0.171371
H134	H	1.451555	-0.358882	0.235234
H135	H	1.698480	-0.228269	-0.062531
O136	O	1.314020	-0.172441	0.093704
C137	C	1.089590	-0.198812	0.099644
C138	C	1.225947	-0.265041	0.092531
H139	H	1.018345	-0.273647	0.098679
H140	H	1.079044	-0.142431	0.166353
H141	H	1.070436	-0.131303	0.039095
H142	H	1.245193	-0.332610	0.153032
H143	H	1.236425	-0.321341	0.025786
H144	H	1.324157	-0.399256	0.086838
H145	H	1.692318	-0.446775	-0.061749
