data_functionalizedCrystal
_audit_creation_method	'MofGen! by Chris Wilmer'
_symmetry_space_group_name_H-M	'P1'
_symmetry_Int_Tables_number	1
_symmetry_cell_setting	triclinic
loop_
_symmetry_equiv_pos_as_xyz
  x,y,z
_cell_length_a	6.817900
_cell_length_b	11.102285
_cell_length_c	11.102193
_cell_angle_alpha	91.950782
_cell_angle_beta	108.604059
_cell_angle_gamma	108.605686
loop_
_atom_site_label
_atom_site_type_symbol
_atom_site_fract_x
_atom_site_fract_y
_atom_site_fract_z
V1	V	-4.111518	-0.175849	-0.396264
O2	O	-4.070547	0.008441	-0.388714
O3	O	-4.088299	-0.348670	-0.393560
O4	O	-4.088292	-0.173148	-0.569085
O5	O	-4.070554	-0.168296	-0.211974
V6	V	-4.588621	-0.153806	-0.374220
O7	O	-4.386859	-0.224204	-0.444618
O8	O	-4.763478	-0.105451	-0.325867
O9	O	-4.388634	0.019016	-0.376924
O10	O	-4.746989	-0.338096	-0.381770
O11	O	-4.746983	-0.161359	-0.558511
O12	O	-4.388641	-0.156506	-0.201399
C13	C	-3.938611	-0.390800	-0.387310
C14	C	-4.001081	-0.532084	-0.386252
C15	C	-4.090595	-0.616615	-0.502136
C16	C	-4.149265	-0.749363	-0.501130
C17	C	-4.028905	-0.713037	-0.268344
C18	C	-3.970222	-0.580291	-0.269351
C19	C	-4.183487	-0.948438	-0.635508
C20	C	-4.273042	-1.032976	-0.751400
C21	C	-4.425418	-1.010091	-0.858565
C22	C	-4.488294	-0.902673	-0.849844
C23	C	-4.398760	-0.818142	-0.733950
C24	C	-4.246337	-0.841024	-0.626789
C25	C	-3.936020	-0.381216	-0.134981
C26	C	-3.846499	-0.296683	-0.019087
C27	C	-3.694128	-0.319564	0.088088
C28	C	-3.631278	-0.426985	0.079379
C29	C	-3.720800	-0.511518	-0.036516
C30	C	-3.873163	-0.488627	-0.143691
C31	C	-3.938601	-0.166903	-0.611209
C32	C	-4.001062	-0.165838	-0.752491
C33	C	-4.121395	-0.398618	-0.788827
C34	C	-4.210897	-0.514502	-0.873367
C35	C	-4.269584	-0.513495	-1.006113
C36	C	-4.238769	-0.396590	-1.054320
C37	C	-4.149267	-0.280706	-0.969779
C38	C	-4.090580	-0.281726	-0.837032
C39	C	-4.028949	-0.047930	-0.933445
C40	C	-3.970247	-0.048934	-0.800698
C41	C	-3.998134	0.068975	-0.981652
C42	C	-3.908616	0.184862	-0.897111
C43	C	-3.849926	0.183850	-0.764358
C44	C	-3.880745	0.066950	-0.716158
C45	C	-4.201664	0.061139	-0.383170
C46	C	-4.118434	0.202421	-0.384238
C47	C	-4.201674	-0.162756	-0.159269
C48	C	-4.118451	-0.163814	-0.017985
H49	H	-4.449957	-0.730687	-0.726849
H50	H	-4.221831	-1.120434	-0.758492
H51	H	-4.059388	-0.967073	-0.548258
C52	C	-3.994993	-0.766071	-0.139765
H53	H	-4.042783	-0.857237	-0.155761
H54	H	-3.842932	-0.732713	-0.088047
H55	H	-4.078390	-0.740993	-0.096170
C56	C	-3.651666	-0.629678	-0.046106
H57	H	-3.726817	-0.676748	-0.130474
H58	H	-3.496872	-0.602220	-0.028017
H59	H	-3.688704	-0.682978	0.014246
C60	C	-4.244809	-0.643091	-0.820344
H61	H	-4.306540	-0.711961	-0.889706
H62	H	-4.106702	-0.644268	-0.765171
H63	H	-4.342160	-0.652383	-0.773461
C64	C	-3.463674	-0.452167	0.197264
H65	H	-3.439080	-0.528256	0.175480
H66	H	-3.328368	-0.381524	0.223391
H67	H	-3.520206	-0.462282	0.265650
C68	C	-3.595666	-0.226582	0.215572
H69	H	-3.654915	-0.159327	0.205417
H70	H	-3.631567	-0.271904	0.281103
H71	H	-3.439754	-0.191133	0.238831
H72	H	-4.115737	-0.577371	-0.597324
H73	H	-4.286586	-0.395781	-1.162411
H74	H	-3.777060	0.278217	-0.695531
H75	H	-3.897700	-0.209221	-0.011999
C76	C	-4.103627	-0.356046	-0.252879
H77	H	-4.147920	-0.421765	-0.323152
H78	H	-4.229085	-0.355805	-0.232987
H79	H	-4.037254	-0.275039	-0.275246
C80	C	-3.816218	0.065830	-0.570144
H81	H	-3.847411	-0.020388	-0.553547
H82	H	-3.663005	0.112654	-0.529248
H83	H	-3.898484	0.104514	-0.537559
H84	H	-4.073585	-0.399449	-0.680739
C85	C	-4.655952	-0.877516	-0.967716
H86	H	-4.680589	-0.801447	-0.945919
H87	H	-4.599483	-0.867405	-1.036121
H88	H	-4.791250	-0.948176	-0.993815
H89	H	-4.498332	-1.078929	-0.952927
C90	C	-4.368046	-0.640963	-1.099109
H91	H	-4.377989	-0.710731	-1.051393
H92	H	-4.511159	-0.649464	-1.155788
H93	H	-4.275701	-0.641340	-1.147507
H94	H	-4.045940	0.069786	-1.089742
H95	H	-3.883549	0.280036	-0.936373
