data_functionalizedCrystal
_audit_creation_method	'MofGen! by Chris Wilmer'
_symmetry_space_group_name_H-M	'P1'
_symmetry_Int_Tables_number	1
_symmetry_cell_setting	triclinic
loop_
_symmetry_equiv_pos_as_xyz
  x,y,z
_cell_length_a	27.440280
_cell_length_b	20.919467
_cell_length_c	20.919309
_cell_angle_alpha	64.533458
_cell_angle_beta	90.005478
_cell_angle_gamma	61.842742
loop_
_atom_site_label
_atom_site_type_symbol
_atom_site_fract_x
_atom_site_fract_y
_atom_site_fract_z
Zr1	Zr	0.498487	0.660769	-0.045750
O2	O	0.428407	0.780577	-0.137800
O3	O	0.516424	0.535909	-0.022205
O4	O	0.524966	0.653468	-0.144524
O5	O	0.417161	0.670539	0.086322
O6	O	0.605168	0.653457	-0.144512
O7	O	0.419865	0.663017	-0.015481
O8	O	0.589888	0.443165	0.074294
O9	O	0.432442	0.880831	-0.132483
O10	O	0.588213	0.589129	-0.006508
O11	O	0.526341	0.594751	0.069457
O12	O	0.536398	0.733162	-0.074557
O13	O	0.474527	0.738783	0.001409
Zr14	Zr	0.622088	0.672748	0.116634
Zr15	Zr	0.626400	0.660752	-0.045731
Zr16	Zr	0.494175	0.672766	0.116615
Zr17	Zr	0.504922	0.820664	-0.037271
Zr18	Zr	0.615653	0.512854	0.108155
O19	O	0.604151	0.797609	0.093090
O20	O	0.610283	0.780552	-0.137772
O21	O	0.422276	0.797634	0.093062
O22	O	0.692168	0.552941	0.208684
O23	O	0.698300	0.535884	-0.022178
O24	O	0.510292	0.552966	0.208656
O25	O	0.703414	0.662979	-0.015438
O26	O	0.595609	0.680050	0.215408
O27	O	0.515407	0.680061	0.215396
O28	O	0.700710	0.670501	0.086365
O29	O	0.534115	0.880818	-0.132468
O30	O	0.586460	0.452700	0.203352
O31	O	0.688134	0.452687	0.203368
O32	O	0.691561	0.443151	0.074309
O33	O	0.429014	0.890367	-0.003425
O34	O	0.530688	0.890353	-0.003409
O35	O	0.584177	0.600356	0.145441
O36	O	0.646049	0.594735	0.069476
O37	O	0.594234	0.738767	0.001427
O38	O	0.532363	0.744389	0.077393
C39	C	0.552239	0.466755	0.024836
C40	C	0.549508	0.398876	0.021237
C41	C	0.400288	0.666780	0.035418
C42	C	0.345986	0.666788	0.035410
C43	C	0.588685	0.315886	0.072703
C44	C	0.586093	0.252125	0.069317
C45	C	0.544325	0.271355	0.014460
C46	C	0.505143	0.354353	-0.037009
C47	C	0.507733	0.418113	-0.033619
C48	C	0.534476	0.081400	0.001568
C49	C	0.531890	0.017631	-0.001819
C50	C	0.612839	-0.084592	0.104508
C51	C	0.615428	-0.020827	0.107891
C52	C	0.576245	0.062165	0.056424
C53	C	0.541675	0.206182	0.010996
C54	C	0.578892	0.127337	0.059891
C55	C	0.036331	0.591563	0.070983
C56	C	-0.014688	0.591558	0.070989
O57	O	-0.018074	0.527620	0.101222
N58	N	-0.067251	0.666741	0.035468
C59	C	-0.068794	0.741933	-0.000056
O60	O	-0.118188	0.805882	-0.030269
C61	C	-0.017776	0.741937	-0.000058
C62	C	0.034786	0.666749	0.035460
C63	C	0.088892	0.516381	0.106498
C64	C	0.139907	0.516385	0.106491
C65	C	0.138362	0.591572	0.070967
C66	C	0.085801	0.666754	0.035452
C67	C	-0.019321	0.817129	-0.035577
C68	C	0.031703	0.817126	-0.035575
C69	C	0.084266	0.741938	-0.000057
C70	C	0.135272	0.741944	-0.000079
N71	N	0.187835	0.666762	0.035443
C72	C	0.189380	0.591575	0.070966
C73	C	-0.175934	0.741920	-0.000049
C74	C	-0.226951	0.741917	-0.000052
C75	C	-0.172841	0.591542	0.070995
C76	C	-0.121823	0.591545	0.070993
C77	C	-0.123371	0.666737	0.035473
C78	C	0.296513	0.591591	0.070946
C79	C	0.347531	0.591602	0.070933
C80	C	0.293416	0.741976	-0.000110
C81	C	0.242403	0.741966	-0.000100
C82	C	0.243955	0.666766	0.035433
O83	O	0.138702	0.805851	-0.030293
O84	O	0.238776	0.527639	0.101182
C85	C	0.720287	0.666737	0.035466
C86	C	0.774590	0.666730	0.035475
C87	C	0.565682	0.651754	-0.167651
C88	C	0.567512	0.646661	-0.236580
C89	C	0.568336	0.866763	0.046048
C90	C	0.571068	0.934642	0.049648
C91	C	0.541327	0.719450	-0.304483
C92	C	0.543055	0.714660	-0.369246
C93	C	0.570964	0.637080	-0.366104
C94	C	0.597153	0.564286	-0.298193
C95	C	0.595429	0.569076	-0.233432
C96	C	0.577527	0.618853	-0.559864
C97	C	0.579248	0.614068	-0.624633
C98	C	0.525150	0.764443	-0.695681
C99	C	0.523425	0.769227	-0.630915
C100	C	0.549617	0.696433	-0.563010
C101	C	0.572729	0.632182	-0.432301
C102	C	0.547855	0.701331	-0.496815
C103	C	0.554894	0.681764	0.238536
C104	C	0.553063	0.686857	0.307464
C105	C	0.712239	0.466734	0.024860
C106	C	0.763809	0.398847	0.021269
C107	C	0.546845	0.481761	0.227930
C108	C	0.542283	0.418974	0.293258
C109	C	0.706845	0.481739	0.227954
C110	C	0.756585	0.418945	0.293291
C111	C	0.413731	0.851779	-0.157070
C112	C	0.363991	0.914573	-0.222406
C113	C	0.408337	0.866784	0.046024
C114	C	0.356766	0.934671	0.049615
C115	C	0.573730	0.851757	-0.157045
C116	C	0.578293	0.914544	-0.222374
C117	C	0.757838	0.364040	-0.020087
C118	C	0.806290	0.300261	-0.023476
C119	C	0.860713	0.271286	0.014495
C120	C	0.866683	0.306099	0.055853
C121	C	0.818232	0.369881	0.059237
C122	C	0.570330	0.392415	0.363607
C123	C	0.566041	0.333430	0.424997
C124	C	0.533708	0.301000	0.416036
C125	C	0.505658	0.327564	0.345680
C126	C	0.509943	0.386553	0.284292
C127	C	0.812245	0.386522	0.284320
C128	C	0.858986	0.327529	0.345705
C129	C	0.850066	0.300955	0.416060
C130	C	0.794400	0.333384	0.425029
C131	C	0.747660	0.392381	0.363645
C132	C	0.308331	0.947004	-0.213435
C133	C	0.261590	1.006017	-0.274819
C134	C	0.270510	1.032594	-0.345174
C135	C	0.326176	1.000160	-0.354144
C136	C	0.372916	0.941153	-0.292760
C137	C	0.362738	0.969484	0.090965
C138	C	0.314287	1.033279	0.094337
C139	C	0.259864	1.062257	0.056364
C140	C	0.253894	1.027441	0.015009
C141	C	0.302344	0.963650	0.011633
C142	C	0.610630	0.946955	-0.213390
C143	C	0.614928	1.005942	-0.274767
C144	C	0.586885	1.032521	-0.345128
C145	C	0.554546	1.000103	-0.354110
C146	C	0.550252	0.941113	-0.292734
H147	H	0.622699	0.300219	0.117372
H148	H	-0.171590	0.530321	0.099917
H149	H	0.588886	0.311808	0.482277
H150	H	0.199604	0.803189	-0.029032
H151	H	0.301057	0.925368	-0.156155
H152	H	0.619882	0.501118	-0.295639
H153	H	0.525133	0.764496	-0.499370
H154	H	0.507668	0.221832	-0.033668
H155	H	0.182702	0.455159	0.135409
H156	H	0.220417	1.114199	0.059119
H157	H	0.641260	1.032331	-0.267439
H158	H	0.297786	0.530356	0.099882
H159	H	0.216269	1.032414	-0.267502
H160	H	0.900160	0.219349	0.011734
H161	H	0.333433	1.021807	-0.411433
H162	H	0.209576	1.051044	-0.015908
H163	H	0.319159	1.061616	0.128015
H164	H	0.523917	0.914730	-0.300059
H165	H	0.530223	0.252968	0.466028
H166	H	0.823102	0.398213	0.092918
H167	H	0.479332	0.301151	0.338395
H168	H	0.390329	0.530372	0.099858
H169	H	0.418235	0.914747	-0.300073
H170	H	0.702340	0.418772	0.370959
H171	H	-0.079027	0.530321	0.099921
H172	H	0.888130	0.252916	0.466037
H173	H	0.596658	0.418813	0.370917
H174	H	0.616752	0.509804	-0.178142
H175	H	0.911001	0.282498	0.086767
H176	H	0.521733	0.773932	-0.424533
H177	H	0.502578	0.148966	-0.040350
H178	H	0.590386	1.080555	-0.395098
H179	H	0.497877	0.033299	-0.046494
H180	H	-0.177202	0.803154	-0.028977
H181	H	0.487105	0.408169	0.227013
H182	H	0.801418	0.271924	-0.057154
H183	H	0.232447	1.080642	-0.395150
H184	H	0.819519	0.408149	0.227039
H185	H	0.531715	1.021753	-0.411406
H186	H	0.787146	0.311740	0.482320
H187	H	0.904308	0.301130	0.338389
H188	H	0.617995	0.184553	0.111227
H189	H	0.297474	0.935307	-0.022037
H190	H	0.601975	0.550890	-0.622067
H191	H	0.030436	0.878359	-0.064491
H192	H	0.595454	0.569016	-0.429750
H193	H	0.090159	0.455152	0.135429
H194	H	0.407047	0.945896	0.121893
H195	H	0.633467	0.925325	-0.156104
H196	H	0.598855	0.559579	-0.504582
H197	H	0.292168	0.803191	-0.029035
H198	H	0.649441	-0.036494	0.152559
H199	H	0.471132	0.370006	-0.081672
H200	H	0.475825	0.485687	-0.075522
H201	H	0.644739	-0.152168	0.146411
H202	H	0.612897	0.111683	0.104558
H203	H	-0.269746	0.803142	-0.028984
H204	H	-0.062111	0.878355	-0.064498
H205	H	0.500700	0.832401	-0.633482
H206	H	0.503827	0.823708	-0.750974
H207	H	0.518596	0.782624	-0.307050
H208	H	0.713529	0.387630	-0.051018
