data_functionalizedCrystal
_audit_creation_method	'MofGen! by Chris Wilmer'
_symmetry_space_group_name_H-M	'P1'
_symmetry_Int_Tables_number	1
_symmetry_cell_setting	triclinic
loop_
_symmetry_equiv_pos_as_xyz
  x,y,z
_cell_length_a	21.295417
_cell_length_b	21.295419
_cell_length_c	18.101389
_cell_angle_alpha	89.980251
_cell_angle_beta	90.022566
_cell_angle_gamma	89.952934
loop_
_atom_site_label
_atom_site_type_symbol
_atom_site_fract_x
_atom_site_fract_y
_atom_site_fract_z
Zn1	Zn	-0.250397	-0.962321	0.418727
Zn2	Zn	-0.000397	-0.712321	0.668727
Zn3	Zn	0.249603	-0.462321	0.918727
Zn4	Zn	0.499603	-0.212321	1.168727
Zn5	Zn	-0.355651	-0.962234	0.294877
Zn6	Zn	-0.105651	-0.712234	0.544877
Zn7	Zn	0.144349	-0.462234	0.794877
Zn8	Zn	0.394349	-0.212234	1.044877
Zn9	Zn	-0.250430	-0.857055	0.294898
Zn10	Zn	-0.000430	-0.607055	0.544898
Zn11	Zn	0.249570	-0.357055	0.794898
Zn12	Zn	0.499570	-0.107055	1.044898
Zn13	Zn	-0.355663	-0.857014	0.418675
Zn14	Zn	-0.105663	-0.607014	0.668675
Zn15	Zn	0.144337	-0.357014	0.918675
Zn16	Zn	0.394337	-0.107014	1.168675
O17	O	-0.303035	-0.909656	0.356794
O18	O	-0.053035	-0.659656	0.606794
O19	O	0.196965	-0.409656	0.856794
O20	O	0.446965	-0.159656	1.106794
O21	O	-0.264340	-1.050399	0.402311
O22	O	-0.014340	-0.800399	0.652311
O23	O	0.235660	-0.550399	0.902311
O24	O	0.485660	-0.300399	1.152311
O25	O	-0.341701	-0.948262	0.191246
O26	O	-0.091701	-0.698262	0.441246
O27	O	0.158299	-0.448262	0.691246
O28	O	0.408299	-0.198262	0.941246
O29	O	-0.162336	-0.871072	0.311355
O30	O	0.087664	-0.621072	0.561355
O31	O	0.337664	-0.371072	0.811355
O32	O	0.587664	-0.121072	1.061355
O33	O	-0.341670	-1.050335	0.311318
O34	O	-0.091670	-0.800335	0.561318
O35	O	0.158330	-0.550335	0.811318
O36	O	0.408330	-0.300335	1.061318
O37	O	-0.162312	-0.948411	0.402332
O38	O	0.087688	-0.698411	0.652332
O39	O	0.337688	-0.448411	0.902332
O40	O	0.587688	-0.198411	1.152332
O41	O	-0.264396	-0.870987	0.191262
O42	O	-0.014396	-0.620987	0.441262
O43	O	0.235604	-0.370987	0.691262
O44	O	0.485604	-0.120987	0.941262
O45	O	-0.264408	-0.768960	0.311305
O46	O	-0.014408	-0.518960	0.561305
O47	O	0.235592	-0.268960	0.811305
O48	O	0.485592	-0.018960	1.061305
O49	O	-0.341691	-0.871003	0.522315
O50	O	-0.091691	-0.621003	0.772315
O51	O	0.158309	-0.371003	1.022315
O52	O	0.408309	-0.121003	1.272315
O53	O	-0.341722	-0.768930	0.402243
O54	O	-0.091722	-0.518930	0.652243
O55	O	0.158278	-0.268930	0.902243
O56	O	0.408278	-0.018930	1.152243
O57	O	-0.264352	-0.948371	0.522353
O58	O	-0.014352	-0.698371	0.772353
O59	O	0.235648	-0.448371	1.022353
O60	O	0.485648	-0.198371	1.272353
O61	O	-0.443742	-0.948222	0.311268
O62	O	-0.193742	-0.698222	0.561268
O63	O	0.056258	-0.448222	0.811268
O64	O	0.306258	-0.198222	1.061268
O65	O	-0.443751	-0.870918	0.402222
O66	O	-0.193751	-0.620918	0.652222
O67	O	0.056249	-0.370918	0.902222
O68	O	0.306249	-0.120918	1.152222
C69	C	-0.303070	-0.746104	0.356771
C70	C	-0.053070	-0.496104	0.606771
C71	C	0.196930	-0.246104	0.856771
C72	C	0.446930	0.003896	1.106771
C73	C	-0.303101	-0.676136	0.356779
C74	C	-0.053101	-0.426136	0.606779
C75	C	0.196899	-0.176136	0.856779
C76	C	0.446899	0.073864	1.106779
C77	C	-0.262902	-0.643325	0.404231
C78	C	-0.012902	-0.393325	0.654231
C79	C	0.237098	-0.143325	0.904231
C80	C	0.487098	0.106675	1.154231
C81	C	-0.262887	-0.577583	0.404233
C82	C	-0.012887	-0.327583	0.654233
C83	C	0.237113	-0.077583	0.904233
C84	C	0.487113	0.172417	1.154233
C85	C	-0.303082	-0.544654	0.356790
C86	C	-0.053082	-0.294654	0.606790
C87	C	0.196918	-0.044654	0.856790
C88	C	0.446918	0.205346	1.106790
C89	C	-0.343283	-0.577472	0.309328
C90	C	-0.093283	-0.327472	0.559328
C91	C	0.156717	-0.077472	0.809328
C92	C	0.406717	0.172528	1.059328
C93	C	-0.343293	-0.643213	0.309323
C94	C	-0.093293	-0.393213	0.559323
C95	C	0.156707	-0.143213	0.809323
C96	C	0.406707	0.106787	1.059323
N97	N	-0.358162	-0.441379	0.351001
N98	N	-0.108162	-0.191379	0.601001
N99	N	0.141838	0.058621	0.851001
N100	N	0.391838	0.308621	1.101001
N101	N	-0.358152	-0.378927	0.351010
N102	N	-0.108152	-0.128927	0.601010
N103	N	0.141848	0.121073	0.851010
N104	N	0.391848	0.371073	1.101010
C105	C	-0.303055	-0.346579	0.356803
C106	C	-0.053055	-0.096579	0.606803
C107	C	0.196945	0.153421	0.856803
C108	C	0.446945	0.403421	1.106803
N109	N	-0.247969	-0.379041	0.362601
N110	N	0.002031	-0.129041	0.612601
N111	N	0.252031	0.120959	0.862601
N112	N	0.502031	0.370959	1.112601
N113	N	-0.247980	-0.441498	0.362595
N114	N	0.002020	-0.191498	0.612595
N115	N	0.252020	0.058502	0.862595
N116	N	0.502020	0.308502	1.112595
C117	C	-0.303076	-0.473368	0.356791
C118	C	-0.053076	-0.223368	0.606791
C119	C	0.196924	0.026632	0.856791
C120	C	0.446924	0.276632	1.106791
C121	C	-0.262837	-0.242483	0.404260
C122	C	-0.012837	0.007517	0.654260
C123	C	0.237163	0.257517	0.904260
C124	C	0.487163	0.507517	1.154260
C125	C	-0.262821	-0.176739	0.404257
C126	C	-0.012821	0.073261	0.654257
C127	C	0.237179	0.323261	0.904257
C128	C	0.487179	0.573261	1.154257
C129	C	-0.343223	-0.176630	0.309356
C130	C	-0.093223	0.073370	0.559356
C131	C	0.156777	0.323370	0.809356
C132	C	0.406777	0.573370	1.059356
C133	C	-0.343234	-0.242372	0.309356
C134	C	-0.093234	0.007628	0.559356
C135	C	0.156766	0.257628	0.809356
C136	C	0.406766	0.507628	1.059356
C137	C	-0.303042	-0.275295	0.356812
C138	C	-0.053042	-0.025295	0.606812
C139	C	0.196958	0.224705	0.856812
C140	C	0.446958	0.474705	1.106812
C141	C	-0.466587	-0.909573	0.356753
C142	C	-0.216587	-0.659573	0.606753
C143	C	0.033413	-0.409573	0.856753
C144	C	0.283413	-0.159573	1.106753
C145	C	-0.536555	-0.909596	0.356760
C146	C	-0.286555	-0.659596	0.606760
C147	C	-0.036555	-0.409596	0.856760
C148	C	0.213445	-0.159596	1.106760
C149	C	-0.569396	-0.949884	0.309449
C150	C	-0.319396	-0.699884	0.559449
C151	C	-0.069396	-0.449884	0.809449
C152	C	0.180604	-0.199884	1.059449
C153	C	-0.635138	-0.949913	0.309466
C154	C	-0.385138	-0.699913	0.559466
C155	C	-0.135138	-0.449913	0.809466
C156	C	0.114862	-0.199913	1.059466
C157	C	-0.668037	-0.909643	0.356786
C158	C	-0.418037	-0.659643	0.606786
C159	C	-0.168037	-0.409643	0.856786
C160	C	0.081963	-0.159643	1.106786
C161	C	-0.635188	-0.869352	0.404106
C162	C	-0.385188	-0.619352	0.654106
C163	C	-0.135188	-0.369352	0.904106
C164	C	0.114812	-0.119352	1.154106
C165	C	-0.569447	-0.869328	0.404094
C166	C	-0.319447	-0.619328	0.654094
C167	C	-0.069447	-0.369328	0.904094
C168	C	0.180553	-0.119328	1.154094
N169	N	-0.771320	-0.854576	0.362424
N170	N	-0.521320	-0.604576	0.612424
N171	N	-0.271320	-0.354576	0.862424
N172	N	-0.021320	-0.104576	1.112424
N173	N	-0.833771	-0.854600	0.362432
N174	N	-0.583771	-0.604600	0.612432
N175	N	-0.333771	-0.354600	0.862432
N176	N	-0.083771	-0.104600	1.112432
C177	C	-0.866112	-0.909714	0.356828
C178	C	-0.616112	-0.659714	0.606828
C179	C	-0.366112	-0.409714	0.856828
C180	C	-0.116112	-0.159714	1.106828
N181	N	-0.833642	-0.964803	0.351203
N182	N	-0.583642	-0.714803	0.601203
N183	N	-0.333642	-0.464803	0.851203
N184	N	-0.083642	-0.214803	1.101203
N185	N	-0.771185	-0.964778	0.351191
N186	N	-0.521185	-0.714778	0.601191
N187	N	-0.271185	-0.464778	0.851191
N188	N	-0.021185	-0.214778	1.101191
C189	C	-0.739323	-0.909665	0.356805
C190	C	-0.489323	-0.659665	0.606805
C191	C	-0.239323	-0.409665	0.856805
C192	C	0.010677	-0.159665	1.106805
C193	C	-0.970239	-0.950038	0.309533
C194	C	-0.720239	-0.700038	0.559533
C195	C	-0.470239	-0.450038	0.809533
C196	C	-0.220239	-0.200038	1.059533
C197	C	-1.035982	-0.950068	0.309554
C198	C	-0.785982	-0.700068	0.559554
C199	C	-0.535982	-0.450068	0.809554
C200	C	-0.285982	-0.200068	1.059554
C201	C	-1.036031	-0.869501	0.404191
C202	C	-0.786031	-0.619501	0.654191
C203	C	-0.536031	-0.369501	0.904191
C204	C	-0.286031	-0.119501	1.154191
C205	C	-0.970288	-0.869476	0.404173
C206	C	-0.720288	-0.619476	0.654173
C207	C	-0.470288	-0.369476	0.904173
C208	C	-0.220288	-0.119476	1.154173
C209	C	-0.937396	-0.909744	0.356840
C210	C	-0.687396	-0.659744	0.606840
C211	C	-0.437396	-0.409744	0.856840
C212	C	-0.187396	-0.159744	1.106840
C213	C	-0.138845	-0.909756	0.356852
C214	C	0.111155	-0.659756	0.606852
C215	C	0.361155	-0.409756	0.856852
C216	C	0.611155	-0.159756	1.106852
C217	C	-0.068877	-0.909798	0.356876
C218	C	0.181123	-0.659798	0.606876
C219	C	0.431123	-0.409798	0.856876
C220	C	0.681123	-0.159798	1.106876
C221	C	-0.303019	-0.909692	0.549956
C222	C	-0.053019	-0.659692	0.799956
C223	C	0.196981	-0.409692	1.049956
C224	C	0.446981	-0.159692	1.299956
C225	C	-0.303012	-0.909708	0.632270
C226	C	-0.053012	-0.659708	0.882270
C227	C	0.196988	-0.409708	1.132270
C228	C	0.446988	-0.159708	1.382270
C229	C	-0.303008	-0.073846	0.356814
C230	C	-0.053008	0.176154	0.606814
C231	C	0.196992	0.426154	0.856814
C232	C	0.446992	0.676154	1.106814
C233	C	-0.303016	-0.143814	0.356813
C234	C	-0.053016	0.106186	0.606813
C235	C	0.196984	0.356186	0.856813
C236	C	0.446984	0.606186	1.106813
C237	C	-0.303005	-0.909656	0.164384
C238	C	-0.053005	-0.659656	0.414384
C239	C	0.196995	-0.409656	0.664384
C240	C	0.446995	-0.159656	0.914384
C241	C	-0.302835	-0.909762	0.082070
C242	C	-0.052835	-0.659762	0.332070
C243	C	0.197165	-0.409762	0.582070
C244	C	0.447165	-0.159762	0.832070
C245	C	-0.302894	-0.909744	0.931361
C246	C	-0.052894	-0.659744	1.181361
C247	C	0.197106	-0.409744	1.431361
C248	C	0.447106	-0.159744	1.681361
C249	C	-0.351399	-0.860898	0.900012
C250	C	-0.101399	-0.610898	1.150012
C251	C	0.148601	-0.360898	1.400012
C252	C	0.398601	-0.110898	1.650012
C253	C	-0.351624	-0.861030	0.814394
C254	C	-0.101624	-0.611030	1.064394
C255	C	0.148376	-0.361030	1.314394
C256	C	0.398376	-0.111030	1.564394
C257	C	-0.302953	-0.909726	0.782979
C258	C	-0.052953	-0.659726	1.032979
C259	C	0.197047	-0.409726	1.282979
C260	C	0.447047	-0.159726	1.532979
C261	C	-0.320940	-0.976048	0.814077
C262	C	-0.070940	-0.726048	1.064077
C263	C	0.179060	-0.476048	1.314077
C264	C	0.429060	-0.226048	1.564077
C265	C	-0.321259	-0.975776	0.899722
C266	C	-0.071259	-0.725776	1.149722
C267	C	0.178741	-0.475776	1.399722
C268	C	0.428741	-0.225776	1.649722
C269	C	-0.236294	-0.892844	0.899793
C270	C	0.013706	-0.642844	1.149793
C271	C	0.263706	-0.392844	1.399793
C272	C	0.513706	-0.142844	1.649793
C273	C	-0.236679	-0.891368	0.814142
C274	C	0.013321	-0.641368	1.064142
C275	C	0.263321	-0.391368	1.314142
C276	C	0.513321	-0.141368	1.564142
C277	C	-0.302985	-0.909719	0.699119
C278	C	-0.052985	-0.659719	0.949119
C279	C	0.197015	-0.409719	1.199119
C280	C	0.447015	-0.159719	1.449119
C281	C	-0.302864	-0.909755	1.015221
C282	C	-0.052864	-0.659755	1.265221
C283	C	0.197136	-0.409755	1.515221
C284	C	0.447136	-0.159755	1.765221
H285	H	-0.230083	-0.150025	0.442897
H286	H	0.019917	0.099975	0.692897
H287	H	0.269917	0.349975	0.942897
H288	H	0.519917	0.599975	1.192897
Cl289	Cl	-0.676546	-0.818730	0.463598
Cl290	Cl	-0.426546	-0.568730	0.713598
Cl291	Cl	-0.176546	-0.318730	0.963598
Cl292	Cl	0.073454	-0.068730	1.213598
H293	H	-0.542707	-0.836520	0.442621
H294	H	-0.292707	-0.586520	0.692621
H295	H	-0.042707	-0.336520	0.942621
H296	H	0.207293	-0.086520	1.192621
Cl297	Cl	-0.393811	-0.536076	0.249682
Cl298	Cl	-0.143811	-0.286076	0.499682
Cl299	Cl	0.106189	-0.036076	0.749682
Cl300	Cl	0.356189	0.213924	0.999682
Cl301	Cl	-0.929000	-0.818822	0.463651
Cl302	Cl	-0.679000	-0.568822	0.713651
Cl303	Cl	-0.429000	-0.318822	0.963651
Cl304	Cl	-0.179000	-0.068822	1.213651
H305	H	-0.230174	-0.670127	0.442873
H306	H	0.019826	-0.420127	0.692873
H307	H	0.269826	-0.170127	0.942873
H308	H	0.519826	0.079873	1.192873
Cl309	Cl	-0.395308	-0.998553	0.780967
Cl310	Cl	-0.145308	-0.748553	1.030967
Cl311	Cl	0.104692	-0.498553	1.280967
Cl312	Cl	0.354692	-0.248553	1.530967
Cl313	Cl	-0.928885	-1.000658	0.250029
Cl314	Cl	-0.678885	-0.750658	0.500029
Cl315	Cl	-0.428885	-0.500658	0.750029
Cl316	Cl	-0.178885	-0.250658	1.000029
H317	H	-1.062720	-0.982880	0.271029
H318	H	-0.812720	-0.732880	0.521029
H319	H	-0.562720	-0.482880	0.771029
H320	H	-0.312720	-0.232880	1.021029
Cl321	Cl	-1.077383	-0.818880	0.463686
Cl322	Cl	-0.827383	-0.568880	0.713686
Cl323	Cl	-0.577383	-0.318880	0.963686
Cl324	Cl	-0.327383	-0.068880	1.213686
H325	H	-0.340370	-0.811849	0.793367
H326	H	-0.090370	-0.561849	1.043367
H327	H	0.159630	-0.311849	1.293367
H328	H	0.409630	-0.061849	1.543367
Cl329	Cl	-0.396424	-0.997894	0.930569
Cl330	Cl	-0.146424	-0.747894	1.180569
Cl331	Cl	0.103576	-0.497894	1.430569
Cl332	Cl	0.353576	-0.247894	1.680569
Cl333	Cl	-0.180500	-0.947772	0.931096
Cl334	Cl	0.069500	-0.697772	1.181096
Cl335	Cl	0.319500	-0.447772	1.431096
Cl336	Cl	0.569500	-0.197772	1.681096
Cl337	Cl	-0.334201	-0.784734	0.931796
Cl338	Cl	-0.084201	-0.534734	1.181796
Cl339	Cl	0.165799	-0.284734	1.431796
Cl340	Cl	0.415799	-0.034734	1.681796
H341	H	-0.219902	-0.845322	0.921385
H342	H	0.030098	-0.595322	1.171385
H343	H	0.280098	-0.345322	1.421385
H344	H	0.530098	-0.095322	1.671385
H345	H	-0.400464	-0.871945	0.921533
H346	H	-0.150464	-0.621945	1.171533
H347	H	0.099536	-0.371945	1.421533
H348	H	0.349536	-0.121945	1.671533
Cl349	Cl	-0.212307	-0.283874	0.463912
Cl350	Cl	0.037693	-0.033874	0.713912
Cl351	Cl	0.287693	0.216126	0.963912
Cl352	Cl	0.537693	0.466126	1.213912
Cl353	Cl	-0.212347	-0.536326	0.463891
Cl354	Cl	0.037653	-0.286326	0.713891
Cl355	Cl	0.287653	-0.036326	0.963891
Cl356	Cl	0.537653	0.213674	1.213891
H357	H	-0.400990	-0.872188	0.793906
H358	H	-0.150990	-0.622188	1.043906
H359	H	0.099010	-0.372188	1.293906
H360	H	0.349010	-0.122188	1.543906
H361	H	-0.376028	-0.669928	0.270680
H362	H	-0.126028	-0.419928	0.520680
H363	H	0.123972	-0.169928	0.770680
H364	H	0.373972	0.080072	1.020680
H365	H	-0.375951	-0.149819	0.270727
H366	H	-0.125951	0.100181	0.520727
H367	H	0.124049	0.350181	0.770727
H368	H	0.374049	0.600181	1.020727
Cl369	Cl	-0.393769	-0.283622	0.249694
Cl370	Cl	-0.143769	-0.033622	0.499694
Cl371	Cl	0.106231	0.216378	0.749694
Cl372	Cl	0.356231	0.466378	0.999694
Cl373	Cl	-0.268110	-1.033750	0.782666
Cl374	Cl	-0.018110	-0.783750	1.032666
Cl375	Cl	0.231890	-0.533750	1.282666
Cl376	Cl	0.481890	-0.283750	1.532666
Cl377	Cl	-0.528049	-1.000515	0.249955
Cl378	Cl	-0.278049	-0.750515	0.499955
Cl379	Cl	-0.028049	-0.500515	0.749955
Cl380	Cl	0.221951	-0.250515	0.999955
Cl381	Cl	-0.269046	-1.033836	0.931746
Cl382	Cl	-0.019046	-0.783836	1.181746
Cl383	Cl	0.230954	-0.533836	1.431746
Cl384	Cl	0.480954	-0.283836	1.681746
Cl385	Cl	-0.215737	-0.816009	0.782770
Cl386	Cl	0.034263	-0.566009	1.032770
Cl387	Cl	0.284263	-0.316009	1.282770
Cl388	Cl	0.534263	-0.066009	1.532770
Cl389	Cl	-0.676433	-1.000564	0.249983
Cl390	Cl	-0.426433	-0.750564	0.499983
Cl391	Cl	-0.176433	-0.500564	0.749983
Cl392	Cl	0.073567	-0.250564	0.999983
H393	H	-0.198624	-0.924350	0.792758
H394	H	0.051376	-0.674350	1.042758
H395	H	0.301376	-0.424350	1.292758
H396	H	0.551376	-0.174350	1.542758
