data_functionalizedCrystal
_audit_creation_method	'MofGen! by Chris Wilmer'
_symmetry_space_group_name_H-M	'P1'
_symmetry_Int_Tables_number	1
_symmetry_cell_setting	triclinic
loop_
_symmetry_equiv_pos_as_xyz
  x,y,z
_cell_length_a	17.052832
_cell_length_b	23.196402
_cell_length_c	23.196402
_cell_angle_alpha	59.998648
_cell_angle_beta	102.315031
_cell_angle_gamma	67.555531
loop_
_atom_site_label
_atom_site_type_symbol
_atom_site_fract_x
_atom_site_fract_y
_atom_site_fract_z
Zr1	Zr	0.773332	0.630970	0.045632
O2	O	0.645183	0.751237	-0.066511
O3	O	0.812605	0.510708	0.080005
O4	O	0.812619	0.630974	-0.040260
O5	O	0.645171	0.630967	0.148627
O6	O	0.944709	0.630972	-0.019547
O7	O	0.645169	0.630971	0.053754
O8	O	0.944683	0.415838	0.195585
O9	O	0.645196	0.846101	-0.066505
O10	O	0.927946	0.560171	0.110128
O11	O	0.829370	0.560169	0.165473
O12	O	0.829387	0.701767	0.023877
O13	O	0.730811	0.701765	0.079222
Zr14	Zr	0.984003	0.630962	0.229978
Zr15	Zr	0.984000	0.630968	0.078667
Zr16	Zr	0.773335	0.630964	0.196944
Zr17	Zr	0.773353	0.782268	0.045641
Zr18	Zr	0.983982	0.479664	0.229969
O19	O	0.944731	0.751224	0.195605
O20	O	0.944726	0.751233	-0.019540
O21	O	0.645188	0.751228	0.148635
O22	O	1.112152	0.510695	0.342121
O23	O	1.112148	0.510704	0.126976
O24	O	0.812610	0.510699	0.295150
O25	O	1.112165	0.630965	0.126983
O26	O	0.944716	0.630958	0.315870
O27	O	0.812626	0.630960	0.295158
O28	O	1.112167	0.630961	0.221856
O29	O	0.812649	0.846099	-0.040247
O30	O	0.944686	0.415833	0.315858
O31	O	1.112139	0.415831	0.342115
O32	O	1.112137	0.415836	0.221843
O33	O	0.645199	0.846096	0.053767
O34	O	0.812652	0.846094	0.080025
O35	O	0.927949	0.560165	0.251734
O36	O	1.026524	0.560167	0.196389
O37	O	0.927966	0.701763	0.110137
O38	O	0.829390	0.701761	0.165482
C39	C	0.878641	0.441716	0.137794
C40	C	0.878632	0.377486	0.137790
C41	C	0.951403	0.295055	0.201462
C42	C	0.951410	0.234694	0.201470
C43	C	0.878653	0.256771	0.137795
C44	C	0.805869	0.339216	0.074117
C45	C	0.805858	0.399574	0.074114
C46	C	0.855994	0.201186	0.070449
C47	C	0.856011	0.140827	0.070453
C48	C	0.878679	0.070609	0.137802
C49	C	0.901352	0.060747	0.205156
C50	C	0.901342	0.121105	0.205154
C51	C	0.878656	0.191328	0.137791
C52	C	0.951462	-0.077276	0.201488
C53	C	0.951462	-0.137635	0.201495
C54	C	0.805925	-0.033111	0.074136
C55	C	0.805921	0.027246	0.074134
C56	C	0.878694	0.005158	0.137811
C57	C	0.615154	0.630969	0.096484
C58	C	0.525720	0.630970	0.082460
C59	C	0.273633	0.630957	0.252009
C60	C	0.357664	0.630951	0.265189
C61	C	0.399682	0.630956	0.219508
C62	C	0.357661	0.630967	0.160644
C63	C	0.273626	0.630966	0.147467
C64	C	0.399675	0.630965	0.114966
C65	C	0.357653	0.630976	0.056102
C66	C	0.273626	0.630976	0.042926
C67	C	0.231608	0.630971	0.088608
C68	C	0.483710	0.630966	0.128144
C69	C	0.483702	0.630975	0.023601
C70	C	0.399671	0.630981	0.010421
C71	C	1.142181	0.630963	0.179126
C72	C	1.231616	0.630962	0.193150
C73	C	0.878664	0.630974	-0.051462
C74	C	0.878662	0.630976	-0.115698
C75	C	0.878694	0.820216	0.137816
C76	C	0.878703	0.884445	0.137820
C77	C	0.827237	0.704867	-0.623543
C78	C	0.827228	0.704871	-0.563191
C79	C	0.878675	0.630960	-0.487987
C80	C	0.930114	0.557039	-0.473138
C81	C	0.930113	0.557037	-0.533490
C82	C	0.964861	0.574336	-0.350541
C83	C	0.964865	0.574342	-0.290191
C84	C	0.878677	0.630965	-0.301838
C85	C	0.792487	0.687596	-0.373849
C86	C	0.792486	0.687594	-0.434202
C87	C	0.878682	0.630955	-0.422539
C88	C	0.827227	0.704886	-0.251252
C89	C	0.827216	0.704888	-0.190899
C90	C	0.930111	0.557054	-0.100844
C91	C	0.930113	0.557055	-0.161199
C92	C	0.878673	0.630973	-0.236400
C93	C	0.878672	0.630958	0.327073
C94	C	0.878673	0.630955	0.391308
C95	C	1.142155	0.441713	0.179115
C96	C	1.231580	0.377482	0.193135
C97	C	0.878645	0.441708	0.327061
C98	C	0.878638	0.377476	0.391293
C99	C	1.142159	0.441705	0.368382
C100	C	1.231585	0.377472	0.446638
C101	C	0.615177	0.820227	-0.092772
C102	C	0.525750	0.884460	-0.171028
C103	C	0.615181	0.820219	0.096495
C104	C	0.525755	0.884450	0.082475
C105	C	0.878690	0.820224	-0.051451
C106	C	0.878698	0.884456	-0.115683
C107	C	1.222118	0.347321	0.154686
C108	C	1.306134	0.286978	0.167844
C109	C	1.399612	0.256793	0.219455
C110	C	1.409072	0.286960	0.257905
C111	C	1.325057	0.347306	0.244743
C112	C	0.930091	0.347310	0.466490
C113	C	0.930080	0.286965	0.526848
C114	C	0.878621	0.256784	0.512008
C115	C	0.827161	0.286956	0.436803
C116	C	0.827167	0.347304	0.376446
C117	C	1.325045	0.347308	0.454500
C118	C	1.409079	0.286962	0.528025
C119	C	1.399651	0.256777	0.593687
C120	C	1.306181	0.286947	0.585823
C121	C	1.222149	0.347296	0.512299
C122	C	0.432290	0.914631	-0.178889
C123	C	0.348256	0.974996	-0.252414
C124	C	0.357685	1.005184	-0.318077
C125	C	0.451154	0.975010	-0.310212
C126	C	0.535186	0.914651	-0.236688
C127	C	0.535218	0.914617	0.120918
C128	C	0.451201	0.974977	0.107744
C129	C	0.357724	1.005164	0.056130
C130	C	0.348264	0.974994	0.017683
C131	C	0.432279	0.914639	0.030853
C132	C	0.930167	0.914618	-0.100819
C133	C	0.930194	0.974963	-0.161162
C134	C	0.878744	1.005149	-0.236371
C135	C	0.827274	0.974981	-0.251234
C136	C	0.827253	0.914633	-0.190890
H137	H	0.919799	0.113073	0.259995
Br138	Br	0.513726	0.630949	0.237395
H139	H	1.298519	0.262362	0.639295
H140	H	0.971994	0.496874	-0.039613
H141	H	1.332741	0.371876	0.401042
Br142	Br	0.662022	0.873708	-0.226032
Br143	Br	0.419467	0.873673	-0.089788
Br144	Br	0.675512	0.764453	-0.389670
Br145	Br	0.662069	0.873665	0.190968
Br146	Br	1.095314	0.388222	0.501643
Br147	Br	0.707088	0.511454	-0.012305
H148	H	0.972063	0.890050	-0.039585
H149	H	0.722306	0.733704	-0.492831
Br150	Br	0.757328	0.245986	0.416675
Br151	Br	0.757334	0.388233	0.274394
Br152	Br	0.464063	1.015907	0.159931
Br153	Br	0.757386	0.873712	-0.211078
Br154	Br	1.337916	0.388228	0.296936
H155	H	1.468083	0.207638	0.653551
H156	H	0.424561	0.890079	-0.000451
H157	H	0.878768	1.054289	-0.285500
Br158	Br	0.216619	0.630936	0.314008
H159	H	0.919804	0.003576	0.259997
H160	H	0.272157	0.999553	-0.258803
Br161	Br	0.757444	1.015963	-0.353309
H162	H	0.972106	0.999520	-0.149046
Br163	Br	0.707173	-0.003142	-0.012277
H164	H	0.289253	1.054332	-0.377940
H165	H	1.010670	0.167566	0.253322
Br166	Br	1.050161	0.265077	0.287883
H167	H	0.785324	0.765078	-0.202999
Br168	Br	0.707155	0.139124	-0.012283
H169	H	0.458820	0.999597	-0.363684
Br170	Br	0.243711	1.087075	0.038264
H171	H	0.878624	0.207645	0.561162
H172	H	0.272143	0.999582	-0.024342
Br173	Br	0.757416	0.805201	-0.353313
Br174	Br	0.999926	0.456741	-0.141043
H175	H	1.010714	-0.095262	0.253339
H176	H	1.010721	-0.204758	0.253349
H177	H	0.837553	0.148862	0.015610
Br178	Br	0.825223	0.296483	-0.020963
H179	H	0.746628	0.357187	0.022273
H180	H	0.517917	0.630957	0.176071
H181	H	0.239418	0.630976	-0.004998
Br182	Br	0.540726	0.630974	-0.038393
Br183	Br	0.414695	0.630933	0.345073
H184	H	0.163180	0.630980	0.077875
Br185	Br	0.342633	0.630997	-0.069464
Br186	Br	1.513624	0.174893	0.237310
Br187	Br	0.757433	0.805186	-0.583339
Br188	Br	0.757419	0.805184	-0.725600
Br189	Br	0.999924	0.456721	-0.513334
Br190	Br	1.535918	0.246029	0.538679
Br191	Br	1.095266	0.388275	0.084634
Br192	Br	1.293272	0.246048	0.115656
H193	H	1.485193	0.262375	0.299928
H194	H	1.035047	0.528233	-0.231563
H195	H	0.972001	0.496861	-0.411902
Br196	Br	1.081840	0.497483	-0.334724
H197	H	0.971988	0.262406	0.588079
Br198	Br	0.999942	0.388253	0.486652
