data_functionalizedCrystal
_audit_creation_method	'MofGen! by Chris Wilmer'
_symmetry_space_group_name_H-M	'P1'
_symmetry_Int_Tables_number	1
_symmetry_cell_setting	triclinic
loop_
_symmetry_equiv_pos_as_xyz
  x,y,z
_cell_length_a	12.837943
_cell_length_b	16.992695
_cell_length_c	16.053802
_cell_angle_alpha	87.258926
_cell_angle_beta	92.852232
_cell_angle_gamma	92.748581
loop_
_atom_site_label
_atom_site_type_symbol
_atom_site_fract_x
_atom_site_fract_y
_atom_site_fract_z
O1	O	-1.396570	-0.202115	-0.069416
O2	O	-1.093925	-0.191983	-0.069421
O3	O	-1.244034	-0.082816	-0.069412
O4	O	-1.246461	-0.311282	-0.069425
O5	O	-1.235769	-0.088797	0.069446
O6	O	-1.085661	-0.197964	0.069437
O7	O	-1.388305	-0.208096	0.069442
Zn8	Zn	-1.235671	-0.203980	0.091486
Zn9	Zn	-1.246560	-0.196099	-0.091465
O10	O	-1.238197	-0.317263	0.069433
C11	C	-1.236780	-0.056361	0.000017
C12	C	-1.227467	0.031379	0.000017
C13	C	-1.050889	-0.191551	0.000008
C14	C	-0.934966	-0.181343	0.000006
C15	C	-1.431342	-0.208528	0.000012
C16	C	-1.547265	-0.218737	0.000008
C17	C	-0.704174	-0.304064	0.000011
C18	C	-0.595254	-0.294477	0.000010
C19	C	-0.608204	-0.152580	0.000009
C20	C	-0.717124	-0.162168	0.000010
C21	C	-0.765105	-0.237912	0.000010
C22	C	-0.874027	-0.247499	0.000005
C23	C	-0.886975	-0.105603	0.000010
C24	C	-0.778054	-0.096016	0.000009
C25	C	-1.245450	-0.343718	0.000002
C26	C	-1.254764	-0.431458	-0.000003
N27	N	-1.228247	-0.209359	0.216346
C28	C	-1.317330	0.074905	0.000019
C29	C	-1.308573	0.157347	0.000011
C30	C	-1.209952	0.196260	0.000006
C31	C	-1.120082	0.152728	0.000002
C32	C	-1.128840	0.070289	0.000004
C33	C	-1.173653	0.442570	-0.000006
C34	C	-1.164901	0.525016	-0.000005
C35	C	-1.353393	0.529629	0.000002
C36	C	-1.362142	0.447187	0.000010
C37	C	-1.272273	0.403663	0.000000
N38	N	-1.200998	0.280528	0.000001
N39	N	-1.281228	0.319396	-0.000000
N40	N	-1.253991	-0.190715	-0.216325
C41	C	-1.292145	-0.162928	0.260044
C42	C	-1.286962	-0.166699	0.347451
C43	C	-1.217886	-0.216904	0.391158
C44	C	-1.153981	-0.263336	0.347454
C45	C	-1.159159	-0.259561	0.260049
C46	C	-1.195265	-0.233372	0.652566
C47	C	-1.190094	-0.237146	0.739977
C48	C	-1.323074	-0.140506	0.739968
C49	C	-1.328250	-0.136739	0.652561
C50	C	-1.264342	-0.183168	0.608865
N51	N	-1.212589	-0.220761	0.480501
N52	N	-1.269634	-0.179306	0.519523
H53	H	-0.913092	-0.309175	0.000006
C54	C	-1.371413	-0.009685	0.766886
C55	C	-1.393305	-0.089463	0.788001
H56	H	-1.414774	0.021829	0.796537
H57	H	-1.300247	0.003485	0.781225
H58	H	-1.384387	-0.000263	0.708575
H59	H	-1.380324	-0.098886	0.846312
H60	H	-1.464487	-0.102638	0.773667
H61	H	-0.738972	-0.034347	0.000019
C62	C	-1.412337	0.255790	-0.071378
C63	C	-1.407358	0.205186	0.000010
H64	H	-1.473331	0.285318	-0.071381
H65	H	-1.352361	0.290763	-0.071377
H66	H	-1.414713	0.225602	-0.119791
H67	H	-1.404974	0.235373	0.048424
H68	H	-1.467350	0.170208	0.000017
C69	C	-0.554930	-0.409394	-0.071379
C70	C	-0.528276	-0.367191	0.000005
H71	H	-0.513575	-0.454284	-0.071382
H72	H	-0.626657	-0.425941	-0.071370
H73	H	-0.542617	-0.376579	-0.119795
H74	H	-0.540596	-0.400005	0.048422
H75	H	-0.456532	-0.350645	0.000004
H76	H	-0.743241	-0.365739	0.000009
H77	H	-0.569114	-0.090915	0.000078
C78	C	-1.187348	-0.334810	0.554273
C79	C	-1.125031	-0.284421	0.604545
H80	H	-1.143986	-0.366326	0.524623
H81	H	-1.231094	-0.367914	0.588360
H82	H	-1.229213	-0.304360	0.515731
H83	H	-1.083172	-0.314871	0.643092
H84	H	-1.081267	-0.251313	0.570455
H85	H	-1.397637	0.043228	0.000028
H86	H	-0.936597	-0.051737	0.000003
H87	H	-1.442450	0.415510	0.000013
H88	H	-1.426559	0.565075	0.000008
C89	C	-0.979457	0.512181	-0.000038
C90	C	-1.056489	0.567792	-0.000023
H91	H	-0.912533	0.538591	-0.000055
H92	H	-0.983895	0.478042	0.048383
H93	H	-0.989691	0.482203	-0.048463
H94	H	-1.046259	0.597766	0.048405
H95	H	-1.052048	0.601944	-0.048450
H96	H	-1.100474	0.407142	-0.000013
H97	H	-1.039783	0.184418	-0.000007
H98	H	-1.055664	0.034850	0.000002
C99	C	-1.007626	-0.274033	0.445778
C100	C	-1.078052	-0.318522	0.395499
H101	H	-0.960757	-0.308106	0.475441
H102	H	-0.969408	-0.236907	0.411694
H103	H	-1.044955	-0.246924	0.484308
H104	H	-1.040723	-0.345627	0.356965
H105	H	-1.116274	-0.355663	0.429586
H106	H	-1.348398	-0.122049	0.224463
H107	H	-1.338992	-0.128891	0.383029
H108	H	-1.384497	-0.095858	0.616977
H109	H	-1.107125	-0.297369	0.224471
H110	H	-1.133841	-0.278032	0.775559
