data_functionalizedCrystal
_audit_creation_method	'MofGen! by Chris Wilmer'
_symmetry_space_group_name_H-M	'P1'
_symmetry_Int_Tables_number	1
_symmetry_cell_setting	triclinic
loop_
_symmetry_equiv_pos_as_xyz
  x,y,z
_cell_length_a	14.044191
_cell_length_b	12.503572
_cell_length_c	10.654550
_cell_angle_alpha	86.441476
_cell_angle_beta	88.838340
_cell_angle_gamma	93.837835
loop_
_atom_site_label
_atom_site_type_symbol
_atom_site_fract_x
_atom_site_fract_y
_atom_site_fract_z
O1	O	1.265119	0.089263	0.296375
O2	O	0.989079	0.089277	0.285432
O3	O	1.133445	0.089266	0.108802
O4	O	1.120752	0.089274	0.473004
O5	O	1.122588	-0.089375	0.122110
O6	O	0.978221	-0.089364	0.298739
O7	O	1.254262	-0.089378	0.309683
Cu8	Cu	1.115250	-0.105682	0.305426
Cu9	Cu	1.128090	0.105581	0.289688
O10	O	1.109895	-0.089367	0.486312
C11	C	0.948304	-0.000042	0.287298
C12	C	0.842985	-0.000037	0.273019
C13	C	0.593192	-0.000046	0.348185
C14	C	0.650155	-0.000046	0.246934
C15	C	0.757455	-0.000041	0.261451
C16	C	0.485882	-0.000051	0.333670
N17	N	1.106227	-0.254274	0.316495
C18	C	1.092952	-0.473388	0.332789
C19	C	1.150393	-0.526720	0.262320
C20	C	1.143007	-0.648642	0.271386
C21	C	1.100337	-0.351455	0.323724
C22	C	1.295037	-0.000057	0.307816
C23	C	1.400357	-0.000055	0.322095
C24	C	1.127085	-0.000053	0.068564
C25	C	1.124297	-0.000050	-0.071159
N26	N	1.137122	0.254173	0.278610
C27	C	1.209297	-0.000057	-0.142100
C28	C	1.206672	-0.000049	-0.273385
C29	C	1.034037	-0.000031	-0.262777
C30	C	1.036664	-0.000031	-0.131495
C31	C	1.308967	-0.000072	-0.148225
C32	C	1.306341	-0.000065	-0.279511
C33	C	1.116256	-0.000045	0.526550
C34	C	1.119045	-0.000042	0.666273
H35	H	1.038233	-0.519291	0.399924
H36	H	0.962690	-0.000016	-0.311918
H37	H	0.618343	0.000027	0.149343
H38	H	0.967449	-0.000010	-0.073741
H39	H	1.205117	-0.480811	0.195182
H40	H	0.625007	-0.000040	0.445762
N41	N	1.366623	0.098940	-0.111506
H42	H	1.390452	0.143131	-0.189813
H43	H	1.325152	0.143052	-0.059361
N44	N	1.344780	-0.102229	-0.089125
H45	H	1.293931	-0.139023	-0.030014
H46	H	1.360177	-0.151550	-0.157191
N47	N	1.350017	-0.099119	-0.322455
H48	H	1.348133	-0.099158	-0.417164
H49	H	1.418425	-0.099148	-0.294996
N50	N	1.352471	0.102089	-0.343575
H51	H	1.317919	0.165489	-0.316676
H52	H	1.421537	0.110746	-0.319142
