data_functionalizedCrystal
_audit_creation_method	'MofGen! by Chris Wilmer'
_symmetry_space_group_name_H-M	'P1'
_symmetry_Int_Tables_number	1
_symmetry_cell_setting	triclinic
loop_
_symmetry_equiv_pos_as_xyz
  x,y,z
_cell_length_a	23.532407
_cell_length_b	17.038272
_cell_length_c	15.500227
_cell_angle_alpha	93.043705
_cell_angle_beta	92.801767
_cell_angle_gamma	93.019848
loop_
_atom_site_label
_atom_site_type_symbol
_atom_site_fract_x
_atom_site_fract_y
_atom_site_fract_z
O1	O	0.121159	-1.040103	-0.071863
O2	O	0.119195	-0.812488	-0.071888
O3	O	0.037607	-0.933158	-0.071851
O4	O	0.202747	-0.919433	-0.071901
O5	O	0.042537	-0.925836	0.072036
O6	O	0.124125	-0.805166	0.071998
O7	O	0.126089	-1.032781	0.072023
Cu8	Cu	0.125557	-0.918305	0.085149
Cu9	Cu	0.119727	-0.926964	-0.085014
O10	O	0.207677	-0.912111	0.071986
C11	C	0.119875	-0.779712	0.000052
C12	C	0.114548	-0.692959	0.000044
C13	C	0.018838	-0.929147	0.000097
C14	C	-0.044434	-0.928096	0.000110
C15	C	0.125409	-1.065557	0.000081
C16	C	0.130736	-1.152310	0.000084
C17	C	-0.314586	-0.852353	0.000048
C18	C	-0.255134	-0.853329	0.000054
O19	O	-0.221549	-0.793243	0.000020
N20	N	-0.228735	-0.925068	0.000072
C21	C	-0.261793	-0.995835	0.000075
O22	O	-0.233880	-1.056944	0.000089
C23	C	-0.321243	-0.994859	0.000062
C24	C	-0.347638	-0.923115	0.000053
C25	C	-0.340981	-0.780616	0.000038
C26	C	-0.400428	-0.779640	0.000033
C27	C	-0.433481	-0.850402	0.000037
C28	C	-0.407086	-0.922140	0.000047
C29	C	-0.354300	-1.065626	0.000058
C30	C	-0.413754	-1.064643	0.000044
C31	C	-0.440149	-0.992900	0.000035
C32	C	-0.499586	-0.991926	0.000047
N33	N	-0.525984	-0.920187	0.000029
C34	C	-0.492932	-0.849425	0.000024
C35	C	-0.136942	-0.997881	0.000100
C36	C	-0.077492	-0.998858	0.000119
C37	C	-0.070837	-0.856351	0.000098
C38	C	-0.130288	-0.855375	0.000085
C39	C	-0.163340	-0.926142	0.000082
C40	C	-0.617776	-0.847382	0.000014
C41	C	-0.677229	-0.846412	0.000013
C42	C	-0.683879	-0.988918	0.000030
C43	C	-0.624431	-0.989888	0.000036
C44	C	-0.591381	-0.919114	0.000025
O45	O	-0.533207	-1.051981	0.000078
O46	O	-0.520853	-0.788327	-0.000002
C47	C	0.226446	-0.916122	0.000036
C48	C	0.289718	-0.917174	0.000018
N49	N	0.129658	-0.912220	0.204832
C50	C	0.163452	-0.642484	0.000030
C51	C	0.158444	-0.560969	0.000043
C52	C	0.104531	-0.529933	0.000065
C53	C	0.055624	-0.580415	0.000081
C54	C	0.060632	-0.661927	0.000074
C55	C	0.086837	-0.284305	0.000093
C56	C	0.081832	-0.202786	0.000098
C57	C	0.184653	-0.183346	0.000061
C58	C	0.189657	-0.264861	0.000049
C59	C	0.140749	-0.315336	0.000070
C60	C	0.099411	-0.446613	0.000076
C61	C	0.145870	-0.398654	0.000065
N62	N	0.115622	-0.933056	-0.204697
C63	C	0.095101	-0.963369	0.250124
C64	C	0.098208	-0.958775	0.340696
C65	C	0.135875	-0.903033	0.385973
C66	C	0.170434	-0.851878	0.340674
C67	C	0.167324	-0.856470	0.250104
C68	C	0.147070	-0.886492	0.659435
C69	C	0.150179	-0.881906	0.750011
C70	C	0.077952	-0.988802	0.750026
C71	C	0.074847	-0.993392	0.659455
C72	C	0.109404	-0.942234	0.614164
C73	C	0.139053	-0.898337	0.478552
C74	C	0.106223	-0.946927	0.521587
H75	H	-0.590874	-0.789750	0.000005
O76	O	0.180560	-0.836737	0.615403
C77	C	0.145924	-0.791425	0.563016
H78	H	0.101901	-0.789062	0.590330
H79	H	0.166086	-0.729182	0.561983
H80	H	0.141777	-0.819391	0.494374
H81	H	-0.151774	-0.796955	0.000081
O82	O	-0.702778	-0.776650	-0.000038
C83	C	-0.660852	-0.714405	-0.000022
H84	H	-0.620379	-0.737380	-0.027255
H85	H	-0.677122	-0.666416	-0.041806
H86	H	-0.651151	-0.689086	0.069004
O87	O	0.044298	-1.038457	0.793930
C88	C	-0.013436	-1.027293	0.771840
H89	H	-0.017092	-1.000505	0.706084
H90	H	-0.038712	-1.086410	0.768749
H91	H	-0.031189	-0.985939	0.822826
O92	O	0.013067	-0.710853	0.000045
C93	C	-0.035592	-0.665981	0.000085
H94	H	-0.025025	-0.606409	-0.027156
H95	H	-0.071532	-0.698453	-0.041680
H96	H	-0.049566	-0.656799	0.069120
O97	O	0.037997	-1.047267	0.615575
C98	C	-0.000956	-1.008039	0.563503
H99	H	0.018470	-0.947558	0.549747
H100	H	-0.010913	-1.043942	0.499889
H101	H	-0.041922	-1.000897	0.598765
O102	O	0.029416	-0.172765	0.000156
C103	C	-0.012679	-0.234794	0.000151
H104	H	0.006893	-0.288666	0.027388
H105	H	-0.048649	-0.215914	0.041936
H106	H	-0.030320	-0.249959	-0.068874
O107	O	-0.598880	-1.059649	0.000007
C108	C	-0.640804	-1.121893	0.000034
H109	H	-0.683137	-1.101690	-0.027200
H110	H	-0.627385	-1.174131	-0.041742
H111	H	-0.645790	-1.140192	0.069065
O112	O	-0.308814	-0.711917	0.000150
C113	C	-0.271701	-0.704410	0.074690
H114	H	-0.264831	-0.765154	0.099540
H115	H	-0.229060	-0.675780	0.057940
H116	H	-0.291200	-0.666226	0.126864
H117	H	0.189766	-0.423927	0.000053
O118	O	-0.445916	-1.133332	0.000159
C119	C	-0.477953	-1.133255	0.074686
H120	H	-0.483126	-1.069983	0.099525
H121	H	-0.521738	-1.163582	0.057924
H122	H	-0.454903	-1.166137	0.126873
O123	O	0.232114	-0.134241	-0.000067
C124	C	0.229748	-0.090304	-0.074594
H125	H	0.183512	-0.087793	-0.099426
H126	H	0.248560	-0.028020	-0.057834
H127	H	0.255261	-0.119568	-0.126786
H128	H	-0.710801	-1.046530	0.000038
H129	H	0.201102	-0.806489	0.377544
O130	O	0.200952	-0.806749	0.206238
C131	C	0.234856	-0.756553	0.265620
H132	H	0.239284	-0.785317	0.330176
H133	H	0.278838	-0.745599	0.239430
H134	H	0.213864	-0.698153	0.275271
H135	H	0.180855	-0.836512	0.786871
O136	O	0.215868	-0.672497	0.000046
C137	C	0.257957	-0.610463	0.000016
H138	H	0.240248	-0.553827	0.027267
H139	H	0.296792	-0.625094	0.041777
H140	H	0.270866	-0.602306	-0.069017
H141	H	0.075552	-0.992309	0.484720
H142	H	-0.421913	-0.721219	0.000018
H143	H	0.011727	-0.555138	0.000111
H144	H	0.047013	-0.325392	0.000111
H145	H	-0.043915	-0.798733	0.000094
O146	O	-0.051948	-1.068620	0.000099
C147	C	-0.093875	-1.130859	0.000126
H148	H	-0.136205	-1.110655	-0.027122
H149	H	-0.080456	-1.183104	-0.041640
H150	H	-0.098870	-1.149149	0.069158
H151	H	-0.163849	-1.055511	0.000104
O152	O	-0.328762	-1.135390	0.000025
C153	C	-0.370694	-1.197625	0.000043
H154	H	-0.413021	-1.177412	-0.027203
H155	H	-0.357277	-1.249868	-0.041728
H156	H	-0.375691	-1.215920	0.069073
O157	O	0.175721	-0.844228	0.522437
C158	C	0.231939	-0.857624	0.500301
H159	H	0.231088	-0.891083	0.434537
H160	H	0.256997	-0.798817	0.497200
H161	H	0.253193	-0.893803	0.551264
H162	H	0.233558	-0.290125	0.000021
O163	O	0.205906	-0.511868	-0.000094
C164	C	0.203534	-0.467933	-0.074623
H165	H	0.157295	-0.465417	-0.099442
H166	H	0.222350	-0.405650	-0.057869
H167	H	0.229039	-0.497202	-0.126821
O168	O	0.047007	-0.416559	-0.000028
C169	C	0.014408	-0.446150	-0.074556
H170	H	0.031806	-0.503834	-0.099409
H171	H	-0.031879	-0.456973	-0.057788
H172	H	0.016936	-0.401573	-0.126734
H173	H	0.064431	-1.008763	0.213266
H174	H	0.070068	-1.000424	0.377573
