data_functionalizedCrystal
_audit_creation_method	'MofGen! by Chris Wilmer'
_symmetry_space_group_name_H-M	'P1'
_symmetry_Int_Tables_number	1
_symmetry_cell_setting	triclinic
loop_
_symmetry_equiv_pos_as_xyz
  x,y,z
_cell_length_a	17.640280
_cell_length_b	17.638785
_cell_length_c	17.639477
_cell_angle_alpha	92.171866
_cell_angle_beta	70.346041
_cell_angle_gamma	114.313988
loop_
_atom_site_label
_atom_site_type_symbol
_atom_site_fract_x
_atom_site_fract_y
_atom_site_fract_z
Zn1	Zn	-0.431961	-1.175179	-0.596877
Zn2	Zn	-0.608915	-1.242107	-0.442471
Zn3	Zn	-0.443211	-1.076475	-0.442519
Zn4	Zn	-0.553084	-1.076454	-0.552453
O5	O	-0.509293	-1.142554	-0.508580
O6	O	-0.474092	-1.294692	-0.594967
O7	O	-0.615008	-1.248154	-0.331849
O8	O	-0.321680	-1.061568	-0.481607
O9	O	-0.604100	-1.343864	-0.481525
O10	O	-0.313415	-1.134085	-0.595013
O11	O	-0.493265	-1.126465	-0.331885
O12	O	-0.439128	-0.965838	-0.438530
O13	O	-0.508943	-1.061532	-0.668974
O14	O	-0.519851	-0.965822	-0.519299
O15	O	-0.419954	-1.134065	-0.701612
O16	O	-0.721547	-1.248134	-0.438448
O17	O	-0.680528	-1.126429	-0.519252
C18	C	-0.474652	-0.937144	-0.474099
C19	C	-0.459849	-0.849269	-0.459364
C20	C	-0.621858	-0.560534	-0.620692
C21	C	-0.607945	-0.477965	-0.606827
C22	C	-0.523678	-0.477868	-0.522906
C23	C	-0.537587	-0.560440	-0.536761
C24	C	-0.586677	-0.601766	-0.585655
C25	C	-0.502406	-0.601673	-0.501724
C26	C	-0.516311	-0.684236	-0.515581
C27	C	-0.565396	-0.725567	-0.564475
C28	C	-0.600581	-0.684330	-0.599512
C29	C	-0.453311	-0.560343	-0.452834
C30	C	-0.418131	-0.601575	-0.417797
C31	C	-0.432040	-0.684142	-0.431650
C32	C	-0.481125	-0.725473	-0.480544
C33	C	-0.396855	-0.725379	-0.396612
C34	C	-0.410759	-0.807943	-0.410469
C35	C	-0.495030	-0.808036	-0.494401
C36	C	-0.732162	-1.194559	-0.474045
C37	C	-0.827511	-1.216872	-0.459310
C38	C	-1.034498	-0.973292	-0.620867
C39	C	-1.124100	-0.994267	-0.606995
C40	C	-1.166733	-1.121035	-0.522967
C41	C	-1.077132	-1.100073	-0.536835
C42	C	-1.011021	-1.026200	-0.585784
C43	C	-1.053655	-1.152981	-0.501752
C44	C	-0.964063	-1.132018	-0.515615
C45	C	-0.897947	-1.058147	-0.564561
C46	C	-0.921428	-1.005237	-0.599647
C47	C	-1.119768	-1.226850	-0.452798
C48	C	-1.096291	-1.279758	-0.417716
C49	C	-1.006697	-1.258798	-0.431583
C50	C	-0.940581	-1.184927	-0.480529
C51	C	-0.983215	-1.311708	-0.396497
C52	C	-0.893623	-1.290745	-0.410360
C53	C	-0.850988	-1.163964	-0.494392
C54	C	-0.285553	-1.090363	-0.543271
C55	C	-0.190208	-1.068123	-0.558054
C56	C	-0.456966	-1.090330	-0.714780
C57	C	-0.434667	-1.068076	-0.802650
C58	C	-0.544063	-0.348765	-0.543195
C59	C	-0.558863	-0.436636	-0.557946
C60	C	-0.678258	-1.311680	-1.091529
C61	C	-0.657294	-1.290756	-1.174096
C62	C	-0.530532	-1.164050	-1.174132
C63	C	-0.551488	-1.184961	-1.091562
C64	C	-0.625352	-1.258778	-1.050268
C65	C	-0.498581	-1.132058	-1.050301
C66	C	-0.519533	-1.152971	-0.967739
C67	C	-0.593392	-1.226785	-0.926439
C68	C	-0.646304	-1.279690	-0.967706
C69	C	-0.424714	-1.058245	-1.091598
C70	C	-0.371808	-1.005343	-1.050337
C71	C	-0.392763	-1.026251	-0.967773
C72	C	-0.466622	-1.100066	-0.926473
C73	C	-0.339852	-0.973347	-0.926506
C74	C	-0.360804	-0.994259	-0.843944
C75	C	-0.487574	-1.120978	-0.843911
C76	C	-0.561362	-1.194606	-0.303200
C77	C	-0.583444	-1.216957	-0.215393
H78	H	-0.483706	-0.444209	-0.483099
H79	H	-0.356879	-0.691717	-0.356809
H80	H	-0.874509	-1.333828	-0.381791
H81	H	-0.980665	-0.913142	-0.660733
Br82	Br	-0.434434	-0.448289	-0.434033
Br83	Br	-0.831697	-0.904987	-0.666092
H84	H	-1.143207	-0.951185	-0.635579
H85	H	-0.824996	-1.041076	-0.575841
H86	H	-1.220572	-1.181181	-0.483110
H87	H	-1.192719	-1.243917	-0.441515
Br88	Br	-1.186019	-1.380011	-0.351287
Br89	Br	-0.363011	-0.863905	-0.362922
Br90	Br	-1.072946	-1.411954	-0.330059
H91	H	-0.547714	-1.181092	-0.810289
H92	H	-0.576710	-0.792793	-0.575762
Br93	Br	-0.621826	-1.255173	-0.814392
Br94	Br	-0.746561	-1.379861	-0.911651
H95	H	-0.738399	-1.371794	-1.057907
H96	H	-0.700381	-1.333842	-1.207689
Br97	Br	-0.667218	-0.740428	-0.665858
Br98	Br	-0.288998	-0.922466	-0.787943
H99	H	-0.470390	-1.103950	-1.207766
H100	H	-0.407655	-1.041224	-1.158826
H101	H	-0.311666	-0.945243	-1.083971
H102	H	-0.636594	-0.444395	-0.635366
Br103	Br	-0.561666	-0.864135	-0.560746
Br104	Br	-0.688495	-0.616633	-0.687037
Br105	Br	-0.351504	-0.545481	-0.351449
Br106	Br	-0.761257	-1.063715	-0.560836
H107	H	-0.279707	-0.913250	-0.960142
