data_functionalizedCrystal
_audit_creation_method	'MofGen! by Chris Wilmer'
_symmetry_space_group_name_H-M	'P1'
_symmetry_Int_Tables_number	1
_symmetry_cell_setting	triclinic
loop_
_symmetry_equiv_pos_as_xyz
  x,y,z
_cell_length_a	20.919309
_cell_length_b	20.919540
_cell_length_c	16.704494
_cell_angle_alpha	61.512798
_cell_angle_beta	90.228451
_cell_angle_gamma	55.771029
loop_
_atom_site_label
_atom_site_type_symbol
_atom_site_fract_x
_atom_site_fract_y
_atom_site_fract_z
Zr1	Zr	0.607870	0.681235	-0.116677
O2	O	0.499406	0.819691	-0.252697
O3	O	0.646420	0.540931	-0.068308
O4	O	0.646342	0.667705	-0.235891
O5	O	0.493516	0.704235	0.039490
O6	O	0.756219	0.659135	-0.230225
O7	O	0.499484	0.692917	-0.085113
O8	O	0.756357	0.432359	0.069551
O9	O	0.493378	0.931011	-0.260287
O10	O	0.738457	0.592929	-0.051511
O11	O	0.652004	0.607771	0.037250
O12	O	0.651913	0.757032	-0.160058
O13	O	0.565459	0.771874	-0.071297
Zr14	Zr	0.773592	0.685618	0.091087
Zr15	Zr	0.783110	0.667567	-0.107640
Zr16	Zr	0.598352	0.699286	0.082050
Zr17	Zr	0.598255	0.858777	-0.128783
Zr18	Zr	0.783208	0.508076	0.103192
O19	O	0.735043	0.825923	0.042717
O20	O	0.748576	0.800257	-0.239847
O21	O	0.485873	0.845357	0.029868
O22	O	0.882056	0.547162	0.227106
O23	O	0.895589	0.521496	-0.055458
O24	O	0.632886	0.566596	0.214256
O25	O	0.887946	0.662619	-0.065080
O26	O	0.735120	0.699149	0.210301
O27	O	0.625243	0.707718	0.204634
O28	O	0.881979	0.673936	0.059523
O29	O	0.632671	0.920147	-0.253103
O30	O	0.748792	0.446707	0.227513
O31	O	0.888085	0.435842	0.234696
O32	O	0.895650	0.421494	0.076735
O33	O	0.485812	0.945359	-0.102325
O34	O	0.625105	0.934495	-0.095142
O35	O	0.729550	0.609822	0.134468
O36	O	0.816003	0.594980	0.045707
O37	O	0.729459	0.759082	-0.062840
O38	O	0.643005	0.773924	0.025921
C39	C	0.702758	0.461349	0.002347
C40	C	0.706840	0.385977	0.007486
C41	C	0.733247	-0.043490	0.040447
C42	C	0.729366	0.027361	0.035600
C43	C	0.666856	0.122578	-0.042769
C44	C	0.608228	0.146943	-0.116299
C45	C	0.612113	0.076092	-0.111454
C46	C	0.652098	0.339492	-0.061200
C47	C	0.648215	0.410343	-0.066038
C48	C	0.769355	0.290756	0.085861
C49	C	0.773232	0.219910	0.090702
C50	C	0.714606	0.244281	0.017169
C51	C	0.662885	0.195000	-0.047724
C52	C	0.718581	0.171858	0.022121
C53	C	0.471532	0.700523	-0.024099
C54	C	0.397137	0.706326	-0.027936
C55	C	0.407360	0.623394	0.026917
C56	C	0.337456	0.628852	0.023310
C57	C	0.257330	0.717242	-0.035157
C58	C	0.247108	0.800180	-0.090011
C59	C	0.317012	0.794722	-0.086398
C60	C	0.044007	0.738008	-0.048896
C61	C	-0.025898	0.743460	-0.052508
C62	C	0.064454	0.572130	0.060815
C63	C	0.134355	0.566680	0.064419
C64	C	0.124128	0.649618	0.009568
C65	C	0.185875	0.722822	-0.038848
C66	C	0.195581	0.644037	0.013265
C67	C	0.909931	0.666330	-0.001491
C68	C	0.984325	0.660528	0.002345
C69	C	0.702637	0.660848	-0.261372
C70	C	0.706677	0.653185	-0.345737
C71	C	0.678704	0.905505	-0.027937
C72	C	0.674622	0.980876	-0.033076
C73	C	0.623922	0.810123	-0.617602
C74	C	0.627716	0.802927	-0.696873
C75	C	0.718065	0.631599	-0.583553
C76	C	0.714270	0.638794	-0.504281
C77	C	0.667196	0.728060	-0.521311
C78	C	0.663398	0.735255	-0.442038
C79	C	0.753750	0.563927	-0.328719
C80	C	0.757545	0.556731	-0.407991
C81	C	0.678826	0.706005	0.235782
C82	C	0.674785	0.713668	0.320147
C83	C	0.921958	0.444252	0.013651
C84	C	1.000434	0.363078	0.022626
C85	C	0.690853	0.483927	0.250924
C86	C	0.690894	0.416219	0.340427
C87	C	0.910052	0.466831	0.262228
C88	C	0.984488	0.393320	0.355568
C89	C	0.471410	0.900023	-0.287818
C90	C	0.396974	0.973534	-0.381159
C91	C	0.459505	0.922601	-0.039241
C92	C	0.381028	1.003775	-0.048217
C93	C	0.690609	0.882926	-0.276514
C94	C	0.690568	0.950634	-0.366018
C95	C	0.996809	0.323887	-0.023914
C96	C	1.070540	0.247624	-0.015500
C97	C	1.147894	0.210550	0.039460
C98	C	1.151516	0.249749	0.086001
C99	C	1.077787	0.326014	0.077581
C100	C	0.731391	0.385494	0.433215
C101	C	0.731426	0.321886	0.517320
C102	C	0.690968	0.288998	0.508636
C103	C	0.650466	0.319730	0.415839
C104	C	0.650426	0.383343	0.331735
C105	C	1.064579	0.351051	0.353070
C106	C	1.134525	0.281988	0.440765
C107	C	1.124380	0.255191	0.530958
C108	C	1.044280	0.297468	0.533453
C109	C	0.974335	0.366534	0.445759
C110	C	0.316883	1.015811	-0.378661
C111	C	0.246935	1.084896	-0.466357
C112	C	0.257081	1.111696	-0.556550
C113	C	0.337181	1.069415	-0.559046
C114	C	0.407126	1.000337	-0.471350
C115	C	0.384653	1.042973	-0.001685
C116	C	0.310923	1.119253	-0.010122
C117	C	0.233568	1.156330	-0.065085
C118	C	0.229946	1.117128	-0.111623
C119	C	0.303675	1.040854	-0.103191
C120	C	0.731034	0.983501	-0.357303
C121	C	0.731011	1.047110	-0.441392
C122	C	0.690517	1.077857	-0.534196
C123	C	0.650050	1.044983	-0.542909
C124	C	0.650078	0.981370	-0.458820
H125	H	0.597293	0.487880	-0.129841
Br126	Br	1.030525	0.261091	0.655867
Br127	Br	0.162145	1.205448	-0.675559
H128	H	0.345431	1.091245	-0.632491
Br129	Br	0.595147	0.936781	-0.470667
Br130	Br	0.298741	0.987662	-0.166344
H131	H	1.199740	0.247572	0.438716
Br132	Br	0.785997	0.941788	-0.231365
H133	H	0.181722	1.119311	-0.464307
Br134	Br	0.818082	-0.172709	0.146815
Br135	Br	0.785931	1.091715	-0.429544
H136	H	0.308607	0.993995	-0.305229
Br137	Br	1.256504	0.199420	0.160590
Br138	Br	1.078371	0.387406	0.230677
Br139	Br	0.315859	1.172437	0.053045
Br140	Br	0.858063	0.090690	0.197071
Br141	Br	0.515820	0.942962	-0.474758
Br142	Br	0.532553	0.109161	-0.211246
H143	H	0.756399	0.558923	-0.569704
Br144	Br	0.690486	1.164192	-0.648308
Br145	Br	0.865643	0.423889	0.449167
Br146	Br	0.595464	0.425029	0.205813
H147	H	0.933831	0.354071	-0.068680
Br148	Br	0.133514	1.259847	-0.076519
H149	H	0.764337	0.412264	0.440304
H150	H	1.080750	0.357915	0.115487
H151	H	0.447631	1.012792	0.043078
H152	H	0.817085	0.270924	0.145726
H153	H	0.788983	0.497105	-0.250307
Br154	Br	0.124958	1.167456	-0.186210
Br155	Br	1.219315	0.161456	0.649965
Br156	Br	0.595089	1.086729	-0.668867
H157	H	0.557333	0.224474	-0.180112
Br158	Br	0.808931	-0.005713	0.135388
H159	H	0.604358	0.359347	-0.121074
H160	H	0.769478	0.094330	0.085926
H161	H	0.611988	0.272533	-0.111531
H162	H	0.592478	0.869752	-0.775275
H163	H	0.472599	0.551417	0.074531
H164	H	0.181863	0.872150	-0.137611
Br165	Br	0.351334	0.516297	0.097771
Br166	Br	0.821428	0.435592	-0.384890
H167	H	0.035669	0.805541	-0.093576
Br168	Br	0.243096	0.446717	0.143766
H169	H	0.072772	0.504607	0.105472
H170	H	0.308682	0.862255	-0.131054
Br171	Br	-0.134644	0.863424	-0.131874
H172	H	0.260822	0.572071	0.060872
Br173	Br	1.247949	0.107045	0.050877
Br174	Br	0.077129	0.842778	-0.118190
Br175	Br	0.599512	0.856398	-0.465148
H176	H	0.585584	0.882807	-0.631469
H177	H	1.067574	0.215718	-0.053401
H178	H	0.764411	0.296871	0.592871
Br179	Br	0.691029	0.202667	0.622788
H180	H	0.617526	0.292944	0.408783
