data_functionalizedCrystal
_audit_creation_method	'MofGen! by Chris Wilmer'
_symmetry_space_group_name_H-M	'P1'
_symmetry_Int_Tables_number	1
_symmetry_cell_setting	triclinic
loop_
_symmetry_equiv_pos_as_xyz
  x,y,z
_cell_length_a	19.077105
_cell_length_b	29.839131
_cell_length_c	19.076919
_cell_angle_alpha	92.267459
_cell_angle_beta	90.076224
_cell_angle_gamma	87.737628
loop_
_atom_site_label
_atom_site_type_symbol
_atom_site_fract_x
_atom_site_fract_y
_atom_site_fract_z
Zn1	Zn	1.058171	-0.217337	-0.440392
Zn2	Zn	1.558171	0.282663	0.059608
Zn3	Zn	1.062777	-0.289569	-0.322877
Zn4	Zn	1.562777	0.210431	0.177123
Zn5	Zn	0.945391	-0.211319	-0.318186
Zn6	Zn	1.445391	0.288681	0.181814
Zn7	Zn	0.940599	-0.289298	-0.435629
Zn8	Zn	1.440599	0.210702	0.064371
O9	O	1.001735	-0.251881	-0.379271
O10	O	1.501735	0.248119	0.120729
O11	O	1.157112	-0.229551	-0.428760
O12	O	1.657112	0.270449	0.071240
O13	O	1.051139	-0.276784	-0.223924
O14	O	1.551139	0.223216	0.276076
O15	O	0.960429	-0.149253	-0.334427
O16	O	1.460429	0.350747	0.165573
O17	O	1.160497	-0.282620	-0.342422
O18	O	1.660497	0.217380	0.157578
O19	O	1.043288	-0.153674	-0.424211
O20	O	1.543288	0.346326	0.075789
O21	O	0.964896	-0.219294	-0.220477
O22	O	1.464896	0.280706	0.279523
O23	O	0.846425	-0.219031	-0.329809
O24	O	1.346425	0.280969	0.170191
O25	O	0.952262	-0.282158	-0.534592
O26	O	1.452262	0.217842	-0.034592
O27	O	0.842904	-0.276322	-0.416094
O28	O	1.342904	0.223678	0.083906
O29	O	1.038641	-0.229288	-0.538091
O30	O	1.538641	0.270712	-0.038091
O31	O	1.046493	-0.352398	-0.337803
O32	O	1.546493	0.147602	0.162197
O33	O	0.956729	-0.352199	-0.420642
O34	O	1.456729	0.147801	0.079358
C35	C	0.819169	-0.246995	-0.371926
C36	C	1.319169	0.253005	0.128074
C37	C	0.741065	-0.244915	-0.368801
C38	C	1.241065	0.255085	0.131199
C39	C	0.702560	-0.273809	-0.412186
C40	C	1.202560	0.226191	0.087814
C41	C	0.629174	-0.271849	-0.409252
C42	C	1.129174	0.228151	0.090748
C43	C	0.594294	-0.240998	-0.362930
C44	C	1.094294	0.259002	0.137070
C45	C	0.632804	-0.212102	-0.319543
C46	C	1.132804	0.287898	0.180457
C47	C	0.706189	-0.214059	-0.322481
C48	C	1.206189	0.285941	0.177519
C49	C	0.375011	-0.231938	-0.349338
C50	C	0.875011	0.268062	0.150662
C51	C	0.301621	-0.229984	-0.346403
C52	C	0.801621	0.270016	0.153597
C53	C	0.297996	-0.289731	-0.436113
C54	C	0.797996	0.210269	0.063887
C55	C	0.371382	-0.291688	-0.439043
C56	C	0.871382	0.208312	0.060957
C57	C	0.409886	-0.262790	-0.395659
C58	C	0.909886	0.237210	0.104341
N59	N	0.519281	-0.238996	-0.359929
N60	N	1.019281	0.261004	0.140071
N61	N	0.484897	-0.264790	-0.398664
N62	N	0.984897	0.235210	0.101336
C63	C	1.001609	-0.368599	-0.379231
C64	C	1.501609	0.131401	0.120769
C65	C	1.001619	-0.418534	-0.379240
C66	C	1.501619	0.081466	0.120760
C67	C	1.048554	-0.728276	-0.336206
C68	C	1.548554	-0.228276	0.163794
C69	C	1.048639	-0.915952	-0.336237
C70	C	1.548639	-0.415952	0.163763
O71	O	1.088445	-0.940297	-0.299616
O72	O	1.588445	-0.440297	0.200384
N73	N	1.001878	-0.939328	-0.379330
N74	N	1.501878	-0.439328	0.120670
C75	C	0.955095	-0.915782	-0.422422
C76	C	1.455095	-0.415782	0.077578
O77	O	0.915329	-0.939972	-0.459082
O78	O	1.415329	-0.439972	0.040918
C79	C	0.955014	-0.728107	-0.422395
C80	C	1.455014	-0.228107	0.077605
C81	C	1.001773	-0.704734	-0.379293
C82	C	1.501773	-0.204734	0.120707
C83	C	1.095310	-0.704902	-0.293109
C84	C	1.595310	-0.204902	0.206891
C85	C	1.095285	-0.657986	-0.293099
C86	C	1.595285	-0.157986	0.206901
C87	C	1.048505	-0.634443	-0.336186
C88	C	1.548505	-0.134443	0.163814
C89	C	1.001749	-0.657817	-0.379283
C90	C	1.501749	-0.157817	0.120717
C91	C	0.908235	-0.704563	-0.465490
C92	C	1.408235	-0.204563	0.034510
C93	C	0.908220	-0.657641	-0.465480
C94	C	1.408220	-0.157641	0.034520
C95	C	0.954979	-0.634267	-0.422379
C96	C	1.454979	-0.134267	0.077621
C97	C	0.954944	-0.587358	-0.422360
C98	C	1.454944	-0.087358	0.077640
N99	N	1.001705	-0.563982	-0.379267
N100	N	1.501705	-0.063982	0.120733
C101	C	1.048485	-0.587525	-0.336180
C102	C	1.548485	-0.087525	0.163820
C103	C	0.955141	-1.014314	-0.422432
C104	C	1.455141	-0.514314	0.077568
C105	C	0.955160	-1.061233	-0.422439
C106	C	1.455160	-0.561233	0.077561
C107	C	1.048705	-1.061399	-0.336254
C108	C	1.548705	-0.561399	0.163746
C109	C	1.048682	-1.014480	-0.336245
C110	C	1.548682	-0.514480	0.163755
C111	C	1.001902	-0.990938	-0.379339
C112	C	1.501902	-0.490938	0.120661
C113	C	1.048430	-0.488997	-0.336161
C114	C	1.548430	0.011003	0.163839
C115	C	1.048399	-0.442077	-0.336153
C116	C	1.548399	0.057923	0.163847
C117	C	0.954857	-0.441914	-0.422340
C118	C	1.454857	0.058086	0.077660
C119	C	0.954885	-0.488831	-0.422346
C120	C	1.454885	0.011169	0.077654
C121	C	1.001677	-0.512371	-0.379255
C122	C	1.501677	-0.012371	0.120745
O123	O	0.915164	-0.562985	-0.458967
O124	O	1.415164	-0.062985	0.041033
O125	O	1.088256	-0.563328	-0.299537
O126	O	1.588256	-0.063328	0.200463
C127	C	1.048578	-0.775192	-0.336216
C128	C	1.548578	-0.275192	0.163784
C129	C	1.001822	-0.798566	-0.379313
C130	C	1.501822	-0.298566	0.120687
C131	C	0.955041	-0.775024	-0.422401
C132	C	1.455041	-0.275024	0.077599
C133	C	1.001841	-0.845485	-0.379319
C134	C	1.501841	-0.345485	0.120681
C135	C	1.048622	-0.869027	-0.336232
C136	C	1.548622	-0.369027	0.163768
C137	C	1.095383	-0.845651	-0.293139
C138	C	1.595383	-0.345651	0.206861
C139	C	1.095359	-0.798735	-0.293129
C140	C	1.595359	-0.298735	0.206871
C141	C	0.908280	-0.798400	-0.465494
C142	C	1.408280	-0.298400	0.034506
C143	C	0.908308	-0.845316	-0.465500
C144	C	1.408308	-0.345316	0.034500
C145	C	0.955089	-0.868859	-0.422413
C146	C	1.455089	-0.368859	0.077587
C147	C	1.185013	-0.256787	-0.386645
C148	C	1.685013	0.243213	0.113355
C149	C	1.263116	-0.258877	-0.389788
C150	C	1.763116	0.241123	0.110212
C151	C	0.994403	-0.256364	-0.562551
C152	C	1.494403	0.243636	-0.062551
C153	C	0.991279	-0.258274	-0.640654
C154	C	1.491279	0.241726	-0.140654
C155	C	1.001879	-0.134708	-0.379327
C156	C	1.501879	0.365292	0.120673
C157	C	1.001941	-0.084775	-0.379351
C158	C	1.501941	0.415225	0.120649
C159	C	1.034782	-0.231647	-0.679169
C160	C	1.534782	0.268353	-0.179169
C161	C	1.031838	-0.233440	-0.752555
C162	C	1.531838	0.266560	-0.252555
C163	C	0.985394	-0.261863	-0.787424
C164	C	1.485394	0.238137	-0.287424
C165	C	0.941886	-0.288492	-0.748903
C166	C	1.441886	0.211508	-0.248903
C167	C	0.944827	-0.286696	-0.675518
C168	C	1.444827	0.213304	-0.175518
C169	C	0.971772	-0.270184	-1.006704
C170	C	1.471772	0.229816	-0.506704
C171	C	0.968835	-0.271978	-1.080093
C172	C	1.468835	0.228022	-0.580093
C173	C	1.058787	-0.216925	-1.083741
C174	C	1.558787	0.283075	-0.583741
C175	C	1.061727	-0.215134	-1.010355
C176	C	1.561727	0.284866	-0.510355
C177	C	1.018216	-0.241761	-0.971840
C178	C	1.518216	0.258239	-0.471840
N179	N	0.982385	-0.263698	-0.862436
N180	N	1.482385	0.236302	-0.362436
N181	N	1.021222	-0.239924	-0.896830
N182	N	1.521222	0.260076	-0.396830
C183	C	1.009078	-0.247384	-0.196706
C184	C	1.509078	0.252616	0.303294
C185	C	1.012338	-0.245351	-0.118609
C186	C	1.512338	0.254649	0.381391
H187	H	1.086476	-0.423047	-0.301052
H188	H	1.586476	0.076953	0.198948
H189	H	0.870127	-0.638476	-0.500576
H190	H	1.370127	-0.138476	-0.000576
H191	H	0.916767	-0.422739	-0.457419
H192	H	1.416767	0.077261	0.042581
H193	H	0.917045	-0.995150	-0.457526
H194	H	1.417045	-0.495150	0.042474
H195	H	1.067264	-0.211758	-0.783912
H196	H	1.567264	0.288242	-0.283912
O197	O	0.923671	-0.299526	-1.114038
O198	O	1.423671	0.200474	-0.614038
C199	C	0.876614	-0.273767	-1.154656
C200	C	1.376614	0.226233	-0.654656
H201	H	0.901007	-0.240658	-1.166667
H202	H	1.401007	0.259342	-0.666667
H203	H	0.865100	-0.293074	-1.205871
H204	H	1.365100	0.206926	-0.705871
H205	H	0.825682	-0.266739	-1.124277
H206	H	1.325682	0.233261	-0.624277
H207	H	0.604399	-0.186981	-0.281829
H208	H	1.104399	0.313019	0.218171
H209	H	1.099548	-0.191990	-0.981970
H210	H	1.599548	0.308010	-0.481970
O211	O	0.862913	-0.727313	-0.507404
O212	O	1.362913	-0.227313	-0.007404
C213	C	0.901081	-0.756582	-0.554448
C214	C	1.401081	-0.256582	-0.054448
H215	H	0.955339	-0.764408	-0.531845
H216	H	1.455339	-0.264408	-0.031845
H217	H	0.872086	-0.789053	-0.562714
H218	H	1.372086	-0.289053	-0.062714
H219	H	0.906683	-0.739954	-0.606826
H220	H	1.406683	-0.239954	-0.106826
O221	O	1.093905	-0.511789	-0.294235
O222	O	1.593905	-0.011789	0.205765
C223	C	1.135174	-0.481091	-0.256211
C224	C	1.635174	0.018909	0.243789
H225	H	1.106470	-0.446838	-0.252600
H226	H	1.606470	0.053162	0.247400
H227	H	1.144934	-0.493497	-0.201156
H228	H	1.644934	0.006503	0.298844
H229	H	1.187488	-0.478113	-0.284129
H230	H	1.687488	0.021887	0.215871
O231	O	1.140782	-0.635355	-0.251217
O232	O	1.640782	-0.135355	0.248783
C233	C	1.182061	-0.666203	-0.213185
C234	C	1.682061	-0.166203	0.286815
H235	H	1.183321	-0.700407	-0.242074
H236	H	1.683321	-0.200407	0.257926
H237	H	1.237727	-0.653916	-0.207966
H238	H	1.737727	-0.153916	0.292034
H239	H	1.158517	-0.669229	-0.158761
H240	H	1.658517	-0.169229	0.341239
H241	H	1.133408	-0.724066	-0.258022
H242	H	1.633408	-0.224066	0.241978
H243	H	0.737539	-0.190529	-0.287155
H244	H	1.237539	0.309471	0.212845
H245	H	1.094209	-0.195246	-1.115107
H246	H	1.594209	0.304754	-0.615107
H247	H	0.266638	-0.313257	-0.471435
H248	H	0.766638	0.186743	0.028565
O249	O	0.909437	-0.511470	-0.464276
O250	O	1.409437	-0.011470	0.035724
C251	C	0.868128	-0.480627	-0.502288
C252	C	1.368128	0.019373	-0.002288
H253	H	0.896789	-0.447989	-0.505887
H254	H	1.396789	0.052011	-0.005887
H255	H	0.858385	-0.495323	-0.557348
H256	H	1.358385	0.004677	-0.057348
H257	H	0.815808	-0.473628	-0.474368
H258	H	1.315808	0.026372	0.025632
O259	O	0.736516	-0.303718	-0.457222
O260	O	1.236516	0.196282	0.042778
C261	C	0.777168	-0.280430	-0.504391
C262	C	1.277168	0.219570	-0.004391
H263	H	0.789181	-0.246050	-0.480145
H264	H	1.289181	0.253950	0.019855
H265	H	0.828380	-0.300344	-0.515822
H266	H	1.328380	0.199656	-0.015822
H267	H	0.746817	-0.276064	-0.555346
H268	H	1.246817	0.223936	-0.055346
O269	O	0.929472	-0.296087	-0.969404
O270	O	1.429472	0.203913	-0.469404
C271	C	0.887835	-0.321547	-1.015919
C272	C	1.387835	0.178453	-0.515919
H273	H	0.914528	-0.325162	-1.069383
H274	H	1.414528	0.174838	-0.569383
H275	H	0.881123	-0.356218	-0.994390
H276	H	1.381123	0.143782	-0.494390
H277	H	0.834185	-0.303848	-1.021595
H278	H	1.334185	0.196152	-0.521595
O279	O	1.140851	-0.776104	-0.251243
O280	O	1.640851	-0.276104	0.248757
C281	C	1.182128	-0.806951	-0.213208
C282	C	1.682128	-0.306951	0.286792
H283	H	1.183394	-0.841154	-0.242100
H284	H	1.683394	-0.341154	0.257900
H285	H	1.237793	-0.794663	-0.207982
H286	H	1.737793	-0.294663	0.292018
H287	H	1.158578	-0.809980	-0.158788
H288	H	1.658578	-0.309980	0.341212
O289	O	1.140914	-0.868544	-0.251397
O290	O	1.640914	-0.368544	0.248603
C291	C	1.184657	-0.897835	-0.293291
C292	C	1.684657	-0.397835	0.206709
H293	H	1.186705	-0.885142	-0.348806
H294	H	1.686705	-0.385142	0.151194
H295	H	1.239779	-0.899158	-0.270120
H296	H	1.739779	-0.399158	0.229880
H297	H	1.162860	-0.932889	-0.294825
H298	H	1.662860	-0.432889	0.205175
O299	O	0.862953	-0.868003	-0.507476
O300	O	1.362953	-0.368003	-0.007476
C301	C	0.875442	-0.858617	-0.578129
C302	C	1.375442	-0.358617	-0.078129
H303	H	0.931426	-0.847269	-0.583969
H304	H	1.431426	-0.347269	-0.083969
H305	H	0.867990	-0.890151	-0.612610
H306	H	1.367990	-0.390151	-0.112610
H307	H	0.837011	-0.830842	-0.594942
H308	H	1.337011	-0.330842	-0.094942
H309	H	0.904068	-0.311633	-0.777298
H310	H	1.404068	0.188367	-0.277298
H311	H	0.273224	-0.204856	-0.308686
H312	H	0.773224	0.295144	0.191314
O313	O	0.902550	-0.312613	-0.638210
O314	O	1.402550	0.187387	-0.138210
C315	C	0.860919	-0.338081	-0.684719
C316	C	1.360919	0.161919	-0.184719
H317	H	0.887598	-0.341681	-0.738192
H318	H	1.387598	0.158319	-0.238192
H319	H	0.854240	-0.372758	-0.663199
H320	H	1.354240	0.127242	-0.163199
H321	H	0.807255	-0.320397	-0.690376
H322	H	1.307255	0.179603	-0.190376
H323	H	0.597826	-0.295378	-0.444580
H324	H	1.097826	0.204622	0.055420
H325	H	1.072604	-0.208503	-0.650785
H326	H	1.572604	0.291497	-0.150785
H327	H	0.399777	-0.316811	-0.476762
H328	H	0.899777	0.183189	0.023238
O329	O	0.412482	-0.203933	-0.307159
O330	O	0.912482	0.296067	0.192841
C331	C	0.456702	-0.229482	-0.263384
C332	C	0.956702	0.270518	0.236616
H333	H	0.466688	-0.264448	-0.288509
H334	H	0.966688	0.235552	0.211491
H335	H	0.508694	-0.212317	-0.256079
H336	H	1.008694	0.287683	0.243921
H337	H	0.430483	-0.232341	-0.210167
H338	H	0.930483	0.267659	0.289833
H339	H	1.086796	-1.080576	-0.301171
H340	H	1.586796	-0.580576	0.198829
O341	O	1.094075	-0.991822	-0.294281
O342	O	1.594075	-0.491822	0.205719
C343	C	1.081567	-1.001183	-0.223620
C344	C	1.581567	-0.501183	0.276380
H345	H	1.054625	-1.034507	-0.221062
H346	H	1.554625	-0.534507	0.278938
H347	H	1.133565	-1.003353	-0.194194
H348	H	1.633565	-0.503353	0.305806
H349	H	1.046401	-0.973259	-0.198466
H350	H	1.546401	-0.473259	0.301534
O351	O	0.909708	-1.083867	-0.464367
O352	O	1.409708	-0.583867	0.035633
C353	C	0.868407	-1.053020	-0.502380
C354	C	1.368407	-0.553020	-0.002380
H355	H	0.897077	-1.020386	-0.505984
H356	H	1.397077	-0.520386	-0.005984
H357	H	0.858657	-1.067718	-0.557438
H358	H	1.358657	-0.567718	-0.057438
H359	H	0.816089	-1.046014	-0.474458
H360	H	1.316089	-0.546014	0.025542
O361	O	0.862803	-0.775481	-0.507249
O362	O	1.362803	-0.275481	-0.007249
C363	C	0.819025	-0.746201	-0.465373
C364	C	1.319025	-0.246201	0.034627
H365	H	0.845980	-0.738526	-0.413142
H366	H	1.345980	-0.238526	0.086858
H367	H	0.808415	-0.713656	-0.493603
H368	H	1.308415	-0.213656	0.006397
H369	H	0.767283	-0.762743	-0.455513
H370	H	1.267283	-0.262743	0.044487
