data_functionalizedCrystal
_audit_creation_method	'MofGen! by Chris Wilmer'
_symmetry_space_group_name_H-M	'P1'
_symmetry_Int_Tables_number	1
_symmetry_cell_setting	triclinic
loop_
_symmetry_equiv_pos_as_xyz
  x,y,z
_cell_length_a	17.699077
_cell_length_b	15.944493
_cell_length_c	16.776229
_cell_angle_alpha	89.999222
_cell_angle_beta	89.993415
_cell_angle_gamma	83.377810
loop_
_atom_site_label
_atom_site_type_symbol
_atom_site_fract_x
_atom_site_fract_y
_atom_site_fract_z
O1	O	1.004243	0.106201	-0.066267
O2	O	0.783885	0.120026	-0.066270
O3	O	0.900104	-0.009177	-0.066275
O4	O	0.888023	0.235405	-0.066262
O5	O	0.900089	-0.009185	0.066301
O6	O	0.783869	0.120018	0.066307
O7	O	1.004227	0.106193	0.066309
Zn8	Zn	0.894046	0.113104	0.087357
Zn9	Zn	0.894066	0.113115	-0.087318
O10	O	0.888008	0.235397	0.066314
C11	C	0.755679	0.119528	0.000018
C12	C	0.671659	0.118044	0.000016
C13	C	0.632182	0.117341	0.072285
C14	C	0.553237	0.115933	0.072285
C15	C	0.513770	0.115235	0.000017
C16	C	0.553253	0.115936	-0.072257
C17	C	0.632197	0.117338	-0.072257
C18	C	0.234881	0.110283	-0.072259
C19	C	0.155931	0.108885	-0.072253
C20	C	0.155921	0.108879	0.072284
C21	C	0.234865	0.110281	0.072284
C22	C	0.274342	0.110977	0.000010
C23	C	0.359943	0.112501	0.000010
C24	C	0.428170	0.113717	0.000016
C25	C	0.899603	-0.040475	0.000010
C26	C	0.898122	-0.133721	-0.000000
C27	C	0.966532	-0.369626	0.000015
C28	C	0.929649	-0.420112	-0.065352
C29	C	0.895379	-0.304436	0.000009
C30	C	0.929617	-0.420096	0.065358
C31	C	0.892735	-0.469340	0.000022
C32	C	0.858516	-0.353693	-0.065412
C33	C	0.858494	-0.353674	0.065357
C34	C	0.821559	-0.404126	-0.000026
C35	C	0.896905	-0.209439	0.000001
C36	C	0.891204	-0.564334	0.000025
C37	C	1.032433	0.106691	0.000020
C38	C	1.116453	0.108175	0.000016
C39	C	0.888509	0.266694	0.000028
C40	C	0.889990	0.359940	0.000033
N41	N	0.894038	0.113097	0.206569
N42	N	0.894081	0.113116	-0.206529
C43	C	0.945515	0.055909	0.248283
C44	C	0.945519	0.055908	0.331735
C45	C	0.894049	0.113100	0.373471
C46	C	0.842566	0.170291	0.331751
C47	C	0.842559	0.170287	0.248300
C48	C	0.842593	0.170307	0.668298
C49	C	0.842606	0.170308	0.751755
C50	C	0.945554	0.055929	0.751733
C51	C	0.945547	0.055925	0.668283
C52	C	0.894061	0.113112	0.626569
C53	C	0.894056	0.113111	0.536081
C54	C	0.894057	0.113106	0.463958
H55	H	0.664309	0.117916	0.131134
H56	H	0.828491	-0.324806	-0.120734
N57	N	0.115609	0.108167	0.146119
N58	N	0.117435	0.167512	0.194508
H59	H	0.088967	0.167013	0.246654
N60	N	0.967354	-0.456522	-0.134668
N61	N	0.971737	-0.534408	-0.146044
H62	H	0.998372	-0.560123	-0.194995
N63	N	0.789989	0.228700	0.374393
N64	N	0.790001	0.228697	0.448901
H65	H	0.752869	0.269950	0.479017
H66	H	0.521113	0.115362	-0.131099
H67	H	1.027820	-0.354128	-0.000050
N68	N	0.790012	0.228726	0.794376
N69	N	0.720059	0.227663	0.785074
H70	H	0.682915	0.268918	0.815175
N71	N	0.789997	0.228723	0.625708
N72	N	0.744046	0.279780	0.662985
H73	H	0.706896	0.321039	0.632904
N74	N	0.789967	0.228705	0.205699
N75	N	0.744014	0.279765	0.242970
H76	H	0.706867	0.321024	0.212885
N77	N	0.744612	-0.423359	-0.000076
N78	N	0.701185	-0.398860	-0.056252
H79	H	0.646841	-0.412444	-0.056291
N80	N	0.275177	0.111009	0.146104
N81	N	0.259370	0.170038	0.194497
H82	H	0.287839	0.170551	0.246634
H83	H	0.521100	0.115346	0.131133
N84	N	0.998105	-0.002517	0.374333
N85	N	1.044058	-0.053575	0.337060
H86	H	1.081199	-0.094842	0.367144
H87	H	0.123799	0.108315	-0.131106
H88	H	0.267013	0.110848	-0.131108
H89	H	0.664338	0.117912	-0.131105
N90	N	0.820828	-0.317274	0.134692
N91	N	0.845095	-0.338734	0.202517
H92	H	0.818498	-0.313027	0.251492
H93	H	0.959674	-0.449094	0.120618
H94	H	0.987461	0.009356	0.634304
N95	N	0.998057	-0.002563	0.205667
N96	N	1.043984	-0.053654	0.242927
H97	H	1.081075	-0.094972	0.212832
N98	N	0.998138	-0.002487	0.794356
N99	N	0.998139	-0.002483	0.868865
H100	H	1.035276	-0.043737	0.898967
