data_functionalizedCrystal
_audit_creation_method	'MofGen! by Chris Wilmer'
_symmetry_space_group_name_H-M	'P1'
_symmetry_Int_Tables_number	1
_symmetry_cell_setting	triclinic
loop_
_symmetry_equiv_pos_as_xyz
  x,y,z
_cell_length_a	12.759395
_cell_length_b	16.120484
_cell_length_c	12.759387
_cell_angle_alpha	87.136424
_cell_angle_beta	90.020509
_cell_angle_gamma	92.926975
loop_
_atom_site_label
_atom_site_type_symbol
_atom_site_fract_x
_atom_site_fract_y
_atom_site_fract_z
Zn1	Zn	1.584987	-0.331828	0.615167
Zn2	Zn	1.575935	-0.471265	0.448379
Zn3	Zn	1.409282	-0.331874	0.439506
Zn4	Zn	1.400339	-0.471205	0.624015
O5	O	1.492636	-0.401543	0.531767
O6	O	1.730807	-0.350331	0.593052
O7	O	1.553783	-0.452818	0.300184
O8	O	1.440121	-0.215202	0.455392
O9	O	1.724157	-0.452774	0.470514
O10	O	1.569211	-0.215169	0.584449
O11	O	1.431344	-0.350408	0.293665
O12	O	1.261075	-0.350350	0.463971
O13	O	1.424878	-0.452673	0.769859
O14	O	1.254504	-0.452717	0.599529
O15	O	1.560539	-0.350273	0.763359
O16	O	1.545111	-0.587922	0.479094
O17	O	1.416101	-0.587879	0.608132
C18	C	1.219669	-0.401533	0.531748
C19	C	1.102891	-0.401549	0.531766
C20	C	1.478681	-0.618150	0.545559
C21	C	1.472808	-0.710816	0.551495
C22	C	1.096077	-0.508315	0.672716
C23	C	1.037808	-0.561705	0.743194
C24	C	0.928086	-0.561715	0.743207
C25	C	0.876630	-0.508328	0.672737
C26	C	0.934899	-0.454938	0.602259
C27	C	1.044623	-0.454935	0.602251
C28	C	0.941713	-0.348169	0.461316
C29	C	1.051436	-0.348161	0.461296
C30	C	0.890258	-0.294781	0.390846
C31	C	0.948526	-0.241394	0.320361
C32	C	1.058255	-0.241387	0.320350
C33	C	1.109704	-0.294771	0.390818
C34	C	1.462090	-0.880477	0.562353
C35	C	1.523370	-0.921768	0.501198
C36	C	1.517406	-1.016173	0.507239
C37	C	1.468052	-0.786063	0.556313
C38	C	1.766669	-0.401554	0.531786
C39	C	1.883445	-0.401558	0.531794
C40	C	1.492720	-0.401461	0.805795
C41	C	1.492756	-0.401426	0.922570
C42	C	1.506673	-0.184090	0.517944
C43	C	1.512655	-0.091424	0.512053
C44	C	1.492616	-0.401564	0.258801
C45	C	1.492798	-0.401364	0.142012
C46	C	1.634028	-0.294805	0.915821
C47	C	1.704680	-0.241481	0.967306
C48	C	1.704707	-0.241451	1.077026
C49	C	1.634074	-0.294748	1.135263
C50	C	1.563422	-0.348071	1.083777
C51	C	1.563404	-0.348098	0.974055
C52	C	1.422147	-0.454688	1.090526
C53	C	1.422123	-0.454723	0.980807
C54	C	1.351514	-0.507985	1.148763
C55	C	1.280866	-0.561313	1.097278
C56	C	1.280842	-0.561342	0.987551
C57	C	1.351472	-0.508047	0.929321
H58	H	1.185418	-0.508318	0.672704
O59	O	1.773235	-0.189680	1.127209
C60	C	1.758126	-0.201103	1.236538
H61	H	1.675283	-0.228396	1.253238
H62	H	1.817578	-0.245501	1.270503
C63	C	1.874967	-0.083218	1.267011
C64	C	1.773215	-0.116733	1.287523
H65	H	1.884279	-0.031176	1.298464
H66	H	1.885150	-0.075524	1.193355
H67	H	1.924498	-0.120224	1.295316
H68	H	1.723686	-0.079732	1.259207
H69	H	1.763024	-0.124419	1.361177
O70	O	1.115014	-0.189550	0.251986
C71	C	1.222892	-0.201003	0.267058
H72	H	1.236158	-0.228390	0.349819
H73	H	1.251143	-0.245333	0.207459
C74	C	1.268358	-0.082998	0.150589
C75	C	1.284652	-0.116629	0.252240
H76	H	1.306456	-0.030953	0.141443
H77	H	1.195679	-0.075283	0.140430
H78	H	1.291899	-0.119947	0.100934
H79	H	1.261099	-0.079684	0.301892
H80	H	1.357329	-0.124335	0.262406
H81	H	1.580310	-0.886218	0.444303
O82	O	0.770038	-0.508466	0.672861
C83	C	0.729645	-0.567017	0.750200
H84	H	0.789744	-0.615737	0.767904
H85	H	0.712337	-0.534035	0.824780
C86	C	0.553901	-0.549875	0.688273
C87	C	0.627713	-0.609719	0.710011
H88	H	0.491022	-0.576214	0.663486
H89	H	0.581114	-0.510426	0.636171
H90	H	0.539490	-0.522396	0.750429
H91	H	0.642132	-0.637190	0.647854
H92	H	0.600500	-0.649174	0.762103
H93	H	1.405153	-0.916025	0.619241
O94	O	1.351534	-0.508110	1.255354
C95	C	1.373378	-0.588002	1.297084
H96	H	1.352304	-0.636035	1.236900
H97	H	1.460442	-0.589777	1.316676
C98	C	1.333980	-0.548994	1.471423
C99	C	1.308089	-0.607990	1.397506
H100	H	1.293712	-0.561324	1.533371
H101	H	1.319267	-0.495168	1.443310
H102	H	1.406534	-0.550480	1.487737
H103	H	1.235540	-0.606497	1.381184
H104	H	1.322788	-0.661817	1.425619
O105	O	1.773257	-0.189794	0.910578
C106	C	1.758074	-0.201239	0.802695
H107	H	1.719493	-0.265575	0.791790
H108	H	1.705326	-0.151786	0.768404
C109	C	1.912246	-0.114617	0.759293
C110	C	1.864868	-0.193639	0.745900
H111	H	1.978120	-0.109926	0.724258
H112	H	1.922473	-0.106903	0.831976
H113	H	1.868278	-0.073415	0.730718
H114	H	1.908830	-0.234839	0.774487
H115	H	1.854651	-0.201360	0.673221
H116	H	1.351463	-0.508069	0.839981
H117	H	1.634022	-0.294832	0.826481
H118	H	1.634094	-0.294711	1.224602
H119	H	0.880644	-0.605185	0.800602
H120	H	1.223356	-0.604699	1.144702
O121	O	1.212179	-0.613227	0.937709
C122	C	1.149834	-0.660243	1.012642
H123	H	1.192694	-0.663103	1.091046
H124	H	1.072013	-0.629707	1.022350
C125	C	1.076316	-0.745477	0.879169
C126	C	1.128961	-0.748995	0.975465
H127	H	1.063436	-0.800222	0.856236
H128	H	1.118315	-0.713800	0.828684
H129	H	1.011471	-0.720027	0.887272
H130	H	1.193810	-0.774436	0.967358
H131	H	1.086972	-0.780679	1.025948
H132	H	1.199045	-0.294773	0.390812
H133	H	0.800916	-0.294790	0.390866
H134	H	1.079716	-0.605170	0.800571
H135	H	0.906622	-0.197927	0.262995
