data_functionalizedCrystal
_audit_creation_method	'MofGen! by Chris Wilmer'
_symmetry_space_group_name_H-M	'P1'
_symmetry_Int_Tables_number	1
_symmetry_cell_setting	triclinic
loop_
_symmetry_equiv_pos_as_xyz
  x,y,z
_cell_length_a	29.839135
_cell_length_b	29.839131
_cell_length_c	19.120904
_cell_angle_alpha	87.590850
_cell_angle_beta	87.580563
_cell_angle_gamma	90.043950
loop_
_atom_site_label
_atom_site_type_symbol
_atom_site_fract_x
_atom_site_fract_y
_atom_site_fract_z
Zn1	Zn	0.675899	-0.189671	0.397159
Zn2	Zn	1.175899	0.310329	0.897159
Zn3	Zn	0.679031	-0.261593	0.279706
Zn4	Zn	1.179031	0.238407	0.779706
Zn5	Zn	0.603982	-0.186482	0.279719
Zn6	Zn	1.103982	0.313518	0.779719
Zn7	Zn	0.600731	-0.264776	0.397107
Zn8	Zn	1.100731	0.235224	0.897107
O9	O	0.639911	-0.225631	0.338423
O10	O	1.139911	0.274369	0.838423
O11	O	0.739181	-0.199214	0.381595
O12	O	1.239181	0.300786	0.881595
O13	O	0.671747	-0.248963	0.181426
O14	O	1.171747	0.251037	0.681426
O15	O	0.613571	-0.124038	0.295325
O16	O	1.113571	0.375962	0.795325
O17	O	0.741482	-0.252055	0.295303
O18	O	1.241482	0.247945	0.795303
O19	O	0.666409	-0.126381	0.381608
O20	O	1.166409	0.373619	0.881608
O21	O	0.616608	-0.193779	0.181435
O22	O	1.116608	0.306221	0.681435
O23	O	0.540684	-0.196865	0.295274
O24	O	1.040684	0.303135	0.795274
O25	O	0.608031	-0.257480	0.495396
O26	O	1.108031	0.242520	0.995396
O27	O	0.538296	-0.254388	0.381519
O28	O	1.038296	0.245612	0.881519
O29	O	0.663257	-0.202300	0.495434
O30	O	1.163257	0.297700	0.995434
O31	O	0.668595	-0.324882	0.295253
O32	O	1.168595	0.175118	0.795253
O33	O	0.611068	-0.327221	0.381507
O34	O	1.111068	0.172779	0.881507
C35	C	0.523189	-0.225626	0.338393
C36	C	1.023189	0.274374	0.838393
C37	C	0.473254	-0.225636	0.338397
C38	C	0.973254	0.274364	0.838397
C39	C	0.162407	-0.198162	0.383422
C40	C	0.662407	0.301838	0.883422
C41	C	-0.025266	-0.198165	0.383442
C42	C	0.474734	0.301835	0.883442
O43	O	-0.050554	-0.174794	0.421690
O44	O	0.449446	0.325206	0.921690
N45	N	-0.047532	-0.225632	0.338449
N46	N	0.452468	0.274368	0.838449
C47	C	-0.022876	-0.253097	0.293445
C48	C	0.477124	0.246903	0.793445
O49	O	-0.046121	-0.276456	0.255171
O50	O	0.453879	0.223544	0.755171
C51	C	0.164796	-0.253091	0.293422
C52	C	0.664796	0.246909	0.793422
C53	C	0.187060	-0.225626	0.338422
C54	C	0.687060	0.274374	0.838422
C55	C	0.184671	-0.170698	0.428418
C56	C	0.684671	0.329302	0.928418
C57	C	0.231586	-0.170699	0.428415
C58	C	0.731586	0.329301	0.928415
C59	C	0.256238	-0.198164	0.383416
C60	C	0.756238	0.301836	0.883416
C61	C	0.233975	-0.225627	0.338420
C62	C	0.733975	0.274373	0.838420
C63	C	0.189451	-0.280554	0.248414
C64	C	0.689451	0.219446	0.748414
C65	C	0.236372	-0.280549	0.248411
C66	C	0.736372	0.219451	0.748411
C67	C	0.258636	-0.253084	0.293412
C68	C	0.758636	0.246916	0.793412
C69	C	0.305543	-0.253093	0.293418
C70	C	0.805543	0.246907	0.793418
N71	N	0.327809	-0.225626	0.338410
N72	N	0.827809	0.274374	0.838410
C73	C	0.303156	-0.198162	0.383410
C74	C	0.803156	0.301838	0.883410
C75	C	-0.121407	-0.253099	0.293461
C76	C	0.378593	0.246901	0.793461
C77	C	-0.168325	-0.253102	0.293467
C78	C	0.331675	0.246898	0.793467
C79	C	-0.170712	-0.198169	0.383464
C80	C	0.329288	0.301831	0.883464
C81	C	-0.123793	-0.198169	0.383460
C82	C	0.376207	0.301831	0.883460
C83	C	-0.099142	-0.225633	0.338454
C84	C	0.400858	0.274367	0.838454
C85	C	0.401682	-0.198166	0.383401
C86	C	0.901682	0.301834	0.883401
C87	C	0.448602	-0.198171	0.383396
C88	C	0.948602	0.301829	0.883396
C89	C	0.450985	-0.253102	0.293398
C90	C	0.950985	0.246898	0.793398
C91	C	0.404069	-0.253099	0.293405
C92	C	0.904069	0.246901	0.793405
C93	C	0.379419	-0.225628	0.338409
C94	C	0.879419	0.274372	0.838409
O95	O	0.330859	-0.276447	0.255184
O96	O	0.830859	0.223553	0.755184
O97	O	0.326410	-0.174799	0.421667
O98	O	0.826410	0.325201	0.921667
C99	C	0.115492	-0.198160	0.383424
C100	C	0.615492	0.301840	0.883424
C101	C	0.093228	-0.225624	0.338428
C102	C	0.593228	0.274376	0.838428
C103	C	0.117881	-0.253088	0.293429
C104	C	0.617881	0.246912	0.793429
C105	C	0.046310	-0.225626	0.338434
C106	C	0.546310	0.274374	0.838434
C107	C	0.021658	-0.198161	0.383434
C108	C	0.521658	0.301839	0.883434
C109	C	0.043924	-0.170695	0.428426
C110	C	0.543924	0.329305	0.928426
C111	C	0.090840	-0.170696	0.428424
C112	C	0.590840	0.329304	0.928424
C113	C	0.095615	-0.280555	0.248436
C114	C	0.595615	0.219445	0.748436
C115	C	0.048699	-0.280552	0.248443
C116	C	0.548699	0.219448	0.748443
C117	C	0.024047	-0.253087	0.293442
C118	C	0.524047	0.246913	0.793442
C119	C	0.639831	-0.342352	0.338388
C120	C	1.139831	0.157648	0.838388
C121	C	0.639837	-0.392287	0.338397
C122	C	1.139837	0.107713	0.838397
C123	C	0.669915	-0.700702	0.293576
C124	C	1.169915	-0.200702	0.793576
C125	C	0.669970	-0.888376	0.293603
C126	C	1.169970	-0.388376	0.793603
O127	O	0.695480	-0.911596	0.255468
O128	O	1.195480	-0.411596	0.755468
N129	N	0.640002	-0.913074	0.338476
N130	N	1.140002	-0.413074	0.838476
C131	C	0.610021	-0.890851	0.383348
C132	C	1.110021	-0.390851	0.883348
O133	O	0.584536	-0.916164	0.421521
O134	O	1.084536	-0.416164	0.921521
C135	C	0.609969	-0.703178	0.383324
C136	C	1.109969	-0.203178	0.883324
C137	C	0.639935	-0.678482	0.338443
C138	C	1.139935	-0.178482	0.838443
C139	C	0.699880	-0.676007	0.248700
C140	C	1.199880	-0.176007	0.748700
C141	C	0.699864	-0.629091	0.248691
C142	C	1.199864	-0.129091	0.748691
C143	C	0.669884	-0.606871	0.293558
C144	C	1.169884	-0.106871	0.793558
C145	C	0.639920	-0.631567	0.338434
C146	C	1.139920	-0.131567	0.838434
C147	C	0.579990	-0.680956	0.428199
C148	C	1.079990	-0.180956	0.928199
C149	C	0.579980	-0.634034	0.428190
C150	C	1.079980	-0.134034	0.928190
C151	C	0.609947	-0.609339	0.383310
C152	C	1.109947	-0.109339	0.883310
C153	C	0.609924	-0.562431	0.383293
C154	C	1.109924	-0.062431	0.883293
N155	N	0.639892	-0.537733	0.338420
N156	N	1.139892	-0.037733	0.838420
C157	C	0.669872	-0.559953	0.293553
C158	C	1.169872	-0.059953	0.793553
C159	C	0.610050	-0.989382	0.383357
C160	C	1.110050	-0.489382	0.883357
C161	C	0.610062	-1.036300	0.383362
C162	C	1.110062	-0.536300	0.883362
C163	C	0.670012	-1.033822	0.293618
C164	C	1.170012	-0.533822	0.793618
C165	C	0.669997	-0.986903	0.293610
C166	C	1.169997	-0.486903	0.793610
C167	C	0.640018	-0.964684	0.338484
C168	C	1.140018	-0.464684	0.838484
C169	C	0.669836	-0.461427	0.293537
C170	C	1.169836	0.038573	0.793537
C171	C	0.669817	-0.414507	0.293530
C172	C	1.169817	0.085493	0.793530
C173	C	0.609869	-0.416989	0.383276
C174	C	1.109869	0.083011	0.883276
C175	C	0.609886	-0.463905	0.383281
C176	C	1.109886	0.036095	0.883281
C177	C	0.639874	-0.486122	0.338409
C178	C	1.139874	0.013878	0.838409
O179	O	0.584430	-0.539181	0.421413
O180	O	1.084430	-0.039181	0.921413
O181	O	0.695360	-0.534632	0.255397
O182	O	1.195360	-0.034632	0.755397
C183	C	0.669931	-0.747618	0.293585
C184	C	1.169931	-0.247618	0.793585
C185	C	0.639967	-0.772314	0.338462
C186	C	1.139967	-0.272314	0.838462
C187	C	0.609986	-0.750094	0.383329
C188	C	1.109986	-0.250094	0.883329
C189	C	0.639979	-0.819232	0.338467
C190	C	1.139979	-0.319232	0.838467
C191	C	0.669959	-0.841452	0.293600
C192	C	1.169959	-0.341452	0.793600
C193	C	0.699927	-0.816754	0.248727
C194	C	1.199927	-0.316754	0.748727
C195	C	0.699911	-0.769838	0.248718
C196	C	1.199911	-0.269838	0.748718
C197	C	0.580019	-0.774791	0.428201
C198	C	1.080019	-0.274791	0.928201
C199	C	0.580037	-0.821707	0.428206
C200	C	1.080037	-0.321707	0.928206
C201	C	0.610017	-0.843927	0.383339
C202	C	1.110017	-0.343927	0.883339
C203	C	0.757088	-0.225635	0.338454
C204	C	1.257088	0.274365	0.838454
C205	C	0.807022	-0.225637	0.338467
C206	C	1.307022	0.274363	0.838467
C207	C	0.634932	-0.230601	0.521611
C208	C	1.134932	0.269399	1.021611
C209	C	0.632810	-0.232719	0.599675
C210	C	1.132810	0.267281	1.099675
C211	C	0.640003	-0.108454	0.338473
C212	C	1.140003	0.391546	0.838473
C213	C	0.640042	-0.058520	0.338495
C214	C	1.140042	0.441480	0.838495
C215	C	0.644896	-0.220647	0.155947
C216	C	1.144896	0.279353	0.655947
C217	C	0.647105	-0.218402	0.077884
C218	C	1.147105	0.281598	0.577884
C219	C	0.660565	-0.204986	0.636371
C220	C	1.160565	0.295014	1.136371
C221	C	0.658566	-0.206975	0.709720
C222	C	1.158566	0.293025	1.209720
C223	C	0.628814	-0.236699	0.746373
C224	C	1.128814	0.263301	1.246373
C225	C	0.601056	-0.264432	0.709672
C226	C	1.101056	0.235568	1.209672
C227	C	0.603053	-0.262441	0.636324
C228	C	1.103053	0.237559	1.136324
C229	C	0.621344	-0.244145	0.967835
C230	C	1.121344	0.255855	1.467835
C231	C	0.619350	-0.246135	1.041188
C232	C	1.119350	0.253865	1.541188
C233	C	0.676859	-0.188677	1.041232
C234	C	1.176859	0.311323	1.541232
C235	C	0.678856	-0.186690	0.967882
C236	C	1.178856	0.313310	1.467882
C237	C	0.651096	-0.214422	0.931188
C238	C	1.151096	0.285578	1.431188
C239	C	0.626771	-0.238733	0.821347
C240	C	1.126771	0.261267	1.321347
C241	C	0.653137	-0.212386	0.856214
C242	C	1.153137	0.287614	1.356214
H243	H	0.256442	-0.302913	0.211760
H244	H	0.756442	0.197087	0.711760
Br245	Br	0.478814	-0.160897	0.444476
Br246	Br	0.978814	0.339103	0.944476
Br247	Br	0.539328	-0.744643	0.489101
Br248	Br	1.039328	-0.244643	0.989101
H249	H	0.602549	-0.262936	0.851198
H250	H	1.102549	0.237064	1.351198
Br251	Br	0.696256	-0.169357	0.759519
Br252	Br	1.196256	0.330643	1.259519
H253	H	0.381618	-0.175795	0.420045
H254	H	0.881618	0.324205	0.920045
Br255	Br	0.560676	-0.304770	0.759414
Br256	Br	1.060676	0.195230	1.259414
Br257	Br	0.710488	-0.380994	0.232615
Br258	Br	1.210488	0.119006	0.732615
H259	H	0.699459	-0.166098	1.071116
H260	H	1.199459	0.333902	1.571116
Br261	Br	0.539293	-0.603883	0.489098
Br262	Br	1.039293	-0.103883	0.989098
Br263	Br	0.700948	-0.164648	0.586635
Br264	Br	1.200948	0.335352	1.086635
H265	H	0.598747	-0.266733	0.937968
H266	H	1.098747	0.233267	1.437968
Br267	Br	0.710698	-1.063986	0.232724
Br268	Br	1.210698	-0.563986	0.732724
Br269	Br	0.373853	-0.290389	0.232356
Br270	Br	0.873853	0.209611	0.732356
H271	H	0.595121	-0.270341	1.071029
H272	H	1.095121	0.229659	1.571029
Br273	Br	0.569385	-1.069809	0.444263
Br274	Br	1.069385	-0.569809	0.944263
Br275	Br	-0.198534	-0.290383	0.232401
Br276	Br	0.301466	0.209617	0.732401
Br277	Br	0.710667	-0.953392	0.232698
Br278	Br	1.210667	-0.453392	0.732698
Br279	Br	-0.087958	-0.290370	0.232366
Br280	Br	0.412042	0.209630	0.732366
Br281	Br	0.719236	-0.146351	0.918144
Br282	Br	1.219236	0.353649	1.418144
Br283	Br	0.261793	-0.133422	0.489490
Br284	Br	0.761793	0.366578	0.989490
H285	H	0.030577	-0.302921	0.211799
H286	H	0.530577	0.197079	0.711799
H287	H	0.585487	-0.484013	0.419828
H288	H	1.085487	0.015987	0.919828
H289	H	0.164604	-0.148331	0.465062
H290	H	0.664604	0.351669	0.965062
Br291	Br	0.159249	-0.317821	0.187324
Br292	Br	0.659249	0.182179	0.687324
Br293	Br	-0.093584	-0.160894	0.444534
Br294	Br	0.406416	0.339106	0.944534
H295	H	0.585458	-0.398890	0.419804
H296	H	1.085458	0.101110	0.919804
Br297	Br	0.010458	-0.133425	0.489500
Br298	Br	0.510458	0.366575	0.989500
H299	H	0.580448	-0.285020	0.606447
H300	H	1.080448	0.214980	1.106447
H301	H	0.471065	-0.275464	0.256762
H302	H	0.971065	0.224536	0.756762
H303	H	-0.190792	-0.175806	0.420104
H304	H	0.309208	0.324194	0.920104
H305	H	0.108962	-0.148331	0.465067
H306	H	0.608962	0.351669	0.965067
H307	H	0.677359	-0.188183	0.826369
H308	H	1.177359	0.311817	1.326369
H309	H	0.115682	-0.302919	0.211790
H310	H	0.615682	0.197081	0.711790
H311	H	0.724313	-0.749734	0.212172
H312	H	1.224313	-0.249734	0.712172
Br313	Br	0.710534	-0.491572	0.232639
Br314	Br	1.210534	0.008428	0.732639
H315	H	0.724267	-0.608987	0.212147
H316	H	1.224267	-0.108987	0.712147
Br317	Br	0.740574	-0.706154	0.187802
Br318	Br	1.240574	-0.206154	0.687802
H319	H	0.724336	-0.834854	0.212192
H320	H	1.224336	-0.334854	0.712192
H321	H	0.585636	-0.971294	0.419900
H322	H	1.085636	-0.471294	0.919900
H323	H	0.555586	-0.701055	0.464743
H324	H	1.055586	-0.201055	0.964743
H325	H	0.555630	-0.841810	0.464753
H326	H	1.055630	-0.341810	0.964753
