data_functionalizedCrystal
_audit_creation_method	'MofGen! by Chris Wilmer'
_symmetry_space_group_name_H-M	'P1'
_symmetry_Int_Tables_number	1
_symmetry_cell_setting	triclinic
loop_
_symmetry_equiv_pos_as_xyz
  x,y,z
_cell_length_a	10.723024
_cell_length_b	9.065218
_cell_length_c	8.140239
_cell_angle_alpha	90.000461
_cell_angle_beta	90.004184
_cell_angle_gamma	84.741877
loop_
_atom_site_label
_atom_site_type_symbol
_atom_site_fract_x
_atom_site_fract_y
_atom_site_fract_z
O1	O	0.182988	1.959353	0.136613
O2	O	0.197997	1.529983	0.136615
O3	O	0.008956	1.754573	0.136608
O4	O	0.372028	1.734764	0.136620
O5	O	0.008947	1.754571	-0.136619
O6	O	0.197987	1.529982	-0.136612
O7	O	0.182978	1.959352	-0.136614
Zn8	Zn	0.190481	1.744667	-0.179994
Zn9	Zn	0.190494	1.744669	0.179995
O10	O	0.372019	1.734763	-0.136607
C11	C	0.196550	1.475004	0.000002
C12	C	0.192237	1.311186	0.000003
C13	C	-0.037554	1.753130	-0.000004
C14	C	-0.176126	1.748817	0.000002
C15	C	-0.250598	1.874486	0.000004
C16	C	-0.393819	1.870031	0.000010
C17	C	0.418529	1.736205	0.000008
C18	C	0.557101	1.740518	0.000013
C19	C	0.184425	2.014331	0.000003
C20	C	0.188738	2.178150	0.000013
N21	N	0.190494	1.744671	0.425677
N22	N	0.190472	1.744676	-0.425676
H23	H	-0.208325	1.985373	-0.000007
N24	N	-0.232108	1.601928	-0.000017
H25	H	-0.162732	1.518675	-0.000023
H26	H	-0.285555	1.594474	0.101272
H27	H	-0.457815	1.977613	0.000004
H28	H	-0.378911	1.632930	0.000001
