data_functionalizedCrystal
_audit_creation_method	'MofGen! by Chris Wilmer'
_symmetry_space_group_name_H-M	'P1'
_symmetry_Int_Tables_number	1
_symmetry_cell_setting	triclinic
loop_
_symmetry_equiv_pos_as_xyz
  x,y,z
_cell_length_a	25.639239
_cell_length_b	25.639242
_cell_length_c	25.639234
_cell_angle_alpha	90.020854
_cell_angle_beta	89.975416
_cell_angle_gamma	89.970385
loop_
_atom_site_label
_atom_site_type_symbol
_atom_site_fract_x
_atom_site_fract_y
_atom_site_fract_z
Zn1	Zn	-0.208311	-0.799250	-0.295657
Zn2	Zn	-0.295738	-0.799166	-0.208221
Zn3	Zn	-0.208305	-0.711819	-0.208230
Zn4	Zn	-0.295703	-0.711771	-0.295620
O5	O	-0.252014	-0.755502	-0.251932
O6	O	-0.219925	-0.872404	-0.284069
O7	O	-0.284153	-0.787564	-0.135057
O8	O	-0.135141	-0.723472	-0.219846
O9	O	-0.284158	-0.872342	-0.219831
O10	O	-0.135145	-0.787707	-0.284078
O11	O	-0.219916	-0.723390	-0.135064
O12	O	-0.219881	-0.638647	-0.219811
O13	O	-0.284098	-0.723391	-0.368790
O14	O	-0.284092	-0.638612	-0.284016
O15	O	-0.219891	-0.787661	-0.368817
O16	O	-0.368899	-0.787518	-0.219796
O17	O	-0.368873	-0.723309	-0.284007
C18	C	-0.251983	-0.619659	-0.251911
C19	C	-0.251982	-0.561545	-0.251914
C20	C	-0.387857	-0.755414	-0.251908
C21	C	-0.445971	-0.755424	-0.251915
C22	C	-0.218617	-0.310392	-0.285429
C23	C	-0.218613	-0.364996	-0.285428
O24	O	-0.190228	-0.393267	-0.313926
N25	N	-0.252000	-0.392271	-0.251927
C26	C	-0.285396	-0.364939	-0.218430
O27	O	-0.313793	-0.393153	-0.189936
C28	C	-0.285402	-0.310336	-0.218434
C29	C	-0.252010	-0.283063	-0.251933
C30	C	-0.185228	-0.283119	-0.318925
C31	C	-0.185231	-0.228519	-0.318926
C32	C	-0.218624	-0.201191	-0.285430
C33	C	-0.252013	-0.228463	-0.251934
C34	C	-0.318800	-0.283005	-0.184940
C35	C	-0.318804	-0.228398	-0.184948
C36	C	-0.285411	-0.201125	-0.218446
C37	C	-0.285409	-0.146534	-0.218438
N38	N	-0.252022	-0.119259	-0.251939
C39	C	-0.218630	-0.146587	-0.285434
C40	C	-0.285381	-0.479610	-0.218424
C41	C	-0.285373	-0.534212	-0.218416
C42	C	-0.218591	-0.534265	-0.285415
C43	C	-0.218597	-0.479662	-0.285419
C44	C	-0.251995	-0.452335	-0.251924
C45	C	-0.218639	-0.031922	-0.285433
C46	C	-0.218644	0.022683	-0.285429
C47	C	-0.285427	0.022732	-0.218433
C48	C	-0.285421	-0.031869	-0.218434
C49	C	-0.252025	-0.059195	-0.251939
O50	O	-0.313781	-0.118229	-0.189956
O51	O	-0.190242	-0.118367	-0.313929
C52	C	-0.806335	-0.789022	-0.218554
C53	C	-0.860939	-0.789042	-0.218561
O54	O	-0.889177	-0.817518	-0.190169
N55	N	-0.888253	-0.755593	-0.251967
C56	C	-0.860960	-0.722126	-0.285371
O57	O	-0.889207	-0.693677	-0.313787
C58	C	-0.806357	-0.722109	-0.285367
C59	C	-0.779046	-0.755556	-0.251955
C60	C	-0.779024	-0.822467	-0.185145
C61	C	-0.724423	-0.822446	-0.185138
C62	C	-0.697134	-0.788980	-0.218539
C63	C	-0.724445	-0.755535	-0.251947
C64	C	-0.779065	-0.688644	-0.318774
C65	C	-0.724458	-0.688630	-0.318766
C66	C	-0.697147	-0.722077	-0.285354
C67	C	-0.642556	-0.722048	-0.285341
N68	N	-0.615241	-0.755497	-0.251935
C69	C	-0.642531	-0.788963	-0.218534
C70	C	-0.975631	-0.722165	-0.285379
C71	C	-1.030233	-0.722179	-0.285382
C72	C	-1.030208	-0.789097	-0.218572
C73	C	-0.975605	-0.789080	-0.218567
C74	C	-0.948317	-0.755614	-0.251974
C75	C	-0.527866	-0.788916	-0.218520
C76	C	-0.473260	-0.788890	-0.218514
C77	C	-0.473290	-0.721975	-0.285326
C78	C	-0.527890	-0.721998	-0.285330
C79	C	-0.555177	-0.755473	-0.251926
O80	O	-0.614283	-0.693588	-0.313719
O81	O	-0.614277	-0.817412	-0.190128
C82	C	-0.115641	-0.755604	-0.251967
C83	C	-0.057527	-0.755648	-0.251983
C84	C	-0.251991	-0.755530	-0.388305
C85	C	-0.251981	-0.755542	-0.446419
C86	C	-0.252040	0.108125	-0.251946
C87	C	-0.252036	0.050011	-0.251933
C88	C	-0.285387	-0.788971	-0.697602
C89	C	-0.285398	-0.788965	-0.642997
O90	O	-0.313858	-0.817364	-0.614751
N91	N	-0.251956	-0.755553	-0.615693
C92	C	-0.218505	-0.722141	-0.642996
O93	O	-0.190062	-0.693720	-0.614758
C94	C	-0.218497	-0.722144	-0.697599
C95	C	-0.251937	-0.755562	-0.724901
C96	C	-0.318824	-0.822386	-0.724903
C97	C	-0.318813	-0.822392	-0.779504
C98	C	-0.285363	-0.788983	-0.806803
C99	C	-0.251926	-0.755568	-0.779501
C100	C	-0.185050	-0.688729	-0.724901
C101	C	-0.185045	-0.688735	-0.779508
C102	C	-0.218485	-0.722153	-0.806810
C103	C	-0.218464	-0.722165	-0.861401
N104	N	-0.251906	-0.755577	-0.888705
C105	C	-0.285355	-0.788986	-0.861406
C106	C	-0.218525	-0.722136	-0.528325
C107	C	-0.218530	-0.722135	-0.473723
C108	C	-0.285423	-0.788959	-0.473728
C109	C	-0.285415	-0.788962	-0.528331
C110	C	-0.251967	-0.755548	-0.555629
C111	C	-0.285328	-0.788997	-0.976071
C112	C	-0.285312	-0.789001	-1.030677
C113	C	-0.218421	-0.722176	-1.030667
C114	C	-0.218435	-0.722173	-0.976066
C115	C	-0.251893	-0.755585	-0.948770
O116	O	-0.190020	-0.693780	-0.889682
O117	O	-0.313799	-0.817397	-0.889651
C118	C	-0.252000	-0.755503	-0.116089
C119	C	-0.251862	-0.755593	-0.057976
H120	H	-0.191445	-0.054164	-0.312715
C121	C	-0.557558	-0.825177	-0.182230
C122	C	-0.588965	-0.795614	-0.148700
C123	C	-0.616332	-0.828999	-0.115269
H124	H	-0.533530	-0.845107	-0.162283
H125	H	-0.578854	-0.847945	-0.202246
H126	H	-0.567671	-0.772855	-0.128686
H127	H	-0.613003	-0.775685	-0.168632
H128	H	-0.637629	-0.851767	-0.135285
H129	H	-0.592301	-0.848927	-0.095326
H130	H	-0.637649	-0.808946	-0.092518
H131	H	-0.953371	-0.816316	-0.191361
C132	C	-0.808559	-0.858906	-0.148907
C133	C	-0.795189	-0.910614	-0.160348
C134	C	-0.822368	-0.944202	-0.126966
H135	H	-0.845004	-0.854221	-0.153642
H136	H	-0.799611	-0.851304	-0.113763
H137	H	-0.804141	-0.918213	-0.195483
H138	H	-0.758749	-0.915316	-0.155610
H139	H	-0.813420	-0.936601	-0.091822
H140	H	-0.858811	-0.939513	-0.131703
H141	H	-0.813297	-0.979290	-0.134721
H142	H	-0.346065	-0.849592	-0.702682
C143	C	-0.182109	-0.685834	-0.946516
C144	C	-0.152822	-0.656569	-0.982113
C145	C	-0.119364	-0.623077	-0.954915
H146	H	-0.159291	-0.705785	-0.925218
H147	H	-0.202102	-0.663007	-0.925221
H148	H	-0.132831	-0.679393	-1.003399
H149	H	-0.175627	-0.636607	-1.003412
H150	H	-0.139357	-0.600250	-0.933620
H151	H	-0.096549	-0.643033	-0.933618
H152	H	-0.099492	-0.603214	-0.979063
C153	C	-1.059976	-0.685881	-0.321598
C154	C	-1.113638	-0.693048	-0.314452
C155	C	-1.141051	-0.659616	-0.347804
H156	H	-1.051061	-0.693477	-0.356754
H157	H	-1.051092	-0.650742	-0.313905
H158	H	-1.122519	-0.728179	-0.322148
H159	H	-1.122569	-0.685449	-0.279303
H160	H	-1.132167	-0.624477	-0.340111
H161	H	-1.132132	-0.667214	-0.382958
H162	H	-1.177463	-0.664470	-0.342957
C163	C	-0.182369	0.052198	-0.321860
C164	C	-0.153137	0.016574	-0.351204
C165	C	-0.119723	0.043741	-0.384774
H166	H	-0.159514	0.073498	-0.301962
H167	H	-0.202391	0.073488	-0.344634
H168	H	-0.133117	-0.004707	-0.328433
H169	H	-0.175979	-0.004728	-0.371113
H170	H	-0.139745	0.065031	-0.407547
H171	H	-0.096871	0.065040	-0.364871
H172	H	-0.099889	0.019574	-0.404691
H173	H	-0.158042	-0.206318	-0.346206
H174	H	-0.702189	-0.849683	-0.157933
H175	H	-0.157806	-0.661525	-0.801732
H176	H	-0.346045	-0.849603	-0.801727
C177	C	-0.321704	-0.449915	-0.182136
C178	C	-0.355274	-0.418577	-0.211676
C179	C	-0.388746	-0.391224	-0.178268
H180	H	-0.301736	-0.428571	-0.159381
H181	H	-0.341614	-0.473967	-0.162195
H182	H	-0.335365	-0.394528	-0.231608
H183	H	-0.375253	-0.439908	-0.234430
H184	H	-0.408657	-0.415276	-0.158327
H185	H	-0.368774	-0.369882	-0.155514
H186	H	-0.411530	-0.369961	-0.198306
C187	C	-0.321782	-0.825261	-0.557876
C188	C	-0.351082	-0.854508	-0.522275
C189	C	-0.384596	-0.887948	-0.549469
H190	H	-0.301845	-0.848106	-0.579192
H191	H	-0.344585	-0.805257	-0.579151
H192	H	-0.328282	-0.874511	-0.501008
H193	H	-0.371030	-0.831677	-0.500957
H194	H	-0.407399	-0.867944	-0.570744
H195	H	-0.364655	-0.910789	-0.570784
H196	H	-0.404484	-0.907792	-0.525317
C197	C	-0.321725	-0.825172	-0.443988
C198	C	-0.314583	-0.818001	-0.390326
C199	C	-0.348018	-0.851344	-0.362913
H200	H	-0.314118	-0.860331	-0.452881
H201	H	-0.356863	-0.817486	-0.452894
H202	H	-0.279453	-0.825690	-0.381424
H203	H	-0.322194	-0.782849	-0.381418
H204	H	-0.383155	-0.843658	-0.371819
H205	H	-0.340407	-0.886501	-0.371810
H206	H	-0.343179	-0.846479	-0.326501
H207	H	-0.801293	-0.661405	-0.345979
C208	C	-0.321662	0.052503	-0.182125
C209	C	-0.314525	0.106158	-0.189311
C210	C	-0.347903	0.133601	-0.155882
H211	H	-0.313998	0.043632	-0.146986
H212	H	-0.356813	0.043599	-0.189721
H213	H	-0.279382	0.115059	-0.181712
H214	H	-0.322192	0.115045	-0.224443
H215	H	-0.383054	0.124697	-0.163477
H216	H	-0.340237	0.124726	-0.120744
H217	H	-0.343069	0.170009	-0.160756
C218	C	-0.946100	-0.685766	-0.321667
C219	C	-0.981713	-0.656470	-0.350910
C220	C	-0.954532	-0.622930	-0.384338
H221	H	-0.924769	-0.705684	-0.344514
H222	H	-0.924841	-0.662960	-0.301655
H223	H	-1.002963	-0.679273	-0.370920
H224	H	-1.003046	-0.636542	-0.328076
H225	H	-0.933273	-0.600125	-0.364326
H226	H	-0.933202	-0.642852	-0.407182
H227	H	-0.978691	-0.603046	-0.404180
H228	H	-0.451063	-0.694725	-0.312519
H229	H	-0.312558	-0.556412	-0.191133
H230	H	-0.702243	-0.661379	-0.345971
H231	H	-0.550128	-0.694764	-0.312538
C232	C	-0.182193	-0.685840	-1.060341
C233	C	-0.211791	-0.652305	-1.091662
C234	C	-0.178440	-0.618819	-1.119001
H235	H	-0.159404	-0.705799	-1.081697
H236	H	-0.162286	-0.665904	-1.036281
H237	H	-0.231689	-0.672239	-1.115719
H238	H	-0.234579	-0.632335	-1.070319
H239	H	-0.158533	-0.598883	-1.094942
H240	H	-0.155652	-0.638782	-1.140354
H241	H	-0.198517	-0.596059	-1.140252
H242	H	-0.345992	-0.305200	-0.157662
C243	C	-1.059937	-0.825458	-0.182408
C244	C	-1.113601	-0.818340	-0.189598
C245	C	-1.141005	-0.851848	-0.156319
H246	H	-1.051103	-0.817901	-0.147233
H247	H	-1.050964	-0.860577	-0.190140
H248	H	-1.122571	-0.783229	-0.181862
H249	H	-1.122451	-0.825901	-0.224766
H250	H	-1.132031	-0.886967	-0.164051
H251	H	-1.132166	-0.844288	-0.121146
H252	H	-1.177418	-0.847026	-0.161195
H253	H	-0.346002	-0.206151	-0.157673
C254	C	-0.321679	-0.825304	-1.060223
C255	C	-0.350984	-0.854549	-1.024624
C256	C	-0.384495	-0.887989	-1.051821
H257	H	-0.301739	-0.848150	-1.081536
H258	H	-0.344479	-0.805301	-1.081502
H259	H	-0.328187	-0.874551	-1.003354
H260	H	-0.370934	-0.831716	-1.003310
H261	H	-0.407295	-0.867985	-1.073100
H262	H	-0.364551	-0.910832	-1.073133
H263	H	-0.404386	-0.907832	-1.027671
H264	H	-0.191294	-0.694929	-0.451499
H265	H	-0.191401	-0.556526	-0.312689
C266	C	-0.321715	-0.825187	-0.946412
C267	C	-0.355240	-0.795560	-0.915058
C268	C	-0.388768	-0.828882	-0.887734
H269	H	-0.301786	-0.847993	-0.925080
H270	H	-0.341656	-0.845078	-0.970481
H271	H	-0.335302	-0.775678	-0.890992
H272	H	-0.375181	-0.772756	-0.936378
H273	H	-0.408709	-0.848773	-0.911803
H274	H	-0.368835	-0.851686	-0.866405
H275	H	-0.411522	-0.808785	-0.866461
C276	C	-0.182289	-0.685793	-0.557987
C277	C	-0.211876	-0.652247	-0.589305
C278	C	-0.178515	-0.618756	-0.616627
H279	H	-0.159496	-0.705748	-0.579343
H280	H	-0.162386	-0.665866	-0.533917
H281	H	-0.231770	-0.672172	-0.613373
H282	H	-0.234667	-0.632281	-0.567962
H283	H	-0.158612	-0.598829	-0.592557
H284	H	-0.155724	-0.638715	-0.637980
H285	H	-0.198586	-0.595988	-0.637876
H286	H	-0.157820	-0.661516	-0.702682
H287	H	-0.158036	-0.305364	-0.346204
H288	H	-0.312607	-0.054075	-0.191152
C289	C	-0.182327	-0.450149	-0.321851
C290	C	-0.153093	-0.485776	-0.351190
C291	C	-0.119680	-0.458611	-0.384763
H292	H	-0.159473	-0.428845	-0.301955
H293	H	-0.202350	-0.428863	-0.344627
H294	H	-0.133071	-0.507052	-0.328416
H295	H	-0.175933	-0.507081	-0.371096
H296	H	-0.139703	-0.437325	-0.407540
H297	H	-0.096830	-0.437308	-0.364864
H298	H	-0.099844	-0.482779	-0.404677
H299	H	-0.451025	-0.816127	-0.191304
