data_functionalizedCrystal
_audit_creation_method	'MofGen! by Chris Wilmer'
_symmetry_space_group_name_H-M	'P1'
_symmetry_Int_Tables_number	1
_symmetry_cell_setting	triclinic
loop_
_symmetry_equiv_pos_as_xyz
  x,y,z
_cell_length_a	18.101398
_cell_length_b	18.101397
_cell_length_c	14.908308
_cell_angle_alpha	93.262730
_cell_angle_beta	93.282763
_cell_angle_gamma	90.018618
loop_
_atom_site_label
_atom_site_type_symbol
_atom_site_fract_x
_atom_site_fract_y
_atom_site_fract_z
Zn1	Zn	1.108012	-0.319010	-0.509956
Zn2	Zn	1.115080	-0.435716	-0.359090
Zn3	Zn	0.991318	-0.311890	-0.359126
Zn4	Zn	0.984147	-0.442808	-0.509910
O5	O	1.049639	-0.377356	-0.434521
O6	O	1.212583	-0.334502	-0.489947
O7	O	1.104621	-0.413342	-0.232853
O8	O	1.006841	-0.209203	-0.379168
O9	O	1.217775	-0.420246	-0.379106
O10	O	1.092576	-0.214434	-0.489982
O11	O	1.013694	-0.322368	-0.232880
O12	O	0.886734	-0.329245	-0.379125
O13	O	0.994619	-0.432333	-0.636158
O14	O	0.881466	-0.425430	-0.489905
O15	O	1.085623	-0.341379	-0.636191
O16	O	1.097668	-0.540288	-0.379062
O17	O	1.001472	-0.545498	-0.489870
C18	C	0.857229	-0.377335	-0.434514
C19	C	0.774914	-0.377345	-0.434533
C20	C	0.624206	-0.377359	-0.434532
C21	C	0.589567	-0.437958	-0.504124
C22	C	0.503959	-0.438181	-0.503917
C23	C	0.475823	-0.377372	-0.434532
C24	C	0.511390	-0.393693	-0.339341
C25	C	0.597016	-0.394120	-0.339744
C26	C	0.591496	-0.300257	-0.459299
C27	C	0.505747	-0.300785	-0.461395
C28	C	0.391964	-0.377379	-0.434526
C29	C	0.708065	-0.377354	-0.434531
C30	C	1.049578	-0.569764	-0.434477
C31	C	1.049618	-0.652079	-0.434488
C32	C	1.049709	-0.951174	-0.434571
C33	C	1.110082	-0.916530	-0.364667
C34	C	1.110271	-0.830920	-0.364848
C35	C	1.049664	-0.802789	-0.434529
C36	C	1.066314	-0.838297	-0.529617
C37	C	1.066774	-0.923924	-0.529237
C38	C	0.972494	-0.918527	-0.410209
C39	C	0.972982	-0.832777	-0.408086
C40	C	1.049637	-0.718929	-0.434511
C41	C	1.049737	-1.035034	-0.434595
C42	C	1.242801	-0.377377	-0.434527
C43	C	1.325115	-0.377386	-0.434530
C44	C	1.038533	-0.388441	-0.669823
C45	C	1.033800	-0.393165	-0.770094
C46	C	1.049720	-0.184197	-0.434584
C47	C	1.049755	-0.101884	-0.434611
C48	C	1.119666	-0.307315	-0.958552
C49	C	1.115221	-0.311751	-1.052766
C50	C	1.020462	-0.406469	-1.052739
C51	C	1.024907	-0.402033	-0.958524
C52	C	1.074511	-0.352455	-0.911434
C53	C	1.078959	-0.348023	-0.817218
C54	C	0.984197	-0.442738	-0.817193
C55	C	0.979753	-0.447174	-0.911407
C56	C	1.060745	-0.366260	-0.200134
C57	C	1.065622	-0.361327	-0.099863
H58	H	0.611835	-0.494862	-0.487890
H59	H	0.609885	-0.284459	-0.527542
C60	C	1.142844	-0.952157	-0.557105
N61	N	1.200144	-0.973419	-0.578092
C62	C	0.934525	-0.492396	-0.765356
N63	N	0.897113	-0.529799	-0.726312
H64	H	1.151988	-0.274991	-1.091126
H65	H	0.614167	-0.255166	-0.408617
C66	C	0.965884	-0.460982	-1.104554
N67	N	0.924770	-0.502037	-1.143583
H68	H	1.167061	-0.938754	-0.380600
C69	C	1.174233	-0.252782	-0.906751
N70	N	1.215334	-0.211707	-0.867735
C71	C	1.141496	-0.810594	-0.557966
N72	N	1.198126	-0.789729	-0.579313
H73	H	0.939365	-0.487537	-0.949761
C74	C	1.133522	-0.293484	-0.765421
N75	N	1.174617	-0.252401	-0.726409
C76	C	0.479852	-0.237054	-0.397971
N77	N	0.460345	-0.189053	-0.350196
C78	C	0.471076	-0.424860	-0.599178
N79	N	0.446314	-0.414727	-0.670906
H80	H	0.620289	-0.351627	-0.286113
C81	C	0.955903	-0.800925	-0.313556
N82	N	0.943040	-0.776926	-0.242356
H83	H	1.023490	-0.820468	-0.583101
C84	C	1.096951	-0.939903	-0.269129
N85	N	1.087059	-0.957512	-0.197167
C86	C	0.612892	-0.425142	-0.599760
N87	N	0.630468	-0.415489	-0.671795
C88	C	0.625313	-0.470068	-0.311470
N89	N	0.646623	-0.527274	-0.290177
C90	C	0.477298	-0.515489	-0.481704
N91	N	0.457219	-0.573720	-0.464964
C92	C	0.909434	-0.806901	-0.471832
N93	N	0.861572	-0.787412	-0.519853
C94	C	0.487300	-0.335632	-0.267364
N95	N	0.469153	-0.291900	-0.213152
H96	H	1.167558	-0.811142	-0.380966
H97	H	0.956476	-0.936962	-0.342073
H98	H	0.927567	-0.941201	-0.461123
H99	H	1.100376	-0.806621	-0.294341
H100	H	0.490930	-0.449269	-0.318053
C101	C	1.009626	-0.955370	-0.602007
N102	N	0.966588	-0.979051	-0.656823
C103	C	0.473836	-0.284033	-0.556032
N104	N	0.449794	-0.271415	-0.627311
