data_functionalizedCrystal
_audit_creation_method	'MofGen! by Chris Wilmer'
_symmetry_space_group_name_H-M	'P1'
_symmetry_Int_Tables_number	1
_symmetry_cell_setting	triclinic
loop_
_symmetry_equiv_pos_as_xyz
  x,y,z
_cell_length_a	29.839131
_cell_length_b	12.645331
_cell_length_c	12.645323
_cell_angle_alpha	89.973618
_cell_angle_beta	90.032712
_cell_angle_gamma	89.964326
loop_
_atom_site_label
_atom_site_type_symbol
_atom_site_fract_x
_atom_site_fract_y
_atom_site_fract_z
Zn1	Zn	-0.178919	-1.620556	0.599493
Zn2	Zn	-0.254050	-1.620365	0.422209
Zn3	Zn	-0.178928	-1.443271	0.422226
Zn4	Zn	-0.254015	-1.443179	0.599413
O5	O	-0.216478	-1.531843	0.510835
O6	O	-0.188896	-1.768878	0.576002
O7	O	-0.244104	-1.596831	0.273864
O8	O	-0.116059	-1.466907	0.445782
O9	O	-0.244095	-1.768737	0.445753
O10	O	-0.116053	-1.597158	0.576019
O11	O	-0.188911	-1.466721	0.273876
O12	O	-0.188877	-1.294912	0.445704
O13	O	-0.244035	-1.466751	0.747771
O14	O	-0.244043	-1.294844	0.575882
O15	O	-0.188862	-1.597069	0.747830
O16	O	-0.316913	-1.596742	0.445675
O17	O	-0.316887	-1.466565	0.575866
C18	C	-0.216458	-1.256413	0.510787
C19	C	-0.216460	-1.138583	0.510791
C20	C	-0.181589	-0.971026	0.429337
C21	C	-0.181684	-1.093586	0.428986
C22	C	-0.263784	-1.094017	0.480258
C23	C	-0.263589	-0.971418	0.479695
C24	C	-0.204443	-0.971445	0.623068
C25	C	-0.203390	-1.094052	0.622453
C26	C	-0.333200	-1.531651	0.510783
C27	C	-0.383135	-1.531667	0.510796
C28	C	-0.692779	-1.599749	0.443144
C29	C	-0.880452	-1.599880	0.443185
O30	O	-0.904718	-1.657615	0.385625
N31	N	-0.903920	-1.532063	0.510915
C32	C	-0.880466	-1.464212	0.578645
O33	O	-0.904733	-1.406540	0.636262
C34	C	-0.692794	-1.464088	0.578608
C35	C	-0.669329	-1.531902	0.510866
C36	C	-0.669314	-1.667559	0.375408
C37	C	-0.622398	-1.667522	0.375394
C38	C	-0.598948	-1.599674	0.443117
C39	C	-0.622414	-1.531865	0.510852
C40	C	-0.669342	-1.396244	0.646342
C41	C	-0.622421	-1.396220	0.646329
C42	C	-0.598955	-1.464035	0.578587
C43	C	-0.552048	-1.463980	0.578561
N44	N	-0.528580	-1.531798	0.510831
C45	C	-0.552030	-1.599645	0.443109
C46	C	-0.978997	-1.464281	0.578658
C47	C	-1.025915	-1.464311	0.578666
C48	C	-1.025897	-1.599980	0.443207
C49	C	-0.978979	-1.599945	0.443195
C50	C	-0.955529	-1.532099	0.510928
C51	C	-0.453505	-1.599560	0.443084
C52	C	-0.406585	-1.599514	0.443074
C53	C	-0.406607	-1.463849	0.578536
C54	C	-0.453522	-1.463891	0.578543
C55	C	-0.476970	-1.531755	0.510814
O56	O	-0.527753	-1.406284	0.636100
O57	O	-0.527755	-1.657325	0.385516
C58	C	-0.739695	-1.599787	0.443158
C59	C	-0.763160	-1.531977	0.510893
C60	C	-0.739710	-1.464130	0.578616
C61	C	-0.810078	-1.532007	0.510901
C62	C	-0.833528	-1.599854	0.443179
C63	C	-0.810060	-1.667672	0.375449
C64	C	-0.763145	-1.667634	0.375435
C65	C	-0.763177	-1.396312	0.646346
C66	C	-0.810093	-1.396354	0.646353
C67	C	-0.833543	-1.464202	0.578631
C68	C	-0.099299	-1.532064	0.510911
C69	C	-0.049365	-1.532158	0.510944
C70	C	-0.216443	-1.531921	0.787341
C71	C	-0.216428	-1.531954	0.905171
C72	C	-0.216490	-0.808348	0.510868
C73	C	-0.216472	-0.926178	0.510841
C74	C	-0.216480	-1.531826	0.235406
C75	C	-0.216368	-1.531998	0.117576
C76	C	-0.250974	-1.449718	1.072698
C77	C	-0.251145	-1.449933	0.950138
C78	C	-0.229282	-1.643641	0.949694
C79	C	-0.229498	-1.643190	1.072292
C80	C	-0.168836	-1.503559	1.072382
C81	C	-0.169121	-1.501067	0.949776
H82	H	-0.273790	-0.942763	0.397650
H83	H	-1.045016	-1.409080	0.633818
F84	F	-0.381641	-1.391647	0.650610
F85	F	-0.381614	-1.671694	0.370969
F86	F	-0.135136	-1.581890	1.110319
H87	H	-0.146591	-1.123721	0.448126
F88	F	-0.298712	-0.932633	0.553896
F89	F	-0.298667	-1.132097	0.555425
F90	F	-0.694264	-1.739780	0.303324
H91	H	-0.959908	-1.409030	0.633816
F92	F	-0.240560	-1.341139	1.111208
F93	F	-0.240629	-1.341682	0.910786
H94	H	-0.274162	-1.124662	0.399099
F95	F	-0.197964	-1.725989	1.111103
F96	F	-0.296739	-1.473963	1.113028
H97	H	-0.603330	-1.340973	0.701489
F98	F	-0.157874	-1.132151	0.652557
F99	F	-0.297198	-1.474517	0.911804
H100	H	-0.170535	-0.940582	0.650829
F101	F	-0.135578	-0.932561	0.454078
F102	F	-0.192076	-1.131849	0.320288
F103	F	-0.274915	-1.674703	1.109679
F104	F	-0.197379	-1.725920	0.911631
H105	H	-0.141975	-1.556621	0.919167
H106	H	-0.263664	-1.668166	0.918996
H107	H	-0.157121	-1.423538	1.103285
F108	F	-0.156453	-1.393631	0.911750
F109	F	-1.050863	-1.672186	0.371129
H110	H	-0.688439	-1.341017	0.701501
H111	H	-0.189451	-0.940171	0.346662
H112	H	-0.744043	-1.722855	0.320274
H113	H	-0.226947	-1.124687	0.686433
H114	H	-0.829162	-1.722912	0.320304
F115	F	-0.835061	-1.324169	0.718456
H116	H	-0.959876	-1.655165	0.388034
H117	H	-0.229851	-0.942442	0.683796
F118	F	-0.478453	-1.671789	0.370999
H119	H	-0.472628	-1.408674	0.633707
F120	F	-0.738226	-1.324097	0.718430
F121	F	-0.597431	-1.739712	0.303305
