data_functionalizedCrystal
_audit_creation_method	'MofGen! by Chris Wilmer'
_symmetry_space_group_name_H-M	'P1'
_symmetry_Int_Tables_number	1
_symmetry_cell_setting	triclinic
loop_
_symmetry_equiv_pos_as_xyz
  x,y,z
_cell_length_a	15.297475
_cell_length_b	12.645330
_cell_length_c	15.296720
_cell_angle_alpha	99.648098
_cell_angle_beta	91.617114
_cell_angle_gamma	80.315708
loop_
_atom_site_label
_atom_site_type_symbol
_atom_site_fract_x
_atom_site_fract_y
_atom_site_fract_z
Zn1	Zn	1.253513	-0.825077	-0.726633
Zn2	Zn	1.753513	-0.325077	-0.226633
Zn3	Zn	1.278796	-0.977730	-0.580155
Zn4	Zn	1.778796	-0.477730	-0.080155
Zn5	Zn	1.132383	-0.765520	-0.554871
Zn6	Zn	1.632383	-0.265520	-0.054871
Zn7	Zn	1.107021	-0.967309	-0.701283
Zn8	Zn	1.607021	-0.467309	-0.201283
O9	O	1.192928	-0.883909	-0.640735
O10	O	1.692928	-0.383909	-0.140735
O11	O	1.379449	-0.874612	-0.728392
O12	O	1.879449	-0.374612	-0.228392
O13	O	1.280569	-0.929016	-0.454225
O14	O	1.780569	-0.429016	0.045775
O15	O	1.148484	-0.625086	-0.577683
O16	O	1.648484	-0.125086	-0.077683
O17	O	1.398024	-0.986766	-0.620776
O18	O	1.898024	-0.486766	-0.120776
O19	O	1.237477	-0.668841	-0.703876
O20	O	1.737477	-0.168841	-0.203876
O21	O	1.173000	-0.773107	-0.435649
O22	O	1.673000	-0.273107	0.064351
O23	O	1.006436	-0.763003	-0.553102
O24	O	1.506436	-0.263003	-0.053102
O25	O	1.105258	-0.969005	-0.827221
O26	O	1.605258	-0.469005	-0.327221
O27	O	0.987803	-0.911256	-0.660670
O28	O	1.487803	-0.411256	-0.160670
O29	O	1.212885	-0.864507	-0.845845
O30	O	1.712885	-0.364507	-0.345845
O31	O	1.255977	-1.124682	-0.596195
O32	O	1.755977	-0.624682	-0.096195
O33	O	1.129775	-1.117026	-0.685187
O34	O	1.629775	-0.617026	-0.185187
C35	C	0.965336	-0.829536	-0.601392
C36	C	1.465336	-0.329536	-0.101392
C37	C	0.867967	-0.806305	-0.584582
C38	C	1.367967	-0.306305	-0.084582
C39	C	0.554854	-1.049958	-0.760882
C40	C	1.054854	-0.549958	-0.260882
C41	C	0.646337	-1.071793	-0.776674
C42	C	1.146337	-0.571793	-0.276674
C43	C	0.701749	-1.005422	-0.728653
C44	C	1.201749	-0.505422	-0.228653
C45	C	0.665669	-0.917214	-0.664837
C46	C	1.165669	-0.417214	-0.164837
C47	C	0.574178	-0.895382	-0.649039
C48	C	1.074178	-0.395382	-0.149039
C49	C	0.721073	-0.850847	-0.616809
C50	C	1.221073	-0.350847	-0.116809
C51	C	0.684993	-0.762638	-0.552993
C52	C	1.184993	-0.262638	-0.052993
C53	C	0.593510	-0.740810	-0.537198
C54	C	1.093510	-0.240810	-0.037198
C55	C	0.538098	-0.807180	-0.585219
C56	C	1.038098	-0.307180	-0.085219
C57	C	0.812564	-0.872678	-0.632607
C58	C	1.312564	-0.372678	-0.132607
C59	C	0.831887	-0.718103	-0.520763
C60	C	1.331887	-0.218103	-0.020763
C61	C	0.740404	-0.696268	-0.504972
C62	C	1.240404	-0.196268	-0.004972
C63	C	1.192888	-1.159325	-0.640707
C64	C	1.692888	-0.659325	-0.140707
C65	C	1.192946	-1.277173	-0.640738
C66	C	1.692946	-0.777173	-0.140738
C67	C	1.272255	-1.449460	-0.584597
C68	C	1.772255	-0.949460	-0.084597
C69	C	1.272446	-1.326980	-0.584801
C70	C	1.772446	-0.826980	-0.084801
C71	C	1.201992	-1.343050	-0.737391
C72	C	1.701992	-0.843050	-0.237391
C73	C	1.202591	-1.465716	-0.737123
C74	C	1.702591	-0.965716	-0.237123
C75	C	1.104406	-1.418415	-0.601132
C76	C	1.604406	-0.918415	-0.101132
C77	C	1.105209	-1.295568	-0.599138
C78	C	1.605209	-0.795568	-0.099138
C79	C	1.421409	-0.938495	-0.680232
C80	C	1.921409	-0.438495	-0.180232
C81	C	1.518774	-0.961756	-0.697063
C82	C	2.018774	-0.461756	-0.197063
C83	C	1.153423	-0.922237	-0.869204
C84	C	1.653423	-0.422237	-0.369204
C85	C	1.136588	-0.938570	-0.966564
C86	C	1.636588	-0.438570	-0.466564
C87	C	1.192989	-0.607427	-0.640787
C88	C	1.692989	-0.107427	-0.140787
C89	C	1.193015	-0.489606	-0.640809
C90	C	1.693015	0.010394	-0.140809
C91	C	1.313283	-0.766995	-1.279794
C92	C	1.813283	-0.266995	-0.779794
C93	C	1.329105	-0.751653	-1.188320
C94	C	1.829105	-0.251653	-0.688320
C95	C	1.280977	-0.798380	-1.132877
C96	C	1.780977	-0.298380	-0.632877
C97	C	1.217024	-0.860454	-1.168916
C98	C	1.717024	-0.360454	-0.668916
C99	C	1.201204	-0.875805	-1.260399
C100	C	1.701204	-0.375805	-0.760399
C101	C	1.168899	-0.907190	-1.113482
C102	C	1.668899	-0.407190	-0.613482
C103	C	1.104946	-0.969264	-1.149521
C104	C	1.604946	-0.469264	-0.649521
C105	C	1.089129	-0.984612	-1.240995
C106	C	1.589129	-0.484612	-0.740995
C107	C	1.137257	-0.937884	-1.296439
C108	C	1.637257	-0.437884	-0.796439
C109	C	1.184718	-0.891839	-1.021999
C110	C	1.684718	-0.391839	-0.521999
C111	C	1.072640	-1.000649	-1.002604
C112	C	1.572640	-0.500649	-0.502604
C113	C	1.056817	-1.015992	-1.094077
C114	C	1.556817	-0.515992	-0.594077
C115	C	1.232330	-0.845665	-0.413164
C116	C	1.732330	-0.345665	0.086836
C117	C	1.249335	-0.829074	-0.315834
C118	C	1.749335	-0.329074	0.184166
H119	H	0.776238	-1.023205	-0.741514
H120	H	1.276238	-0.523205	-0.241514
F121	F	0.701994	-0.602392	-0.437056
F122	F	1.201994	-0.102392	0.062944
F123	F	1.267421	-1.267824	-0.491785
F124	F	1.767421	-0.767824	0.008215
H125	H	0.877004	-0.664060	-0.481659
H126	H	1.377004	-0.164060	0.018341
H127	H	0.841931	-0.944498	-0.684567
H128	H	1.341931	-0.444498	-0.184567
H129	H	0.463604	-0.789405	-0.572367
H130	H	0.963604	-0.289405	-0.072367
F131	F	0.684730	-1.165668	-0.844587
F132	F	1.184730	-0.665668	-0.344587
F133	F	0.495880	-1.120599	-0.811967
F134	F	0.995880	-0.620599	-0.311967
F135	F	1.095909	-1.236844	-0.506067
F136	F	1.595909	-0.736844	-0.006067
F137	F	1.120423	-0.954215	-1.393798
F138	F	1.620423	-0.454215	-0.893798
H139	H	1.293864	-0.785885	-1.058396
H140	H	1.793864	-0.285885	-0.558396
H141	H	0.564138	-0.668994	-0.485226
H142	H	1.064138	-0.168994	0.014774
H143	H	1.268677	-1.463780	-0.513265
H144	H	1.768677	-0.963780	-0.013265
H145	H	1.337871	-1.499100	-0.611871
H146	H	1.837871	-0.999100	-0.111871
F147	F	1.027493	-1.451496	-0.654388
F148	F	1.527493	-0.951496	-0.154388
F149	F	1.021419	-1.050389	-0.943602
F150	F	1.521419	-0.550389	-0.443602
H151	H	1.338401	-1.316599	-0.612313
H152	H	1.838401	-0.816599	-0.112313
F153	F	1.284952	-1.328199	-0.779155
F154	F	1.784952	-0.828199	-0.279155
F155	F	1.021076	-1.050695	-1.279350
F156	F	1.521076	-0.550695	-0.779350
H157	H	1.266884	-1.513778	-0.768872
H158	H	1.766884	-1.013778	-0.268872
F159	F	1.364503	-0.717282	-1.338806
F160	F	1.864503	-0.217282	-0.838806
F161	F	1.129290	-1.501306	-0.794848
F162	F	1.629290	-1.001306	-0.294848
F163	F	1.127943	-1.301498	-0.794498
F164	F	1.627943	-0.801498	-0.294498
F165	F	0.988756	-1.082055	-1.132444
F166	F	1.488756	-0.582055	-0.632444
H167	H	1.093096	-1.432869	-0.531046
H168	H	1.593096	-0.932869	-0.031046
H169	H	1.044281	-1.259998	-0.635792
H170	H	1.544281	-0.759998	-0.135792
H171	H	1.236789	-0.841297	-0.992665
H172	H	1.736789	-0.341297	-0.492665
H173	H	1.381178	-0.701115	-1.158985
H174	H	1.881178	-0.201115	-0.658985
