data_functionalizedCrystal
_audit_creation_method	'MofGen! by Chris Wilmer'
_symmetry_space_group_name_H-M	'P1'
_symmetry_Int_Tables_number	1
_symmetry_cell_setting	triclinic
loop_
_symmetry_equiv_pos_as_xyz
  x,y,z
_cell_length_a	19.077269
_cell_length_b	16.625545
_cell_length_c	19.077579
_cell_angle_alpha	87.676268
_cell_angle_beta	89.893860
_cell_angle_gamma	87.728639
loop_
_atom_site_label
_atom_site_type_symbol
_atom_site_fract_x
_atom_site_fract_y
_atom_site_fract_z
Zn1	Zn	1.090141	-0.354873	-0.354137
Zn2	Zn	1.590141	0.145127	0.145863
Zn3	Zn	1.085340	-0.494899	-0.236635
Zn4	Zn	1.585340	0.005101	0.263365
Zn5	Zn	0.967925	-0.354464	-0.241367
Zn6	Zn	1.467925	0.145536	0.258633
Zn7	Zn	0.972602	-0.484044	-0.358826
Zn8	Zn	1.472602	0.015956	0.141174
O9	O	1.029002	-0.422070	-0.297741
O10	O	1.529002	0.077930	0.202259
O11	O	1.187833	-0.378162	-0.334608
O12	O	1.687833	0.121838	0.165392
O13	O	1.065798	-0.480641	-0.138931
O14	O	1.565798	0.019359	0.361069
O15	O	0.984190	-0.241687	-0.256344
O16	O	1.484190	0.258313	0.243656
O17	O	1.184306	-0.481038	-0.248280
O18	O	1.684306	0.018962	0.251720
O19	O	1.073981	-0.241988	-0.339196
O20	O	1.573981	0.258012	0.160804
O21	O	0.979534	-0.377464	-0.142407
O22	O	1.479534	0.122536	0.357593
O23	O	0.870216	-0.366939	-0.260890
O24	O	1.370216	0.133061	0.239110
O25	O	0.992160	-0.462538	-0.456536
O26	O	1.492160	0.037462	0.043464
O27	O	0.873652	-0.462141	-0.347187
O28	O	1.373652	0.037859	0.152813
O29	O	1.078516	-0.367637	-0.453091
O30	O	1.578516	0.132363	0.046909
O31	O	1.070333	-0.606290	-0.252826
O32	O	1.570333	-0.106290	0.247174
O33	O	0.987504	-0.598315	-0.342599
O34	O	1.487504	-0.098315	0.157401
C35	C	0.846439	-0.413318	-0.305061
C36	C	1.346439	0.086682	0.194939
C37	C	0.768338	-0.409593	-0.308209
C38	C	1.268338	0.090407	0.191791
C39	C	0.729804	-0.461324	-0.264675
C40	C	1.229804	0.038676	0.235325
C41	C	0.656421	-0.457823	-0.267642
C42	C	1.156421	0.042177	0.232358
C43	C	0.621572	-0.402587	-0.314141
C44	C	1.121572	0.097413	0.185859
C45	C	0.660112	-0.350854	-0.357680
C46	C	1.160112	0.149146	0.142320
C47	C	0.733494	-0.354359	-0.354716
C48	C	1.233494	0.145641	0.145284
C49	C	0.402301	-0.386373	-0.327837
C50	C	0.902301	0.113627	0.172163
C51	C	0.328913	-0.382870	-0.330796
C52	C	0.828913	0.117130	0.169204
C53	C	0.325227	-0.489841	-0.240759
C54	C	0.825227	0.010159	0.259241
C55	C	0.398611	-0.493338	-0.237796
C56	C	0.898611	0.006662	0.262204
C57	C	0.437144	-0.441607	-0.281337
C58	C	0.937144	0.058393	0.218663
N59	N	0.546563	-0.399006	-0.317173
N60	N	1.046563	0.100994	0.182827
N61	N	0.512152	-0.445193	-0.278308
N62	N	1.012152	0.054807	0.221692
C63	C	1.028925	-0.631558	-0.297722
C64	C	1.528925	-0.131558	0.202278
C65	C	1.028957	-0.721180	-0.297735
C66	C	1.528957	-0.221180	0.202265
C67	C	1.028985	-0.793963	-0.297748
C68	C	1.528985	-0.293963	0.202252
C69	C	1.029026	-0.885273	-0.297762
C70	C	1.529026	-0.385273	0.202238
C71	C	1.029063	-0.958051	-0.297769
C72	C	1.529063	-0.458051	0.202231
C73	C	1.029104	-1.049366	-0.297782
C74	C	1.529104	-0.549366	0.202218
C75	C	1.212278	-0.430857	-0.290393
C76	C	1.712278	0.069143	0.209607
C77	C	1.290379	-0.434601	-0.287262
C78	C	1.790379	0.065399	0.212738
C79	C	1.036395	-0.413922	-0.481023
C80	C	1.536395	0.086078	0.018977
C81	C	1.039545	-0.410450	-0.559126
C82	C	1.539545	0.089550	-0.059126
C83	C	1.029099	-0.211764	-0.297775
C84	C	1.529099	0.288236	0.202225
C85	C	1.029141	-0.122144	-0.297789
C86	C	1.529141	0.377856	0.202211
C87	C	1.062142	-0.385606	-0.998573
C88	C	1.562142	0.114394	-0.498573
C89	C	1.059177	-0.388872	-0.925187
C90	C	1.559177	0.111128	-0.425187
C91	C	1.012731	-0.439910	-0.890291
C92	C	1.512731	0.060090	-0.390291
C93	C	0.969251	-0.487691	-0.928785
C94	C	1.469251	0.012309	-0.428785
C95	C	0.972219	-0.484429	-1.002170
C96	C	1.472219	0.015571	-0.502170
C97	C	0.999034	-0.454969	-0.671005
C98	C	1.499034	0.045031	-0.171005
C99	C	0.996067	-0.458226	-0.597615
C100	C	1.496067	0.041774	-0.097615
C101	C	1.085995	-0.359407	-0.594022
C102	C	1.585995	0.140593	-0.094022
C103	C	1.088956	-0.356146	-0.667409
C104	C	1.588956	0.143854	-0.167409
C105	C	1.045479	-0.403930	-0.705897
C106	C	1.545479	0.096070	-0.205897
N107	N	1.009698	-0.443248	-0.815278
N108	N	1.509698	0.056752	-0.315278
N109	N	1.048516	-0.400596	-0.780908
N110	N	1.548516	0.099404	-0.280908
C111	C	1.021678	-0.430130	-0.115171
C112	C	1.521678	0.069870	0.384829
C113	C	1.018664	-0.433382	-0.037062
C114	C	1.518664	0.066618	0.462938
H115	H	0.426979	-0.538316	-0.199931
H116	H	0.926979	-0.038316	0.300069
O117	O	0.924125	-0.537354	-0.894998
O118	O	1.424125	-0.037354	-0.394998
C119	C	0.886381	-0.578815	-0.944709
C120	C	1.386381	-0.078815	-0.444709
H121	H	0.917272	-0.580648	-0.995866
H122	H	1.417272	-0.080648	-0.495866
H123	H	0.878014	-0.642931	-0.923801
H124	H	1.378014	-0.142931	-0.423801
H125	H	0.833338	-0.546397	-0.954656
H126	H	1.333338	-0.046397	-0.454656
H127	H	0.764868	-0.312234	-0.390166
H128	H	1.264868	0.187766	0.109834
H129	H	0.293846	-0.531958	-0.205311
H130	H	0.793846	-0.031958	0.294689
O131	O	0.950874	-0.507703	-0.563698
O132	O	1.450874	-0.007703	-0.063698
C133	C	0.903795	-0.461525	-0.523067
C134	C	1.403795	0.038475	-0.023067
H135	H	0.900372	-0.396827	-0.545360
H136	H	1.400372	0.103173	-0.045360
H137	H	0.849676	-0.488140	-0.524414
H138	H	1.349676	0.011860	-0.024414
H139	H	0.923265	-0.462267	-0.466574
H140	H	1.423265	0.037733	0.033426
H141	H	0.631733	-0.305883	-0.395543
H142	H	1.131733	0.194117	0.104457
O143	O	0.956727	-0.501406	-0.708280
O144	O	1.456727	-0.001406	-0.208280
C145	C	0.915107	-0.547162	-0.661740
C146	C	1.415107	-0.047162	-0.161740
H147	H	0.910578	-0.516341	-0.609533
H148	H	1.410578	-0.016341	-0.109533
H149	H	0.860596	-0.552161	-0.685165
H150	H	1.360596	-0.052161	-0.185165
H151	H	0.940489	-0.609982	-0.652889
H152	H	1.440489	-0.109982	-0.152889
O153	O	1.128129	-0.312956	-0.556562
O154	O	1.628129	0.187044	-0.056562
C155	C	1.086436	-0.260829	-0.515743
C156	C	1.586436	0.239171	-0.015743
H157	H	1.032727	-0.287196	-0.506883
H158	H	1.532727	0.212804	-0.006883
H159	H	1.112978	-0.253690	-0.462991
H160	H	1.612978	0.246310	0.037009
H161	H	1.079891	-0.199450	-0.544347
H162	H	1.579891	0.300550	-0.044347
O163	O	0.295028	-0.329129	-0.375871
O164	O	0.795028	0.170871	0.124129
C165	C	0.250964	-0.276736	-0.337661
C166	C	0.750964	0.223264	0.162339
H167	H	0.270835	-0.275168	-0.281434
H168	H	0.770835	0.224832	0.218566
H169	H	0.251187	-0.213559	-0.363207
H170	H	0.751187	0.286441	0.136793
H171	H	0.195241	-0.299112	-0.337445
H172	H	0.695241	0.200888	0.162555
O173	O	0.439617	-0.336033	-0.370150
O174	O	0.939617	0.163967	0.129850
C175	C	0.393121	-0.286540	-0.411832
C176	C	0.893121	0.213460	0.088168
H177	H	0.339644	-0.282486	-0.385166
H178	H	0.839644	0.217514	0.114834
H179	H	0.414647	-0.223699	-0.418563
H180	H	0.914647	0.276301	0.081437
H181	H	0.387475	-0.313412	-0.465473
H182	H	0.887475	0.186588	0.034527
H183	H	0.936816	-0.523334	-1.033506
H184	H	1.436816	-0.023334	-0.533506
O185	O	1.101336	-0.342327	-0.887845
O186	O	1.601336	0.157673	-0.387845
C187	C	1.086740	-0.260440	-0.906437
C188	C	1.586740	0.239560	-0.406437
H189	H	1.031419	-0.252798	-0.928858
H190	H	1.531419	0.247202	-0.428858
H191	H	1.090863	-0.223026	-0.857949
H192	H	1.590863	0.276974	-0.357949
H193	H	1.126134	-0.239282	-0.947535
H194	H	1.626134	0.260718	-0.447535
H195	H	1.126781	-0.314588	-0.695816
H196	H	1.626781	0.185412	-0.195816
H197	H	1.099959	-0.344039	-1.026981
H198	H	1.599959	0.155961	-0.526981
H199	H	0.625049	-0.499948	-0.232192
H200	H	1.125049	0.000052	0.267808
O201	O	0.763625	-0.515092	-0.219582
O202	O	1.263625	-0.015092	0.280418
C203	C	0.746273	-0.593944	-0.235534
C204	C	1.246273	-0.093944	0.264466
H205	H	0.728380	-0.594654	-0.292478
H206	H	1.228380	-0.094654	0.207522
H207	H	0.794271	-0.636346	-0.227473
H208	H	1.294271	-0.136346	0.272527
H209	H	0.702138	-0.614596	-0.199550
H210	H	1.202138	-0.114596	0.300450
