data_functionalizedCrystal
_audit_creation_method	'MofGen! by Chris Wilmer'
_symmetry_space_group_name_H-M	'P1'
_symmetry_Int_Tables_number	1
_symmetry_cell_setting	triclinic
loop_
_symmetry_equiv_pos_as_xyz
  x,y,z
_cell_length_a	19.077105
_cell_length_b	15.297327
_cell_length_c	19.077174
_cell_angle_alpha	102.301226
_cell_angle_beta	85.483752
_cell_angle_gamma	97.818066
loop_
_atom_site_label
_atom_site_type_symbol
_atom_site_fract_x
_atom_site_fract_y
_atom_site_fract_z
Zn1	Zn	1.036793	-0.438342	-0.498707
Zn2	Zn	1.013211	-0.582892	-0.399571
Zn3	Zn	0.915816	-0.425731	-0.374469
Zn4	Zn	0.900112	-0.582833	-0.512681
O5	O	0.966483	-0.507450	-0.446357
O6	O	1.131627	-0.462820	-0.490214
O7	O	0.996994	-0.556791	-0.296910
O8	O	0.948305	-0.301162	-0.374596
O9	O	1.114301	-0.569019	-0.417379
O10	O	1.037187	-0.310428	-0.465873
O11	O	0.925438	-0.441326	-0.278468
O12	O	0.815771	-0.441269	-0.388146
O13	O	0.921541	-0.568919	-0.610159
O14	O	0.804234	-0.556690	-0.489690
O15	O	1.021960	-0.462762	-0.599892
O16	O	0.981766	-0.709126	-0.430929
O17	O	0.898673	-0.709082	-0.514031
C18	C	0.784602	-0.497605	-0.437711
C19	C	0.706790	-0.493417	-0.434032
C20	C	0.664232	-0.551626	-0.485112
C21	C	0.591121	-0.547678	-0.481656
C22	C	0.560569	-0.485525	-0.427118
C23	C	0.603133	-0.427310	-0.376035
C24	C	0.676243	-0.431254	-0.379494
C25	C	0.342558	-0.467273	-0.411113
C26	C	0.269442	-0.463335	-0.407657
C27	C	0.257435	-0.583703	-0.513280
C28	C	0.330546	-0.587645	-0.516731
C29	C	0.373105	-0.529427	-0.465651
N30	N	0.485838	-0.481491	-0.423583
N31	N	0.447835	-0.533457	-0.469189
C32	C	0.935976	-0.741839	-0.476737
C33	C	0.922990	-0.842116	-0.489760
C34	C	1.059593	-1.124762	-0.353534
C35	C	1.071793	-1.030546	-0.341295
C36	C	1.034594	-0.983434	-0.378410
C37	C	0.985191	-1.030547	-0.427767
C38	C	0.972985	-1.124772	-0.440003
C39	C	0.947987	-0.983444	-0.464879
C40	C	0.898584	-1.030557	-0.514236
C41	C	0.886381	-1.124773	-0.526471
C42	C	0.923580	-1.171885	-0.489356
C43	C	0.960192	-0.889219	-0.452643
C44	C	0.873585	-0.889229	-0.539112
C45	C	0.861385	-0.983445	-0.551352
C46	C	1.149074	-0.517333	-0.455038
C47	C	1.226884	-0.521545	-0.458737
C48	C	0.972629	-0.517241	-0.631501
C49	C	0.975248	-0.521413	-0.710399
C50	C	0.997128	-0.272147	-0.415876
C51	C	1.010187	-0.171875	-0.402886
C52	C	0.939225	-0.463258	-0.737862
C53	C	0.941683	-0.467186	-0.811996
C54	C	0.980167	-0.529265	-0.858663
C55	C	1.016191	-0.587426	-0.831195
C56	C	1.013729	-0.583502	-0.757064
C57	C	0.991521	-0.547451	-1.081404
C58	C	0.993982	-0.551369	-1.155540
C59	C	0.919472	-0.431130	-1.136335
C60	C	0.917017	-0.427207	-1.062203
C61	C	0.953038	-0.485372	-1.034741
N62	N	0.982682	-0.533279	-0.934440
N63	N	0.950519	-0.481361	-0.958967
C64	C	0.960409	-0.497633	-0.261927
C65	C	0.957959	-0.493214	-0.183004
H66	H	0.710895	-0.383849	-0.337902
H67	H	0.912346	-0.419833	-0.834353
H68	H	0.885676	-0.376658	-1.024210
O69	O	1.095760	-1.170384	-0.317400
C70	C	1.141998	-1.108603	-0.271229
H71	H	1.121945	-1.039788	-0.258667
H72	H	1.197317	-1.102769	-0.298480
C73	C	1.169497	-1.226478	-0.216381
C74	C	1.144864	-1.141959	-0.200947
H75	H	1.171267	-1.247054	-0.173029
H76	H	1.138347	-1.268102	-0.247489
H77	H	1.215594	-1.221604	-0.239092
H78	H	1.098764	-1.146836	-0.178245
H79	H	1.176005	-1.100337	-0.169834
H80	H	0.244571	-0.412713	-0.363248
O81	O	0.383942	-0.410641	-0.361584
C82	C	0.435166	-0.356889	-0.396532
H83	H	0.415712	-0.353193	-0.450694
H84	H	0.487026	-0.387903	-0.405180
C85	C	0.471242	-0.265811	-0.283337
C86	C	0.447345	-0.261265	-0.349857
H87	H	0.478758	-0.206826	-0.254545
H88	H	0.436733	-0.302026	-0.259792
H89	H	0.514456	-0.291659	-0.290553
H90	H	0.404128	-0.235428	-0.342641
H91	H	0.481847	-0.225043	-0.373401
H92	H	0.578253	-0.376700	-0.331631
O93	O	0.813479	-1.029322	-0.599344
C94	C	0.847778	-1.088319	-0.654192
H95	H	0.898199	-1.103929	-0.633547
H96	H	0.861881	-1.055172	-0.702446
C97	C	0.736157	-1.157281	-0.702162
C98	C	0.798082	-1.176459	-0.676805
H99	H	0.705501	-1.211649	-0.716114
H100	H	0.713048	-1.117531	-0.665212
H101	H	0.747918	-1.129657	-0.742371
H102	H	0.786320	-1.204072	-0.636591
H103	H	0.821187	-1.216216	-0.713748
O104	O	0.837365	-0.843612	-0.575210
C105	C	0.791153	-0.905398	-0.621405
H106	H	0.779082	-0.970911	-0.600939
H107	H	0.817246	-0.919602	-0.677846
C108	C	0.736558	-0.784744	-0.648405
C109	C	0.721727	-0.865205	-0.623265
H110	H	0.693735	-0.759950	-0.649556
H111	H	0.767694	-0.743117	-0.617285
H112	H	0.758304	-0.796592	-0.695438
H113	H	0.699990	-0.853354	-0.576231
H114	H	0.690587	-0.906829	-0.654378
H115	H	1.043069	-0.630852	-0.734704
O116	O	1.008130	-0.843552	-0.404616
C117	C	0.987537	-0.862044	-0.336127
H118	H	0.951710	-0.928948	-0.342245
H119	H	0.957633	-0.805855	-0.303600
C120	C	1.097834	-0.785597	-0.289474
C121	C	1.053837	-0.867774	-0.296989
H122	H	1.138731	-0.789128	-0.265330
H123	H	1.111708	-0.773135	-0.335616
H124	H	1.072907	-0.738782	-0.262370
H125	H	1.078762	-0.914586	-0.324100
H126	H	1.039969	-0.880244	-0.250851
H127	H	0.556472	-0.595079	-0.523251
O128	O	0.360113	-0.648047	-0.569776
C129	C	0.306868	-0.698596	-0.614110
H130	H	0.259645	-0.658971	-0.609366
H131	H	0.289311	-0.765259	-0.596531
C132	C	0.394216	-0.765955	-0.698522
C133	C	0.336218	-0.717284	-0.692699
H134	H	0.412320	-0.777488	-0.746999
H135	H	0.430088	-0.731903	-0.668652
H136	H	0.379577	-0.821503	-0.683868
H137	H	0.350859	-0.661734	-0.707344
H138	H	0.300349	-0.751328	-0.722573
H139	H	0.913651	-1.248603	-0.499320
O140	O	1.053584	-0.647810	-0.876429
C141	C	1.084865	-0.698283	-0.836288
H142	H	1.054028	-0.697060	-0.782487
H143	H	1.142072	-0.667706	-0.826649
C144	C	1.121288	-0.797875	-0.944214
C145	C	1.083410	-0.796379	-0.878138
H146	H	1.120394	-0.858385	-0.970030
H147	H	1.100216	-0.763869	-0.971259
H148	H	1.168957	-0.772390	-0.936172
H149	H	1.035740	-0.821854	-0.886181
H150	H	1.104474	-0.830392	-0.851096
O151	O	0.838476	-1.170643	-0.574466
C152	C	0.872773	-1.229640	-0.629315
H153	H	0.923191	-1.245259	-0.608670
H154	H	0.886881	-1.196489	-0.677566
C155	C	0.761151	-1.298586	-0.677293
C156	C	0.823072	-1.317775	-0.651934
H157	H	0.730492	-1.352950	-0.691249
H158	H	0.738044	-1.258837	-0.640342
H159	H	0.772917	-1.270958	-0.717499
H160	H	0.811306	-1.345392	-0.611724
H161	H	0.846176	-1.357531	-0.688879
O162	O	1.026587	-0.603977	-1.054849
C163	C	1.061072	-0.659617	-1.111939
H164	H	1.070054	-0.625592	-1.160111
H165	H	1.026782	-0.727167	-1.127478
C166	C	1.121897	-0.716898	-1.029072
C167	C	1.132934	-0.675104	-1.088236
H168	H	1.166223	-0.726455	-1.014450
H169	H	1.098661	-0.679415	-0.990609
H170	H	1.093319	-0.773185	-1.042029
H171	H	1.161504	-0.618814	-1.075275
H172	H	1.156176	-0.712578	-1.126696
O173	O	0.215997	-0.640155	-0.562861
C174	C	0.144914	-0.623366	-0.548106
H175	H	0.143218	-0.551937	-0.515444
H176	H	0.115947	-0.673683	-0.516184
C177	C	0.110768	-0.721277	-0.659348
C178	C	0.108685	-0.633544	-0.619237
H179	H	0.088418	-0.727559	-0.703224
H180	H	0.158657	-0.732591	-0.669287
H181	H	0.086630	-0.763197	-0.632738
H182	H	0.132830	-0.591626	-0.645843
H183	H	0.060799	-0.622222	-0.609304
H184	H	1.044530	-0.906719	-0.368441
O185	O	0.884372	-0.374673	-1.162935
C186	C	0.811431	-0.389674	-1.144072
H187	H	0.803679	-0.421427	-1.094671
H188	H	0.783197	-0.436987	-1.190680
C189	C	0.789885	-0.260253	-1.187914
C190	C	0.780364	-0.299246	-1.127235
H191	H	0.770720	-0.204474	-1.177531
H192	H	0.839026	-0.250148	-1.200625
H193	H	0.766357	-0.299689	-1.226749
H194	H	0.803899	-0.259814	-1.088404
H195	H	0.731226	-0.309341	-1.114516
O196	O	1.119683	-0.984737	-0.293269
C197	C	1.085394	-0.925708	-0.238437
H198	H	1.026429	-0.950948	-0.235085
H199	H	1.092947	-0.855321	-0.250989
C200	C	1.189812	-0.891217	-0.170231
C201	C	1.117390	-0.922221	-0.166110
H202	H	1.209550	-0.889061	-0.125616
H203	H	1.212914	-0.930982	-0.207173
H204	H	1.196096	-0.832563	-0.180694
H205	H	1.111108	-0.980877	-0.155656
H206	H	1.094288	-0.882464	-0.129164
H207	H	0.689101	-0.602240	-0.529521
H208	H	0.907891	-0.412702	-0.699869
H209	H	1.025324	-0.601923	-1.193536
