data_functionalizedCrystal
_audit_creation_method	'MofGen! by Chris Wilmer'
_symmetry_space_group_name_H-M	'P1'
_symmetry_Int_Tables_number	1
_symmetry_cell_setting	triclinic
loop_
_symmetry_equiv_pos_as_xyz
  x,y,z
_cell_length_a	10.540539
_cell_length_b	10.489689
_cell_length_c	9.016244
_cell_angle_alpha	89.998747
_cell_angle_beta	90.005301
_cell_angle_gamma	84.521657
loop_
_atom_site_label
_atom_site_type_symbol
_atom_site_fract_x
_atom_site_fract_y
_atom_site_fract_z
O1	O	-1.685881	-0.179764	-0.123258
O2	O	-1.316467	-0.196701	-0.123275
O3	O	-1.509614	-0.002629	-0.123269
O4	O	-1.492734	-0.373836	-0.123264
O5	O	-1.509586	-0.002634	0.123412
O6	O	-1.316438	-0.196706	0.123406
O7	O	-1.685853	-0.179768	0.123423
Cu8	Cu	-1.501143	-0.188237	0.145938
Cu9	Cu	-1.501177	-0.188232	-0.145790
O10	O	-1.492705	-0.373840	0.123417
C11	C	-1.508339	0.044901	0.000067
C12	C	-1.504567	0.186533	0.000055
C13	C	-1.269150	-0.195433	0.000063
C14	C	-1.128202	-0.191633	0.000056
C15	C	-1.733170	-0.181036	0.000082
C16	C	-1.874118	-0.184836	0.000079
C17	C	-1.620725	0.368936	0.000076
C18	C	-1.562688	0.276782	0.121698
C19	C	-1.562685	0.276810	-0.121509
C20	C	-1.439745	0.346719	0.121807
C21	C	-1.439759	0.346756	-0.121510
C22	C	-1.381633	0.254630	0.000142
C23	C	-0.944785	-0.046012	0.000630
C24	C	-1.091403	-0.049865	0.000058
C25	C	-1.066541	-0.259855	-0.140804
C26	C	-0.919997	-0.255017	-0.140907
C27	C	-0.919476	-0.257906	0.139615
C28	C	-1.066458	-0.259212	0.141462
N29	N	-1.501129	-0.188240	0.351124
C30	C	-1.494000	0.578632	0.000079
C31	C	-1.497833	0.437007	0.000085
N32	N	-1.501201	-0.188219	-0.350977
C33	C	-1.397490	-0.291707	0.586154
C34	C	-1.397720	-0.292095	0.414263
C35	C	-1.633850	-0.218520	0.413470
C36	C	-1.633284	-0.219253	0.585414
C37	C	-1.473364	-0.054154	0.585664
C38	C	-1.470318	-0.055023	0.413710
H39	H	-1.721742	0.418638	0.000201
H40	H	-1.657631	-0.317063	0.625506
N41	N	-1.354481	-0.018025	0.640071
N42	N	-1.267336	0.001493	0.551291
H43	H	-1.183368	0.026999	0.589710
H44	H	-1.298566	-0.273768	0.627542
N45	N	-1.568194	0.042501	0.636669
N46	N	-1.563308	0.156509	0.598597
H47	H	-1.630283	0.224765	0.634626
N48	N	-1.119963	-0.200444	-0.272352
N49	N	-1.176819	-0.264483	-0.363490
H50	H	-1.214546	-0.222528	-0.456401
N51	N	-1.627879	0.237917	0.250715
N52	N	-1.587107	0.261686	0.376939
H53	H	-1.633153	0.234249	0.468057
H54	H	-1.387815	0.377772	-0.224343
N55	N	-1.117798	-0.196644	0.272179
N56	N	-1.105015	-0.080781	0.293186
H57	H	-1.141282	-0.036579	0.385498
H58	H	-1.133163	0.004197	-0.101093
H59	H	-1.090676	-0.362570	0.149968
N60	N	-1.274009	-0.269276	0.361350
N61	N	-1.253011	-0.265671	0.225043
H62	H	-1.165634	-0.249562	0.187676
H63	H	-0.887920	-0.212028	0.246386
N64	N	-1.374548	0.385367	0.250933
N65	N	-1.361118	0.501114	0.271809
H66	H	-1.315076	0.528414	0.363003
N67	N	-1.254793	0.192568	0.000228
N68	N	-1.180797	0.210990	0.104750
H69	H	-1.091216	0.167158	0.104819
N70	N	-0.908988	0.024194	0.127432
N71	N	-0.830966	-0.027257	0.218873
H72	H	-0.805707	0.022312	0.308459
N73	N	-1.627974	0.237975	-0.250481
N74	N	-1.741689	0.279162	-0.272107
H75	H	-1.787811	0.251735	-0.363184
N76	N	-0.906888	0.023950	-0.125383
N77	N	-0.828061	-0.027986	-0.215595
H78	H	-0.801292	0.021421	-0.304595
H79	H	-0.891802	-0.204591	-0.246203
N80	N	-0.860200	-0.386353	0.140812
N81	N	-0.741456	-0.406509	0.145397
H82	H	-0.699584	-0.497220	0.146232
H83	H	-1.712931	-0.146914	0.626999
N84	N	-0.859822	-0.382923	-0.148924
N85	N	-0.926095	-0.475475	-0.154436
H86	H	-0.883603	-0.565808	-0.160104
H87	H	-1.088887	-0.363966	-0.146044
H88	H	-1.134009	0.003815	0.101033
H89	H	-1.415151	-0.390609	0.629349
N90	N	-1.420096	-0.416895	0.362658
N91	N	-1.435604	-0.503977	0.453633
H92	H	-1.451388	-0.592130	0.417190
H93	H	-1.712909	-0.145202	0.372568
H94	H	-1.658741	-0.315225	0.370394
N95	N	-1.347830	-0.026243	0.362594
N96	N	-1.283398	-0.103490	0.280372
H97	H	-1.196889	-0.083169	0.244261
N98	N	-1.558798	0.046222	0.359781
N99	N	-1.646401	0.021733	0.273966
H100	H	-1.708900	0.093235	0.235877
