data_functionalizedCrystal
_audit_creation_method	'MofGen! by Chris Wilmer'
_symmetry_space_group_name_H-M	'P1'
_symmetry_Int_Tables_number	1
_symmetry_cell_setting	triclinic
loop_
_symmetry_equiv_pos_as_xyz
  x,y,z
_cell_length_a	12.759395
_cell_length_b	21.295417
_cell_length_c	12.759387
_cell_angle_alpha	90.038536
_cell_angle_beta	90.020509
_cell_angle_gamma	90.032044
loop_
_atom_site_label
_atom_site_type_symbol
_atom_site_fract_x
_atom_site_fract_y
_atom_site_fract_z
Zn1	Zn	1.606153	-0.250550	0.593949
Zn2	Zn	1.605995	-0.355833	0.418245
Zn3	Zn	1.430451	-0.250585	0.418285
Zn4	Zn	1.430395	-0.355788	0.593884
O5	O	1.518249	-0.303189	0.506091
O6	O	1.753153	-0.264521	0.570651
O7	O	1.582667	-0.341905	0.271229
O8	O	1.453848	-0.162491	0.441631
O9	O	1.753037	-0.341871	0.441563
O10	O	1.582936	-0.162465	0.570690
O11	O	1.453695	-0.264579	0.271259
O12	O	1.283423	-0.264536	0.441569
O13	O	1.453753	-0.341795	0.740914
O14	O	1.283382	-0.341828	0.570581
O15	O	1.582881	-0.264477	0.740961
O16	O	1.582612	-0.443917	0.441501
O17	O	1.453600	-0.443884	0.570542
C18	C	1.245281	-0.303181	0.506073
C19	C	1.128505	-0.303193	0.506090
C20	C	1.128500	-0.383808	0.640213
C21	C	1.073637	-0.424121	0.707277
C22	C	0.963916	-0.424129	0.707290
C23	C	0.909055	-0.383818	0.640233
C24	C	0.963918	-0.343506	0.573169
C25	C	1.073642	-0.343504	0.573161
C26	C	0.963922	-0.262888	0.439053
C27	C	1.073644	-0.262883	0.439034
C28	C	0.909061	-0.222578	0.371997
C29	C	0.963924	-0.182267	0.304926
C30	C	1.073652	-0.182262	0.304915
C31	C	1.128507	-0.222570	0.371969
C32	C	1.518111	-0.466741	0.506033
C33	C	1.518148	-0.536709	0.506043
C34	C	1.585385	-0.569572	0.438920
C35	C	1.585434	-0.635314	0.438944
C36	C	1.518228	-0.668191	0.506079
C37	C	1.450987	-0.635320	0.573215
C38	C	1.450947	-0.569579	0.573197
N39	N	1.426321	-0.771458	0.514083
N40	N	1.426362	-0.833909	0.514094
C41	C	1.518346	-0.866266	0.506139
N42	N	1.610289	-0.833812	0.498153
N43	N	1.610247	-0.771355	0.498137
C44	C	1.518264	-0.739477	0.506107
C45	C	1.585641	-0.970414	0.439039
C46	C	1.585692	-1.036158	0.439070
C47	C	1.451236	-1.036163	0.573336
C48	C	1.451194	-0.970421	0.573310
C49	C	1.518395	-0.937550	0.506156
C50	C	1.792282	-0.303197	0.506110
C51	C	1.909059	-0.303201	0.506118
C52	C	1.518328	-0.303127	0.780125
C53	C	1.518362	-0.303101	0.896901
C54	C	1.518416	-0.138999	0.506172
C55	C	1.518487	-0.069031	0.506207
C56	C	1.518230	-0.303205	0.233123
C57	C	1.518400	-0.303054	0.116347
C58	C	1.652833	-0.222595	0.896970
C59	C	1.720083	-0.182333	0.951865
C60	C	1.720108	-0.182310	1.061587
C61	C	1.652874	-0.222552	1.116416
C62	C	1.585624	-0.262815	1.061521
C63	C	1.585608	-0.262835	0.951797
C64	C	1.451150	-0.343316	1.061452
C65	C	1.451128	-0.343344	0.951730
C66	C	1.383916	-0.383559	1.116281
C67	C	1.316670	-0.423825	1.061386
C68	C	1.316648	-0.423847	0.951657
C69	C	1.383878	-0.383606	0.896835
H70	H	1.217848	-0.222571	0.371964
H71	H	1.640364	-0.943650	0.384361
H72	H	0.819720	-0.222584	0.372017
C73	C	0.903578	-0.137930	0.231171
C74	C	0.782888	-0.137933	0.231191
C75	C	0.722537	-0.093595	0.157434
C76	C	0.782876	-0.049254	0.083657
C77	C	0.903573	-0.049250	0.083635
C78	C	0.963924	-0.093587	0.157392
H79	H	0.738215	-0.170758	0.285808
H80	H	0.633189	-0.093599	0.157451
H81	H	0.738201	-0.016433	0.029058
H82	H	0.948246	-0.016424	0.029018
H83	H	1.053272	-0.093583	0.157375
C84	C	1.377304	-1.072320	0.647184
C85	C	1.377342	-1.144632	0.647208
C86	C	1.303409	-1.180792	0.721060
C87	C	1.229440	-1.144640	0.794890
C88	C	1.229399	-1.072323	0.794870
C89	C	1.303332	-1.036163	0.721017
H90	H	1.432101	-1.171399	0.592552
H91	H	1.303440	-1.234326	0.721075
H92	H	1.174711	-1.171407	0.849561
H93	H	1.174640	-1.045557	0.849526
H94	H	1.303301	-0.982629	0.721002
H95	H	1.217841	-0.383811	0.640201
C96	C	1.133985	-0.468461	0.781037
C97	C	1.254675	-0.468458	0.781029
C98	C	1.315018	-0.512796	0.854792
C99	C	1.254671	-0.557137	0.928563
C100	C	1.133974	-0.557141	0.928574
C101	C	1.073631	-0.512803	0.854811
H102	H	1.299354	-0.435633	0.726417
H103	H	1.404366	-0.512793	0.854784
H104	H	1.299340	-0.589958	0.983167
H105	H	1.089295	-0.589966	0.983186
H106	H	0.984283	-0.512806	0.854819
H107	H	1.640451	-1.062914	0.384412
C108	C	1.377057	-0.671482	0.647065
C109	C	1.385567	-0.662381	0.766506
C110	C	1.311638	-0.698541	0.840363
C111	C	1.229200	-0.743801	0.794778
C112	C	1.220687	-0.752904	0.675330
C113	C	1.294615	-0.716744	0.601473
H114	H	1.446595	-0.628874	0.800256
H115	H	1.317940	-0.691802	0.928786
H116	H	1.174473	-0.770569	0.849451
H117	H	1.159658	-0.786411	0.641580
H118	H	1.288313	-0.723483	0.513050
C119	C	1.377223	-0.934269	0.647141
C120	C	1.257797	-0.943378	0.638466
C121	C	1.183826	-0.907227	0.712306
C122	C	1.229281	-0.861967	0.794821
C123	C	1.348713	-0.852856	0.803499
C124	C	1.422684	-0.889007	0.729660
H125	H	1.224143	-0.976884	0.577381
H126	H	1.095413	-0.913972	0.705881
H127	H	1.174523	-0.835206	0.849481
H128	H	1.382367	-0.819350	0.864585
H129	H	1.511096	-0.882262	0.736085
H130	H	1.118315	-0.149430	0.250310
C131	C	1.794043	-0.138070	0.891553
C132	C	1.794029	-0.138094	0.770863
C133	C	1.867988	-0.093832	0.710556
C134	C	1.941961	-0.049546	0.770938
C135	C	1.941978	-0.049520	0.891635
C136	C	1.868019	-0.093782	0.951943
H137	H	1.739266	-0.170879	0.726158
H138	H	1.867975	-0.093851	0.621208
H139	H	1.996710	-0.016780	0.726295
H140	H	1.996740	-0.016735	0.936340
H141	H	1.868032	-0.093763	1.041291
H142	H	1.640107	-0.542810	0.384242
C143	C	1.659388	-0.671474	0.365094
C144	C	1.733301	-0.635318	0.291225
C145	C	1.807250	-0.671475	0.217371
C146	C	1.807286	-0.743788	0.217387
C147	C	1.733370	-0.779948	0.291259
C148	C	1.659421	-0.743790	0.365112
H149	H	1.733277	-0.581784	0.291211
H150	H	1.861968	-0.644707	0.162687
H151	H	1.862028	-0.770554	0.162716
H152	H	1.733394	-0.833482	0.291273
H153	H	1.604703	-0.770559	0.419797
C154	C	1.242719	-0.468087	1.121696
C155	C	1.242738	-0.468059	1.242386
C156	C	1.168787	-0.512322	1.302702
C157	C	1.094817	-0.556614	1.242327
C158	C	1.094795	-0.556644	1.121630
C159	C	1.168746	-0.512381	1.061315
H160	H	1.297498	-0.435269	1.287086
H161	H	1.168803	-0.512299	1.392050
H162	H	1.040073	-0.589380	1.286976
H163	H	1.040035	-0.589433	1.076931
H164	H	1.168729	-0.512404	0.971967
H165	H	1.261873	-0.456627	0.906968
C166	C	0.903559	-0.468472	0.781058
C167	C	0.918577	-0.540026	0.772251
C168	C	0.858219	-0.584369	0.846019
C169	C	0.782843	-0.557157	0.928594
C170	C	0.767822	-0.485598	0.937405
C171	C	0.828180	-0.441256	0.863637
H172	H	0.974377	-0.560174	0.711121
H173	H	0.869339	-0.637341	0.839496
H174	H	0.738163	-0.589982	0.983201
H175	H	0.712021	-0.465451	0.998535
H176	H	0.817059	-0.388283	0.870160
H177	H	1.383871	-0.383622	0.807494
H178	H	0.819713	-0.383822	0.640259
H179	H	1.396194	-0.542822	0.627858
H180	H	1.774863	-0.149521	1.106283
H181	H	1.652829	-0.222616	0.807629
H182	H	1.652892	-0.222525	1.205757
H183	H	1.383938	-0.383535	1.205622
