data_functionalizedCrystal
_audit_creation_method	'MofGen! by Chris Wilmer'
_symmetry_space_group_name_H-M	'P1'
_symmetry_Int_Tables_number	1
_symmetry_cell_setting	triclinic
loop_
_symmetry_equiv_pos_as_xyz
  x,y,z
_cell_length_a	23.532407
_cell_length_b	23.532357
_cell_length_c	22.010155
_cell_angle_alpha	90.001303
_cell_angle_beta	90.003069
_cell_angle_gamma	82.838485
loop_
_atom_site_label
_atom_site_type_symbol
_atom_site_fract_x
_atom_site_fract_y
_atom_site_fract_z
O1	O	0.755251	0.069129	0.050457
O2	O	1.255251	0.569129	0.550457
O3	O	0.589386	0.079132	0.050475
O4	O	1.089386	0.579132	0.550475
O5	O	0.677335	-0.008803	0.050453
O6	O	1.177335	0.491197	0.550453
O7	O	0.667302	0.157064	0.050479
O8	O	1.167302	0.657064	0.550479
O9	O	0.677319	-0.008790	-0.050597
O10	O	1.177319	0.491210	0.449403
O11	O	0.589370	0.079145	-0.050575
O12	O	1.089370	0.579145	0.449425
O13	O	0.755235	0.069142	-0.050594
O14	O	1.255235	0.569142	0.449406
Cu15	Cu	0.672301	0.074145	-0.059811
Cu16	Cu	1.172301	0.574145	0.440189
Cu17	Cu	0.672320	0.074129	0.059693
Cu18	Cu	1.172320	0.574129	0.559693
O19	O	0.667286	0.157077	-0.050571
O20	O	1.167286	0.657077	0.449429
C21	C	0.568162	0.078884	-0.000048
C22	C	1.068162	0.578884	0.499952
C23	C	0.504945	0.078118	-0.000041
C24	C	1.004945	0.578118	0.499959
C25	C	0.677076	-0.030013	-0.000074
C26	C	1.177076	0.469987	0.499926
C27	C	0.676322	-0.093232	-0.000080
C28	C	1.176322	0.406768	0.499920
C29	C	0.105834	0.125353	-0.000061
C30	C	0.605834	0.625353	0.499939
C31	C	0.046434	0.124641	-0.000065
C32	C	0.546434	0.624641	0.499935
O33	O	0.009681	0.168428	-0.000080
O34	O	0.509681	0.668428	0.499920
N35	N	0.023817	0.072364	-0.000072
N36	N	0.523817	0.572364	0.499928
C37	C	0.060604	0.020794	-0.000082
C38	C	0.560604	0.520794	0.499918
O39	O	0.035912	-0.023737	-0.000089
O40	O	0.535912	0.476263	0.499911
C41	C	0.120003	0.021506	-0.000082
C42	C	0.620003	0.521506	0.499918
C43	C	0.142616	0.073787	-0.000069
C44	C	0.642616	0.573787	0.499931
C45	C	0.128448	0.177629	-0.000048
C46	C	0.628448	0.677629	0.499952
C47	C	0.187844	0.178341	-0.000043
C48	C	0.687844	0.678341	0.499957
C49	C	0.224626	0.126775	-0.000051
C50	C	0.724626	0.626775	0.499949
C51	C	0.202012	0.074498	-0.000064
C52	C	0.702012	0.574498	0.499936
C53	C	0.156788	-0.030063	-0.000096
C54	C	0.656788	0.469937	0.499904
C55	C	0.216191	-0.029346	-0.000097
C56	C	0.716191	0.470654	0.499903
C57	C	0.238804	0.022935	-0.000084
C58	C	0.738804	0.522935	0.499916
C59	C	0.298190	0.023644	-0.000067
C60	C	0.798190	0.523644	0.499933
N61	N	0.320807	0.075922	-0.000059
N62	N	0.820807	0.575922	0.499941
C63	C	0.284025	0.127487	-0.000052
C64	C	0.784025	0.627487	0.499948
C65	C	-0.064139	0.019303	-0.000082
C66	C	0.435861	0.519303	0.499918
C67	C	-0.123536	0.018590	-0.000077
C68	C	0.376464	0.518590	0.499923
C69	C	-0.137702	0.122437	-0.000061
C70	C	0.362298	0.622437	0.499939
C71	C	-0.078303	0.123149	-0.000062
C72	C	0.421697	0.623149	0.499938
C73	C	-0.041522	0.071580	-0.000074
C74	C	0.458478	0.571580	0.499926
C75	C	0.408761	0.128977	-0.000041
C76	C	0.908761	0.628977	0.499959
C77	C	0.468163	0.129684	-0.000033
C78	C	0.968163	0.629684	0.499967
C79	C	0.482324	0.025837	-0.000052
C80	C	0.982324	0.525837	0.499948
C81	C	0.422927	0.025130	-0.000056
C82	C	0.922927	0.525130	0.499944
C83	C	0.386147	0.076704	-0.000053
C84	C	0.886147	0.576704	0.499947
O85	O	0.334977	-0.020120	-0.000054
O86	O	0.834977	0.479880	0.499946
O87	O	0.308725	0.172011	-0.000052
O88	O	0.808725	0.672011	0.499948
C89	C	0.671594	-0.485250	0.055036
C90	C	1.171594	0.014750	0.555036
C91	C	0.670877	-0.544650	0.055040
C92	C	1.170877	-0.044650	0.555040
O93	O	0.670494	-0.575372	0.101885
O94	O	1.170494	-0.075372	0.601885
N95	N	0.670512	-0.574354	-0.000042
N96	N	1.170512	-0.074354	0.499958
C97	C	0.670859	-0.544655	-0.055131
C98	C	1.170859	-0.044655	0.444869
O99	O	0.670483	-0.575374	-0.101982
O100	O	1.170483	-0.075374	0.398018
C101	C	0.671572	-0.485256	-0.055134
C102	C	1.171572	0.014744	0.444866
C103	C	0.671943	-0.455556	-0.000048
C104	C	1.171943	0.044444	0.499952
C105	C	0.671963	-0.455550	0.110117
C106	C	1.171963	0.044450	0.610117
C107	C	0.672682	-0.396155	0.110113
C108	C	1.172682	0.103845	0.610113
C109	C	0.673030	-0.366460	0.055029
C110	C	1.173030	0.133540	0.555029
C111	C	0.672661	-0.396160	-0.000052
C112	C	1.172661	0.103840	0.499948
C113	C	0.671915	-0.455557	-0.110222
C114	C	1.171915	0.044443	0.389778
C115	C	0.672628	-0.396154	-0.110220
C116	C	1.172628	0.103846	0.389780
C117	C	0.672998	-0.366454	-0.055135
C118	C	1.172998	0.133546	0.444865
C119	C	0.673728	-0.307070	-0.055141
C120	C	1.173728	0.192930	0.444859
N121	N	0.674092	-0.277366	-0.000059
N122	N	1.174092	0.222634	0.499941
C123	C	0.673743	-0.307061	0.055026
C124	C	1.173743	0.192939	0.555026
C125	C	0.669361	-0.669396	-0.055121
C126	C	1.169361	-0.169396	0.444879
C127	C	0.668652	-0.728795	-0.055118
C128	C	1.168652	-0.228795	0.444882
C129	C	0.668668	-0.728786	0.055053
C130	C	1.168668	-0.228786	0.555053
C131	C	0.669381	-0.669387	0.055050
C132	C	1.169381	-0.169387	0.555050
C133	C	0.669725	-0.639692	-0.000039
C134	C	1.169725	-0.139692	0.499961
C135	C	0.675252	-0.182327	0.055014
C136	C	1.175252	0.317673	0.555014
C137	C	0.675973	-0.122927	0.055005
C138	C	1.175973	0.377073	0.555005
C139	C	0.675954	-0.122941	-0.055166
C140	C	1.175954	0.377059	0.444834
C141	C	0.675236	-0.182336	-0.055157
C142	C	1.175236	0.317664	0.444843
C143	C	0.674883	-0.212027	-0.000063
C144	C	1.174883	0.287973	0.499937
O145	O	0.674109	-0.276310	-0.101962
O146	O	1.174109	0.223690	0.398038
O147	O	0.674112	-0.276333	0.101869
O148	O	1.174112	0.223667	0.601869
C149	C	0.776459	0.069390	-0.000070
C150	C	1.276459	0.569390	0.499930
C151	C	0.839676	0.070156	-0.000072
C152	C	1.339676	0.570156	0.499928
C153	C	0.667545	0.178287	-0.000043
C154	C	1.167545	0.678287	0.499957
C155	C	0.668300	0.241506	-0.000033
C156	C	1.168300	0.741506	0.499967
N157	N	0.672292	0.074155	-0.143864
N158	N	1.172292	0.574155	0.356136
C159	C	0.711266	0.035197	-0.563653
C160	C	1.211266	0.535197	-0.063653
C161	C	0.711269	0.035193	-0.627260
C162	C	1.211269	0.535193	-0.127260
O163	O	0.744383	0.002076	-0.660160
O164	O	1.244383	0.502076	-0.160160
N165	N	0.672320	0.074117	-0.659071
N166	N	1.172320	0.574117	-0.159071
C167	C	0.633362	0.113044	-0.627270
C168	C	1.133362	0.613044	-0.127270
O169	O	0.600233	0.146152	-0.660168
O170	O	1.100233	0.646152	-0.160168
C171	C	0.633357	0.113045	-0.563663
C172	C	1.133357	0.613045	-0.063663
C173	C	0.672312	0.074122	-0.531857
C174	C	1.172312	0.574122	-0.031857
C175	C	0.750218	-0.003724	-0.531846
C176	C	1.250218	0.496276	-0.031846
C177	C	0.750216	-0.003719	-0.468243
C178	C	1.250216	0.496281	0.031757
C179	C	0.711262	0.035206	-0.436446
C180	C	1.211262	0.535206	0.063554
C181	C	0.672310	0.074127	-0.468253
C182	C	1.172310	0.574127	0.031747
C183	C	0.594397	0.151969	-0.531864
C184	C	1.094397	0.651969	-0.031864
C185	C	0.594395	0.151966	-0.468253
C186	C	1.094395	0.651966	0.031747
C187	C	0.633350	0.113043	-0.436446
C188	C	1.133350	0.613043	0.063554
C189	C	0.633354	0.113056	-0.372854
C190	C	1.133354	0.613056	0.127146
N191	N	0.672303	0.074132	-0.341044
N192	N	1.172303	0.574132	0.158956
C193	C	0.711257	0.035207	-0.372840
C194	C	1.211257	0.535207	0.127160
C195	C	0.633374	0.113039	-0.760848
C196	C	1.133374	0.613039	-0.260848
C197	C	0.633382	0.113041	-0.824453
C198	C	1.133382	0.613041	-0.324453
C199	C	0.711288	0.035189	-0.824439
C200	C	1.211288	0.535189	-0.324439
C201	C	0.711283	0.035190	-0.760833
C202	C	1.211283	0.535190	-0.260833
C203	C	0.672323	0.074115	-0.729038
C204	C	1.172323	0.574115	-0.229038
C205	C	0.711250	0.035220	-0.239269
C206	C	1.211250	0.535220	0.260731
C207	C	0.711246	0.035230	-0.175660
C208	C	1.211246	0.535230	0.324340
C209	C	0.633338	0.113080	-0.175679
C210	C	1.133338	0.613080	0.324321
C211	C	0.633344	0.113073	-0.239282
C212	C	1.133344	0.613073	0.260718
C213	C	0.672302	0.074138	-0.271076
C214	C	1.172302	0.574138	0.228924
O215	O	0.600255	0.146155	-0.339914
O216	O	1.100255	0.646155	0.160086
O217	O	0.744376	0.002100	-0.339935
O218	O	1.244376	0.502100	0.160065
N219	N	0.672334	0.074114	0.143745
N220	N	1.172334	0.574114	0.643745
H221	H	0.486571	0.172259	-0.000022
H222	H	0.986571	0.672259	0.499978
Br223	Br	-0.154218	-0.052366	-0.000076
Br224	Br	0.345782	0.447634	0.499924
Br225	Br	-0.014226	-0.050691	-0.000093
Br226	Br	0.485774	0.449309	0.499907
Br227	Br	0.671489	-0.495839	0.184885
Br228	Br	1.171489	0.004161	0.684885
H229	H	0.562667	0.183662	-0.442369
H230	H	1.062667	0.683662	0.057631
H231	H	0.378821	0.170974	-0.000040
H232	H	0.878821	0.670974	0.499960
H233	H	0.669642	-0.645223	-0.099983
H234	H	1.169642	-0.145223	0.400017
Br235	Br	0.126115	-0.101020	-0.000101
Br236	Br	0.626115	0.398980	0.499899
H237	H	0.674940	-0.206520	-0.100012
H238	H	1.174940	0.293480	0.399988
Br239	Br	0.673180	-0.355856	0.184876
Br240	Br	1.173180	0.144144	0.684876
H241	H	0.676240	-0.098753	-0.100014
H242	H	1.176240	0.401247	0.399986
H243	H	0.512282	-0.016147	-0.000056
H244	H	1.012282	0.483853	0.499944
Br245	Br	0.671411	-0.495849	-0.184986
Br246	Br	1.171411	0.004151	0.315014
H247	H	0.676276	-0.098748	0.099864
H248	H	1.176276	0.401252	0.599864
Br249	Br	0.674773	-0.222613	0.129785
Br250	Br	1.174773	0.277387	0.629785
H251	H	0.742973	0.003516	-0.265148
H252	H	1.242973	0.503516	0.234852
Br253	Br	0.218523	0.249297	-0.000028
Br254	Br	0.718523	0.749297	0.499972
H255	H	0.668382	-0.752974	0.099906
H256	H	1.168382	-0.252974	0.599906
Br257	Br	0.580482	0.165906	-0.282447
Br258	Br	1.080482	0.665906	0.217553
H259	H	0.601624	0.144774	-0.149781
H260	H	1.101624	0.644774	0.350219
H261	H	0.668359	-0.752973	-0.099974
H262	H	1.168359	-0.252973	0.400026
Br263	Br	0.266106	-0.099337	-0.000117
Br264	Br	0.766106	0.400663	0.499883
H265	H	0.098505	0.219623	-0.000044
H266	H	0.598505	0.719623	0.499956
Br267	Br	0.669883	-0.629086	0.129811
Br268	Br	1.169883	-0.129086	0.629811
Br269	Br	0.673094	-0.355857	-0.184988
Br270	Br	1.173094	0.144143	0.315012
H271	H	-0.059896	0.165721	-0.000054
H272	H	0.440104	0.665721	0.499946
Br273	Br	0.764120	-0.017595	-0.132496
Br274	Br	1.264120	0.482405	0.367504
Br275	Br	0.392236	-0.045824	-0.000076
Br276	Br	0.892236	0.454176	0.499924
H277	H	0.743004	0.003495	-0.734939
H278	H	1.243004	0.503495	-0.234939
Br279	Br	0.803083	-0.056547	-0.425083
Br280	Br	1.303083	0.443453	0.074917
Br281	Br	-0.187633	0.192420	-0.000052
Br282	Br	0.312367	0.692420	0.499948
Br283	Br	0.764154	-0.017638	-0.867605
Br284	Br	1.264154	0.482362	-0.367605
Br285	Br	0.803090	-0.056558	-0.574987
Br286	Br	1.303090	0.443442	-0.074987
Br287	Br	0.580521	0.165877	-0.867612
Br288	Br	1.080521	0.665877	-0.367612
H289	H	0.601650	0.144741	-0.734963
H290	H	1.101650	0.644741	-0.234963
Br291	Br	0.541526	0.204795	-0.575017
Br292	Br	1.041526	0.704795	-0.075017
