data_functionalizedCrystal
_audit_creation_method	'MofGen! by Chris Wilmer'
_symmetry_space_group_name_H-M	'P1'
_symmetry_Int_Tables_number	1
_symmetry_cell_setting	triclinic
loop_
_symmetry_equiv_pos_as_xyz
  x,y,z
_cell_length_a	14.446369
_cell_length_b	14.446369
_cell_length_c	14.560438
_cell_angle_alpha	90.001510
_cell_angle_beta	60.001298
_cell_angle_gamma	59.996157
loop_
_atom_site_label
_atom_site_type_symbol
_atom_site_fract_x
_atom_site_fract_y
_atom_site_fract_z
Zr1	Zr	1.013192	0.891724	-0.120482
O2	O	1.206321	0.743902	-0.267134
O3	O	0.820070	0.937045	-0.075527
O4	O	1.013192	0.937032	-0.267129
O5	O	1.013197	0.743919	0.075609
O6	O	1.013184	1.089369	-0.267123
O7	O	1.013199	0.743916	-0.075532
O8	O	0.667724	1.089392	0.075618
O9	O	1.358657	0.743896	-0.267132
O10	O	0.899495	1.070054	-0.056348
O11	O	0.899499	0.956370	0.056443
O12	O	1.126876	0.956354	-0.169144
O13	O	1.126880	0.842669	-0.056354
Zr14	Zr	1.013175	1.134690	0.120579
Zr15	Zr	1.013179	1.134684	-0.120473
Zr16	Zr	1.013188	0.891730	0.120570
Zr17	Zr	1.256149	0.891713	-0.120479
Zr18	Zr	0.770217	1.134701	0.120576
O19	O	1.206297	1.089369	0.075624
O20	O	1.206302	1.089360	-0.267121
O21	O	1.206316	0.743911	0.075611
O22	O	0.820045	1.282512	0.267231
O23	O	0.820051	1.282503	-0.075514
O24	O	0.820064	0.937054	0.267218
O25	O	1.013170	1.282495	-0.075512
O26	O	1.013175	1.089382	0.267226
O27	O	1.013183	0.937045	0.267221
O28	O	1.013167	1.282498	0.075629
O29	O	1.358646	0.937017	-0.267125
O30	O	0.667721	1.089397	0.267222
O31	O	0.667710	1.282518	0.267229
O32	O	0.667713	1.282513	0.075625
O33	O	1.358653	0.743901	-0.075528
O34	O	1.358643	0.937022	-0.075521
O35	O	0.899491	1.070060	0.169241
O36	O	0.899487	1.183745	0.056451
O37	O	1.126867	1.070044	-0.056345
O38	O	1.126872	0.956360	0.056445
C39	C	0.709281	1.013220	0.000045
C40	C	0.606139	1.013225	0.000044
C41	C	0.459821	1.084560	-0.071441
C42	C	0.566745	1.084964	-0.071136
C43	C	0.479277	1.065533	0.122607
C44	C	0.371898	1.066053	0.122220
C45	C	0.546886	0.889481	-0.050029
C46	C	0.655359	0.889679	-0.052514
C47	C	1.013200	0.709301	0.000038
C48	C	1.013206	0.606158	0.000034
C49	C	1.156600	0.387781	-0.070748
C50	C	1.156696	0.495013	-0.071146
C51	C	0.941975	0.602836	-0.051858
C52	C	0.942885	0.495067	-0.052377
C53	C	0.939929	0.496436	0.122797
C54	C	0.942632	0.602405	0.122604
C55	C	1.317086	1.013194	0.000052
C56	C	1.420228	1.013189	0.000053
C57	C	1.013189	1.013199	-0.301471
C58	C	1.013190	1.013197	-0.403804
C59	C	1.013167	1.317113	0.000060
C60	C	1.013161	1.420256	0.000064
C61	C	1.131878	0.953848	-0.510758
C62	C	1.131872	0.953861	-0.606907
C63	C	0.894479	1.072574	-0.489133
C64	C	0.894487	1.072566	-0.392987
C65	C	1.013178	1.013215	0.301568
C66	C	1.013177	1.013217	0.403901
C67	C	0.709264	1.317126	0.000056
C68	C	0.606117	1.420274	0.000059
C69	C	0.709276	1.013228	0.301565
C70	C	0.606132	1.013235	0.403896
C71	C	0.709259	1.317134	0.301576
C72	C	0.606110	1.420284	0.403911
C73	C	1.317108	0.709280	-0.301478
C74	C	1.420257	0.606130	-0.403814
C75	C	1.317103	0.709288	0.000041
C76	C	1.420250	0.606140	0.000039
C77	C	1.317091	1.013186	-0.301467
C78	C	1.420235	1.013179	-0.403799
C79	C	0.557660	1.409390	-0.058817
C80	C	0.460750	1.506312	-0.058819
C81	C	0.460759	1.624997	0.058941
C82	C	0.557674	1.528077	0.058935
C83	C	0.557669	1.072582	0.510852
C84	C	0.460764	1.072576	0.607000
C85	C	0.460790	0.953873	0.489223
C86	C	0.557700	0.953874	0.393077
C87	C	0.557646	1.528086	0.393116
C88	C	0.460735	1.625003	0.489275
C89	C	0.460757	1.506301	0.607021
C90	C	0.557673	1.409387	0.510863
H91	H	0.440713	1.155703	0.162982
Br92	Br	0.623386	1.542877	0.247970
Br93	Br	0.623407	1.263089	-0.138725
Br94	Br	0.521900	1.026381	-0.222258
Br95	Br	0.394970	1.771306	0.474618
H96	H	0.597162	0.905540	0.305983
H97	H	0.797831	1.120901	-0.305893
Br98	Br	0.395014	1.491522	0.752172
H99	H	0.421311	1.120901	0.694084
H100	H	0.597136	1.321603	0.519661
H101	H	0.837647	0.521727	-0.004135
H102	H	1.228520	0.905534	-0.693991
H103	H	0.993508	0.444719	-0.142692
Br104	Br	0.394995	1.491535	-0.138731
Br105	Br	0.766124	0.733293	0.029965
Br106	Br	0.715681	1.026484	-0.221560
H107	H	0.586435	0.845773	-0.138902
H108	H	0.745854	0.850602	-0.142808
H109	H	0.341944	1.017428	0.178383
Br110	Br	0.516348	0.983072	0.215251
Br111	Br	0.504298	1.237068	-0.013236
Br112	Br	0.310366	1.235746	-0.014088
Br113	Br	0.395004	1.771303	0.138845
H114	H	1.228534	0.905505	-0.519572
Br115	Br	0.220619	1.217779	0.189049
H116	H	0.597104	1.120914	0.519667
H117	H	0.985823	0.446411	0.166146
Br118	Br	0.395053	0.873317	0.474549
H119	H	0.687487	0.832029	-0.005852
Br120	Br	0.733390	1.153136	-0.474462
H121	H	0.522097	0.836055	0.001797
H122	H	1.212868	0.493252	-0.036610
H123	H	0.597131	1.536947	0.106879
H124	H	1.212893	0.333823	-0.036117
H125	H	1.212928	0.492562	-0.161683
Br126	Br	1.249982	0.296129	-0.220741
H127	H	0.991452	0.604967	-0.141316
H128	H	0.994568	0.601885	0.161370
H129	H	0.837946	0.681569	0.179803
H130	H	0.834265	0.523880	0.175807
