data_functionalizedCrystal
_audit_creation_method	'MofGen! by Chris Wilmer'
_symmetry_space_group_name_H-M	'P1'
_symmetry_Int_Tables_number	1
_symmetry_cell_setting	triclinic
loop_
_symmetry_equiv_pos_as_xyz
  x,y,z
_cell_length_a	14.519731
_cell_length_b	10.967961
_cell_length_c	9.482900
_cell_angle_alpha	87.495787
_cell_angle_beta	80.692239
_cell_angle_gamma	84.211295
loop_
_atom_site_label
_atom_site_type_symbol
_atom_site_fract_x
_atom_site_fract_y
_atom_site_fract_z
O1	O	1.243036	0.138595	-0.155613
O2	O	0.975207	0.157083	-0.160246
O3	O	1.110154	-0.026738	-0.114192
O4	O	1.108089	0.322415	-0.201667
O5	O	1.082748	0.010750	0.118208
O6	O	0.947801	0.194571	0.072154
O7	O	1.215631	0.176083	0.076787
Cu8	Cu	1.079214	0.188750	0.095690
Cu9	Cu	1.111624	0.144416	-0.179150
O10	O	1.080684	0.359903	0.030733
C11	C	1.094230	-0.052679	0.013200
C12	C	1.087601	-0.185828	0.046549
C13	C	0.927114	0.174960	-0.043829
C14	C	0.824644	0.172364	-0.043180
C15	C	1.091996	-0.402225	-0.024504
C16	C	1.098845	-0.264610	-0.058982
C17	C	0.741427	0.170254	-0.042657
C18	C	0.637026	0.167618	-0.041997
C19	C	0.553814	0.165527	-0.041473
C20	C	0.449407	0.162891	-0.040816
C21	C	1.263724	0.158205	-0.039633
C22	C	1.366195	0.160799	-0.040292
C23	C	1.096608	0.385844	-0.096662
C24	C	1.103238	0.518991	-0.130021
N25	N	1.056425	0.219931	0.288998
N26	N	1.134420	0.113225	-0.372455
C27	C	1.104896	0.153606	0.377815
C28	C	1.085942	0.179559	0.538730
H29	H	1.113534	-0.230184	-0.174852
H30	H	1.160422	0.077605	0.334728
H31	H	1.030406	0.255557	0.581814
H32	H	1.189949	0.037218	0.584463
O33	O	0.990114	0.310457	0.340588
C34	C	0.845701	0.362583	0.499530
C35	C	0.920743	0.259949	0.441256
H36	H	0.789585	0.321782	0.580909
H37	H	0.879730	0.433442	0.553130
H38	H	0.812200	0.408506	0.407601
H39	H	0.954271	0.213931	0.533105
H40	H	0.886663	0.189170	0.387615
O41	O	1.074349	-0.443417	0.113659
C42	C	0.970612	-0.547674	0.292591
C43	C	0.990494	-0.501116	0.136074
H44	H	0.902806	-0.594311	0.310771
H45	H	1.031020	-0.616143	0.316256
H46	H	0.963264	-0.466945	0.366651
H47	H	0.997824	-0.581766	0.061912
H48	H	0.930079	-0.432611	0.112526
H49	H	1.072898	-0.220250	0.162418
H50	H	1.117926	-0.446576	-0.245882
