data_functionalizedCrystal
_audit_creation_method	'MofGen! by Chris Wilmer'
_symmetry_space_group_name_H-M	'P1'
_symmetry_Int_Tables_number	1
_symmetry_cell_setting	triclinic
loop_
_symmetry_equiv_pos_as_xyz
  x,y,z
_cell_length_a	12.827892
_cell_length_b	12.759401
_cell_length_c	12.759393
_cell_angle_alpha	89.981504
_cell_angle_beta	90.031046
_cell_angle_gamma	89.984637
loop_
_atom_site_label
_atom_site_type_symbol
_atom_site_fract_x
_atom_site_fract_y
_atom_site_fract_z
Zn1	Zn	-0.415967	-1.606252	0.593985
Zn2	Zn	-0.590748	-1.606145	0.418307
Zn3	Zn	-0.416022	-1.430554	0.418325
Zn4	Zn	-0.590667	-1.430541	0.593948
O5	O	-0.503351	-1.518373	0.506141
O6	O	-0.439163	-1.753259	0.570689
O7	O	-0.567626	-1.582813	0.271288
O8	O	-0.269778	-1.453911	0.441649
O9	O	-0.567573	-1.753180	0.441619
O10	O	-0.269738	-1.582995	0.570706
O11	O	-0.439256	-1.453807	0.271301
O12	O	-0.439178	-1.283531	0.441613
O13	O	-0.567436	-1.453889	0.740974
O14	O	-0.567489	-1.283521	0.570643
O15	O	-0.439085	-1.582983	0.741001
O16	O	-0.736973	-1.582800	0.441583
O17	O	-0.736914	-1.453785	0.570626
C18	C	-0.503332	-1.245405	0.506127
C19	C	-0.503349	-1.128629	0.506146
C20	C	-0.503245	-1.518446	0.780175
C21	C	-0.503200	-1.518478	0.896951
C22	C	-0.774861	-1.518308	0.506122
C23	C	-0.891014	-1.518376	0.506149
C24	C	-1.062838	-1.582362	0.442394
C25	C	-0.942787	-1.582293	0.442365
C26	C	-0.230781	-1.518466	0.506184
C27	C	-0.114628	-1.518506	0.506202
C28	C	-0.503371	-1.792406	0.506156
C29	C	-0.503379	-1.909183	0.506162
C30	C	-0.570267	-1.073789	0.573221
C31	C	-0.570280	-0.964065	0.573232
C32	C	-0.436453	-0.964030	0.439085
C33	C	-0.436436	-1.073752	0.439079
C34	C	-0.647534	-1.073809	0.650666
C35	C	-0.647548	-0.964085	0.650678
C36	C	-0.503380	-1.518360	0.233174
C37	C	-0.503131	-1.518532	0.116398
C38	C	-0.436361	-1.585706	0.951829
C39	C	-0.436324	-1.585731	1.061553
C40	C	-0.569973	-1.451296	1.061512
C41	C	-0.570005	-1.451267	0.951790
C42	C	-0.359203	-1.663324	0.951854
C43	C	-0.359165	-1.663349	1.061578
H44	H	-1.107375	-1.637078	0.387783
H45	H	-0.381937	-1.118398	0.384468
Cl46	Cl	-0.874030	-1.666708	0.358024
H47	H	-0.278273	-1.641556	0.922097
Cl48	Cl	-0.352338	-0.895034	0.354778
H49	H	-0.935545	-1.463708	0.560784
Cl50	Cl	-0.614213	-1.119839	0.776348
Cl51	Cl	-1.045874	-1.434012	0.590509
Cl52	Cl	-0.240505	-1.618251	1.114154
Cl53	Cl	-0.654017	-1.366730	0.882804
H54	H	-0.624360	-1.396573	1.106175
Cl55	Cl	-0.766204	-1.126332	0.605556
H56	H	-0.618659	-0.930087	0.728029
H57	H	-0.728463	-0.934288	0.628746
H58	H	-0.388216	-1.740596	0.917818
H59	H	-0.380841	-1.744720	1.091357
