data_functionalizedCrystal
_audit_creation_method	'MofGen! by Chris Wilmer'
_symmetry_space_group_name_H-M	'P1'
_symmetry_Int_Tables_number	1
_symmetry_cell_setting	triclinic
loop_
_symmetry_equiv_pos_as_xyz
  x,y,z
_cell_length_a	12.759395
_cell_length_b	12.759394
_cell_length_c	13.032268
_cell_angle_alpha	82.848752
_cell_angle_beta	82.835516
_cell_angle_gamma	90.015393
loop_
_atom_site_label
_atom_site_type_symbol
_atom_site_fract_x
_atom_site_fract_y
_atom_site_fract_z
Zn1	Zn	1.530780	-0.493623	0.590821
Zn2	Zn	1.553001	-0.647024	0.416088
Zn3	Zn	1.377404	-0.471366	0.416101
Zn4	Zn	1.355078	-0.669260	0.590783
O5	O	1.454066	-0.570318	0.503448
O6	O	1.680747	-0.513980	0.567652
O7	O	1.548350	-0.605103	0.269858
O8	O	1.397793	-0.327300	0.439300
O9	O	1.697073	-0.626684	0.439276
O10	O	1.510478	-0.343652	0.567666
O11	O	1.419340	-0.476047	0.269868
O12	O	1.227422	-0.497609	0.439263
O13	O	1.359742	-0.664582	0.737020
O14	O	1.211020	-0.643000	0.567601
O15	O	1.488830	-0.535542	0.737048
O16	O	1.526702	-0.796992	0.439240
O17	O	1.381289	-0.813329	0.567588
C18	C	1.181100	-0.570303	0.503430
C19	C	1.064321	-0.570325	0.503447
C20	C	1.047308	-0.721911	0.636870
C21	C	0.983939	-0.797713	0.703584
C22	C	0.874216	-0.797728	0.703597
C23	C	0.827859	-0.721930	0.636890
C24	C	0.891227	-0.646128	0.570176
C25	C	1.000952	-0.646124	0.570169
C26	C	0.908240	-0.494539	0.436761
C27	C	1.017964	-0.494528	0.436741
C28	C	0.861883	-0.418742	0.370055
C29	C	0.925252	-0.342943	0.303333
C30	C	1.034982	-0.342932	0.303323
C31	C	1.081333	-0.418726	0.370027
C32	C	1.454009	-0.843284	0.503431
C33	C	1.454077	-0.960064	0.503459
C34	C	1.571302	-0.976945	0.637226
C35	C	1.629947	-1.040248	0.704118
C36	C	1.630007	-1.149973	0.704141
C37	C	1.571413	-1.196396	0.637266
C38	C	1.512768	-1.133094	0.570375
C39	C	1.512717	-1.023367	0.570357
C40	C	1.395538	-1.116213	0.436614
C41	C	1.395483	-1.006488	0.436585
C42	C	1.336944	-1.162637	0.369740
C43	C	1.278304	-1.099333	0.302841
C44	C	1.278248	-0.989602	0.302821
C45	C	1.336838	-0.943185	0.369693
C46	C	1.728097	-0.570334	0.503467
C47	C	1.844872	-0.570341	0.503475
C48	C	1.419317	-0.605025	0.776010
C49	C	1.404509	-0.619814	0.892160
C50	C	1.454148	-0.296290	0.503489
C51	C	1.454183	-0.179515	0.503506
C52	C	1.488739	-0.535671	0.231947
C53	C	1.503751	-0.520586	0.115798
C54	C	1.461777	-0.562562	0.943957
C55	C	1.446474	-0.577846	1.064004
H56	H	0.772540	-0.418755	0.370074
H57	H	0.887499	-0.281231	0.249032
H58	H	1.564108	-0.460243	1.071274
H59	H	1.136650	-0.721914	0.636858
O60	O	1.324550	-0.699728	0.951137
H61	H	1.284920	-0.739335	0.894933
O62	O	1.571559	-1.314739	0.637271
H63	H	1.540273	-1.353734	0.716073
O64	O	1.693151	-0.990172	0.776234
H65	H	1.664630	-1.021650	0.858241
O66	O	1.033931	-0.879444	0.775555
H67	H	1.120875	-0.866702	0.764345
O68	O	0.805900	-0.879541	0.775516
H69	H	0.816509	-0.872156	0.857573
O70	O	0.709519	-0.721969	0.636867
H71	H	0.673246	-0.787424	0.694449
O72	O	1.103331	-0.261184	0.231355
H73	H	1.052659	-0.208493	0.184969
H74	H	1.522132	-0.502226	0.899428
O75	O	1.199678	-0.418718	0.370008
H76	H	1.218574	-0.407651	0.448859
H77	H	1.230487	-0.938066	0.248354
H78	H	1.571271	-0.887602	0.637205
H79	H	1.677748	-1.201515	0.758621
H80	H	1.336992	-1.251981	0.369767
H81	H	1.336803	-0.853842	0.369678
H82	H	1.230596	-1.137141	0.248403
O83	O	1.366510	-0.657769	1.122967
H84	H	1.367042	-0.657235	1.208003
