data_functionalizedCrystal
_audit_creation_method	'MofGen! by Chris Wilmer'
_symmetry_space_group_name_H-M	'P1'
_symmetry_Int_Tables_number	1
_symmetry_cell_setting	triclinic
loop_
_symmetry_equiv_pos_as_xyz
  x,y,z
_cell_length_a	15.297327
_cell_length_b	12.759401
_cell_length_c	12.759393
_cell_angle_alpha	89.981433
_cell_angle_beta	99.641734
_cell_angle_gamma	99.705457
loop_
_atom_site_label
_atom_site_type_symbol
_atom_site_fract_x
_atom_site_fract_y
_atom_site_fract_z
Zn1	Zn	-0.359128	1.533794	-0.666304
Zn2	Zn	0.140872	2.033794	-0.166304
Zn3	Zn	-0.510015	1.503244	-0.521009
Zn4	Zn	-0.010015	2.003244	-0.021009
Zn5	Zn	-0.359172	1.358087	-0.490652
Zn6	Zn	0.140828	1.858087	0.009348
Zn7	Zn	-0.509943	1.327654	-0.696636
Zn8	Zn	-0.009943	1.827654	-0.196636
O9	O	-0.434565	1.430695	-0.593650
O10	O	0.065435	1.930695	-0.093650
O11	O	-0.379155	1.676760	-0.647041
O12	O	0.120845	2.176760	-0.147041
O13	O	-0.490054	1.483939	-0.369971
O14	O	0.009946	1.983939	0.130029
O15	O	-0.232922	1.406916	-0.488554
O16	O	0.267078	1.906916	0.011446
O17	O	-0.490011	1.654315	-0.540293
O18	O	0.009989	2.154315	-0.040293
O19	O	-0.232889	1.536007	-0.617604
O20	O	0.267111	2.036007	-0.117604
O21	O	-0.379231	1.377293	-0.347667
O22	O	0.120769	1.877293	0.152333
O23	O	-0.379161	1.207031	-0.517965
O24	O	0.120839	1.707031	-0.017965
O25	O	-0.489888	1.355049	-0.839623
O26	O	0.010112	1.855049	-0.339623
O27	O	-0.489931	1.184673	-0.669301
O28	O	0.010069	1.684673	-0.169301
O29	O	-0.379085	1.506498	-0.817339
O30	O	0.120915	2.006498	-0.317339
O31	O	-0.636250	1.454430	-0.569705
O32	O	-0.136250	1.954430	-0.069705
O33	O	-0.636197	1.325425	-0.698737
O34	O	-0.136197	1.825425	-0.198737
C35	C	-0.434543	1.157732	-0.593631
C36	C	0.065457	1.657732	-0.093631
C37	C	-0.434556	1.040952	-0.593652
C38	C	0.065444	1.540952	-0.093652
C39	C	-0.376942	0.997749	-0.649362
C40	C	0.123058	1.497749	-0.149362
C41	C	-0.376960	0.888021	-0.649372
C42	C	0.123040	1.388021	-0.149372
C43	C	-0.492212	0.864709	-0.537962
C44	C	0.007788	1.364709	-0.037962
C45	C	-0.492190	0.974436	-0.537946
C46	C	0.007810	1.474436	-0.037946
C47	C	-0.319309	1.064265	-0.705068
C48	C	0.180691	1.564265	-0.205068
C49	C	-0.261691	1.021062	-0.760783
C50	C	0.238309	1.521062	-0.260783
C51	C	-0.261708	0.911335	-0.760793
C52	C	0.238292	1.411335	-0.260793
C53	C	-0.319343	0.844810	-0.705088
C54	C	0.180657	1.344810	-0.205088
C55	C	-0.668957	1.383339	-0.640829
C56	C	-0.168957	1.883339	-0.140829
C57	C	-0.769231	1.363176	-0.661048
C58	C	-0.269231	1.863176	-0.161048
C59	C	-1.051873	1.575236	-0.449502
C60	C	-0.551873	2.075236	0.050498
C61	C	-0.957660	1.594179	-0.430500
C62	C	-0.457660	2.094179	0.069500
C63	C	-0.910548	1.536430	-0.488136
C64	C	-0.410548	2.036430	0.011864
C65	C	-0.957658	1.459734	-0.564776
C66	C	-0.457658	1.959734	-0.064776
C67	C	-1.051880	1.440783	-0.583774
C68	C	-0.551880	1.940783	-0.083774
C69	C	-0.910556	1.401977	-0.622408
C70	C	-0.410556	1.901977	-0.122408
C71	C	-0.957665	1.325281	-0.699048
C72	C	-0.457665	1.825281	-0.199048
C73	C	-1.051878	1.306334	-0.718043
C74	C	-0.551878	1.806334	-0.218043
C75	C	-1.098990	1.364082	-0.660407
C76	C	-0.598990	1.864082	-0.160407
C77	C	-0.816334	1.420929	-0.603410
C78	C	-0.316334	1.920929	-0.103410
C79	C	-0.816341	1.286475	-0.737681
C80	C	-0.316341	1.786475	-0.237681
C81	C	-0.910554	1.267532	-0.756683
C82	C	-0.410554	1.767532	-0.256683
C83	C	-0.199257	1.478264	-0.546309
C84	C	0.300743	1.978264	-0.046309
C85	C	-0.098983	1.498535	-0.526136
C86	C	0.401017	1.998535	-0.026136
C87	C	-0.434473	1.430787	-0.867665
C88	C	0.065527	1.930787	-0.367665
C89	C	-0.434435	1.430826	-0.984434
C90	C	0.065565	1.930826	-0.484434
C91	C	-0.434586	1.704723	-0.593670
C92	C	0.065414	2.204723	-0.093670
C93	C	-0.434596	1.821498	-0.593678
C94	C	0.065404	2.321498	-0.093678
C95	C	-0.376734	1.509696	-1.027693
C96	C	0.123266	2.009696	-0.527693
C97	C	-0.376702	1.509728	-1.137411
C98	C	0.123298	2.009728	-0.637411
C99	C	-0.492078	1.352014	-1.160602
C100	C	0.007922	1.852014	-0.660602
C101	C	-0.492105	1.351979	-1.050886
C102	C	0.007895	1.851979	-0.550886
C103	C	-0.319064	1.588543	-0.961241
C104	C	0.180936	2.088543	-0.461241
C105	C	-0.261359	1.667420	-1.004500
C106	C	0.238641	2.167420	-0.504500
C107	C	-0.261327	1.667451	-1.114217
C108	C	0.238673	2.167451	-0.614217
C109	C	-0.318999	1.588606	-1.180677
C110	C	0.181001	2.088606	-0.680677
C111	C	-0.434590	1.430677	-0.320688
C112	C	0.065410	1.930677	0.179312
C113	C	-0.434375	1.430892	-0.203868
C114	C	0.065625	1.930892	0.296132
H115	H	-0.777985	1.483375	-0.541008
H116	H	-0.277985	1.983375	-0.041008
Br117	Br	-0.183506	0.852705	-0.836392
Br118	Br	0.316494	1.352705	-0.336392
Br119	Br	-0.183466	1.111343	-0.836364
Br120	Br	0.316534	1.611343	-0.336364
Br121	Br	-0.570388	1.033075	-0.462349
Br122	Br	-0.070388	1.533075	0.037651
H123	H	-1.090240	1.622240	-0.402577
H124	H	-0.590240	2.122240	0.097423
H125	H	-0.919307	1.656624	-0.368100
H126	H	-0.419307	2.156624	0.131900
Br127	Br	-0.319110	1.588510	-0.812340
Br128	Br	0.180890	2.088510	-0.312340
H129	H	-0.319333	0.755467	-0.705075
H130	H	0.180667	1.255467	-0.205075
H131	H	-0.539137	0.810536	-0.492612
H132	H	-0.039137	1.310536	0.007388
H133	H	-1.090232	1.243870	-0.780436
H134	H	-0.590232	1.743870	-0.280436
H135	H	-0.833836	1.551858	-0.472659
H136	H	-0.333836	2.051858	0.027341
Br137	Br	-1.226854	1.337905	-0.685721
Br138	Br	-0.726854	1.837905	-0.185721
Br139	Br	-0.974499	1.163449	-0.860694
Br140	Br	-0.474499	1.663449	-0.360694
Br141	Br	-0.183077	1.774402	-0.914306
Br142	Br	0.316923	2.274402	-0.414306
H143	H	-0.318957	1.588628	-1.270013
H144	H	0.181043	2.088628	-0.770013
H145	H	-0.214334	1.731671	-1.149433
H146	H	0.285666	2.231671	-0.649433
Br147	Br	-0.752412	1.208087	-0.815896
Br148	Br	-0.252412	1.708087	-0.315896
Br149	Br	-0.570410	1.244936	-0.992169
Br150	Br	-0.070410	1.744936	-0.492169
Br151	Br	-0.319289	1.213180	-0.705066
Br152	Br	0.180711	1.713180	-0.205066
Br153	Br	-0.570343	1.245018	-1.250796
Br154	Br	-0.070343	1.745018	-0.750796
