data_functionalizedCrystal
_audit_creation_method	'MofGen! by Chris Wilmer'
_symmetry_space_group_name_H-M	'P1'
_symmetry_Int_Tables_number	1
_symmetry_cell_setting	triclinic
loop_
_symmetry_equiv_pos_as_xyz
  x,y,z
_cell_length_a	14.044191
_cell_length_b	23.532407
_cell_length_c	22.010155
_cell_angle_alpha	89.999577
_cell_angle_beta	89.993222
_cell_angle_gamma	88.020227
loop_
_atom_site_label
_atom_site_type_symbol
_atom_site_fract_x
_atom_site_fract_y
_atom_site_fract_z
O1	O	1.256423	0.137246	-0.050508
O2	O	1.756423	0.637246	0.449492
O3	O	0.980500	0.132289	-0.050515
O4	O	1.480500	0.632289	0.449485
O5	O	1.126782	0.052287	-0.050500
O6	O	1.626782	0.552287	0.449500
O7	O	1.110141	0.217248	-0.050523
O8	O	1.610141	0.717248	0.449477
O9	O	1.126756	0.052299	0.050551
O10	O	1.626756	0.552299	0.550551
O11	O	0.980474	0.132301	0.050536
O12	O	1.480474	0.632301	0.550536
O13	O	1.256397	0.137257	0.050543
O14	O	1.756397	0.637257	0.550543
Cu15	Cu	1.118433	0.134780	0.059766
Cu16	Cu	1.618433	0.634780	0.559766
Cu17	Cu	1.118464	0.134766	-0.059738
Cu18	Cu	1.618464	0.634766	0.440262
O19	O	1.110115	0.217260	0.050528
O20	O	1.610115	0.717260	0.550528
C21	C	0.945193	0.130127	0.000010
C22	C	1.445193	0.630127	0.500010
C23	C	0.840028	0.123659	0.000007
C24	C	1.340028	0.623659	0.500007
C25	C	0.589421	0.157705	0.000009
C26	C	1.089421	0.657705	0.500009
C27	C	0.647482	0.111844	0.000014
C28	C	1.147482	0.611844	0.500014
C29	C	0.754624	0.118420	0.000010
C30	C	1.254624	0.618420	0.500010
C31	C	0.482268	0.151130	0.000012
C32	C	0.982268	0.651130	0.500012
C33	C	1.126345	0.031054	0.000027
C34	C	1.626345	0.531054	0.500027
C35	C	1.125071	-0.032232	0.000032
C36	C	1.625071	0.467768	0.500032
C37	C	1.203646	-0.427075	0.000000
C38	C	1.703646	0.072925	0.500000
C39	C	1.202463	-0.486540	-0.000004
C40	C	1.702463	0.013460	0.499996
O41	O	1.275303	-0.519335	-0.000025
O42	O	1.775303	-0.019335	0.499975
N43	N	1.115498	-0.513881	-0.000006
N44	N	1.615498	-0.013881	0.499994
C45	C	1.029712	-0.481754	-0.000010
C46	C	1.529712	0.018246	0.499990
O47	O	0.955633	-0.510470	-0.000012
O48	O	1.455633	-0.010470	0.499988
C49	C	1.030896	-0.422291	-0.000009
C50	C	1.530896	0.077709	0.499991
C51	C	1.117866	-0.394953	-0.000001
C52	C	1.617866	0.105047	0.499999
C53	C	1.290610	-0.399737	0.000008
C54	C	1.790610	0.100263	0.500008
C55	C	1.291793	-0.340277	0.000013
C56	C	1.791793	0.159723	0.500013
C57	C	1.206013	-0.308155	0.000012
C58	C	1.706013	0.191845	0.500012
C59	C	1.119050	-0.335493	0.000005
C60	C	1.619050	0.164507	0.500005
C61	C	0.945111	-0.390166	-0.000017
C62	C	1.445111	0.109834	0.499983
C63	C	0.946303	-0.330698	-0.000017
C64	C	1.446303	0.169302	0.499983
C65	C	1.033273	-0.303361	-0.000009
C66	C	1.533273	0.196639	0.499991
C67	C	1.034453	-0.243910	0.000009
C68	C	1.534453	0.256090	0.500009
N69	N	1.121417	-0.216569	0.000011
N70	N	1.621417	0.283431	0.500011
C71	C	1.207197	-0.248692	0.000012
C72	C	1.707197	0.251308	0.500012
C73	C	1.027231	-0.606631	-0.000011
C74	C	1.527231	-0.106631	0.499989
C75	C	1.026045	-0.666094	-0.000007
C76	C	1.526045	-0.166094	0.499993
C77	C	1.198797	-0.670875	-0.000003
C78	C	1.698797	-0.170875	0.499997
C79	C	1.199981	-0.611412	-0.000003
C80	C	1.699981	-0.111412	0.499997
C81	C	1.114195	-0.579290	-0.000009
C82	C	1.614195	-0.079290	0.499991
C83	C	1.209675	-0.123820	0.000025
C84	C	1.709675	0.376180	0.500025
C85	C	1.210851	-0.064355	0.000033
C86	C	1.710851	0.435645	0.500033
C87	C	1.038100	-0.059578	0.000026
C88	C	1.538100	0.440422	0.500026
C89	C	1.036924	-0.119039	0.000021
C90	C	1.536924	0.380961	0.500021
C91	C	1.122719	-0.151159	0.000018
C92	C	1.622719	0.348841	0.500018
O93	O	0.961651	-0.211078	0.000027
O94	O	1.461651	0.288922	0.500027
O95	O	1.281264	-0.219968	0.000007
O96	O	1.781264	0.280032	0.500007
C97	C	1.291704	0.139420	0.000017
C98	C	1.791704	0.639420	0.500017
C99	C	1.396869	0.145887	0.000015
C100	C	1.896869	0.645887	0.500015
C101	C	1.110552	0.238493	-0.000000
C102	C	1.610552	0.738493	0.500000
C103	C	1.111826	0.301779	-0.000009
C104	C	1.611826	0.801779	0.499991
N105	N	1.118417	0.134790	0.143818
N106	N	1.618417	0.634790	0.643818
N107	N	1.118487	0.134752	-0.143790
N108	N	1.618487	0.634752	0.356210
C109	C	1.183241	0.099347	0.563604
C110	C	1.683241	0.599347	1.063604
C111	C	1.183246	0.099343	0.627212
C112	C	1.683246	0.599343	1.127212
O113	O	1.238323	0.069214	0.660109
O114	O	1.738323	0.569214	1.160109
N115	N	1.118464	0.134754	0.659025
N116	N	1.618464	0.634754	1.159025
C117	C	1.053666	0.170167	0.627228
C118	C	1.553666	0.670167	1.127228
O119	O	0.998564	0.200286	0.660129
O120	O	1.498564	0.700286	1.160129
C121	C	1.053658	0.170168	0.563622
C122	C	1.553658	0.670168	1.063622
C123	C	1.118451	0.134758	0.531811
C124	C	1.618451	0.634758	1.031811
C125	C	1.248028	0.063940	0.531794
C126	C	1.748028	0.563940	1.031794
C127	C	1.248025	0.063945	0.468191
C128	C	1.748025	0.563945	0.968191
C129	C	1.183234	0.099356	0.436398
C130	C	1.683234	0.599356	0.936398
C131	C	1.118448	0.134763	0.468208
C132	C	1.618448	0.634763	0.968208
C133	C	0.988857	0.205577	0.531825
C134	C	1.488857	0.705577	1.031825
C135	C	0.988854	0.205574	0.468215
C136	C	1.488854	0.705574	0.968215
C137	C	1.053647	0.170165	0.436404
C138	C	1.553647	0.670165	0.936404
C139	C	1.053654	0.170179	0.372812
C140	C	1.553654	0.670179	0.872812
N141	N	1.118436	0.134768	0.340999
N142	N	1.618436	0.634768	0.840999
C143	C	1.183226	0.099356	0.372791
C144	C	1.683226	0.599356	0.872791
C145	C	1.053687	0.170163	0.760806
C146	C	1.553687	0.670163	1.260806
C147	C	1.053699	0.170166	0.824411
C148	C	1.553699	0.670166	1.324411
C149	C	1.183278	0.099341	0.824391
C150	C	1.683278	0.599341	1.324391
C151	C	1.183270	0.099342	0.760784
C152	C	1.683270	0.599342	1.260784
C153	C	1.118470	0.134752	0.728992
C154	C	1.618470	0.634752	1.228992
C155	C	1.183215	0.099369	0.239220
C156	C	1.683215	0.599369	0.739220
C157	C	1.183208	0.099379	0.175611
C158	C	1.683208	0.599379	0.675611
C159	C	1.053626	0.170201	0.175637
C160	C	1.553626	0.670201	0.675637
C161	C	1.053636	0.170194	0.239241
C162	C	1.553636	0.670194	0.739241
C163	C	1.118434	0.134773	0.271030
C164	C	1.618434	0.634773	0.771030
O165	O	0.998602	0.200291	0.339875
O166	O	1.498602	0.700291	0.839875
O167	O	1.238311	0.069237	0.339883
O168	O	1.738311	0.569237	0.839883
H169	H	0.616722	0.067644	-0.000023
H170	H	1.116722	0.567644	0.499977
O171	O	0.630153	0.216252	-0.000007
O172	O	1.130153	0.716252	0.499993
H173	H	0.709135	0.212293	-0.000015
H174	H	1.209135	0.712293	0.499985
H175	H	1.235973	0.070544	0.149713
H176	H	1.735973	0.570544	0.649713
H177	H	1.281675	-0.042099	0.000041
H178	H	1.781675	0.457901	0.500041
H179	H	0.957369	-0.580481	-0.000011
H180	H	1.457369	-0.080481	0.499989
H181	H	1.236029	0.070508	0.734888
H182	H	1.736029	0.570508	1.234888
O183	O	0.851307	-0.419643	-0.000028
O184	O	1.351307	0.080357	0.499972
H185	H	0.791868	-0.387308	-0.000036
H186	H	1.291868	0.112692	0.499964
O187	O	0.853775	-0.296052	-0.000017
O188	O	1.353775	0.203948	0.499983
H189	H	0.793107	-0.325056	-0.000017
H190	H	1.293107	0.174944	0.499983
H191	H	1.279538	-0.149966	0.000020
H192	H	1.779538	0.350034	0.500020
O193	O	0.918944	0.243761	0.433928
O194	O	1.418944	0.743761	0.933928
H195	H	0.929810	0.237811	0.384354
H196	H	1.429810	0.737811	0.884354
H197	H	1.362613	-0.318024	0.000017
H198	H	1.862613	0.181976	0.500017
O199	O	1.293784	-0.581928	0.000002
O200	O	1.793784	-0.081928	0.500002
H201	H	1.298466	-0.554949	-0.041183
H202	H	1.798466	-0.054949	0.458817
H203	H	1.236033	0.070506	0.850288
H204	H	1.736033	0.570506	1.350288
O205	O	1.383137	-0.434380	0.000018
O206	O	1.883137	0.065620	0.500018
H207	H	1.443797	-0.405370	0.000029
H208	H	1.943797	0.094630	0.500029
H209	H	1.000877	0.199035	0.149742
H210	H	1.500877	0.699035	0.649742
O211	O	1.317928	0.025752	0.566081
O212	O	1.817928	0.525752	1.066081
H213	H	1.362977	0.001140	0.533265
H214	H	1.862977	0.501140	1.033265
H215	H	0.955225	-0.688347	-0.000003
H216	H	1.455225	-0.188347	0.499997
O217	O	0.983847	0.208377	0.858719
O218	O	1.483847	0.708377	1.358719
H219	H	0.938803	0.233003	0.825919
H220	H	1.438803	0.733003	1.325919
H221	H	1.300782	0.035110	0.442295
H222	H	1.800782	0.535110	0.942295
O223	O	1.291322	-0.705526	-0.000008
O224	O	1.791322	-0.205526	0.499992
H225	H	1.275880	-0.751466	-0.000017
H226	H	1.775880	-0.251466	0.499983
H227	H	0.966106	-0.141299	0.000031
H228	H	1.466106	0.358701	0.500031
O229	O	0.945581	-0.024928	0.000023
O230	O	1.445581	0.475072	0.500023
H231	H	0.961024	0.021012	0.000022
H232	H	1.461024	0.521012	0.500022
H233	H	1.235978	0.070526	0.265096
H234	H	1.735978	0.570526	0.765096
O235	O	0.983805	0.208367	0.726516
O236	O	1.483805	0.708367	1.226516
H237	H	0.938771	0.232992	0.759329
H238	H	1.438771	0.732992	1.259329
H239	H	0.936097	0.234410	0.557716
H240	H	1.436097	0.734410	1.057716
H241	H	1.000885	0.199033	0.265141
H242	H	1.500885	0.699033	0.765141
