data_functionalizedCrystal
_audit_creation_method	'MofGen! by Chris Wilmer'
_symmetry_space_group_name_H-M	'P1'
_symmetry_Int_Tables_number	1
_symmetry_cell_setting	triclinic
loop_
_symmetry_equiv_pos_as_xyz
  x,y,z
_cell_length_a	14.908571
_cell_length_b	18.101397
_cell_length_c	14.908308
_cell_angle_alpha	86.737270
_cell_angle_beta	89.824947
_cell_angle_gamma	86.716412
loop_
_atom_site_label
_atom_site_type_symbol
_atom_site_fract_x
_atom_site_fract_y
_atom_site_fract_z
Zn1	Zn	1.345297	-0.386471	0.587546
Zn2	Zn	1.845297	0.113529	1.087546
Zn3	Zn	1.353878	-0.503607	0.437175
Zn4	Zn	1.853878	-0.003607	0.937175
Zn5	Zn	1.203612	-0.372247	0.428545
Zn6	Zn	1.703612	0.127753	0.928545
Zn7	Zn	1.194906	-0.502728	0.578827
Zn8	Zn	1.694906	-0.002728	1.078827
O9	O	1.274423	-0.441263	0.508023
O10	O	1.774423	0.058737	1.008023
O11	O	1.472262	-0.408331	0.574859
O12	O	1.972262	0.091669	1.074859
O13	O	1.341180	-0.480597	0.310206
O14	O	1.841180	0.019403	0.810206
O15	O	1.222460	-0.270505	0.449674
O16	O	1.722460	0.229495	0.949674
O17	O	1.478566	-0.494390	0.464383
O18	O	1.978566	0.005610	0.964383
O19	O	1.326555	-0.280955	0.566491
O20	O	1.826555	0.219045	1.066491
O21	O	1.230780	-0.384087	0.303865
O22	O	1.730780	0.115913	0.803865
O23	O	1.076631	-0.383234	0.441219
O24	O	1.576631	0.116766	0.941219
O25	O	1.207621	-0.492891	0.705807
O26	O	1.707621	0.007109	1.205807
O27	O	1.070235	-0.479098	0.551631
O28	O	1.570235	0.020902	1.051631
O29	O	1.318113	-0.407477	0.712213
O30	O	1.818113	0.092523	1.212213
O31	O	1.332737	-0.607119	0.455928
O32	O	1.832737	-0.107119	0.955928
O33	O	1.215941	-0.606473	0.559999
O34	O	1.715941	-0.106473	1.059999
C35	C	1.040808	-0.429528	0.494543
C36	C	1.540808	0.070472	0.994543
C37	C	0.940865	-0.424526	0.488797
C38	C	1.440865	0.075474	0.988797
C39	C	0.746458	-0.515090	0.592818
C40	C	1.246458	-0.015090	1.092818
C41	C	0.652552	-0.510393	0.587423
C42	C	1.152552	-0.010393	1.087423
C43	C	0.659146	-0.410431	0.472617
C44	C	1.159146	0.089569	0.972617
C45	C	0.753052	-0.415128	0.478012
C46	C	1.253052	0.084872	0.978012
C47	C	0.796704	-0.467460	0.538114
C48	C	1.296704	0.032540	1.038114
C49	C	0.890612	-0.472160	0.543504
C50	C	1.390612	0.027840	1.043504
C51	C	0.897204	-0.372196	0.428703
C52	C	1.397204	0.127804	0.928703
C53	C	0.803298	-0.367499	0.423308
C54	C	1.303298	0.132501	0.923308
C55	C	1.274349	-0.633668	0.507975
C56	C	1.774349	-0.133668	1.007975
C57	C	1.274398	-0.715985	0.507989
C58	C	1.774398	-0.215985	1.007989
C59	C	1.274508	-1.015085	0.508078
C60	C	1.774508	-0.515085	1.008078
C61	C	1.347810	-0.984118	0.442402
C62	C	1.847810	-0.484118	0.942402
C63	C	1.348039	-0.898520	0.442596
C64	C	1.848039	-0.398520	0.942596
C65	C	1.274453	-0.866698	0.508033
C66	C	1.774453	-0.366698	1.008033
C67	C	1.294669	-0.903220	0.604287
C68	C	1.794669	-0.403220	1.104287
C69	C	1.295227	-0.988875	0.603939
C70	C	1.795227	-0.488875	1.103939
C71	C	1.180758	-0.977738	0.478309
C72	C	1.680758	-0.477738	0.978309
C73	C	1.181350	-0.892017	0.476221
C74	C	1.681350	-0.392017	0.976221
C75	C	1.274421	-0.782836	0.508014
C76	C	1.774421	-0.282836	1.008014
C77	C	1.274542	-1.098948	0.508104
C78	C	1.774542	-0.598948	1.008104
C79	C	1.508951	-0.453045	0.521556
C80	C	2.008951	0.046955	1.021556
C81	C	1.608893	-0.458066	0.527323
C82	C	2.108893	0.041934	1.027323
C83	C	1.260938	-0.451673	0.742547
C84	C	1.760938	0.048327	1.242547
C85	C	1.255192	-0.456108	0.842488
C86	C	1.755192	0.043892	1.342488
C87	C	1.274521	-0.248109	0.508092
C88	C	1.774521	0.251891	1.008092
C89	C	1.274563	-0.165798	0.508122
C90	C	1.774563	0.334202	1.008122
C91	C	1.287908	-0.430843	0.274414
C92	C	1.787908	0.069157	0.774414
C93	C	1.293829	-0.426208	0.174484
C94	C	1.793829	0.073792	0.674484
C95	C	1.359446	-0.375486	1.036958
C96	C	1.859446	0.124514	1.536958
C97	C	1.354049	-0.379651	1.130861
C98	C	1.854049	0.120349	1.630861
C99	C	1.238998	-0.468600	1.124198
C100	C	1.738998	0.031400	1.624198
C101	C	1.244395	-0.464435	1.030295
C102	C	1.744395	0.035565	1.530295
C103	C	1.304622	-0.417877	0.986678
C104	C	1.804622	0.082123	1.486678
C105	C	1.310022	-0.413716	0.892774
C106	C	1.810022	0.086284	1.392774
C107	C	1.194967	-0.502661	0.886113
C108	C	1.694967	-0.002661	1.386113
C109	C	1.189570	-0.506826	0.980016
C110	C	1.689570	-0.006826	1.480016
H111	H	0.623588	-0.367821	0.423691
H112	H	1.123588	0.132179	0.923691
O113	O	1.413171	-0.333916	1.185087
O114	O	1.913171	0.166084	1.685087
H115	H	1.399292	-0.344624	1.257712
H116	H	1.899292	0.155376	1.757712
O117	O	1.135813	-0.548356	0.831860
O118	O	1.635813	-0.048356	1.331860
H119	H	1.064219	-0.532895	0.845825
H120	H	1.564219	-0.032895	1.345825
H121	H	0.938125	-0.333414	0.384157
H122	H	1.438125	0.166586	0.884157
O123	O	1.227182	-1.016306	0.671347
O124	O	1.727182	-0.516306	1.171347
H125	H	1.261662	-1.054308	0.722997
H126	H	1.761662	-0.554308	1.222997
H127	H	0.782000	-0.557704	0.641750
H128	H	1.282000	-0.057704	1.141750
H129	H	0.767743	-0.324890	0.374377
H130	H	1.267743	0.175110	0.874377
O131	O	1.424411	-0.325283	0.989907
O132	O	1.924411	0.174717	1.489907
H133	H	1.386650	-0.283690	0.944807
H134	H	1.886650	0.216310	1.444807
H135	H	1.336026	-0.873618	0.371397
H136	H	1.836026	-0.373618	0.871397
O137	O	1.332268	-1.006868	0.348072
O138	O	1.832268	-0.506868	0.848072
H139	H	1.265027	-0.984544	0.324430
H140	H	1.765027	-0.484544	0.824430
O141	O	0.937700	-0.528596	0.608329
O142	O	1.437700	-0.028596	1.108329
H143	H	0.886980	-0.560920	0.645470
H144	H	1.386980	-0.060920	1.145470
O145	O	1.174037	-0.518808	1.171248
O146	O	1.674037	-0.018808	1.671248
H147	H	1.104512	-0.501757	1.149158
H148	H	1.604512	-0.001757	1.649158
H149	H	1.161309	-0.995197	0.409052
H150	H	1.661309	-0.495197	0.909052
H151	H	1.140534	-0.544731	1.015541
H152	H	1.640534	-0.044731	1.515541
H153	H	1.166007	-0.867677	0.405359
H154	H	1.666007	-0.367677	0.905359
O155	O	0.598358	-0.561825	0.646344
O156	O	1.098358	-0.061825	1.146344
H157	H	0.644494	-0.599027	0.689008
H158	H	1.144494	-0.099027	1.189008
H159	H	1.417595	-0.882229	0.462726
H160	H	1.917595	-0.382229	0.962726
O161	O	1.439456	-1.018135	0.468792
O162	O	1.939456	-0.518135	0.968792
H163	H	1.433025	-1.057001	0.528483
H164	H	1.933025	-0.557001	1.028483
H165	H	1.363592	-1.013201	0.628519
H166	H	1.863592	-0.513201	1.128519
H167	H	1.242675	-0.882784	0.654772
H168	H	1.742675	-0.382784	1.154772
H169	H	1.362235	-0.886096	0.629170
H170	H	1.862235	-0.386096	1.129170
O171	O	1.105691	-0.862854	0.534352
O172	O	1.605691	-0.362854	1.034352
H173	H	1.133390	-0.829716	0.587066
H174	H	1.633390	-0.329716	1.087066
H175	H	1.126209	-0.997676	0.526077
H176	H	1.626209	-0.497676	1.026077
H177	H	1.359063	-0.375807	0.857263
H178	H	1.859063	0.124193	1.357263
