data_functionalizedCrystal
_audit_creation_method	'MofGen! by Chris Wilmer'
_symmetry_space_group_name_H-M	'P1'
_symmetry_Int_Tables_number	1
_symmetry_cell_setting	triclinic
loop_
_symmetry_equiv_pos_as_xyz
  x,y,z
_cell_length_a	9.616153
_cell_length_b	10.723024
_cell_length_c	10.723024
_cell_angle_alpha	84.467869
_cell_angle_beta	90.004606
_cell_angle_gamma	90.002509
loop_
_atom_site_label
_atom_site_type_symbol
_atom_site_fract_x
_atom_site_fract_y
_atom_site_fract_z
O1	O	-0.115633	-1.657185	-0.175029
O2	O	-0.115637	-1.294033	-0.191783
O3	O	-0.115630	-1.483986	-0.001830
O4	O	-0.115640	-1.467232	-0.364982
O5	O	0.115662	-1.483976	-0.001819
O6	O	0.115654	-1.294023	-0.191772
O7	O	0.115659	-1.657175	-0.175019
Zn8	Zn	0.152379	-1.475597	-0.183394
Zn9	Zn	-0.152357	-1.475611	-0.183408
O10	O	0.115651	-1.467222	-0.364972
C11	C	0.000008	-1.247528	-0.190558
C12	C	0.000006	-1.108974	-0.186911
N13	N	0.360353	-1.475597	-0.183384
N14	N	-0.360332	-1.475620	-0.183408
C15	C	0.419356	-1.577266	-0.081784
C16	C	0.580523	-1.577646	-0.082066
C17	C	0.581129	-1.504631	-0.314015
C18	C	0.419912	-1.505349	-0.313406
C19	C	0.419787	-1.344623	-0.155550
C20	C	0.581016	-1.345487	-0.152613
C21	C	0.000014	-1.482762	0.044675
C22	C	0.000009	-1.479114	0.183229
C23	C	0.000010	-1.703680	-0.176243
C24	C	0.000003	-1.842234	-0.179891
C25	C	0.000002	-1.033991	-0.293198
C26	C	0.000001	-0.890788	-0.289431
C27	C	0.000004	-1.468447	-0.411477
C28	C	-0.000000	-1.472094	-0.550031
C29	C	0.000009	-1.585401	0.258212
C30	C	0.000004	-1.581634	0.401415
H31	H	0.620104	-1.560286	0.014968
H32	H	-0.000027	-1.067152	-0.093125
C33	C	-0.000013	-1.676967	0.613414
C34	C	-0.000004	-1.704476	0.488387
H35	H	-0.000028	-1.752809	0.667107
H36	H	0.080640	-1.629731	0.628978
H37	H	-0.080674	-1.629720	0.628954
H38	H	0.080662	-1.751716	0.472845
H39	H	-0.080665	-1.751732	0.472818
C40	C	-0.118902	-1.344382	0.287300
C41	C	-0.000005	-1.349245	0.363007
H42	H	-0.118906	-1.268536	0.233614
H43	H	-0.118885	-1.413583	0.238278
H44	H	-0.199550	-1.347709	0.338668
H45	H	0.080644	-1.345928	0.311639
H46	H	-0.000009	-1.280025	0.412033
H47	H	-0.000001	-1.385328	0.225051
H48	H	0.378815	-1.673897	-0.099476
H49	H	0.380574	-1.560194	0.015571
H50	H	0.000018	-1.679187	0.216390
H51	H	0.380878	-1.433937	-0.391180
C52	C	0.518556	-1.787396	-0.120679
C53	C	0.632590	-1.708835	-0.106332
H54	H	0.550703	-1.868386	-0.135673
H55	H	0.463944	-1.793286	-0.046541
H56	H	0.463697	-1.753800	-0.189568
H57	H	0.687444	-1.742426	-0.037436
H58	H	0.687226	-1.702949	-0.180478
C59	C	0.276959	-1.401343	0.024668
C60	C	0.364933	-1.307174	-0.029600
H61	H	0.243101	-1.378235	0.102430
H62	H	0.200939	-1.411931	-0.029881
H63	H	0.327186	-1.477726	0.038279
H64	H	0.314704	-1.230793	-0.043219
H65	H	0.440965	-1.296572	0.024962
C66	C	0.483922	-1.710217	-0.366163
C67	C	0.369125	-1.634322	-0.346170
H68	H	0.452570	-1.789844	-0.386380
H69	H	0.538090	-1.671902	-0.433351
H70	H	0.538948	-1.720394	-0.292306
H71	H	0.314103	-1.624138	-0.420031
H72	H	0.314934	-1.672646	-0.278976
H73	H	-0.000002	-0.906659	-0.088896
C74	C	0.000005	-1.221373	-0.399038
C75	C	0.000002	-1.090436	-0.419814
H76	H	-0.000003	-1.256214	-0.477209
H77	H	0.080658	-1.248349	-0.352916
H78	H	-0.080656	-1.248357	-0.352915
H79	H	0.080668	-1.063452	-0.465929
H80	H	-0.080659	-1.063450	-0.465956
H81	H	0.619437	-1.432578	-0.391514
H82	H	0.621271	-1.266243	-0.221701
H83	H	0.621497	-1.599084	-0.338854
C84	C	0.222744	-1.238275	-0.253596
C85	C	0.368259	-1.242459	-0.255519
H86	H	0.190929	-1.175202	-0.315306
H87	H	0.186510	-1.317186	-0.270919
H88	H	0.192109	-1.219579	-0.173261
H89	H	0.398895	-1.261164	-0.335852
H90	H	0.404507	-1.163530	-0.238205
C91	C	0.709706	-1.204461	-0.035372
C92	C	0.632649	-1.315767	-0.022898
H93	H	0.741574	-1.186112	0.044712
H94	H	0.787180	-1.213900	-0.088592
H95	H	0.652612	-1.137878	-0.070678
H96	H	0.689747	-1.382352	0.012399
H97	H	0.555165	-1.306335	0.030342
C98	C	-0.000015	-0.876104	-0.514278
C99	C	-0.000010	-0.803818	-0.412274
H100	H	-0.000031	-0.822407	-0.590117
H101	H	0.080640	-0.927446	-0.510954
H102	H	-0.080674	-0.927467	-0.510949
H103	H	0.080655	-0.752461	-0.415599
H104	H	-0.080673	-0.752453	-0.415600
