data_functionalizedCrystal
_audit_creation_method	'MofGen! by Chris Wilmer'
_symmetry_space_group_name_H-M	'P1'
_symmetry_Int_Tables_number	1
_symmetry_cell_setting	triclinic
loop_
_symmetry_equiv_pos_as_xyz
  x,y,z
_cell_length_a	15.297979
_cell_length_b	17.639999
_cell_length_c	15.299447
_cell_angle_alpha	112.543413
_cell_angle_beta	72.610105
_cell_angle_gamma	93.434415
loop_
_atom_site_label
_atom_site_type_symbol
_atom_site_fract_x
_atom_site_fract_y
_atom_site_fract_z
Zn1	Zn	1.506911	-0.031641	-0.778705
Zn2	Zn	2.006911	0.468359	-0.278705
Zn3	Zn	1.511338	0.128222	-0.591758
Zn4	Zn	2.011338	0.628222	-0.091758
Zn5	Zn	1.335320	0.023697	-0.585346
Zn6	Zn	1.835320	0.523697	-0.085346
Zn7	Zn	1.382770	0.128150	-0.720301
Zn8	Zn	1.882770	0.628150	-0.220301
O9	O	1.434085	0.062107	-0.669028
O10	O	1.934085	0.562107	-0.169028
O11	O	1.633116	-0.033564	-0.781032
O12	O	2.133116	0.466436	-0.281032
O13	O	1.469984	0.137547	-0.456191
O14	O	1.969984	0.637547	0.043809
O15	O	1.336372	-0.094260	-0.632754
O16	O	1.836372	0.405740	-0.132754
O17	O	1.636369	0.083887	-0.643683
O18	O	2.136369	0.583887	-0.143683
O19	O	1.462439	-0.134917	-0.774814
O20	O	1.962439	0.365083	-0.274814
O21	O	1.340665	0.060753	-0.451479
O22	O	1.840665	0.560753	0.048521
O23	O	1.215997	0.060682	-0.576122
O24	O	1.715997	0.560682	-0.076122
O25	O	1.417242	0.083763	-0.862766
O26	O	1.917242	0.583763	-0.362766
O27	O	1.250858	0.137423	-0.675273
O28	O	1.750858	0.637423	-0.175273
O29	O	1.508449	-0.033634	-0.905675
O30	O	2.008449	0.466366	-0.405675
O31	O	1.515994	0.238830	-0.587052
O32	O	2.015994	0.738830	-0.087052
O33	O	1.421535	0.238776	-0.681491
O34	O	1.921535	0.738776	-0.181491
C35	C	1.200856	0.105050	-0.618664
C36	C	1.700856	0.605050	-0.118664
C37	C	1.101087	0.123436	-0.597138
C38	C	1.601087	0.623436	-0.097138
C39	C	1.055878	0.193161	-0.515431
C40	C	1.555878	0.693161	-0.015431
C41	C	0.962141	0.210437	-0.495211
C42	C	1.462141	0.710437	0.004789
C43	C	0.913601	0.157986	-0.556689
C44	C	1.413601	0.657986	-0.056689
C45	C	0.958808	0.088256	-0.638393
C46	C	1.458808	0.588256	-0.138393
C47	C	1.052556	0.070982	-0.658621
C48	C	1.552556	0.570982	-0.158621
C49	C	0.910279	0.035806	-0.699878
C50	C	1.410279	0.535806	-0.199878
C51	C	0.955486	-0.033923	-0.781582
C52	C	1.455486	0.466077	-0.281582
C53	C	1.049225	-0.051194	-0.801805
C54	C	1.549225	0.448806	-0.301805
C55	C	1.097765	0.001257	-0.740327
C56	C	1.597765	0.501257	-0.240327
C57	C	0.816531	0.053080	-0.679651
C58	C	1.316531	0.553080	-0.179651
C59	C	0.813209	-0.069099	-0.822840
C60	C	1.313209	0.430901	-0.322840
C61	C	0.906947	-0.086375	-0.843061
C62	C	1.406947	0.413625	-0.343061
C63	C	1.474421	0.267476	-0.628656
C64	C	1.974421	0.767476	-0.128656
C65	C	1.491763	0.355314	-0.611435
C66	C	1.991763	0.855314	-0.111435
C67	C	1.302610	0.644304	-0.800234
C68	C	1.802610	1.144304	-0.300234
C69	C	1.318903	0.726845	-0.784021
C70	C	1.818903	1.226845	-0.284021
C71	C	1.417351	0.726801	-0.685821
C72	C	1.917351	1.226801	-0.185821
C73	C	1.401069	0.644257	-0.702029
C74	C	1.901069	1.144257	-0.202029
C75	C	1.343697	0.603015	-0.759235
C76	C	1.843697	1.103015	-0.259235
C77	C	1.442156	0.602968	-0.661031
C78	C	1.942156	1.102968	-0.161031
C79	C	1.425872	0.520432	-0.677234
C80	C	1.925872	1.020432	-0.177234
C81	C	1.368500	0.479185	-0.734435
C82	C	1.868500	0.979185	-0.234435
C83	C	1.327413	0.520479	-0.775438
C84	C	1.827413	1.020479	-0.275438
C85	C	1.499523	0.644213	-0.603819
C86	C	1.999523	1.144213	-0.103819
C87	C	1.540611	0.602924	-0.562821
C88	C	2.040611	1.102924	-0.062821
C89	C	1.524332	0.520385	-0.579029
C90	C	2.024332	1.020385	-0.079029
C91	C	1.466960	0.479138	-0.636230
C92	C	1.966960	0.979138	-0.136230
C93	C	1.565420	0.479091	-0.538026
C94	C	2.065420	0.979091	-0.038026
C95	C	1.549135	0.396555	-0.554229
C96	C	2.049135	0.896555	-0.054229
C97	C	1.450676	0.396603	-0.652433
C98	C	1.950676	0.896603	-0.152433
C99	C	1.668224	0.018997	-0.719588
C100	C	2.168224	0.518997	-0.219588
C101	C	1.768001	0.000626	-0.741134
C102	C	2.268001	0.500626	-0.241134
C103	C	1.393590	0.855934	-0.709573
C104	C	1.893590	1.355934	-0.209573
C105	C	1.376260	0.768090	-0.726824
C106	C	1.876260	1.268090	-0.226824
C107	C	1.467645	0.018884	-0.920128
C108	C	1.967645	0.518884	-0.420128
C109	C	1.481946	0.000464	-1.027131
C110	C	1.981946	0.500464	-0.527131
C111	C	1.332316	0.193036	-1.239396
C112	C	1.832316	0.693036	-0.739396
C113	C	1.318869	0.210339	-1.138859
C114	C	1.818869	0.710339	-0.638859
C115	C	1.359637	0.157872	-1.110922
C116	C	1.859637	0.657872	-0.610922
C117	C	1.413854	0.088098	-1.183532
C118	C	1.913854	0.588098	-0.683532
C119	C	1.427295	0.070790	-1.284078
C120	C	1.927295	0.570790	-0.784078
C121	C	1.454617	0.035626	-1.155604
C122	C	1.954617	0.535626	-0.655604
C123	C	1.508834	-0.034147	-1.228214
C124	C	2.008834	0.465853	-0.728214
C125	C	1.522273	-0.051452	-1.328750
C126	C	2.022273	0.448548	-0.828750
C127	C	1.481505	0.001014	-1.356687
C128	C	1.981505	0.501014	-0.856687
C129	C	1.441176	0.052935	-1.055058
C130	C	1.941176	0.552935	-0.555058
C131	C	1.536155	-0.069311	-1.099741
C132	C	2.036155	0.430689	-0.599741
C133	C	1.549602	-0.086614	-1.200277
C134	C	2.049602	0.413386	-0.700277
C135	C	1.400696	0.105096	-0.418927
C136	C	1.900696	0.605096	0.081073
C137	C	1.386525	0.123260	-0.312005
C138	C	1.886525	0.623260	0.187995
H139	H	0.925340	0.267211	-0.428687
H140	H	1.425340	0.767211	0.071313
Br141	Br	1.121759	0.264344	-0.432015
Br142	Br	1.621759	0.764344	0.067985
Br143	Br	1.521663	0.756215	-0.581873
Br144	Br	2.021663	1.256215	-0.081873
Br145	Br	1.372825	0.340619	-0.730085
Br146	Br	1.872825	0.840619	-0.230085
H147	H	1.397025	0.109741	-0.995948
H148	H	1.897025	0.609741	-0.495948
Br149	Br	1.263119	0.782884	-0.839651
Br150	Br	1.763119	1.282884	-0.339651
Br151	Br	0.968309	-0.181005	-0.953941
Br152	Br	1.468309	0.318995	-0.453941
Br153	Br	1.110581	-0.145816	-0.912704
Br154	Br	1.610581	0.354184	-0.412704
Br155	Br	1.224987	-0.022184	-0.767770
Br156	Br	1.724987	0.477816	-0.267770
H157	H	0.837276	0.172056	-0.540220
H158	H	1.337276	0.672056	-0.040220
Br159	Br	1.499761	-0.022461	-1.493135
Br160	Br	1.999761	0.477539	-0.993135
Br161	Br	1.341387	0.181355	-0.974477
Br162	Br	1.841387	0.681355	-0.474477
H163	H	1.593745	-0.143425	-1.259410
H164	H	2.093745	0.356575	-0.759410
Br165	Br	1.595869	-0.146135	-1.427291
Br166	Br	2.095869	0.353865	-0.927291
Br167	Br	1.591490	-0.140519	-1.061836
Br168	Br	2.091490	0.359481	-0.561836
H169	H	1.587320	0.636515	-0.516241
H170	H	2.087320	1.136515	-0.016241
Br171	Br	1.224759	0.588321	-0.877886
Br172	Br	1.724759	1.088321	-0.377886
Br173	Br	1.643269	0.535075	-0.460381
Br174	Br	2.143269	1.035075	0.039619
Br175	Br	0.747344	-0.140284	-0.906286
Br176	Br	1.247344	0.359716	-0.406286
H177	H	1.582592	0.362938	-0.520842
H178	H	2.082592	0.862938	-0.020842
H179	H	1.274735	0.267154	-1.079747
H180	H	1.774735	0.767154	-0.579747
H181	H	1.299124	0.235744	-1.262153
H182	H	1.799124	0.735744	-0.762153
Br183	Br	0.755191	0.147712	-0.568773
Br184	Br	1.255191	0.647712	-0.068773
Br185	Br	1.249562	0.464496	-0.853091
Br186	Br	1.749562	0.964496	-0.353091
H187	H	1.464060	0.760392	-0.639241
H188	H	1.964060	1.260392	-0.139241
H189	H	1.355236	0.411982	-0.747618
H190	H	1.855236	0.911982	-0.247618
