data_functionalizedCrystal
_audit_creation_method	'MofGen! by Chris Wilmer'
_symmetry_space_group_name_H-M	'P1'
_symmetry_Int_Tables_number	1
_symmetry_cell_setting	triclinic
loop_
_symmetry_equiv_pos_as_xyz
  x,y,z
_cell_length_a	16.109301
_cell_length_b	11.792254
_cell_length_c	14.586319
_cell_angle_alpha	89.996031
_cell_angle_beta	89.999213
_cell_angle_gamma	83.830039
loop_
_atom_site_label
_atom_site_type_symbol
_atom_site_fract_x
_atom_site_fract_y
_atom_site_fract_z
O1	O	1.103822	0.145884	-0.076183
O2	O	1.603822	0.645884	0.423817
O3	O	0.861846	0.164039	-0.076197
O4	O	1.361846	0.664039	0.423803
O5	O	0.988701	-0.010259	-0.076183
O6	O	1.488701	0.489741	0.423817
O7	O	0.976968	0.320183	-0.076197
O8	O	1.476968	0.820183	0.423803
O9	O	0.988692	-0.010262	0.076298
O10	O	1.488692	0.489738	0.576298
O11	O	0.861837	0.164037	0.076283
O12	O	1.361837	0.664037	0.576283
O13	O	1.103813	0.145882	0.076298
O14	O	1.603813	0.645882	0.576298
Cu15	Cu	0.982825	0.154959	0.090213
Cu16	Cu	1.482825	0.654959	0.590213
Cu17	Cu	0.982835	0.154962	-0.090113
Cu18	Cu	1.482835	0.654962	0.409887
O19	O	0.976959	0.320180	0.076284
O20	O	1.476959	0.820180	0.576284
C21	C	0.987957	-0.052545	0.000057
C22	C	1.487957	0.447455	0.500057
C23	C	0.985745	-0.178538	0.000056
C24	C	1.485745	0.321462	0.500056
C25	C	0.830863	0.163303	0.000041
C26	C	1.330863	0.663303	0.500041
C27	C	0.738558	0.161098	0.000036
C28	C	1.238558	0.661098	0.500036
C29	C	0.516751	0.259397	0.000042
C30	C	1.016751	0.759397	0.500042
C31	C	0.430021	0.257316	0.000048
C32	C	0.930021	0.757316	0.500048
C33	C	0.448915	0.050517	0.000053
C34	C	0.948915	0.550517	0.500053
C35	C	0.535644	0.052598	0.000054
C36	C	1.035644	0.552598	0.500054
C37	C	0.569559	0.157042	0.000044
C38	C	1.069559	0.657042	0.500044
C39	C	0.396100	0.152880	0.000049
C40	C	0.896100	0.652880	0.500049
C41	C	0.302064	0.150623	0.000055
C42	C	0.802064	0.650623	0.500055
C43	C	0.663602	0.159299	0.000039
C44	C	1.163602	0.659299	0.500039
C45	C	0.983948	-0.280859	0.000053
C46	C	1.483948	0.219141	0.500053
C47	C	0.981700	-0.409226	0.000044
C48	C	1.481700	0.090774	0.500044
C49	C	1.134796	0.146618	0.000057
C50	C	1.634796	0.646618	0.500057
C51	C	1.227102	0.148823	0.000057
C52	C	1.727102	0.648823	0.500057
C53	C	0.977702	0.362466	0.000042
C54	C	1.477702	0.862466	0.500042
C55	C	0.979915	0.488459	0.000037
C56	C	1.479915	0.988459	0.500037
N57	N	0.982823	0.154956	0.217045
N58	N	1.482823	0.654956	0.717045
N59	N	0.982843	0.154956	-0.216944
N60	N	1.482843	0.654956	0.283056
C61	C	1.039013	0.077803	0.452058
C62	C	1.539013	0.577803	0.952058
C63	C	1.039016	0.077800	0.548039
C64	C	1.539016	0.577800	1.048039
C65	C	0.926647	0.232113	0.548036
C66	C	1.426647	0.732113	1.048036
C67	C	0.926641	0.232110	0.452057
C68	C	1.426641	0.732110	0.952057
C69	C	0.982829	0.154956	0.404070
C70	C	1.482829	0.654956	0.904070
C71	C	0.982837	0.154957	0.596031
C72	C	1.482837	0.654957	1.096031
C73	C	0.982839	0.154954	0.700098
C74	C	1.482839	0.654954	1.200098
C75	C	0.982826	0.154956	0.299996
C76	C	1.482826	0.654956	0.799996
H77	H	0.544362	0.344441	0.000041
H78	H	1.044362	0.844441	0.500041
H79	H	0.421290	-0.034517	0.000067
H80	H	0.921290	0.465483	0.500067
Cl81	Cl	0.363637	0.385997	0.000048
Cl82	Cl	0.863637	0.885997	0.500048
Cl83	Cl	0.602036	-0.076087	0.000063
Cl84	Cl	1.102036	0.423913	0.500063
H85	H	0.880901	0.294932	0.587116
H86	H	1.380901	0.794932	1.087116
H87	H	1.084765	0.014974	0.587108
H88	H	1.584765	0.514974	1.087108
H89	H	1.084764	0.014978	0.412989
H90	H	1.584764	0.514978	0.912989
H91	H	0.880885	0.294937	0.412982
H92	H	1.380885	0.794937	0.912982
