data_functionalizedCrystal
_audit_creation_method	'MofGen! by Chris Wilmer'
_symmetry_space_group_name_H-M	'P1'
_symmetry_Int_Tables_number	1
_symmetry_cell_setting	triclinic
loop_
_symmetry_equiv_pos_as_xyz
  x,y,z
_cell_length_a	16.959455
_cell_length_b	29.839131
_cell_length_c	16.959447
_cell_angle_alpha	90.033915
_cell_angle_beta	90.020374
_cell_angle_gamma	90.038440
loop_
_atom_site_label
_atom_site_type_symbol
_atom_site_fract_x
_atom_site_fract_y
_atom_site_fract_z
Zn1	Zn	1.208267	-0.178880	0.447017
Zn2	Zn	1.208140	-0.254013	0.314830
Zn3	Zn	1.076095	-0.178894	0.314840
Zn4	Zn	1.076010	-0.253980	0.446954
O5	O	1.142128	-0.216442	0.380910
O6	O	1.318861	-0.188855	0.429503
O7	O	1.190606	-0.244069	0.204220
O8	O	1.093716	-0.116025	0.332404
O9	O	1.318767	-0.244055	0.332386
O10	O	1.190822	-0.116015	0.429513
O11	O	1.093593	-0.188879	0.204228
O12	O	0.965473	-0.188847	0.332344
O13	O	1.093572	-0.243998	0.557574
O14	O	0.965411	-0.244012	0.429407
O15	O	1.190740	-0.188822	0.557619
O16	O	1.190524	-0.316876	0.332326
O17	O	1.093449	-0.316852	0.429397
C18	C	0.936762	-0.216427	0.380870
C19	C	0.848905	-0.216432	0.380872
C20	C	0.477370	-0.245156	0.330315
C21	C	0.477489	-0.187765	0.431601
C22	C	0.560034	-0.187758	0.431582
C23	C	0.601252	-0.216450	0.380929
C24	C	0.559924	-0.245151	0.330296
C25	C	0.601369	-0.159061	0.482220
C26	C	0.683920	-0.159053	0.482203
C27	C	0.725139	-0.187744	0.431546
C28	C	0.683806	-0.216445	0.380910
C29	C	0.725023	-0.245138	0.330258
C30	C	0.683692	-0.273837	0.279618
C31	C	0.601143	-0.273842	0.279639
C32	C	0.807687	-0.187739	0.431524
C33	C	0.807577	-0.245132	0.330239
C34	C	1.141985	-0.333165	0.380871
C35	C	1.141996	-0.383099	0.380881
C36	C	1.192767	-0.692743	0.330439
C37	C	1.192864	-0.880416	0.330470
O38	O	1.235918	-0.904680	0.287552
N39	N	1.142292	-0.903884	0.380970
C40	C	1.091695	-0.880431	0.431470
O41	O	1.048688	-0.904699	0.474429
C42	C	1.091602	-0.692759	0.431442
C43	C	1.142172	-0.669293	0.380933
C44	C	1.243333	-0.669276	0.279935
C45	C	1.243305	-0.622361	0.279924
C46	C	1.192711	-0.598912	0.330419
C47	C	1.142144	-0.622378	0.380923
C48	C	1.041010	-0.669307	0.481945
C49	C	1.040993	-0.622386	0.481935
C50	C	1.091563	-0.598920	0.431426
C51	C	1.091522	-0.552013	0.431407
N52	N	1.142094	-0.528544	0.380907
C53	C	1.192689	-0.551994	0.330413
C54	C	1.091746	-0.978962	0.431479
C55	C	1.091768	-1.025880	0.431485
C56	C	1.192939	-1.025861	0.330486
C57	C	1.192912	-0.978942	0.330477
C58	C	1.142319	-0.955493	0.380979
C59	C	1.192626	-0.453468	0.330394
C60	C	1.192591	-0.406548	0.330386
C61	C	1.091424	-0.406572	0.431388
C62	C	1.091455	-0.453487	0.431394
C63	C	1.142063	-0.476934	0.380894
O64	O	1.048497	-0.527719	0.474308
O65	O	1.235702	-0.527718	0.287471
C66	C	1.192795	-0.739658	0.330449
C67	C	1.142228	-0.763124	0.380954
C68	C	1.091634	-0.739675	0.431448
C69	C	1.142250	-0.810042	0.380959
C70	C	1.192845	-0.833491	0.330465
C71	C	1.243417	-0.810023	0.279965
C72	C	1.243389	-0.763107	0.279955
C73	C	1.041061	-0.763143	0.481948
C74	C	1.041093	-0.810059	0.481953
C75	C	1.091687	-0.833508	0.431459
C76	C	1.348296	-0.216457	0.380951
C77	C	1.436153	-0.216463	0.380968
C78	C	1.142161	-0.216405	0.587078
C79	C	1.142175	-0.216389	0.674935
C80	C	1.142293	-0.099264	0.380967
C81	C	1.142363	-0.049329	0.380991
C82	C	1.142141	-0.216447	0.175544
C83	C	1.142280	-0.216336	0.087688
C84	C	1.091678	-0.245069	1.046390
C85	C	1.192860	-0.187614	1.046432
C86	C	1.192839	-0.187624	0.963886
C87	C	1.142238	-0.216357	0.922588
C88	C	1.091657	-0.245080	0.963836
C89	C	1.243424	-0.158904	0.922632
C90	C	1.243406	-0.158913	0.840081
C91	C	1.192800	-0.187644	0.798782
C92	C	1.142217	-0.216368	0.840035
C93	C	1.091615	-0.245101	0.798737
C94	C	1.041028	-0.273823	0.839988
C95	C	1.041051	-0.273811	0.922536
C96	C	1.192776	-0.187656	0.716233
C97	C	1.091595	-0.245112	0.716183
H98	H	0.717262	-0.297201	0.238381
C99	C	1.036784	-0.276336	0.671244
C100	C	1.081490	-0.305133	0.623829
C101	C	1.031027	-0.333898	0.582411
H102	H	1.006643	-0.293482	0.707542
H103	H	1.002376	-0.259165	0.638999
H104	H	1.115885	-0.322303	0.656070
H105	H	1.111630	-0.287999	0.587515
H106	H	0.996618	-0.316727	0.550166
H107	H	1.000888	-0.351041	0.618715
H108	H	1.061352	-0.353437	0.550230
H109	H	1.233771	-0.387444	0.289253
H110	H	1.284538	-0.688364	0.238816
C111	C	0.852605	-0.156660	0.486597
C112	C	0.899989	-0.182133	0.537174
C113	C	0.941370	-0.153517	0.587926
H114	H	0.884873	-0.137052	0.456510
H115	H	0.816261	-0.139582	0.516816
H116	H	0.936328	-0.199203	0.506958
H117	H	0.867741	-0.201740	0.567279
H118	H	0.905026	-0.136439	0.618146
H119	H	0.973633	-0.133910	0.557833
H120	H	0.973519	-0.170796	0.622253
C121	C	1.247596	-0.478839	0.275477
C122	C	1.291853	-0.448239	0.231235
C123	C	1.342488	-0.471594	0.180626
H124	H	1.282103	-0.497112	0.305656
H125	H	1.217410	-0.497162	0.240965
H126	H	1.322037	-0.429924	0.265743
H127	H	1.257367	-0.429965	0.201040
H128	H	1.312302	-0.489917	0.146114
H129	H	1.376989	-0.489866	0.210812
H130	H	1.372517	-0.450835	0.150597
H131	H	0.841130	-0.268496	0.288988
H132	H	1.233966	-0.164272	0.682650
C133	C	0.556126	-0.304984	0.224754
C134	C	0.475012	-0.298856	0.235631
C135	C	0.433515	-0.327541	0.185094
H136	H	0.569530	-0.298400	0.171629
H137	H	0.569587	-0.335185	0.236230
H138	H	0.461556	-0.268661	0.224149
H139	H	0.461585	-0.305443	0.288745
H140	H	0.446976	-0.357743	0.196570
H141	H	0.446925	-0.320955	0.131973
H142	H	0.378475	-0.323391	0.192473
H143	H	1.284568	-0.744005	0.238826
H144	H	0.717565	-0.135684	0.523437
C145	C	0.986220	-0.304977	0.967466
C146	C	0.997087	-0.298826	1.048598
C147	C	0.946599	-0.327532	1.090014
H148	H	0.933084	-0.298428	0.954035
H149	H	0.997748	-0.335175	0.953966
H150	H	0.985554	-0.268635	1.062092
H151	H	1.050212	-0.305378	1.062052
H152	H	0.958127	-0.357730	1.076514
H153	H	0.893467	-0.320981	1.076577
H154	H	0.953971	-0.323365	1.145066
H155	H	1.050489	-0.268453	1.079980
H156	H	0.999862	-0.744054	0.523067
H157	H	1.284597	-0.135525	0.806501
H158	H	1.284626	-0.135514	0.956263
C159	C	0.432638	-0.156688	0.486638
C160	C	0.385239	-0.182165	0.537217
C161	C	0.343899	-0.153550	0.587921
H162	H	0.468983	-0.139583	0.516866
H163	H	0.400389	-0.137104	0.456491
H164	H	0.417485	-0.201741	0.567361
H165	H	0.348879	-0.199269	0.507011
H166	H	0.311650	-0.133966	0.557775
H167	H	0.380250	-0.136447	0.618144
H168	H	0.311729	-0.170832	0.622240
C169	C	0.556515	-0.127985	0.537255
C170	C	0.509108	-0.153462	0.587825
C171	C	0.467764	-0.124848	0.638527
H172	H	0.592857	-0.110882	0.567489
H173	H	0.524271	-0.108399	0.507105
H174	H	0.541349	-0.173040	0.617971
H175	H	0.472751	-0.170564	0.557613
H176	H	0.435520	-0.105262	0.608378
H177	H	0.504112	-0.107746	0.668755
H178	H	0.435588	-0.142130	0.672840
H179	H	0.443714	-0.268521	0.289083
H180	H	1.050228	-0.387472	0.472498
H181	H	1.284486	-0.603258	0.238798
C182	C	1.247907	-0.953548	0.275611
C183	C	1.292227	-0.984132	0.231407
C184	C	1.342907	-0.960758	0.180863
H185	H	1.217775	-0.935272	0.241067
H186	H	1.282365	-0.935226	0.305860
H187	H	1.257773	-1.002446	0.201161
H188	H	1.322376	-1.002409	0.265930
H189	H	1.377365	-0.942436	0.211112
H190	H	1.312768	-0.942483	0.146325
H191	H	1.372989	-0.981505	0.150870
H192	H	1.234135	-1.044961	0.289372
C193	C	1.036827	-1.051273	0.486404
C194	C	0.992533	-1.020689	0.530636
C195	C	0.941922	-1.044063	0.581248
H196	H	1.002342	-1.069608	0.456228
H197	H	1.067031	-1.069536	0.520922
H198	H	0.962331	-1.002434	0.496122
H199	H	1.026997	-1.002353	0.560828
H200	H	0.972127	-1.062326	0.615766
H201	H	0.907443	-1.062397	0.551066
H202	H	0.911868	-1.023315	0.611270
C203	C	1.036937	-0.953484	0.486408
C204	C	1.081635	-0.926514	0.537136
C205	C	1.031170	-0.903045	0.587751
H206	H	1.002489	-0.935176	0.456228
H207	H	1.006839	-0.974171	0.516524
H208	H	1.111721	-0.905830	0.507023
H209	H	1.116081	-0.944812	0.567333
H210	H	1.001071	-0.923732	0.617867
H211	H	0.996724	-0.884739	0.557565
H212	H	1.061490	-0.884747	0.622180
C213	C	0.986077	-0.694696	0.536876
C214	C	0.941789	-0.664108	0.581106
C215	C	0.891183	-0.687478	0.631728
H216	H	0.951588	-0.713032	0.506706
H217	H	1.016284	-0.712957	0.571394
H218	H	0.911584	-0.645855	0.546592
H219	H	0.976257	-0.645771	0.611292
H220	H	0.921390	-0.705740	0.666246
H221	H	0.856699	-0.705814	0.601552
H222	H	0.861133	-0.666729	0.661749
H223	H	1.050279	-0.472594	0.472525
C224	C	0.986191	-0.596904	0.536865
C225	C	1.030901	-0.569932	0.587579
C226	C	0.980447	-0.546456	0.638195
H227	H	0.951742	-0.578596	0.506685
H228	H	0.956094	-0.617586	0.566991
H229	H	1.060985	-0.549251	0.557456
H230	H	1.065348	-0.588228	0.617777
H231	H	0.950349	-0.567139	0.668322
H232	H	0.946000	-0.528150	0.608009
H233	H	1.010775	-0.528156	0.672616
H234	H	1.284611	-0.829123	0.238849
H235	H	0.999905	-0.829161	0.523083
C236	C	0.986224	-0.305045	0.795039
C237	C	1.030938	-0.333839	0.747625
C238	C	0.980484	-0.362602	0.706194
H239	H	0.956077	-0.322194	0.831329
H240	H	0.951819	-0.287873	0.762792
H241	H	1.065329	-0.351010	0.779870
H242	H	1.061083	-0.316703	0.711320
H243	H	0.946079	-0.345430	0.673947
H244	H	0.950340	-0.379748	0.742490
H245	H	1.010815	-0.382139	0.674014
C246	C	1.247715	-0.156439	1.091410
C247	C	1.236897	-0.162571	1.172532
C248	C	1.287410	-0.133855	1.213992
H249	H	1.300842	-0.162991	1.077975
H250	H	1.236178	-0.126245	1.077949
H251	H	1.248438	-0.192759	1.185987
H252	H	1.183780	-0.156016	1.185990
H253	H	1.275874	-0.103661	1.200532
H254	H	1.340534	-0.140410	1.200551
H255	H	1.280072	-0.138009	1.269037
