data_functionalizedCrystal
_audit_creation_method	'MofGen! by Chris Wilmer'
_symmetry_space_group_name_H-M	'P1'
_symmetry_Int_Tables_number	1
_symmetry_cell_setting	triclinic
loop_
_symmetry_equiv_pos_as_xyz
  x,y,z
_cell_length_a	17.019383
_cell_length_b	17.019294
_cell_length_c	15.500227
_cell_angle_alpha	88.951630
_cell_angle_beta	83.288908
_cell_angle_gamma	83.133350
loop_
_atom_site_label
_atom_site_type_symbol
_atom_site_fract_x
_atom_site_fract_y
_atom_site_fract_z
O1	O	1.054586	0.092540	-0.157327
O2	O	1.554586	0.592540	0.342673
O3	O	0.824086	0.106165	-0.141188
O4	O	1.324086	0.606165	0.358812
O5	O	0.945330	-0.015075	-0.141175
O6	O	1.445330	0.484925	0.358825
O7	O	0.933342	0.213780	-0.157340
O8	O	1.433342	0.713780	0.342660
O9	O	0.937973	-0.007747	0.002715
O10	O	1.437973	0.492253	0.502715
O11	O	0.816728	0.113493	0.002702
O12	O	1.316728	0.613493	0.502702
O13	O	1.047229	0.099868	-0.013437
O14	O	1.547229	0.599868	0.486563
Cu15	Cu	0.931307	0.107350	0.007771
Cu16	Cu	1.431307	0.607350	0.507771
Cu17	Cu	0.940008	0.098683	-0.162396
Cu18	Cu	1.440008	0.598683	0.337604
O19	O	0.925984	0.221109	-0.013450
O20	O	1.425984	0.721109	0.486550
C21	C	0.790905	0.109455	-0.067020
C22	C	1.290905	0.609455	0.432980
C23	C	0.702999	0.108330	-0.060394
C24	C	1.202999	0.608330	0.439606
C25	C	0.665704	0.103809	-0.135709
C26	C	1.165704	0.603809	0.364291
C27	C	0.583105	0.102766	-0.129472
C28	C	1.083105	0.602766	0.370528
C29	C	0.537803	0.106238	-0.047918
C30	C	1.037803	0.606238	0.452082
C31	C	0.575104	0.110761	0.027403
C32	C	1.075104	0.610761	0.527403
C33	C	0.657701	0.111810	0.021164
C34	C	1.157701	0.611810	0.521164
C35	C	0.288213	0.103275	-0.025157
C36	C	0.788213	0.603275	0.474843
C37	C	0.205611	0.102224	-0.018924
C38	C	0.705611	0.602224	0.481076
C39	C	0.213617	0.094230	-0.175800
C40	C	0.713617	0.594230	0.324200
C41	C	0.296216	0.095274	-0.182031
C42	C	0.796216	0.595274	0.317969
C43	C	0.333509	0.099802	-0.106710
C44	C	0.833509	0.599802	0.393290
C45	C	0.453374	0.105169	-0.041540
C46	C	0.953374	0.605169	0.458460
C47	C	0.417936	0.100877	-0.113089
C48	C	0.917936	0.600877	0.386911
C49	C	0.941052	-0.040686	-0.067005
C50	C	1.441052	0.459314	0.432995
C51	C	0.939256	-0.127918	-0.060375
C52	C	1.439256	0.372082	0.439625
C53	C	0.942424	-0.172889	-0.135695
C54	C	1.442424	0.327111	0.364305
C55	C	0.940731	-0.254851	-0.129462
C56	C	1.440731	0.245149	0.370538
C57	C	0.935876	-0.291841	-0.047910
C58	C	1.435876	0.208159	0.452090
C59	C	0.932705	-0.246863	0.027415
C60	C	1.432705	0.253137	0.527415
C61	C	0.934392	-0.164902	0.021182
C62	C	1.434392	0.335098	0.521182
C63	C	0.930575	-0.539110	-0.025166
C64	C	1.430575	-0.039110	0.474834
C65	C	0.928890	-0.621078	-0.018938
C66	C	1.428890	-0.121078	0.481062
C67	C	0.936916	-0.629060	-0.175817
C68	C	1.436916	-0.129060	0.324183
C69	C	0.938608	-0.547098	-0.182043
C70	C	1.438608	-0.047098	0.317957
C71	C	0.935432	-0.502127	-0.106717
C72	C	1.435432	-0.002127	0.393283
C73	C	0.934148	-0.375619	-0.041537
C74	C	1.434148	0.124381	0.458463
C75	C	0.937155	-0.418349	-0.113090
C76	C	1.437155	0.081651	0.386910
C77	C	1.080409	0.096578	-0.087608
C78	C	1.580409	0.596578	0.412392
C79	C	1.168316	0.097703	-0.094239
C80	C	1.668316	0.597703	0.405761
C81	C	0.930263	0.246720	-0.087622
C82	C	1.430263	0.746720	0.412378
C83	C	0.932059	0.333950	-0.094258
C84	C	1.432059	0.833950	0.405742
N85	N	0.925193	0.113445	0.127456
N86	N	1.425193	0.613445	0.627456
N87	N	0.946128	0.092582	-0.282082
N88	N	1.446128	0.592582	0.217918
C89	C	0.976586	0.062090	0.172736
C90	C	1.476586	0.562090	0.672736
C91	C	0.971969	0.066707	0.263308
C92	C	1.471969	0.566707	0.763308
C93	C	0.915962	0.122683	0.308599
C94	C	1.415962	0.622683	0.808599
C95	C	0.864563	0.174041	0.263313
C96	C	1.364563	0.674041	0.763313
C97	C	0.869177	0.169419	0.172743
C98	C	1.369177	0.669419	0.672743
C99	C	0.899343	0.139318	0.582063
C100	C	1.399343	0.639318	1.082063
C101	C	0.894735	0.143937	0.672639
C102	C	1.394735	0.643937	1.172639
C103	C	1.002140	0.036602	0.672628
C104	C	1.502140	0.536602	1.172628
C105	C	1.006752	0.031989	0.582055
C106	C	1.506752	0.531989	1.082055
C107	C	0.955350	0.083343	0.536778
C108	C	1.455350	0.583343	1.036778
C109	C	0.911244	0.127406	0.401178
C110	C	1.411244	0.627406	0.901178
C111	C	0.960066	0.078617	0.444201
C112	C	1.460066	0.578617	0.944201
H113	H	0.454824	0.098054	-0.179491
H114	H	0.954824	0.598054	0.320509
H115	H	0.849125	0.189523	0.709510
H116	H	1.349125	0.689523	1.209510
C117	C	0.403544	0.108982	0.048167
C118	C	0.903544	0.608982	0.548167
H119	H	0.437582	0.111827	0.092134
H120	H	0.937582	0.611827	0.592134
H121	H	0.377065	0.062913	0.056832
H122	H	0.877065	0.562913	0.556832
H123	H	0.365248	0.154573	0.050882
H124	H	0.865248	0.654573	0.550882
H125	H	1.005664	0.033038	0.407323
H126	H	1.505664	0.533038	0.907323
C127	C	0.346044	0.091472	-0.271739
C128	C	0.846044	0.591472	0.228261
H129	H	0.400577	0.092741	-0.264667
H130	H	0.900577	0.592741	0.235333
H131	H	0.328236	0.135489	-0.305914
H132	H	0.828236	0.635489	0.194086
H133	H	0.340068	0.043829	-0.299976
H134	H	0.840068	0.543829	0.200024
H135	H	1.043988	-0.005209	0.709501
H136	H	1.543988	0.494791	1.209501
H137	H	0.942563	-0.516987	-0.248451
H138	H	1.442563	-0.016987	0.251549
H139	H	0.183244	0.090545	-0.237121
H140	H	0.683244	0.590545	0.262879
H141	H	0.928746	-0.276986	0.093817
H142	H	1.428746	0.223014	0.593817
H143	H	0.702583	0.100980	-0.202119
H144	H	1.202583	0.600980	0.297881
C145	C	0.930906	-0.115429	0.104031
C146	C	1.430906	0.384571	0.604031
H147	H	0.932598	-0.061318	0.088640
H148	H	1.432598	0.438682	0.588640
H149	H	0.975109	-0.133433	0.134316
H150	H	1.475109	0.366567	0.634316
H151	H	0.882845	-0.121006	0.140246
H152	H	1.382845	0.378994	0.640246
C153	C	0.842810	0.195812	0.532268
C154	C	1.342810	0.695812	1.032268
H155	H	0.808801	0.229816	0.572214
H156	H	1.308801	0.729816	1.072214
H157	H	0.811571	0.165885	0.501503
H158	H	1.311571	0.665885	1.001503
H159	H	0.873183	0.226604	0.492370
H160	H	1.373183	0.726604	0.992370
C161	C	1.068355	-0.029590	0.532243
C162	C	1.568355	0.470410	1.032243
H163	H	1.098298	-0.059519	0.572183
H164	H	1.598298	0.440481	1.072183
H165	H	1.103189	-0.003266	0.492342
H166	H	1.603189	0.496734	0.992342
H167	H	1.041578	-0.063986	0.501481
H168	H	1.541578	0.436014	1.001481
H169	H	0.939500	-0.665685	-0.237142
H170	H	1.439500	-0.165685	0.262858
H171	H	0.924932	-0.651192	0.047475
H172	H	1.424932	-0.151192	0.547475
C173	C	0.947765	-0.132208	-0.225403
C174	C	1.447765	0.367792	0.274597
H175	H	0.949403	-0.170732	-0.269366
H176	H	1.449403	0.329268	0.230634
H177	H	0.994720	-0.106615	-0.234068
H178	H	1.494720	0.393385	0.265932
H179	H	0.902454	-0.094186	-0.228124
H180	H	1.402454	0.405814	0.271876
H181	H	0.941103	-0.388228	-0.179489
H182	H	1.441103	0.111772	0.320511
H183	H	0.818957	0.219615	0.300194
H184	H	1.318957	0.719615	0.800194
H185	H	0.538212	0.113593	0.093806
H186	H	1.038212	0.613593	0.593806
C187	C	0.698730	0.116783	0.104009
C188	C	1.198730	0.616783	0.604009
H189	H	0.754408	0.116919	0.088613
H190	H	1.254408	0.616919	0.588613
H191	H	0.689462	0.072427	0.140239
H192	H	1.189462	0.572427	0.640239
H193	H	0.677636	0.164086	0.134278
H194	H	1.177636	0.664086	0.634278
C195	C	0.927096	-0.489654	0.057688
C196	C	1.427096	0.010346	0.557688
H197	H	0.923974	-0.523426	0.107147
H198	H	1.423974	-0.023426	0.607147
H199	H	0.881459	-0.451298	0.061496
H200	H	1.381459	0.048702	0.561496
H201	H	0.973725	-0.463735	0.055544
H202	H	1.473725	0.036265	0.555544
H203	H	0.943315	-0.291464	-0.190795
H204	H	1.443315	0.208536	0.309205
H205	H	0.930197	-0.405746	0.024863
H206	H	1.430197	0.094254	0.524863
H207	H	0.318567	0.106957	0.036175
H208	H	0.818567	0.606957	0.536175
H209	H	1.022196	0.016512	0.135866
H210	H	1.522196	0.516512	0.635866
C211	C	1.028510	0.010224	0.313111
C212	C	1.528510	0.510224	0.813111
H213	H	1.062534	-0.023767	0.273165
H214	H	1.562534	0.476233	0.773165
H215	H	0.998150	-0.020571	0.353011
H216	H	1.498150	0.479429	0.853011
H217	H	1.059743	0.040166	0.343871
H218	H	1.559743	0.540166	0.843871
C219	C	0.542086	0.097774	-0.212318
C220	C	1.042086	0.597774	0.287682
H221	H	0.580897	0.095842	-0.261780
H222	H	1.080897	0.595842	0.238220
H223	H	0.504116	0.143020	-0.216136
H224	H	1.004116	0.643020	0.283864
H225	H	0.515948	0.051362	-0.210154
H226	H	1.015948	0.551362	0.289846
H227	H	0.827326	0.211237	0.135877
H228	H	1.327326	0.711237	0.635877
C229	C	0.155779	0.106049	0.070789
C230	C	0.655779	0.606049	0.570789
H231	H	0.189818	0.108903	0.114754
H232	H	0.689818	0.608903	0.614754
H233	H	0.129304	0.059978	0.079462
H234	H	0.629304	0.559978	0.579462
H235	H	0.117480	0.151637	0.073498
H236	H	0.617480	0.651637	0.573498
H237	H	0.865643	0.172984	0.438061
H238	H	1.365643	0.672984	0.938061
