data_functionalizedCrystal
_audit_creation_method	'MofGen! by Chris Wilmer'
_symmetry_space_group_name_H-M	'P1'
_symmetry_Int_Tables_number	1
_symmetry_cell_setting	triclinic
loop_
_symmetry_equiv_pos_as_xyz
  x,y,z
_cell_length_a	15.944493
_cell_length_b	15.944493
_cell_length_c	16.176319
_cell_angle_alpha	89.999072
_cell_angle_beta	89.993150
_cell_angle_gamma	83.475044
loop_
_atom_site_label
_atom_site_type_symbol
_atom_site_fract_x
_atom_site_fract_y
_atom_site_fract_z
O1	O	1.114535	0.108105	-0.068725
O2	O	1.614535	0.608105	0.431275
O3	O	0.869976	0.121513	-0.068727
O4	O	1.369976	0.621513	0.431273
O5	O	0.998959	-0.007471	-0.068733
O6	O	1.498959	0.492529	0.431267
O7	O	0.985552	0.237088	-0.068719
O8	O	1.485552	0.737088	0.431281
O9	O	0.998942	-0.007479	0.068760
O10	O	1.498942	0.492521	0.568760
O11	O	0.869958	0.121504	0.068766
O12	O	1.369958	0.621504	0.568766
O13	O	1.114518	0.108097	0.068769
O14	O	1.614518	0.608097	0.568769
Cu15	Cu	0.992236	0.114800	0.081321
Cu16	Cu	1.492236	0.614800	0.581321
Cu17	Cu	0.992257	0.114810	-0.081280
Cu18	Cu	1.492257	0.614810	0.418720
O19	O	0.985534	0.237080	0.068774
O20	O	1.485534	0.737080	0.568774
C21	C	0.838673	0.120961	0.000019
C22	C	1.338673	0.620961	0.500019
C23	C	0.745424	0.119318	0.000017
C24	C	1.245424	0.619318	0.500017
C25	C	0.509649	0.195240	0.000021
C26	C	1.009649	0.695240	0.500021
C27	C	0.459090	0.154294	0.067813
C28	C	0.959090	0.654294	0.567813
C29	C	0.574704	0.116273	0.000019
C30	C	1.074704	0.616273	0.500019
C31	C	0.459112	0.154284	-0.067744
C32	C	0.959112	0.654284	0.432256
C33	C	0.409795	0.113339	0.000016
C34	C	0.909795	0.613339	0.500016
C35	C	0.525374	0.075349	0.067867
C36	C	1.025374	0.575349	0.567867
C37	C	0.525399	0.075350	-0.067751
C38	C	1.025399	0.575350	0.432249
C39	C	0.474873	0.034346	0.000058
C40	C	0.974873	0.534346	0.500058
C41	C	0.669704	0.117966	0.000021
C42	C	1.169704	0.617966	0.500021
C43	C	0.314798	0.111640	0.000020
C44	C	0.814798	0.611640	0.500020
C45	C	0.998403	-0.038769	0.000010
C46	C	1.498403	0.461231	0.500010
C47	C	0.996760	-0.132018	-0.000000
C48	C	1.496760	0.367982	0.500000
C49	C	1.072682	-0.367793	0.000016
C50	C	1.572682	0.132207	0.500016
C51	C	1.031749	-0.418349	-0.067775
C52	C	1.531749	0.081651	0.432225
C53	C	0.993716	-0.302738	0.000010
C54	C	1.493716	0.197262	0.500010
C55	C	1.031713	-0.418333	0.067782
C56	C	1.531713	0.081667	0.567782
C57	C	0.990781	-0.467647	0.000023
C58	C	1.490781	0.032353	0.500023
C59	C	0.952803	-0.352065	-0.067838
C60	C	1.452803	0.147935	0.432162
C61	C	0.952779	-0.352046	0.067781
C62	C	1.452779	0.147954	0.567781
C63	C	0.911788	-0.402569	-0.000027
C64	C	1.411788	0.097431	0.499973
C65	C	0.995408	-0.207739	0.000001
C66	C	1.495408	0.292261	0.500001
C67	C	0.989082	-0.562644	0.000026
C68	C	1.489082	-0.062644	0.500026
C69	C	1.145821	0.108649	0.000021
C70	C	1.645821	0.608649	0.500021
C71	C	1.239069	0.110292	0.000017
C72	C	1.739069	0.610292	0.500017
C73	C	0.986091	0.268379	0.000029
C74	C	1.486091	0.768379	0.500029
C75	C	0.987734	0.361627	0.000034
C76	C	1.487734	0.861627	0.500034
N77	N	0.992228	0.114793	0.195687
N78	N	1.492228	0.614793	0.695687
N79	N	0.992273	0.114810	-0.195645
N80	N	1.492273	0.614810	0.304355
C81	C	1.049359	0.057702	0.238948
C82	C	1.549359	0.557702	0.738948
C83	C	1.049363	0.057701	0.325495
C84	C	1.549363	0.557701	0.825495
C85	C	0.992240	0.114795	0.368779
C86	C	1.492240	0.614795	0.868779
C87	C	0.935103	0.171889	0.325511
C88	C	1.435103	0.671889	0.825511
C89	C	0.935095	0.171885	0.238966
C90	C	1.435095	0.671885	0.738966
C91	C	0.935131	0.171904	0.674540
C92	C	1.435131	0.671904	1.174540
C93	C	0.935145	0.171906	0.761091
C94	C	1.435145	0.671906	1.261091
C95	C	1.049399	0.057721	0.761069
C96	C	1.549399	0.557721	1.261069
C97	C	1.049392	0.057717	0.674524
C98	C	1.549392	0.557717	1.174524
C99	C	0.992252	0.114807	0.631263
C100	C	1.492252	0.614807	1.131263
C101	C	0.992247	0.114806	0.537419
C102	C	1.492247	0.614806	1.037419
C103	C	0.992248	0.114801	0.462622
C104	C	1.492248	0.614801	0.962622
H105	H	0.554201	0.042017	0.125237
H106	H	1.054201	0.542017	0.625237
O107	O	1.071620	-0.452913	0.136070
O108	O	1.571620	0.047087	0.636070
C109	C	1.139882	-0.511766	0.111736
C110	C	1.639882	-0.011766	0.611736
H111	H	1.160455	-0.496261	0.046533
H112	H	1.660455	0.003739	0.546533
H113	H	1.194851	-0.508595	0.156256
H114	H	1.694851	-0.008595	0.656256
H115	H	1.119539	-0.578032	0.112743
H116	H	1.619539	-0.078032	0.612743
H117	H	1.065105	-0.447298	-0.125088
H118	H	1.565105	0.052702	0.374912
H119	H	0.888608	0.218390	0.639324
H120	H	1.388608	0.718390	1.139324
O121	O	0.879578	0.227234	0.367648
O122	O	1.379578	0.727234	0.867648
C123	C	0.827762	0.182226	0.417710
C124	C	1.327762	0.682226	0.917710
H125	H	0.861232	0.116511	0.430671
H126	H	1.361232	0.616511	0.930671
H127	H	0.814475	0.217283	0.478570
H128	H	1.314475	0.717283	0.978570
H129	H	0.765681	0.176490	0.384372
H130	H	1.265681	0.676490	0.884372
O131	O	0.456472	-0.046874	0.000243
O132	O	0.956472	0.453126	0.500243
C133	C	0.490551	-0.088198	0.071797
C134	C	0.990551	0.411802	0.571797
H135	H	0.499760	-0.039424	0.121530
H136	H	0.999760	0.460576	0.621530
H137	H	0.445443	-0.133348	0.095457
H138	H	0.945443	0.366652	0.595457
H139	H	0.554006	-0.125237	0.056265
H140	H	1.054006	0.374763	0.556265
O141	O	0.879683	0.227461	0.196975
O142	O	1.379683	0.727461	0.696975
C143	C	0.893306	0.310621	0.218129
C144	C	1.393306	0.810621	0.718129
H145	H	0.960556	0.311065	0.241905
H146	H	1.460556	0.811065	0.741905
H147	H	0.883629	0.352770	0.161211
H148	H	1.383629	0.852770	0.661211
H149	H	0.846749	0.335275	0.268373
H150	H	1.346749	0.835275	0.768373
O151	O	0.528244	0.276397	0.000247
O152	O	1.028244	0.776397	0.500247
C153	C	0.494293	0.317732	0.071853
C154	C	0.994293	0.817732	0.571853
H155	H	0.484996	0.268953	0.121560
H156	H	0.984996	0.768953	0.621560
H157	H	0.539531	0.362746	0.095512
H158	H	1.039531	0.862746	0.595512
H159	H	0.430899	0.354921	0.056390
H160	H	0.930899	0.854921	0.556390
O161	O	0.913014	-0.317344	0.136091
O162	O	1.413014	0.182656	0.636091
C163	C	0.914502	-0.229108	0.134731
C164	C	1.414502	0.270892	0.634731
H165	H	0.922835	-0.207408	0.068386
H166	H	1.422835	0.292592	0.568386
H167	H	0.852589	-0.196794	0.160616
H168	H	1.352589	0.303206	0.660616
H169	H	0.969283	-0.211774	0.174091
H170	H	1.469283	0.288226	0.674091
O171	O	0.424510	0.193965	-0.136139
O172	O	0.924510	0.693965	0.363861
C173	C	0.383431	0.136583	-0.183441
C174	C	0.883431	0.636583	0.316559
H175	H	0.366311	0.083248	-0.142011
H176	H	0.866311	0.583248	0.357989
H177	H	0.323522	0.170740	-0.211681
H178	H	0.823522	0.670740	0.288319
H179	H	0.427242	0.109362	-0.234881
H180	H	0.927242	0.609362	0.265119
H181	H	1.140702	-0.352179	-0.000051
H182	H	1.640702	0.147821	0.499949
O183	O	1.104781	0.002277	0.367648
O184	O	1.604781	0.502277	0.867648
C185	C	1.092553	0.014531	0.453316
C186	C	1.592553	0.514531	0.953316
H187	H	1.025767	0.045893	0.465149
H188	H	1.525767	0.545893	0.965149
H189	H	1.101918	-0.049078	0.486208
H190	H	1.601918	0.450922	0.986208
H191	H	1.140085	0.056686	0.477866
H192	H	1.640085	0.556686	0.977866
H193	H	1.095910	0.011228	0.639285
H194	H	1.595910	0.511228	1.139285
H195	H	0.430138	0.187640	0.125130
H196	H	0.930138	0.687640	0.625130
H197	H	0.554359	0.042029	-0.125071
H198	H	1.054359	0.542029	0.374929
H199	H	0.919481	-0.323235	-0.125211
H200	H	1.419481	0.176765	0.374789
H201	H	0.843715	-0.418021	-0.000065
H202	H	1.343715	0.081979	0.499935
H203	H	1.095879	0.011213	0.203712
H204	H	1.595879	0.511213	0.703712
H205	H	1.095923	0.011232	0.796301
H206	H	1.595923	0.511232	1.296301
O207	O	0.879565	0.227396	0.803010
O208	O	1.379565	0.727396	1.303010
C209	C	0.829142	0.277797	0.746271
C210	C	1.329142	0.777797	1.246271
H211	H	0.828195	0.243357	0.684579
H212	H	1.328195	0.743357	1.184579
H213	H	0.762064	0.290574	0.771295
H214	H	1.262064	0.790574	1.271295
H215	H	0.856391	0.340215	0.737057
H216	H	1.356391	0.840215	1.237057
