data_functionalizedCrystal
_audit_creation_method	'MofGen! by Chris Wilmer'
_symmetry_space_group_name_H-M	'P1'
_symmetry_Int_Tables_number	1
_symmetry_cell_setting	triclinic
loop_
_symmetry_equiv_pos_as_xyz
  x,y,z
_cell_length_a	16.109302
_cell_length_b	10.489716
_cell_length_c	14.586319
_cell_angle_alpha	90.000245
_cell_angle_beta	89.994552
_cell_angle_gamma	83.995458
loop_
_atom_site_label
_atom_site_type_symbol
_atom_site_fract_x
_atom_site_fract_y
_atom_site_fract_z
O1	O	1.104132	0.163953	-0.076273
O2	O	1.437465	0.497287	0.257060
O3	O	1.770798	0.830620	0.590393
O4	O	0.862194	0.184355	-0.076265
O5	O	1.195528	0.517689	0.257068
O6	O	1.528861	0.851022	0.590402
O7	O	0.988679	-0.011526	-0.076273
O8	O	1.322012	0.321808	0.257061
O9	O	1.655345	0.655141	0.590394
O10	O	0.977647	0.359834	-0.076266
O11	O	1.310980	0.693168	0.257068
O12	O	1.644314	1.026501	0.590401
O13	O	0.988670	-0.011528	0.076208
O14	O	1.322003	0.321805	0.409541
O15	O	1.655337	0.655138	0.742875
O16	O	0.862185	0.184353	0.076216
O17	O	1.195519	0.517686	0.409549
O18	O	1.528852	0.851019	0.742882
O19	O	1.104123	0.163950	0.076208
O20	O	1.437456	0.497284	0.409541
O21	O	1.770789	0.830617	0.742874
Cu22	Cu	0.983153	0.174151	0.090134
Cu23	Cu	1.316487	0.507485	0.423468
Cu24	Cu	1.649820	0.840818	0.756801
Cu25	Cu	0.983164	0.174155	-0.090192
Cu26	Cu	1.316497	0.507488	0.243141
Cu27	Cu	1.649830	0.840821	0.576475
O28	O	0.977638	0.359831	0.076215
O29	O	1.310972	0.693165	0.409548
O30	O	1.644305	1.026498	0.742882
C31	C	0.831210	0.183527	-0.000024
C32	C	1.164543	0.516861	0.333310
C33	C	1.497877	0.850194	0.666643
C34	C	0.738900	0.181049	-0.000021
C35	C	1.072233	0.514383	0.333312
C36	C	1.405566	0.847716	0.666646
C37	C	0.526519	0.175317	0.083087
C38	C	0.859852	0.508651	0.416420
C39	C	1.193185	0.841984	0.749754
C40	C	0.439784	0.172975	0.083084
C41	C	0.773118	0.506308	0.416417
C42	C	1.106451	0.839642	0.749751
C43	C	0.439805	0.172985	-0.083159
C44	C	0.773138	0.506318	0.250174
C45	C	1.106471	0.839651	0.583508
C46	C	0.526538	0.175318	-0.083155
C47	C	0.859871	0.508651	0.250178
C48	C	1.193205	0.841984	0.583512
C49	C	0.569892	0.176491	-0.000029
C50	C	0.903226	0.509824	0.333304
C51	C	1.236559	0.843157	0.666638
C52	C	0.396425	0.171815	-0.000037
C53	C	0.729758	0.505149	0.333297
C54	C	1.063091	0.838482	0.666630
C55	C	0.302383	0.169276	-0.000041
C56	C	0.635717	0.502609	0.333293
C57	C	0.969050	0.835942	0.666626
C58	C	0.663940	0.179028	-0.000025
C59	C	0.997273	0.512361	0.333309
C60	C	1.330607	0.845694	0.666642
C61	C	0.987845	-0.059047	-0.000035
C62	C	1.321179	0.274286	0.333298
C63	C	1.654512	0.607620	0.666632
C64	C	0.985366	-0.200642	-0.000043
C65	C	1.318699	0.132691	0.333290
C66	C	1.652032	0.466025	0.666623
C67	C	1.062930	-0.299441	-0.000038
C68	C	1.396263	0.033892	0.333296
C69	C	1.729596	0.367226	0.666629
C70	C	1.021948	-0.376206	-0.075215
C71	C	1.355281	-0.042872	0.258119
C72	C	1.688614	0.290461	0.591452
C73	C	1.021921	-0.376172	0.075119
C74	C	1.355254	-0.042839	0.408453
C75	C	1.688588	0.290494	0.741786
C76	C	0.944416	-0.275542	-0.075283
C77	C	1.277749	0.057791	0.258051
C78	C	1.611082	0.391125	0.591384
C79	C	0.944400	-0.275503	0.075119
C80	C	1.277734	0.057830	0.408452
C81	C	1.611067	0.391163	0.741786
C82	C	0.903361	-0.352218	-0.000077
C83	C	1.236694	-0.018885	0.333257
C84	C	1.570028	0.314449	0.666590
C85	C	1.135107	0.164778	-0.000036
C86	C	1.468440	0.498112	0.333298
C87	C	1.801774	0.831445	0.666631
C88	C	1.227417	0.167257	-0.000045
C89	C	1.560751	0.500590	0.333289
C90	C	1.894084	0.833923	0.666622
C91	C	0.978472	0.407353	-0.000025
C92	C	1.311805	0.740686	0.333309
C93	C	1.645138	1.074020	0.666642
C94	C	0.980951	0.548948	-0.000022
C95	C	1.314285	0.882281	0.333311
C96	C	1.647618	1.215615	0.666644
N97	N	0.983152	0.174148	0.216966
N98	N	1.316485	0.507481	0.550299
N99	N	1.649819	0.840815	0.883633
N100	N	0.983172	0.174148	-0.217024
N101	N	1.316505	0.507481	0.116310
N102	N	1.649838	0.840814	0.449643
C103	C	1.039178	0.087441	0.451969
C104	C	1.372511	0.420774	0.785302
C105	C	1.705845	0.754108	1.118636
C106	C	1.039180	0.087438	0.547950
C107	C	1.372514	0.420771	0.881284
C108	C	1.705847	0.754105	1.214617
C109	C	0.927139	0.260859	0.547967
C110	C	1.260473	0.594192	0.881300
C111	C	1.593806	0.927526	1.214633
C112	C	0.927134	0.260855	0.451987
C113	C	1.260467	0.594188	0.785320
C114	C	1.593800	0.927522	1.118654
C115	C	0.983158	0.174147	0.403991
C116	C	1.316491	0.507481	0.737324
C117	C	1.649824	0.840814	1.070658
C118	C	0.983166	0.174148	0.595952
C119	C	1.316499	0.507482	0.929285
C120	C	1.649832	0.840815	1.262618
C121	C	0.983168	0.174146	0.700019
C122	C	1.316501	0.507479	1.033352
C123	C	1.649835	0.840812	1.366685
C124	C	0.983155	0.174148	0.299917
C125	C	1.316488	0.507481	0.633250
C126	C	1.649821	0.840815	0.966584
H127	H	0.404495	0.172031	-0.150837
H128	H	0.737828	0.505365	0.182496
H129	H	1.071161	0.838698	0.515830
H130	H	1.130397	-0.275743	-0.000116
H131	H	1.463731	0.057590	0.333217
H132	H	1.797064	0.390924	0.666551
H133	H	0.404473	0.172020	0.150765
H134	H	0.737807	0.505353	0.484099
H135	H	1.071140	0.838687	0.817432
H136	H	0.561815	0.176272	0.150774
H137	H	0.895149	0.509606	0.484107
H138	H	1.228482	0.842939	0.817440
H139	H	0.561854	0.176270	-0.150842
H140	H	0.895187	0.509603	0.182491
H141	H	1.228521	0.842936	0.515824
H142	H	1.054677	-0.420121	0.138674
H143	H	1.388010	-0.086788	0.472008
H144	H	1.721343	0.246546	0.805341
H145	H	1.054694	-0.420174	-0.138775
H146	H	1.388027	-0.086841	0.194558
H147	H	1.721361	0.246492	0.527891
H148	H	0.911694	-0.231762	-0.138910
H149	H	1.245028	0.101571	0.194424
H150	H	1.578361	0.434905	0.527757
H151	H	0.835843	-0.375669	-0.000115
H152	H	1.169176	-0.042336	0.333219
H153	H	1.502509	0.290997	0.666552
H154	H	0.911682	-0.231512	0.138682
H155	H	1.245016	0.101821	0.472015
H156	H	1.578349	0.435155	0.805349
H157	H	1.084795	0.016837	0.412893
H158	H	1.418128	0.350170	0.746226
H159	H	1.751462	0.683503	1.079560
H160	H	1.084796	0.016832	0.587012
H161	H	1.418130	0.350166	0.920345
H162	H	1.751463	0.683499	1.253678
H163	H	0.881511	0.331462	0.412920
H164	H	1.214844	0.664796	0.746254
H165	H	1.548178	0.998129	1.079587
H166	H	0.881527	0.331456	0.587055
H167	H	1.214860	0.664789	0.920388
H168	H	1.548194	0.998123	1.253721
