data_functionalizedCrystal
_audit_creation_method	'MofGen! by Chris Wilmer'
_symmetry_space_group_name_H-M	'P1'
_symmetry_Int_Tables_number	1
_symmetry_cell_setting	triclinic
loop_
_symmetry_equiv_pos_as_xyz
  x,y,z
_cell_length_a	15.995300
_cell_length_b	10.654550
_cell_length_c	9.730223
_cell_angle_alpha	90.003749
_cell_angle_beta	90.003215
_cell_angle_gamma	96.021645
loop_
_atom_site_label
_atom_site_type_symbol
_atom_site_fract_x
_atom_site_fract_y
_atom_site_fract_z
O1	O	0.117601	-1.666266	-0.114388
O2	O	0.128806	-1.300638	-0.114364
O3	O	0.001371	-1.493480	-0.114383
O4	O	0.245036	-1.473424	-0.114368
O5	O	0.001375	-1.493477	0.114197
O6	O	0.128809	-1.300636	0.114216
O7	O	0.117605	-1.666264	0.114192
Zn8	Zn	0.123207	-1.483449	0.150496
Zn9	Zn	0.123203	-1.483452	-0.150668
O10	O	0.245039	-1.473422	0.114212
C11	C	0.127985	-1.253850	-0.000071
C12	C	0.125524	-1.114439	-0.000063
C13	C	-0.029827	-1.492660	-0.000098
C14	C	-0.122794	-1.490208	-0.000112
C15	C	0.118426	-1.713052	-0.000103
C16	C	0.120887	-1.852462	-0.000121
C17	C	-0.293003	-1.485679	-0.000098
C18	C	-0.339672	-1.622987	-0.000109
C19	C	-0.436374	-1.620482	0.000415
C20	C	-0.460586	-1.481222	-0.000086
C21	C	-0.419845	-1.413098	0.130191
C22	C	-0.323192	-1.416572	0.130295
C23	C	-0.322931	-1.414542	-0.129652
C24	C	-0.419876	-1.414555	-0.131359
C25	C	-0.555296	-1.478696	-0.000074
C26	C	-0.198293	-1.488202	-0.000100
C27	C	0.276238	-1.474241	-0.000077
C28	C	0.369205	-1.476693	-0.000072
N29	N	0.123210	-1.483456	0.356032
C30	C	0.200555	-1.033953	-0.000078
C31	C	0.198237	-0.902963	-0.000102
C32	C	0.045850	-0.932959	-0.000101
C33	C	0.048169	-1.063946	-0.000067
C34	C	0.277910	-1.084447	-0.000074
C35	C	0.352948	-1.003959	-0.000091
C36	C	0.350630	-0.872969	-0.000115
C37	C	0.273274	-0.822467	-0.000122
N38	N	0.123194	-1.483455	-0.356204
C39	C	0.066801	-1.568868	0.427950
C40	C	0.066791	-1.568865	0.571833
C41	C	0.179606	-1.398034	0.571868
C42	C	0.179611	-1.398032	0.427988
C43	C	0.010400	-1.654293	0.355995
C44	C	-0.046013	-1.739712	0.427912
C45	C	-0.046023	-1.739709	0.571795
C46	C	0.010379	-1.654286	0.643761
H47	H	-0.464529	-1.674012	-0.092951
H48	H	0.411729	-0.807439	-0.000115
O49	O	0.234425	-1.314943	0.641558
C50	C	0.284229	-1.239574	0.547227
H51	H	0.249896	-1.238166	0.444656
H52	H	0.346687	-1.280322	0.531935
C53	C	0.342811	-1.105831	0.729377
C54	C	0.300639	-1.104093	0.603401
H55	H	0.352937	-1.022261	0.764029
H56	H	0.309260	-1.156611	0.792931
H57	H	0.394855	-1.139793	0.716617
H58	H	0.248592	-1.070146	0.616166
H59	H	0.334182	-1.053304	0.539850
O60	O	-0.298065	-1.468290	-0.247531
C61	C	-0.245971	-1.378430	-0.323345
H62	H	-0.216907	-1.301545	-0.251227
H63	H	-0.284958	-1.334526	-0.404971
C64	C	-0.211361	-1.537867	-0.481892
C65	C	-0.175658	-1.443442	-0.393313
H66	H	-0.167990	-1.577969	-0.525058
H67	H	-0.246460	-1.598408	-0.430819
H68	H	-0.243849	-1.501267	-0.549902
H69	H	-0.143180	-1.480046	-0.325296
H70	H	-0.140552	-1.382909	-0.444377
O71	O	-0.029267	-0.883843	-0.000364
C72	C	-0.035157	-0.808982	-0.118753
H73	H	0.008778	-0.839973	-0.201481
H74	H	-0.016442	-0.705672	-0.092015
C75	C	-0.180183	-0.786834	-0.070834
C76	C	-0.126226	-0.824905	-0.172446
H77	H	-0.236358	-0.796651	-0.103952
H78	H	-0.176214	-0.837265	0.008930
H79	H	-0.164576	-0.700745	-0.048562
H80	H	-0.141826	-0.910996	-0.194704
H81	H	-0.130199	-0.774489	-0.252215
H82	H	-0.091962	-1.809253	0.630349
O83	O	-0.024794	-1.141959	-0.000125
C84	C	-0.093567	-1.069308	-0.000118
H85	H	-0.072887	-0.971548	-0.043412
H86	H	-0.117242	-1.059963	0.109538
C87	C	-0.190044	-1.254697	-0.036580
C88	C	-0.164646	-1.134630	-0.089766
H89	H	-0.233891	-1.294992	-0.091874
H90	H	-0.143711	-1.303645	-0.036580
H91	H	-0.209767	-1.246893	0.054798
H92	H	-0.144913	-1.142436	-0.181136
H93	H	-0.210977	-1.085685	-0.089784
H94	H	0.271393	-0.715805	-0.000120
O95	O	-0.452264	-1.474002	-0.246209
C96	C	-0.511443	-1.575484	-0.208107
H97	H	-0.536326	-1.557969	-0.100774
H98	H	-0.480062	-1.666740	-0.208266
C99	C	-0.554304	-1.608237	-0.443092
C100	C	-0.584871	-1.586720	-0.311267
H101	H	-0.599597	-1.615172	-0.506728
H102	H	-0.514432	-1.539870	-0.468763
H103	H	-0.528154	-1.684281	-0.443204
H104	H	-0.611012	-1.510668	-0.311152
H105	H	-0.624750	-1.655074	-0.285598
H106	H	-0.320875	-1.678160	-0.093531
O107	O	0.234442	-1.315239	0.357964
C108	C	0.286533	-1.382470	0.274765
H109	H	0.253796	-1.480748	0.253205
H110	H	0.348472	-1.390971	0.330219
C111	C	0.344193	-1.190959	0.164577
C112	C	0.303982	-1.311663	0.138087
H113	H	0.354960	-1.147281	0.080270
H114	H	0.309101	-1.145663	0.220633
H115	H	0.395805	-1.198061	0.210792
H116	H	0.252367	-1.304560	0.091889
H117	H	0.339066	-1.356956	0.082020
O118	O	-0.100750	-1.822594	0.357799
C119	C	-0.088677	-1.804241	0.215384
H120	H	-0.022382	-1.757343	0.195734
H121	H	-0.136435	-1.741213	0.174587
C122	C	-0.181955	-1.990285	0.165606
C123	C	-0.100528	-1.932694	0.141471
H124	H	-0.189268	-2.069520	0.120011
H125	H	-0.190092	-2.002648	0.261554
H126	H	-0.221744	-1.937750	0.131608
H127	H	-0.060741	-1.985222	0.175484
H128	H	-0.092385	-1.920343	0.045527
H129	H	-0.434539	-1.310773	0.134676
O130	O	0.428015	-1.053220	-0.000144
C131	C	0.413974	-1.186093	-0.000088
H132	H	0.348808	-1.216881	-0.043358
H133	H	0.418249	-1.222531	0.109579
C134	C	0.560930	-1.202607	-0.036576
C135	C	0.480894	-1.240423	-0.089732
H136	H	0.602210	-1.236123	-0.091867
H137	H	0.570390	-1.113089	-0.036609
H138	H	0.564480	-1.232975	0.054812
H139	H	0.477341	-1.210041	-0.181111
H140	H	0.471434	-1.329938	-0.089717
H141	H	-0.319686	-1.677382	0.093098
H142	H	-0.304585	-1.465666	0.228042
H143	H	-0.291504	-1.315746	0.135861
O144	O	-0.469131	-1.684245	0.112420
C145	C	-0.449698	-1.810199	0.106930
H146	H	-0.391930	-1.815893	0.039518
H147	H	-0.505219	-1.872579	0.061756
C148	C	-0.502457	-1.848835	0.335818
C149	C	-0.431501	-1.855827	0.253030
H150	H	-0.491236	-1.876984	0.425939
H151	H	-0.515553	-1.763979	0.339516
H152	H	-0.548718	-1.900818	0.298156
H153	H	-0.385245	-1.803833	0.290683
H154	H	-0.418397	-1.940676	0.249343
H155	H	-0.435810	-1.313028	-0.139611
H156	H	-0.447925	-1.459843	0.227502
H157	H	-0.291748	-1.313302	-0.130888
H158	H	0.279806	-1.191103	-0.000061
H159	H	0.010405	-1.654305	0.238838
H160	H	0.010361	-1.654282	0.760920
