data_functionalizedCrystal
_audit_creation_method	'MofGen! by Chris Wilmer'
_symmetry_space_group_name_H-M	'P1'
_symmetry_Int_Tables_number	1
_symmetry_cell_setting	triclinic
loop_
_symmetry_equiv_pos_as_xyz
  x,y,z
_cell_length_a	12.811438
_cell_length_b	11.295483
_cell_length_c	12.837942
_cell_angle_alpha	94.530417
_cell_angle_beta	90.586849
_cell_angle_gamma	88.710055
loop_
_atom_site_label
_atom_site_type_symbol
_atom_site_fract_x
_atom_site_fract_y
_atom_site_fract_z
O1	O	1.403249	-0.052536	-0.143392
O2	O	1.903249	0.447464	0.356608
O3	O	1.101287	-0.019920	-0.156287
O4	O	1.601287	0.480080	0.343713
O5	O	1.245572	-0.035512	0.001143
O6	O	1.745572	0.464488	0.501143
O7	O	1.258964	-0.036944	-0.300822
O8	O	1.758964	0.463056	0.199178
O9	O	1.232897	-0.232193	-0.012663
O10	O	1.732897	0.267807	0.487337
O11	O	1.088612	-0.216601	-0.170093
O12	O	1.588612	0.283399	0.329907
O13	O	1.390574	-0.249217	-0.157198
O14	O	1.890574	0.250783	0.342802
Cu15	Cu	1.238436	-0.250868	-0.164906
Cu16	Cu	1.738436	0.249132	0.335094
Cu17	Cu	1.253425	-0.018269	-0.148579
Cu18	Cu	1.753425	0.481731	0.351421
O19	O	1.246289	-0.233625	-0.314628
O20	O	1.746289	0.266375	0.185372
C21	C	1.056031	-0.114057	-0.162043
C22	C	1.556031	0.385943	0.337957
C23	C	0.940066	-0.101531	-0.158613
C24	C	1.440066	0.398469	0.341387
N25	N	1.227900	-0.414465	-0.176389
N26	N	1.727900	0.085535	0.323611
C27	C	0.783523	0.023321	-0.146254
C28	C	1.283523	0.523321	0.353746
C29	C	0.892484	0.011562	-0.149475
C30	C	1.392484	0.511562	0.350525
C31	C	0.878680	-0.202872	-0.164527
C32	C	1.378680	0.297128	0.335473
C33	C	0.769719	-0.191113	-0.161306
C34	C	1.269719	0.308887	0.338694
C35	C	0.722145	-0.078013	-0.152171
C36	C	1.222145	0.421987	0.347829
C37	C	0.613182	-0.066255	-0.148957
C38	C	1.113182	0.433745	0.351043
C39	C	0.599380	-0.280688	-0.164001
C40	C	1.099380	0.219312	0.335999
C41	C	0.708341	-0.292447	-0.167222
C42	C	1.208341	0.207553	0.332778
C43	C	1.339802	-0.675848	-0.054369
C44	C	1.839802	-0.175848	0.445631
C45	C	1.331849	-0.799652	-0.063054
C46	C	1.831849	-0.299652	0.436946
C47	C	1.204035	-0.785880	-0.202439
C48	C	1.704035	-0.285880	0.297561
C49	C	1.211988	-0.662075	-0.193754
C50	C	1.711988	-0.162075	0.306246
C51	C	1.279875	-0.607064	-0.119717
C52	C	1.779875	-0.107064	0.380283
C53	C	1.287834	-0.483258	-0.111038
C54	C	1.787834	0.016742	0.388962
C55	C	1.160015	-0.469488	-0.250417
C56	C	1.660015	0.030512	0.249583
C57	C	1.152062	-0.593292	-0.259102
C58	C	1.652062	-0.093292	0.240898
C59	C	1.435830	-0.155078	-0.151442
C60	C	1.935830	0.344922	0.348558
C61	C	1.551796	-0.167596	-0.154871
C62	C	2.051796	0.332404	0.345129
C63	C	1.234711	-0.133363	0.032914
C64	C	1.734711	0.366637	0.532914
C65	C	1.221219	-0.131904	0.148153
C66	C	1.721219	0.368096	0.648153
N67	N	1.263968	0.145328	-0.137088
N68	N	1.763968	0.645328	0.362912
C69	C	1.257151	-0.135771	-0.346399
C70	C	1.757151	0.364229	0.153601
C71	C	1.270643	-0.137223	-0.461637
C72	C	1.770643	0.362777	0.038363
C73	C	1.383421	-0.149399	0.387176
C74	C	1.883421	0.350601	0.887176
C75	C	1.370748	-0.148028	0.495453
C76	C	1.870748	0.351972	0.995453
C77	C	1.183204	-0.127783	0.472987
C78	C	1.683204	0.372217	0.972987
C79	C	1.195876	-0.129154	0.364710
C80	C	1.695876	0.370846	0.864710
C81	C	1.295987	-0.139964	0.321809
C82	C	1.795987	0.360036	0.821809
C83	C	1.308658	-0.141343	0.213529
C84	C	1.808658	0.358657	0.713529
C85	C	1.121115	-0.121090	0.191065
C86	C	1.621115	0.378910	0.691065
C87	C	1.108443	-0.119719	0.299343
C88	C	1.608443	0.380281	0.799343
H89	H	0.744788	0.115412	-0.138827
H90	H	1.244788	0.615412	0.361173
O91	O	1.491393	-0.161065	0.340900
O92	O	1.991393	0.338935	0.840900
H93	H	1.485515	-0.160441	0.254625
H94	H	1.985515	0.339559	0.754625
H95	H	1.390173	-0.150150	0.178600
H96	H	1.890173	0.349850	0.678600
O97	O	1.026806	-0.110927	0.120554
O98	O	1.526806	0.389073	0.620554
H99	H	0.955066	-0.103195	0.168581
H100	H	1.455066	0.396805	0.668581
H101	H	0.917434	-0.294953	-0.171952
H102	H	1.417434	0.205047	0.328048
H103	H	1.441946	-0.155708	0.548673
H104	H	1.941946	0.344292	1.048673
H105	H	1.395086	-0.631058	0.005907
H106	H	1.895086	-0.131058	0.505907
O107	O	0.958682	0.120862	-0.143084
O108	O	1.458682	0.620862	0.356916
H109	H	1.042443	0.093688	-0.146847
H110	H	1.542443	0.593688	0.353153
O111	O	1.000473	-0.108070	0.345627
O112	O	1.500473	0.391930	0.845627
H113	H	0.963098	-0.023314	0.325090
H114	H	1.463098	0.476686	0.825090
H115	H	1.148755	-0.830685	-0.262710
H116	H	1.648755	-0.330685	0.237290
H117	H	1.101698	-0.118970	0.507938
H118	H	1.601698	0.381030	1.007938
H119	H	0.747091	-0.384530	-0.174656
H120	H	1.247091	0.115470	0.325344
O121	O	0.533179	-0.389996	-0.170477
O122	O	1.033179	0.110004	0.329523
H123	H	0.449417	-0.362822	-0.166732
H124	H	0.949417	0.137178	0.333268
O125	O	1.396495	-0.873847	0.007415
O126	O	1.896495	-0.373847	0.507415
H127	H	1.445043	-0.814791	0.060345
H128	H	1.945043	-0.314791	0.560345
H129	H	1.096786	-0.638096	-0.319378
H130	H	1.596786	-0.138096	0.180622
O131	O	0.561863	0.055725	-0.139079
O132	O	1.061863	0.555725	0.360921
H133	H	0.622854	0.124212	-0.135487
H134	H	1.122854	0.624212	0.364513
H135	H	1.343113	-0.438470	-0.050757
H136	H	1.843113	0.061530	0.449243
O137	O	1.095366	-0.395302	-0.320902
O138	O	1.595366	0.104698	0.179098
H139	H	1.112293	-0.299969	-0.302422
H140	H	1.612293	0.200031	0.197578
