data_functionalizedCrystal
_audit_creation_method	'MofGen! by Chris Wilmer'
_symmetry_space_group_name_H-M	'P1'
_symmetry_Int_Tables_number	1
_symmetry_cell_setting	triclinic
loop_
_symmetry_equiv_pos_as_xyz
  x,y,z
_cell_length_a	14.971486
_cell_length_b	17.766277
_cell_length_c	14.971506
_cell_angle_alpha	90.004778
_cell_angle_beta	83.618258
_cell_angle_gamma	90.004402
loop_
_atom_site_label
_atom_site_type_symbol
_atom_site_fract_x
_atom_site_fract_y
_atom_site_fract_z
O1	O	1.186959	0.062505	0.116563
O2	O	0.926560	0.062525	0.130522
O3	O	1.063730	0.062513	-0.006657
O4	O	1.049790	0.062518	0.253741
O5	O	1.063706	-0.062676	-0.006664
O6	O	0.926536	-0.062663	0.130515
O7	O	1.186935	-0.062684	0.116556
Cu8	Cu	1.056733	-0.074104	0.123535
Cu9	Cu	1.056762	0.073946	0.123543
O10	O	1.049766	-0.062671	0.253734
C11	C	0.893223	-0.000067	0.129894
C12	C	0.793926	-0.000059	0.128023
N13	N	1.056720	-0.178235	0.123528
C14	C	0.736707	-0.000058	0.208612
C15	C	0.643407	-0.000070	0.206849
C16	C	0.607329	-0.000076	0.124496
C17	C	0.664556	-0.000079	0.043901
C18	C	0.757853	-0.000073	0.045665
C19	C	0.470093	-0.000089	0.040230
C20	C	0.376789	-0.000094	0.038466
C21	C	0.355647	-0.000086	0.201414
C22	C	0.448944	-0.000080	0.203178
C23	C	0.506165	-0.000081	0.122582
C24	C	1.117478	-0.217627	0.062816
C25	C	1.117483	-0.296429	0.062811
C26	C	1.056739	-0.335835	0.123535
C27	C	0.995969	-0.296433	0.184253
C28	C	0.995959	-0.217633	0.184249
C29	C	1.045112	-0.460671	0.204984
C30	C	1.045128	-0.539470	0.204988
C31	C	1.056763	-0.578881	0.123546
C32	C	1.068401	-0.539485	0.042096
C33	C	1.068391	-0.460684	0.042092
C34	C	1.056742	-0.421281	0.123546
C35	C	1.117530	-0.703720	0.062824
C36	C	1.117529	-0.782523	0.062819
C37	C	0.996019	-0.782526	0.184268
C38	C	0.996015	-0.703724	0.184265
C39	C	1.056776	-0.664326	0.123544
C40	C	1.220272	-0.000090	0.117184
C41	C	1.319569	-0.000093	0.119054
C42	C	1.063091	-0.000081	-0.039984
C43	C	1.061213	-0.000077	-0.139281
N44	N	1.056783	0.178076	0.123542
C45	C	1.134631	-0.000083	-0.577563
C46	C	1.136389	-0.000088	-0.484263
C47	C	1.055796	-0.000079	-0.427043
C48	C	0.973441	-0.000073	-0.463127
C49	C	0.971685	-0.000073	-0.556426
C50	C	0.977108	-0.000070	-0.268664
C51	C	0.978864	-0.000069	-0.175359
C52	C	1.141812	-0.000085	-0.196501
C53	C	1.140055	-0.000086	-0.289800
C54	C	1.057700	-0.000078	-0.325878
C55	C	1.050404	-0.000076	0.287062
C56	C	1.052282	-0.000075	0.386358
H57	H	0.766074	-0.000053	0.275673
F58	F	1.182193	-0.661788	-0.001804
H59	H	0.804441	-0.000073	-0.019958
H60	H	1.205681	-0.000088	-0.336387
H61	H	0.910045	-0.000075	-0.298035
H62	H	1.166962	-0.328508	0.013370
H63	H	0.596822	-0.000068	0.272472
H64	H	0.635173	-0.000095	-0.023152
F65	F	1.229461	-0.000093	-0.158104
H66	H	1.167003	-0.814597	0.013374
H67	H	0.946556	-0.814610	0.233707
F68	F	0.487339	-0.000066	0.290826
H69	H	0.309053	-0.000088	0.267037
H70	H	0.946544	-0.671649	0.233707
F71	F	0.338394	-0.000120	-0.049183
H72	H	1.200259	-0.000084	-0.624146
F73	F	0.893089	-0.000066	-0.114463
F74	F	0.887668	-0.000067	-0.402227
H75	H	1.035657	-0.571541	0.271310
H76	H	0.516680	-0.000091	-0.025399
F77	F	0.931317	-0.338372	0.248877
F78	F	1.080790	-0.581423	-0.044588
H79	H	1.166951	-0.185551	0.013371
H80	H	1.203445	-0.000096	-0.454893
F81	F	0.884038	-0.000068	-0.594823
F82	F	1.032793	-0.418734	0.291674
F83	F	1.080770	-0.418758	-0.044591
H84	H	0.946481	-0.185559	0.233689
