data_functionalizedCrystal
_audit_creation_method	'MofGen! by Chris Wilmer'
_symmetry_space_group_name_H-M	'P1'
_symmetry_Int_Tables_number	1
_symmetry_cell_setting	triclinic
loop_
_symmetry_equiv_pos_as_xyz
  x,y,z
_cell_length_a	14.044220
_cell_length_b	10.489741
_cell_length_c	12.503572
_cell_angle_alpha	93.559494
_cell_angle_beta	86.164750
_cell_angle_gamma	88.864026
loop_
_atom_site_label
_atom_site_type_symbol
_atom_site_fract_x
_atom_site_fract_y
_atom_site_fract_z
O1	O	1.265220	0.300990	-0.089205
O2	O	0.989177	0.289883	-0.089232
O3	O	1.133479	0.110477	-0.089211
O4	O	1.120918	0.480397	-0.089225
O5	O	1.122627	0.123993	0.089429
O6	O	0.978325	0.303400	0.089408
O7	O	1.254368	0.314507	0.089436
Cu8	Cu	1.115355	0.310188	0.105733
Cu9	Cu	1.128189	0.294203	-0.105530
O10	O	1.110065	0.493914	0.089415
C11	C	0.948403	0.291780	0.000085
C12	C	0.843079	0.277280	0.000074
C13	C	1.127104	0.069607	0.000108
C14	C	1.124266	-0.072311	0.000106
C15	C	0.650235	0.250773	0.000097
C16	C	0.593304	0.353611	0.000097
C17	C	0.485999	0.338862	0.000110
C18	C	0.757550	0.265520	0.000084
C19	C	1.032451	-0.149764	0.000089
C20	C	1.070473	-0.230823	0.088172
C21	C	1.081194	-0.244122	-0.087953
C22	C	1.162321	-0.151494	0.088262
C23	C	1.173035	-0.164791	-0.087943
C24	C	1.211122	-0.245814	0.000162
C25	C	1.295142	0.312610	0.000116
C26	C	1.400466	0.327110	0.000120
C27	C	1.116440	0.534783	0.000093
C28	C	1.119279	0.676700	0.000088
N29	N	1.106335	0.321431	0.254324
N30	N	1.137217	0.282950	-0.254121
C31	C	1.093067	0.337981	0.473438
C32	C	1.150482	0.266404	0.526773
C33	C	1.143099	0.275613	0.648695
C34	C	1.100449	0.328774	0.351504
H35	H	0.618389	0.151662	0.000106
O36	O	0.942351	-0.099817	0.000037
C37	C	0.797130	-0.092088	-0.091908
C38	C	0.899139	-0.148770	-0.091976
H39	H	0.762171	-0.131623	-0.166305
H40	H	0.753532	-0.118970	-0.016778
H41	H	0.800198	0.016379	-0.092621
H42	H	0.896161	-0.257242	-0.091301
H43	H	0.942697	-0.121787	-0.167100
H44	H	1.046857	-0.284662	-0.162428
H45	H	1.216375	-0.135444	-0.162407
H46	H	1.205182	0.198210	0.480868
H47	H	0.625152	0.452730	0.000088
H48	H	1.286677	-0.287570	0.000218
O49	O	1.027900	0.419315	0.528357
C50	C	0.960981	0.502675	0.701728
C51	C	1.034833	0.410530	0.639649
H52	H	0.966547	0.495583	0.791718
H53	H	0.975485	0.604692	0.679772
H54	H	0.886180	0.475898	0.679639
H55	H	1.109663	0.437190	0.661704
H56	H	1.020246	0.308537	0.661610
H57	H	1.027100	-0.260141	0.162633
H58	H	1.196608	-0.111084	0.162813
