data_functionalizedCrystal
_audit_creation_method	'MofGen! by Chris Wilmer'
_symmetry_space_group_name_H-M	'P1'
_symmetry_Int_Tables_number	1
_symmetry_cell_setting	triclinic
loop_
_symmetry_equiv_pos_as_xyz
  x,y,z
_cell_length_a	12.759401
_cell_length_b	12.759400
_cell_length_c	12.759393
_cell_angle_alpha	89.969258
_cell_angle_beta	89.981756
_cell_angle_gamma	90.013728
loop_
_atom_site_label
_atom_site_type_symbol
_atom_site_fract_x
_atom_site_fract_y
_atom_site_fract_z
Zn1	Zn	1.606252	-0.418240	-0.593983
Zn2	Zn	1.606148	-0.593956	-0.418303
Zn3	Zn	1.430555	-0.418289	-0.418323
Zn4	Zn	1.430543	-0.593874	-0.593945
O5	O	1.518374	-0.506090	-0.506138
O6	O	1.753259	-0.441563	-0.570687
O7	O	1.582816	-0.570708	-0.271285
O8	O	1.453911	-0.271261	-0.441648
O9	O	1.753182	-0.570661	-0.441616
O10	O	1.582994	-0.271225	-0.570706
O11	O	1.453809	-0.441646	-0.271299
O12	O	1.283532	-0.441567	-0.441611
O13	O	1.453890	-0.570521	-0.740971
O14	O	1.283523	-0.570569	-0.570640
O15	O	1.582983	-0.441483	-0.740999
O16	O	1.582804	-0.740966	-0.441579
O17	O	1.453788	-0.740906	-0.570621
C18	C	1.245407	-0.506065	-0.506124
C19	C	1.128630	-0.506080	-0.506143
C20	C	1.518312	-0.779057	-0.506117
C21	C	1.518381	-0.895834	-0.506142
C22	C	1.073801	-0.438985	-0.573454
C23	C	0.964077	-0.439005	-0.573461
C24	C	0.964021	-0.573224	-0.438841
C25	C	1.073743	-0.573197	-0.438830
C26	C	1.128689	-0.371868	-0.640766
C27	C	1.073860	-0.304769	-0.708084
C28	C	0.964136	-0.304789	-0.708091
C29	C	0.909241	-0.371908	-0.640780
C30	C	1.585635	-0.950692	-0.439024
C31	C	1.585699	-1.060416	-0.439056
C32	C	1.451248	-1.060414	-0.573328
C33	C	1.451190	-0.950692	-0.573301
C34	C	1.652826	-0.895834	-0.371866
C35	C	1.720084	-0.950693	-0.304741
C36	C	1.720149	-1.060417	-0.304774
C37	C	1.652955	-1.115282	-0.371931
C38	C	1.792408	-0.506115	-0.506154
C39	C	1.909184	-0.506126	-0.506160
C40	C	1.518446	-0.505988	-0.780172
C41	C	1.518477	-0.505944	-0.896949
C42	C	1.518466	-0.232056	-0.506183
C43	C	1.518504	-0.115280	-0.506203
C44	C	1.451312	-0.573068	-1.061523
C45	C	1.451280	-0.573106	-0.951798
C46	C	1.585704	-0.438732	-0.951829
C47	C	1.585730	-0.438689	-1.061551
C48	C	1.384119	-0.640242	-1.116367
C49	C	1.316890	-0.707453	-1.061494
C50	C	1.316858	-0.707491	-0.951770
C51	C	1.384054	-0.640318	-0.896918
C52	C	1.518363	-0.506116	-0.233171
C53	C	1.518536	-0.505863	-0.116395
H54	H	1.218032	-0.371843	-0.640768
H55	H	1.384019	-0.640352	-0.807574
H56	H	0.819896	-0.371896	-0.640768
H57	H	1.396542	-1.105094	-0.628004
H58	H	1.118562	-0.250116	-0.762880
H59	H	1.640464	-0.383960	-1.106229
H60	H	1.118386	-0.627832	-0.384019
H61	H	1.384139	-0.640220	-1.205710
H62	H	1.652778	-0.806491	-0.371829
H63	H	1.262175	-0.762135	-1.106162
H64	H	0.919497	-0.250146	-0.762897
H65	H	0.919317	-0.627871	-0.384042
H66	H	1.640412	-0.384044	-0.907160
H67	H	1.774920	-1.105080	-0.250125
H68	H	1.774797	-0.906015	-0.250070
H69	H	1.653022	-1.204627	-0.371960
H70	H	1.396427	-0.906025	-0.627955
H71	H	1.262109	-0.762209	-0.907096
