data_functionalizedCrystal
_audit_creation_method	'MofGen! by Chris Wilmer'
_symmetry_space_group_name_H-M	'P1'
_symmetry_Int_Tables_number	1
_symmetry_cell_setting	triclinic
loop_
_symmetry_equiv_pos_as_xyz
  x,y,z
_cell_length_a	11.792241
_cell_length_b	9.565339
_cell_length_c	11.792254
_cell_angle_alpha	89.999943
_cell_angle_beta	84.196007
_cell_angle_gamma	89.999376
loop_
_atom_site_label
_atom_site_type_symbol
_atom_site_fract_x
_atom_site_fract_y
_atom_site_fract_z
O1	O	1.506915	0.116125	0.155559
O2	O	1.840248	0.449458	0.488892
O3	O	2.173582	0.782792	0.822225
O4	O	1.176575	0.116158	0.171592
O5	O	1.509908	0.449491	0.504925
O6	O	1.843241	0.782824	0.838258
O7	O	1.349754	0.116130	-0.001594
O8	O	1.683087	0.449464	0.331739
O9	O	2.016421	0.782797	0.665072
O10	O	1.333736	0.116152	0.328745
O11	O	1.667069	0.449485	0.662078
O12	O	2.000403	0.782819	0.995411
O13	O	1.349740	-0.116390	-0.001584
O14	O	1.683074	0.216944	0.331750
O15	O	2.016407	0.550277	0.665083
O16	O	1.176561	-0.116363	0.171602
O17	O	1.509894	0.216971	0.504936
O18	O	1.843228	0.550304	0.838269
O19	O	1.506901	-0.116395	0.155570
O20	O	1.840235	0.216938	0.488903
O21	O	2.173568	0.550271	0.822236
Zn22	Zn	1.341729	-0.153296	0.163588
Zn23	Zn	1.675062	0.180037	0.496921
Zn24	Zn	2.008396	0.513370	0.830254
Zn25	Zn	1.341747	0.153059	0.163574
Zn26	Zn	1.675080	0.486392	0.496907
Zn27	Zn	2.008414	0.819725	0.830240
O28	O	1.333722	-0.116368	0.328756
O29	O	1.667056	0.216965	0.662089
O30	O	2.000389	0.550298	0.995422
C31	C	1.134277	-0.000098	0.170590
C32	C	1.467610	0.333235	0.503923
C33	C	1.800944	0.666568	0.837257
C34	C	1.008263	-0.000086	0.167576
C35	C	1.341596	0.333247	0.500909
C36	C	1.674930	0.666580	0.834242
N37	N	1.341725	-0.362376	0.163597
N38	N	1.675058	-0.029043	0.496930
N39	N	2.008392	0.304291	0.830263
C40	C	0.777551	-0.000127	0.162033
C41	C	1.110884	0.333207	0.495366
C42	C	1.444217	0.666540	0.828699
C43	C	0.905936	-0.000104	0.165112
C44	C	1.239269	0.333229	0.498446
C45	C	1.572603	0.666562	0.831779
C46	C	1.261611	-0.453566	0.243663
C47	C	1.594944	-0.120233	0.576996
C48	C	1.928278	0.213100	0.910329
C49	C	1.364313	-0.546754	0.266317
C50	C	1.697647	-0.213421	0.599651
C51	C	2.030980	0.119913	0.932984
C52	C	1.239067	-0.546744	0.140951
C53	C	1.572400	-0.213410	0.474284
C54	C	1.905734	0.119923	0.807618
C55	C	1.444479	-0.453512	0.186303
C56	C	1.777813	-0.120178	0.519636
C57	C	2.111146	0.213155	0.852970
C58	C	1.319165	-0.453493	0.060891
C59	C	1.652499	-0.120160	0.394225
C60	C	1.985832	0.213173	0.727558
C61	C	1.421942	-0.546639	0.083503
C62	C	1.755275	-0.213305	0.416836
C63	C	2.088608	0.120028	0.750170
C64	C	1.549199	-0.000136	0.156571
C65	C	1.882533	0.333197	0.489905
C66	C	2.215866	0.666530	0.823238
C67	C	1.675213	-0.000139	0.159586
C68	C	2.008546	0.333194	0.492919
C69	C	2.341880	0.666527	0.826252
C70	C	1.348738	-0.000129	-0.043880
C71	C	1.682071	0.333204	0.289454
C72	C	2.015405	0.666538	0.622787
C73	C	1.345718	-0.000127	-0.169893
C74	C	1.679051	0.333206	0.163441
C75	C	2.012385	0.666539	0.496774
N76	N	1.341760	0.362138	0.163556
N77	N	1.675093	0.695471	0.496889
N78	N	2.008427	1.028805	0.830222
C79	C	1.343264	-0.000122	-0.272229
C80	C	1.676597	0.333211	0.061104
C81	C	2.009931	0.666544	0.394437
C82	C	1.340196	-0.000109	-0.400616
C83	C	1.673529	0.333224	-0.067283
C84	C	2.006862	0.666558	0.266051
C85	C	1.334738	-0.000106	0.371041
C86	C	1.668071	0.333228	0.704374
C87	C	2.001405	0.666561	1.037708
C88	C	1.337758	-0.000098	0.497054
C89	C	1.671092	0.333235	0.830387
C90	C	2.004425	0.666569	1.163721
H91	H	1.383418	-0.587718	0.353155
H92	H	1.716752	-0.254384	0.686489
H93	H	2.050085	0.078949	1.019822
N94	N	1.559523	-0.399499	0.211785
N95	N	1.892857	-0.066166	0.545118
N96	N	2.226190	0.267168	0.878451
H97	H	1.550333	-0.340727	0.283279
H98	H	1.883667	-0.007394	0.616612
H99	H	2.217000	0.325940	0.949946
H100	H	1.611584	-0.481031	0.223220
H101	H	1.944918	-0.147697	0.556553
H102	H	2.278251	0.185636	0.889887
N103	N	1.171941	-0.399438	0.333422
N104	N	1.505274	-0.066105	0.666755
N105	N	1.838607	0.267229	1.000088
H106	H	1.189148	-0.433370	0.410961
H107	H	1.522481	-0.100036	0.744294
H108	H	1.855814	0.233297	1.077627
H109	H	1.172103	-0.293863	0.332224
H110	H	1.505437	0.039470	0.665557
H111	H	1.838770	0.372804	0.998890
N112	N	1.511792	-0.600444	-0.006215
N113	N	1.845125	-0.267111	0.327118
N114	N	2.178459	0.066223	0.660451
H115	H	1.589273	-0.566346	0.011025
H116	H	1.922606	-0.233013	0.344358
H117	H	2.255940	0.100321	0.677691
H118	H	1.510770	-0.706022	-0.006145
H119	H	1.844104	-0.372689	0.327188
H120	H	2.177437	-0.039355	0.660522
H121	H	1.300028	-0.412497	-0.025919
H122	H	1.633362	-0.079163	0.307415
H123	H	1.966695	0.254170	0.640748
N124	N	1.124058	-0.601006	0.115597
N125	N	1.457391	-0.267673	0.448930
N126	N	1.790724	0.065661	0.782264
H127	H	1.063594	-0.567152	0.176147
H128	H	1.396927	-0.233819	0.509480
H129	H	1.730261	0.099515	0.842814
H130	H	1.106480	-0.565618	0.038600
H131	H	1.439813	-0.232284	0.371933
H132	H	1.773147	0.101049	0.705267
