data_functionalizedCrystal
_audit_creation_method	'MofGen! by Chris Wilmer'
_symmetry_space_group_name_H-M	'P1'
_symmetry_Int_Tables_number	1
_symmetry_cell_setting	triclinic
loop_
_symmetry_equiv_pos_as_xyz
  x,y,z
_cell_length_a	14.560432
_cell_length_b	21.606444
_cell_length_c	21.606444
_cell_angle_alpha	120.000549
_cell_angle_beta	89.997388
_cell_angle_gamma	60.010869
loop_
_atom_site_label
_atom_site_type_symbol
_atom_site_fract_x
_atom_site_fract_y
_atom_site_fract_z
Zr1	Zr	0.885009	0.677338	0.081153
O2	O	0.738400	0.806443	0.179972
O3	O	0.929920	0.548238	0.050867
O4	O	0.929957	0.677342	0.179979
O5	O	0.738370	0.677334	-0.050995
O6	O	1.081098	0.677340	0.179976
O7	O	0.738362	0.677338	0.050860
O8	O	1.081031	0.446396	-0.050982
O9	O	0.738437	0.908278	0.179963
O10	O	1.061908	0.601336	0.037939
O11	O	0.949118	0.601334	-0.038071
O12	O	0.949163	0.753337	0.113942
O13	O	0.836374	0.753335	0.037931
Zr14	Zr	1.126073	0.677328	-0.081297
Zr15	Zr	1.126061	0.677335	0.081148
Zr16	Zr	0.885021	0.677331	-0.081293
Zr17	Zr	0.885068	0.839754	0.081140
Zr18	Zr	1.126014	0.514913	-0.081284
O19	O	1.081162	0.806429	-0.051011
O20	O	1.081145	0.806439	0.179966
O21	O	0.738417	0.806433	-0.051005
O22	O	1.272682	0.548224	-0.180116
O23	O	1.272665	0.548234	0.050861
O24	O	0.929937	0.548228	-0.180110
O25	O	1.272712	0.677332	0.050850
O26	O	1.081124	0.677325	-0.180123
O27	O	0.929984	0.677326	-0.180120
O28	O	1.272719	0.677328	-0.051004
O29	O	0.930041	0.908276	0.179960
O30	O	1.081040	0.446391	-0.180104
O31	O	1.272645	0.446388	-0.180108
O32	O	1.272635	0.446394	-0.050985
O33	O	0.738446	0.908272	0.050841
O34	O	0.930051	0.908270	0.050838
O35	O	1.061919	0.601329	-0.114086
O36	O	1.174708	0.601331	-0.038075
O37	O	1.061963	0.753333	0.037927
O38	O	0.949174	0.753331	-0.038084
C39	C	1.005467	0.474176	-0.000056
C40	C	1.005442	0.405226	-0.000050
C41	C	0.704021	0.677337	-0.000067
C42	C	0.601688	0.677338	-0.000065
C43	C	1.088874	-0.074245	-0.056203
C44	C	1.088850	-0.009437	-0.056195
C45	C	1.005586	0.079056	-0.000081
C46	C	0.922347	0.102740	0.056033
C47	C	0.922377	0.037933	0.056028
C48	C	0.922227	0.364103	0.056056
C49	C	0.922202	0.428911	0.056056
C50	C	1.088700	0.316733	-0.056167
C51	C	1.088730	0.251926	-0.056172
C52	C	1.005495	0.275616	-0.000056
C53	C	1.005523	0.205343	-0.000064
C54	C	1.005552	0.149328	-0.000075
C55	C	0.601655	0.677353	0.112169
C56	C	0.553562	0.677364	0.168286
C57	C	0.457412	0.677364	0.168284
C58	C	0.409356	0.677350	0.112157
C59	C	0.457449	0.677340	0.056040
C60	C	0.553599	0.677342	0.056050
C61	C	0.457487	0.677318	-0.056196
C62	C	0.553632	0.677324	-0.056192
C63	C	0.409430	0.677304	-0.112323
C64	C	0.457519	0.677300	-0.168438
C65	C	0.553674	0.677301	-0.168433
C66	C	0.601725	0.677313	-0.112309
C67	C	1.307060	0.677330	-0.000077
C68	C	1.409393	0.677329	-0.000079
C69	C	1.005526	0.677342	0.203122
C70	C	1.005521	0.677345	0.272085
C71	C	1.005615	0.880490	-0.000089
C72	C	1.005640	0.949440	-0.000094
C73	C	0.946668	0.756688	0.344156
C74	C	0.946678	0.756685	0.408951
C75	C	1.005534	0.677339	0.401673
C76	C	1.064394	0.597990	0.329594
C77	C	1.064390	0.597994	0.264801
C78	C	1.064412	0.597975	0.590897
C79	C	1.064409	0.597978	0.655698
C80	C	0.946700	0.756667	0.735047
C81	C	0.946697	0.756670	0.670254
C82	C	1.005560	0.677322	0.598181
C83	C	1.005551	0.677325	0.527924
C84	C	1.005538	0.677335	0.471929
C85	C	1.005556	0.677324	0.796733
C86	C	1.005562	0.677322	0.727771
C87	C	1.306986	0.474173	-0.000061
C88	C	1.409294	0.405222	-0.000057
C89	C	1.005482	0.474167	-0.203250
C90	C	1.005462	0.405215	-0.272207
C91	C	1.307001	0.474164	-0.203256
C92	C	1.409314	0.405210	-0.272214
C93	C	0.704080	0.880502	0.203111
C94	C	0.601767	0.949456	0.272070
C95	C	0.704095	0.880494	-0.000083
C96	C	0.601787	0.949445	-0.000087
C97	C	1.005600	0.880499	0.203106
C98	C	1.005620	0.949452	0.272063
C99	C	1.398458	0.372844	0.039630
C100	C	1.494578	0.308067	0.039649
C101	C	1.601533	0.275663	-0.000025
C102	C	1.612366	0.308047	-0.039713
C103	C	1.516248	0.372828	-0.039727
C104	C	1.064333	0.372831	-0.344276
C105	C	1.064310	0.308052	-0.409074
C106	C	1.005421	0.275653	-0.401803
C107	C	0.946543	0.308043	-0.329726
C108	C	0.946560	0.372825	-0.264930
C109	C	1.516246	0.372830	-0.264921
C110	C	1.612389	0.308049	-0.329709
C111	C	1.601598	0.275646	-0.401789
C112	C	1.494655	0.308033	-0.409081
C113	C	1.398514	0.372817	-0.344294
C114	C	0.494835	0.981845	0.264777
C115	C	0.398692	1.046645	0.329565
C116	C	0.409484	1.079052	0.401645
C117	C	0.516427	1.046661	0.408936
C118	C	0.612568	0.981866	0.344149
C119	C	0.612623	0.981829	-0.039768
C120	C	0.516503	1.046625	-0.039769
C121	C	0.409549	1.079030	-0.000093
C122	C	0.398715	1.046643	0.039593
C123	C	0.494834	0.981853	0.039598
C124	C	1.064520	0.981830	0.264767
C125	C	1.064560	1.046610	0.329553
C126	C	1.005694	1.079014	0.401634
C127	C	0.946793	1.046629	0.408929
C128	C	0.946759	0.981846	0.344143
H129	H	1.156673	-0.146298	-0.101900
C130	C	0.528286	1.082310	0.488228
C131	C	0.422525	1.153576	0.559484
C132	C	0.434381	1.189224	0.638778
C133	C	0.551998	1.153605	0.646815
C134	C	0.657767	1.082335	0.575556
C135	C	0.645911	1.046687	0.496262
H136	H	0.335451	1.179947	0.553537
H137	H	0.356083	1.241983	0.691528
H138	H	0.560774	1.179993	0.705512
H139	H	0.744842	1.055964	0.581503
H140	H	0.724209	0.993928	0.443512
C141	C	0.404505	0.677376	0.230012
C142	C	0.457320	0.677439	0.291772
C143	C	0.404413	0.677451	0.353499
C144	C	0.298690	0.677400	0.353467
C145	C	0.245868	0.677336	0.291704
C146	C	0.298776	0.677324	0.229977
H147	H	0.535588	0.677477	0.291798
H148	H	0.443516	0.677498	0.399220
H149	H	0.259525	0.677408	0.399161
H150	H	0.167600	0.677298	0.291678
H151	H	0.259673	0.677277	0.184256
H152	H	0.898598	0.281653	-0.323817
C153	C	0.830754	0.200081	0.117761
C154	C	0.705990	0.237424	0.126258
C155	C	0.614392	0.334765	0.187986
C156	C	0.647558	0.394762	0.241219
C157	C	0.772327	0.357420	0.232724
C158	C	0.863926	0.260080	0.170995
H159	H	0.681434	0.193009	0.086851
H160	H	0.522029	0.362407	0.194275
H161	H	0.579751	0.466820	0.286914
H162	H	0.796884	0.401835	0.272131
H163	H	0.956288	0.232437	0.164707
H164	H	1.112523	1.072971	0.323599
C165	C	0.881807	0.408436	-0.185655
C166	C	0.817041	0.372787	-0.177666
C167	C	0.752283	0.408395	-0.098392
C168	C	0.752290	0.479651	-0.027108
C169	C	0.817058	0.515303	-0.035095
C170	C	0.881816	0.479696	-0.114368
H171	H	0.817034	0.320035	-0.230437
H172	H	0.704337	0.382002	-0.092480
H173	H	0.704352	0.506010	0.031575
H174	H	0.817065	0.568055	0.017676
H175	H	0.929762	0.506089	-0.120280
H176	H	0.898791	0.955491	0.350094
C177	C	1.482795	0.272370	-0.488372
C178	C	1.588556	0.201097	-0.559629
C179	C	1.576700	0.165423	-0.638922
C180	C	1.459083	0.201022	-0.646959
C181	C	1.353314	0.272299	-0.575700
C182	C	1.365170	0.307973	-0.496407
H183	H	1.675630	0.174741	-0.553681
H184	H	1.654998	0.112659	-0.691673
H185	H	1.450307	0.174614	-0.705657
H186	H	1.266240	0.298655	-0.581647
H187	H	1.286872	0.360737	-0.443656
H188	H	1.485735	0.281707	0.071968
H189	H	1.112259	0.281688	-0.467755
H190	H	1.112340	0.533361	0.649764
H191	H	1.112456	0.955457	0.206081
H192	H	1.156477	0.297450	-0.101858
C193	C	0.281064	1.082259	0.321532
C194	C	0.175300	1.153534	0.392786
C195	C	0.057676	1.189145	0.384752
C196	C	0.045817	1.153481	0.305463
C197	C	0.151585	1.082202	0.234203
C198	C	0.269208	1.046591	0.242238
H199	H	0.184076	1.179938	0.451486
H200	H	-0.020620	1.241910	0.437504
H201	H	-0.041255	1.179842	0.299516
H202	H	0.142809	1.055798	0.175504
H203	H	0.347505	0.993826	0.189486
H204	H	0.854601	0.057224	0.101719
H205	H	0.898733	0.821301	0.350091
H206	H	0.699634	0.955496	0.350096
H207	H	1.525054	0.399203	-0.206236
H208	H	0.331292	1.131786	-0.000103
H209	H	1.112313	0.533385	0.206117
C210	C	0.404660	0.677284	-0.230172
C211	C	0.298896	0.677287	-0.230176
C212	C	0.246032	0.677273	-0.291911
C213	C	0.298932	0.677255	-0.353642
C214	C	0.404702	0.677252	-0.353640
C215	C	0.457566	0.677267	-0.291906
H216	H	0.259731	0.677300	-0.184477
H217	H	0.167734	0.677275	-0.291911
H218	H	0.259800	0.677245	-0.399342
H219	H	0.443867	0.677239	-0.399340
H220	H	0.535864	0.677264	-0.291905
H221	H	0.486027	0.955463	0.206091
C222	C	1.280816	0.408481	0.083277
C223	C	1.175073	0.479737	0.083273
C224	C	1.057434	0.515371	0.126925
C225	C	1.045539	0.479750	0.170583
C226	C	1.151286	0.408490	0.170589
C227	C	1.268924	0.372855	0.126936
H228	H	1.183875	0.506109	0.050953
H229	H	0.979153	0.568123	0.126921
H230	H	0.958455	0.506129	0.202897
H231	H	1.142483	0.382117	0.202908
H232	H	1.347205	0.320104	0.126941
H233	H	1.699459	0.281687	-0.323758
H234	H	1.311449	0.399172	-0.350242
H235	H	0.898765	0.821282	0.676187
C236	C	0.881954	0.843954	0.814330
C237	C	0.881953	0.843960	0.885606
C238	C	0.817204	0.931245	0.964885
C239	C	0.752454	1.018522	0.972890
C240	C	0.752453	1.018519	0.901612
C241	C	0.817202	0.931234	0.822332
H242	H	0.929887	0.779349	0.879682
H243	H	0.817205	0.931247	1.017650
H244	H	0.704523	1.083135	1.031578
H245	H	0.704519	1.083129	0.907536
H246	H	0.817201	0.931232	0.769568
H247	H	1.005416	0.222903	-0.454570
C248	C	0.528439	1.082232	-0.083433
C249	C	0.590283	1.126743	-0.062734
C250	C	0.602222	1.162346	-0.106400
C251	C	0.552317	1.153440	-0.170766
C252	C	0.490469	1.108927	-0.191469
C253	C	0.478530	1.073324	-0.147803
H254	H	0.627229	1.133338	-0.015083
H255	H	0.648006	1.195297	-0.091074
H256	H	0.561155	1.179796	-0.203090
H257	H	0.453523	1.102332	-0.239120
H258	H	0.432745	1.040373	-0.163129
H259	H	0.331190	1.131812	0.454392
C260	C	0.882036	1.082287	0.488223
C261	C	0.945158	1.073393	0.543683
C262	C	0.880395	1.109059	0.622979
C263	C	0.752509	1.153618	0.646816
C264	C	0.689379	1.162514	0.591354
C265	C	0.754142	1.126849	0.512058
H266	H	1.039833	1.040406	0.526039
H267	H	0.927129	1.102473	0.664035
H268	H	0.704567	1.180020	0.705516
H269	H	0.594704	1.195502	0.608998
H270	H	0.707409	1.133434	0.471002
H271	H	1.679790	0.222914	-0.000008
C272	C	0.281058	1.082287	0.083224
C273	C	0.198785	1.180276	0.147575
C274	C	0.081125	1.215917	0.191199
C275	C	0.045737	1.153568	0.170472
C276	C	0.128012	1.055574	0.106118
C277	C	0.245672	1.019933	0.062494
H278	H	0.224979	1.226435	0.162922
H279	H	0.020220	1.288459	0.238839
H280	H	-0.041362	1.179952	0.202765
H281	H	0.101817	1.009414	0.090771
H282	H	0.306577	0.947390	0.014854
H283	H	1.156631	-0.028730	-0.101883
H284	H	1.679891	0.222895	-0.454537
H285	H	0.854390	0.500969	0.101751
C286	C	1.180324	0.154584	-0.117897
C287	C	1.259323	0.094624	-0.095532
C288	C	1.350923	-0.002718	-0.157257
C289	C	1.363524	-0.040099	-0.241346
C290	C	1.284522	0.019862	-0.263715
C291	C	1.192923	0.117204	-0.201991
H292	H	1.249997	0.122295	-0.033281
H293	H	1.409405	-0.047105	-0.140697
H294	H	1.431331	-0.112157	-0.287038
H295	H	1.293848	-0.007809	-0.325967
H296	H	1.134441	0.161591	-0.218550
C297	C	0.881937	0.843971	0.488225
C298	C	0.912703	0.909428	0.512029
C299	C	0.847960	0.996721	0.591302
C300	C	0.752452	1.018557	0.646771
C301	C	0.721681	0.953098	0.622969
C302	C	0.786424	0.865805	0.543696
H303	H	0.983408	0.893265	0.470966
H304	H	0.870740	1.045178	0.608922
H305	H	0.704526	1.083176	0.705454
H306	H	0.650976	0.969261	0.664032
H307	H	0.763645	0.817348	0.526076
C308	C	1.730022	0.272388	-0.083363
C309	C	1.835739	0.201120	-0.083352
C310	C	1.953397	0.165451	-0.127008
C311	C	1.965338	0.201050	-0.170676
C312	C	1.859617	0.272321	-0.170688
C313	C	1.741959	0.307990	-0.127032
H314	H	1.826903	0.174765	-0.051025
H315	H	2.031658	0.112691	-0.126998
H316	H	2.052435	0.174645	-0.202993
H317	H	1.868453	0.298677	-0.203015
H318	H	1.663698	0.360750	-0.127041
H319	H	0.854449	0.383403	0.101748
H320	H	0.679938	0.677364	0.112182
H321	H	0.699702	0.955449	-0.072082
C322	C	1.129146	0.510692	0.511626
C323	C	1.257018	0.445223	0.487800
C324	C	1.321751	0.357933	0.408524
C325	C	1.258612	0.336113	0.353074
C326	C	1.130733	0.401583	0.376898
C327	C	1.066000	0.488873	0.456174
H328	H	1.303764	0.461374	0.528849
H329	H	1.416416	0.309468	0.390888
H330	H	1.306532	0.271496	0.294389
H331	H	1.083987	0.385432	0.335849
H332	H	0.971335	0.537338	0.473810
H333	H	0.485995	0.955487	0.071908
H334	H	1.005730	1.131765	0.454380
H335	H	1.112287	0.399204	-0.350211
H336	H	0.331074	0.677339	0.112153
H337	H	0.592700	0.677373	0.213983
H338	H	0.592830	0.677287	-0.214132
H339	H	0.331144	0.677299	-0.112325
H340	H	1.525086	0.399182	-0.072050
H341	H	0.680011	0.677319	-0.112297
H342	H	1.112322	0.533385	0.323673
