data_functionalizedCrystal
_audit_creation_method	'MofGen! by Chris Wilmer'
_symmetry_space_group_name_H-M	'P1'
_symmetry_Int_Tables_number	1
_symmetry_cell_setting	triclinic
loop_
_symmetry_equiv_pos_as_xyz
  x,y,z
_cell_length_a	10.540539
_cell_length_b	9.065218
_cell_length_c	9.016244
_cell_angle_alpha	89.999657
_cell_angle_beta	89.994699
_cell_angle_gamma	84.770688
loop_
_atom_site_label
_atom_site_type_symbol
_atom_site_fract_x
_atom_site_fract_y
_atom_site_fract_z
O1	O	-1.686662	-0.207926	0.123264
O2	O	-1.317321	-0.227517	0.123282
O3	O	-1.509626	-0.003041	0.123269
O4	O	-1.494357	-0.432402	0.123276
O5	O	-1.509597	-0.003046	-0.123411
O6	O	-1.317293	-0.227522	-0.123399
O7	O	-1.686633	-0.207931	-0.123417
Cu8	Cu	-1.501961	-0.217727	-0.145932
Cu9	Cu	-1.501994	-0.217721	0.145797
O10	O	-1.494329	-0.432407	-0.123405
C11	C	-1.269999	-0.226051	-0.000057
C12	C	-1.129034	-0.221655	-0.000050
C13	C	-1.508144	0.051936	-0.000069
C14	C	-1.503757	0.215756	-0.000061
C15	C	-1.733956	-0.209398	-0.000076
C16	C	-1.874920	-0.213794	-0.000073
C17	C	-0.944985	-0.053221	-0.000628
C18	C	-1.091619	-0.057677	-0.000057
C19	C	-1.067670	-0.300565	0.140813
C20	C	-0.921105	-0.294969	0.140915
C21	C	-0.920596	-0.298311	-0.139607
C22	C	-1.067583	-0.299821	-0.141453
C23	C	-1.495811	-0.487384	-0.000064
C24	C	-1.500198	-0.651205	-0.000061
N25	N	-1.501946	-0.217731	-0.351118
C26	C	-1.398757	-0.337408	-0.586144
C27	C	-1.398988	-0.337856	-0.414253
C28	C	-1.634799	-0.252754	-0.413462
C29	C	-1.634236	-0.253602	-0.585407
C30	C	-1.473599	-0.062638	-0.585663
C31	C	-1.470557	-0.063643	-0.413708
N32	N	-1.502018	-0.217706	0.350983
H33	H	-0.916148	0.011558	-0.101649
H34	H	-1.540739	0.029712	-0.370737
C35	C	-1.741280	-0.140418	-0.641605
H36	H	-1.741657	-0.140165	-0.746973
H37	H	-1.821036	-0.166745	-0.606154
H38	H	-1.727171	-0.044512	-0.606370
H39	H	-1.548881	0.026456	-0.626319
C40	C	-0.856886	-0.454272	0.149594
H41	H	-0.920405	-0.522119	0.153052
H42	H	-0.804777	-0.474093	0.064657
H43	H	-0.805875	-0.464887	0.236466
C44	C	-1.124933	-0.226520	0.282439
H45	H	-1.087194	-0.275061	0.367092
H46	H	-1.108655	-0.125173	0.283704
H47	H	-1.214285	-0.233666	0.283902
C48	C	-1.148868	0.026200	-0.136463
H49	H	-1.082511	0.063318	-0.192722
H50	H	-1.192503	-0.039283	-0.196050
H51	H	-1.206893	0.106339	-0.104765
H52	H	-1.133145	0.004855	0.101092
C53	C	-0.903870	0.033936	0.135067
H54	H	-0.844194	-0.027110	0.192061
H55	H	-0.865678	0.119258	0.102668
H56	H	-0.976378	0.063404	0.194207
H57	H	-1.378739	-0.029304	-0.629106
H58	H	-0.892691	-0.236643	0.246210
H59	H	-1.713540	-0.167950	-0.372563
C60	C	-1.098474	-0.463239	0.147914
H61	H	-1.149159	-0.484524	0.064838
H62	H	-1.021448	-0.526397	0.146603
H63	H	-1.143845	-0.479144	0.236677
C64	C	-0.877702	-0.226630	-0.283849
H65	H	-0.831534	-0.144475	-0.260317
H66	H	-0.824733	-0.297262	-0.338844
H67	H	-0.950386	-0.193893	-0.341357
H68	H	-1.108321	-0.242174	-0.245663
C69	C	-1.100899	-0.461326	-0.152947
H70	H	-1.152945	-0.483300	-0.071287
H71	H	-1.145535	-0.474285	-0.242850
H72	H	-1.024762	-0.526039	-0.151759
C73	C	-1.668995	-0.403862	-0.355284
H74	H	-1.602492	-0.445801	-0.293018
H75	H	-1.746095	-0.390775	-0.300330
H76	H	-1.679466	-0.468250	-0.436625
H77	H	-0.873807	-0.416751	-0.140556
H78	H	-1.300294	-0.316782	-0.372105
C79	C	-1.423193	-0.491950	-0.644477
H80	H	-1.496054	-0.483841	-0.706978
H81	H	-1.351200	-0.532264	-0.699216
H82	H	-1.437428	-0.555082	-0.563215
C83	C	-1.338524	-0.027774	-0.358674
H84	H	-1.302672	-0.106362	-0.297798
H85	H	-1.284406	-0.016331	-0.441338
H86	H	-1.347046	0.061491	-0.302901
C87	C	-1.423750	-0.493268	-0.358655
H88	H	-1.433719	-0.556372	-0.441156
H89	H	-1.353704	-0.532612	-0.300179
H90	H	-1.499128	-0.486703	-0.300348
H91	H	-1.299755	-0.316658	-0.627533
H92	H	-1.659009	-0.366735	-0.625496
