data_functionalizedCrystal
_audit_creation_method	'MofGen! by Chris Wilmer'
_symmetry_space_group_name_H-M	'P1'
_symmetry_Int_Tables_number	1
_symmetry_cell_setting	triclinic
loop_
_symmetry_equiv_pos_as_xyz
  x,y,z
_cell_length_a	23.532407
_cell_length_b	19.188879
_cell_length_c	18.266242
_cell_angle_alpha	90.014926
_cell_angle_beta	89.996399
_cell_angle_gamma	97.013622
loop_
_atom_site_label
_atom_site_type_symbol
_atom_site_fract_x
_atom_site_fract_y
_atom_site_fract_z
O1	O	-0.755431	0.084758	0.060805
O2	O	-0.255431	0.584758	0.560805
O3	O	-0.589591	0.097022	0.060829
O4	O	-0.089591	0.597022	0.560829
O5	O	-0.677312	-0.010783	0.060793
O6	O	-0.177312	0.489217	0.560793
O7	O	-0.667710	0.192564	0.060840
O8	O	-0.167710	0.692564	0.560840
O9	O	-0.677297	-0.010786	-0.060969
O10	O	-0.177297	0.489214	0.439031
O11	O	-0.589577	0.097019	-0.060933
O12	O	-0.089577	0.597019	0.439067
O13	O	-0.755416	0.084755	-0.060957
O14	O	-0.255416	0.584755	0.439043
Zn15	Zn	-0.672494	0.090887	-0.080278
Zn16	Zn	-0.172494	0.590887	0.419722
Zn17	Zn	-0.672513	0.090891	0.080149
Zn18	Zn	-0.172513	0.590891	0.580149
O19	O	-0.667695	0.192561	-0.060922
O20	O	-0.167695	0.692561	0.439078
C21	C	-0.568367	0.096709	-0.000050
C22	C	-0.068367	0.596709	0.499950
C23	C	-0.505148	0.095770	-0.000042
C24	C	-0.005148	0.595770	0.499958
C25	C	-0.676998	-0.036795	-0.000092
C26	C	-0.176998	0.463205	0.499908
C27	C	-0.676079	-0.114299	-0.000105
C28	C	-0.176079	0.385701	0.499895
C29	C	-0.776640	0.085069	-0.000077
C30	C	-0.276640	0.585069	0.499923
C31	C	-0.839859	0.086008	-0.000080
C32	C	-0.339859	0.586008	0.499920
C33	C	-0.106160	0.153677	-0.000061
C34	C	0.393840	0.653677	0.499939
C35	C	-0.046758	0.152805	-0.000066
C36	C	0.453242	0.652805	0.499934
O37	O	-0.010119	0.206486	-0.000080
O38	O	0.489881	0.706486	0.499920
N39	N	-0.024005	0.088715	-0.000080
N40	N	0.475995	0.588715	0.499920
C41	C	-0.060658	0.025493	-0.000096
C42	C	0.439342	0.525493	0.499904
O43	O	-0.035850	-0.029101	-0.000109
O44	O	0.464150	0.470899	0.499891
C45	C	-0.120059	0.026366	-0.000097
C46	C	0.379941	0.526366	0.499903
C47	C	-0.142808	0.090460	-0.000076
C48	C	0.357192	0.590460	0.499924
C49	C	-0.128910	0.217767	-0.000041
C50	C	0.371090	0.717767	0.499959
C51	C	-0.188307	0.218638	-0.000035
C52	C	0.311693	0.718638	0.499965
C53	C	-0.224955	0.155421	-0.000049
C54	C	0.275045	0.655421	0.499951
C55	C	-0.202206	0.091332	-0.000070
C56	C	0.297794	0.591332	0.499930
C57	C	-0.156710	-0.036856	-0.000119
C58	C	0.343290	0.463144	0.499881
C59	C	-0.216114	-0.035977	-0.000120
C60	C	0.283886	0.464023	0.499880
C61	C	-0.238864	0.028117	-0.000099
C62	C	0.261136	0.528117	0.499901
C63	C	-0.298252	0.028987	-0.000078
C64	C	0.201748	0.528987	0.499922
N65	N	-0.321004	0.093077	-0.000064
N66	N	0.178996	0.593077	0.499936
C67	C	-0.284356	0.156294	-0.000050
C68	C	0.215644	0.656294	0.499950
C69	C	0.064088	0.023664	-0.000096
C70	C	0.564088	0.523664	0.499904
C71	C	0.123488	0.022791	-0.000091
C72	C	0.623488	0.522791	0.499909
C73	C	0.137384	0.150103	-0.000062
C74	C	0.637384	0.650103	0.499938
C75	C	0.077983	0.150976	-0.000062
C76	C	0.577983	0.650976	0.499938
C77	C	0.041336	0.087754	-0.000083
C78	C	0.541336	0.587754	0.499917
C79	C	-0.409097	0.158121	-0.000037
C80	C	0.090903	0.658121	0.499963
C81	C	-0.468500	0.158987	-0.000028
C82	C	0.031500	0.658987	0.499972
C83	C	-0.482391	0.031675	-0.000060
C84	C	0.017609	0.531675	0.499940
C85	C	-0.422993	0.030808	-0.000065
C86	C	0.077007	0.530808	0.499935
C87	C	-0.386346	0.094036	-0.000056
C88	C	0.113654	0.594036	0.499944
O89	O	-0.334925	-0.024666	-0.000067
O90	O	0.165075	0.475334	0.499933
O91	O	-0.309172	0.210879	-0.000047
O92	O	0.190828	0.710879	0.499953
C93	C	-0.668009	0.218573	-0.000035
C94	C	-0.168009	0.718573	0.499965
C95	C	-0.668928	0.296076	-0.000017
C96	C	-0.168928	0.796076	0.499983
C97	C	-0.669366	0.332456	-0.066393
C98	C	-0.169366	0.832456	0.433607
C99	C	-0.670245	0.405276	-0.066406
C100	C	-0.170245	0.905276	0.433594
C101	C	-0.670697	0.441712	-0.000039
C102	C	-0.170697	0.941712	0.499961
C103	C	-0.670256	0.405325	0.066346
C104	C	-0.170256	0.905325	0.566346
C105	C	-0.669371	0.332507	0.066357
C106	C	-0.169371	0.832507	0.566357
N107	N	-0.704502	0.550625	0.049342
N108	N	-0.204502	1.050625	0.549342
N109	N	-0.705344	0.619799	0.049327
N110	N	-0.205344	1.119799	0.549327
C111	C	-0.673362	0.661108	-0.000068
C112	C	-0.173362	1.161108	0.499932
N113	N	-0.640513	0.630630	-0.049459
N114	N	-0.140513	1.130630	0.450541
N115	N	-0.639674	0.561449	-0.049446
N116	N	-0.139674	1.061449	0.450554
C117	C	-0.671656	0.520671	-0.000043
C118	C	-0.171656	1.020671	0.499957
C119	C	-0.674752	0.776448	-0.066463
C120	C	-0.174752	1.276448	0.433537
C121	C	-0.675628	0.849270	-0.066473
C122	C	-0.175628	1.349270	0.433527
C123	C	-0.675645	0.849316	0.066281
C124	C	-0.175645	1.349316	0.566281
C125	C	-0.674764	0.776496	0.066289
C126	C	-0.174764	1.276496	0.566289
C127	C	-0.674320	0.740066	-0.000085
C128	C	-0.174320	1.240066	0.499915
N129	N	-0.672484	0.090884	-0.189764
N130	N	-0.172484	0.590884	0.310236
C131	C	-0.706907	0.133020	-0.228062
C132	C	-0.206907	0.633020	0.271938
C133	C	-0.706917	0.133018	-0.304707
C134	C	-0.206917	0.633018	0.195293
C135	C	-0.672493	0.090888	-0.343051
C136	C	-0.172493	0.590888	0.156949
C137	C	-0.638068	0.048743	-0.304745
C138	C	-0.138068	0.548743	0.195255
C139	C	-0.638064	0.048741	-0.228101
C140	C	-0.138064	0.548741	0.271899
N141	N	-0.622616	0.089327	-0.463398
N142	N	-0.122616	0.589327	0.036602
N143	N	-0.622621	0.089333	-0.536206
N144	N	-0.122621	0.589333	-0.036206
C145	C	-0.672504	0.090891	-0.573974
C146	C	-0.172504	0.590891	-0.073974
N147	N	-0.722382	0.092455	-0.536183
N148	N	-0.222382	0.592455	-0.036183
N149	N	-0.722376	0.092453	-0.463368
N150	N	-0.222376	0.592453	0.036632
C151	C	-0.672494	0.090885	-0.426158
C152	C	-0.172494	0.590885	0.073842
C153	C	-0.706940	0.133027	-0.695378
C154	C	-0.206940	0.633027	-0.195378
C155	C	-0.706951	0.133020	-0.772025
C156	C	-0.206951	0.633020	-0.272025
C157	C	-0.638096	0.048749	-0.772061
C158	C	-0.138096	0.548749	-0.272061
C159	C	-0.638091	0.048751	-0.695416
C160	C	-0.138091	0.548751	-0.195416
C161	C	-0.672512	0.090895	-0.657079
C162	C	-0.172512	0.590895	-0.157079
N163	N	-0.672527	0.090888	0.189636
N164	N	-0.172527	0.590888	0.689636
H165	H	-0.487019	0.211182	-0.000010
H166	H	0.012981	0.711182	0.499990
N167	N	-0.674344	0.737244	0.137881
N168	N	-0.174344	1.237244	0.637881
H169	H	-0.674781	0.771371	0.179924
H170	H	-0.174781	1.271371	0.679924
H171	H	-0.709292	0.701135	0.140727
H172	H	-0.209292	1.201135	0.640727
H173	H	-0.610068	0.014444	-0.803280
H174	H	-0.110068	0.514444	-0.303280
N175	N	-0.670729	0.444521	-0.138002
N176	N	-0.170729	0.944521	0.361998
H177	H	-0.671360	0.496179	-0.127935
H178	H	-0.171360	0.996179	0.372065
H179	H	-0.635277	0.437708	-0.166990
H180	H	-0.135277	0.937708	0.333010
H181	H	-0.675983	0.878889	-0.120527
H182	H	-0.175983	1.378889	0.379473
H183	H	0.167234	0.201578	-0.000054
H184	H	0.667234	0.701578	0.499946
N185	N	-0.600930	0.003293	-0.186795
N186	N	-0.100930	0.503293	0.313205
H187	H	-0.572972	0.033865	-0.154992
H188	H	-0.072972	0.533865	0.345008
H189	H	-0.625854	-0.031030	-0.155043
H190	H	-0.125854	0.468970	0.344957
N191	N	-0.744078	0.178475	-0.813333
N192	N	-0.244078	0.678475	-0.313333
H193	H	-0.738860	0.172081	-0.867704
H194	H	-0.238860	0.672081	-0.367704
H195	H	-0.785532	0.164429	-0.799931
H196	H	-0.285532	0.664429	-0.299931
N197	N	-0.668875	0.293175	-0.137985
N198	N	-0.168875	0.793175	0.362015
H199	H	-0.633209	0.268885	-0.140933
H200	H	-0.133209	0.768885	0.359067
H201	H	-0.703826	0.257075	-0.140910
H202	H	-0.203826	0.757075	0.359090
H203	H	-0.404469	-0.021383	-0.000072
H204	H	0.095531	0.478617	0.499928
H205	H	-0.512240	-0.019795	-0.000069
H206	H	-0.012240	0.480205	0.499931
H207	H	-0.674386	0.746786	-0.120508
H208	H	-0.174386	1.246786	0.379492
N209	N	-0.600962	0.003306	-0.654104
N210	N	-0.100962	0.503306	-0.154104
H211	H	-0.579155	-0.023385	-0.690022
H212	H	-0.079155	0.476615	-0.190022
H213	H	-0.573039	0.033921	-0.622298
H214	H	-0.073039	0.533921	-0.122298
N215	N	-0.670694	0.444627	0.137929
N216	N	-0.170694	0.944627	0.637929
H217	H	-0.671307	0.496280	0.127851
H218	H	-0.171307	0.996280	0.627851
H219	H	-0.705824	0.426014	0.166954
H220	H	-0.205824	0.926014	0.666954
N221	N	-0.744039	0.178474	-0.346028
N222	N	-0.244039	0.678474	0.153972
H223	H	-0.771998	0.147906	-0.377835
H224	H	-0.271998	0.647906	0.122165
H225	H	-0.765806	0.205164	-0.310068
H226	H	-0.265806	0.705164	0.189932
N227	N	0.024560	-0.044527	-0.000102
N228	N	0.524560	0.455473	0.499898
H229	H	-0.000394	-0.047011	-0.045240
H230	H	0.499606	0.452989	0.454760
H231	H	0.048030	-0.085218	-0.000081
H232	H	0.548030	0.414782	0.499919
N233	N	-0.132187	-0.105990	-0.000149
N234	N	0.367813	0.394010	0.499851
H235	H	-0.107853	-0.109189	-0.045290
H236	H	0.392147	0.390811	0.454710
H237	H	-0.107881	-0.109161	0.045014
H238	H	0.392119	0.390839	0.545014
H239	H	-0.676007	0.878983	0.120319
H240	H	-0.176007	1.378983	0.620319
N241	N	-0.744038	0.178464	-0.186713
N242	N	-0.244038	0.678464	0.313287
H243	H	-0.765849	0.205155	-0.222610
H244	H	-0.265849	0.705155	0.277390
H245	H	-0.771957	0.147841	-0.154923
H246	H	-0.271957	0.647841	0.345077
N247	N	-0.600941	0.003297	-0.346096
N248	N	-0.100941	0.503297	0.153904
H249	H	-0.606166	0.009693	-0.400462
H250	H	-0.106166	0.509693	0.099538
H251	H	-0.559486	0.017347	-0.332701
H252	H	-0.059486	0.517347	0.167299
N253	N	-0.668927	0.293270	0.137958
N254	N	-0.168927	0.793270	0.637958
H255	H	-0.633796	0.311865	0.166999
H256	H	-0.133796	0.811865	0.666999
H257	H	-0.704413	0.300065	0.166884
H258	H	-0.204413	0.800065	0.666884
N259	N	-0.369576	0.226315	-0.000044
N260	N	0.130424	0.726315	0.499956
H261	H	-0.393009	0.267043	-0.000034
H262	H	0.106991	0.767043	0.499966
H263	H	-0.344622	0.228741	0.045088
H264	H	0.155378	0.728741	0.545088
N265	N	-0.212840	0.287769	-0.000009
N266	N	0.287160	0.787769	0.499991
H267	H	-0.180603	0.327679	-0.000000
H268	H	0.319397	0.827679	0.500000
H269	H	-0.237182	0.290910	-0.045145
H270	H	0.262818	0.790910	0.454855
H271	H	-0.734968	0.167342	-0.664163
H272	H	-0.234968	0.667342	-0.164163
H273	H	0.059465	0.203167	-0.000049
H274	H	0.559465	0.703167	0.499951
N275	N	-0.089402	0.285968	-0.000056
N276	N	0.410598	0.785968	0.499944
H277	H	-0.096707	0.313959	0.045081
H278	H	0.403293	0.813959	0.545081
H279	H	-0.048328	0.275663	-0.000095
H280	H	0.451672	0.775663	0.499905
N281	N	0.148025	-0.046337	-0.000105
N282	N	0.648025	0.453663	0.499895
H283	H	0.134647	-0.074013	0.045026
H284	H	0.634647	0.425987	0.545026
H285	H	0.134641	-0.073957	-0.045278
H286	H	0.634641	0.426043	0.454722
N287	N	-0.255641	-0.104168	-0.000146
N288	N	0.244359	0.395832	0.499854
H289	H	-0.232212	-0.144899	-0.000161
H290	H	0.267788	0.355101	0.499839
H291	H	-0.280591	-0.106584	0.044993
H292	H	0.219409	0.393416	0.544993
