data_functionalizedCrystal
_audit_creation_method	'MofGen! by Chris Wilmer'
_symmetry_space_group_name_H-M	'P1'
_symmetry_Int_Tables_number	1
_symmetry_cell_setting	triclinic
loop_
_symmetry_equiv_pos_as_xyz
  x,y,z
_cell_length_a	18.050589
_cell_length_b	12.827893
_cell_length_c	12.827885
_cell_angle_alpha	90.019462
_cell_angle_beta	89.970449
_cell_angle_gamma	89.971809
loop_
_atom_site_label
_atom_site_type_symbol
_atom_site_fract_x
_atom_site_fract_y
_atom_site_fract_z
Zn1	Zn	-0.295624	-1.597578	-0.590850
Zn2	Zn	-0.419832	-1.597433	-0.416111
Zn3	Zn	-0.295660	-1.422819	-0.416124
Zn4	Zn	-0.419777	-1.422766	-0.590811
O5	O	-0.357723	-1.510149	-0.503474
O6	O	-0.312109	-1.743795	-0.567682
O7	O	-0.403399	-1.574231	-0.269877
O8	O	-0.191731	-1.446085	-0.439323
O9	O	-0.403364	-1.743688	-0.439302
O10	O	-0.191704	-1.574479	-0.567694
O11	O	-0.312170	-1.445943	-0.269886
O12	O	-0.312117	-1.276576	-0.439286
O13	O	-0.403269	-1.445994	-0.737053
O14	O	-0.403304	-1.276537	-0.567628
O15	O	-0.312055	-1.574428	-0.737081
O16	O	-0.523749	-1.574180	-0.439264
O17	O	-0.523709	-1.445853	-0.567615
C18	C	-0.550675	-1.510023	-0.503457
C19	C	-0.633221	-1.510065	-0.503484
C20	C	-0.357709	-1.238639	-0.503454
C21	C	-0.357721	-1.122486	-0.503471
C22	C	-0.357652	-1.510221	-0.776045
C23	C	-0.357622	-1.510252	-0.892198
C24	C	-0.832677	-1.440349	-0.573257
C25	C	-0.882124	-1.414872	-0.477900
C26	C	-0.784351	-1.510167	-0.503498
C27	C	-0.881986	-1.535696	-0.598866
C28	C	-0.930337	-1.510264	-0.503520
C29	C	-0.832712	-1.484640	-0.408091
C30	C	-0.832569	-1.605508	-0.529120
C31	C	-0.881994	-1.580067	-0.433698
C32	C	-0.700253	-1.510109	-0.503487
C33	C	-1.014433	-1.510323	-0.503520
C34	C	-0.164018	-1.510304	-0.503515
C35	C	-0.081472	-1.510370	-0.503532
C36	C	-0.357738	-1.782719	-0.503495
C37	C	-0.357745	-1.898872	-0.503504
C38	C	-0.402914	-1.070710	-0.566880
C39	C	-0.402927	-0.950659	-0.566899
C40	C	-0.312470	-1.446791	-0.943987
C41	C	-0.312438	-1.446822	-1.064038
C42	C	-0.357741	-1.510137	-0.231964
C43	C	-0.357562	-1.510309	-0.115812
H44	H	-0.811021	-1.381219	-0.632167
C45	C	-0.260212	-1.373421	-1.124203
N46	N	-0.220876	-1.318132	-1.169522
C47	C	-0.409878	-1.583593	-0.952362
N48	N	-0.449261	-1.638804	-0.997676
H49	H	-0.811157	-1.462994	-0.327426
C50	C	-0.911530	-1.306005	-0.448627
N51	N	-0.933677	-1.224004	-0.426585
H52	H	-0.903512	-1.639152	-0.374645
C53	C	-0.305468	-0.959016	-0.430161
N54	N	-0.266091	-1.004324	-0.374921
H55	H	-0.396217	-1.564647	-1.071281
H56	H	-0.810788	-1.686071	-0.550818
H57	H	-0.903630	-1.557249	-0.679509
H58	H	-0.441593	-1.115259	-0.621158
H59	H	-0.441621	-0.906133	-0.621183
C60	C	-0.260272	-1.373368	-0.883823
N61	N	-0.220951	-1.318068	-0.838509
H62	H	-0.319036	-1.077937	-0.449201
