data_functionalizedCrystal
_audit_creation_method	'MofGen! by Chris Wilmer'
_symmetry_space_group_name_H-M	'P1'
_symmetry_Int_Tables_number	1
_symmetry_cell_setting	triclinic
loop_
_symmetry_equiv_pos_as_xyz
  x,y,z
_cell_length_a	14.971486
_cell_length_b	8.559649
_cell_length_c	14.048226
_cell_angle_alpha	89.995035
_cell_angle_beta	89.998499
_cell_angle_gamma	76.696397
loop_
_atom_site_label
_atom_site_type_symbol
_atom_site_fract_x
_atom_site_fract_y
_atom_site_fract_z
O1	O	1.172520	0.208203	-0.079048
O2	O	0.910393	0.233135	-0.079073
O3	O	1.064550	-0.011889	-0.079057
O4	O	1.018363	0.453227	-0.079064
O5	O	1.064535	-0.011903	0.079264
O6	O	0.910377	0.233121	0.079248
O7	O	1.172505	0.208188	0.079274
Zn8	Zn	1.041438	0.220652	0.104398
Zn9	Zn	1.041459	0.220671	-0.104197
O10	O	1.018347	0.453212	0.079258
C11	C	0.877137	0.232013	0.000084
C12	C	0.778072	0.228672	0.000074
C13	C	0.710872	0.372617	0.000074
C14	C	0.617791	0.369468	0.000088
C15	C	0.591911	0.222372	0.000096
C16	C	0.659119	0.078416	0.000099
C17	C	0.752198	0.081566	0.000092
C18	C	0.465111	0.071859	0.000113
C19	C	0.372025	0.068707	0.000118
C20	C	0.330704	0.359760	0.000108
C21	C	0.423783	0.362910	0.000101
C22	C	0.490984	0.218954	0.000103
C23	C	1.068043	-0.071419	0.000102
C24	C	1.078461	-0.248779	0.000098
C25	C	1.205760	0.209310	0.000114
C26	C	1.304826	0.212652	0.000118
C27	C	1.014855	0.512743	0.000096
C28	C	1.004436	0.690103	0.000094
N29	N	1.041431	0.220638	0.246758
N30	N	1.041474	0.220673	-0.246558
C31	C	1.109708	0.112186	0.296583
C32	C	1.109714	0.112186	0.396241
C33	C	1.041446	0.220645	0.446072
C34	C	0.973163	0.329102	0.396240
C35	C	0.973153	0.329094	0.296584
C36	C	0.973188	0.329114	0.603954
C37	C	0.973197	0.329124	0.703617
C38	C	1.109748	0.112205	0.703611
C39	C	1.109739	0.112197	0.603955
C40	C	1.041456	0.220657	0.554130
H41	H	0.350958	-0.051071	0.000126
O42	O	0.265465	0.499648	-0.000056
C43	C	0.201700	0.747491	-0.082058
C44	C	0.275618	0.589119	-0.081995
H45	H	0.209896	0.819888	-0.148288
H46	H	0.130702	0.720079	-0.082107
H47	H	0.209820	0.819803	-0.015777
H48	H	0.267585	0.516728	-0.148265
H49	H	0.346588	0.616643	-0.081896
H50	H	0.519825	-0.045367	0.000115
O51	O	0.633935	-0.064434	-0.000061
C52	C	0.552780	-0.236854	-0.082045
C53	C	0.581252	-0.075036	-0.081989
H54	H	0.510165	-0.245464	-0.148267
H55	H	0.616769	-0.339262	-0.082105
H56	H	0.510273	-0.245585	-0.015756
H57	H	0.623738	-0.066148	-0.148268
H58	H	0.517226	0.027295	-0.081879
H59	H	0.806913	-0.035649	0.000092
H60	H	0.933089	-0.226536	0.000090
H61	H	1.149813	-0.332149	0.000112
O62	O	1.176190	0.007005	0.751966
C63	C	1.338120	-0.086183	0.782405
C64	C	1.262966	0.033053	0.727594
H65	H	1.408298	-0.065187	0.762705
H66	H	1.326476	-0.067552	0.862202
H67	H	1.335222	-0.214174	0.762835
H68	H	1.265821	0.161091	0.747085
H69	H	1.274636	0.014282	0.647811
H70	H	1.165303	0.023873	0.256018
O71	O	0.736122	0.515408	0.000189
C72	C	0.817184	0.687918	0.082223
C73	C	0.788675	0.526133	0.082197
H74	H	0.859662	0.696656	0.148529
H75	H	0.859780	0.696699	0.016006
H76	H	0.753150	0.790232	0.082180
H77	H	0.852658	0.423727	0.082274
H78	H	0.746046	0.517492	0.148409
H79	H	1.165310	0.023875	0.436808
H80	H	1.165332	0.023889	0.563383
O81	O	0.906782	0.434517	0.751877
C82	C	0.771346	0.649683	0.741372
C83	C	0.846500	0.530397	0.686599
H84	H	0.722600	0.727255	0.688619
H85	H	0.731368	0.580622	0.788009
H86	H	0.804479	0.729557	0.788047
H87	H	0.813442	0.450493	0.639872
H88	H	0.886471	0.599557	0.640021
O89	O	0.552433	0.509194	-0.000049
C90	C	0.423400	0.674601	-0.082109
C91	C	0.497354	0.516276	-0.082060
H92	H	0.378861	0.680393	-0.148418
H93	H	0.378726	0.680443	-0.015894
H94	H	0.457911	0.780242	-0.082079
H95	H	0.462920	0.410546	-0.082124
H96	H	0.542021	0.510574	-0.148269
H97	H	0.917581	0.417428	0.563390
O98	O	0.906733	0.434296	0.444602
C99	C	0.744809	0.527503	0.475071
C100	C	0.819950	0.408255	0.420260
H101	H	0.674626	0.506513	0.455395
H102	H	0.756468	0.508882	0.554867
H103	H	0.747708	0.655490	0.455476
H104	H	0.817095	0.280221	0.439774
H105	H	0.808265	0.427017	0.340477
H106	H	0.444850	0.482689	0.000085
H107	H	0.917554	0.417405	0.256017
