data_functionalizedCrystal
_audit_creation_method	'MofGen! by Chris Wilmer'
_symmetry_space_group_name_H-M	'P1'
_symmetry_Int_Tables_number	1
_symmetry_cell_setting	triclinic
loop_
_symmetry_equiv_pos_as_xyz
  x,y,z
_cell_length_a	10.654546
_cell_length_b	10.654550
_cell_length_c	17.766277
_cell_angle_alpha	89.994852
_cell_angle_beta	89.989732
_cell_angle_gamma	84.484193
loop_
_atom_site_label
_atom_site_type_symbol
_atom_site_fract_x
_atom_site_fract_y
_atom_site_fract_z
O1	O	1.667852	0.176380	-0.062609
O2	O	2.167852	0.676380	0.437391
O3	O	1.302373	0.193191	-0.062606
O4	O	1.802373	0.693191	0.437394
O5	O	1.493516	0.002046	-0.062605
O6	O	1.993516	0.502046	0.437395
O7	O	1.476710	0.367525	-0.062610
O8	O	1.976710	0.867525	0.437390
O9	O	1.493482	0.002036	0.062584
O10	O	1.993482	0.502036	0.562584
O11	O	1.302339	0.193180	0.062582
O12	O	1.802339	0.693180	0.562582
O13	O	1.667818	0.176370	0.062580
O14	O	2.167818	0.676370	0.562580
Cu15	Cu	1.485076	0.184774	0.074012
Cu16	Cu	1.985076	0.684774	0.574012
Cu17	Cu	1.485116	0.184786	-0.074038
Cu18	Cu	1.985116	0.684786	0.425962
O19	O	1.476676	0.367514	0.062578
O20	O	1.976676	0.867514	0.562578
C21	C	1.255558	0.191952	-0.000012
C22	C	1.755558	0.691952	0.499988
C23	C	1.116115	0.188262	-0.000011
C24	C	1.616115	0.688262	0.499989
C25	C	1.050639	0.186521	-0.068255
C26	C	1.550639	0.686521	0.431745
C27	C	0.919618	0.183044	-0.068261
C28	C	1.419618	0.683044	0.431739
C29	C	0.919562	0.183043	0.068227
C30	C	1.419562	0.683043	0.568227
C31	C	1.050579	0.186529	0.068232
C32	C	1.550579	0.686529	0.568232
C33	C	1.050671	0.186516	-0.147055
C34	C	1.550671	0.686516	0.352945
C35	C	0.919650	0.183039	-0.147061
C36	C	1.419650	0.683039	0.352939
C37	C	1.492265	-0.044757	-0.000011
C38	C	1.992265	0.455243	0.499989
C39	C	1.488573	-0.184200	-0.000014
C40	C	1.988573	0.315800	0.499986
C41	C	1.601115	-0.263687	-0.000012
C42	C	2.101115	0.236313	0.499988
C43	C	1.597638	-0.394708	-0.000018
C44	C	2.097638	0.105292	0.499982
C45	C	1.369068	-0.366742	-0.000023
C46	C	1.869068	0.133258	0.499977
C47	C	1.372546	-0.235724	-0.000023
C48	C	1.872546	0.264276	0.499977
C49	C	1.733078	-0.279835	-0.000006
C50	C	2.233078	0.220165	0.499994
C51	C	1.729601	-0.410855	-0.000011
C52	C	2.229601	0.089145	0.499989
C53	C	1.714633	0.177608	-0.000016
C54	C	2.214633	0.677608	0.499984
C55	C	1.854077	0.181298	-0.000022
C56	C	2.354077	0.681298	0.499978
C57	C	1.477927	0.414317	-0.000017
C58	C	1.977927	0.914317	0.499983
C59	C	1.481619	0.553761	-0.000019
C60	C	1.981619	1.053761	0.499981
N61	N	1.485057	0.184765	0.178142
N62	N	1.985057	0.684765	0.678142
N63	N	1.485145	0.184785	-0.178169
N64	N	1.985145	0.684785	0.321831
C65	C	1.569723	0.100168	0.217530
C66	C	2.069723	0.600168	0.717530
C67	C	1.569730	0.100163	0.296331
C68	C	2.069730	0.600163	0.796331
C69	C	1.485083	0.184775	0.335743
C70	C	1.985083	0.684775	0.835743
C71	C	1.400401	0.269378	0.296345
C72	C	1.900401	0.769378	0.796345
C73	C	1.400388	0.269373	0.217545
C74	C	1.900388	0.769373	0.717545
C75	C	1.469624	0.299014	0.460579
C76	C	1.969624	0.799014	0.960579
C77	C	1.469646	0.299020	0.539378
C78	C	1.969646	0.799020	1.039378
C79	C	1.485117	0.184791	0.578789
C80	C	1.985117	0.684791	1.078789
C81	C	1.500593	0.070550	0.539392
C82	C	2.000593	0.570550	1.039392
C83	C	1.500579	0.070544	0.460591
C84	C	2.000579	0.570544	0.960591
C85	C	1.485088	0.184790	0.421188
C86	C	1.985088	0.684790	0.921188
C87	C	1.569795	0.100181	0.703622
C88	C	2.069795	0.600181	1.203622
C89	C	1.569794	0.100173	0.782426
C90	C	2.069794	0.600173	1.282426
C91	C	1.400471	0.269400	0.782438
C92	C	1.900471	0.769400	1.282438
C93	C	1.400467	0.269397	0.703637
C94	C	1.900467	0.769397	1.203637
C95	C	1.485135	0.184788	0.664233
C96	C	1.985135	0.684788	1.164233
H97	H	1.280904	-0.171009	-0.000035
H98	H	1.780904	0.328991	0.499965
H99	H	1.513190	-0.022467	0.571478
H100	H	2.013190	0.477533	1.071478
H101	H	1.457004	0.392039	0.428497
H102	H	1.957004	0.892039	0.928497
F103	F	1.245591	-0.421589	-0.000034
F104	F	1.745591	0.078411	0.499966
H105	H	1.457053	0.392042	0.571449
H106	H	1.957053	0.892042	1.071449
H107	H	0.866187	0.181633	0.123788
H108	H	1.366187	0.681633	0.623788
F109	F	1.083128	0.302424	-0.186603
F110	F	1.583128	0.802424	0.313397
F111	F	1.659902	0.010128	0.661686
F112	F	2.159902	0.510128	1.161686
H113	H	1.638735	0.031278	0.814496
H114	H	2.138735	0.531278	1.314496
H115	H	1.513177	-0.022474	0.428517
H116	H	2.013177	0.477526	0.928517
F117	F	1.787967	-0.233266	0.070649
F118	F	2.287967	0.266734	0.570649
F119	F	1.800560	-0.241450	-0.068479
F120	F	2.300560	0.258550	0.431521
H121	H	1.638662	0.031273	0.185450
H122	H	2.138662	0.531273	0.685450
F123	F	1.781746	-0.470516	-0.070661
F124	F	2.281746	0.029484	0.429339
F125	F	1.310376	0.359443	0.824379
F126	F	1.810376	0.859443	1.324379
H127	H	1.331441	0.338263	0.185475
H128	H	1.831441	0.838263	0.685475
F129	F	1.310310	0.359425	0.338290
F130	F	1.810310	0.859425	0.838290
F131	F	1.794568	-0.465451	0.068465
F132	F	2.294568	0.034549	0.568465
H133	H	0.894843	0.094359	-0.177314
H134	H	1.394843	0.594359	0.322686
H135	H	1.103883	0.187961	0.123803
H136	H	1.603883	0.687961	0.623803
F137	F	1.118290	0.069614	-0.179004
F138	F	1.618290	0.569614	0.320996
F139	F	0.852061	0.299942	-0.179031
F140	F	1.352061	0.799942	0.320969
H141	H	1.331529	0.338288	0.671565
H142	H	1.831529	0.838288	1.171565
F143	F	1.659848	0.010118	0.338258
F144	F	2.159848	0.510118	0.838258
