data_functionalizedCrystal
_audit_creation_method	'MofGen! by Chris Wilmer'
_symmetry_space_group_name_H-M	'P1'
_symmetry_Int_Tables_number	1
_symmetry_cell_setting	triclinic
loop_
_symmetry_equiv_pos_as_xyz
  x,y,z
_cell_length_a	12.594516
_cell_length_b	16.625548
_cell_length_c	16.625539
_cell_angle_alpha	90.020568
_cell_angle_beta	89.976673
_cell_angle_gamma	89.982879
loop_
_atom_site_label
_atom_site_type_symbol
_atom_site_fract_x
_atom_site_fract_y
_atom_site_fract_z
Zn1	Zn	-0.423710	-1.232716	-0.455937
Zn2	Zn	-0.090377	-0.899383	-0.122604
Zn3	Zn	0.242957	-0.566050	0.210729
Zn4	Zn	-0.601711	-1.232635	-0.321116
Zn5	Zn	-0.268378	-0.899301	0.012217
Zn6	Zn	0.064955	-0.565968	0.345550
Zn7	Zn	-0.423750	-1.097878	-0.321118
Zn8	Zn	-0.090417	-0.764545	0.012216
Zn9	Zn	0.242916	-0.431212	0.345549
Zn10	Zn	-0.601650	-1.097864	-0.455906
Zn11	Zn	-0.268317	-0.764530	-0.122573
Zn12	Zn	0.065017	-0.431197	0.210761
O13	O	-0.512705	-1.165273	-0.388519
O14	O	-0.179372	-0.831940	-0.055186
O15	O	0.153961	-0.498607	0.278147
O16	O	-0.447331	-1.345538	-0.438065
O17	O	-0.113997	-1.012205	-0.104732
O18	O	0.219336	-0.678871	0.228601
O19	O	-0.578147	-1.214731	-0.208284
O20	O	-0.244813	-0.881398	0.125049
O21	O	0.088520	-0.548064	0.458383
O22	O	-0.274799	-1.115805	-0.339016
O23	O	0.058534	-0.782472	-0.005682
O24	O	0.391867	-0.449138	0.327651
O25	O	-0.578108	-1.345478	-0.339013
O26	O	-0.244774	-1.012145	-0.005680
O27	O	0.088559	-0.678811	0.327654
O28	O	-0.274769	-1.214870	-0.438067
O29	O	0.058564	-0.881537	-0.104734
O30	O	0.391897	-0.548203	0.228600
O31	O	-0.447400	-1.115726	-0.208285
O32	O	-0.114066	-0.782393	0.125048
O33	O	0.219267	-0.449059	0.458382
O34	O	-0.447341	-0.985044	-0.338985
O35	O	-0.114007	-0.651711	-0.005652
O36	O	0.219326	-0.318377	0.327681
O37	O	-0.578003	-1.115780	-0.568743
O38	O	-0.244670	-0.782447	-0.235409
O39	O	0.088663	-0.449114	0.097924
O40	O	-0.578043	-0.985033	-0.438014
O41	O	-0.244709	-0.651700	-0.104680
O42	O	0.088624	-0.318367	0.228653
O43	O	-0.447271	-1.214856	-0.568766
O44	O	-0.113938	-0.881523	-0.235432
O45	O	0.219395	-0.548189	0.097901
O46	O	-0.750649	-1.214717	-0.338983
O47	O	-0.417316	-0.881383	-0.005649
O48	O	-0.083982	-0.548050	0.327684
O49	O	-0.750604	-1.115701	-0.438012
O50	O	-0.417271	-0.782368	-0.104679
O51	O	-0.083937	-0.449034	0.228655
C52	C	-0.512690	-0.955782	-0.388497
C53	C	-0.179357	-0.622449	-0.055163
C54	C	0.153977	-0.289116	0.278170
C55	C	-0.512709	-0.866161	-0.388506
C56	C	-0.179376	-0.532828	-0.055173
C57	C	0.153957	-0.199495	0.278160
C58	C	-0.789246	-1.165220	-0.388511
C59	C	-0.455913	-0.831887	-0.055178
C60	C	-0.122580	-0.498554	0.278155
C61	C	-0.907552	-1.165272	-0.388535
C62	C	-0.574218	-0.831938	-0.055202
C63	C	-0.240885	-0.498605	0.278132
C64	C	-0.512626	-1.165326	-0.598828
C65	C	-0.179293	-0.831992	-0.265495
C66	C	0.154041	-0.498659	0.067838
C67	C	-0.512592	-1.165348	-0.688449
C68	C	-0.179259	-0.832015	-0.355116
C69	C	0.154074	-0.498681	-0.021783
C70	C	-0.976819	-1.111412	-0.442359
C71	C	-0.643486	-0.778078	-0.109026
C72	C	-0.310152	-0.444745	0.224307
C73	C	-1.047680	-1.091767	-0.368785
C74	C	-0.714347	-0.758433	-0.035451
C75	C	-0.381013	-0.425100	0.297882
C76	C	-1.047490	-1.184990	-0.462122
C77	C	-0.714156	-0.851657	-0.128789
C78	C	-0.380823	-0.518323	0.204545
C79	C	-0.976855	-1.145588	-0.314921
C80	C	-0.643521	-0.812254	0.018412
C81	C	-0.310188	-0.478921	0.351745
C82	C	-0.976658	-1.238845	-0.408308
C83	C	-0.643325	-0.905512	-0.074975
C84	C	-0.309991	-0.572179	0.258358
C85	C	-1.047487	-1.219228	-0.334683
C86	C	-0.714154	-0.885895	-0.001350
C87	C	-0.380820	-0.552562	0.331983
C88	C	-0.235085	-1.165348	-0.388545
C89	C	0.098249	-0.832015	-0.055212
C90	C	0.431582	-0.498682	0.278122
C91	C	-0.116779	-1.165380	-0.388556
C92	C	0.216554	-0.832047	-0.055222
C93	C	0.549888	-0.498714	0.278111
C94	C	-0.512721	-1.375582	-0.388542
C95	C	-0.179388	-1.042249	-0.055209
C96	C	0.153945	-0.708915	0.278124
C97	C	-0.512728	-1.465203	-0.388552
C98	C	-0.179395	-1.131870	-0.055219
C99	C	0.153938	-0.798537	0.278114
C100	C	-0.512716	-0.537986	-0.388541
C101	C	-0.179383	-0.204652	-0.055207
C102	C	0.153950	0.128681	0.278126
C103	C	-0.512711	-0.629294	-0.388529
C104	C	-0.179378	-0.295961	-0.055195
C105	C	0.153955	0.037373	0.278138
C106	C	-0.512713	-0.702071	-0.388523
C107	C	-0.179380	-0.368737	-0.055190
C108	C	0.153953	-0.035404	0.278144
C109	C	-0.512707	-0.793385	-0.388512
C110	C	-0.179374	-0.460052	-0.055179
C111	C	0.153959	-0.126718	0.278155
C112	C	-0.512473	-1.165385	-1.016625
C113	C	-0.179140	-0.832052	-0.683292
C114	C	0.154194	-0.498719	-0.349959
C115	C	-0.512510	-1.165373	-0.925317
C116	C	-0.179176	-0.832039	-0.591983
C117	C	0.154157	-0.498706	-0.258650
C118	C	-0.512534	-1.165367	-0.852540
C119	C	-0.179200	-0.832034	-0.519207
C120	C	0.154133	-0.498700	-0.185874
C121	C	-0.512568	-1.165354	-0.761226
C122	C	-0.179235	-0.832020	-0.427893
C123	C	0.154098	-0.498687	-0.094559
C124	C	-0.512708	-1.165267	-0.179028
C125	C	-0.179374	-0.831934	0.154305
C126	C	0.153959	-0.498601	0.487638
C127	C	-0.512442	-1.165401	-0.089408
C128	C	-0.179108	-0.832068	0.243926
C129	C	0.154225	-0.498735	0.577259
H130	H	-0.945789	-1.065783	-0.487811
H131	H	-0.612455	-0.732449	-0.154477
H132	H	-0.279122	-0.399116	0.178856
H133	H	-1.078321	-1.264822	-0.289122
H134	H	-0.744987	-0.931489	0.044211
H135	H	-0.411654	-0.598156	0.377545
H136	H	-1.078517	-1.201624	-0.524346
H137	H	-0.745184	-0.868291	-0.191012
H138	H	-0.411851	-0.534958	0.142321
C139	C	-1.089825	-1.007775	-0.346196
C140	C	-0.756492	-0.674441	-0.012863
C141	C	-0.423158	-0.341108	0.320471
N142	N	-1.121566	-0.944510	-0.329188
N143	N	-0.788232	-0.611177	0.004146
N144	N	-0.454899	-0.277843	0.337479
C145	C	-0.935115	-1.123014	-0.230838
C146	C	-0.601781	-0.789681	0.102496
C147	C	-0.268448	-0.456348	0.435829
N148	N	-0.903674	-1.106009	-0.167508
N149	N	-0.570340	-0.772675	0.165825
N150	N	-0.237007	-0.439342	0.499159
C151	C	-0.934463	-1.322807	-0.430935
C152	C	-0.601130	-0.989474	-0.097602
C153	C	-0.267796	-0.656141	0.235732
N154	N	-0.902674	-1.386046	-0.447988
N155	N	-0.569340	-1.052713	-0.114655
N156	N	-0.236007	-0.719379	0.218679
