data_functionalizedCrystal
_audit_creation_method	'MofGen! by Chris Wilmer'
_symmetry_space_group_name_H-M	'P1'
_symmetry_Int_Tables_number	1
_symmetry_cell_setting	triclinic
loop_
_symmetry_equiv_pos_as_xyz
  x,y,z
_cell_length_a	13.635800
_cell_length_b	7.076090
_cell_length_c	7.076093
_cell_angle_alpha	83.947109
_cell_angle_beta	117.701465
_cell_angle_gamma	117.701400
loop_
_atom_site_label
_atom_site_type_symbol
_atom_site_fract_x
_atom_site_fract_y
_atom_site_fract_z
V1	V	-1.676719	0.291701	0.663510
O2	O	-1.783335	-0.017518	0.652431
O3	O	-1.552400	0.581760	0.657480
O4	O	-1.552398	0.285678	0.953571
O5	O	-1.783337	0.280614	0.354291
V6	V	-1.944480	0.254896	0.626707
O7	O	-1.750317	0.372435	0.744243
O8	O	-2.095980	0.174162	0.545974
O9	O	-1.957196	-0.035163	0.632737
O10	O	-1.896562	0.564115	0.637786
O11	O	-1.896560	0.265983	0.935926
O12	O	-1.957198	0.260919	0.336646
V13	V	-1.176719	0.291701	0.663510
O14	O	-1.283335	-0.017518	0.652431
O15	O	-1.052400	0.581760	0.657480
O16	O	-1.052398	0.285678	0.953571
O17	O	-1.283337	0.280614	0.354291
V18	V	-1.444480	0.254896	0.626707
O19	O	-1.250317	0.372435	0.744243
O20	O	-1.595980	0.174162	0.545974
O21	O	-1.457196	-0.035163	0.632737
O22	O	-1.396562	0.564115	0.637786
O23	O	-1.396560	0.265983	0.935926
O24	O	-1.457198	0.260919	0.336646
C25	C	-1.453787	0.652521	0.646638
C26	C	-1.390957	0.894096	0.643590
C27	C	-1.887488	-0.105911	0.643585
C28	C	-1.939726	-0.347478	0.646683
C29	C	-1.453791	0.274825	1.024318
C30	C	-1.390966	0.271761	1.265891
C31	C	-1.887480	0.271767	0.265887
C32	C	-1.939732	0.274826	0.024313
