data_functionalizedCrystal
_audit_creation_method	'MofGen! by Chris Wilmer'
_symmetry_space_group_name_H-M	'P1'
_symmetry_Int_Tables_number	1
_symmetry_cell_setting	triclinic
loop_
_symmetry_equiv_pos_as_xyz
  x,y,z
_cell_length_a	13.032831
_cell_length_b	29.839132
_cell_length_c	13.032268
_cell_angle_alpha	97.137859
_cell_angle_beta	89.113023
_cell_angle_gamma	97.151100
loop_
_atom_site_label
_atom_site_type_symbol
_atom_site_fract_x
_atom_site_fract_y
_atom_site_fract_z
Zn1	Zn	1.498159	0.303373	0.780694
Zn2	Zn	1.519831	0.370302	0.608683
Zn3	Zn	1.348037	0.284607	0.586944
Zn4	Zn	1.326081	0.367873	0.758809
O5	O	1.423027	0.331539	0.683782
O6	O	1.644945	0.321121	0.776133
O7	O	1.515300	0.352097	0.461886
O8	O	1.368070	0.224239	0.612706
O9	O	1.660867	0.370294	0.649757
O10	O	1.478364	0.238026	0.755053
O11	O	1.389084	0.289138	0.445914
O12	O	1.201213	0.286782	0.591485
O13	O	1.330649	0.366154	0.905626
O14	O	1.185082	0.347958	0.717754
O15	O	1.457074	0.318766	0.921704
O16	O	1.494010	0.432837	0.628537
O17	O	1.351664	0.431053	0.738834
C18	C	1.155833	0.315071	0.649886
C19	C	1.041524	0.308037	0.635410
C20	C	0.982619	0.335209	0.691338
C21	C	0.864474	0.327941	0.676377
C22	C	1.422831	0.448246	0.683695
C23	C	1.422837	0.498181	0.683704
C24	C	1.497187	0.808761	0.626410
C25	C	1.497282	0.996441	0.626446
O26	O	1.560388	1.021495	0.577701
N27	N	1.423133	1.018988	0.683813
C28	C	1.348958	0.994613	0.741180
O29	O	1.285899	1.018098	0.789983
C30	C	1.348869	0.806934	0.741149
C31	C	1.423016	0.784389	0.683771
C32	C	1.571329	0.786216	0.569038
C33	C	1.571301	0.739298	0.569025
C34	C	1.497131	0.714926	0.626385
C35	C	1.422988	0.737471	0.683758
C36	C	1.274700	0.782560	0.798521
C37	C	1.274686	0.735637	0.798511
C38	C	1.348833	0.713092	0.741132
C39	C	1.348790	0.666181	0.741105
N40	N	1.422939	0.643634	0.683739
C41	C	1.497109	0.668006	0.626379
C42	C	1.349010	1.093147	0.741190
C43	C	1.349031	1.140066	0.741196
C44	C	1.497355	1.141891	0.626464
C45	C	1.497329	1.094971	0.626453
C46	C	1.423159	1.070600	0.683824
C47	C	1.497045	0.569476	0.626355
C48	C	1.497007	0.522553	0.626344
C49	C	1.348686	0.520733	0.741080
C50	C	1.348720	0.567650	0.741087
C51	C	1.422908	0.592021	0.683723
O52	O	1.285724	0.641100	0.789834
O53	O	1.560174	0.644515	0.577601
C54	C	1.497214	0.855679	0.626423
C55	C	1.423072	0.878224	0.683796
C56	C	1.348902	0.853852	0.741156
C57	C	1.423093	0.925143	0.683803
C58	C	1.497264	0.949516	0.626442
C59	C	1.571413	0.926969	0.569076
C60	C	1.571385	0.880051	0.569063
C61	C	1.274753	0.876399	0.798523
C62	C	1.274786	0.923316	0.798530
C63	C	1.348956	0.947689	0.741170
C64	C	1.691264	0.348072	0.717811
C65	C	1.805571	0.355117	0.732312
C66	C	1.388995	0.344282	0.952024
C67	C	1.374493	0.349713	1.066332
C68	C	1.423213	1.214375	0.683869
C69	C	1.423201	1.164438	0.683836
C70	C	1.456985	0.318816	0.416592
C71	C	1.471687	0.313271	0.302310
C72	C	1.430580	0.328687	1.125250
C73	C	1.415592	0.334300	1.243394
H74	H	1.019654	0.363852	0.750299
H75	H	0.827442	0.299293	0.617419
C76	C	1.267110	0.493918	0.804177
H77	H	1.277727	0.462747	0.795957
H78	H	1.199939	0.496664	0.780320
H79	H	1.273355	0.505796	0.875196
H80	H	1.356468	0.356453	1.280412
H81	H	1.315373	0.371865	1.103355
C82	C	1.551551	0.283337	1.252316
H83	H	1.584790	0.270872	1.304602
H84	H	1.601605	0.301304	1.216073
H85	H	1.517519	0.259362	1.205440
H86	H	1.288609	1.073307	0.787910
C87	C	0.855580	0.393816	0.811968
H88	H	0.803301	0.409918	0.845121
H89	H	0.902456	0.414048	0.777813
H90	H	0.891824	0.381351	0.862129
C91	C	0.991501	0.269339	0.555766
H92	H	0.918657	0.269532	0.556156
H93	H	1.007181	0.240962	0.573159
H94	H	1.017798	0.273656	0.488837
H95	H	1.557387	0.504198	0.579616
H96	H	1.557457	0.589313	0.579646
H97	H	1.631681	0.720945	0.522306
H98	H	1.631733	0.806055	0.522328
H99	H	1.214288	0.715797	0.845233
C100	C	1.267159	0.592451	0.804200
H101	H	1.222986	0.571214	0.838363
H102	H	1.227388	0.606157	0.759158
H103	H	1.300797	0.615277	0.854040
H104	H	1.557707	1.076617	0.579731
H105	H	1.557748	1.161743	0.579760
H106	H	1.214317	0.800908	0.845240
C107	C	1.267463	1.164860	0.804306
H108	H	1.223298	1.143622	0.838472
H109	H	1.227686	1.178561	0.759259
H110	H	1.301092	1.187689	0.854143
H111	H	1.631763	0.861698	0.522340
H112	H	1.214397	0.941668	0.845253
C113	C	1.652997	0.953784	0.505980
H114	H	1.642389	0.984957	0.514216
H115	H	1.646772	0.941909	0.434964
H116	H	1.720166	0.951038	0.529857
H117	H	1.214355	0.856558	0.845234
C118	C	1.510441	0.298757	1.075245
H119	H	1.510043	0.298914	1.002399
H120	H	1.493242	0.268477	1.090919
H121	H	1.577318	0.310422	1.101558
