data_functionalizedCrystal
_audit_creation_method	'MofGen! by Chris Wilmer'
_symmetry_space_group_name_H-M	'P1'
_symmetry_Int_Tables_number	1
_symmetry_cell_setting	triclinic
loop_
_symmetry_equiv_pos_as_xyz
  x,y,z
_cell_length_a	19.077236
_cell_length_b	12.594516
_cell_length_c	19.076919
_cell_angle_alpha	87.724265
_cell_angle_beta	90.112677
_cell_angle_gamma	92.304758
loop_
_atom_site_label
_atom_site_type_symbol
_atom_site_fract_x
_atom_site_fract_y
_atom_site_fract_z
Zn1	Zn	1.058347	-0.386368	0.440560
Zn2	Zn	1.063012	-0.556940	0.323062
Zn3	Zn	0.945562	-0.385810	0.318340
Zn4	Zn	0.940833	-0.571140	0.435801
O5	O	1.001938	-0.475065	0.379441
O6	O	1.157299	-0.403286	0.428942
O7	O	1.051363	-0.528063	0.224104
O8	O	0.960551	-0.236938	0.334569
O9	O	1.160726	-0.528605	0.342616
O10	O	1.043413	-0.237348	0.424364
O11	O	0.965074	-0.402335	0.220636
O12	O	0.846602	-0.416104	0.329954
O13	O	0.952490	-0.552806	0.534763
O14	O	0.843127	-0.552265	0.416251
O15	O	1.038827	-0.417055	0.538260
O16	O	1.046777	-0.707771	0.338001
O17	O	0.957013	-0.718203	0.420830
C18	C	0.819368	-0.485665	0.372074
C19	C	0.741263	-0.490227	0.368939
C20	C	1.001906	-0.751607	0.379427
C21	C	1.001956	-0.869910	0.379448
C22	C	0.702783	-0.427236	0.412480
C23	C	0.629395	-0.431517	0.409529
C24	C	0.594489	-0.498795	0.363039
C25	C	0.632974	-0.561788	0.319494
C26	C	0.706361	-0.557501	0.322442
C27	C	0.375198	-0.518595	0.349391
C28	C	0.301806	-0.522880	0.346447
C29	C	0.298232	-0.392606	0.436482
C30	C	0.371620	-0.388330	0.439429
C31	C	0.410099	-0.451319	0.395881
N32	N	0.519475	-0.503174	0.360023
N33	N	0.485112	-0.446933	0.398894
C34	C	1.050831	-0.933451	0.334449
C35	C	1.065423	-1.007210	0.399276
C36	C	0.987451	-1.006947	0.314666
C37	C	1.016579	-0.942112	0.444309
C38	C	0.938579	-0.941842	0.359654
C39	C	0.953144	-1.015574	0.424524
C40	C	1.185222	-0.464423	0.386837
C41	C	1.263326	-0.459889	0.389988
C42	C	0.994611	-0.486577	0.562721
C43	C	0.991488	-0.491482	0.640824
C44	C	1.001989	-0.197443	0.379471
C45	C	1.002011	-0.079137	0.379483
C46	C	1.009278	-0.463518	0.196876
C47	C	1.012537	-0.458305	0.118779
C48	C	1.034970	-0.423112	0.679338
C49	C	1.032027	-0.427718	0.752724
C50	C	0.985605	-0.500700	0.787594
C51	C	0.942119	-0.569073	0.749074
C52	C	0.945059	-0.564462	0.675689
C53	C	0.971990	-0.522067	1.006874
C54	C	0.969055	-0.526676	1.080264
C55	C	1.058963	-0.385318	1.083909
C56	C	1.061901	-0.380717	1.010523
C57	C	1.018412	-0.449086	0.972009
N58	N	0.982598	-0.505412	0.862606
N59	N	1.021417	-0.444369	0.896999
H60	H	0.731198	-0.372453	0.450339
H61	H	0.737691	-0.608795	0.286986
H62	H	0.400036	-0.333549	0.477288
C63	C	1.112957	-0.300422	0.972168
C64	C	1.116189	-0.295344	0.891448
C65	C	1.167245	-0.215047	0.853092
C66	C	1.215069	-0.139829	0.895457
C67	C	1.211839	-0.144905	0.976182
C68	C	1.160783	-0.225202	1.014537
H69	H	1.080785	-0.351027	0.860083
H70	H	1.169635	-0.211290	0.793335
H71	H	1.252863	-0.080389	0.867064
H72	H	1.247243	-0.089222	1.007547
H73	H	1.158392	-0.228959	1.074295
C74	C	0.866166	-0.902883	0.336990
C75	C	0.800318	-0.938957	0.379514
C76	C	0.727905	-0.899994	0.356841
C77	C	0.721339	-0.824957	0.291642
C78	C	0.787189	-0.788878	0.249114
C79	C	0.859602	-0.827841	0.271787
H80	H	0.805176	-0.994509	0.427782
H81	H	0.679159	-0.926703	0.388324
H82	H	0.667735	-0.796114	0.274858
H83	H	0.782331	-0.733327	0.200846
H84	H	0.908349	-0.801132	0.240304
C85	C	0.255903	-0.323310	0.484374
C86	C	0.203252	-0.375959	0.537463
C87	C	0.160922	-0.306655	0.585355
C88	C	0.171244	-0.184701	0.580157
C89	C	0.223897	-0.132046	0.527065
C90	C	0.266227	-0.201350	0.479174
H91	H	0.195609	-0.466242	0.541313
H92	H	0.121945	-0.345635	0.624656
H93	H	0.139909	-0.133398	0.615609
H94	H	0.231540	-0.041762	0.523216
H95	H	0.305204	-0.162370	0.439873
C96	C	0.970838	-1.045550	0.240635
C97	C	1.019362	-1.010940	0.178757
C98	C	1.002755	-1.049538	0.104725
C99	C	0.937625	-1.122745	0.092573
C100	C	0.889097	-1.157360	0.154454
C101	C	0.905703	-1.118762	0.228485
H102	H	1.067579	-0.956744	0.187751
H103	H	1.038679	-1.023913	0.058917
H104	H	0.925331	-1.151318	0.037771
H105	H	0.840879	-1.211556	0.145460
H106	H	0.869779	-1.144387	0.274293
C107	C	0.263405	-0.596882	0.295302
C108	C	0.276664	-0.582390	0.215834
C109	C	0.238260	-0.656387	0.164693
C110	C	0.186598	-0.744877	0.193020
C111	C	0.173337	-0.759374	0.272492
C112	C	0.211740	-0.685376	0.323633
H113	H	0.314909	-0.516881	0.194861
H114	H	0.248078	-0.645655	0.105862
H115	H	0.158170	-0.799655	0.155163
H116	H	0.135091	-0.824883	0.293465
H117	H	0.201923	-0.696108	0.382464
H118	H	1.092168	-0.897578	0.296432
H119	H	1.028815	-0.913671	0.499154
H120	H	0.604548	-0.616563	0.281637
H121	H	1.119042	-1.036014	0.416036
C122	C	1.106792	-0.310107	1.126275
C123	C	1.159932	-0.356191	1.178952
C124	C	1.207762	-0.280973	1.221318
C125	C	1.202452	-0.159673	1.211007
C126	C	1.149310	-0.113583	1.158328
C127	C	1.101481	-0.188801	1.115962
H128	H	1.163864	-0.445990	1.186586
H129	H	1.247101	-0.315092	1.260314
H130	H	1.237858	-0.103992	1.242369
H131	H	1.145378	-0.023783	1.150694
H132	H	1.062142	-0.154681	1.076966
C133	C	0.897337	-1.063787	0.476010
C134	C	0.902058	-1.039976	0.554471
C135	C	0.846254	-1.088192	0.605958
C136	C	0.785729	-1.160218	0.578984
C137	C	0.781005	-1.184032	0.500519
C138	C	0.836809	-1.135816	0.449032
H139	H	0.946864	-0.986655	0.574442
H140	H	0.849751	-1.070563	0.664043
H141	H	0.744419	-1.195910	0.617098
H142	H	0.736199	-1.237353	0.480548
H143	H	0.833312	-1.153445	0.390947
H144	H	0.931251	-0.586109	1.108653
H145	H	0.936589	-0.577753	0.975525
C146	C	0.891054	-0.649356	0.787428
C147	C	0.887821	-0.654438	0.868148
C148	C	0.836757	-0.734725	0.906501
C149	C	0.788926	-0.809930	0.864133
C150	C	0.792158	-0.804850	0.783409
C151	C	0.843222	-0.724564	0.745056
H152	H	0.923230	-0.598764	0.899515
H153	H	0.834365	-0.738484	0.966259
H154	H	0.751125	-0.869363	0.892524
H155	H	0.756749	-0.860524	0.752042
H156	H	0.845614	-0.720804	0.685298
H157	H	0.909644	-0.620126	0.644331
H158	H	1.072773	-0.363685	0.650953
H159	H	1.067436	-0.372046	0.784079
C160	C	0.587074	-0.362240	0.457441
C161	C	0.534434	-0.414919	0.510530
C162	C	0.492116	-0.345644	0.558450
C163	C	0.502438	-0.223689	0.553282
C164	C	0.555079	-0.171004	0.500191
C165	C	0.597397	-0.240279	0.452271
H166	H	0.526791	-0.505203	0.514358
H167	H	0.453147	-0.384646	0.597752
H168	H	0.471111	-0.172408	0.588756
H169	H	0.562722	-0.080720	0.496363
H170	H	0.636366	-0.201277	0.412969
C171	C	0.417516	-0.587897	0.301495
C172	C	0.410597	-0.574609	0.221218
C173	C	0.452916	-0.643919	0.173321
C174	C	0.502154	-0.726517	0.205702
C175	C	0.509075	-0.739809	0.285984
C176	C	0.466756	-0.670499	0.333881
H177	H	0.374146	-0.513462	0.197244
H178	H	0.447793	-0.634079	0.113891
H179	H	0.533482	-0.777825	0.170246
H180	H	0.545526	-0.800956	0.309958
H181	H	0.471879	-0.680339	0.393311
