data_functionalizedCrystal
_audit_creation_method	'MofGen! by Chris Wilmer'
_symmetry_space_group_name_H-M	'P1'
_symmetry_Int_Tables_number	1
_symmetry_cell_setting	triclinic
loop_
_symmetry_equiv_pos_as_xyz
  x,y,z
_cell_length_a	13.897449
_cell_length_b	13.897447
_cell_length_c	12.759393
_cell_angle_alpha	90.029275
_cell_angle_beta	89.979470
_cell_angle_gamma	89.977525
loop_
_atom_site_label
_atom_site_type_symbol
_atom_site_fract_x
_atom_site_fract_y
_atom_site_fract_z
Zn1	Zn	1.474677	0.383925	-0.594055
Zn2	Zn	1.474562	0.545254	-0.418382
Zn3	Zn	1.313367	0.383979	-0.418388
Zn4	Zn	1.313338	0.545183	-0.594017
O5	O	1.393986	0.464585	-0.506211
O6	O	1.609644	0.405333	-0.570765
O7	O	1.453143	0.523913	-0.271362
O8	O	1.334825	0.248990	-0.441709
O9	O	1.609559	0.523861	-0.441699
O10	O	1.453339	0.248951	-0.570771
O11	O	1.334714	0.405424	-0.271366
O12	O	1.178382	0.405356	-0.441673
O13	O	1.334776	0.523740	-0.741044
O14	O	1.178360	0.523792	-0.570707
O15	O	1.453311	0.405264	-0.741071
O16	O	1.453115	0.680227	-0.441662
O17	O	1.334665	0.680174	-0.570701
C18	C	1.143372	0.464573	-0.506187
C19	C	1.036158	0.464590	-0.506201
C20	C	1.393900	0.715200	-0.506200
C21	C	1.393952	0.822414	-0.506230
C22	C	1.394054	0.464488	-0.780244
C23	C	1.394082	0.464447	-0.897021
C24	C	0.839863	0.464594	-0.506229
C25	C	0.949095	0.464589	-0.506211
C26	C	1.645579	0.464599	-0.506235
C27	C	1.752793	0.464605	-0.506246
C28	C	1.393996	0.909483	-0.506259
C29	C	1.394061	1.018716	-0.506292
C30	C	1.394091	1.212992	-0.506258
C31	C	1.394117	1.105778	-0.506313
C32	C	1.455812	0.402750	-0.951899
C33	C	1.455835	0.402716	-1.061623
C34	C	1.332396	0.526081	-1.061581
C35	C	1.332369	0.526111	-0.951859
C36	C	1.517526	0.341086	-0.897061
C37	C	1.579261	0.279386	-0.951939
C38	C	1.579284	0.279351	-1.061663
C39	C	1.517572	0.341017	-1.116509
C40	C	1.393974	0.464613	-0.233243
C41	C	1.394132	0.464382	-0.116467
H42	H	1.517516	0.341110	-0.807718
H43	H	1.282152	0.576286	-1.106246
O44	O	1.265786	0.592654	-0.892666
H45	H	1.276128	0.582304	-0.807157
H46	H	1.629499	0.229174	-0.907276
H47	H	1.629545	0.229105	-1.106342
H48	H	1.517584	0.340972	-1.205854
