data_functionalizedCrystal
_audit_creation_method	'MofGen! by Chris Wilmer'
_symmetry_space_group_name_H-M	'P1'
_symmetry_Int_Tables_number	1
_symmetry_cell_setting	triclinic
loop_
_symmetry_equiv_pos_as_xyz
  x,y,z
_cell_length_a	14.519709
_cell_length_b	15.995292
_cell_length_c	13.596369
_cell_angle_alpha	89.997204
_cell_angle_beta	90.000291
_cell_angle_gamma	83.574380
loop_
_atom_site_label
_atom_site_type_symbol
_atom_site_fract_x
_atom_site_fract_y
_atom_site_fract_z
O1	O	1.223644	0.109763	-0.081656
O2	O	1.556977	0.443096	0.251677
O3	O	1.890311	0.776430	0.585011
O4	O	0.955141	0.122689	-0.081685
O5	O	1.288474	0.456022	0.251648
O6	O	1.621807	0.789355	0.584981
O7	O	1.096760	-0.005654	-0.081671
O8	O	1.430093	0.327679	0.251662
O9	O	1.763426	0.661013	0.584995
O10	O	1.082025	0.238106	-0.081670
O11	O	1.415358	0.571439	0.251663
O12	O	1.748691	0.904772	0.584997
O13	O	1.096746	-0.005661	0.081911
O14	O	1.430079	0.327672	0.415245
O15	O	1.763412	0.661006	0.748578
O16	O	0.955126	0.122682	0.081898
O17	O	1.288460	0.456015	0.415231
O18	O	1.621793	0.789349	0.748564
O19	O	1.223630	0.109756	0.081927
O20	O	1.556963	0.443089	0.415260
O21	O	1.890296	0.776423	0.748593
Zn22	Zn	1.089376	0.116218	0.107884
Zn23	Zn	1.422709	0.449551	0.441218
Zn24	Zn	1.756043	0.782885	0.774551
Zn25	Zn	1.089394	0.116227	-0.107643
Zn26	Zn	1.422728	0.449560	0.225690
Zn27	Zn	1.756061	0.782894	0.559024
O28	O	1.082010	0.238099	0.081913
O29	O	1.415344	0.571432	0.415246
O30	O	1.748677	0.904766	0.748580
C31	C	0.920775	0.122083	0.000102
C32	C	1.254108	0.455416	0.333436
C33	C	1.587442	0.788750	0.666769
C34	C	0.818397	0.120278	0.000091
C35	C	1.151731	0.453611	0.333424
C36	C	1.485064	0.786944	0.666757
C37	C	0.443515	0.113632	0.000135
C38	C	0.776848	0.446966	0.333469
C39	C	1.110182	0.780299	0.666802
C40	C	0.547819	0.115478	0.000123
C41	C	0.881153	0.448811	0.333456
C42	C	1.214486	0.782144	0.666789
C43	C	0.630953	0.116955	0.000112
C44	C	0.964286	0.450288	0.333446
C45	C	1.297620	0.783621	0.666779
C46	C	0.735264	0.118801	0.000101
C47	C	1.068597	0.452134	0.333435
C48	C	1.401930	0.785467	0.666768
C49	C	1.096153	-0.036854	0.000117
C50	C	1.429486	0.296479	0.333451
C51	C	1.762820	0.629813	0.666784
C52	C	1.094355	-0.129810	0.000110
C53	C	1.427688	0.203524	0.333443
C54	C	1.761022	0.536857	0.666777
C55	C	1.087745	-0.467558	0.000118
C56	C	1.421079	-0.134225	0.333451
C57	C	1.754412	0.199109	0.666785
C58	C	1.189962	-0.444093	0.000495
C59	C	1.523296	-0.110759	0.333828
C60	C	1.856629	0.222574	0.667161
C61	C	1.191905	-0.347414	0.000123
C62	C	1.525238	-0.014081	0.333456
C63	C	1.858572	0.319253	0.666789
C64	C	1.091025	-0.299997	0.000115
C65	C	1.424358	0.033336	0.333448
C66	C	1.757692	0.366670	0.666781
C67	C	1.039929	-0.329171	-0.093302
C68	C	1.373263	0.004163	0.240032
C69	C	1.706596	0.337496	0.573365
C70	C	1.038699	-0.425963	-0.093377
C71	C	1.372032	-0.092630	0.239957
C72	C	1.705366	0.240704	0.573290
C73	C	1.036596	-0.425831	0.092648
C74	C	1.369929	-0.092498	0.425981
C75	C	1.703262	0.240836	0.759314
C76	C	1.040383	-0.329333	0.093879
C77	C	1.373717	0.004000	0.427212
C78	C	1.707050	0.337334	0.760546
C79	C	1.092873	-0.205298	0.000109
C80	C	1.426207	0.128035	0.333443
C81	C	1.759540	0.461368	0.666776
C82	C	1.085894	-0.562257	0.000117
C83	C	1.419227	-0.228923	0.333450
C84	C	1.752561	0.104410	0.666783
C85	C	1.257995	0.110362	0.000137
C86	C	1.591329	0.443695	0.333470
C87	C	1.924662	0.777029	0.666804
C88	C	1.360373	0.112167	0.000142
C89	C	1.693706	0.445500	0.333475
C90	C	2.027040	0.778834	0.666809
C91	C	1.082617	0.269299	0.000122
C92	C	1.415951	0.602632	0.333455
C93	C	1.749284	0.935966	0.666788
C94	C	1.084415	0.362254	0.000123
C95	C	1.417749	0.695588	0.333456
C96	C	1.751082	1.028921	0.666790
N97	N	1.089370	0.116211	0.254976
N98	N	1.422703	0.449545	0.588310
N99	N	1.756037	0.782878	0.921643
N100	N	1.089408	0.116227	-0.254735
N101	N	1.422741	0.449560	0.078598
N102	N	1.756074	0.782894	0.411932
C103	C	1.089393	0.116228	0.656267
C104	C	1.422727	0.449561	0.989601
C105	C	1.756060	0.782894	1.322934
C106	C	1.089384	0.116226	0.544616
C107	C	1.422717	0.449559	0.877949
C108	C	1.756051	0.782893	1.211283
C109	C	1.089382	0.116220	0.455625
C110	C	1.422715	0.449554	0.788959
C111	C	1.756049	0.782887	1.122292
C112	C	1.089372	0.116217	0.343967
C113	C	1.422705	0.449550	0.677300
C114	C	1.756039	0.782884	1.010634
H115	H	1.231922	-0.328332	0.067086
H116	H	1.565256	0.005001	0.400419
H117	H	1.898589	0.338335	0.733753
C118	C	1.246297	-0.322461	-0.090494
C119	C	1.579630	0.010872	0.242839
C120	C	1.912964	0.344206	0.576173
N121	N	1.287265	-0.303667	-0.158752
N122	N	1.620598	0.029666	0.174581
N123	N	1.953931	0.362999	0.507914
H124	H	1.229356	-0.472034	0.067488
H125	H	1.562689	-0.138700	0.400821
H126	H	1.896022	0.194633	0.734155
C127	C	1.242903	-0.483207	-0.089493
C128	C	1.576236	-0.149874	0.243841
C129	C	1.909569	0.183459	0.577174
N130	N	1.282775	-0.512670	-0.157273
N131	N	1.616108	-0.179336	0.176061
N132	N	1.949441	0.153997	0.509394
H133	H	1.074097	-0.452724	-0.163201
H134	H	1.407431	-0.119390	0.170132
H135	H	1.740764	0.213943	0.503466
C136	C	0.937453	-0.445774	-0.099131
C137	C	1.270787	-0.112441	0.234202
C138	C	1.604120	0.220893	0.567535
N139	N	0.861197	-0.460692	-0.103475
N140	N	1.194530	-0.127359	0.229858
N141	N	1.527863	0.205975	0.563192
H142	H	0.965695	-0.297414	-0.096781
H143	H	1.299029	0.035919	0.236553
H144	H	1.632362	0.369253	0.569886
H145	H	1.075423	-0.309054	-0.162816
H146	H	1.408756	0.024279	0.170518
H147	H	1.742090	0.357612	0.503851
H148	H	0.961356	-0.439934	0.093271
H149	H	1.294689	-0.106601	0.426604
H150	H	1.628023	0.226732	0.759937
H151	H	1.068780	-0.453874	0.163456
H152	H	1.402113	-0.120541	0.496790
H153	H	1.735446	0.212792	0.830123
C154	C	1.090624	-0.304152	0.187245
C155	C	1.423957	0.029182	0.520578
C156	C	1.757290	0.362515	0.853911
N157	N	1.128460	-0.285171	0.257567
N158	N	1.461793	0.048162	0.590900
N159	N	1.795126	0.381496	0.924233
H160	H	0.966751	-0.296474	0.099514
H161	H	1.300084	0.036859	0.432848
H162	H	1.633417	0.370193	0.766181
