data_functionalizedCrystal
_audit_creation_method	'MofGen! by Chris Wilmer'
_symmetry_space_group_name_H-M	'P1'
_symmetry_Int_Tables_number	1
_symmetry_cell_setting	triclinic
loop_
_symmetry_equiv_pos_as_xyz
  x,y,z
_cell_length_a	18.050590
_cell_length_b	19.121747
_cell_length_c	18.050582
_cell_angle_alpha	87.581618
_cell_angle_beta	89.999233
_cell_angle_gamma	87.579812
loop_
_atom_site_label
_atom_site_type_symbol
_atom_site_fract_x
_atom_site_fract_y
_atom_site_fract_z
Zn1	Zn	1.147900	-0.279844	0.432227
Zn2	Zn	1.481234	0.053490	0.765560
Zn3	Zn	1.814567	0.386823	1.098894
Zn4	Zn	1.153102	-0.397280	0.313335
Zn5	Zn	1.486435	-0.063947	0.646669
Zn6	Zn	1.819769	0.269387	0.980002
Zn7	Zn	1.023719	-0.279832	0.308085
Zn8	Zn	1.357053	0.053501	0.641418
Zn9	Zn	1.690386	0.386834	0.974751
Zn10	Zn	1.028956	-0.397229	0.437516
Zn11	Zn	1.362290	-0.063895	0.770849
Zn12	Zn	1.695623	0.269438	1.104182
O13	O	1.088420	-0.338546	0.372791
O14	O	1.421753	-0.005213	0.706124
O15	O	1.755086	0.328121	1.039457
O16	O	1.252516	-0.295448	0.416440
O17	O	1.585850	0.037885	0.749773
O18	O	1.919183	0.371219	1.083107
O19	O	1.135924	-0.381717	0.208715
O20	O	1.469258	-0.048384	0.542048
O21	O	1.802591	0.284950	0.875382
O22	O	1.035823	-0.181556	0.320142
O23	O	1.369157	0.151778	0.653475
O24	O	1.702490	0.485111	0.986808
O25	O	1.256338	-0.381728	0.329091
O26	O	1.589671	-0.048394	0.662424
O27	O	1.923005	0.284939	0.995757
O28	O	1.127059	-0.181564	0.411349
O29	O	1.460392	0.151769	0.744682
O30	O	1.793726	0.485103	1.078015
O31	O	1.040867	-0.295429	0.204857
O32	O	1.374201	0.037905	0.538191
O33	O	1.707534	0.371238	0.871524
O34	O	0.920488	-0.295379	0.325270
O35	O	1.253821	0.037954	0.658603
O36	O	1.587155	0.371288	0.991936
O37	O	1.044749	-0.381641	0.540738
O38	O	1.378083	-0.048307	0.874071
O39	O	1.711416	0.285026	1.207405
O40	O	0.924336	-0.381630	0.420362
O41	O	1.257669	-0.048296	0.753695
O42	O	1.591003	0.285037	1.087029
O43	O	1.132137	-0.295398	0.536852
O44	O	1.465470	0.037935	0.870186
O45	O	1.798804	0.371268	1.203519
O46	O	1.141003	-0.495551	0.334219
O47	O	1.474336	-0.162218	0.667552
O48	O	1.807669	0.171115	1.000885
O49	O	1.049793	-0.495514	0.425453
O50	O	1.383127	-0.162180	0.758787
O51	O	1.716460	0.171153	1.092120
C52	C	0.895465	-0.338498	0.372821
C53	C	1.228799	-0.005165	0.706154
C54	C	1.562132	0.328169	1.039487
C55	C	0.812919	-0.338495	0.372852
C56	C	1.146253	-0.005161	0.706185
C57	C	1.479586	0.328172	1.039518
C58	C	0.615589	-0.385532	0.424451
C59	C	0.948922	-0.052199	0.757784
C60	C	1.282255	0.281135	1.091118
C61	C	0.563310	-0.321496	0.439837
C62	C	0.896644	0.011837	0.773171
C63	C	1.229977	0.345171	1.106504
C64	C	0.661791	-0.338534	0.372817
C65	C	0.995124	-0.005200	0.706150
C66	C	1.328457	0.328133	1.039484
C67	C	0.566989	-0.402606	0.357432
C68	C	0.900322	-0.069273	0.690765
C69	C	1.233655	0.264060	1.024099
C70	C	0.515808	-0.338577	0.372785
C71	C	0.849141	-0.005244	0.706119
C72	C	1.182474	0.328089	1.039452
C73	C	0.610598	-0.274464	0.388237
C74	C	0.943932	0.058870	0.721570
C75	C	1.277265	0.392203	1.054904
C76	C	0.614283	-0.355617	0.305802
C77	C	0.947616	-0.022284	0.639136
C78	C	1.280950	0.311049	0.972469
C79	C	0.562025	-0.291537	0.321161
C80	C	0.895358	0.041796	0.654494
C81	C	1.228692	0.375129	0.987827
C82	C	0.745888	-0.338510	0.372837
C83	C	1.079221	-0.005176	0.706171
C84	C	1.412555	0.328157	1.039504
C85	C	0.431712	-0.338594	0.372765
C86	C	0.765045	-0.005261	0.706098
C87	C	1.098378	0.328072	1.039431
C88	C	1.096551	-0.521015	0.380996
C89	C	1.429884	-0.187682	0.714329
C90	C	1.763217	0.145652	1.047663
C91	C	1.100097	-0.599076	0.384531
C92	C	1.433431	-0.265743	0.717864
C93	C	1.766764	0.067591	1.051198
C94	C	1.122596	-1.040570	0.406924
C95	C	1.455929	-0.707237	0.740257
C96	C	1.789262	-0.373903	1.073590
C97	C	1.119255	-0.967223	0.403596
C98	C	1.452588	-0.633890	0.736929
C99	C	1.785922	-0.300557	1.070262
C100	C	1.070121	-0.930612	0.354413
C101	C	1.403455	-0.597279	0.687747
C102	C	1.736788	-0.263945	1.021080
C103	C	1.024331	-0.967351	0.308551
C104	C	1.357664	-0.634018	0.641884
C105	C	1.690997	-0.300684	0.975217
C106	C	1.027675	-1.040696	0.311876
C107	C	1.361009	-0.707363	0.645209
C108	C	1.694342	-0.374030	0.978542
C109	C	1.057651	-0.709160	0.341993
C110	C	1.390985	-0.375827	0.675327
C111	C	1.724318	-0.042493	1.008660
C112	C	1.054308	-0.635810	0.338674
C113	C	1.387642	-0.302476	0.672007
C114	C	1.720975	0.030857	1.005340
C115	C	1.149234	-0.635687	0.433718
C116	C	1.482568	-0.302354	0.767051
C117	C	1.815901	0.030980	1.100384
C118	C	1.152572	-0.709034	0.437041
C119	C	1.485905	-0.375700	0.770375
C120	C	1.819238	-0.042367	1.103708
C121	C	1.106784	-0.745766	0.391176
C122	C	1.440117	-0.412433	0.724510
C123	C	1.773450	-0.079100	1.057843
C124	C	1.066704	-0.855640	0.351012
C125	C	1.400037	-0.522307	0.684345
C126	C	1.733371	-0.188974	1.017679
C127	C	1.110205	-0.820737	0.394574
C128	C	1.443539	-0.487404	0.727908
C129	C	1.776872	-0.154070	1.061241
C130	C	1.282127	-0.338595	0.372761
C131	C	1.615461	-0.005261	0.706095
C132	C	1.948794	0.328072	1.039428
C133	C	1.364674	-0.338616	0.372749
C134	C	1.698007	-0.005282	0.706082
C135	C	2.031341	0.328051	1.039415
C136	C	1.088447	-0.338515	0.566495
C137	C	1.421781	-0.005182	0.899828
C138	C	1.755114	0.328152	1.233162
C139	C	1.088459	-0.338502	0.649040
C140	C	1.421792	-0.005168	0.982373
C141	C	1.755126	0.328165	1.315707
C142	C	1.080277	-0.155365	0.364570
C143	C	1.413610	0.177969	0.697903
C144	C	1.746943	0.511302	1.031236
C145	C	1.076807	-0.077304	0.361066
C146	C	1.410140	0.256029	0.694400
C147	C	1.743473	0.589363	1.027733
C148	C	1.088432	-0.338526	0.179838
C149	C	1.421766	-0.005193	0.513171
C150	C	1.755099	0.328140	0.846504
C151	C	1.088556	-0.338342	0.097284
C152	C	1.421889	-0.005009	0.430617
C153	C	1.755222	0.328325	0.763951
C154	C	1.040973	-0.385336	0.850601
C155	C	1.374306	-0.052003	1.183934
C156	C	1.707639	0.281330	1.517268
C157	C	1.109502	-0.402516	0.900749
C158	C	1.442835	-0.069182	1.234082
C159	C	1.776169	0.264151	1.567415
C160	C	1.088493	-0.338448	0.800168
C161	C	1.421827	-0.005115	1.133502
C162	C	1.755160	0.328219	1.466835
C163	C	1.020000	-0.321249	0.897101
C164	C	1.353334	0.012084	1.230435
C165	C	1.686667	0.345417	1.563768
C166	C	1.088520	-0.338398	0.946151
C167	C	1.421854	-0.005064	1.279484
C168	C	1.755187	0.328269	1.612818
C169	C	1.157060	-0.355661	0.849230
C170	C	1.490393	-0.022328	1.182564
C171	C	1.823726	0.311006	1.515897
C172	C	1.067511	-0.274365	0.845577
C173	C	1.400844	0.058968	1.178910
C174	C	1.734178	0.392302	1.512244
C175	C	1.136086	-0.291520	0.895702
C176	C	1.469419	0.041813	1.229035
C177	C	1.802753	0.375147	1.562368
C178	C	1.088477	-0.338479	0.716071
C179	C	1.421810	-0.005146	1.049405
C180	C	1.755143	0.328188	1.382738
C181	C	1.088545	-0.338367	1.030246
C182	C	1.421878	-0.005033	1.363580
C183	C	1.755211	0.328300	1.696913
H184	H	0.547734	-0.456773	0.344434
H185	H	0.881067	-0.123440	0.677767
H186	H	1.214400	0.209894	1.011101
H187	H	1.026697	-0.825825	0.310968
H188	H	1.360030	-0.492492	0.644301
H189	H	1.693364	-0.159159	0.977635
H190	H	0.962065	-0.306724	0.918156
H191	H	1.295399	0.026610	1.251489
H192	H	1.628732	0.359943	1.584822
H193	H	0.538710	-0.251765	0.277480
H194	H	0.872043	0.081568	0.610813
H195	H	1.205377	0.414901	0.944147
H196	H	0.639038	-0.425207	0.468160
H197	H	0.972371	-0.091874	0.801493
H198	H	1.305705	0.241460	1.134827
Br199	Br	1.189276	-1.090250	0.473679
Br200	Br	1.522609	-0.756916	0.807012
Br201	Br	1.855943	-0.423583	1.140346
Br202	Br	1.211371	-0.585832	0.495961
Br203	Br	1.544704	-0.252499	0.829294
Br204	Br	1.878038	0.080834	1.162627
H205	H	1.192590	-0.738838	0.477082
H206	H	1.525923	-0.405504	0.810416
H207	H	1.859257	-0.072171	1.143749
Br208	Br	0.987628	-0.586123	0.271916
Br209	Br	1.320962	-0.252790	0.605249
Br210	Br	1.654295	0.080544	0.938583
Br211	Br	0.965536	-1.090551	0.249633
Br212	Br	1.298870	-0.757217	0.582966
Br213	Br	1.632203	-0.423884	0.916299
Br214	Br	0.651559	-0.379694	0.211377
Br215	Br	0.984892	-0.046361	0.544710
Br216	Br	1.318225	0.286973	0.878044
Br217	Br	0.974060	-0.451507	0.817480
Br218	Br	1.307393	-0.118173	1.150813
Br219	Br	1.640727	0.215160	1.484146
Br220	Br	1.253654	-0.379981	0.814302
Br221	Br	1.586987	-0.046648	1.147635
Br222	Br	1.920321	0.286685	1.480969
Br223	Br	1.181401	-0.917373	0.465833
Br224	Br	1.514735	-0.584039	0.799166
Br225	Br	1.848068	-0.250706	1.132499
Br226	Br	1.139112	-0.492805	0.940982
Br227	Br	1.472445	-0.159471	1.274315
Br228	Br	1.805779	0.173862	1.607649
Br229	Br	0.526035	-0.297433	0.534271
Br230	Br	0.859368	0.035901	0.867605
Br231	Br	1.192701	0.369234	1.200938
Br232	Br	0.642526	-0.184154	0.410011
Br233	Br	0.975860	0.149180	0.743345
Br234	Br	1.309193	0.482513	1.076678
H235	H	1.150212	-0.850549	0.434616
H236	H	1.483546	-0.517216	0.767949
H237	H	1.816879	-0.183882	1.101282
H238	H	1.020367	-0.739059	0.304647
H239	H	1.353700	-0.405726	0.637980
H240	H	1.687034	-0.072392	0.971314
H241	H	0.984327	-0.937538	0.268502
H242	H	1.317661	-0.604205	0.601835
H243	H	1.650994	-0.270871	0.935168
Br244	Br	1.203162	-0.225394	0.928600
Br245	Br	1.536495	0.107939	1.261933
Br246	Br	1.869829	0.441272	1.595267
H247	H	1.049728	-0.220208	0.821422
H248	H	1.383062	0.113125	1.154756
H249	H	1.716395	0.446458	1.488089
