data_functionalizedCrystal
_audit_creation_method	'MofGen! by Chris Wilmer'
_symmetry_space_group_name_H-M	'P1'
_symmetry_Int_Tables_number	1
_symmetry_cell_setting	triclinic
loop_
_symmetry_equiv_pos_as_xyz
  x,y,z
_cell_length_a	12.759401
_cell_length_b	11.169416
_cell_length_c	12.759393
_cell_angle_alpha	89.971939
_cell_angle_beta	89.979062
_cell_angle_gamma	90.011674
loop_
_atom_site_label
_atom_site_type_symbol
_atom_site_fract_x
_atom_site_fract_y
_atom_site_fract_z
Zn1	Zn	1.606300	-0.477700	-0.594038
Zn2	Zn	1.606205	-0.678429	-0.418365
Zn3	Zn	1.430598	-0.477764	-0.418373
Zn4	Zn	1.430604	-0.678345	-0.594003
O5	O	1.518427	-0.578060	-0.506195
O6	O	1.753308	-0.504336	-0.570746
O7	O	1.582868	-0.651872	-0.271345
O8	O	1.453943	-0.309806	-0.441693
O9	O	1.753238	-0.651810	-0.441680
O10	O	1.583030	-0.309759	-0.570753
O11	O	1.453851	-0.504445	-0.271351
O12	O	1.283578	-0.504363	-0.441659
O13	O	1.453953	-0.651667	-0.741029
O14	O	1.283582	-0.651729	-0.570693
O15	O	1.583035	-0.504254	-0.741054
O16	O	1.582874	-0.846368	-0.441646
O17	O	1.453861	-0.846306	-0.570686
C18	C	1.245459	-0.578045	-0.506174
C19	C	1.128683	-0.578068	-0.506190
C20	C	1.518386	-0.889884	-0.506184
C21	C	1.518465	-1.023284	-0.506215
C22	C	1.073850	-0.654918	-0.573272
C23	C	0.964126	-0.654923	-0.573293
C24	C	0.964076	-0.501223	-0.439140
C25	C	1.073798	-0.501213	-0.439125
C26	C	1.792460	-0.578075	-0.506216
C27	C	1.909237	-0.578082	-0.506226
C28	C	1.518505	-0.577944	-0.780228
C29	C	1.518539	-0.577895	-0.897005
C30	C	1.518496	-0.265017	-0.506228
C31	C	1.518526	-0.131617	-0.506242
C32	C	1.585757	-0.501125	-0.951882
C33	C	1.585775	-0.501073	-1.061606
C34	C	1.451353	-0.654573	-1.061566
C35	C	1.451331	-0.654617	-0.951844
C36	C	1.518409	-0.578088	-0.233227
C37	C	1.518579	-0.577799	-0.116451
H38	H	0.919487	-0.717500	-0.627920
O39	O	1.126907	-0.426519	-0.373857
C40	C	1.054939	-0.358674	-0.314679
H41	H	0.976717	-0.407832	-0.310974
H42	H	1.043300	-0.267577	-0.353291
C43	C	1.193789	-0.280841	-0.207436
C44	C	1.097717	-0.341222	-0.202877
H45	H	1.220176	-0.270070	-0.138472
H46	H	1.242276	-0.326545	-0.247307
H47	H	1.184076	-0.204933	-0.239617
H48	H	1.107433	-0.417134	-0.170709
H49	H	1.049232	-0.295530	-0.162998
H50	H	0.919376	-0.438653	-0.384537
O51	O	1.651067	-0.426480	-0.898773
C52	C	1.710415	-0.358730	-0.970743
H53	H	1.667398	-0.354542	-1.048950
H54	H	1.790201	-0.402679	-0.982421
C55	C	1.778412	-0.236156	-0.831886
C56	C	1.725572	-0.231004	-0.927938
H57	H	1.787767	-0.157370	-0.805481
H58	H	1.738431	-0.281802	-0.783397
H59	H	1.844894	-0.272785	-0.841631
H60	H	1.659087	-0.194389	-0.918190
H61	H	1.765543	-0.185348	-0.976425
H62	H	1.396586	-0.717132	-0.907162
H63	H	1.118534	-0.717495	-0.627883
O64	O	1.650921	-0.426368	-1.114957
C65	C	1.591137	-0.348833	-1.178436
H66	H	1.508385	-0.341433	-1.145357
H67	H	1.587526	-0.385897	-1.261591
C68	C	1.744130	-0.233159	-1.220761
C69	C	1.642495	-0.224061	-1.180127
H70	H	1.775812	-0.156195	-1.221809
H71	H	1.784409	-0.285398	-1.177998
H72	H	1.741107	-0.264050	-1.290053
H73	H	1.645520	-0.193185	-1.110832
H74	H	1.602218	-0.171814	-1.222880
H75	H	1.396637	-0.717039	-1.106230
