data_functionalizedCrystal
_audit_creation_method	'MofGen! by Chris Wilmer'
_symmetry_space_group_name_H-M	'P1'
_symmetry_Int_Tables_number	1
_symmetry_cell_setting	triclinic
loop_
_symmetry_equiv_pos_as_xyz
  x,y,z
_cell_length_a	16.625547
_cell_length_b	16.625539
_cell_length_c	13.032721
_cell_angle_alpha	97.153640
_cell_angle_beta	97.205017
_cell_angle_gamma	89.975178
loop_
_atom_site_label
_atom_site_type_symbol
_atom_site_fract_x
_atom_site_fract_y
_atom_site_fract_z
Zn1	Zn	1.191920	-0.496755	-0.416041
Zn2	Zn	1.174701	-0.379042	-0.590807
Zn3	Zn	1.057078	-0.361929	-0.416077
Zn4	Zn	1.039936	-0.513816	-0.590744
O5	O	1.115909	-0.437886	-0.503417
O6	O	1.302467	-0.481162	-0.439236
O7	O	1.159066	-0.263944	-0.567671
O8	O	1.089346	-0.365513	-0.269834
O9	O	1.289816	-0.394679	-0.567636
O10	O	1.188413	-0.464569	-0.269807
O11	O	1.072649	-0.251371	-0.439297
O12	O	0.941973	-0.382056	-0.439236
O13	O	1.060129	-0.624381	-0.567528
O14	O	0.929379	-0.493646	-0.567563
O15	O	1.171791	-0.611847	-0.439174
O16	O	1.142444	-0.411222	-0.737038
O17	O	1.043433	-0.510240	-0.736991
C18	C	0.906420	-0.437846	-0.503397
C19	C	0.816797	-0.437850	-0.503414
C20	C	0.744015	-0.437860	-0.503416
C21	C	0.652706	-0.437881	-0.503421
C22	C	0.579928	-0.437902	-0.503431
C23	C	0.488613	-0.437922	-0.503438
C24	C	1.115969	-0.648187	-0.503340
C25	C	1.115994	-0.737805	-0.503306
C26	C	1.116043	-1.065969	-0.503189
C27	C	1.116027	-0.974664	-0.503225
C28	C	1.116019	-0.901890	-0.503249
C29	C	1.116002	-0.810579	-0.503283
C30	C	1.326216	-0.437927	-0.503439
C31	C	1.415836	-0.437944	-0.503448
C32	C	1.089232	-0.464457	-0.774933
C33	C	1.077893	-0.475851	-0.891088
C34	C	1.115903	-0.228395	-0.503420
C35	C	1.116062	-0.138749	-0.503158
C36	C	1.121870	-0.431975	-0.942862
C37	C	1.110151	-0.443751	-1.062915
C38	C	1.142712	-0.411229	-0.230842
C39	C	1.154134	-0.399869	-0.114687
H40	H	1.168199	-0.385697	-0.898312
O41	O	1.209295	-0.344559	-1.061507
C42	C	1.169532	-0.286307	-0.998444
H43	H	1.102827	-0.284482	-1.031475
H44	H	1.174758	-0.303179	-0.915744
C45	C	1.291070	-0.204592	-0.956088
C46	C	1.209144	-0.202346	-0.996661
H47	H	1.315506	-0.152801	-0.954983
H48	H	1.317860	-0.243839	-0.998571
H49	H	1.295414	-0.218655	-0.887174
H50	H	1.204801	-0.188293	-1.065577
H51	H	1.182353	-0.163095	-0.954190
O52	O	1.054891	-0.498910	-1.116213
C53	C	1.055504	-0.498398	-1.224214
H54	H	1.080509	-0.437643	-1.239040
H55	H	1.095423	-0.549276	-1.255099
C56	C	0.937758	-0.585804	-1.262229
C57	C	0.968463	-0.511180	-1.280439
H58	H	0.884068	-0.593692	-1.296913
H59	H	0.937346	-0.586151	-1.189467
H60	H	0.971031	-0.628193	-1.287966
H61	H	0.935196	-0.468792	-1.254690
H62	H	0.968867	-0.510826	-1.353198
O63	O	1.022726	-0.531117	-0.944343
C64	C	1.062497	-0.589392	-1.007363
H65	H	1.122049	-0.562593	-1.023563
H66	H	1.075399	-0.645057	-0.965299
C67	C	0.934929	-0.646970	-1.091243
C68	C	1.008067	-0.614053	-1.111148
H69	H	0.901353	-0.662185	-1.155261
H70	H	0.908134	-0.607711	-1.048784
H71	H	0.945691	-0.693353	-1.056187
H72	H	0.997306	-0.567665	-1.146191
H73	H	1.034860	-0.653305	-1.153616
