data_functionalizedCrystal
_audit_creation_method	'MofGen! by Chris Wilmer'
_symmetry_space_group_name_H-M	'P1'
_symmetry_Int_Tables_number	1
_symmetry_cell_setting	triclinic
loop_
_symmetry_equiv_pos_as_xyz
  x,y,z
_cell_length_a	17.917603
_cell_length_b	14.560438
_cell_length_c	14.560438
_cell_angle_alpha	60.005799
_cell_angle_beta	89.999707
_cell_angle_gamma	57.010693
loop_
_atom_site_label
_atom_site_type_symbol
_atom_site_fract_x
_atom_site_fract_y
_atom_site_fract_z
Zr1	Zr	0.754938	0.920643	-0.078109
O2	O	0.629820	1.126243	-0.231735
O3	O	0.793288	0.724762	-0.031034
O4	O	0.793295	0.916350	-0.222610
O5	O	0.629814	0.934653	0.110982
O6	O	0.922251	0.901907	-0.215390
O7	O	0.629814	0.934656	-0.040159
O8	O	0.922240	0.559192	0.127305
O9	O	0.629825	1.277368	-0.231713
O10	O	0.905889	0.790953	-0.005545
O11	O	0.809650	0.801729	0.101861
O12	O	0.809657	1.027299	-0.123695
O13	O	0.713419	1.038075	-0.016288
Zr14	Zr	0.960609	0.897605	0.174459
Zr15	Zr	0.960609	0.897609	-0.066593
Zr16	Zr	0.754938	0.920639	0.162943
Zr17	Zr	0.754946	1.161670	-0.078073
Zr18	Zr	0.960601	0.656578	0.174423
O19	O	0.922258	1.093485	0.127384
O20	O	0.922258	1.093491	-0.215361
O21	O	0.629820	1.126237	0.111010
O22	O	1.085726	0.692005	0.328085
O23	O	1.085726	0.692010	-0.014660
O24	O	0.793289	0.724757	0.311711
O25	O	1.085733	0.883595	-0.014632
O26	O	0.922252	0.901898	0.318960
O27	O	0.793295	0.916341	0.311739
O28	O	1.085733	0.883592	0.136509
O29	O	0.793306	1.259059	-0.222559
O30	O	0.922240	0.559189	0.318909
O31	O	1.085721	0.540880	0.328062
O32	O	1.085721	0.540883	0.136458
O33	O	0.629825	1.277365	-0.040108
O34	O	0.793307	1.259055	-0.030955
O35	O	0.905889	0.790949	0.220045
O36	O	1.002128	0.780173	0.112638
O37	O	0.905897	1.016518	-0.005511
O38	O	0.809658	1.027295	0.101895
C39	C	0.857763	0.607636	0.048130
C40	C	0.857759	0.505314	0.048115
C41	C	0.786722	0.548398	-0.039084
C42	C	0.786737	0.452207	-0.039027
C43	C	0.928832	0.269849	0.135439
C44	C	0.928820	0.366039	0.135376
C45	C	0.715662	0.687673	-0.126346
C46	C	0.644618	0.730765	-0.213551
C47	C	0.644633	0.634574	-0.213494
C48	C	0.715692	0.495292	-0.126231
C49	C	0.600510	0.937936	0.033771
C50	C	0.513197	0.947715	0.028882
C51	C	0.353354	0.965577	0.019954
C52	C	0.362186	0.852676	0.076393
C53	C	0.273243	0.862615	0.071426
C54	C	0.442303	0.955641	0.024920
C55	C	1.115036	0.880311	0.062579
C56	C	1.202349	0.870533	0.067468
C57	C	0.857773	0.909129	-0.253345
C58	C	0.857773	0.909131	-0.355678
C59	C	0.857784	1.210612	0.048220
C60	C	0.857787	1.312934	0.048235
C61	C	0.807537	1.032499	-0.465427
C62	C	0.807540	1.032493	-0.561576
C63	C	0.908015	0.785739	-0.438212
C64	C	0.908018	0.785746	-0.342065
C65	C	0.757292	1.155884	-0.479039
C66	C	0.707052	1.279262	-0.588794
C67	C	0.707055	1.279256	-0.684943
C68	C	0.757298	1.155871	-0.671337
C69	C	0.857773	0.909119	0.349694
C70	C	0.857774	0.909117	0.452027
C71	C	1.115026	0.578824	0.062535
C72	C	1.202335	0.466723	0.067408
C73	C	0.857763	0.607631	0.349650
C74	C	0.857760	0.505307	0.451967
C75	C	1.115026	0.578819	0.364054
C76	C	1.202336	0.466716	0.471261
C77	C	0.600520	1.239429	-0.267704
C78	C	0.513211	1.351532	-0.374911
C79	C	0.600520	1.239424	0.033815
C80	C	0.513211	1.351525	0.028942
C81	C	0.857783	1.210617	-0.253300
C82	C	0.857787	1.312941	-0.355618
C83	C	1.193101	0.419706	0.007996
C84	C	1.275129	0.314390	0.012552
C85	C	1.366391	0.256085	0.076528
C86	C	1.375624	0.303111	0.135941
C87	C	1.293596	0.408433	0.131378
C88	C	1.293581	0.408445	0.465541
C89	C	1.375626	0.303125	0.566265
C90	C	1.366422	0.256072	0.672706
C91	C	1.275167	0.314353	0.678422
C92	C	1.193125	0.419677	0.577700
C93	C	0.421965	1.409814	-0.369192
C94	C	0.339921	1.515164	-0.469915
C95	C	0.349124	1.562223	-0.576356
C96	C	0.440380	1.503935	-0.582072
C97	C	0.522422	1.398594	-0.481350
C98	C	0.522446	1.398552	0.088344
C99	C	0.440417	1.503895	0.083761
C100	C	0.349155	1.562203	0.019782
C101	C	0.339923	1.515172	-0.039627
C102	C	0.421950	1.409837	-0.035050
C103	C	0.907995	0.451603	0.561727
C104	C	0.907985	0.355465	0.657861
C105	C	0.807501	0.366740	0.534462
C106	C	0.807507	0.462883	0.438330
C107	C	0.958248	0.494027	0.575364
C108	C	1.008489	0.440321	0.685129
C109	C	1.008478	0.344183	0.781263
C110	C	0.958227	0.301750	0.767632
H111	H	0.586768	0.844170	-0.284602
H112	H	1.449922	0.255683	0.561590
H113	H	0.715639	0.766007	-0.126400
H114	H	1.301093	0.446740	0.378881
N115	N	0.460682	0.714759	0.145322
H116	H	0.468422	0.662392	0.114870
H117	H	0.468385	0.662466	0.228120
N118	N	1.303568	0.459136	0.195462
H119	H	1.237761	0.534709	0.182867
H120	H	1.339849	0.494883	0.166570
H121	H	0.586791	0.669665	-0.284507
N122	N	1.265159	0.263684	-0.051534
H123	H	1.194897	0.316598	-0.092741
H124	H	1.297008	0.163603	0.004289
N125	N	0.958221	0.198056	0.871327
H126	H	0.986808	0.115077	0.872958
H127	H	0.890164	0.239250	0.867505
N128	N	0.715719	0.391539	-0.126174
H129	H	0.659937	0.439964	-0.194660
H130	H	0.709489	0.336441	-0.053738
N131	N	0.412024	1.359067	-0.254396
H132	H	0.341766	1.411989	-0.266074
H133	H	0.443881	1.372220	-0.210147
N134	N	1.454915	0.142471	0.781337
H135	H	1.514112	0.112702	0.761552
H136	H	1.454873	0.062759	0.827561
N137	N	0.753322	0.320954	0.519765
H138	H	0.721498	0.369564	0.435643
H139	H	0.702818	0.343334	0.554269
H140	H	1.049395	0.474884	0.696218
H141	H	0.279000	1.069690	-0.032093
N142	N	1.062654	0.286265	0.899650
H143	H	1.094487	0.327733	0.893696
H144	H	1.113151	0.184097	0.944919
N145	N	0.757796	1.155480	-0.774846
H146	H	0.729372	1.112318	-0.776653
H147	H	0.826018	1.101524	-0.770509
H148	H	1.267687	0.276026	0.765100
H149	H	0.766602	0.506609	0.348958
N150	N	1.094676	0.482577	-0.061011
H151	H	1.058401	0.469896	-0.009043
H152	H	1.101372	0.436765	-0.097943
N153	N	0.757297	1.155885	-0.375335
H154	H	0.689261	1.209729	-0.379089
H155	H	0.785927	1.198891	-0.373753
H156	H	0.986683	0.156443	0.206486
H157	H	0.596748	1.351085	0.140449
H158	H	0.265625	1.562605	-0.465238
N159	N	1.005439	0.319581	0.229421
H160	H	1.050454	0.216757	0.284715
H161	H	0.974366	0.359369	0.271324
N162	N	1.094711	0.482516	0.583877
H163	H	1.101339	0.436715	0.666593
H164	H	1.058487	0.469828	0.544529
N165	N	0.260632	1.675840	-0.684987
H166	H	0.201434	1.705611	-0.665202
H167	H	0.260669	1.642308	-0.731229
N168	N	0.260687	1.675813	0.014851
H169	H	0.280394	1.696746	0.062197
H170	H	0.221234	1.646701	0.046124
N171	N	0.652875	1.412335	-0.603473
H172	H	0.660494	1.393622	-0.525912
H173	H	0.582623	1.471622	-0.649918
N174	N	0.450299	1.554697	-0.696880
H175	H	0.384475	1.630268	-0.759810
H176	H	0.486562	1.477217	-0.703776
H177	H	0.265606	1.562662	-0.091717
N178	N	0.962205	0.652686	-0.223687
H179	H	0.916139	0.652593	-0.183737
H180	H	1.012755	0.641876	-0.178453
N181	N	0.411983	1.359121	-0.099122
H182	H	0.341720	1.412048	-0.140341
H183	H	0.443819	1.259045	-0.043294
H184	H	0.666154	1.379715	-0.774305
N185	N	0.958280	0.597701	0.471689
H186	H	0.929705	0.680678	0.470057
H187	H	0.918850	0.625180	0.400138
N188	N	0.962195	0.652673	-0.423545
H189	H	0.935846	0.604143	-0.382545
H190	H	1.032460	0.593433	-0.377181
H191	H	1.433176	0.170326	0.080235
N192	N	1.474059	0.240221	0.204939
H193	H	1.524614	0.166364	0.198811
H194	H	1.481665	0.199535	0.287702
H195	H	0.447953	1.542169	0.132144
H196	H	0.596716	1.351141	-0.486020
