data_functionalizedCrystal
_audit_creation_method	'MofGen! by Chris Wilmer'
_symmetry_space_group_name_H-M	'P1'
_symmetry_Int_Tables_number	1
_symmetry_cell_setting	triclinic
loop_
_symmetry_equiv_pos_as_xyz
  x,y,z
_cell_length_a	13.897449
_cell_length_b	21.295417
_cell_length_c	13.897441
_cell_angle_alpha	89.964549
_cell_angle_beta	89.978743
_cell_angle_gamma	90.031333
loop_
_atom_site_label
_atom_site_type_symbol
_atom_site_fract_x
_atom_site_fract_y
_atom_site_fract_z
Zn1	Zn	1.474596	-0.250581	-0.545411
Zn2	Zn	1.807930	0.082752	-0.212077
Zn3	Zn	2.141263	0.416085	0.121256
Zn4	Zn	1.474460	-0.355858	-0.384096
Zn5	Zn	1.807794	-0.022525	-0.050762
Zn6	Zn	2.141127	0.310808	0.282571
Zn7	Zn	1.313292	-0.250609	-0.384121
Zn8	Zn	1.646625	0.082725	-0.050788
Zn9	Zn	1.979958	0.416058	0.282545
Zn10	Zn	1.313231	-0.355818	-0.545341
Zn11	Zn	1.646565	-0.022485	-0.212007
Zn12	Zn	1.979898	0.310849	0.121326
O13	O	1.393895	-0.303217	-0.464742
O14	O	1.727228	0.030117	-0.131409
O15	O	2.060562	0.363450	0.201925
O16	O	1.609560	-0.264552	-0.524030
O17	O	1.942893	0.068781	-0.190697
O18	O	2.276227	0.402115	0.142636
O19	O	1.453049	-0.341925	-0.249117
O20	O	1.786383	-0.008592	0.084216
O21	O	2.119716	0.324741	0.417549
O22	O	1.334771	-0.162516	-0.405557
O23	O	1.668105	0.170818	-0.072224
O24	O	2.001438	0.504151	0.261110
O25	O	1.609460	-0.341899	-0.405513
O26	O	1.942793	-0.008565	-0.072179
O27	O	2.276127	0.324768	0.261154
O28	O	1.453281	-0.162496	-0.524055
O29	O	1.786615	0.170838	-0.190722
O30	O	2.119948	0.504171	0.142611
O31	O	1.334639	-0.264599	-0.249136
O32	O	1.667973	0.068735	0.084197
O33	O	2.001306	0.402068	0.417530
O34	O	1.178302	-0.264559	-0.405489
O35	O	1.511635	0.068774	-0.072156
O36	O	1.844969	0.402107	0.261178
O37	O	1.334668	-0.341830	-0.680332
O38	O	1.668002	-0.008497	-0.346998
O39	O	2.001335	0.324837	-0.013665
O40	O	1.178258	-0.341856	-0.523936
O41	O	1.511591	-0.008523	-0.190603
O42	O	1.844924	0.324810	0.142730
O43	O	1.453223	-0.264513	-0.680383
O44	O	1.786556	0.068821	-0.347050
O45	O	2.119889	0.402154	-0.013716
O46	O	1.452991	-0.443943	-0.405445
O47	O	1.786324	-0.110609	-0.072112
O48	O	2.119657	0.222724	0.261222
O49	O	1.334536	-0.443913	-0.523911
O50	O	1.667870	-0.110580	-0.190578
O51	O	2.001203	0.222754	0.142756
C52	C	1.143281	-0.303207	-0.464708
C53	C	1.476614	0.030126	-0.131375
C54	C	1.809947	0.363460	0.201958
C55	C	1.036067	-0.303218	-0.464717
C56	C	1.369400	0.030115	-0.131384
C57	C	1.702733	0.363449	0.201950
C58	C	0.948997	-0.303220	-0.464733
C59	C	1.282330	0.030113	-0.131400
C60	C	1.615664	0.363447	0.201934
C61	C	0.839764	-0.303224	-0.464762
C62	C	1.173098	0.030109	-0.131429
C63	C	1.506431	0.363442	0.201904
C64	C	1.393768	-0.466768	-0.464689
C65	C	1.727102	-0.133435	-0.131355
C66	C	2.060435	0.199898	0.201978
C67	C	1.393803	-0.536736	-0.464698
C68	C	1.727136	-0.203403	-0.131365
C69	C	2.060469	0.129930	0.201969
C70	C	1.455537	-0.569598	-0.403076
C71	C	1.788870	-0.236264	-0.069743
C72	C	2.122203	0.097069	0.263591
C73	C	1.455582	-0.635340	-0.403098
C74	C	1.788915	-0.302007	-0.069764
C75	C	2.122248	0.031327	0.263569
C76	C	1.393876	-0.668219	-0.464731
C77	C	1.727209	-0.334886	-0.131398
C78	C	2.060542	-0.001552	0.201935
C79	C	1.332137	-0.635350	-0.526365
C80	C	1.665471	-0.302016	-0.193032
C81	C	1.998804	0.031317	0.140301
C82	C	1.332101	-0.569608	-0.526349
C83	C	1.665434	-0.236275	-0.193015
C84	C	1.998768	0.097058	0.140318
N85	N	1.309495	-0.771485	-0.472074
N86	N	1.642828	-0.438152	-0.138740
N87	N	1.976161	-0.104818	0.194593
N88	N	1.309532	-0.833937	-0.472084
N89	N	1.642865	-0.500603	-0.138750
N90	N	1.976199	-0.167270	0.194583
C91	C	1.393984	-0.866294	-0.464787
C92	C	1.727317	-0.532960	-0.131453
C93	C	2.060650	-0.199627	0.201880
N94	N	1.478399	-0.833840	-0.457460
N95	N	1.811732	-0.500506	-0.124127
N96	N	2.145065	-0.167173	0.209206
N97	N	1.478360	-0.771383	-0.457445
N98	N	1.811693	-0.438049	-0.124112
N99	N	2.145027	-0.104716	0.209222
C100	C	1.393909	-0.739504	-0.464757
C101	C	1.727242	-0.406171	-0.131423
C102	C	2.060576	-0.072838	0.201910
C103	C	1.455772	-0.970440	-0.403185
C104	C	1.789105	-0.637107	-0.069851
C105	C	2.122439	-0.303774	0.263482
C106	C	1.455819	-1.036184	-0.403213
C107	C	1.789152	-0.702851	-0.069880
C108	C	2.122486	-0.369517	0.263453
C109	C	1.332366	-1.036192	-0.526476
C110	C	1.665699	-0.702859	-0.193143
C111	C	1.999033	-0.369526	0.140191
C112	C	1.332328	-0.970450	-0.526453
C113	C	1.665661	-0.637117	-0.193119
C114	C	1.998994	-0.303783	0.140214
C115	C	1.394029	-0.937578	-0.464802
C116	C	1.727363	-0.604244	-0.131468
C117	C	2.060696	-0.270911	0.201865
C118	C	1.645488	-0.303227	-0.464776
C119	C	1.978821	0.030107	-0.131443
C120	C	2.312154	0.363440	0.201890
C121	C	1.752702	-0.303231	-0.464791
C122	C	2.086035	0.030102	-0.131458
C123	C	2.419368	0.363436	0.201876
C124	C	1.393954	-0.303164	-0.716335
C125	C	1.727287	0.030170	-0.383002
C126	C	2.060621	0.363503	-0.049669
C127	C	1.393979	-0.303141	-0.823549
C128	C	1.727312	0.030192	-0.490216
C129	C	2.060646	0.363525	-0.156883
C130	C	1.394048	-0.139026	-0.464817
C131	C	1.727381	0.194307	-0.131483
C132	C	2.060715	0.527640	0.201850
C133	C	1.394113	-0.069058	-0.464849
C134	C	1.727447	0.264275	-0.131515
C135	C	2.060780	0.597608	0.201818
C136	C	1.393999	-0.303123	-0.910619
C137	C	1.727332	0.030210	-0.577286
C138	C	2.060666	0.363543	-0.243952
C139	C	1.394027	-0.303095	-1.019852
C140	C	1.727360	0.030238	-0.686518
C141	C	2.060693	0.363572	-0.353185
C142	C	1.393892	-0.303224	-0.214128
C143	C	1.727225	0.030109	0.119206
C144	C	2.060558	0.363443	0.452539
C145	C	1.394053	-0.303069	-0.106914
C146	C	1.727387	0.030264	0.226419
C147	C	2.060720	0.363598	0.559752
H148	H	1.505856	-0.662101	-0.352918
H149	H	1.839190	-0.328768	-0.019584
H150	H	2.172523	0.004566	0.313749
H151	H	1.281898	-0.662124	-0.576550
H152	H	1.615231	-0.328791	-0.243216
H153	H	1.948564	0.004543	0.090117
H154	H	1.281829	-0.542852	-0.576530
H155	H	1.615162	-0.209519	-0.243197
H156	H	1.948495	0.123814	0.090137
N157	N	1.518802	-0.936867	-0.340208
N158	N	1.852135	-0.603534	-0.006875
N159	N	2.185468	-0.270201	0.326459
N160	N	1.573925	-0.966219	-0.285196
N161	N	1.907258	-0.632886	0.048137
N162	N	2.240592	-0.299552	0.381471
H163	H	1.618441	-0.942510	-0.240717
H164	H	1.951774	-0.609177	0.092616
H165	H	2.285107	-0.275844	0.425950
H166	H	1.506096	-1.062938	-0.353035
H167	H	1.839429	-0.729605	-0.019702
H168	H	2.172763	-0.396272	0.313632
H169	H	1.505780	-0.542835	-0.352879
H170	H	1.839113	-0.209502	-0.019545
H171	H	2.172447	0.123832	0.313788
H172	H	1.282128	-1.062962	-0.576664
H173	H	1.615461	-0.729628	-0.243330
H174	H	1.948795	-0.396295	0.090003
H175	H	1.282054	-0.943693	-0.576627
H176	H	1.615387	-0.610359	-0.243294
H177	H	1.948721	-0.277026	0.090040
