data_functionalizedCrystal
_audit_creation_method	'MofGen! by Chris Wilmer'
_symmetry_space_group_name_H-M	'P1'
_symmetry_Int_Tables_number	1
_symmetry_cell_setting	triclinic
loop_
_symmetry_equiv_pos_as_xyz
  x,y,z
_cell_length_a	27.732025
_cell_length_b	15.624803
_cell_length_c	14.750779
_cell_angle_alpha	85.131014
_cell_angle_beta	77.479761
_cell_angle_gamma	83.474583
loop_
_atom_site_label
_atom_site_type_symbol
_atom_site_fract_x
_atom_site_fract_y
_atom_site_fract_z
O1	O	0.122995	1.082609	-0.456714
O2	O	0.119474	0.840801	-0.372523
O3	O	0.051222	0.969218	-0.417264
O4	O	0.191247	0.954192	-0.411973
O5	O	0.031930	1.005520	-0.270261
O6	O	0.100182	0.877103	-0.225520
O7	O	0.103703	1.118911	-0.309711
Zn8	Zn	0.098879	1.003771	-0.244276
Zn9	Zn	0.124297	0.955941	-0.437958
O10	O	0.171955	0.990494	-0.264971
C11	C	0.108076	0.828026	-0.288255
C12	C	0.102849	0.735876	-0.256173
C13	C	0.023554	0.987054	-0.343662
C14	C	-0.030146	0.986106	-0.343360
C15	C	0.138223	0.333937	-0.551403
C16	C	0.133302	0.247350	-0.521256
C17	C	0.112269	0.286904	-0.360992
C18	C	0.117187	0.373496	-0.391126
C19	C	0.130164	0.397005	-0.486332
C20	C	0.109128	0.436564	-0.326055
C21	C	0.114047	0.523148	-0.356187
C22	C	0.127025	0.546664	-0.451389
C23	C	0.135083	0.483589	-0.516464
C24	C	0.096154	0.413053	-0.230849
C25	C	0.088095	0.476121	-0.165778
C26	C	0.093010	0.562708	-0.195910
C27	C	0.105989	0.586224	-0.291112
C28	C	0.084952	0.625783	-0.130835
C29	C	0.089872	0.712367	-0.160966
C30	C	0.110908	0.672807	-0.321243
C31	C	-0.403142	0.959638	-0.421110
C32	C	-0.201300	0.963156	-0.422366
O33	O	-0.166264	0.946815	-0.490687
N34	N	-0.186572	0.983384	-0.342390
C35	C	-0.222308	1.002740	-0.262097
O36	O	-0.205150	1.020034	-0.194105
C37	C	-0.424149	0.999227	-0.260844
C38	C	-0.438874	0.978989	-0.340822
C39	C	-0.417867	0.939402	-0.501081
C40	C	-0.468324	0.938519	-0.500765
C41	C	-0.504056	0.957870	-0.420477
C42	C	-0.489331	0.978106	-0.340506
C43	C	-0.459885	1.018589	-0.180554
C44	C	-0.510348	1.017711	-0.180249
C45	C	-0.525072	0.997473	-0.260227
C46	C	-0.575521	0.996573	-0.259902
N47	N	-0.590249	0.976345	-0.339877
C48	C	-0.554517	0.956994	-0.420165
C49	C	-0.116338	1.004581	-0.262760
C50	C	-0.065878	1.005457	-0.263072
C51	C	-0.044873	0.965875	-0.423342
C52	C	-0.095334	0.964992	-0.423026
C53	C	-0.131066	0.984352	-0.342735
C54	C	-0.660482	0.955138	-0.419494
C55	C	-0.710944	0.954253	-0.419170
C56	C	-0.731945	0.993839	-0.258902
C57	C	-0.681487	0.994721	-0.259225
C58	C	-0.645755	0.975371	-0.339529
O59	O	-0.610583	1.012914	-0.191619
O60	O	-0.571685	0.939720	-0.488153
C61	C	-0.352684	0.960522	-0.421426
C62	C	-0.337959	0.980757	-0.341455
C63	C	-0.373691	1.000109	-0.261167
C64	C	-0.287499	0.981634	-0.341767
C65	C	-0.251767	0.962282	-0.422055
C66	C	-0.266495	0.942054	-0.502030
C67	C	-0.316952	0.941170	-0.501714
C68	C	-0.358963	1.020337	-0.181191
C69	C	-0.308505	1.021218	-0.181514
C70	C	-0.272773	1.001867	-0.261802
C71	C	0.199623	0.972657	-0.338574
C72	C	0.253324	0.973604	-0.338882
C73	C	0.115101	1.131685	-0.393981
C74	C	0.120329	1.223834	-0.426069
N75	N	0.081532	1.036419	-0.112095
N76	N	0.141641	0.923300	-0.570142
C77	C	0.190067	0.832118	0.310902
C78	C	0.177915	0.855002	0.403428
C79	C	0.117503	0.968738	0.363765
C80	C	0.129648	0.945861	0.271234
C81	C	0.165931	0.877551	0.244811
C82	C	0.105512	0.991294	0.205143
C83	C	0.117659	0.968421	0.112620
C84	C	0.153941	0.900115	0.086187
C85	C	0.178077	0.854678	0.152287
C86	C	0.069232	1.059607	0.231568
C87	C	0.045096	1.105040	0.165477
C88	C	0.057240	1.082164	0.072952
C89	C	0.093522	1.013858	0.046520
C90	C	0.033103	1.127601	0.006853
C91	C	0.045250	1.104729	-0.085671
C92	C	0.105668	0.990986	-0.046004
H93	H	0.121474	0.691949	-0.398770
Br94	Br	0.133706	0.664171	-0.492286
H95	H	0.087962	1.024359	0.385290
Br96	Br	-0.488299	0.911060	-0.609315
H97	H	-0.447907	1.035077	-0.115431
H98	H	-0.053894	1.021921	-0.197941
Br99	Br	0.239302	0.739398	0.275040
Br100	Br	0.170430	0.869078	-0.039384
H101	H	0.139867	0.195999	-0.574252
Br102	Br	0.152687	0.515504	-0.645675
H103	H	-0.015770	0.950112	-0.488714
Br104	Br	-0.115311	0.937526	-0.531571
Br105	Br	0.155827	0.365852	-0.680614
Br106	Br	0.078937	0.797965	-0.072656
H107	H	-0.388777	0.923646	-0.566466
H108	H	0.101705	0.267750	-0.283474
H109	H	0.025596	1.141726	-0.139485
H110	H	-0.145428	1.020347	-0.197374
Br111	Br	0.227313	0.761958	0.116425
Br112	Br	0.070487	0.444207	-0.036573
Br113	Br	0.089482	0.295544	-0.189955
Br114	Br	-0.217991	0.915790	-0.610991
Br115	Br	-0.558840	1.043992	-0.071278
Br116	Br	-0.730923	0.926781	-0.527717
Br117	Br	0.067351	0.593864	-0.001630
Br118	Br	-0.611997	0.928878	-0.528479
H119	H	-0.669497	1.011167	-0.194089
H120	H	-0.328935	0.924690	-0.566840
Br121	Br	0.052752	1.090652	0.357136
H122	H	-0.761047	1.009592	-0.193533
Br123	Br	-0.288529	1.048674	-0.072958
Br124	Br	-0.004142	1.197748	0.201343
Br125	Br	-0.407450	1.046602	-0.072218
Br126	Br	0.210679	0.793336	0.493119
Br127	Br	-0.016129	1.220316	0.042720
H128	H	0.135210	0.935355	-0.067515
