data_functionalizedCrystal
_audit_creation_method	'MofGen! by Chris Wilmer'
_symmetry_space_group_name_H-M	'P1'
_symmetry_Int_Tables_number	1
_symmetry_cell_setting	triclinic
loop_
_symmetry_equiv_pos_as_xyz
  x,y,z
_cell_length_a	18.050591
_cell_length_b	19.805405
_cell_length_c	19.805399
_cell_angle_alpha	90.030709
_cell_angle_beta	89.978048
_cell_angle_gamma	89.977584
loop_
_atom_site_label
_atom_site_type_symbol
_atom_site_fract_x
_atom_site_fract_y
_atom_site_fract_z
Zn1	Zn	1.135309	0.269542	-0.382803
Zn2	Zn	1.635309	0.769542	0.117197
Zn3	Zn	1.135222	0.382733	-0.269611
Zn4	Zn	1.635222	0.882733	0.230389
Zn5	Zn	1.011126	0.269555	-0.269618
Zn6	Zn	1.511126	0.769555	0.230382
Zn7	Zn	1.011081	0.382686	-0.382748
Zn8	Zn	1.511081	0.882686	0.117252
O9	O	1.073185	0.326129	-0.326195
O10	O	1.573185	0.826129	0.173805
O11	O	1.239222	0.284570	-0.367808
O12	O	1.739222	0.784570	0.132192
O13	O	1.118743	0.367745	-0.174896
O14	O	1.618743	0.867745	0.325104
O15	O	1.027655	0.174837	-0.284657
O16	O	1.527655	0.674837	0.215343
O17	O	1.239158	0.367731	-0.284647
O18	O	1.739158	0.867731	0.215353
O19	O	1.118892	0.174827	-0.367814
O20	O	1.618892	0.674827	0.132186
O21	O	1.027570	0.284594	-0.174900
O22	O	1.527570	0.784594	0.325100
O23	O	0.907196	0.284548	-0.284604
O24	O	1.407196	0.784548	0.215396
O25	O	1.027577	0.367652	-0.477472
O26	O	1.527577	0.867652	0.022528
O27	O	0.907162	0.367665	-0.367721
O28	O	1.407162	0.867665	0.132279
O29	O	1.118848	0.284525	-0.477512
O30	O	1.618848	0.784525	0.022488
O31	O	1.118698	0.477443	-0.284594
O32	O	1.618698	0.977443	0.215406
O33	O	1.027492	0.477409	-0.367715
O34	O	1.527492	0.977409	0.132285
C35	C	1.073101	0.501985	-0.326162
C36	C	1.573101	1.001985	0.173838
C37	C	1.073133	0.577217	-0.326171
C38	C	1.573133	1.077217	0.173829
C39	C	0.880232	0.326104	-0.326158
C40	C	1.380232	0.826104	0.173842
C41	C	0.797687	0.326109	-0.326158
C42	C	1.297687	0.826109	0.173842
C43	C	1.073217	0.326082	-0.502738
C44	C	1.573217	0.826082	-0.002738
C45	C	1.073231	0.326062	-0.577970
C46	C	1.573231	0.826062	-0.077970
C47	C	0.598233	0.280858	-0.281063
C48	C	1.098233	0.780858	0.218937
C49	C	0.548815	0.342594	-0.264403
C50	C	1.048815	0.842594	0.235597
C51	C	0.646556	0.326130	-0.326188
C52	C	1.146556	0.826130	0.173812
C53	C	0.548892	0.264415	-0.342846
C54	C	1.048892	0.764415	0.157154
C55	C	0.500571	0.326144	-0.326216
C56	C	1.000571	0.826144	0.173784
C57	C	0.598226	0.387898	-0.309496
C58	C	1.098226	0.887898	0.190504
C59	C	0.598308	0.309678	-0.387968
C60	C	1.098308	0.809678	0.112032
C61	C	0.548912	0.371456	-0.371332
C62	C	1.048912	0.871456	0.128668
C63	C	0.730655	0.326121	-0.326170
C64	C	1.230655	0.826121	0.173830
C65	C	0.416475	0.326160	-0.326235
C66	C	0.916475	0.826160	0.173765
C67	C	1.266890	0.326155	-0.326233
C68	C	1.766890	0.826155	0.173767
C69	C	1.349436	0.326166	-0.326249
C70	C	1.849436	0.826166	0.173751
C71	C	1.073289	0.149586	-0.326243
C72	C	1.573289	0.649586	0.173757
C73	C	1.073333	0.074354	-0.326263
C74	C	1.573333	0.574354	0.173737
C75	C	1.120670	0.612556	-0.282935
C76	C	1.620670	1.112556	0.217065
C77	C	1.120702	0.683245	-0.282950
C78	C	1.620702	1.183245	0.217050
C79	C	1.073192	0.718592	-0.326198
C80	C	1.573192	1.218592	0.173802
C81	C	1.025653	0.683248	-0.369438
C82	C	1.525653	1.183248	0.130562
C83	C	1.025626	0.612561	-0.369426
C84	C	1.525626	1.112561	0.130574
C85	C	1.025762	0.968321	-0.369489
C86	C	1.525762	1.468321	0.130511
C87	C	1.025792	1.039013	-0.369496
C88	C	1.525792	1.539013	0.130504
C89	C	1.120839	1.039005	-0.283012
C90	C	1.620839	1.539005	0.216988
C91	C	1.120811	0.968318	-0.283000
C92	C	1.620811	1.468318	0.217000
C93	C	1.073275	0.932980	-0.326243
C94	C	1.573275	1.432980	0.173757
C95	C	1.073243	0.856331	-0.326227
C96	C	1.573243	1.356331	0.173773
C97	C	1.073220	0.795240	-0.326211
C98	C	1.573220	1.295240	0.173789
C99	C	1.025771	0.282761	-0.613316
C100	C	1.525771	0.782761	-0.113316
C101	C	1.025781	0.282748	-0.684004
C102	C	1.525781	0.782748	-0.184004
C103	C	1.073256	0.326033	-0.719345
C104	C	1.573256	0.826033	-0.219345
C105	C	1.120718	0.369338	-0.683995
C106	C	1.620718	0.869338	-0.183995
C107	C	1.120703	0.369354	-0.613307
C108	C	1.620703	0.869354	-0.113307
C109	C	1.120777	0.369275	-0.969068
C110	C	1.620777	0.869275	-0.469068
C111	C	1.120789	0.369254	-1.039760
C112	C	1.620789	0.869254	-0.539760
C113	C	1.025855	0.282668	-1.039765
C114	C	1.525855	0.782668	-0.539765
C115	C	1.025840	0.282685	-0.969078
C116	C	1.525840	0.782685	-0.469078
C117	C	1.073299	0.325992	-0.933733
C118	C	1.573299	0.825992	-0.433733
C119	C	1.073286	0.326007	-0.857085
C120	C	1.573286	0.826007	-0.357085
C121	C	1.073273	0.326015	-0.795993
C122	C	1.573273	0.826015	-0.295993
C123	C	1.073195	0.326127	-0.150339
C124	C	1.573195	0.826127	0.349661
C125	C	1.073325	0.325956	-0.075107
C126	C	1.573325	0.825956	0.424893
H127	H	0.619888	0.242614	-0.242861
H128	H	1.119888	0.742614	0.257139
Cl129	Cl	0.965930	0.727685	-0.423812
Cl130	Cl	1.465930	1.227685	0.076188
Cl131	Cl	0.515250	0.364095	-0.183760
Cl132	Cl	1.015250	0.864095	0.316240
Cl133	Cl	0.631539	0.468510	-0.287667
Cl134	Cl	1.131539	0.968510	0.212333
H135	H	1.159355	0.583781	-0.247715
H136	H	1.659355	1.083781	0.252285
Cl137	Cl	0.515429	0.183829	-0.364580
Cl138	Cl	1.015429	0.683829	0.135420
H139	H	1.159356	0.404609	-0.584529
H140	H	1.659356	0.904609	-0.084529
H141	H	0.527393	0.409792	-0.409505
H142	H	1.027393	0.909792	0.090495
H143	H	0.620064	0.295733	-0.440186
H144	H	1.120064	0.795733	0.059814
H145	H	0.987104	1.067791	-0.404719
H146	H	1.487104	1.567791	0.095281
Cl147	Cl	0.966188	0.228226	-1.084203
Cl148	Cl	1.466188	0.728226	-0.584203
Cl149	Cl	1.180468	0.727669	-0.228596
Cl150	Cl	1.680468	1.227669	0.271404
Cl151	Cl	1.180475	0.423675	-1.084188
Cl152	Cl	1.680475	0.923675	-0.584188
H153	H	1.159496	0.939540	-0.247781
H154	H	1.659496	1.439540	0.252219
H155	H	1.159548	1.067786	-0.247804
H156	H	1.659548	1.567786	0.252196
Cl157	Cl	0.966001	0.923905	-0.423850
Cl158	Cl	1.466001	1.423905	0.076150
H159	H	0.987116	0.247510	-0.584546
H160	H	1.487116	0.747510	-0.084546
Cl161	Cl	0.965864	0.568134	-0.423785
Cl162	Cl	1.465864	1.068134	0.076215
H163	H	1.159368	0.404585	-0.712775
H164	H	1.659368	0.904585	-0.212775
H165	H	1.159413	0.404546	-0.940299
H166	H	1.659413	0.904546	-0.440299
H167	H	0.987132	0.247491	-0.712780
H168	H	1.487132	0.747491	-0.212780
H169	H	0.987184	0.247435	-0.940307
H170	H	1.487184	0.747435	-0.440307
