data_functionalizedCrystal
_audit_creation_method	'MofGen! by Chris Wilmer'
_symmetry_space_group_name_H-M	'P1'
_symmetry_Int_Tables_number	1
_symmetry_cell_setting	triclinic
loop_
_symmetry_equiv_pos_as_xyz
  x,y,z
_cell_length_a	10.654562
_cell_length_b	10.654550
_cell_length_c	9.730223
_cell_angle_alpha	89.999807
_cell_angle_beta	89.996961
_cell_angle_gamma	84.487503
loop_
_atom_site_label
_atom_site_type_symbol
_atom_site_fract_x
_atom_site_fract_y
_atom_site_fract_z
O1	O	1.667825	0.176469	-0.114377
O2	O	1.302348	0.193259	-0.114359
O3	O	1.493489	0.002125	-0.114363
O4	O	1.476683	0.367603	-0.114373
O5	O	1.493487	0.002130	0.114217
O6	O	1.302346	0.193264	0.114221
O7	O	1.667822	0.176474	0.114203
Zn8	Zn	1.485084	0.184870	0.150504
Zn9	Zn	1.485087	0.184863	-0.150660
O10	O	1.476681	0.367608	0.114207
C11	C	1.492254	-0.044671	-0.000075
C12	C	1.488563	-0.184114	-0.000079
C13	C	1.255549	0.192025	-0.000067
C14	C	1.116107	0.188327	-0.000060
C15	C	1.601103	-0.263595	-0.000081
C16	C	1.597627	-0.394615	-0.000090
C17	C	1.369059	-0.366662	-0.000091
C18	C	1.372537	-0.235644	-0.000092
C19	C	1.717129	-0.212064	-0.000068
C20	C	1.829680	-0.291546	-0.000068
C21	C	1.826203	-0.422567	-0.000077
C22	C	1.710176	-0.474106	-0.000087
C23	C	1.050575	0.186604	0.124528
C24	C	0.919553	0.183139	0.124505
C25	C	0.919605	0.183125	-0.124705
C26	C	1.050626	0.186581	-0.124681
C27	C	1.116056	0.188351	0.249149
C28	C	1.050524	0.186630	0.373747
C29	C	0.919501	0.183165	0.373724
C30	C	0.854011	0.181421	0.249103
C31	C	1.714621	0.177708	-0.000092
C32	C	1.854064	0.181406	-0.000108
C33	C	1.477916	0.414403	-0.000084
C34	C	1.481608	0.553847	-0.000088
N35	N	1.485091	0.184873	0.356040
N36	N	1.485089	0.184850	-0.356196
C37	C	1.569750	0.100268	0.427965
C38	C	1.569747	0.100253	0.571848
C39	C	1.400421	0.269459	0.571869
C40	C	1.400419	0.269467	0.427989
C41	C	1.654422	0.015674	0.356016
C42	C	1.739089	-0.068937	0.427940
C43	C	1.739086	-0.068952	0.571823
C44	C	1.654415	0.015644	0.643782
H45	H	1.719973	-0.105382	-0.000056
H46	H	1.707355	-0.580794	-0.000110
N47	N	1.654420	0.015635	0.798970
H48	H	1.587944	0.082068	0.833637
H49	H	1.635456	-0.069915	0.833517
H50	H	1.103855	0.188040	0.475209
H51	H	1.808016	-0.137853	0.630383
H52	H	1.222740	0.191176	0.249181
H53	H	0.866272	0.181708	-0.226166
H54	H	1.924144	-0.249574	-0.000094
H55	H	0.866150	0.181753	0.475178
H56	H	0.747324	0.178596	0.249094
H57	H	1.331487	0.338334	0.630467
H58	H	1.103983	0.187989	-0.226132
H59	H	1.274595	-0.408637	-0.000097
N60	N	1.654417	0.015697	0.200830
H61	H	1.739897	0.034778	0.166171
H62	H	1.635363	-0.069819	0.166270
N63	N	1.947590	-0.508292	-0.000069
H64	H	1.927787	-0.599113	-0.000074
H65	H	1.998113	-0.491492	-0.084801
N66	N	1.309116	0.360726	0.350406
H67	H	1.321961	0.347889	0.248342
H68	H	1.219901	0.345379	0.375560
N69	N	1.830381	-0.160202	0.350339
H70	H	1.817535	-0.147361	0.248276
H71	H	1.919604	-0.144881	0.375478
H72	H	1.280896	-0.170928	-0.000089
