data_functionalizedCrystal
_audit_creation_method	'MofGen! by Chris Wilmer'
_symmetry_space_group_name_H-M	'P1'
_symmetry_Int_Tables_number	1
_symmetry_cell_setting	triclinic
loop_
_symmetry_equiv_pos_as_xyz
  x,y,z
_cell_length_a	18.215407
_cell_length_b	12.759394
_cell_length_c	18.215399
_cell_angle_alpha	90.025276
_cell_angle_beta	90.019833
_cell_angle_gamma	90.015285
loop_
_atom_site_label
_atom_site_type_symbol
_atom_site_fract_x
_atom_site_fract_y
_atom_site_fract_z
Zn1	Zn	1.125123	-0.418265	0.416130
Zn2	Zn	1.125053	-0.593962	0.293069
Zn3	Zn	1.002056	-0.418299	0.293077
Zn4	Zn	1.002043	-0.593904	0.416094
O5	O	1.063569	-0.506107	0.354592
O6	O	1.228098	-0.441581	0.399817
O7	O	1.108713	-0.570699	0.190086
O8	O	1.018416	-0.271273	0.309418
O9	O	1.228047	-0.570666	0.309405
O10	O	1.108833	-0.271248	0.399825
O11	O	1.018348	-0.441640	0.190092
O12	O	0.899070	-0.441583	0.309384
O13	O	1.018394	-0.570566	0.519083
O14	O	0.899061	-0.570599	0.399764
O15	O	1.108821	-0.441525	0.519109
O16	O	1.108701	-0.740975	0.309370
O17	O	1.018326	-0.740933	0.399756
C18	C	0.872363	-0.506089	0.354571
C19	C	0.790564	-0.506107	0.354580
C20	C	0.602384	-0.573391	0.401582
C21	C	0.525526	-0.573395	0.401591
C22	C	0.525506	-0.438843	0.307619
C23	C	0.602363	-0.438835	0.307614
C24	C	0.640800	-0.506115	0.354594
C25	C	0.487084	-0.506126	0.354608
C26	C	0.403751	-0.506129	0.354618
C27	C	0.724139	-0.506111	0.354586
C28	C	1.063525	-0.779075	0.354575
C29	C	1.063573	-0.895852	0.354592
C30	C	1.157751	-0.895843	0.260543
C31	C	1.204859	-0.950699	0.213528
C32	C	1.204903	-1.060421	0.213548
C33	C	1.157834	-1.115289	0.260590
C34	C	1.110726	-1.060432	0.307605
C35	C	1.110686	-0.950708	0.307579
C36	C	1.016553	-1.060441	0.401656
C37	C	1.016505	-0.950719	0.401634
C38	C	0.969484	-1.115308	0.448698
C39	C	0.922371	-1.060452	0.495711
C40	C	0.922329	-0.950724	0.495689
C41	C	0.969397	-0.895863	0.448649
C42	C	1.255522	-0.506126	0.354614
C43	C	1.337321	-0.506134	0.354623
C44	C	1.063614	-0.506035	0.546545
C45	C	1.063633	-0.506004	0.628344
C46	C	1.063633	-0.232074	0.354626
C47	C	1.063661	-0.115297	0.354641
C48	C	1.063567	-0.506104	0.163386
C49	C	1.063690	-0.505839	0.081588
C50	C	1.110735	-0.438750	0.816553
C51	C	1.110744	-0.438719	0.893412
C52	C	1.016583	-0.573096	0.893373
C53	C	1.016571	-0.573121	0.816516
C54	C	1.063651	-0.505949	0.778108
C55	C	1.063672	-0.505894	0.931824
C56	C	1.063681	-0.505861	1.015158
C57	C	1.063641	-0.505980	0.694769
H58	H	0.633642	-0.384044	0.269352
H59	H	0.633678	-0.628173	0.439838
C60	C	0.483268	-0.647404	0.453274
C61	C	0.398728	-0.647415	0.453287
C62	C	0.356471	-0.721427	0.504974
C63	C	0.398753	-0.795429	0.556647
C64	C	0.483298	-0.795422	0.556636
C65	C	0.525555	-0.721409	0.504950
H66	H	0.367423	-0.592632	0.415034
H67	H	0.293885	-0.721433	0.504982
H68	H	0.367472	-0.850218	0.594909
H69	H	0.514603	-0.850205	0.594890
H70	H	0.588141	-0.721404	0.504942
C71	C	0.964773	-0.647037	0.774217
C72	C	0.996631	-0.729533	0.721364
C73	C	0.944832	-0.803438	0.679063
C74	C	0.861174	-0.794848	0.689615
C75	C	0.829311	-0.712349	0.742470
C76	C	0.881111	-0.638444	0.784771
H77	H	1.058564	-0.735895	0.713551
H78	H	0.968420	-0.864509	0.639936
H79	H	0.822829	-0.849557	0.658301
H80	H	0.767379	-0.705987	0.750283
H81	H	0.857523	-0.577373	0.823898
C82	C	1.162516	-0.364855	0.774303
C83	C	1.130634	-0.282389	0.721470
C84	C	1.182415	-0.208490	0.679222
C85	C	1.266077	-0.217057	0.689807
C86	C	1.297962	-0.299527	0.742642
C87	C	1.246182	-0.373426	0.784890
H88	H	1.068699	-0.276044	0.713633
H89	H	1.158811	-0.147441	0.640110
H90	H	1.304408	-0.162353	0.658532
H91	H	1.359897	-0.305872	0.750479
H92	H	1.269786	-0.434475	0.824002
H93	H	1.157711	-0.806502	0.260513
H94	H	1.243266	-1.105085	0.175267
H95	H	1.149083	-0.383997	0.924711
C96	C	1.256635	-0.890345	0.161785
C97	C	1.256593	-0.769655	0.161757
C98	C	1.308372	-0.709305	0.110018
C99	C	1.360192	-0.769645	0.058306
C100	C	1.360236	-0.890342	0.058331
C101	C	1.308457	-0.950692	0.110071
H102	H	1.218231	-0.724981	0.200039
H103	H	1.308339	-0.619957	0.109999
H104	H	1.398521	-0.724970	0.020005
H105	H	1.398598	-0.935015	0.020049
H106	H	1.308490	-1.040040	0.110090
C107	C	0.964803	-0.646990	0.935624
C108	C	0.964816	-0.646972	1.020164
C109	C	0.913036	-0.720871	1.062413
C110	C	0.861243	-0.794788	1.020122
C111	C	0.861228	-0.794809	0.935577
C112	C	0.913008	-0.720910	0.893328
H113	H	1.003158	-0.592252	1.051475
H114	H	0.913048	-0.720856	1.124999
H115	H	0.822913	-0.849493	1.051397
H116	H	0.822886	-0.849529	0.904267
H117	H	0.912996	-0.720926	0.830742
H118	H	0.494201	-0.384067	0.269369
H119	H	0.969526	-1.204649	0.448714
H120	H	1.157880	-1.204630	0.260608
H121	H	0.884055	-1.105134	0.534013
H122	H	0.969362	-0.806522	0.448621
C123	C	0.870508	-0.890385	0.547407
C124	C	0.818739	-0.950741	0.599147
C125	C	0.766916	-0.890408	0.650866
C126	C	0.766863	-0.769718	0.650846
C127	C	0.818634	-0.709355	0.599105
C128	C	0.870456	-0.769688	0.547385
H129	H	0.818777	-1.040089	0.599163
H130	H	0.728592	-0.935093	0.689168
H131	H	0.728500	-0.725055	0.689132
H132	H	0.818596	-0.620007	0.599088
H133	H	0.908780	-0.725003	0.509083
