data_functionalizedCrystal
_audit_creation_method	'MofGen! by Chris Wilmer'
_symmetry_space_group_name_H-M	'P1'
_symmetry_Int_Tables_number	1
_symmetry_cell_setting	triclinic
loop_
_symmetry_equiv_pos_as_xyz
  x,y,z
_cell_length_a	16.109301
_cell_length_b	9.730223
_cell_length_c	16.109296
_cell_angle_alpha	89.994600
_cell_angle_beta	96.539474
_cell_angle_gamma	90.002516
loop_
_atom_site_label
_atom_site_type_symbol
_atom_site_fract_x
_atom_site_fract_y
_atom_site_fract_z
O1	O	1.103125	-0.114182	-0.106864
O2	O	1.436459	0.219151	0.226470
O3	O	1.769792	0.552484	0.559803
O4	O	0.861063	-0.114201	-0.120163
O5	O	1.194396	0.219132	0.213170
O6	O	1.527730	0.552465	0.546504
O7	O	0.988746	-0.114206	0.007518
O8	O	1.322079	0.219128	0.340851
O9	O	1.655413	0.552461	0.674184
O10	O	0.975443	-0.114178	-0.234545
O11	O	1.308776	0.219155	0.098789
O12	O	1.642109	0.552489	0.432122
O13	O	0.988744	0.114374	0.007515
O14	O	1.322078	0.447708	0.340848
O15	O	1.655411	0.781041	0.674181
O16	O	0.861062	0.114378	-0.120166
O17	O	1.194395	0.447712	0.213167
O18	O	1.527728	0.781045	0.546500
O19	O	1.103124	0.114398	-0.106867
O20	O	1.436457	0.447731	0.226466
O21	O	1.769790	0.781064	0.559800
Zn22	Zn	0.982092	0.150680	-0.113517
Zn23	Zn	1.315426	0.484013	0.219816
Zn24	Zn	1.648759	0.817347	0.553149
Zn25	Zn	0.982094	-0.150484	-0.113513
Zn26	Zn	1.315428	0.182850	0.219820
Zn27	Zn	1.648761	0.516183	0.553154
O28	O	0.975441	0.114402	-0.234548
O29	O	1.308774	0.447735	0.098785
O30	O	1.642108	0.781069	0.432119
C31	C	0.830088	0.000086	-0.119626
C32	C	1.163421	0.333419	0.213707
C33	C	1.496754	0.666752	0.547041
C34	C	0.737792	0.000077	-0.118011
C35	C	1.071126	0.333411	0.215322
C36	C	1.404459	0.666744	0.548656
N37	N	0.982097	0.356216	-0.113520
N38	N	1.315431	0.689550	0.219814
N39	N	1.648764	1.022883	0.553147
C40	C	0.988207	0.000078	0.038491
C41	C	1.321540	0.333411	0.371824
C42	C	1.654874	0.666744	0.705158
C43	C	0.986593	0.000058	0.130787
C44	C	1.319927	0.333391	0.464120
C45	C	1.653260	0.666724	0.797453
C46	C	0.515519	0.000101	-0.190019
C47	C	0.848852	0.333435	0.143315
C48	C	1.182185	0.666768	0.476648
C49	C	0.428798	0.000110	-0.188495
C50	C	0.762132	0.333443	0.144839
C51	C	1.095465	0.666777	0.478172
C52	C	0.448675	0.000087	-0.037006
C53	C	0.782008	0.333420	0.296328
C54	C	1.115342	0.666754	0.629661
C55	C	0.535394	0.000088	-0.038531
C56	C	0.868727	0.333421	0.294803
C57	C	1.202060	0.666755	0.628136
C58	C	0.568813	0.000088	-0.115040
C59	C	0.902146	0.333422	0.218294
C60	C	1.235480	0.666755	0.551627
C61	C	0.395374	0.000096	-0.111991
C62	C	0.728707	0.333429	0.221343
C63	C	1.062041	0.666763	0.554676
C64	C	0.301348	0.000105	-0.110338
C65	C	0.634681	0.333439	0.222996
C66	C	0.968015	0.666772	0.556329
C67	C	0.662845	0.000082	-0.116693
C68	C	0.996178	0.333415	0.216640
C69	C	1.329512	0.666748	0.549974
C70	C	1.134099	0.000108	-0.107404
C71	C	1.467433	0.333441	0.225929
C72	C	1.800766	0.666774	0.559263
C73	C	1.226395	0.000107	-0.109019
C74	C	1.559728	0.333440	0.224314
C75	C	1.893061	0.666774	0.557647
N76	N	0.982096	-0.356020	-0.113504
N77	N	1.315430	-0.022687	0.219829
N78	N	1.648763	0.310646	0.553163
C79	C	1.038650	0.428141	-0.057001
C80	C	1.371983	0.761474	0.276332
C81	C	1.705316	1.094807	0.609665
C82	C	1.038647	0.572024	-0.056991
C83	C	1.371981	0.905357	0.276342
C84	C	1.705314	1.238690	0.609675
C85	C	0.925538	0.572046	-0.170025
C86	C	1.258871	0.905379	0.163309
C87	C	1.592205	1.238712	0.496642
C88	C	0.925537	0.428165	-0.170030
C89	C	1.258870	0.761499	0.163303
C90	C	1.592203	1.094832	0.496636
C91	C	1.103955	0.428129	0.008255
C92	C	1.437288	0.761462	0.341589
C93	C	1.770622	1.094796	0.674922
C94	C	1.103953	0.572012	0.008265
C95	C	1.437286	0.905345	0.341599
C96	C	1.770619	1.238679	0.674932
C97	C	0.981328	-0.124524	0.429857
C98	C	1.314662	0.208809	0.763191
C99	C	1.647995	0.542142	1.096524
C100	C	0.982856	-0.124531	0.343137
C101	C	1.316189	0.208803	0.676471
C102	C	1.649523	0.542136	1.009804
C103	C	0.982866	0.124680	0.343120
C104	C	1.316200	0.458013	0.676453
C105	C	1.649533	0.791346	1.009786
C106	C	0.981345	0.124685	0.429839
C107	C	1.314678	0.458018	0.763172
C108	C	1.648011	0.791351	1.096505
C109	C	0.980572	0.000078	0.473205
C110	C	1.313905	0.333412	0.806538
C111	C	1.647238	0.666745	1.139872
C112	C	0.983621	0.000067	0.299766
C113	C	1.316954	0.333401	0.633099
C114	C	1.650287	0.666734	0.966432
C115	C	0.985277	0.000061	0.205740
C116	C	1.318610	0.333395	0.539073
C117	C	1.651943	0.666728	0.872407
C118	C	0.978917	0.000084	0.567237
C119	C	1.312250	0.333417	0.900570
C120	C	1.645584	0.666750	1.233903
C121	C	0.975981	0.000106	0.734479
C122	C	1.309315	0.333439	1.067812
C123	C	1.642648	0.666773	1.401146
C124	C	0.977599	0.000088	0.642184
C125	C	1.310932	0.333421	0.975517
C126	C	1.644266	0.666755	1.308851
H127	H	0.542725	0.000112	-0.252317
H128	H	0.876059	0.333445	0.081016
H129	H	1.209392	0.666779	0.414349
F130	F	1.182616	0.369802	-0.017514
F131	F	1.515950	0.703136	0.315819
F132	F	1.849283	1.036469	0.649153
F133	F	0.983685	0.257287	0.296959
F134	F	1.317019	0.590620	0.630292
F135	F	1.650352	0.923953	0.963625
H136	H	0.980731	0.226157	0.465133
H137	H	1.314064	0.559491	0.798467
H138	H	1.647398	0.892824	1.131800
H139	H	0.879480	0.369606	-0.216044
H140	H	1.212814	0.702939	0.117289
H141	H	1.546147	1.036272	0.450622
H142	H	0.879487	0.630642	-0.216034
H143	H	1.212821	0.963975	0.117300
H144	H	1.546154	1.297308	0.450633
F145	F	1.078253	0.630324	0.086962
F146	F	1.411587	0.963657	0.420295
F147	F	1.744920	1.296990	0.753628
H148	H	1.167719	0.611070	-0.005407
H149	H	1.501053	0.944403	0.327926
H150	H	1.834386	1.277737	0.661260
F151	F	0.592118	0.000083	0.041277
F152	F	0.925451	0.333417	0.374610
F153	F	1.258784	0.666750	0.707944
H154	H	1.090334	0.389066	0.072036
H155	H	1.423667	0.722400	0.405370
H156	H	1.757000	1.055733	0.738703
F157	F	0.980509	-0.257141	0.476008
F158	F	1.313842	0.076192	0.809342
F159	F	1.647175	0.409526	1.142675
F160	F	0.413100	0.000081	0.044416
F161	F	0.746434	0.333414	0.377750
F162	F	1.079767	0.666747	0.711083
F163	F	0.372082	0.000126	-0.268298
F164	F	0.705415	0.333459	0.065035
F165	F	1.038748	0.666793	0.398369
F166	F	0.983664	-0.257150	0.297008
F167	F	1.316997	0.076183	0.630341
F168	F	1.650330	0.409516	0.963675
