data_functionalizedCrystal
_audit_creation_method	'MofGen! by Chris Wilmer'
_symmetry_space_group_name_H-M	'P1'
_symmetry_Int_Tables_number	1
_symmetry_cell_setting	triclinic
loop_
_symmetry_equiv_pos_as_xyz
  x,y,z
_cell_length_a	18.101398
_cell_length_b	14.908520
_cell_length_c	14.908854
_cell_angle_alpha	89.778335
_cell_angle_beta	86.727366
_cell_angle_gamma	86.683700
loop_
_atom_site_label
_atom_site_type_symbol
_atom_site_fract_x
_atom_site_fract_y
_atom_site_fract_z
Zn1	Zn	1.091536	0.328712	0.529183
Zn2	Zn	1.090626	0.487765	0.387496
Zn3	Zn	0.974403	0.337414	0.378826
Zn4	Zn	0.960137	0.479020	0.537788
O5	O	1.029175	0.408228	0.458323
O6	O	1.195046	0.349830	0.510414
O7	O	1.080798	0.475123	0.260523
O8	O	0.996292	0.210433	0.391542
O9	O	1.194377	0.466685	0.406317
O10	O	1.082350	0.204040	0.502008
O11	O	0.995409	0.364660	0.254154
O12	O	0.868880	0.356180	0.399886
O13	O	0.971978	0.451779	0.662469
O14	O	0.858399	0.460217	0.516675
O15	O	1.068517	0.341349	0.656147
O16	O	1.066965	0.612432	0.414662
O17	O	0.971095	0.606007	0.525081
C18	C	1.017402	0.641844	0.471766
C19	C	1.012432	0.741784	0.477547
C20	C	0.836769	0.408194	0.458274
C21	C	0.754454	0.408200	0.458276
C22	C	1.018758	0.394618	0.692845
C23	C	1.014318	0.388819	0.792784
C24	C	0.455357	0.408252	0.458355
C25	C	0.493254	0.342427	0.385193
C26	C	0.578876	0.342632	0.384909
C27	C	0.603743	0.408225	0.458315
C28	C	0.569046	0.504438	0.437888
C29	C	0.483442	0.504078	0.437385
C30	C	0.483928	0.378677	0.552153
C31	C	0.569707	0.376598	0.551512
C32	C	0.687604	0.408216	0.458295
C33	C	0.371496	0.408267	0.458373
C34	C	1.222333	0.408262	0.458373
C35	C	1.304646	0.408277	0.458394
C36	C	1.041014	0.173699	0.444848
C37	C	1.046058	0.073756	0.439105
C38	C	1.103015	0.936206	0.373523
C39	C	1.098348	1.030109	0.378951
C40	C	0.998434	1.023494	0.493837
C41	C	1.003102	0.929591	0.488408
C42	C	1.055393	0.885951	0.428248
C43	C	1.060056	0.792046	0.422815
C44	C	0.960147	0.785432	0.537705
C45	C	0.955480	0.879335	0.543133
C46	C	1.039598	0.421720	0.224710
C47	C	1.044194	0.427266	0.124757
C48	C	1.094908	0.492943	0.987214
C49	C	1.090739	0.487496	1.081116
C50	C	1.001816	0.372476	1.074490
C51	C	1.005985	0.377922	0.980589
C52	C	1.052532	0.438159	0.936954
C53	C	1.056696	0.443609	0.843051
C54	C	0.967777	0.328584	0.836427
C55	C	0.963608	0.323138	0.930329
H56	H	0.475489	0.271049	0.397180
H57	H	0.955866	1.059042	0.542822
H58	H	0.592664	0.305769	0.567014
H59	H	0.921368	0.744504	0.582263
N60	N	0.598438	0.535497	0.353033
N61	N	0.577624	0.611190	0.324446
H62	H	0.598379	0.633123	0.264514
N63	N	0.459795	0.291839	0.576769
N64	N	0.421239	0.250689	0.525472
H65	H	0.404193	0.189357	0.542847
H66	H	1.102632	0.756515	0.373828
H67	H	1.145588	0.900674	0.324532
N68	N	0.954269	0.310947	1.119057
N69	N	0.916434	0.262034	1.074174
H70	H	0.882853	0.218577	1.105649
N71	N	0.902078	0.923930	0.604583
N72	N	0.897919	1.007771	0.609427
H73	H	0.860202	1.039267	0.652826
H74	H	1.137128	1.071024	0.334390
H75	H	1.094601	0.492652	0.807524
H76	H	0.584565	0.555034	0.489747
N77	N	0.590516	0.431863	0.622991
N78	N	0.630950	0.495745	0.606335
H79	H	0.645625	0.534802	0.656812
N80	N	0.469145	0.367245	0.298369
N81	N	0.424174	0.433201	0.290140
H82	H	0.407146	0.450732	0.228821
H83	H	0.602703	0.271458	0.397086
N84	N	1.142446	0.554484	0.942651
N85	N	1.180273	0.603402	0.987538
H86	H	1.213848	0.646869	0.956068
N87	N	0.924497	0.272607	0.785087
N88	N	0.933125	0.189028	0.790807
H89	H	0.902557	0.149497	0.754549
H90	H	0.601681	0.362622	0.315294
H91	H	0.465514	0.528515	0.368976
H92	H	0.458832	0.426554	0.606598
N93	N	0.451385	0.568062	0.501686
N94	N	0.492251	0.612844	0.546786
H95	H	0.469614	0.658037	0.592195
N96	N	1.134038	0.543455	1.132441
N97	N	1.175597	0.597225	1.093466
H98	H	1.206182	0.636746	1.129714
N99	N	0.916074	0.261600	0.974904
N100	N	0.942693	0.201262	1.024013
H101	H	0.909120	0.157800	1.055494
