data_functionalizedCrystal
_audit_creation_method	'MofGen! by Chris Wilmer'
_symmetry_space_group_name_H-M	'P1'
_symmetry_Int_Tables_number	1
_symmetry_cell_setting	triclinic
loop_
_symmetry_equiv_pos_as_xyz
  x,y,z
_cell_length_a	12.645324
_cell_length_b	16.959455
_cell_length_c	16.959454
_cell_angle_alpha	89.982978
_cell_angle_beta	89.967675
_cell_angle_gamma	90.020663
loop_
_atom_site_label
_atom_site_type_symbol
_atom_site_fract_x
_atom_site_fract_y
_atom_site_fract_z
Zn1	Zn	-0.599404	-1.208433	-0.314687
Zn2	Zn	-0.422142	-1.208341	-0.446892
Zn3	Zn	-0.422153	-1.076247	-0.314724
Zn4	Zn	-0.599362	-1.076226	-0.446820
O5	O	-0.510765	-1.142312	-0.380781
O6	O	-0.575903	-1.319032	-0.332238
O7	O	-0.273796	-1.190789	-0.429406
O8	O	-0.445688	-1.093829	-0.204109
O9	O	-0.445670	-1.318964	-0.429369
O10	O	-0.575913	-1.190946	-0.204081
O11	O	-0.273804	-1.093740	-0.332303
O12	O	-0.445646	-0.965633	-0.332233
O13	O	-0.747715	-1.093794	-0.429246
O14	O	-0.575841	-0.965618	-0.429283
O15	O	-0.747746	-1.190926	-0.332169
O16	O	-0.445628	-1.190769	-0.557493
O17	O	-0.575831	-1.093704	-0.557441
C18	C	-0.510741	-0.936946	-0.380755
C19	C	-0.510756	-0.849089	-0.380763
C20	C	-0.510747	-1.142246	-0.586147
C21	C	-0.510775	-1.142290	-0.674004
C22	C	-0.787271	-1.142368	-0.380695
C23	C	-0.905101	-1.142391	-0.380659
C24	C	-0.950002	-1.203511	-0.319574
C25	C	-1.072562	-1.203773	-0.319734
C26	C	-1.072980	-1.164724	-0.463998
C27	C	-0.950382	-1.165144	-0.463665
C28	C	-0.950274	-1.058834	-0.359089
C29	C	-1.072881	-1.059305	-0.357231
C30	C	-0.235335	-1.142302	-0.380809
C31	C	-0.117506	-1.142431	-0.380623
C32	C	-0.510790	-1.348480	-0.380808
C33	C	-0.510801	-1.436337	-0.380819
C34	C	-0.443114	-0.477597	-0.330205
C35	C	-0.578477	-0.477630	-0.431421
C36	C	-0.578470	-0.560176	-0.431410
C37	C	-0.510784	-0.601436	-0.380796
C38	C	-0.443103	-0.560151	-0.330194
C39	C	-0.646141	-0.601468	-0.482017
C40	C	-0.646137	-0.684019	-0.482008
C41	C	-0.578455	-0.725280	-0.431390
C42	C	-0.510773	-0.683990	-0.380785
C43	C	-0.443086	-0.725250	-0.330172
C44	C	-0.375409	-0.683961	-0.279562
C45	C	-0.375421	-0.601412	-0.279576
C46	C	-0.578442	-0.807829	-0.431376
C47	C	-0.443075	-0.807803	-0.330160
C48	C	-0.578554	-1.091844	-1.045482
C49	C	-0.443084	-1.193000	-1.045477
C50	C	-0.443074	-1.192972	-0.962931
C51	C	-0.510804	-1.142379	-0.921657
C52	C	-0.578544	-1.091813	-0.962928
C53	C	-0.375328	-1.243532	-0.921653
C54	C	-0.375315	-1.243506	-0.839102
C55	C	-0.443051	-1.192915	-0.797826
C56	C	-0.510794	-1.142348	-0.839103
C57	C	-0.578525	-1.091755	-0.797829
C58	C	-0.646274	-1.041191	-0.839104
C59	C	-0.646281	-1.041223	-0.921652
C60	C	-0.443045	-1.192883	-0.715278
C61	C	-0.578515	-1.091724	-0.715275
C62	C	-0.510806	-1.142400	-0.174613
C63	C	-0.510824	-1.142437	-0.086756
H64	H	-1.102670	-1.189844	-0.257922
F65	F	-0.650610	-1.037878	-0.671354
F66	F	-0.912299	-0.999316	-0.417228
F67	F	-0.303254	-1.297376	-0.965584
F68	F	-1.112865	-0.996643	-0.411100
F69	F	-0.718166	-0.727954	-0.535869
F70	F	-0.303401	-0.557464	-0.225719
F71	F	-1.110916	-1.284712	-0.338426
H72	H	-0.701240	-0.567867	-0.523229
H73	H	-0.921795	-1.226215	-0.481908
H74	H	-1.103718	-1.225124	-0.482557
H75	H	-0.920675	-1.122530	-0.510728
F76	F	-0.909764	-1.283982	-0.338043
F77	F	-0.650458	-0.851768	-0.485239
F78	F	-0.303368	-0.727882	-0.225702
F79	F	-0.909884	-1.032218	-0.280986
H80	H	-0.388016	-0.443976	-0.288998
F81	F	-1.111024	-1.108337	-0.525101
F82	F	-0.371038	-0.851709	-0.276285
H83	H	-1.101987	-1.042488	-0.295874
H84	H	-0.387935	-1.234186	-1.079087
H85	H	-0.633578	-0.444031	-0.472633
F86	F	-0.718351	-0.987344	-0.795167
F87	F	-0.718377	-0.987414	-0.965585
H88	H	-0.633717	-1.050678	-1.079091
H89	H	-0.320151	-1.284678	-0.805501
H90	H	-0.387879	-1.234048	-0.681676
F91	F	-0.911509	-1.185518	-0.238534
