data_functionalizedCrystal
_audit_creation_method	'MofGen! by Chris Wilmer'
_symmetry_space_group_name_H-M	'P1'
_symmetry_Int_Tables_number	1
_symmetry_cell_setting	triclinic
loop_
_symmetry_equiv_pos_as_xyz
  x,y,z
_cell_length_a	16.974800
_cell_length_b	17.666332
_cell_length_c	16.992695
_cell_angle_alpha	89.993578
_cell_angle_beta	92.978326
_cell_angle_gamma	86.352538
loop_
_atom_site_label
_atom_site_type_symbol
_atom_site_fract_x
_atom_site_fract_y
_atom_site_fract_z
O1	O	1.055459	-0.001733	-0.099873
O2	O	1.555459	0.498267	0.400127
O3	O	0.826059	0.012327	-0.112614
O4	O	1.326059	0.512327	0.387386
O5	O	0.939839	0.005347	0.007898
O6	O	1.439839	0.505347	0.507898
O7	O	0.941679	0.005246	-0.220385
O8	O	1.441679	0.505246	0.279615
O9	O	0.939818	-0.120548	0.007904
O10	O	1.439818	0.379452	0.507904
O11	O	0.826037	-0.113569	-0.112608
O12	O	1.326037	0.386431	0.387392
O13	O	1.055437	-0.127629	-0.099867
O14	O	1.555437	0.372371	0.400133
Cu15	Cu	0.940735	-0.132094	-0.106237
Cu16	Cu	1.440735	0.367906	0.393763
Cu17	Cu	0.940761	0.016792	-0.106244
Cu18	Cu	1.440761	0.516792	0.393756
O19	O	0.941657	-0.120649	-0.220379
O20	O	1.441657	0.379351	0.279621
C21	C	0.796559	-0.048813	-0.112128
C22	C	1.296559	0.451187	0.387872
C23	C	0.708691	-0.043428	-0.110681
C24	C	1.208691	0.456572	0.389319
C25	C	0.667404	-0.109525	-0.109996
C26	C	1.167404	0.390475	0.390004
C27	C	0.584843	-0.104468	-0.108623
C28	C	1.084843	0.395532	0.391377
C29	C	0.543572	-0.033312	-0.107942
C30	C	1.043572	0.466688	0.392058
C31	C	0.584865	0.032791	-0.108625
C32	C	1.084865	0.532791	0.391375
C33	C	0.667425	0.027732	-0.109992
C34	C	1.167425	0.527732	0.390008
C35	C	0.296658	-0.010823	-0.103850
C36	C	0.796658	0.489177	0.396150
C37	C	0.214093	-0.005770	-0.102485
C38	C	0.714093	0.494230	0.397515
C39	C	0.214076	-0.143029	-0.102482
C40	C	0.714076	0.356971	0.397518
C41	C	0.296637	-0.148081	-0.103854
C42	C	0.796637	0.351919	0.396146
C43	C	0.337923	-0.081979	-0.104532
C44	C	0.837923	0.418021	0.395468
N45	N	0.459182	-0.028140	-0.106542
N46	N	0.959182	0.471860	0.393458
N47	N	0.422312	-0.087151	-0.105927
N48	N	0.922312	0.412849	0.394073
N49	N	0.940723	-0.236813	-0.106231
N50	N	1.440723	0.263187	0.393769
C51	C	0.991124	-0.279514	-0.052894
C52	C	1.491124	0.220486	0.447106
C53	C	0.991128	-0.358762	-0.052890
C54	C	1.491128	0.141238	0.447110
C55	C	0.940740	-0.395306	-0.106237
C56	C	1.440740	0.104694	0.393763
C57	C	0.890329	-0.352594	-0.159577
C58	C	1.390329	0.147406	0.340423
C59	C	0.890321	-0.273347	-0.159575
C60	C	1.390321	0.226653	0.340425
N61	N	0.935060	-0.519373	-0.175624
N62	N	1.435060	-0.019373	0.324376
N63	N	0.935072	-0.594654	-0.175624
N64	N	1.435072	-0.094654	0.324376
C65	C	0.940762	-0.634071	-0.106248
C66	C	1.440762	-0.134071	0.393752
N67	N	0.946453	-0.595364	-0.036869
N68	N	1.446453	-0.095364	0.463131
N69	N	0.946444	-0.520076	-0.036869
N70	N	1.446444	-0.020076	0.463131
C71	C	0.940743	-0.481235	-0.106246
C72	C	1.440743	0.018765	0.393754
C73	C	0.991170	-0.762702	-0.052903
C74	C	1.491170	-0.262702	0.447097
C75	C	0.991169	-0.841951	-0.052898
C76	C	1.491169	-0.341951	0.447102
C77	C	0.890374	-0.835782	-0.159592
C78	C	1.390374	-0.335782	0.340408
C79	C	0.890371	-0.756535	-0.159590
C80	C	1.390371	-0.256535	0.340410
C81	C	0.940773	-0.720000	-0.106246
C82	C	1.440773	-0.220000	0.393754
C83	C	1.084937	-0.066487	-0.100353
C84	C	1.584937	0.433513	0.399647
C85	C	1.172805	-0.071867	-0.101800
C86	C	1.672805	0.428133	0.398200
C87	C	0.937462	-0.057455	0.037111
C88	C	1.437462	0.442545	0.537111
C89	C	0.930403	-0.057023	0.124147
C90	C	1.430403	0.442977	0.624147
N91	N	0.940779	0.121510	-0.106244
N92	N	1.440779	0.621510	0.393756
C93	C	0.944034	-0.057845	-0.249592
C94	C	1.444034	0.442155	0.250408
C95	C	0.951093	-0.058273	-0.336628
C96	C	1.451093	0.441727	0.163372
C97	C	0.998518	-0.061198	0.174465
C98	C	1.498518	0.438802	0.674465
C99	C	0.991880	-0.060784	0.256244
C100	C	1.491880	0.439216	0.756244
C101	C	0.917126	-0.056200	0.287704
C102	C	1.417126	0.443800	0.787704
C103	C	0.849006	-0.052022	0.237380
C104	C	1.349006	0.447978	0.737380
C105	C	0.855645	-0.052430	0.155602
C106	C	1.355645	0.447570	0.655602
C107	C	0.889612	-0.054503	0.531270
C108	C	1.389612	0.445497	1.031270
C109	C	0.882978	-0.054097	0.613054
C110	C	1.382978	0.445903	1.113054
C111	C	1.025853	-0.062858	0.631913
C112	C	1.525853	0.437142	1.131913
C113	C	1.032485	-0.063271	0.550133
C114	C	1.532485	0.436729	1.050133
C115	C	0.964365	-0.059089	0.499816
C116	C	1.464365	0.440911	0.999816
N117	N	0.910340	-0.055779	0.371295
N118	N	1.410340	0.444221	0.871295
N119	N	0.971152	-0.059504	0.416227
N120	N	1.471152	0.440496	0.916227
H121	H	0.330235	-0.206024	-0.104405
H122	H	0.830235	0.293976	0.395595
H123	H	0.822102	-0.050376	0.638665
H124	H	1.322102	0.449624	1.138665
N125	N	0.835954	-0.227285	-0.217101
N126	N	1.335954	0.272715	0.282899
H127	H	0.804030	-0.262457	-0.250895
H128	H	1.304030	0.237543	0.249105
H129	H	0.868406	-0.196381	-0.251748
H130	H	1.368406	0.303619	0.248252
H131	H	1.032163	-0.249770	-0.009457
H132	H	1.532163	0.250230	0.490543
N133	N	0.768379	-0.047084	0.271310
N134	N	1.268379	0.452916	0.771310
H135	H	0.726236	-0.044500	0.227022
H136	H	1.226236	0.455500	0.727022
H137	H	0.762519	-0.000055	0.304825
H138	H	1.262519	0.499945	0.804825
N139	N	1.045527	-0.723289	0.004630
N140	N	1.545527	-0.223289	0.504630
H141	H	1.077453	-0.762369	0.038425
H142	H	1.577453	-0.262369	0.538425
H143	H	1.013068	-0.688430	0.039275
H144	H	1.513068	-0.188430	0.539275
H145	H	1.032172	-0.393536	-0.009456
H146	H	1.532172	0.106464	0.490544
N147	N	0.835976	-0.392003	-0.217112
N148	N	1.335976	0.107997	0.282888
H149	H	0.843630	-0.448686	-0.209022
H150	H	1.343630	0.051314	0.290978
H151	H	0.848616	-0.378914	-0.272729
H152	H	1.348616	0.121086	0.227271
N153	N	0.169546	-0.214321	-0.101749
N154	N	0.669546	0.285679	0.398251
H155	H	0.110917	-0.200322	-0.101861
H156	H	0.610917	0.299678	0.398139
H157	H	0.186537	-0.244880	-0.052859
H158	H	0.686537	0.255120	0.447141
H159	H	1.093357	-0.067004	0.524525
H160	H	1.593357	0.432996	1.024525
H161	H	0.834143	-0.051098	0.490312
H162	H	1.334143	0.448902	0.990312
N163	N	1.045547	-0.888013	0.004619
N164	N	1.545547	-0.388013	0.504619
H165	H	1.077480	-0.852841	0.038403
H166	H	1.577480	-0.352841	0.538403
H167	H	1.082386	-0.923130	-0.025401
H168	H	1.582386	-0.423130	0.474599
N169	N	0.782179	-0.047922	0.101327
N170	N	1.282179	0.452078	0.601327
H171	H	0.733815	-0.044957	0.133664
H172	H	1.233815	0.455043	0.633664
H173	H	0.781810	-0.094570	0.066989
H174	H	1.281810	0.405430	0.566989
H175	H	0.701001	-0.167468	-0.110557
H176	H	1.201001	0.332532	0.389443
H177	H	0.849343	-0.865535	-0.203024
H178	H	1.349343	-0.365535	0.296976
H179	H	0.551232	-0.158291	-0.108052
H180	H	1.051232	0.341709	0.391948
H181	H	0.180491	0.052177	-0.101933
H182	H	0.680491	0.552177	0.398067
N183	N	1.065347	-0.065297	0.310516
N184	N	1.565347	0.434703	0.810516
H185	H	1.065793	-0.018653	0.344859
H186	H	1.565793	0.481347	0.844859
H187	H	1.113668	-0.068295	0.278121
H188	H	1.613668	0.431705	0.778121
H189	H	0.849333	-0.721765	-0.203025
H190	H	1.349333	-0.221765	0.296975
H191	H	0.330263	0.043002	-0.104400
H192	H	0.830263	0.543002	0.395600
H193	H	0.701040	0.081556	-0.110551
H194	H	1.201040	0.581556	0.389449
H195	H	0.551256	0.090727	-0.108065
H196	H	1.051256	0.590727	0.391935
H197	H	1.059390	-0.064936	0.148857
H198	H	1.559390	0.435064	0.648857
N199	N	1.099322	-0.067370	0.686182
N200	N	1.599322	0.432630	1.186182
H201	H	1.083777	-0.066416	0.742762
H202	H	1.583777	0.433584	1.242762
H203	H	1.131686	-0.022683	0.676000
H204	H	1.631686	0.477317	1.176000
