data_functionalizedCrystal
_audit_creation_method	'MofGen! by Chris Wilmer'
_symmetry_space_group_name_H-M	'P1'
_symmetry_Int_Tables_number	1
_symmetry_cell_setting	triclinic
loop_
_symmetry_equiv_pos_as_xyz
  x,y,z
_cell_length_a	19.188933
_cell_length_b	19.188930
_cell_length_c	8.965430
_cell_angle_alpha	89.995304
_cell_angle_beta	89.997623
_cell_angle_gamma	83.145175
loop_
_atom_site_label
_atom_site_type_symbol
_atom_site_fract_x
_atom_site_fract_y
_atom_site_fract_z
O1	O	0.926144	0.087169	-0.124006
O2	O	0.722833	0.098902	-0.124022
O3	O	0.830355	-0.008620	-0.123985
O4	O	0.818621	0.194691	-0.124044
O5	O	0.830346	-0.008613	0.124094
O6	O	0.722824	0.098909	0.124056
O7	O	0.926135	0.087176	0.124073
Cu8	Cu	0.824478	0.093043	0.146716
Cu9	Cu	0.824489	0.093035	-0.146666
O10	O	0.818612	0.194698	0.124035
C11	C	0.696817	0.098525	0.000015
C12	C	0.619313	0.097384	0.000010
C13	C	0.066062	0.089235	-0.135199
C14	C	0.138887	0.090303	-0.135205
C15	C	0.175299	0.090844	0.000022
C16	C	0.138883	0.090299	0.135266
C17	C	0.066061	0.089224	0.135268
N18	N	0.284315	0.132265	0.100666
N19	N	0.353493	0.133288	0.100655
C20	C	0.394707	0.094082	0.000024
N21	N	0.364130	0.053823	-0.100618
N22	N	0.294945	0.052803	-0.100611
C23	C	0.254262	0.092009	0.000035
C24	C	0.510079	0.095780	-0.135218
C25	C	0.582906	0.096844	-0.135218
C26	C	0.582899	0.096847	0.135256
C27	C	0.510076	0.095776	0.135253
C28	C	0.473669	0.095246	0.000012
C29	C	0.829971	-0.034628	0.000059
C30	C	0.828830	-0.112132	0.000072
C31	C	0.891921	-0.157056	0.000084
C32	C	0.890849	-0.229880	0.000060
C33	C	0.826683	-0.257777	0.000054
C34	C	0.763584	-0.212843	0.000033
C35	C	0.764658	-0.140021	0.000042
N36	N	0.777633	-0.365780	0.084476
N37	N	0.776617	-0.434958	0.084470
C38	C	0.823445	-0.477185	0.000023
N39	N	0.871337	-0.447622	-0.084400
N40	N	0.872355	-0.378437	-0.084388
C41	C	0.825512	-0.336739	0.000043
C42	C	0.885378	-0.601073	0.000007
C43	C	0.884304	-0.673898	-0.000026
C44	C	0.757037	-0.656860	-0.000038
C45	C	0.758113	-0.584037	-0.000019
C46	C	0.822286	-0.556148	0.000010
C47	C	0.952150	0.087553	0.000031
C48	C	1.029655	0.088694	0.000027
C49	C	0.818997	0.220705	-0.000012
C50	C	0.820137	0.298210	-0.000035
N51	N	0.824476	0.093049	0.353065
N52	N	0.824497	0.093024	-0.353015
C53	C	0.774735	0.142758	0.450354
C54	C	0.837787	0.156114	0.549768
C55	C	0.761451	0.079698	0.549779
C56	C	0.887559	0.106436	0.450290
C57	C	0.811182	0.029993	0.450292
C58	C	0.874279	0.043322	0.549662
H59	H	0.036425	0.088800	-0.245323
O60	O	0.694374	-0.242925	0.000043
H61	H	0.704226	-0.301111	0.000060
O62	O	0.622175	0.097421	-0.281082
H63	H	0.678931	0.098247	-0.258368
H64	H	0.799903	-0.023303	0.406564
H65	H	0.480432	0.095338	0.245368
H66	H	0.036418	0.088786	0.245388
H67	H	0.732709	0.184833	0.406750
O68	O	0.696608	-0.091560	0.000055
H69	H	0.651807	-0.123190	0.000057
H70	H	0.708143	0.068418	0.593483
O71	O	0.961132	-0.126972	0.000103
H72	H	0.964664	-0.094193	-0.101002
H73	H	0.940879	0.117780	0.406773
H74	H	0.942227	-0.266463	0.000064
O75	O	0.954588	-0.570984	0.000009
H76	H	0.998281	-0.614460	-0.000015
H77	H	0.706738	-0.547459	-0.000021
O78	O	0.930068	-0.012378	0.607069
H79	H	0.905105	-0.050852	0.675204
H80	H	0.480436	0.095346	-0.245339
H81	H	0.935682	-0.710475	-0.000024
H82	H	0.168535	0.090747	-0.245325
H83	H	0.168534	0.090739	0.245368
H84	H	0.612546	0.097285	0.245361
H85	H	0.849046	0.209427	0.593461
H86	H	0.704792	-0.679573	-0.000050
