data_functionalizedCrystal
_audit_creation_method	'MofGen! by Chris Wilmer'
_symmetry_space_group_name_H-M	'P1'
_symmetry_Int_Tables_number	1
_symmetry_cell_setting	triclinic
loop_
_symmetry_equiv_pos_as_xyz
  x,y,z
_cell_length_a	6.817900
_cell_length_b	12.000057
_cell_length_c	16.255661
_cell_angle_alpha	91.549060
_cell_angle_beta	103.488922
_cell_angle_gamma	119.141479
loop_
_atom_site_label
_atom_site_type_symbol
_atom_site_fract_x
_atom_site_fract_y
_atom_site_fract_z
V1	V	-4.114328	-0.177903	-0.265307
O2	O	-4.010503	0.007486	-0.258788
O3	O	-4.151489	-0.351729	-0.264906
O4	O	-4.064772	-0.175632	-0.380372
O5	O	-4.097820	-0.169829	-0.142522
V6	V	-4.587019	-0.155673	-0.250449
O7	O	-4.399347	-0.226665	-0.297899
O8	O	-4.752197	-0.106910	-0.217858
O9	O	-4.326652	0.018153	-0.250851
O10	O	-4.808241	-0.341062	-0.256969
O11	O	-4.720924	-0.163746	-0.373235
O12	O	-4.413369	-0.157943	-0.135385
C13	C	-4.017342	-0.394090	-0.261085
C14	C	-4.129004	-0.536198	-0.261524
C15	C	-4.118056	-0.740228	-0.258105
C16	C	-4.002645	-0.593352	-0.257654
C17	C	-3.906724	-0.169459	-0.408373
C18	C	-3.948056	-0.168753	-0.502448
C19	C	-3.854459	-0.160320	-0.725199
C20	C	-4.064481	-0.269164	-0.795554
C21	C	-4.023789	-0.167430	-0.674686
C22	C	-3.887444	-0.057339	-0.771959
C23	C	-4.096924	-0.166145	-0.841059
C24	C	-4.233340	-0.276371	-0.743812
C25	C	-4.056194	-0.064450	-0.720201
C26	C	-4.266367	-0.173325	-0.790536
C27	C	-3.981653	-0.168171	-0.578843
C28	C	-4.139082	-0.165414	-0.936902
C29	C	-4.124145	0.060507	-0.254669
C30	C	-3.991721	0.202614	-0.254236
C31	C	-4.234761	-0.164120	-0.107379
C32	C	-4.172664	-0.164820	-0.013303
H33	H	-3.680067	-0.154963	-0.696675
C34	C	-4.069830	-0.386083	-0.839854
C35	C	-3.853409	-0.401719	-0.814946
C36	C	-3.858739	-0.518631	-0.859241
C37	C	-4.080490	-0.619908	-0.928444
C38	C	-4.296927	-0.604275	-0.953355
C39	C	-4.291597	-0.487362	-0.909060
H40	H	-3.689242	-0.326745	-0.763714
H41	H	-3.698517	-0.530203	-0.840799
H42	H	-4.084436	-0.706454	-0.961234
H43	H	-4.461095	-0.679249	-1.004587
H44	H	-4.451819	-0.475790	-0.927502
H45	H	-4.322606	-0.595990	-0.265156
H46	H	-4.311656	-0.800028	-0.261748
C47	C	-4.430385	-0.401565	-0.726640
C48	C	-4.584442	-0.394358	-0.673312
C49	C	-4.781477	-0.519551	-0.656139
C50	C	-4.824455	-0.651952	-0.692295
C51	C	-4.670394	-0.659165	-0.745626
C52	C	-4.473359	-0.533971	-0.762799
H53	H	-4.552631	-0.296342	-0.646545
H54	H	-4.895523	-0.514211	-0.616660
H55	H	-4.970312	-0.744628	-0.679582
H56	H	-4.702205	-0.757181	-0.772393
H57	H	-4.359313	-0.539311	-0.802278
H58	H	-4.440962	-0.178853	-0.818928
C59	C	-4.050742	0.052475	-0.675871
C60	C	-4.265534	0.069464	-0.701858
C61	C	-4.260050	0.186403	-0.657524
C62	C	-4.039775	0.286352	-0.587202
C63	C	-3.824967	0.269366	-0.561211
C64	C	-3.830451	0.152428	-0.605545
H65	H	-4.428609	-0.004527	-0.753917
H66	H	-4.419066	0.198976	-0.676765
H67	H	-4.035715	0.372917	-0.554383
H68	H	-3.661892	0.343358	-0.509152
H69	H	-3.671435	0.139854	-0.586305
H70	H	-3.741632	0.035203	-0.784821
H71	H	-3.798117	-0.737583	-0.250586
H72	H	-3.809032	-0.533554	-0.254004
