data_functionalizedCrystal
_audit_creation_method	'MofGen! by Chris Wilmer'
_symmetry_space_group_name_H-M	'P1'
_symmetry_Int_Tables_number	1
_symmetry_cell_setting	triclinic
loop_
_symmetry_equiv_pos_as_xyz
  x,y,z
_cell_length_a	19.077236
_cell_length_b	18.050589
_cell_length_c	19.077174
_cell_angle_alpha	92.276796
_cell_angle_beta	85.294282
_cell_angle_gamma	92.321157
loop_
_atom_site_label
_atom_site_type_symbol
_atom_site_fract_x
_atom_site_fract_y
_atom_site_fract_z
Zn1	Zn	1.093723	-0.268141	-0.441989
Zn2	Zn	1.593723	0.231859	0.058011
Zn3	Zn	1.088901	-0.387542	-0.324108
Zn4	Zn	1.588901	0.112458	0.175892
Zn5	Zn	0.971104	-0.268152	-0.319372
Zn6	Zn	1.471104	0.231848	0.180628
Zn7	Zn	0.975791	-0.397080	-0.437213
Zn8	Zn	1.475791	0.102920	0.062787
O9	O	1.032379	-0.330229	-0.380671
O10	O	1.532379	0.169771	0.119329
O11	O	1.191736	-0.279983	-0.430333
O12	O	1.691736	0.220017	0.069667
O13	O	1.069295	-0.367717	-0.224829
O14	O	1.569295	0.132283	0.275171
O15	O	0.987426	-0.164224	-0.335654
O16	O	1.487426	0.335776	0.164346
O17	O	1.188194	-0.367706	-0.343726
O18	O	1.688194	0.132294	0.156274
O19	O	1.077514	-0.164216	-0.425741
O20	O	1.577514	0.335784	0.074259
O21	O	0.982751	-0.280002	-0.221350
O22	O	1.482751	0.219998	0.278650
O23	O	0.873072	-0.289251	-0.331023
O24	O	1.373072	0.210749	0.168977
O25	O	0.995414	-0.383963	-0.536497
O26	O	1.495414	0.116037	-0.036497
O27	O	0.876516	-0.383974	-0.417600
O28	O	1.376516	0.116026	0.082400
O29	O	1.082058	-0.289232	-0.540006
O30	O	1.582058	0.210768	-0.040006
O31	O	1.073840	-0.492733	-0.339095
O32	O	1.573840	0.007267	0.160905
O33	O	0.990738	-0.499741	-0.422193
O34	O	1.490738	0.000259	0.077807
C35	C	0.849214	-0.337649	-0.373280
C36	C	1.349214	0.162351	0.126720
C37	C	0.770856	-0.340842	-0.370135
C38	C	1.270856	0.159158	0.129865
C39	C	0.735891	-0.296748	-0.413818
C40	C	1.235891	0.203252	0.086182
C41	C	0.662265	-0.299745	-0.410857
C42	C	1.162265	0.200255	0.089143
C43	C	0.623606	-0.346840	-0.364216
C44	C	1.123606	0.153160	0.135784
C45	C	0.658575	-0.390936	-0.320528
C46	C	1.158575	0.109064	0.179472
C47	C	0.732200	-0.387935	-0.323486
C48	C	1.232200	0.112065	0.176514
C49	C	0.403213	-0.360700	-0.350523
C50	C	0.903213	0.139300	0.149477
C51	C	0.329584	-0.363700	-0.347570
C52	C	0.829584	0.136300	0.152430
C53	C	0.333278	-0.272507	-0.437898
C54	C	0.833278	0.227493	0.062102
C55	C	0.406904	-0.269513	-0.440854
C56	C	0.906904	0.230487	0.059146
C57	C	0.441868	-0.313606	-0.397164
C58	C	0.941868	0.186394	0.102836
N59	N	0.548348	-0.349906	-0.361190
N60	N	1.048348	0.150094	0.138810
N61	N	0.517124	-0.310536	-0.400188
N62	N	1.017124	0.189464	0.099812
C63	C	1.032294	-0.523184	-0.380656
C64	C	1.532294	-0.023184	0.119344
C65	C	1.032323	-0.605729	-0.380675
C66	C	1.532323	-0.105729	0.119325
C67	C	0.987178	-0.809015	-0.425849
C68	C	1.487178	-0.309015	0.074151
C69	C	0.967413	-0.856535	-0.360830
C70	C	1.467413	-0.356535	0.139170
C71	C	1.032392	-0.756857	-0.380687
C72	C	1.532392	-0.256857	0.119313
C73	C	1.052192	-0.856418	-0.445715
C74	C	1.552192	-0.356418	0.054285
C75	C	1.032459	-0.902840	-0.380704
C76	C	1.532459	-0.402840	0.119296
C77	C	1.012592	-0.803289	-0.315633
C78	C	1.512592	-0.303289	0.184367
C79	C	1.097403	-0.803169	-0.400562
C80	C	1.597403	-0.303169	0.099438
C81	C	1.077661	-0.850664	-0.335500
C82	C	1.577661	-0.350664	0.164500
C83	C	1.032352	-0.672760	-0.380678
C84	C	1.532352	-0.172760	0.119322
C85	C	1.032498	-0.986935	-0.380706
C86	C	1.532498	-0.486935	0.119294
C87	C	1.216260	-0.322780	-0.388091
C88	C	1.716260	0.177220	0.111909
C89	C	1.294619	-0.319605	-0.391252
C90	C	1.794619	0.180395	0.108748
C91	C	1.039797	-0.337660	-0.564546
C92	C	1.539797	0.162340	-0.064546
C93	C	1.042957	-0.340827	-0.642902
C94	C	1.542957	0.159173	-0.142902
C95	C	1.032485	-0.136520	-0.380702
C96	C	1.532485	0.363480	0.119298
C97	C	1.032530	-0.053973	-0.380715
C98	C	1.532530	0.446027	0.119285
C99	C	0.999385	-0.296647	-0.677903
C100	C	1.499385	0.203353	-0.177903
C101	C	1.002352	-0.299629	-0.751527
C102	C	1.502352	0.200371	-0.251527
C103	C	1.048896	-0.346787	-0.790150
C104	C	1.548896	0.153213	-0.290150
C105	C	1.092470	-0.390972	-0.755145
C106	C	1.592470	0.109028	-0.255145
C107	C	1.089499	-0.387993	-0.681522
C108	C	1.589499	0.112007	-0.181522
C109	C	1.062610	-0.360596	-1.010534
C110	C	1.562610	0.139404	-0.510534
C111	C	1.065580	-0.363569	-1.084162
C112	C	1.565580	0.136431	-0.584162
C113	C	0.975461	-0.272227	-1.080539
C114	C	1.475461	0.227773	-0.580539
C115	C	0.972497	-0.269249	-1.006915
C116	C	1.472497	0.230751	-0.506915
C117	C	1.016068	-0.313437	-0.971916
C118	C	1.516068	0.186563	-0.471916
N119	N	1.051931	-0.349834	-0.865406
N120	N	1.551931	0.150166	-0.365406
N121	N	1.013029	-0.310393	-0.896661
N122	N	1.513029	0.189607	-0.396661
C123	C	1.025032	-0.322771	-0.197513
C124	C	1.525032	0.177229	0.302487
C125	C	1.022008	-0.319389	-0.119162
C126	C	1.522008	0.180611	0.380838
H127	H	0.304803	-0.236608	-0.473467
H128	H	0.804803	0.263392	0.026533
C129	C	0.333322	-0.453537	-0.258571
C130	C	0.833322	0.046463	0.241429
C131	C	0.287087	-0.415469	-0.296297
C132	C	0.787087	0.084531	0.203703
H133	H	0.307085	-0.485493	-0.226919
H134	H	0.807085	0.014507	0.273081
H135	H	0.363273	-0.482063	-0.290389
H136	H	0.863273	0.017937	0.209611
H137	H	0.360957	-0.418869	-0.232811
H138	H	0.860957	0.081131	0.267189
H139	H	0.259456	-0.450138	-0.322062
H140	H	0.759456	0.049862	0.177938
H141	H	0.257123	-0.386941	-0.264474
H142	H	0.757123	0.113059	0.235526
C143	C	0.482154	-0.363661	-0.259001
C144	C	0.982154	0.136339	0.240999
C145	C	0.441641	-0.409173	-0.302506
C146	C	0.941641	0.090827	0.197494
H147	H	0.505876	-0.393589	-0.229355
H148	H	1.005876	0.106411	0.270645
H149	H	0.515711	-0.335189	-0.287199
H150	H	1.015711	0.164811	0.212801
H151	H	0.452344	-0.331347	-0.230935
H152	H	0.952344	0.168653	0.269065
H153	H	0.471452	-0.441483	-0.330576
H154	H	0.971452	0.058517	0.169424
H155	H	0.408080	-0.437657	-0.274305
H156	H	0.908080	0.062343	0.225695
C157	C	1.181247	-0.480963	-0.751325
C158	C	1.681247	0.019037	-0.251325
C159	C	1.143631	-0.442811	-0.797597
C160	C	1.643631	0.057189	-0.297597
H161	H	1.212830	-0.512968	-0.777534
H162	H	1.712830	-0.012968	-0.277534
H163	H	1.207070	-0.446352	-0.723704
H164	H	1.707070	0.053648	-0.223704
H165	H	1.149348	-0.509452	-0.721364
H166	H	1.649348	-0.009452	-0.221364
H167	H	1.175530	-0.414317	-0.827554
H168	H	1.675530	0.085683	-0.327554
H169	H	1.117806	-0.477426	-0.825230
H170	H	1.617806	0.022574	-0.325230
C171	C	0.811146	-0.390891	-0.231966
C172	C	1.311146	0.109109	0.268034
C173	C	0.770635	-0.436407	-0.275469
C174	C	1.270635	0.063593	0.224531
H175	H	0.834869	-0.420817	-0.202318
H176	H	1.334869	0.079183	0.297682
H177	H	0.844703	-0.362422	-0.260167
H178	H	1.344703	0.137578	0.239833
H179	H	0.781336	-0.358576	-0.203903
H180	H	1.281336	0.141424	0.296097
H181	H	0.800446	-0.468719	-0.303536
H182	H	1.300446	0.031281	0.196464
H183	H	0.737073	-0.464889	-0.247266
H184	H	1.237073	0.035111	0.252734
C185	C	0.867463	-0.811154	-0.456349
C186	C	1.367463	-0.311154	0.043651
C187	C	0.935482	-0.784147	-0.477327
C188	C	1.435482	-0.284147	0.022673
H189	H	0.835549	-0.795796	-0.488125
H190	H	1.335549	-0.295796	0.011875
H191	H	0.866827	-0.863799	-0.456403
H192	H	1.366827	-0.363799	0.043597
H193	H	0.853881	-0.792170	-0.410294
H194	H	1.353881	-0.292170	0.089706
H195	H	0.949066	-0.803135	-0.523380
H196	H	1.449066	-0.303135	-0.023380
H197	H	0.936121	-0.731492	-0.477280
H198	H	1.436121	-0.231492	0.022720
H199	H	0.767363	-0.258400	-0.451800
H200	H	1.267363	0.241600	0.048200
C201	C	0.894209	-0.965606	-0.337777
C202	C	1.394209	-0.465606	0.162223
C203	C	0.893235	-0.888098	-0.338139
C204	C	1.393235	-0.388098	0.161861
H205	H	0.848415	-0.985088	-0.323768
H206	H	1.348415	-0.485088	0.176232
H207	H	0.908558	-0.984539	-0.383652
H208	H	1.408558	-0.484539	0.116348
H209	H	0.926307	-0.979755	-0.305655
H210	H	1.426307	-0.479755	0.194345
H211	H	0.861141	-0.873949	-0.370265
H212	H	1.361141	-0.373949	0.129735
H213	H	0.878877	-0.869158	-0.292257
H214	H	1.378877	-0.369158	0.207743
C215	C	0.673313	-0.209311	-0.500444
C216	C	1.173313	0.290689	-0.000444
C217	C	0.623832	-0.251276	-0.458876
C218	C	1.123832	0.248724	0.041124
H219	H	0.649585	-0.179391	-0.530092
H220	H	1.149585	0.320609	-0.030092
H221	H	0.700796	-0.178445	-0.470931
H222	H	1.200796	0.321555	0.029069
H223	H	0.703108	-0.241641	-0.528508
H224	H	1.203108	0.258359	-0.028508
H225	H	0.594040	-0.218946	-0.430808
H226	H	1.094040	0.281054	0.069192
H227	H	0.596337	-0.282145	-0.488393
H228	H	1.096337	0.217855	0.011607
C229	C	0.901224	-0.286822	-0.591281
C230	C	1.401224	0.213178	-0.091281
C231	C	0.948223	-0.244810	-0.635449
C232	C	1.448223	0.255190	-0.135449
H233	H	0.869641	-0.254818	-0.565071
H234	H	1.369641	0.245182	-0.065071
H235	H	0.875402	-0.321426	-0.618909
H236	H	1.375402	0.178574	-0.118909
H237	H	0.926759	-0.312702	-0.559902
H238	H	1.426759	0.187298	-0.059902
H239	H	0.922689	-0.218933	-0.666832
H240	H	1.422689	0.281067	-0.166832
H241	H	0.974048	-0.210192	-0.607818
H242	H	1.474048	0.289808	-0.107818
H243	H	0.939987	-0.236252	-1.109043
H244	H	1.439987	0.263748	-0.609043
H245	H	1.098082	-0.396585	-0.982046
H246	H	1.598082	0.103415	-0.482046
H247	H	0.966869	-0.263656	-0.780020
H248	H	1.466869	0.236344	-0.280020
C249	C	1.154356	-0.453572	-1.080352
C250	C	1.654356	0.046428	-0.580352
C251	C	1.116741	-0.415413	-1.126618
C252	C	1.616741	0.084587	-0.626618
H253	H	1.185936	-0.485578	-1.106564
H254	H	1.685936	0.014422	-0.606564
H255	H	1.180183	-0.418966	-1.052729
H256	H	1.680183	0.081034	-0.552729
H257	H	1.122457	-0.482062	-1.050392
H258	H	1.622457	0.017938	-0.550392
H259	H	1.148640	-0.386919	-1.156575
H260	H	1.648640	0.113081	-0.656575
H261	H	1.090913	-0.450024	-1.154252
H262	H	1.590913	0.049976	-0.654252
H263	H	1.124985	-0.423964	-0.653026
H264	H	1.624985	0.076036	-0.153026
H265	H	0.934594	-0.230850	-0.975472
H266	H	1.434594	0.269150	-0.475472
C267	C	0.990068	-0.694453	-0.242050
C268	C	1.490068	-0.194453	0.257950
C269	C	0.989928	-0.772000	-0.241379
C270	C	1.489928	-0.272000	0.258621
H271	H	0.976070	-0.675137	-0.196211
H272	H	1.476070	-0.175137	0.303789
H273	H	1.036082	-0.675734	-0.256226
H274	H	1.536082	-0.175734	0.243774
H275	H	0.958136	-0.679897	-0.274162
H276	H	1.458136	-0.179897	0.225838
H277	H	1.021864	-0.786556	-0.209270
H278	H	1.521864	-0.286556	0.290730
H279	H	0.943907	-0.790727	-0.227194
H280	H	1.443907	-0.290727	0.272806
C281	C	1.108449	-0.848327	-0.215876
C282	C	1.608449	-0.348327	0.284124
C283	C	1.129313	-0.875343	-0.283894
C284	C	1.629313	-0.375343	0.216106
H285	H	1.140334	-0.863569	-0.184017
H286	H	1.640334	-0.363569	0.315983
H287	H	1.108424	-0.795687	-0.215315
H288	H	1.608424	-0.295687	0.284685
H289	H	1.062444	-0.867413	-0.202166
H290	H	1.562444	-0.367413	0.297834
H291	H	1.175318	-0.856253	-0.297606
H292	H	1.675318	-0.356253	0.202394
H293	H	1.129346	-0.927993	-0.284458
H294	H	1.629346	-0.427993	0.215542
C295	C	0.575347	-0.493792	-0.307246
C296	C	1.075347	0.006208	0.192754
C297	C	0.616083	-0.442706	-0.269260
C298	C	1.116083	0.057294	0.230740
H299	H	0.549119	-0.525757	-0.275595
H300	H	1.049119	-0.025757	0.224405
H301	H	0.543988	-0.467960	-0.332832
H302	H	1.043988	0.032040	0.167168
H303	H	0.605311	-0.522315	-0.339066
H304	H	1.105311	-0.022315	0.160934
H305	H	0.586118	-0.414180	-0.237444
H306	H	1.086118	0.085820	0.262556
H307	H	0.647445	-0.468541	-0.243663
H308	H	1.147445	0.031459	0.256337
H309	H	1.068913	-0.879693	-0.500702
H310	H	1.568913	-0.379693	-0.000702
C311	C	0.403158	-0.179658	-0.529828
C312	C	0.903158	0.320342	-0.029828
C313	C	0.449397	-0.217734	-0.492115
C314	C	0.949397	0.282266	0.007885
H315	H	0.429392	-0.147689	-0.561471
H316	H	0.929392	0.352311	-0.061471
H317	H	0.375526	-0.214315	-0.555592
H318	H	0.875526	0.285685	-0.055592
H319	H	0.373203	-0.151138	-0.497996
H320	H	0.873203	0.348862	0.002004
H321	H	0.479348	-0.246259	-0.523946
H322	H	0.979348	0.253741	-0.023946
H323	H	0.477040	-0.183073	-0.466349
H324	H	0.977040	0.316927	0.033651
H325	H	1.152339	-0.779779	-0.417388
H326	H	1.652339	-0.279779	0.082612
