data_functionalizedCrystal
_audit_creation_method	'MofGen! by Chris Wilmer'
_symmetry_space_group_name_H-M	'P1'
_symmetry_Int_Tables_number	1
_symmetry_cell_setting	triclinic
loop_
_symmetry_equiv_pos_as_xyz
  x,y,z
_cell_length_a	14.044220
_cell_length_b	8.965430
_cell_length_c	14.044220
_cell_angle_alpha	89.999476
_cell_angle_beta	86.811122
_cell_angle_gamma	89.999271
loop_
_atom_site_label
_atom_site_type_symbol
_atom_site_fract_x
_atom_site_fract_y
_atom_site_fract_z
O1	O	1.277167	0.123887	-0.230160
O2	O	1.777167	0.623887	0.269840
O3	O	1.000496	0.123924	-0.221855
O4	O	1.500496	0.623924	0.278145
O5	O	1.134679	0.123891	-0.087672
O6	O	1.634679	0.623891	0.412328
O7	O	1.142984	0.123920	-0.364343
O8	O	1.642984	0.623920	0.135657
O9	O	1.134667	-0.124188	-0.087680
O10	O	1.634667	0.375812	0.412320
O11	O	1.000484	-0.124155	-0.221863
O12	O	1.500484	0.375845	0.278137
O13	O	1.277156	-0.124192	-0.230169
O14	O	1.777156	0.375808	0.269831
Cu15	Cu	1.138819	-0.146825	-0.226017
Cu16	Cu	1.638819	0.353175	0.273983
Cu17	Cu	1.138833	0.146557	-0.226007
Cu18	Cu	1.638833	0.646557	0.273993
O19	O	1.142973	-0.124159	-0.364352
O20	O	1.642973	0.375841	0.135648
C21	C	0.964868	-0.000111	-0.218223
C22	C	1.464868	0.499889	0.281777
C23	C	0.858725	-0.000097	-0.207379
C24	C	1.358725	0.499903	0.292621
N25	N	1.138816	-0.353174	-0.226024
N26	N	1.638816	0.146826	0.273976
C27	C	0.664388	-0.000128	-0.187553
C28	C	1.164388	0.499872	0.312447
C29	C	0.613258	-0.000127	-0.264467
C30	C	1.113258	0.499873	0.235533
C31	C	0.505122	-0.000144	-0.253435
C32	C	1.005122	0.499856	0.246565
C33	C	0.772534	-0.000111	-0.198583
C34	C	1.272534	0.499889	0.301417
C35	C	1.076738	-0.450465	-0.288055
C36	C	1.576738	0.049535	0.211945
C37	C	1.164577	-0.549888	-0.313875
C38	C	1.664577	-0.049888	0.186125
C39	C	1.051015	-0.549878	-0.200216
C40	C	1.551015	-0.049878	0.299784
C41	C	1.226701	-0.450409	-0.251891
C42	C	1.726701	0.049591	0.248109
C43	C	1.113080	-0.450390	-0.138189
C44	C	1.613080	0.049610	0.361811
C45	C	1.200977	-0.549768	-0.163977
C46	C	1.700977	-0.049768	0.336023
C47	C	1.312783	-0.000154	-0.233800
C48	C	1.812783	0.499846	0.266200
C49	C	1.418926	-0.000158	-0.244645
C50	C	1.918926	0.499842	0.255355
C51	C	1.131037	-0.000148	-0.052054
C52	C	1.631037	0.499852	0.447946
C53	C	1.120193	-0.000149	0.054088
C54	C	1.620193	0.499851	0.554088
N55	N	1.138842	0.352906	-0.225993
N56	N	1.638842	0.852906	0.274007
C57	C	1.146614	-0.000116	-0.399969
C58	C	1.646614	0.499884	0.100031
C59	C	1.157459	-0.000106	-0.506112
C60	C	1.657459	0.499894	-0.006112
C61	C	1.100366	-0.000125	0.248426
C62	C	1.600366	0.499875	0.748426
C63	C	1.177281	-0.000130	0.299556
C64	C	1.677281	0.499870	0.799556
C65	C	1.166249	-0.000117	0.407692
C66	C	1.666249	0.499883	0.907692
C67	C	1.111397	-0.000138	0.140280
C68	C	1.611397	0.499862	0.640280
H69	H	0.650697	-0.000112	-0.338600
H70	H	1.150697	0.499888	0.161400
Cl71	Cl	1.282139	-0.616677	-0.082969
Cl72	Cl	1.782139	-0.116677	0.417031
H73	H	1.251414	-0.000040	0.262117
H74	H	1.751414	0.499960	0.762117
H75	H	1.026239	-0.000111	0.285863
H76	H	1.526239	0.499889	0.785863
H77	H	0.976752	-0.593575	-0.178401
H78	H	1.476752	-0.093575	0.321599
H79	H	0.626951	-0.000144	-0.113425
H80	H	1.126951	0.499856	0.386575
H81	H	1.186362	-0.593592	-0.388143
H82	H	1.686362	-0.093592	0.111857
Cl83	Cl	0.995776	-0.383135	-0.369129
Cl84	Cl	1.495776	0.116865	0.130871
H85	H	1.300988	-0.406899	-0.273794
H86	H	1.800988	0.093101	0.226206
Cl87	Cl	1.079406	-0.382854	-0.023557
Cl88	Cl	1.579406	0.117146	0.476443
