data_functionalizedCrystal
_audit_creation_method	'MofGen! by Chris Wilmer'
_symmetry_space_group_name_H-M	'P1'
_symmetry_Int_Tables_number	1
_symmetry_cell_setting	triclinic
loop_
_symmetry_equiv_pos_as_xyz
  x,y,z
_cell_length_a	12.594517
_cell_length_b	19.120786
_cell_length_c	12.594510
_cell_angle_alpha	87.519650
_cell_angle_beta	89.978880
_cell_angle_gamma	92.464907
loop_
_atom_site_label
_atom_site_type_symbol
_atom_site_fract_x
_atom_site_fract_y
_atom_site_fract_z
Zn1	Zn	1.609121	-0.279572	-0.583739
Zn2	Zn	1.601388	-0.397056	-0.398145
Zn3	Zn	1.431123	-0.279615	-0.405765
Zn4	Zn	1.423487	-0.396995	-0.576079
O5	O	1.516280	-0.338310	-0.490932
O6	O	1.757041	-0.295165	-0.559136
O7	O	1.578762	-0.381521	-0.250207
O8	O	1.461167	-0.181318	-0.435768
O9	O	1.751359	-0.381479	-0.422781
O10	O	1.591941	-0.181287	-0.566525
O11	O	1.453668	-0.295237	-0.255806
O12	O	1.281165	-0.295178	-0.428341
O13	O	1.448152	-0.381375	-0.726044
O14	O	1.275554	-0.381416	-0.553470
O15	O	1.584537	-0.295105	-0.731672
O16	O	1.571357	-0.495339	-0.415354
O17	O	1.440654	-0.495294	-0.546082
C18	C	1.239740	-0.338296	-0.490902
C19	C	1.121434	-0.338306	-0.490913
C20	C	1.055205	-0.291337	-0.422995
C21	C	0.980236	-0.355409	-0.392662
C22	C	0.985602	-0.274266	-0.521262
C23	C	1.048021	-0.402412	-0.460527
C24	C	1.053395	-0.321225	-0.589175
C25	C	0.978455	-0.385342	-0.558876
C26	C	1.504367	-0.520802	-0.479083
C27	C	1.499368	-0.598873	-0.474050
C28	C	1.565055	-0.635475	-0.539818
C29	C	1.560354	-0.708831	-0.535091
C30	C	1.489969	-0.745584	-0.464588
C31	C	1.424274	-0.708978	-0.398817
C32	C	1.428971	-0.635623	-0.403551
C33	C	1.472379	-0.967072	-0.446892
C34	C	1.467689	-1.040432	-0.442161
C35	C	1.603768	-1.040280	-0.578437
C36	C	1.608464	-0.966924	-0.583159
C37	C	1.542765	-0.930324	-0.517392
C38	C	1.485164	-0.820566	-0.459752
C39	C	1.547565	-0.855343	-0.522235
C40	C	1.793900	-0.338324	-0.490963
C41	C	1.912205	-0.338330	-0.490977
C42	C	1.516355	-0.338228	-0.768558
C43	C	1.516387	-0.338194	-0.886866
C44	C	1.528268	-0.155104	-0.502851
C45	C	1.533377	-0.077033	-0.507930
C46	C	1.590589	-0.291268	-0.959180
C47	C	1.494628	-0.274076	-1.031086
C48	C	1.612408	-0.355338	-1.025763
C49	C	1.420378	-0.320968	-0.957215
C50	C	1.538221	-0.402260	-0.951885
C51	C	1.442192	-0.385091	-1.023757
C52	C	1.516269	-0.338340	-0.214389
C53	C	1.516456	-0.338176	-0.096095
H54	H	1.622375	-0.605555	-0.597224
C55	C	1.676021	-1.080541	-0.650783
H56	H	1.663140	-1.129492	-0.637876
H57	H	1.748317	-1.068487	-0.636056
H58	H	1.661163	-1.068489	-0.723063
H59	H	1.556695	-0.456431	-0.917213
H60	H	1.366961	-0.738908	-0.341417
H61	H	0.957990	-0.220105	-0.546867
C62	C	0.936851	-0.374943	-0.280451
H63	H	0.892662	-0.416399	-0.282502
H64	H	0.896685	-0.337795	-0.256308
H65	H	0.994447	-0.382694	-0.233317
H66	H	0.945048	-0.425118	-0.616336
C67	C	1.096802	-0.301663	-0.701362
H68	H	1.075583	-0.256114	-0.722802
H69	H	1.069426	-0.334570	-0.749843
H70	H	1.172187	-0.302217	-0.700646
C71	C	1.632614	-0.749089	-0.607433
H72	H	1.675214	-0.716694	-0.650090
H73	H	1.590044	-0.777703	-0.651929
H74	H	1.677182	-0.777700	-0.564906
H75	H	1.075446	-0.456596	-0.434793
C76	C	1.685904	-0.926500	-0.660695
H77	H	1.724354	-0.958805	-0.699188
H78	H	1.734126	-0.897886	-0.621849
H79	H	1.647007	-0.897877	-0.708891
C80	C	1.357376	-0.438680	-1.061967
H81	H	1.390610	-0.473016	-1.101247
H82	H	1.307593	-0.415335	-1.105966
H83	H	1.321608	-0.460756	-1.002260
C84	C	1.390254	-1.080860	-0.364614
H85	H	1.351790	-1.048557	-0.326130
H86	H	1.429159	-1.109477	-0.316426
H87	H	1.342027	-1.109480	-0.403455
H88	H	1.418886	-0.937278	-0.393340
C89	C	1.356716	-0.595362	-0.331204
H90	H	1.314130	-0.627755	-0.288531
H91	H	1.312150	-0.566751	-0.373725
H92	H	1.399294	-0.566747	-0.286708
C93	C	1.722064	-0.374943	-1.066484
H94	H	1.774672	-0.341561	-1.044441
H95	H	1.721124	-0.375217	-1.141883
H96	H	1.738056	-0.420140	-1.038227
H97	H	1.088801	-0.251656	-0.365482
C98	C	1.310691	-0.301282	-0.916683
H99	H	1.264930	-0.293083	-0.975449
H100	H	1.318280	-0.260065	-0.877397
H101	H	1.281185	-0.338563	-0.872208
C102	C	1.407747	-0.860994	-0.382198
H103	H	1.369291	-0.828692	-0.343705
H104	H	1.446657	-0.889615	-0.334020
H105	H	1.359512	-0.889611	-0.421036
C106	C	1.675220	-0.237636	-0.920732
H107	H	1.725688	-0.261085	-0.877695
H108	H	1.641990	-0.203835	-0.880404
H109	H	1.710205	-0.214909	-0.980386
C110	C	1.469711	-0.200879	-1.077905
H111	H	1.522473	-0.167596	-1.055878
H112	H	1.402034	-0.188370	-1.053443
H113	H	1.469281	-0.201510	-1.153286
H114	H	1.604868	-0.825416	-0.579642
