data_functionalizedCrystal
_audit_creation_method	'MofGen! by Chris Wilmer'
_symmetry_space_group_name_H-M	'P1'
_symmetry_Int_Tables_number	1
_symmetry_cell_setting	triclinic
loop_
_symmetry_equiv_pos_as_xyz
  x,y,z
_cell_length_a	19.902436
_cell_length_b	14.809374
_cell_length_c	14.809374
_cell_angle_alpha	57.530506
_cell_angle_beta	98.955357
_cell_angle_gamma	67.425444
loop_
_atom_site_label
_atom_site_type_symbol
_atom_site_fract_x
_atom_site_fract_y
_atom_site_fract_z
Zr1	Zr	0.702445	1.000493	-0.231312
O2	O	0.591407	1.191211	-0.398531
O3	O	0.727362	0.809785	-0.165321
O4	O	0.718434	1.000491	-0.377270
O5	O	0.617754	1.000503	-0.036148
O6	O	0.829012	1.000478	-0.377254
O7	O	0.600335	1.000505	-0.186582
O8	O	0.844982	0.659340	0.001884
O9	O	0.601784	1.341642	-0.415287
O10	O	0.831533	0.888213	-0.154960
O11	O	0.762010	0.888221	-0.042705
O12	O	0.751498	1.112753	-0.292248
O13	O	0.681975	1.112761	-0.179993
Zr14	Zr	0.906586	1.000469	0.008639
Zr15	Zr	0.878804	1.000473	-0.231286
Zr16	Zr	0.730227	1.000490	0.008613
Zr17	Zr	0.718995	1.240412	-0.258035
Zr18	Zr	0.890036	0.760550	0.035361
O19	O	0.881669	1.191177	-0.057352
O20	O	0.842167	1.191182	-0.398495
O21	O	0.630909	1.191207	-0.057389
O22	O	1.017624	0.809751	0.175858
O23	O	0.978122	0.809756	-0.165284
O24	O	0.766864	0.809781	0.175821
O25	O	0.991277	1.000459	-0.186525
O26	O	0.890597	1.000471	0.154597
O27	O	0.780019	1.000484	0.154580
O28	O	1.008696	1.000457	-0.036091
O29	O	0.741966	1.341625	-0.415266
O30	O	0.867065	0.659337	0.192592
O31	O	1.007247	0.659321	0.192613
O32	O	0.985164	0.659324	0.001905
O33	O	0.623867	1.341639	-0.224578
O34	O	0.764049	1.341623	-0.224558
O35	O	0.857533	0.888210	0.069574
O36	O	0.927056	0.888202	-0.042681
O37	O	0.847021	1.112742	-0.179968
O38	O	0.777498	1.112750	-0.067713
C39	C	0.783814	0.700379	-0.077911
C40	C	0.776788	0.598527	-0.066567
C41	C	0.808144	0.553115	-0.117195
C42	C	0.800883	0.447845	-0.105471
C43	C	0.583917	1.000507	-0.111369
C44	C	0.509048	1.000516	-0.111380
C45	C	0.371988	1.000492	-0.111350
C46	C	0.292988	1.142126	-0.197948
C47	C	0.215139	1.142182	-0.197630
C48	C	0.237043	1.000470	-0.111323
C49	C	0.300574	0.929724	0.018580
C50	C	0.378143	0.930661	0.018073
C51	C	0.358937	0.928577	-0.153554
C52	C	0.279967	0.931214	-0.156298
C53	C	0.160780	1.000451	-0.111300
C54	C	0.448253	1.000508	-0.111365
C55	C	1.025114	1.000455	-0.111305
C56	C	1.099983	1.000447	-0.111294
C57	C	0.769765	1.000485	-0.411446
C58	C	0.757971	1.000487	-0.513301
C59	C	0.825217	1.300583	-0.144762
C60	C	0.832243	1.402435	-0.156107
C61	C	0.810606	1.000481	-0.558702
C62	C	0.798418	1.000482	-0.663974
C63	C	0.839266	1.000477	0.188773
C64	C	0.851060	1.000476	0.290627
C65	C	1.004412	0.700353	-0.077879
C66	C	1.072255	0.598493	-0.066524
C67	C	0.818565	0.700375	0.222198
C68	C	0.823333	0.598522	0.335397
C69	C	1.039163	0.700349	0.222231
C70	C	1.118800	0.598487	0.335440
C71	C	0.569868	1.300613	-0.444904
C72	C	0.490231	1.402475	-0.558114
C73	C	0.604619	1.300609	-0.144795
C74	C	0.536776	1.402470	-0.156150
C75	C	0.790466	1.300587	-0.444872
C76	C	0.785698	1.402441	-0.558071
C77	C	1.054252	0.550664	-0.119810
C78	C	1.117989	0.454968	-0.109164
C79	C	1.199729	0.407097	-0.045224
C80	C	1.217732	0.454935	0.008062
C81	C	1.153995	0.550636	-0.002591
C82	C	1.192496	0.550648	0.330009
C83	C	1.267330	0.454951	0.436371
C84	C	1.268466	0.407089	0.548164
C85	C	1.194762	0.454938	0.553592
C86	C	1.119930	0.550640	0.447231
C87	C	0.416536	1.450327	-0.552684
C88	C	0.341704	1.546053	-0.659049
C89	C	0.340568	1.593920	-0.770842
C90	C	0.414272	1.546065	-0.776270
C91	C	0.489103	1.450346	-0.669907
C92	C	0.554779	1.450309	-0.102875
C93	C	0.491040	1.546031	-0.113550
C94	C	0.409300	1.593906	-0.177493
C95	C	0.391297	1.546063	-0.230775
C96	C	0.455035	1.450349	-0.220107
C97	C	0.770362	0.633575	0.379318
C98	C	0.774826	0.537887	0.485669
C99	C	0.832264	0.407146	0.548103
C100	C	0.885237	0.372094	0.504174
C101	C	0.880769	0.467781	0.397820
C102	C	0.728255	1.533165	-0.620472
C103	C	0.723774	1.628880	-0.726827
C104	C	0.776733	1.593868	-0.770782
C105	C	0.834182	1.463131	-0.708371
C106	C	0.838667	1.367418	-0.602014
H107	H	0.840368	0.592162	-0.169215
H108	H	0.284592	1.198028	-0.294256
H109	H	0.768662	0.408792	-0.053440
H110	H	1.059927	0.589578	0.451670
H111	H	0.417444	1.411358	-0.461665
H112	H	0.864470	0.441480	-0.208130
N113	N	0.690127	1.000466	-0.562281
N114	N	0.702710	0.909824	-0.560284
H115	H	0.654794	0.909806	-0.594873
N116	N	0.736382	0.549513	-0.001286
N117	N	0.730548	0.464060	0.008155
H118	H	0.702013	0.429439	0.054266
H119	H	0.885442	1.260977	-0.551217
N120	N	1.195917	0.406053	0.667782
N121	N	1.167689	0.480804	0.688031
H122	H	1.168506	0.446271	0.768681
H123	H	1.251621	0.329170	-0.036558
N124	N	0.970755	0.599581	-0.185139
N125	N	0.913845	0.685033	-0.194662
H126	H	0.854875	0.719584	-0.240810
H127	H	0.281699	1.585001	-0.654606
N128	N	0.264120	1.691697	-0.879473
N129	N	0.198329	1.734401	-0.874594
H130	H	0.144334	1.803455	-0.951311
H131	H	0.413337	1.585050	-0.867305
N132	N	0.665071	1.762410	-0.790561
N133	N	0.590054	1.807193	-0.830181
H134	H	0.548593	1.901496	-0.875191
N135	N	0.564371	1.401485	-0.675485
N136	N	0.563336	1.444242	-0.775314
H137	H	0.616493	1.409740	-0.779263
N138	N	0.638274	1.401420	-0.037577
N139	N	0.695185	1.315968	-0.028055
H140	H	0.754153	1.281449	0.018058
H141	H	0.354695	0.974231	-0.247165
N142	N	1.172379	0.599479	0.051860
N143	N	1.115473	0.684917	0.042360
H144	H	1.128461	0.719409	0.080820
H145	H	0.505714	1.584968	-0.070155
H146	H	0.357408	1.671842	-0.186171
H147	H	0.324736	1.585057	-0.282838
N148	N	1.099575	0.406129	-0.163606
N149	N	1.026587	0.448878	-0.220677
H150	H	1.013579	0.414389	-0.259128
N151	N	1.191363	0.599504	0.215835
N152	N	1.257179	0.556766	0.211025
H153	H	1.256386	0.591268	0.130392
H154	H	0.923909	0.439222	0.362073
N155	N	0.436624	1.401500	-0.274536
N156	N	0.363636	1.444264	-0.331619
H157	H	0.350626	1.409771	-0.370065
H158	H	1.284293	0.415944	0.060121
H159	H	0.169049	1.197665	-0.293653
H160	H	0.773071	1.671817	-0.857389
N161	N	0.711684	0.767111	0.315574
N162	N	0.664396	0.798368	0.354817
H163	H	0.622948	0.892677	0.309801
N164	N	0.263811	0.990629	0.062548
N165	N	0.293774	1.038148	0.089627
H166	H	0.267810	1.081170	0.120672
H167	H	0.877299	1.434641	-0.744176
N168	N	1.342606	0.406058	0.430811
N169	N	1.388035	0.288565	0.484225
H170	H	1.441197	0.254033	0.480296
H171	H	0.184048	1.197413	-0.168923
H172	H	0.300128	1.197157	-0.169552
H173	H	0.386177	0.980223	0.052834
H174	H	0.434492	0.826736	0.085425
H175	H	0.731688	0.566452	0.521422
N176	N	0.918897	1.000540	-0.660438
N177	N	0.968372	1.000580	-0.703099
H178	H	1.016273	1.000649	-0.668555
N179	N	0.836839	0.309395	0.656749
N180	N	0.888125	0.192664	0.712493
H181	H	0.891354	0.123630	0.789225
H182	H	0.932003	0.265633	0.555024
N183	N	0.674178	1.568971	-0.575569
N184	N	0.622921	1.685703	-0.631284
H185	H	0.584740	1.711002	-0.599561
H186	H	1.329405	0.329162	0.634761
H187	H	0.744329	1.000481	-0.703031
H188	H	0.235670	0.982804	-0.251945
N189	N	0.324379	0.799003	0.102257
N190	N	0.311568	0.761281	0.192042
H191	H	0.328377	0.668959	0.251136
N192	N	0.300985	0.801551	-0.083918
N193	N	0.246034	0.780727	-0.076743
H194	H	0.260879	0.689148	-0.025615
N195	N	0.428614	0.797698	-0.074584
N196	N	0.498219	0.774229	-0.063116
H197	H	0.547431	0.681799	-0.007339
N198	N	0.878461	1.000458	-0.509681
N199	N	0.888268	1.000450	-0.424230
H200	H	0.936193	1.000432	-0.389608
