data_functionalizedCrystal
_audit_creation_method	'MofGen! by Chris Wilmer'
_symmetry_space_group_name_H-M	'P1'
_symmetry_Int_Tables_number	1
_symmetry_cell_setting	triclinic
loop_
_symmetry_equiv_pos_as_xyz
  x,y,z
_cell_length_a	10.489716
_cell_length_b	10.489741
_cell_length_c	16.776229
_cell_angle_alpha	89.993659
_cell_angle_beta	89.993252
_cell_angle_gamma	84.534155
loop_
_atom_site_label
_atom_site_type_symbol
_atom_site_fract_x
_atom_site_fract_y
_atom_site_fract_z
O1	O	1.694076	0.179822	-0.066281
O2	O	1.322877	0.196747	-0.066284
O3	O	1.516923	0.002686	-0.066278
O4	O	1.500030	0.373883	-0.066288
O5	O	1.516897	0.002674	0.066298
O6	O	1.322851	0.196735	0.066292
O7	O	1.694050	0.179810	0.066295
Zn8	Zn	1.508446	0.188270	0.087343
Zn9	Zn	1.508481	0.188287	-0.087332
O10	O	1.500004	0.373871	0.066289
C11	C	1.275332	0.195470	0.000004
C12	C	1.133701	0.191665	0.000003
C13	C	1.036027	0.310669	-0.000002
C14	C	0.958668	0.247779	0.065370
C15	C	0.958700	0.247763	-0.065340
C16	C	1.058207	0.128824	0.065429
C17	C	1.058245	0.128826	-0.065340
C18	C	0.980935	0.065848	0.000048
C19	C	1.515634	-0.044852	0.000010
C20	C	1.511817	-0.186481	0.000008
C21	C	1.388351	-0.254610	0.000002
C22	C	1.446662	-0.346744	0.065369
C23	C	1.446717	-0.346706	-0.065341
C24	C	1.570179	-0.276749	0.065430
C25	C	1.570217	-0.276702	-0.065339
C26	C	1.628618	-0.368808	0.000045
C27	C	1.741596	0.181087	0.000006
C28	C	1.883227	0.184892	0.000001
C29	C	1.501293	0.421409	-0.000001
C30	C	1.505110	0.563038	-0.000004
N31	N	1.508432	0.188259	0.206554
N32	N	1.508505	0.188288	-0.206543
C33	C	1.594383	0.102364	0.248274
C34	C	1.594390	0.102363	0.331726
C35	C	1.508451	0.188264	0.373457
C36	C	1.422492	0.274162	0.331731
C37	C	1.422480	0.274156	0.248281
C38	C	1.422538	0.274188	0.668279
C39	C	1.422560	0.274190	0.751735
C40	C	1.594448	0.102395	0.751724
C41	C	1.594436	0.102389	0.668274
C42	C	1.508472	0.188282	0.626555
C43	C	1.508464	0.188280	0.536067
C44	C	1.508465	0.188273	0.463944
H45	H	0.915227	0.298029	-0.120599
C46	C	1.687909	0.009062	0.796876
C47	C	1.763188	-0.066141	0.742467
C48	C	1.849306	-0.152118	0.784029
H49	H	1.641689	-0.044604	0.829441
H50	H	1.741502	0.055428	0.829405
H51	H	1.709602	-0.112503	0.709952
H52	H	1.809436	-0.012510	0.709900
H53	H	1.902899	-0.105753	0.816557
H54	H	1.803076	-0.205775	0.816592
H55	H	1.900401	-0.203146	0.747119
C56	C	1.377273	-0.387954	-0.139127
C57	C	1.440981	-0.350777	-0.207412
C58	C	1.377048	-0.388761	-0.275393
H59	H	1.291918	-0.348506	-0.139158
H60	H	1.376065	-0.478400	-0.138897
H61	H	1.442175	-0.260348	-0.207642
H62	H	1.526331	-0.390220	-0.207407
H63	H	1.375840	-0.479208	-0.275163
H64	H	1.291695	-0.349311	-0.275416
H65	H	1.420271	-0.363553	-0.321732
H66	H	1.286838	-0.204950	0.000067
C67	C	1.687746	0.008955	0.203114
C68	C	1.762994	-0.066291	0.257517
C69	C	1.849001	-0.152370	0.215948
H70	H	1.741380	0.055204	0.170545
H71	H	1.641402	-0.044663	0.170589
H72	H	1.809334	-0.012680	0.290028
H73	H	1.709395	-0.112567	0.290088
H74	H	1.802657	-0.205988	0.183423
H75	H	1.902626	-0.106110	0.183380
H76	H	1.900059	-0.203442	0.252853
H77	H	1.664376	0.032421	0.365694
H78	H	1.352488	0.344099	0.214313
H79	H	1.622425	-0.245657	-0.120605
H80	H	1.394410	-0.377756	0.120632
H81	H	1.664419	0.032445	0.634299
H82	H	1.352513	0.344100	0.365714
H83	H	0.915174	0.298011	0.120634
H84	H	1.060696	0.414185	0.000056
H85	H	1.352574	0.344143	0.785711
H86	H	1.622364	-0.245927	0.120755
H87	H	1.101513	0.078611	0.120751
H88	H	0.956505	-0.037744	0.000089
H89	H	1.352546	0.344128	0.634318
H90	H	1.101752	0.078632	-0.120606
C91	C	1.764117	-0.434669	0.000255
C92	C	1.828133	-0.399192	0.068818
C93	C	1.952948	-0.459853	0.069048
H94	H	1.808471	-0.409676	-0.045685
H95	H	1.761002	-0.524887	-0.000143
H96	H	1.831255	-0.308993	0.069209
H97	H	1.783819	-0.424186	0.114770
H98	H	1.949833	-0.550071	0.068650
H99	H	1.997289	-0.434855	0.023105
H100	H	1.996395	-0.435800	0.115571
