data_functionalizedCrystal
_audit_creation_method	'MofGen! by Chris Wilmer'
_symmetry_space_group_name_H-M	'P1'
_symmetry_Int_Tables_number	1
_symmetry_cell_setting	triclinic
loop_
_symmetry_equiv_pos_as_xyz
  x,y,z
_cell_length_a	19.077212
_cell_length_b	17.637651
_cell_length_c	19.077174
_cell_angle_alpha	98.528768
_cell_angle_beta	94.707984
_cell_angle_gamma	102.995032
loop_
_atom_site_label
_atom_site_type_symbol
_atom_site_fract_x
_atom_site_fract_y
_atom_site_fract_z
Zn1	Zn	1.040251	-0.285469	0.388422
Zn2	Zn	1.011618	-0.412578	0.246670
Zn3	Zn	0.917630	-0.285479	0.265798
Zn4	Zn	0.896606	-0.422731	0.357863
O5	O	0.966527	-0.351564	0.314688
O6	O	1.135904	-0.298077	0.374402
O7	O	0.995966	-0.391474	0.151354
O8	O	0.954678	-0.174842	0.302859
O9	O	1.114867	-0.391464	0.270257
O10	O	1.044767	-0.174834	0.392950
O11	O	0.926914	-0.298095	0.165407
O12	O	0.815391	-0.307939	0.273227
O13	O	0.918845	-0.408767	0.459771
O14	O	0.799945	-0.408777	0.340867
O15	O	1.024381	-0.307922	0.482222
O16	O	0.975580	-0.524561	0.240625
O17	O	0.891081	-0.532020	0.322319
C18	C	0.781881	-0.359461	0.305807
C19	C	0.702886	-0.362860	0.302021
C20	C	0.927962	-0.556977	0.276097
C21	C	0.911530	-0.644852	0.259614
C22	C	0.257054	-0.387200	0.274904
C23	C	0.331279	-0.384002	0.278457
C24	C	0.379332	-0.333868	0.334513
C25	C	0.353159	-0.286922	0.387016
C26	C	0.278936	-0.290116	0.383460
C27	C	0.602490	-0.319107	0.350968
C28	C	0.676717	-0.315919	0.354521
C29	C	0.654832	-0.412999	0.245960
C30	C	0.580608	-0.416191	0.242411
C31	C	0.554441	-0.369242	0.294912
N32	N	0.455202	-0.330600	0.338148
N33	N	0.478574	-0.372506	0.291274
C34	C	1.091830	-0.933565	0.440152
C35	C	1.076367	-1.016137	0.424650
C36	C	0.982614	-1.016246	0.330755
C37	C	0.998073	-0.933672	0.346246
C38	C	1.052681	-0.892338	0.400946
C39	C	0.958923	-0.892445	0.307040
C40	C	0.974378	-0.809878	0.322533
C41	C	1.028982	-0.768539	0.377232
C42	C	1.068135	-0.809771	0.416439
C43	C	0.904312	-0.933780	0.252344
C44	C	0.865162	-0.892553	0.213138
C45	C	0.880620	-0.809985	0.228628
C46	C	0.935224	-0.768645	0.283326
C47	C	0.841467	-0.768752	0.189421
C48	C	0.856922	-0.686186	0.204914
C49	C	0.950679	-0.686079	0.298819
C50	C	1.151893	-0.343637	0.323604
C51	C	1.230885	-0.340259	0.327404
C52	C	0.972462	-0.359476	0.497078
C53	C	0.974991	-0.362847	0.574802
C54	C	1.005262	-0.145349	0.353447
C55	C	1.021768	-0.057473	0.369964
C56	C	0.960666	-0.343625	0.133021
C57	C	0.958316	-0.340025	0.055346
C58	C	0.940229	-0.315814	0.618633
C59	C	0.942602	-0.318989	0.691661
C60	C	0.979741	-0.369192	0.720858
C61	C	1.014504	-0.416230	0.677020
C62	C	1.012126	-0.413060	0.603993
C63	C	0.990702	-0.383892	0.938481
C64	C	0.993078	-0.387058	1.011515
C65	C	0.921175	-0.289817	1.026150
C66	C	0.918805	-0.286647	0.953121
C67	C	0.953564	-0.333688	0.909290
N68	N	0.982169	-0.372436	0.795504
N69	N	0.951131	-0.330448	0.834644
H70	H	0.352581	-0.422225	0.235705
H71	H	0.541486	-0.457015	0.196763
H72	H	0.938151	-1.049911	0.286219
H73	H	1.023324	-0.427941	1.035284
C74	C	1.050361	-0.464798	0.555772
C75	C	1.110953	-0.425982	0.514681
C76	C	1.149183	-0.477726	0.466459
C77	C	1.126820	-0.568288	0.459327
C78	C	1.066226	-0.607109	0.500419
C79	C	1.027996	-0.555364	0.548642
H80	H	1.127509	-0.358938	0.519959
H81	H	1.194039	-0.448988	0.436040
H82	H	1.155120	-0.606592	0.423630
H83	H	1.049669	-0.674152	0.495141
H84	H	0.983139	-0.584103	0.579061
C85	C	0.683617	-0.464634	0.188208
C86	C	0.765258	-0.461125	0.192113
C87	C	0.794043	-0.512760	0.134357
C88	C	0.741186	-0.567905	0.072695
C89	C	0.659539	-0.571417	0.068788
C90	C	0.630755	-0.519781	0.126545
H91	H	0.804391	-0.420301	0.237761
H92	H	0.854483	-0.510160	0.137249
H93	H	0.762494	-0.606129	0.029940
H94	H	0.620407	-0.612241	0.023140
H95	H	0.570314	-0.522381	0.123652
C96	C	1.151905	-0.888092	0.500319
C97	C	1.133477	-0.835032	0.564362
C98	C	1.193549	-0.789560	0.624526
C99	C	1.272047	-0.797148	0.620649
C100	C	1.290478	-0.850211	0.556604
C101	C	1.230407	-0.895682	0.496439
H102	H	1.075365	-0.829413	0.567234
H103	H	1.179904	-0.750280	0.671937
H104	H	1.316516	-0.763488	0.665186
H105	H	1.348591	-0.855830	0.553731
H106	H	1.244051	-0.934963	0.449029
H107	H	0.820699	-0.926219	0.168603
C108	C	0.904369	-0.267243	0.739874
C109	C	0.822041	-0.276699	0.724732
C110	C	0.783807	-0.224950	0.772944
C111	C	0.827900	-0.163744	0.836297
C112	C	0.910232	-0.154285	0.851441
C113	C	0.948466	-0.206034	0.803230
H114	H	0.789397	-0.322010	0.677832
H115	H	0.722859	-0.231952	0.761732
H116	H	0.799596	-0.125435	0.871986
H117	H	0.942876	-0.108974	0.898342
H118	H	1.009414	-0.199032	0.814441
H119	H	0.715843	-0.275088	0.400169
C120	C	1.128211	-0.764292	0.476603
C121	C	1.206711	-0.771875	0.472722
C122	C	1.266784	-0.726393	0.532881
C123	C	1.248358	-0.673328	0.596921
C124	C	1.169855	-0.665743	0.600804
C125	C	1.109781	-0.711224	0.540645
H126	H	1.220355	-0.811159	0.425314
H127	H	1.324898	-0.732009	0.530007
H128	H	1.292828	-0.639660	0.641454
H129	H	1.156211	-0.626459	0.648212
H130	H	1.051668	-0.705609	0.543520
H131	H	0.217932	-0.428028	0.229259
H132	H	1.041564	-0.701307	0.389845
C133	C	0.573721	-0.267471	0.408729
C134	C	0.585304	-0.277088	0.487459
C135	C	0.556536	-0.225450	0.545227
C136	C	0.516183	-0.164196	0.524265
C137	C	0.504598	-0.154577	0.445531
C138	C	0.533366	-0.206215	0.387763
H139	H	0.615178	-0.322434	0.502980
H140	H	0.565113	-0.232571	0.603511
H141	H	0.494887	-0.125971	0.567028
H142	H	0.474725	-0.109231	0.430010
H143	H	0.524790	-0.199094	0.329479
C144	C	0.887310	-1.024602	0.235231
C145	C	0.811074	-1.073788	0.241314
C146	C	0.794072	-1.164607	0.224167
C147	C	0.853306	-1.206241	0.200938
C148	C	0.929546	-1.157054	0.194854
C149	C	0.946548	-1.066235	0.212000
H150	H	0.767221	-1.042969	0.258510
H151	H	0.737633	-1.201018	0.228671
H152	H	0.840720	-1.273471	0.188246
H153	H	0.973399	-1.187873	0.177658
H154	H	1.002987	-1.029824	0.207496
C155	C	0.250146	-0.238482	0.441211
C156	C	0.261714	-0.248084	0.519946
C157	C	0.232924	-0.196445	0.577696
C158	C	0.192567	-0.135205	0.556711
C159	C	0.180997	-0.125601	0.477971
C160	C	0.209786	-0.177239	0.420221
H161	H	0.291590	-0.293420	0.535485
H162	H	0.241489	-0.203555	0.635985
H163	H	0.171255	-0.096979	0.599461
H164	H	0.151120	-0.080265	0.462433
H165	H	0.201221	-0.170129	0.361933
C166	C	0.781398	-0.814227	0.129256
C167	C	0.799826	-0.867292	0.065218
C168	C	0.739756	-0.912767	0.005053
C169	C	0.661258	-0.905176	0.008926
C170	C	0.642825	-0.852109	0.072967
C171	C	0.702895	-0.806635	0.133132
H172	H	0.857939	-0.872913	0.062348
H173	H	0.753401	-0.952050	-0.042354
H174	H	0.616790	-0.938839	-0.035611
H175	H	0.584713	-0.846489	0.075837
H176	H	0.689250	-0.767351	0.180539
H177	H	0.995152	-0.652423	0.343357
H178	H	1.108241	-1.049702	0.456590
C179	C	0.899375	-0.260588	0.586520
C180	C	0.861134	-0.208857	0.634736
C181	C	0.820276	-0.153632	0.602626
C182	C	0.817660	-0.150138	0.522299
C183	C	0.855902	-0.201871	0.474078
C184	C	0.896760	-0.257096	0.506189
H185	H	0.863069	-0.211442	0.694203
H186	H	0.791967	-0.115335	0.638322
H187	H	0.787415	-0.109257	0.498529
H188	H	0.853967	-0.199286	0.414611
H189	H	0.925069	-0.295393	0.470492
H190	H	1.018996	-0.422206	0.902800
H191	H	0.392291	-0.246098	0.432656
H192	H	0.825041	-0.652619	0.172989
C193	C	1.055353	-0.471456	0.709140
C194	C	1.014528	-0.537016	0.746200
C195	C	1.055378	-0.592242	0.778320
C196	C	1.137054	-0.581907	0.773380
C197	C	1.177884	-0.516344	0.736318
C198	C	1.137033	-0.461119	0.704198
H199	H	0.954062	-0.544669	0.749858
H200	H	1.025152	-0.640776	0.805756
H201	H	1.167293	-0.622788	0.797158
H202	H	1.238349	-0.508691	0.732660
H203	H	1.167259	-0.412584	0.676762
H204	H	0.888559	-0.245768	0.929355
H205	H	0.892875	-0.251520	1.061845
