data_functionalizedCrystal
_audit_creation_method	'MofGen! by Chris Wilmer'
_symmetry_space_group_name_H-M	'P1'
_symmetry_Int_Tables_number	1
_symmetry_cell_setting	triclinic
loop_
_symmetry_equiv_pos_as_xyz
  x,y,z
_cell_length_a	8.497374
_cell_length_b	17.077404
_cell_length_c	17.077404
_cell_angle_alpha	90.005736
_cell_angle_beta	90.002661
_cell_angle_gamma	89.998682
loop_
_atom_site_label
_atom_site_type_symbol
_atom_site_fract_x
_atom_site_fract_y
_atom_site_fract_z
Zn1	Zn	0.628280	1.200067	0.443931
Zn2	Zn	0.892037	1.200055	0.312702
Zn3	Zn	0.628266	1.068830	0.312679
Zn4	Zn	0.892013	1.068817	0.443925
O5	O	0.760149	1.134442	0.378309
O6	O	0.663284	1.309912	0.426535
O7	O	0.857052	1.182649	0.202852
O8	O	0.407506	1.086250	0.330082
O9	O	0.857065	1.309904	0.330121
O10	O	0.407516	1.182669	0.426512
O11	O	0.663261	1.086238	0.202835
O12	O	0.663237	0.958982	0.330077
O13	O	0.857024	1.086226	0.553773
O14	O	0.857010	0.958971	0.426503
O15	O	0.663260	1.182655	0.553777
O16	O	1.112797	1.182636	0.330116
O17	O	1.112778	1.086215	0.426525
C18	C	0.760121	0.930494	0.378287
C19	C	0.760146	0.843245	0.378297
C20	C	0.861196	0.802270	0.428425
C21	C	0.861200	0.720289	0.428438
C22	C	0.760160	0.679285	0.378317
C23	C	0.659099	0.720266	0.328186
C24	C	0.659089	0.802245	0.328178
C25	C	0.659130	0.549396	0.328205
C26	C	0.659142	0.467411	0.328212
C27	C	0.861241	0.467440	0.428465
C28	C	0.861231	0.549419	0.428457
C29	C	0.760171	0.590394	0.378325
C30	C	0.760141	1.134441	0.583053
C31	C	0.760137	1.134440	0.670303
C32	C	1.170029	1.134432	0.378320
C33	C	1.348673	1.134453	0.378308
C34	C	0.760179	1.339187	0.378331
C35	C	0.760192	1.426436	0.378341
C36	C	0.861079	1.184638	1.046129
C37	C	0.861078	1.184634	0.964148
C38	C	0.760173	1.134440	0.923152
C39	C	0.659274	1.084241	0.964140
C40	C	0.659285	1.084241	1.046119
C41	C	0.659256	1.084246	0.793270
C42	C	0.659243	1.084246	0.711286
C43	C	0.861049	1.184638	0.711299
C44	C	0.861059	1.184639	0.793278
C45	C	0.760158	1.134440	0.834261
C46	C	0.760190	1.134439	1.174361
C47	C	0.760185	1.134444	1.087111
H48	H	0.943240	1.225515	1.079502
H49	H	0.577125	1.043370	1.079486
C50	C	0.882990	1.290214	0.871959
C51	C	0.971973	1.239809	0.919094
H52	H	0.951459	1.324273	0.844140
H53	H	0.814280	1.320243	0.903942
H54	H	0.822902	1.260307	0.835817
H55	H	1.032052	1.269716	0.955239
H56	H	1.040711	1.209777	0.887108
H57	H	0.943515	0.582803	0.469265
C58	C	0.950674	1.229209	0.585641
C59	C	0.971974	1.239812	0.666254
H60	H	1.019157	1.263268	0.557832
H61	H	0.844693	1.240705	0.572209
H62	H	0.973754	1.176463	0.572212
H63	H	0.948884	1.292557	0.679685
H64	H	1.077980	1.228321	0.679692
H65	H	0.577073	1.043376	0.677909
C66	C	0.459760	0.985016	0.785027
C67	C	0.548340	1.029069	0.838320
H68	H	0.391277	0.950960	0.812841
H69	H	0.528480	0.954984	0.753051
H70	H	0.399428	1.019231	0.753053
H71	H	0.608681	0.994855	0.870290
H72	H	0.479611	1.059104	0.870309
H73	H	0.943480	0.835650	0.469237
H74	H	0.943486	0.686931	0.469257
H75	H	0.943523	0.434075	0.469287
H76	H	0.577123	1.043369	0.930755
H77	H	0.943217	1.225515	0.826655
C78	C	0.581818	0.442105	0.195362
C79	C	0.548065	0.422323	0.273138
H80	H	0.513234	0.414267	0.161368
H81	H	0.687766	0.428673	0.183792
H82	H	0.567318	0.496790	0.188178
H83	H	0.562576	0.367638	0.280323
H84	H	0.442091	0.435749	0.284712
C85	C	0.636888	0.641571	0.222629
C86	C	0.548054	0.594442	0.273099
H87	H	0.568318	0.669385	0.188612
H88	H	0.705516	0.609583	0.192558
H89	H	0.697055	0.677716	0.252490
H90	H	0.487894	0.558293	0.243237
H91	H	0.479397	0.626433	0.303173
H92	H	0.576824	0.686874	0.287381
C93	C	0.459350	0.793987	0.229072
C94	C	0.548025	0.847287	0.273068
H95	H	0.390789	0.821795	0.195046
H96	H	0.399111	0.762021	0.263319
H97	H	0.528015	0.762004	0.199003
H98	H	0.479360	0.879266	0.303142
H99	H	0.608269	0.879266	0.238817
