data_functionalizedCrystal
_audit_creation_method	'MofGen! by Chris Wilmer'
_symmetry_space_group_name_H-M	'P1'
_symmetry_Int_Tables_number	1
_symmetry_cell_setting	triclinic
loop_
_symmetry_equiv_pos_as_xyz
  x,y,z
_cell_length_a	16.625548
_cell_length_b	19.077068
_cell_length_c	19.077271
_cell_angle_alpha	85.514665
_cell_angle_beta	87.708466
_cell_angle_gamma	92.328114
loop_
_atom_site_label
_atom_site_type_symbol
_atom_site_fract_x
_atom_site_fract_y
_atom_site_fract_z
Zn1	Zn	1.200011	-0.296772	0.409854
Zn2	Zn	1.199937	-0.409895	0.296697
Zn3	Zn	1.070851	-0.292027	0.291982
Zn4	Zn	1.059490	-0.414625	0.414542
O5	O	1.132572	-0.353330	0.353269
O6	O	1.312833	-0.311784	0.394854
O7	O	1.187537	-0.390294	0.197424
O8	O	1.092769	-0.194006	0.303683
O9	O	1.312778	-0.394895	0.311718
O10	O	1.187663	-0.197492	0.390282
O11	O	1.092697	-0.303697	0.193960
O12	O	0.956512	-0.308284	0.308229
O13	O	1.073408	-0.402957	0.512568
O14	O	0.948166	-0.398356	0.398273
O15	O	1.176648	-0.316370	0.509123
O16	O	1.176521	-0.509173	0.316264
O17	O	1.073336	-0.512648	0.402845
C18	C	1.123709	-0.536490	0.360590
C19	C	1.119989	-0.614848	0.363746
C20	C	0.923083	-0.353319	0.353249
C21	C	0.833461	-0.353332	0.353257
C22	C	1.172003	-0.649829	0.320188
C23	C	1.168510	-0.723455	0.323161
C24	C	1.112998	-0.762098	0.369688
C25	C	1.060981	-0.727111	0.413250
C26	C	1.064479	-0.653487	0.410281
C27	C	1.096774	-0.982487	0.383401
C28	C	1.093279	-1.056117	0.386366
C29	C	1.200809	-1.052455	0.296277
C30	C	1.204298	-0.978829	0.293309
C31	C	1.152285	-0.943850	0.336874
N32	N	1.109424	-0.837355	0.372725
N33	N	1.155864	-0.868594	0.333839
C34	C	0.505283	-0.353338	0.353288
C35	C	0.596593	-0.353334	0.353277
C36	C	0.669369	-0.353335	0.353272
C37	C	0.760684	-0.353331	0.353262
C38	C	1.342880	-0.353341	0.353289
C39	C	1.432500	-0.353346	0.353298
C40	C	1.123769	-0.360720	0.537139
C41	C	1.120017	-0.363870	0.615494
C42	C	1.141492	-0.169455	0.345934
C43	C	1.145293	-0.091098	0.342808
C44	C	1.172003	-0.320271	0.650513
C45	C	1.168469	-0.323227	0.724135
C46	C	1.112951	-0.369787	0.762738
C47	C	1.060959	-0.413388	0.727713
C48	C	1.064490	-0.410428	0.654092
C49	C	1.096622	-0.383473	0.983114
C50	C	1.093096	-0.386432	1.056740
C51	C	1.200605	-0.296269	1.053157
C52	C	1.204135	-0.293316	0.979535
C53	C	1.152140	-0.336914	0.944517
N54	N	1.109338	-0.372812	0.837992
N55	N	1.155749	-0.333885	0.869264
C56	C	1.141334	-0.345983	1.170114
C57	C	1.145082	-0.342832	1.091759
H58	H	1.210865	-0.751933	0.287691
H59	H	1.243156	-1.080944	0.260810
H60	H	1.048083	-1.087578	0.424266
H61	H	1.210803	-0.287726	0.752645
C62	C	1.039414	-0.431415	0.944603
H63	H	1.005846	-0.459566	0.978139
H64	H	1.006974	-0.403275	0.914812
H65	H	1.070128	-0.460987	0.917103
H66	H	1.054422	-0.954012	0.418872
H67	H	1.249501	-0.947368	0.255423
H68	H	1.015752	-0.451296	0.759149
H69	H	1.015786	-0.758580	0.451136
H70	H	1.022125	-0.625006	0.445751
H71	H	1.217214	-0.282359	0.619088
H72	H	1.249345	-0.255404	0.948109
H73	H	1.242935	-0.260773	1.081676
H74	H	1.047884	-0.424348	1.088168
C75	C	1.007325	-0.458404	0.615572
H76	H	0.973764	-0.486567	0.649105
H77	H	0.974873	-0.430294	0.585764
H78	H	1.038077	-0.487965	0.588091
H79	H	1.217204	-0.618371	0.282298
