data_functionalizedCrystal
_audit_creation_method	'MofGen! by Chris Wilmer'
_symmetry_space_group_name_H-M	'P1'
_symmetry_Int_Tables_number	1
_symmetry_cell_setting	triclinic
loop_
_symmetry_equiv_pos_as_xyz
  x,y,z
_cell_length_a	10.654550
_cell_length_b	16.992695
_cell_length_c	9.130313
_cell_angle_alpha	89.998255
_cell_angle_beta	89.996220
_cell_angle_gamma	87.576563
loop_
_atom_site_label
_atom_site_type_symbol
_atom_site_fract_x
_atom_site_fract_y
_atom_site_fract_z
O1	O	1.677356	0.110186	-0.121922
O2	O	1.312785	0.120685	-0.121899
O3	O	1.493609	0.001285	-0.121899
O4	O	1.496532	0.229586	-0.121922
O5	O	1.493607	0.001288	0.121700
O6	O	1.312783	0.120688	0.121700
O7	O	1.677354	0.110190	0.121676
Cu8	Cu	1.495068	0.115439	0.143931
Cu9	Cu	1.495071	0.115435	-0.144153
O10	O	1.496530	0.229589	0.121676
C11	C	1.265919	0.119915	-0.000097
C12	C	1.126277	0.117609	-0.000087
C13	C	1.052866	0.187910	-0.000116
C14	C	0.921658	0.185738	-0.000141
C15	C	0.937282	0.042959	-0.000115
C16	C	1.068488	0.045131	-0.000080
C17	C	1.043844	0.270342	-0.000137
C18	C	0.912636	0.268171	-0.000162
C19	C	1.489848	-0.027947	-0.000100
C20	C	1.478628	-0.115052	-0.000099
C21	C	1.586879	-0.164704	-0.000105
C22	C	1.576330	-0.246548	-0.000118
C23	C	1.457529	-0.278738	-0.000115
C24	C	1.349270	-0.229080	-0.000114
C25	C	1.359820	-0.147237	-0.000112
C26	C	1.413802	-0.522574	-0.000133
C27	C	1.403260	-0.604422	-0.000131
C28	C	1.630321	-0.621884	-0.000137
C29	C	1.640861	-0.540040	-0.000126
C30	C	1.532602	-0.490389	-0.000132
N31	N	1.446743	-0.362396	-0.000124
N32	N	1.543389	-0.406733	-0.000134
C33	C	1.724220	0.110959	-0.000129
C34	C	1.863862	0.113265	-0.000148
C35	C	1.500291	0.258821	-0.000126
C36	C	1.511510	0.345926	-0.000136
N37	N	1.495076	0.115441	0.346553
N38	N	1.495073	0.115427	-0.346776
C39	C	1.575168	0.062589	0.423205
C40	C	1.575164	0.062580	0.576542
C41	C	1.414971	0.168281	0.576561
C42	C	1.414970	0.168286	0.423227
C43	C	1.667658	0.001565	0.423195
C44	C	1.667654	0.001556	0.576532
H45	H	1.081769	0.296589	-0.105312
H46	H	1.349741	0.211316	0.360819
H47	H	0.869116	0.293084	0.105003
C48	C	0.859888	0.310020	-0.138001
H49	H	0.927231	0.328708	-0.194668
H50	H	0.805569	0.353158	-0.109868
H51	H	0.814339	0.273971	-0.194549
H52	H	1.683620	-0.138501	-0.000098
C53	C	1.240745	-0.092620	-0.000102
H54	H	1.168479	-0.123512	-0.000088
H55	H	1.240143	-0.060329	-0.085049
H56	H	1.240139	-0.060333	0.084858
C57	C	1.326870	0.226411	0.660907
H58	H	1.338345	0.218842	0.763206
H59	H	1.242159	0.217406	0.635782
H60	H	1.345775	0.278854	0.635782
C61	C	1.087240	0.313903	0.137569
H62	H	1.016051	0.330336	0.194189
H63	H	1.131892	0.358666	0.109244
H64	H	1.140536	0.279573	0.194241
H65	H	1.664480	-0.286971	-0.000119
C66	C	1.272573	-0.639830	-0.000153
H67	H	1.209608	-0.598539	-0.000175
H68	H	1.263724	-0.671398	0.084791
H69	H	1.263760	-0.671391	-0.085116
C70	C	1.631641	-0.079889	0.366969
H71	H	1.616817	-0.113390	0.447898
H72	H	1.698210	-0.102181	0.309161
H73	H	1.557654	-0.074343	0.309176
H74	H	1.765327	0.014998	0.618141
H75	H	1.737601	-0.513837	-0.000128
C76	C	1.749398	-0.676498	-0.000145
H77	H	1.821661	-0.645604	-0.000138
H78	H	1.750004	-0.708785	-0.085095
H79	H	1.750004	-0.708789	0.084813
H80	H	1.632216	-0.055428	0.624087
C81	C	1.793061	0.027376	0.358918
H82	H	1.788781	0.026506	0.255002
H83	H	1.859219	-0.007688	0.391035
H84	H	1.808535	0.079249	0.391046
C85	C	1.149242	-0.032197	-0.000035
H86	H	1.235661	-0.020525	-0.000002
H87	H	1.130972	-0.061892	-0.084978
H88	H	1.130925	-0.061876	0.084929
H89	H	0.890215	-0.016050	-0.000131
H90	H	1.325649	-0.482157	-0.000138
H91	H	1.252539	-0.255296	-0.000121
