data_functionalizedCrystal
_audit_creation_method	'MofGen! by Chris Wilmer'
_symmetry_space_group_name_H-M	'P1'
_symmetry_Int_Tables_number	1
_symmetry_cell_setting	triclinic
loop_
_symmetry_equiv_pos_as_xyz
  x,y,z
_cell_length_a	11.792241
_cell_length_b	11.026607
_cell_length_c	10.066323
_cell_angle_alpha	79.283172
_cell_angle_beta	98.825943
_cell_angle_gamma	96.389716
loop_
_atom_site_label
_atom_site_type_symbol
_atom_site_fract_x
_atom_site_fract_y
_atom_site_fract_z
O1	O	-1.526974	-0.184241	0.113349
O2	O	-1.200038	-0.201410	0.113380
O3	O	-1.336410	-0.015994	0.113362
O4	O	-1.390601	-0.369657	0.113367
O5	O	-1.362437	0.019435	-0.113615
O6	O	-1.226065	-0.165981	-0.113597
O7	O	-1.553001	-0.148811	-0.113628
Zn8	Zn	-1.393665	-0.151771	-0.149650
Zn9	Zn	-1.359374	-0.198451	0.149402
O10	O	-1.416629	-0.334228	-0.113610
C11	C	-1.170546	-0.182618	-0.000104
C12	C	-1.043890	-0.179393	-0.000092
N13	N	-1.417077	-0.119913	-0.353745
C14	C	-1.339426	0.046997	-0.000124
C15	C	-1.309623	0.181906	-0.000116
C16	C	-1.582493	-0.167604	-0.000141
C17	C	-1.709148	-0.170831	-0.000144
C18	C	-0.812004	-0.173452	-0.000132
C19	C	-0.941041	-0.176753	-0.000110
C20	C	-1.413612	-0.397219	-0.000121
C21	C	-1.443415	-0.532130	-0.000120
C22	C	-1.391913	0.255171	-0.000122
C23	C	-1.361112	0.394607	-0.000114
C24	C	-1.385542	-0.162845	-0.578702
C25	C	-1.367497	-0.187377	-0.421543
N26	N	-1.335969	-0.230299	0.353497
H27	H	-1.485169	0.214669	-0.000139
O28	O	-1.452005	-0.072132	-0.648099
C29	C	-1.480281	0.145558	-0.692157
C30	C	-1.404930	0.042937	-0.613458
H31	H	-1.442236	0.238619	-0.664201
H32	H	-1.571357	0.124890	-0.664116
H33	H	-1.482994	0.149140	-0.806507
H34	H	-1.402122	0.039299	-0.499090
H35	H	-1.313893	0.063645	-0.641613
H36	H	-1.267850	0.435103	-0.000096
H37	H	-1.280174	-0.306215	-0.588202
H38	H	-1.311698	-0.263298	-0.363247
H39	H	-1.216367	0.222408	-0.000098
O40	O	-1.554626	0.419379	-0.000190
C41	C	-1.686707	0.236167	-0.000116
C42	C	-1.560722	0.290927	-0.000071
H43	H	-1.691673	0.132303	0.000009
H44	H	-1.741774	0.282577	-0.095131
H45	H	-1.719935	0.253081	0.094848
H46	H	-1.527389	0.274029	-0.094971
H47	H	-1.505733	0.244513	0.095007
O48	O	-1.483556	-0.029201	-0.423127
C49	C	-1.511863	0.188481	-0.467166
C50	C	-1.436491	0.085871	-0.388485
H51	H	-1.473826	0.281544	-0.439209
H52	H	-1.602932	0.167795	-0.439108
H53	H	-1.514588	0.192070	-0.581518
H54	H	-1.433670	0.082226	-0.274114
H55	H	-1.345460	0.106597	-0.416656
