data_functionalizedCrystal
_audit_creation_method	'MofGen! by Chris Wilmer'
_symmetry_space_group_name_H-M	'P1'
_symmetry_Int_Tables_number	1
_symmetry_cell_setting	triclinic
loop_
_symmetry_equiv_pos_as_xyz
  x,y,z
_cell_length_a	16.974885
_cell_length_b	10.654551
_cell_length_c	16.053802
_cell_angle_alpha	92.593346
_cell_angle_beta	91.069328
_cell_angle_gamma	83.937829
loop_
_atom_site_label
_atom_site_type_symbol
_atom_site_fract_x
_atom_site_fract_y
_atom_site_fract_z
O1	O	1.049943	0.160123	0.001453
O2	O	0.820589	0.179339	-0.014031
O3	O	0.940539	-0.013064	-0.005934
O4	O	0.929993	0.352526	-0.006645
O5	O	0.933936	-0.002517	0.132479
O6	O	0.813986	0.189886	0.124382
O7	O	1.043340	0.170669	0.139866
Zn8	Zn	0.927615	0.181952	0.154100
Zn9	Zn	0.936314	0.168057	-0.028265
O10	O	0.923390	0.363072	0.131768
C11	C	0.787920	0.183687	0.053193
C12	C	0.700412	0.180915	0.047285
C13	C	0.208233	0.164647	0.005874
C14	C	0.290455	0.167253	0.011437
C15	C	0.327958	0.174314	0.089667
C16	C	0.283236	0.178757	0.162341
C17	C	0.201016	0.176142	0.156778
C18	C	0.573471	0.182743	0.114395
C19	C	0.655696	0.185361	0.119953
C20	C	0.662910	0.173855	-0.030952
C21	C	0.580688	0.171248	-0.036508
C22	C	0.535974	0.175684	0.036165
N23	N	0.412001	0.176982	0.095355
N24	N	0.451932	0.173008	0.030477
C25	C	0.936463	-0.054580	0.063219
C26	C	0.934146	-0.193999	0.063057
C27	C	0.936658	-0.265249	-0.012464
C28	C	0.934474	-0.396246	-0.012608
C29	C	0.927269	-0.384733	0.138297
C30	C	0.929447	-0.253737	0.138440
C31	C	0.941357	-0.205511	-0.087847
C32	C	0.943870	-0.276761	-0.163374
C33	C	0.941686	-0.407759	-0.163518
C34	C	0.936988	-0.467505	-0.088135
C35	C	1.076010	0.166321	0.072640
C36	C	1.163517	0.169093	0.078542
C37	C	0.927466	0.404589	0.062614
C38	C	0.929783	0.544008	0.062771
N39	N	0.921684	0.191435	0.278560
N40	N	0.942252	0.158564	-0.152725
C41	C	0.972742	0.109596	0.325701
C42	C	0.968600	0.116242	0.412828
C43	C	0.913404	0.204732	0.452813
C44	C	0.862340	0.286574	0.405666
C45	C	0.866479	0.279922	0.318540
C46	C	0.895327	0.233754	0.713002
C47	C	0.891194	0.240402	0.800134
C48	C	0.997453	0.070067	0.807290
C49	C	1.001589	0.063428	0.720163
C50	C	0.950523	0.145266	0.673023
N51	N	0.909171	0.211529	0.541871
N52	N	0.954753	0.138462	0.583966
H53	H	0.699325	0.170241	-0.090118
F54	F	0.803592	0.380748	0.448221
H55	H	0.313778	0.184498	0.226038
H56	H	0.943724	-0.465766	-0.225016
F57	F	0.943685	-0.066094	-0.087700
F58	F	0.695608	0.192876	0.203221
H59	H	0.923445	-0.433390	0.199671
F60	F	0.926778	-0.177905	0.218818
H61	H	1.017691	0.037543	0.293151
F62	F	0.934656	-0.606925	-0.088292
H63	H	1.010175	0.049602	0.451209
H64	H	0.177704	0.158906	-0.057830
F65	F	1.060336	-0.030752	0.677609
F66	F	1.051796	-0.017027	0.857465
H67	H	0.947687	-0.228105	-0.224749
H68	H	0.846244	0.312467	0.832686
H69	H	0.824901	0.346562	0.280158
F70	F	0.338043	0.162514	-0.065907
F71	F	0.540781	0.163734	-0.119772
H72	H	0.853748	0.300392	0.674628
F73	F	0.525891	0.187491	0.191742
F74	F	0.153427	0.180865	0.234121
