data_functionalizedCrystal
_audit_creation_method	'MofGen! by Chris Wilmer'
_symmetry_space_group_name_H-M	'P1'
_symmetry_Int_Tables_number	1
_symmetry_cell_setting	triclinic
loop_
_symmetry_equiv_pos_as_xyz
  x,y,z
_cell_length_a	14.971491
_cell_length_b	23.532407
_cell_length_c	13.448316
_cell_angle_alpha	89.984904
_cell_angle_beta	89.991393
_cell_angle_gamma	83.232490
loop_
_atom_site_label
_atom_site_type_symbol
_atom_site_fract_x
_atom_site_fract_y
_atom_site_fract_z
O1	O	1.186160	0.074230	-0.082754
O2	O	0.925667	0.083115	-0.082749
O3	O	1.063769	-0.004225	-0.082723
O4	O	1.048059	0.161571	-0.082779
O5	O	1.063752	-0.004231	0.082660
O6	O	0.925650	0.083110	0.082635
O7	O	1.186143	0.074225	0.082630
Cu8	Cu	1.055895	0.078667	0.097734
Cu9	Cu	1.055915	0.078673	-0.097852
O10	O	1.048041	0.161565	0.082605
C11	C	0.892338	0.082714	-0.000056
C12	C	0.793054	0.081522	-0.000052
C13	C	0.365412	0.076380	-0.090224
C14	C	0.458700	0.077499	-0.090221
C15	C	0.505331	0.078059	-0.000067
C16	C	0.458669	0.077495	0.090090
C17	C	0.365383	0.076372	0.090085
C18	C	0.653106	0.079836	0.090092
C19	C	0.746398	0.080960	0.090097
C20	C	0.746423	0.080963	-0.090214
C21	C	0.653137	0.079840	-0.090218
C22	C	0.606482	0.079277	-0.000061
C23	C	1.063360	-0.025446	-0.000026
C24	C	1.062157	-0.088668	-0.000011
C25	C	0.975471	-0.355208	-0.000072
C26	C	0.976589	-0.295803	-0.000064
O27	O	0.907821	-0.259353	-0.000094
N28	N	1.058690	-0.272824	-0.000054
C29	C	1.139679	-0.309254	-0.000062
O30	O	1.209616	-0.284253	-0.000054
C31	C	1.138561	-0.368657	-0.000077
C32	C	1.056454	-0.391633	-0.000077
C33	C	0.893371	-0.378184	-0.000072
C34	C	0.892254	-0.437585	-0.000078
C35	C	0.973237	-0.474010	-0.000083
C36	C	1.055337	-0.451034	-0.000082
C37	C	1.219550	-0.405086	-0.000092
C38	C	1.218424	-0.464493	-0.000107
C39	C	1.136318	-0.487469	-0.000107
C40	C	1.135204	-0.546860	-0.000093
N41	N	1.053102	-0.569838	-0.000103
C42	C	0.972119	-0.533413	-0.000098
C43	C	1.142022	-0.184501	-0.000033
C44	C	1.143141	-0.125098	-0.000011
C45	C	0.980050	-0.111651	-0.000015
C46	C	0.978931	-0.171055	-0.000030
C47	C	1.059920	-0.207480	-0.000043
C48	C	0.969780	-0.658160	-0.000109
C49	C	0.968670	-0.717567	-0.000111
C50	C	1.131761	-0.731009	-0.000112
C51	C	1.132871	-0.671607	-0.000105
C52	C	1.051873	-0.635184	-0.000107
O53	O	1.203935	-0.583344	-0.000067
O54	O	0.902194	-0.558422	-0.000119
C55	C	1.219472	0.074626	-0.000065
C56	C	1.318756	0.075818	-0.000075
C57	C	1.048450	0.182786	-0.000094
C58	C	1.049653	0.246008	-0.000116
N59	N	1.055887	0.078662	0.235298
N60	N	1.055930	0.078674	-0.235416
C61	C	1.117057	0.040004	0.287349
C62	C	1.117063	0.040003	0.391453
C63	C	1.055902	0.078664	0.443502
C64	C	0.994725	0.117324	0.391444
C65	C	0.994716	0.117322	0.287342
C66	C	0.994750	0.117328	0.608424
C67	C	0.994760	0.117332	0.712532
C68	C	1.117097	0.040010	0.712534
C69	C	1.117088	0.040007	0.608433
C70	C	1.055912	0.078668	0.556381
H71	H	0.327396	0.075920	0.163494
Br72	Br	0.809737	0.081737	-0.212570
Br73	Br	0.589790	0.079063	0.212449
H74	H	1.210000	-0.106397	0.000004
Br75	Br	0.859853	-0.608738	-0.000111
H76	H	0.615172	0.079388	-0.163629
H77	H	1.166865	0.008524	0.244977
Br78	Br	1.200077	-0.012464	0.462097
Br79	Br	0.809683	0.081717	0.212450
Br80	Br	0.521953	0.078252	0.212443
Br81	Br	0.857232	-0.748744	-0.000105
Br82	Br	0.780818	-0.468756	-0.000088
H83	H	0.827421	-0.348531	-0.000072
H84	H	0.912073	-0.189757	-0.000025
Br85	Br	0.870143	-0.062206	-0.000006
H86	H	1.166894	0.008529	0.566054
Br87	Br	1.251946	-0.233929	-0.000041
H88	H	1.286410	-0.386390	-0.000093
H89	H	1.284377	-0.494148	-0.000123
H90	H	1.199729	-0.652900	-0.000091
Br91	Br	1.241661	-0.780454	-0.000109
Br92	Br	0.522017	0.078257	-0.212572
H93	H	1.166908	0.008531	0.754921
Br94	Br	0.911752	0.169803	0.783164
H95	H	0.944931	0.148808	0.566047
H96	H	0.944922	0.148801	0.433829
H97	H	0.327451	0.075928	-0.163638
Br98	Br	0.911690	0.169785	0.216701
