data_functionalizedCrystal
_audit_creation_method	'MofGen! by Chris Wilmer'
_symmetry_space_group_name_H-M	'P1'
_symmetry_Int_Tables_number	1
_symmetry_cell_setting	triclinic
loop_
_symmetry_equiv_pos_as_xyz
  x,y,z
_cell_length_a	9.130313
_cell_length_b	10.654543
_cell_length_c	10.654550
_cell_angle_alpha	95.516449
_cell_angle_beta	89.998405
_cell_angle_gamma	89.998857
loop_
_atom_site_label
_atom_site_type_symbol
_atom_site_fract_x
_atom_site_fract_y
_atom_site_fract_z
O1	O	-0.121631	-1.667844	0.176358
O2	O	0.378369	-1.167844	0.676358
O3	O	-0.121668	-1.302365	0.193173
O4	O	0.378332	-0.802365	0.693173
O5	O	-0.121650	-1.493508	0.002026
O6	O	0.378350	-0.993508	0.502026
O7	O	-0.121649	-1.476702	0.367505
O8	O	0.378351	-0.976702	0.867505
O9	O	0.121949	-1.493494	0.002021
O10	O	0.621949	-0.993494	0.502021
O11	O	0.121931	-1.302352	0.193168
O12	O	0.621931	-0.802352	0.693168
O13	O	0.121967	-1.667831	0.176353
O14	O	0.621967	-1.167831	0.676353
Cu15	Cu	0.144192	-1.485090	0.184760
Cu16	Cu	0.644192	-0.985090	0.684760
Cu17	Cu	-0.143892	-1.485106	0.184766
Cu18	Cu	0.356108	-0.985106	0.684766
O19	O	0.121949	-1.476688	0.367500
O20	O	0.621949	-0.976688	0.867500
C21	C	0.000127	-1.255560	0.191938
C22	C	0.500127	-0.755560	0.691938
C23	C	0.000112	-1.116116	0.188249
C24	C	0.500112	-0.616116	0.688249
N25	N	0.346814	-1.485088	0.184754
N26	N	0.846814	-0.985088	0.684754
N27	N	-0.346515	-1.485117	0.184762
N28	N	0.153485	-0.985117	0.684762
C29	C	0.000146	-1.492267	-0.044774
C30	C	0.500146	-0.992267	0.455226
C31	C	0.000135	-1.488575	-0.184217
C32	C	0.500135	-0.988575	0.315783
C33	C	0.423474	-1.569755	0.100150
C34	C	0.923474	-1.069755	0.600150
C35	C	0.576811	-1.569767	0.100151
C36	C	1.076811	-1.069767	0.600151
C37	C	0.576815	-1.400442	0.269370
C38	C	1.076815	-0.900442	0.769370
C39	C	0.423481	-1.400424	0.269363
C40	C	0.923481	-0.900424	0.769363
C41	C	0.000115	-1.036631	0.300793
C42	C	0.500115	-0.536631	0.800793
C43	C	0.000136	-0.905609	0.297319
C44	C	0.500136	-0.405609	0.797319
C45	C	0.000148	-0.933573	0.068749
C46	C	0.500148	-0.433573	0.568749
C47	C	0.000136	-1.064591	0.072224
C48	C	0.500136	-0.564591	0.572224
C49	C	0.000162	-0.714635	0.177595
C50	C	0.500162	-0.214635	0.677595
C51	C	0.000145	-0.854077	0.181301
C52	C	0.500145	-0.354077	0.681301
C53	C	-0.132640	-1.483366	-0.380755
C54	C	0.367360	-0.983366	0.119245
C55	C	-0.132648	-1.486847	-0.249735
C56	C	0.367352	-0.986847	0.250265
C57	C	0.132937	-1.486834	-0.249729
C58	C	0.632937	-0.986834	0.250271
C59	C	0.132944	-1.483361	-0.380748
C60	C	0.632944	-0.983361	0.119252
C61	C	0.000150	-1.477929	0.414300
C62	C	0.500150	-0.977929	0.914300
C63	C	0.000151	-1.481621	0.553744
C64	C	0.500151	-0.981621	1.053744
H65	H	0.361056	-1.638692	0.031256
H66	H	0.861056	-1.138692	0.531256
H67	H	0.241051	-1.488249	-0.196375
H68	H	0.741051	-0.988249	0.303625
F69	F	0.274286	-1.481511	-0.450464
F70	F	0.774286	-0.981511	0.049536
H71	H	0.000176	-0.891604	-0.025715
H72	H	0.500176	-0.391604	0.474285
F73	F	0.658418	-1.310343	0.359415
F74	F	1.158418	-0.810343	0.859415
F75	F	-0.273969	-1.481518	-0.450470
F76	F	0.226031	-0.981518	0.049530
F77	F	-0.273983	-1.488708	-0.180029
F78	F	0.226017	-0.988708	0.319971
H79	H	0.361060	-1.331472	0.338258
H80	H	0.861060	-0.831472	0.838258
F81	F	0.658393	-1.659878	0.010102
F82	F	1.158393	-1.159878	0.510102
H83	H	0.000141	-0.840896	0.388964
H84	H	0.500141	-0.340896	0.888964
F85	F	0.000095	-1.091463	0.424277
F86	F	0.500095	-0.591463	0.924277
H87	H	0.000139	-1.129313	-0.019428
H88	H	0.500139	-0.629313	0.480572
