data_functionalizedCrystal
_audit_creation_method	'MofGen! by Chris Wilmer'
_symmetry_space_group_name_H-M	'P1'
_symmetry_Int_Tables_number	1
_symmetry_cell_setting	triclinic
loop_
_symmetry_equiv_pos_as_xyz
  x,y,z
_cell_length_a	11.169417
_cell_length_b	18.101390
_cell_length_c	11.169416
_cell_angle_alpha	90.026535
_cell_angle_beta	89.988781
_cell_angle_gamma	89.983992
loop_
_atom_site_label
_atom_site_type_symbol
_atom_site_fract_x
_atom_site_fract_y
_atom_site_fract_z
Zn1	Zn	1.834917	-0.418700	0.477733
Zn2	Zn	2.334917	0.081300	0.977733
Zn3	Zn	1.834820	-0.294873	0.678459
Zn4	Zn	2.334820	0.205127	1.178459
Zn5	Zn	1.634216	-0.294880	0.477791
Zn6	Zn	2.134216	0.205120	0.977791
Zn7	Zn	1.634210	-0.418680	0.678376
Zn8	Zn	2.134210	0.081320	1.178376
O9	O	1.734541	-0.356783	0.578090
O10	O	2.234541	0.143217	1.078090
O11	O	2.002854	-0.402280	0.504370
O12	O	2.502854	0.097720	1.004370
O13	O	1.808171	-0.191241	0.651898
O14	O	2.308171	0.308759	1.151898
O15	O	1.660883	-0.311317	0.309834
O16	O	2.160883	0.188683	0.809834
O17	O	2.002782	-0.311304	0.651842
O18	O	2.502782	0.188696	1.151842
O19	O	1.808337	-0.402287	0.309791
O20	O	2.308337	0.097713	0.809791
O21	O	1.660789	-0.191246	0.504469
O22	O	2.160789	0.308754	1.004469
O23	O	1.466266	-0.311297	0.504389
O24	O	1.966266	0.188703	1.004389
O25	O	1.660873	-0.522316	0.651702
O26	O	2.160873	-0.022316	1.151702
O27	O	1.466262	-0.402252	0.651758
O28	O	1.966262	0.097748	1.151758
O29	O	1.808331	-0.522331	0.504290
O30	O	2.308331	-0.022331	1.004290
O31	O	1.808165	-0.311284	0.846397
O32	O	2.308165	0.188716	1.346397
O33	O	1.660779	-0.402245	0.846337
O34	O	2.160779	0.097755	1.346337
C35	C	1.422716	-0.356774	0.578072
C36	C	1.922716	0.143226	1.078072
C37	C	1.289316	-0.356787	0.578093
C38	C	1.789316	0.143213	1.078093
C39	C	1.734612	-0.549945	0.577980
C40	C	2.234612	-0.049945	1.077980
C41	C	1.734643	-0.632259	0.577933
C42	C	2.234643	-0.132259	1.077933
C43	C	1.734707	-0.931350	0.577859
C44	C	2.234707	-0.431350	1.077859
C45	C	1.827790	-0.900035	0.485438
C46	C	2.327790	-0.400035	0.985438
C47	C	1.827499	-0.814416	0.485095
C48	C	2.327499	-0.314416	0.985095
C49	C	1.734676	-0.782968	0.577896
C50	C	2.234676	-0.282968	1.077896
C51	C	1.608228	-0.814044	0.543535
C52	C	2.108228	-0.314044	1.043535
C53	C	1.608785	-0.899689	0.542842
C54	C	2.108785	-0.399689	1.042842
C55	C	1.766959	-0.899770	0.704878
C56	C	2.266959	-0.399770	1.204878
C57	C	1.769734	-0.814120	0.704230
C58	C	2.269734	-0.314120	1.204230
C59	C	1.734651	-0.699108	0.577919
C60	C	2.234651	-0.199108	1.077919
C61	C	1.734724	-1.015210	0.577833
C62	C	2.234724	-0.515210	1.077833
C63	C	2.047583	-0.356793	0.578109
C64	C	2.547583	0.143207	1.078109
C65	C	2.180983	-0.356797	0.578117
C66	C	2.680983	0.143203	1.078117
C67	C	1.734493	-0.356778	0.889914
C68	C	2.234493	0.143222	1.389914
C69	C	1.734583	-0.356800	1.023314
C70	C	2.234583	0.143200	1.523314
C71	C	1.734539	-0.164373	0.578112
C72	C	2.234539	0.335627	1.078112
C73	C	1.734741	-0.082059	0.577821
C74	C	2.234741	0.417941	1.077821
C75	C	1.734621	-0.356805	0.265047
C76	C	2.234621	0.143195	0.765047
C77	C	1.734656	-0.356814	0.131647
C78	C	2.234656	0.143186	0.631647
H79	H	1.921262	-0.793406	0.506612
H80	H	2.421262	-0.293406	1.006612
H81	H	1.806147	-0.793938	0.390996
H82	H	2.306147	-0.293938	0.890996
H83	H	1.921859	-0.920635	0.506689
H84	H	2.421859	-0.420635	1.006689
H85	H	1.580396	-0.792600	0.451717
H86	H	2.080396	-0.292600	0.951717
H87	H	1.537070	-0.920404	0.607229
H88	H	2.037070	-0.420404	1.107229
H89	H	1.581449	-0.919675	0.449992
H90	H	2.081449	-0.419675	0.949992
H91	H	1.857551	-0.921413	0.736166
H92	H	2.357551	-0.421413	1.236166
H93	H	1.862789	-0.793808	0.730140
H94	H	2.362789	-0.293808	1.230140
H95	H	1.706871	-0.792710	0.776790
H96	H	2.206871	-0.292710	1.276790
H97	H	1.806708	-0.921567	0.391864
H98	H	2.306708	-0.421567	0.891864
H99	H	1.536990	-0.793672	0.608778
H100	H	2.036990	-0.293672	1.108778
H101	H	1.699169	-0.920028	0.773741
H102	H	2.199169	-0.420028	1.273741
