data_functionalizedCrystal
_audit_creation_method	'MofGen! by Chris Wilmer'
_symmetry_space_group_name_H-M	'P1'
_symmetry_Int_Tables_number	1
_symmetry_cell_setting	triclinic
loop_
_symmetry_equiv_pos_as_xyz
  x,y,z
_cell_length_a	18.215407
_cell_length_b	18.050582
_cell_length_c	18.215405
_cell_angle_alpha	90.025153
_cell_angle_beta	89.977671
_cell_angle_gamma	89.987409
loop_
_atom_site_label
_atom_site_type_symbol
_atom_site_fract_x
_atom_site_fract_y
_atom_site_fract_z
Zn1	Zn	1.125037	-0.419853	0.293081
Zn2	Zn	1.124956	-0.295657	0.416141
Zn3	Zn	1.001980	-0.295682	0.293087
Zn4	Zn	1.001936	-0.419811	0.416105
O5	O	1.063477	-0.357751	0.354604
O6	O	1.228011	-0.403385	0.309418
O7	O	1.108627	-0.191736	0.399835
O8	O	1.018356	-0.312182	0.190102
O9	O	1.227951	-0.312139	0.399829
O10	O	1.108766	-0.403409	0.190098
O11	O	1.018278	-0.191754	0.309428
O12	O	0.898990	-0.312141	0.309393
O13	O	1.018281	-0.523741	0.399768
O14	O	0.898957	-0.403338	0.399774
O15	O	1.108723	-0.523772	0.309383
O16	O	1.108584	-0.312099	0.519120
O17	O	1.018202	-0.403314	0.519094
C18	C	0.872271	-0.357738	0.354581
C19	C	0.790472	-0.357750	0.354589
C20	C	0.602308	-0.405337	0.307609
C21	C	0.525449	-0.405339	0.307615
C22	C	0.525398	-0.310178	0.401619
C23	C	0.602256	-0.310172	0.401609
C24	C	0.640709	-0.357756	0.354605
C25	C	0.486992	-0.357764	0.354621
C26	C	0.403659	-0.357766	0.354629
C27	C	0.724048	-0.357753	0.354596
C28	C	1.063506	-0.551457	0.354571
C29	C	1.063518	-0.634002	0.354557
C30	C	1.014373	-0.833436	0.403641
C31	C	1.081517	-0.882824	0.421634
C32	C	1.063555	-0.785133	0.354501
C33	C	0.996448	-0.882827	0.336488
C34	C	1.063584	-0.931118	0.354448
C35	C	1.130733	-0.833433	0.372528
C36	C	1.045619	-0.833432	0.287352
C37	C	1.112809	-0.882797	0.305319
C38	C	1.063537	-0.701035	0.354533
C39	C	1.063609	-1.015215	0.354416
C40	C	1.255430	-0.357764	0.354627
C41	C	1.337229	-0.357770	0.354637
C42	C	1.063399	-0.357715	0.545810
C43	C	1.063434	-0.357725	0.627609
C44	C	1.063491	-0.164799	0.354583
C45	C	1.063621	-0.082253	0.354390
C46	C	1.063575	-0.357803	0.162651
C47	C	1.063617	-0.357825	0.080852
C48	C	1.110606	-0.310316	0.815792
C49	C	1.110639	-0.310334	0.892651
C50	C	1.016442	-0.405239	0.892663
C51	C	1.016414	-0.405224	0.815806
C52	C	1.063495	-0.357759	0.777372
C53	C	1.063556	-0.357791	0.931088
C54	C	1.063591	-0.357811	1.014422
C55	C	1.063460	-0.357740	0.694033
H56	H	0.633614	-0.444080	0.269333
H57	H	0.633522	-0.271422	0.439879
H58	H	1.149003	-0.271703	0.923929
C59	C	0.483209	-0.457681	0.255921
C60	C	0.525509	-0.510018	0.204220
C61	C	0.483269	-0.562361	0.152522
C62	C	0.398729	-0.562368	0.152526
C63	C	0.356424	-0.510030	0.204229
C64	C	0.398664	-0.457686	0.255926
H65	H	0.588095	-0.510015	0.204216
H66	H	0.514586	-0.601106	0.114249
H67	H	0.367460	-0.601116	0.114256
H68	H	0.293838	-0.510033	0.204233
H69	H	0.367347	-0.418942	0.294200
C70	C	0.958241	-0.804148	0.459850
C71	C	0.966527	-0.823657	0.541720
C72	C	0.910399	-0.794367	0.597930
C73	C	0.845984	-0.745569	0.572268
C74	C	0.837696	-0.726058	0.490394
C75	C	0.893824	-0.755348	0.434184
H76	H	1.014212	-0.859782	0.560720
H77	H	0.916535	-0.808811	0.658539
H78	H	0.804435	-0.723888	0.613878
H79	H	0.790010	-0.689933	0.471394
H80	H	0.887688	-0.740904	0.373575
H81	H	1.096704	-0.904520	0.478398
H82	H	0.978110	-0.443882	0.923965
H83	H	0.494080	-0.271438	0.439889
H84	H	1.030412	-0.811720	0.230604
H85	H	1.187513	-0.811828	0.387806
H86	H	1.154460	-0.904334	0.263739
H87	H	0.978050	-0.443861	0.784522
C88	C	0.919767	-0.912135	0.315928
C89	C	0.852953	-0.892643	0.364030
C90	C	0.776271	-0.921947	0.343476
C91	C	0.766401	-0.970743	0.274820
C92	C	0.833216	-0.990237	0.226713
C93	C	0.909899	-0.960933	0.247267
H94	H	0.860258	-0.856520	0.414858
H95	H	0.726810	-0.907516	0.379088
H96	H	0.709636	-0.992435	0.259605
H97	H	0.825912	-1.026360	0.175886
H98	H	0.959360	-0.975364	0.211655
H99	H	1.148943	-0.271668	0.784501
