data_functionalizedCrystal
_audit_creation_method	'MofGen! by Chris Wilmer'
_symmetry_space_group_name_H-M	'P1'
_symmetry_Int_Tables_number	1
_symmetry_cell_setting	triclinic
loop_
_symmetry_equiv_pos_as_xyz
  x,y,z
_cell_length_a	8.497374
_cell_length_b	10.686285
_cell_length_c	10.686220
_cell_angle_alpha	90.345431
_cell_angle_beta	94.365928
_cell_angle_gamma	85.626860
loop_
_atom_site_label
_atom_site_type_symbol
_atom_site_fract_x
_atom_site_fract_y
_atom_site_fract_z
Zn1	Zn	0.670936	0.352260	-1.956019
Zn2	Zn	1.170936	0.852260	-1.456019
Zn3	Zn	0.385530	0.561976	-1.972080
Zn4	Zn	0.885530	1.061976	-1.472080
Zn5	Zn	0.425706	0.368352	-1.746303
Zn6	Zn	0.925706	0.868352	-1.246303
Zn7	Zn	0.667804	0.578080	-1.762345
Zn8	Zn	1.167804	1.078080	-1.262345
O9	O	0.537494	0.465167	-1.859187
O10	O	1.037494	0.965167	-1.359187
O11	O	0.617574	0.366604	-2.133691
O12	O	1.117574	0.866604	-1.633691
O13	O	0.170096	0.536286	-1.942138
O14	O	0.670096	1.036286	-1.442138
O15	O	0.476361	0.190679	-1.760688
O16	O	0.976361	0.690679	-1.260688
O17	O	0.407887	0.520682	-2.145490
O18	O	0.907887	1.020682	-1.645490
O19	O	0.656531	0.178855	-1.914765
O20	O	1.156531	0.678855	-1.414765
O21	O	0.199614	0.394032	-1.776261
O22	O	0.699614	0.894032	-1.276261
O23	O	0.473323	0.409648	-1.572890
O24	O	0.973323	0.909648	-1.072890
O25	O	0.888982	0.548130	-1.788028
O26	O	1.388982	1.048130	-1.288028
O27	O	0.651192	0.563734	-1.584676
O28	O	1.151192	1.063734	-1.084676
O29	O	0.891283	0.382220	-1.930319
O30	O	1.391283	0.882220	-1.430319
O31	O	0.404849	0.739651	-1.957693
O32	O	0.904849	1.239651	-1.457693
O33	O	0.612235	0.751483	-1.803601
O34	O	1.112235	1.251483	-1.303601
C35	C	0.503874	0.791080	-1.884165
C36	C	1.003874	1.291080	-1.384165
C37	C	0.489534	0.930498	-1.894965
C38	C	0.989534	1.430498	-1.394965
C39	C	0.566278	0.490185	-1.533267
C40	C	1.066278	0.990185	-1.033267
C41	C	0.578626	0.500919	-1.393839
C42	C	1.078626	1.000919	-0.893839
C43	C	0.508598	0.440052	-2.186379
C44	C	1.008598	0.940052	-1.686379
C45	C	0.496284	0.429349	-2.325809
C46	C	0.996284	0.929349	-1.825809
C47	C	0.948975	0.465170	-1.859177
C48	C	1.448975	0.965170	-1.359177
C49	C	1.127617	0.465183	-1.859181
C50	C	1.627617	0.965183	-1.359181
C51	C	0.571276	0.137979	-1.834145
C52	C	1.071276	0.637979	-1.334145
C53	C	0.585673	-0.001449	-1.823474
C54	C	1.085673	0.498551	-1.323474
H55	H	0.678954	0.950157	-1.754006
H56	H	1.178954	1.450157	-1.254006
H57	H	0.396237	0.978900	-1.964429
H58	H	0.896237	1.478900	-1.464429
H59	H	0.416340	0.359865	-1.374232
H60	H	0.916340	0.859865	-0.874232
C61	C	0.685201	0.593463	-1.329042
C62	C	1.185201	1.093463	-0.829042
C63	C	0.676714	0.586047	-1.198991
C64	C	1.176714	1.086047	-0.698991
C65	C	0.774883	0.671266	-1.139259
C66	C	1.274883	1.171266	-0.639259
H67	H	0.651486	0.676149	-1.356776
H68	H	1.151486	1.176149	-0.856776
H69	H	0.791284	0.573597	-1.348993
H70	H	1.291284	1.073597	-0.848993
H71	H	0.570654	0.605921	-1.179049
H72	H	1.070654	1.105921	-0.679049
H73	H	0.710443	0.503381	-1.171221
H74	H	1.210443	1.003381	-0.671221
H75	H	0.880965	0.651400	-1.159210
H76	H	1.380965	1.151400	-0.659210
H77	H	0.741158	0.753946	-1.167002
H78	H	1.241158	1.253946	-0.667002
H79	H	0.769148	0.666238	-1.051013
H80	H	1.269148	1.166238	-0.551013
