data_functionalizedCrystal
_audit_creation_method	'MofGen! by Chris Wilmer'
_symmetry_space_group_name_H-M	'P1'
_symmetry_Int_Tables_number	1
_symmetry_cell_setting	triclinic
loop_
_symmetry_equiv_pos_as_xyz
  x,y,z
_cell_length_a	16.109301
_cell_length_b	9.065218
_cell_length_c	7.540329
_cell_angle_alpha	90.003038
_cell_angle_beta	89.994987
_cell_angle_gamma	95.761317
loop_
_atom_site_label
_atom_site_type_symbol
_atom_site_fract_x
_atom_site_fract_y
_atom_site_fract_z
O1	O	0.121905	-1.957449	-0.147494
O2	O	0.131904	-1.527922	-0.147497
O3	O	0.005964	-1.754485	-0.147477
O4	O	0.247845	-1.730886	-0.147513
O5	O	0.005963	-1.754472	0.147488
O6	O	0.131903	-1.527909	0.147468
O7	O	0.121903	-1.957435	0.147471
Cu8	Cu	0.126903	-1.742671	0.174402
Cu9	Cu	0.126905	-1.742687	-0.174428
O10	O	0.247843	-1.730873	0.147452
C11	C	-0.025019	-1.753522	0.000006
C12	C	-0.117336	-1.750656	0.000009
C13	C	0.130943	-1.472952	-0.000014
C14	C	0.128069	-1.309179	-0.000015
C15	C	0.122865	-2.012405	-0.000015
C16	C	0.125739	-2.176179	-0.000026
C17	C	-0.338627	-1.878430	-0.000018
C18	C	-0.425368	-1.875726	-0.000033
C19	C	-0.407559	-1.606917	-0.000028
C20	C	-0.320819	-1.609623	-0.000026
C21	C	-0.286356	-1.745384	-0.000012
C22	C	-0.459836	-1.739974	-0.000029
C23	C	-0.553885	-1.737040	-0.000045
C24	C	-0.192301	-1.748318	0.000000
C25	C	0.278826	-1.731835	-0.000036
C26	C	0.371144	-1.734701	-0.000050
N27	N	0.126901	-1.742670	0.419751
N28	N	0.126900	-1.742699	-0.419776
H29	H	-0.310570	-1.988976	-0.000011
H30	H	-0.278258	-1.501274	-0.000026
C31	C	-0.445094	-1.459633	-0.000300
C32	C	-0.494384	-1.450244	-0.152027
C33	C	-0.528981	-1.314595	-0.152320
H34	H	-0.401626	-1.380653	-0.000390
H35	H	-0.478611	-1.452978	0.102510
H36	H	-0.460868	-1.456885	-0.254810
H37	H	-0.537865	-1.529193	-0.151969
H38	H	-0.562499	-1.307940	-0.049510
H39	H	-0.485508	-1.235625	-0.152405
H40	H	-0.562434	-1.308212	-0.255255
C41	C	-0.482259	-2.020020	-0.000129
C42	C	-0.565599	-1.988602	-0.000189
C43	C	-0.618030	-2.121493	-0.000307
H44	H	-0.471817	-2.075792	0.102704
H45	H	-0.471742	-2.075698	-0.103031
H46	H	-0.576112	-1.932947	0.102703
H47	H	-0.576067	-1.932851	-0.103014
H48	H	-0.607513	-2.177172	-0.103209
H49	H	-0.607581	-2.177256	0.102528
H50	H	-0.674582	-2.100195	-0.000364
