data_functionalizedCrystal
_audit_creation_method	'MofGen! by Chris Wilmer'
_symmetry_space_group_name_H-M	'P1'
_symmetry_Int_Tables_number	1
_symmetry_cell_setting	triclinic
loop_
_symmetry_equiv_pos_as_xyz
  x,y,z
_cell_length_a	19.377372
_cell_length_b	23.196402
_cell_length_c	23.196401
_cell_angle_alpha	60.008822
_cell_angle_beta	90.012650
_cell_angle_gamma	72.113939
loop_
_atom_site_label
_atom_site_type_symbol
_atom_site_fract_x
_atom_site_fract_y
_atom_site_fract_z
Zr1	Zr	0.580545	0.802626	-0.161439
O2	O	0.484301	0.894440	-0.239260
O3	O	0.610046	0.691082	-0.137587
O4	O	0.610020	0.811341	-0.257848
O5	O	0.484351	0.774186	-0.024131
O6	O	0.709192	0.840659	-0.272507
O7	O	0.484327	0.774181	-0.118999
O8	O	0.709239	0.625538	-0.057381
O9	O	0.484304	0.989308	-0.239256
O10	O	0.696642	0.766149	-0.138350
O11	O	0.622649	0.744273	-0.056611
O12	O	0.622618	0.885863	-0.198203
O13	O	0.548624	0.863987	-0.116464
Zr14	Zr	0.738750	0.849394	-0.033515
Zr15	Zr	0.738713	0.849385	-0.184819
Zr16	Zr	0.580583	0.802635	-0.010136
Zr17	Zr	0.580549	0.953930	-0.161434
Zr18	Zr	0.738746	0.698090	-0.033521
O19	O	0.709249	0.960938	-0.057368
O20	O	0.709195	0.960926	-0.272502
O21	O	0.484355	0.894453	-0.024126
O22	O	0.834994	0.757580	0.044305
O23	O	0.834941	0.757568	-0.170829
O24	O	0.610100	0.691094	0.077547
O25	O	0.834944	0.877834	-0.170824
O26	O	0.709276	0.840679	0.062893
O27	O	0.610104	0.811361	0.077552
O28	O	0.834968	0.877839	-0.075956
O29	O	0.610026	1.026476	-0.257840
O30	O	0.709269	0.625545	0.062885
O31	O	0.834992	0.662712	0.044301
O32	O	0.834962	0.662705	-0.075965
O33	O	0.484334	0.989315	-0.118990
O34	O	0.610056	1.026483	-0.137574
O35	O	0.696678	0.766157	0.003248
O36	O	0.770671	0.788033	-0.078490
O37	O	0.696646	0.907747	-0.138344
O38	O	0.622653	0.885871	-0.056605
C39	C	0.659642	0.636752	-0.097485
C40	C	0.659640	0.572520	-0.097487
C41	C	0.698259	0.553767	-0.140156
C42	C	0.698266	0.493408	-0.140151
C43	C	0.659640	0.451812	-0.097485
C44	C	0.621020	0.470568	-0.054808
C45	C	0.621020	0.530922	-0.054809
C46	C	0.594928	0.370651	-0.093194
C47	C	0.594926	0.310301	-0.093198
C48	C	0.659641	0.265657	-0.097478
C49	C	0.724358	0.281378	-0.101769
C50	C	0.724358	0.341732	-0.101770
C51	C	0.659636	0.386366	-0.097479
C52	C	0.698271	0.181456	-0.140144
C53	C	0.698280	0.121093	-0.140135
C54	C	0.621027	0.098258	-0.054796
C55	C	0.621025	0.158616	-0.054801
C56	C	0.659645	0.200214	-0.097479
C57	C	0.461804	0.767521	-0.068234
C58	C	0.394657	0.747671	-0.058308
C59	C	-0.019374	0.994825	-0.181882
C60	C	-0.082458	0.976156	-0.172547
C61	C	-0.005173	0.851183	-0.110064
C62	C	0.057919	0.869842	-0.119391
C63	C	0.050812	0.941664	-0.155301
C64	C	0.128105	0.816681	-0.092811
C65	C	0.191192	0.835339	-0.102140
C66	C	0.184092	0.907157	-0.138050
C67	C	0.113898	0.960321	-0.164631
C68	C	0.135211	0.744860	-0.056905
C69	C	0.205397	0.691699	-0.030324
C70	C	0.268485	0.710356	-0.039649
C71	C	0.261385	0.782174	-0.075559
C72	C	0.338678	0.657192	-0.013069
C73	C	0.401765	0.675849	-0.022398
C74	C	0.324471	0.800832	-0.084889
C75	C	0.857491	0.884499	-0.126721
C76	C	0.924638	0.904349	-0.136646
C77	C	0.659600	0.825999	-0.286735
C78	C	0.659584	0.825995	-0.350967
C79	C	0.659653	1.015268	-0.097470
C80	C	0.659655	1.079500	-0.097468
C81	C	0.620948	0.888484	-0.412384
C82	C	0.620966	0.888490	-0.472742
C83	C	0.659612	0.826001	-0.471677
C84	C	0.698257	0.763506	-0.410250
C85	C	0.698243	0.763503	-0.349895
C86	C	0.654122	0.767751	-0.538186
C87	C	0.654131	0.767755	-0.598540
C88	C	0.659658	0.826009	-0.657832
C89	C	0.665163	0.884268	-0.656766
C90	C	0.665149	0.884265	-0.596411
C91	C	0.659631	0.825998	-0.537119
C92	C	0.621040	0.888509	-0.784698
C93	C	0.621064	0.888514	-0.845056
C94	C	0.698350	0.763526	-0.782562
C95	C	0.698330	0.763525	-0.722206
C96	C	0.659672	0.826017	-0.723279
C97	C	0.659695	0.826021	0.091780
C98	C	0.659711	0.826025	0.156012
C99	C	0.857486	0.695241	-0.126729
C100	C	0.924631	0.650859	-0.136656
C101	C	0.659689	0.636763	0.091773
C102	C	0.659704	0.572535	0.156002
C103	C	0.857533	0.695252	0.062529
C104	C	0.924694	0.650874	0.116833
C105	C	0.461762	0.956768	-0.257484
C106	C	0.394601	1.001146	-0.311788
C107	C	0.461809	0.956779	-0.068226
C108	C	0.394665	1.001161	-0.058299
C109	C	0.659606	1.015257	-0.286728
C110	C	0.659591	1.079486	-0.350957
C111	C	0.917520	0.618594	-0.172571
C112	C	0.980603	0.576899	-0.181912
C113	C	1.050797	0.567466	-0.155334
C114	C	1.057906	0.599737	-0.119419
C115	C	0.994823	0.641435	-0.110082
C116	C	0.698353	0.553795	0.217417
C117	C	0.698363	0.493453	0.277774
C118	C	0.659729	0.451849	0.276714
C119	C	0.621075	0.470592	0.215292
C120	C	0.621061	0.530936	0.154938
C121	C	0.994864	0.641454	0.099668
C122	C	1.057974	0.599767	0.150686
C123	C	1.050913	0.567495	0.218869
C124	C	0.980736	0.576918	0.236035
C125	C	0.917627	0.618610	0.185017
C126	C	0.324432	1.010573	-0.294623
C127	C	0.261321	1.052280	-0.345641
C128	C	0.268382	1.084554	-0.413824
C129	C	0.338559	1.075127	-0.430990
C130	C	0.401668	1.033426	-0.379972
C131	C	0.401775	1.033433	-0.022391
C132	C	0.338692	1.075144	-0.013066
C133	C	0.268499	1.084579	-0.039646
C134	C	0.261390	1.052305	-0.075559
C135	C	0.324472	1.010599	-0.084887
C136	C	0.698233	1.121073	-0.349875
C137	C	0.698234	1.181419	-0.410222
C138	C	0.659589	1.200179	-0.471650
C139	C	0.620946	1.158585	-0.472730
C140	C	0.620949	1.098237	-0.412385
H141	H	0.729708	0.587633	-0.174905
Cl142	Cl	0.572358	1.045967	-0.413755
Cl143	Cl	0.572460	0.967074	-0.786045
H144	H	0.589472	0.939371	-0.413263
H145	H	0.458924	1.025755	-0.000740
Cl146	Cl	1.003775	0.681988	-0.064924
Cl147	Cl	0.347646	1.115706	0.032086
H148	H	0.659746	0.402715	0.325864
H149	H	0.860371	0.626274	-0.194223
H150	H	0.729814	0.587665	0.218294
Cl151	Cl	0.347423	1.115703	-0.516710
Cl152	Cl	0.489879	1.021575	-0.401564
H153	H	0.204230	1.059994	-0.097198
Cl154	Cl	0.971650	0.536334	-0.227060
H155	H	0.589502	0.939377	-0.522756
Cl156	Cl	0.672070	0.957499	-0.595070
H157	H	0.204186	1.059946	-0.331651
Cl158	Cl	1.130259	0.515083	0.282999
Cl159	Cl	0.214323	0.601412	0.014817
Cl160	Cl	0.315521	0.970027	-0.130026
H161	H	0.589620	0.436709	0.214439
Cl162	Cl	0.659589	1.276049	-0.547508
Cl163	Cl	1.130094	0.515041	-0.167076
Cl164	Cl	0.572473	0.554482	0.077732
Cl165	Cl	1.003759	0.682023	0.013956
H166	H	0.729842	0.478202	0.327780
Cl167	Cl	0.746827	0.469821	-0.193790
Cl168	Cl	1.146187	0.587926	0.129092
H169	H	0.974998	0.550637	0.291556
H170	H	0.589605	0.939403	-0.895066
H171	H	0.860494	0.626271	0.199003
H172	H	0.217139	1.118541	-0.032045
Cl173	Cl	0.315536	0.970005	-0.208910
H174	H	0.729703	1.105810	-0.299864
H175	H	0.216988	1.118509	-0.455360
H176	H	0.589481	1.173869	-0.522753
Cl177	Cl	0.805714	0.361491	-0.107159
Cl178	Cl	0.805720	0.225261	-0.107153
H179	H	0.729721	0.215325	-0.174893
H180	H	0.649615	0.720312	-0.489911
H181	H	0.649645	0.720319	-0.599403
H182	H	0.729701	1.215280	-0.409329
Cl183	Cl	0.746831	0.097521	-0.193783
H184	H	0.589577	0.064391	-0.020056
H185	H	0.589574	0.173886	-0.020058
H186	H	0.542221	0.407006	-0.089722
Cl187	Cl	0.513567	0.290546	-0.087808
H188	H	0.669660	0.931705	-0.705043
H189	H	0.729789	0.712639	-0.672197
Cl190	Cl	0.572467	0.554498	-0.001164
Cl191	Cl	0.315541	0.891124	-0.130025
Cl192	Cl	0.572468	0.418272	-0.001166
H193	H	0.108109	1.018806	-0.193852
Cl194	Cl	-0.028304	1.085117	-0.227018
Cl195	Cl	0.263400	0.930614	-0.149782
H196	H	0.729816	0.712647	-0.781694
H197	H	-0.139608	1.019451	-0.194196
H198	H	0.000603	0.792706	-0.080828
Cl199	Cl	1.146154	0.587868	-0.086007
H200	H	0.344454	0.598715	0.016163
Cl201	Cl	0.490003	0.609017	0.011015
Cl202	Cl	0.746842	0.684949	-0.408912
Cl203	Cl	0.746813	0.684938	-0.272679
Cl204	Cl	0.055901	0.721405	-0.045183
