data_functionalizedCrystal
_audit_creation_method	'MofGen! by Chris Wilmer'
_symmetry_space_group_name_H-M	'P1'
_symmetry_Int_Tables_number	1
_symmetry_cell_setting	triclinic
loop_
_symmetry_equiv_pos_as_xyz
  x,y,z
_cell_length_a	19.188905
_cell_length_b	27.731996
_cell_length_c	17.666332
_cell_angle_alpha	89.992382
_cell_angle_beta	89.986307
_cell_angle_gamma	82.877971
loop_
_atom_site_label
_atom_site_type_symbol
_atom_site_fract_x
_atom_site_fract_y
_atom_site_fract_z
O1	O	0.925758	0.060289	-0.063083
O2	O	0.722390	0.068425	-0.063058
O3	O	0.830409	-0.006023	-0.063055
O4	O	0.817739	0.134737	-0.063086
O5	O	0.830395	-0.006020	0.062842
O6	O	0.722376	0.068428	0.062838
O7	O	0.925743	0.060291	0.062814
Cu8	Cu	0.824058	0.064360	0.074322
Cu9	Cu	0.824075	0.064357	-0.074566
O10	O	0.817724	0.134739	0.062811
C11	C	0.696373	0.068165	-0.000106
C12	C	0.618873	0.067380	-0.000096
C13	C	0.582491	0.067002	-0.068725
C14	C	0.509673	0.066259	-0.068734
C15	C	0.473240	0.065885	-0.000111
C16	C	0.509630	0.066266	0.068526
C17	C	0.582446	0.067014	0.068534
N18	N	0.364405	0.037203	0.050965
N19	N	0.295233	0.036492	0.050953
C20	C	0.253848	0.063633	-0.000129
N21	N	0.284251	0.091506	-0.051210
N22	N	0.353430	0.092215	-0.051201
C23	C	0.394283	0.065074	-0.000111
C24	C	0.138509	0.062450	-0.068772
C25	C	0.065688	0.061710	-0.068778
C26	C	0.065648	0.061712	0.068484
C27	C	0.138466	0.062457	0.068488
C28	C	0.174892	0.062823	-0.000142
C29	C	0.830141	-0.024029	-0.000104
C30	C	0.829357	-0.077688	-0.000096
C31	C	0.824433	-0.410420	-0.068759
C32	C	0.821456	-0.612088	-0.068772
O33	O	0.821048	-0.638161	-0.127136
N34	N	0.821078	-0.637305	-0.000146
C35	C	0.821441	-0.612101	0.068488
O36	O	0.821044	-0.638176	0.126858
C37	C	0.824412	-0.410434	0.068500
C38	C	0.824797	-0.385221	-0.000130
C39	C	0.824817	-0.385207	-0.137383
C40	C	0.825565	-0.334793	-0.137380
C41	C	0.825929	-0.309594	-0.068751
C42	C	0.825545	-0.334807	-0.000126
C43	C	0.824770	-0.385231	0.137133
C44	C	0.825511	-0.334811	0.137130
C45	C	0.825895	-0.309598	0.068500
C46	C	0.826657	-0.259194	0.068506
N47	N	0.827035	-0.233977	-0.000120
C48	C	0.826671	-0.259177	-0.068748
C49	C	0.819882	-0.717979	0.068477
C50	C	0.819140	-0.768396	0.068474
C51	C	0.819154	-0.768379	-0.068786
C52	C	0.819901	-0.717962	-0.068783
C53	C	0.820259	-0.692762	-0.000149
C54	C	0.828242	-0.153305	-0.068735
C55	C	0.828993	-0.102888	-0.068725
C56	C	0.828975	-0.102909	0.068535
C57	C	0.828228	-0.153322	0.068525
C58	C	0.827859	-0.178519	-0.000116
O59	O	0.827058	-0.233089	0.126840
O60	O	0.827052	-0.233092	-0.127109
C61	C	0.823685	-0.460834	-0.068763
C62	C	0.823301	-0.486048	-0.000138
C63	C	0.823665	-0.460848	0.068490
C64	C	0.822559	-0.536464	-0.000141
C65	C	0.822195	-0.561664	-0.068770
C66	C	0.822573	-0.536447	-0.137395
C67	C	0.823321	-0.486034	-0.137391
C68	C	0.823288	-0.486065	0.137116
C69	C	0.822540	-0.536478	0.137107
C70	C	0.822176	-0.561678	0.068478
C71	C	0.951760	0.060551	-0.000139
C72	C	1.029260	0.061336	-0.000155
C73	C	0.817992	0.152746	-0.000142
C74	C	0.818776	0.206405	-0.000155
N75	N	0.824051	0.064361	0.179041
N76	N	0.824087	0.064351	-0.179285
C77	C	0.866108	0.093590	0.781078
C78	C	0.866101	0.093594	0.701830
C79	C	0.824081	0.064352	0.662222
C80	C	0.782053	0.035112	0.701869
C81	C	0.782056	0.035111	0.781115
N82	N	0.822672	0.022009	0.537808
N83	N	0.822674	0.022010	0.462527
C84	C	0.824069	0.064352	0.423458
N85	N	0.825477	0.106692	0.462514
N86	N	0.825479	0.106690	0.537801
C87	C	0.824073	0.064349	0.576293
C88	C	0.866084	0.093598	0.297893
C89	C	0.866072	0.093604	0.218643
C90	C	0.782028	0.035117	0.218683
C91	C	0.782036	0.035115	0.297931
C92	C	0.824068	0.064355	0.337531
H93	H	0.035984	0.061410	0.124358
O94	O	0.474434	0.065871	-0.135470
C95	C	0.482148	0.065973	-0.271612
C96	C	0.522142	0.066400	-0.196090
H97	H	0.520700	0.066410	-0.320643
H98	H	0.454852	0.031793	-0.275087
H99	H	0.441268	0.099436	-0.275013
H100	H	0.563055	0.032960	-0.192639
H101	H	0.549390	0.100601	-0.192647
O102	O	0.906925	0.122048	0.336248
C103	C	0.990315	0.180036	0.327847
C104	C	0.944084	0.147849	0.284318
H105	H	1.020382	0.200896	0.285880
H106	H	0.955716	0.206825	0.364936
H107	H	1.029114	0.156183	0.364957
H108	H	0.905280	0.171662	0.247166
H109	H	0.978728	0.121056	0.247277
O110	O	0.741099	0.006767	0.180257
C111	C	0.623799	-0.011914	0.156105
C112	C	0.670073	0.020232	0.199657
H113	H	0.566366	-0.001047	0.171786
H114	H	0.630945	-0.006890	0.092646
H115	H	0.639840	-0.051633	0.171682
H116	H	0.654061	0.059963	0.184144
H117	H	0.662922	0.015165	0.263105
O118	O	0.906966	0.121926	0.663234
C119	C	1.001237	0.124532	0.573770
C120	C	0.954994	0.092392	0.617415
H121	H	1.040088	0.100666	0.536726
H122	H	0.966646	0.151284	0.536619
H123	H	1.031243	0.145442	0.615701
H124	H	0.924980	0.071451	0.575538
H125	H	0.989621	0.065670	0.654577
H126	H	0.818837	-0.788921	0.124359
H127	H	0.827921	-0.173853	0.124409
O128	O	0.173827	0.062903	0.135135
C129	C	0.247671	0.105597	0.214774
C130	C	0.207642	0.105157	0.139275
H131	H	0.275032	0.139751	0.218140
H132	H	0.209152	0.105233	0.263852
H133	H	0.288504	0.072109	0.218201
H134	H	0.166809	0.138639	0.135775
H135	H	0.246203	0.105497	0.090233
O136	O	0.820270	-0.693582	0.135220
C137	C	0.820152	-0.698931	0.271360
C138	C	0.819721	-0.726618	0.195829
H139	H	0.819694	-0.725627	0.320383
H140	H	0.869395	-0.679877	0.274839
H141	H	0.771632	-0.670782	0.274772
H142	H	0.868208	-0.754790	0.192367
H143	H	0.770446	-0.745638	0.192383
H144	H	0.747839	0.011303	0.669615
H145	H	0.825792	-0.314296	0.193021
O146	O	0.741305	0.006636	0.336406
C147	C	0.714914	-0.074669	0.360649
C148	C	0.761106	-0.042475	0.317041
H149	H	0.730896	-0.114380	0.344997
H150	H	0.722142	-0.069687	0.424099
H151	H	0.657466	-0.063763	0.345094
H152	H	0.818571	-0.053360	0.332533
H153	H	0.753818	-0.047460	0.253601
H154	H	0.612068	0.067322	0.124421
O155	O	0.824558	-0.409743	-0.204007
C156	C	0.884276	-0.472234	-0.283711
C157	C	0.884639	-0.444497	-0.208219
H158	H	0.932853	-0.500332	-0.287148
H159	H	0.835082	-0.491343	-0.287163
H160	H	0.884643	-0.445533	-0.332737
H161	H	0.884297	-0.471166	-0.159150
H162	H	0.933829	-0.425381	-0.204833
H163	H	0.747836	0.011301	0.813387
H164	H	0.825875	-0.314269	-0.193265
H165	H	0.829308	-0.082361	-0.124614
H166	H	0.168168	0.062753	-0.124654
H167	H	0.612145	0.067300	-0.124609
O168	O	0.824361	-0.409638	0.203869
C169	C	0.824448	-0.404314	0.340010
C170	C	0.824897	-0.376614	0.264481
H171	H	0.824896	-0.377627	0.389035
H172	H	0.775203	-0.423368	0.343498
H173	H	0.872966	-0.432465	0.343409
H174	H	0.776412	-0.348440	0.261032
H175	H	0.874173	-0.357593	0.261026
H176	H	0.818858	-0.788905	-0.124666
H177	H	0.900288	0.117416	0.186373
H178	H	0.829275	-0.082383	0.124410
O179	O	0.823552	-0.461566	-0.204090
C180	C	0.763271	-0.440591	-0.321416
C181	C	0.762922	-0.468302	-0.245888
H182	H	0.714264	-0.446036	-0.355238
H183	H	0.763815	-0.400213	-0.309712
H184	H	0.812026	-0.455039	-0.355237
H185	H	0.714175	-0.453895	-0.212029
H186	H	0.762414	-0.508676	-0.257645
O187	O	0.030457	0.061322	-0.135515
C188	C	0.038181	0.061416	-0.271657
C189	C	0.078169	0.061846	-0.196132
H190	H	0.076737	0.061851	-0.320685
H191	H	0.010882	0.027238	-0.275131
H192	H	-0.002697	0.094881	-0.275064
H193	H	0.119081	0.028406	-0.192674
H194	H	0.105419	0.096047	-0.192690
H195	H	0.823585	-0.465552	0.193003
O196	O	0.474347	0.065923	0.135254
C197	C	0.481996	0.065976	0.271398
C198	C	0.522037	0.066373	0.195881
H199	H	0.520538	0.066329	0.320434
H200	H	0.441146	0.099454	0.274871
H201	H	0.454659	0.031811	0.274791
H202	H	0.549416	0.100516	0.192437
H203	H	0.562847	0.032872	0.192440
O204	O	0.827904	-0.177704	-0.135479
C205	C	0.827930	-0.172346	-0.271620
C206	C	0.828334	-0.144658	-0.196088
H207	H	0.828263	-0.145639	-0.320642
H208	H	0.876469	-0.200476	-0.275128
H209	H	0.778705	-0.191424	-0.275001
H210	H	0.877527	-0.125551	-0.192656
H211	H	0.779763	-0.116556	-0.192612
H212	H	0.822279	-0.556974	-0.193275
H213	H	0.820213	-0.697436	-0.124667
H214	H	0.822233	-0.557004	0.192998
H215	H	0.900332	0.117400	0.813315
