data_functionalizedCrystal
_audit_creation_method	'MofGen! by Chris Wilmer'
_symmetry_space_group_name_H-M	'P1'
_symmetry_Int_Tables_number	1
_symmetry_cell_setting	triclinic
loop_
_symmetry_equiv_pos_as_xyz
  x,y,z
_cell_length_a	12.759400
_cell_length_b	12.759401
_cell_length_c	12.759393
_cell_angle_alpha	90.018894
_cell_angle_beta	89.968231
_cell_angle_gamma	89.989237
loop_
_atom_site_label
_atom_site_type_symbol
_atom_site_fract_x
_atom_site_fract_y
_atom_site_fract_z
Zn1	Zn	-0.418312	-1.606244	-0.594024
Zn2	Zn	-0.594032	-1.606142	-0.418344
Zn3	Zn	-0.418355	-1.430549	-0.418359
Zn4	Zn	-0.593938	-1.430535	-0.593981
O5	O	-0.506159	-1.518367	-0.506177
O6	O	-0.441643	-1.753251	-0.570731
O7	O	-0.570785	-1.582812	-0.271325
O8	O	-0.271328	-1.453905	-0.441685
O9	O	-0.570743	-1.753176	-0.441660
O10	O	-0.271297	-1.582987	-0.570746
O11	O	-0.441716	-1.453805	-0.271335
O12	O	-0.441625	-1.283526	-0.441643
O13	O	-0.570583	-1.453879	-0.741008
O14	O	-0.570625	-1.283516	-0.570672
O15	O	-0.441552	-1.582972	-0.741039
O16	O	-0.741040	-1.582798	-0.441618
O17	O	-0.740971	-1.453780	-0.570658
C18	C	-0.506120	-1.245400	-0.506155
C19	C	-0.506129	-1.128623	-0.506171
C20	C	-0.439031	-1.073794	-0.573481
C21	C	-0.439045	-0.964069	-0.573485
C22	C	-0.573266	-0.964015	-0.438866
C23	C	-0.573245	-1.073737	-0.438857
C24	C	-0.371915	-1.128680	-0.640795
C25	C	-0.304811	-1.073850	-0.708111
C26	C	-0.304826	-0.964126	-0.708115
C27	C	-0.371943	-0.909232	-0.640803
C28	C	-0.779127	-1.518305	-0.506155
C29	C	-0.895903	-1.518374	-0.506181
C30	C	-0.950766	-1.585629	-0.439064
C31	C	-1.060490	-1.585693	-0.439096
C32	C	-1.060478	-1.451240	-0.573365
C33	C	-0.950756	-1.451182	-0.573337
C34	C	-0.895913	-1.652821	-0.371907
C35	C	-0.950776	-1.720080	-0.304784
C36	C	-1.060500	-1.720144	-0.304817
C37	C	-1.115361	-1.652950	-0.371972
C38	C	-0.232126	-1.518459	-0.506222
C39	C	-0.115349	-1.518497	-0.506241
C40	C	-0.506052	-1.518436	-0.780210
C41	C	-0.506007	-1.518465	-0.896987
C42	C	-0.506186	-0.792401	-0.506193
C43	C	-0.506164	-0.909177	-0.506183
C44	C	-0.438788	-1.451319	-0.951861
C45	C	-0.438757	-1.451351	-1.061585
C46	C	-0.573165	-1.585683	-1.061552
C47	C	-0.573201	-1.585645	-0.951830
C48	C	-0.371593	-1.384139	-0.897018
C49	C	-0.304369	-1.316989	-0.951892
C50	C	-0.304337	-1.317021	-1.061616
C51	C	-0.371531	-1.384203	-1.116466
C52	C	-0.506190	-1.518360	-0.233209
C53	C	-0.505940	-1.518534	-0.116433
H54	H	-0.627911	-0.919311	-0.384065
H55	H	-0.371927	-0.819887	-0.640789
H56	H	-0.906086	-1.396418	-0.627991
Br57	Br	-0.747003	-1.653061	-0.372184
H58	H	-0.906103	-1.774793	-0.250115
H59	H	-1.105167	-1.774917	-0.250170
H60	H	-1.204706	-1.653016	-0.372001
H61	H	-1.105155	-1.396533	-0.628039
Br62	Br	-0.664317	-1.148156	-0.347515
H63	H	-0.249668	-1.262286	-0.907225
H64	H	-0.371609	-1.384108	-0.807675
H65	H	-0.250160	-1.118552	-0.762908
H66	H	-0.249607	-1.262337	-1.106291
Br67	Br	-0.371493	-1.384238	-1.265379
Br68	Br	-0.371899	-1.277591	-0.640801
Br69	Br	-0.664349	-1.676853	-1.135991
H70	H	-0.627922	-1.640335	-0.907150
H71	H	-0.250180	-0.919486	-0.762920
