data_functionalizedCrystal
_audit_creation_method	'MofGen! by Chris Wilmer'
_symmetry_space_group_name_H-M	'P1'
_symmetry_Int_Tables_number	1
_symmetry_cell_setting	triclinic
loop_
_symmetry_equiv_pos_as_xyz
  x,y,z
_cell_length_a	16.109295
_cell_length_b	16.776229
_cell_length_c	16.109301
_cell_angle_alpha	90.008074
_cell_angle_beta	96.539666
_cell_angle_gamma	89.995788
loop_
_atom_site_label
_atom_site_type_symbol
_atom_site_fract_x
_atom_site_fract_y
_atom_site_fract_z
O1	O	-1.103138	0.066236	0.106847
O2	O	-0.603138	0.566236	0.606847
O3	O	-0.861075	0.066250	0.120151
O4	O	-0.361075	0.566250	0.620151
O5	O	-0.988756	0.066235	-0.007532
O6	O	-0.488756	0.566235	0.492468
O7	O	-0.975457	0.066252	0.234530
O8	O	-0.475457	0.566252	0.734530
O9	O	-0.988739	-0.066342	-0.007540
O10	O	-0.488739	0.433658	0.492460
O11	O	-0.861058	-0.066326	0.120143
O12	O	-0.361058	0.433674	0.620143
O13	O	-1.103121	-0.066340	0.106839
O14	O	-0.603121	0.433660	0.606839
Zn15	Zn	-0.982087	-0.087382	0.113490
Zn16	Zn	-0.482087	0.412618	0.613490
Zn17	Zn	-0.982109	0.087293	0.113500
Zn18	Zn	-0.482109	0.587293	0.613500
O19	O	-0.975440	-0.066325	0.234522
O20	O	-0.475440	0.433675	0.734522
C21	C	-0.830092	-0.000036	0.119609
C22	C	-0.330092	0.499964	0.619609
C23	C	-0.737796	-0.000031	0.117996
C24	C	-0.237796	0.499969	0.617996
C25	C	-0.515523	-0.000035	0.190008
C26	C	-0.015523	0.499965	0.690008
C27	C	-0.428803	-0.000040	0.188486
C28	C	0.071197	0.499960	0.688486
C29	C	-0.448677	-0.000047	0.036996
C30	C	0.051323	0.499953	0.536996
C31	C	-0.535396	-0.000048	0.038520
C32	C	-0.035396	0.499952	0.538520
C33	C	-0.568816	-0.000038	0.115028
C34	C	-0.068816	0.499962	0.615028
C35	C	-0.395377	-0.000042	0.111982
C36	C	0.104623	0.499958	0.611982
C37	C	-0.301351	-0.000047	0.110331
C38	C	0.198649	0.499953	0.610331
C39	C	-0.662849	-0.000034	0.116679
C40	C	-0.162849	0.499966	0.616679
N41	N	-0.982078	-0.206594	0.113482
N42	N	-0.482078	0.293406	0.613482
C43	C	-1.038632	-0.248318	0.056967
C44	C	-0.538632	0.251682	0.556967
C45	C	-1.038637	-0.331770	0.056967
C46	C	-0.538637	0.168230	0.556967
C47	C	-0.982090	-0.373497	0.113486
C48	C	-0.482090	0.126503	0.613486
C49	C	-0.925530	-0.331767	0.170003
C50	C	-0.425530	0.168233	0.670003
C51	C	-0.925522	-0.248316	0.169999
C52	C	-0.425522	0.251684	0.669999
C53	C	-0.925560	-0.668314	0.170019
C54	C	-0.425560	-0.168314	0.670019
C55	C	-0.925574	-0.751771	0.170021
C56	C	-0.425574	-0.251771	0.670021
C57	C	-1.038675	-0.751768	0.056987
C58	C	-0.538675	-0.251768	0.556987
C59	C	-1.038667	-0.668317	0.056983
C60	C	-0.538667	-0.168317	0.556983
C61	C	-0.982104	-0.626595	0.113497
C62	C	-0.482104	-0.126595	0.613497
C63	C	-0.982098	-0.536106	0.113496
C64	C	-0.482098	-0.036106	0.613496
C65	C	-0.982099	-0.463983	0.113491
C66	C	-0.482099	0.036017	0.613491
C67	C	-0.134104	-0.000051	0.107386
C68	C	0.365896	0.499949	0.607386
C69	C	-0.226397	-0.000048	0.109014
C70	C	0.273603	0.499952	0.609014
C71	C	-0.988209	-0.000054	-0.038511
C72	C	-0.488209	0.499946	0.461489
C73	C	-0.986594	-0.000055	-0.130806
C74	C	-0.486594	0.499945	0.369194
N75	N	-0.982125	0.206504	0.113501
N76	N	-0.482125	0.706504	0.613501
C77	C	-1.058602	-0.000046	-0.353080
C78	C	-0.558602	0.499954	0.146920
C79	C	-1.057078	-0.000040	-0.439800
C80	C	-0.557078	0.499960	0.060200
C81	C	-0.905588	-0.000034	-0.419923
C82	C	-0.405588	0.499966	0.080077
C83	C	-0.907113	-0.000035	-0.333204
C84	C	-0.407113	0.499965	0.166796
C85	C	-0.983622	-0.000045	-0.299785
C86	C	-0.483622	0.499955	0.200215
C87	C	-0.980573	-0.000038	-0.473225
C88	C	-0.480573	0.499962	0.026775
C89	C	-0.978920	-0.000030	-0.567251
C90	C	-0.478920	0.499970	-0.067251
C91	C	-0.985276	-0.000051	-0.205754
C92	C	-0.485276	0.499949	0.294246
C93	C	-0.975987	-0.000034	0.265501
C94	C	-0.475987	0.499966	0.765501
C95	C	-0.977602	-0.000028	0.357796
C96	C	-0.477602	0.499972	0.857796
H97	H	-0.542731	-0.000032	0.252306
H98	H	-0.042731	0.499968	0.752306
O99	O	-0.864560	-0.623324	0.230981
O100	O	-0.364560	-0.123324	0.730981
H101	H	-0.874044	-0.558285	0.221483
H102	H	-0.374044	-0.058285	0.721483
O103	O	-1.099637	-0.376769	-0.003991
O104	O	-0.599637	0.123231	0.496009
H105	H	-1.090137	-0.441807	0.005496
H106	H	-0.590137	0.058193	0.505496
O107	O	-0.412631	-0.000056	-0.045521
O108	O	0.087369	0.499944	0.454479
H109	H	-0.373607	0.053983	-0.049840
H110	H	0.126393	0.553983	0.450160
O111	O	-0.826237	-0.000044	-0.275717
O112	O	-0.326237	0.499956	0.224283
H113	H	-0.789621	0.053988	-0.287590
H114	H	-0.289621	0.553988	0.212410
H115	H	-0.385414	-0.000039	0.249542
H116	H	0.114586	0.499961	0.749542
H117	H	-0.578790	-0.000052	-0.022542
H118	H	-0.078790	0.499948	0.477458
H119	H	-1.084682	-0.214349	0.010947
H120	H	-0.584682	0.285651	0.510947
H121	H	-1.084715	-0.634346	0.010963
H122	H	-0.584715	-0.134346	0.510963
O123	O	-1.137951	-0.000044	-0.497279
O124	O	-0.637951	0.499956	0.002721
H125	H	-1.124042	-0.000033	-0.563196
H126	H	-0.624042	0.499967	-0.063196
O127	O	-1.099678	-0.796767	-0.003980
O128	O	-0.599678	-0.296767	0.496020
H129	H	-1.090181	-0.861805	0.005508
H130	H	-0.590181	-0.361805	0.505508
O131	O	-0.864595	-0.796781	0.230995
O132	O	-0.364595	-0.296781	0.730995
H133	H	-0.825262	-0.753750	0.270294
H134	H	-0.325262	-0.253750	0.770294
O135	O	-0.864541	-0.376766	0.230969
O136	O	-0.364541	0.123234	0.730969
H137	H	-0.874054	-0.441805	0.221486
H138	H	-0.374054	0.058195	0.721486
H139	H	-0.879469	-0.214345	0.216018
H140	H	-0.379469	0.285655	0.716018
H141	H	-1.120900	-0.000053	-0.325874
H142	H	-0.620900	0.499947	0.174126
O143	O	-0.823070	-0.000040	-0.455966
O144	O	-0.323070	0.499960	0.044034
H145	H	-0.834604	-0.000051	-0.525221
H146	H	-0.334604	0.499949	-0.025221
