data_functionalizedCrystal
_audit_creation_method	'MofGen! by Chris Wilmer'
_symmetry_space_group_name_H-M	'P1'
_symmetry_Int_Tables_number	1
_symmetry_cell_setting	triclinic
loop_
_symmetry_equiv_pos_as_xyz
  x,y,z
_cell_length_a	16.109301
_cell_length_b	17.038272
_cell_length_c	15.186229
_cell_angle_alpha	89.995962
_cell_angle_beta	89.999362
_cell_angle_gamma	87.286518
loop_
_atom_site_label
_atom_site_type_symbol
_atom_site_fract_x
_atom_site_fract_y
_atom_site_fract_z
O1	O	1.110268	0.100495	-0.073174
O2	O	0.869094	0.113001	-0.073188
O3	O	0.988247	-0.007067	-0.073174
O4	O	0.991114	0.220563	-0.073187
O5	O	0.988239	-0.007069	0.073284
O6	O	0.869085	0.113000	0.073270
O7	O	1.110259	0.100493	0.073284
Zn8	Zn	0.989671	0.106746	0.096530
Zn9	Zn	0.989682	0.106748	-0.096434
O10	O	0.991105	0.220562	0.073270
C11	C	0.838079	0.112494	0.000039
C12	C	0.745676	0.110975	0.000034
C13	C	0.528212	0.178690	0.000040
C14	C	0.441390	0.177257	0.000046
C15	C	0.451147	0.034799	0.000051
C16	C	0.537968	0.036233	0.000051
C17	C	0.576498	0.108181	0.000042
C18	C	0.402855	0.105314	0.000047
C19	C	0.308719	0.103759	0.000053
C20	C	0.670640	0.109736	0.000037
C21	C	0.985636	-0.036196	0.000055
C22	C	0.977857	-0.122989	0.000054
C23	C	1.049277	-0.173104	0.000059
C24	C	1.041963	-0.254654	0.000050
C25	C	0.963228	-0.286089	0.000043
C26	C	0.891802	-0.235967	0.000035
C27	C	0.899116	-0.154418	0.000038
C28	C	0.937385	-0.531846	0.000029
C29	C	0.930076	-0.613402	0.000029
C30	C	1.080238	-0.632083	0.000043
C31	C	1.087546	-0.550532	0.000051
C32	C	1.016120	-0.500418	0.000038
C33	C	0.955749	-0.369446	0.000037
C34	C	1.023599	-0.417062	0.000038
C35	C	1.141274	0.101001	0.000055
C36	C	1.233677	0.102519	0.000054
C37	C	0.993717	0.249691	0.000039
C38	C	1.001496	0.336484	0.000034
N39	N	0.989669	0.106744	0.228223
N40	N	0.989690	0.106744	-0.228126
C41	C	1.042451	0.053596	0.453952
C42	C	1.042453	0.053594	0.546141
C43	C	0.936902	0.159895	0.546138
C44	C	0.936896	0.159893	0.453950
C45	C	0.989675	0.106744	0.407859
C46	C	0.989684	0.106745	0.592237
C47	C	0.989686	0.106743	0.692193
C48	C	0.989672	0.106744	0.307897
H49	H	1.113392	-0.147517	0.000071
H50	H	0.402079	0.234672	0.000047
H51	H	0.827693	-0.261567	0.000023
H52	H	0.577284	-0.021187	0.000055
O53	O	0.879221	-0.399888	0.000151
C54	C	0.835335	-0.374306	0.076014
H55	H	0.861989	-0.317754	0.101308
H56	H	0.841628	-0.421504	0.129124
C57	C	0.710157	-0.428454	0.021902
C58	C	0.742888	-0.358992	0.052965
H59	H	0.653130	-0.419010	0.007686
H60	H	0.739724	-0.445692	-0.029207
H61	H	0.715408	-0.467779	0.066166
H62	H	0.737646	-0.319671	0.008697
H63	H	0.713318	-0.341746	0.104066
O64	O	0.413584	-0.035019	0.000014
C65	C	0.326599	-0.021167	0.000033
H66	H	0.310549	0.039853	-0.027696
H67	H	0.302190	-0.024954	0.070295
C68	C	0.305948	-0.158293	-0.023346
C69	C	0.286235	-0.083350	-0.057410
H70	H	0.281049	-0.196652	-0.058776
H71	H	0.364551	-0.167626	-0.023355
H72	H	0.285606	-0.161438	0.035205
H73	H	0.306586	-0.080204	-0.115956
H74	H	0.227634	-0.074018	-0.057412
O75	O	1.111404	-0.303253	-0.000058
C76	C	1.158866	-0.289012	-0.075912
H77	H	1.142826	-0.227144	-0.101199
H78	H	1.144354	-0.333610	-0.129031
C79	C	1.271682	-0.372770	-0.021797
C80	C	1.251987	-0.296781	-0.052852
H81	H	1.329123	-0.377566	-0.007575
H82	H	1.239705	-0.382368	0.029306
H83	H	1.259582	-0.409927	-0.066068
H84	H	1.264077	-0.259626	-0.008577
H85	H	1.283968	-0.287177	-0.103947
H86	H	1.085427	0.010315	0.583667
O87	O	1.093738	0.001889	0.409315
C88	C	1.140333	-0.045008	0.469771
H89	H	1.106188	-0.045897	0.535488
H90	H	1.203890	-0.019607	0.479567
C91	C	1.193437	-0.128259	0.353087
C92	C	1.151496	-0.129355	0.433800
H93	H	1.200327	-0.180287	0.330898
H94	H	1.162049	-0.096662	0.312356
H95	H	1.246397	-0.107088	0.361262
H96	H	1.098534	-0.150517	0.425622
H97	H	1.182877	-0.160958	0.474530
O98	O	0.829654	-0.105846	0.000072
C99	C	0.758590	-0.151075	0.000042
H100	H	0.775382	-0.211946	0.027774
H101	H	0.734736	-0.156873	-0.070224
C102	C	0.669880	-0.035659	0.023406
C103	C	0.690503	-0.110420	0.057474
H104	H	0.627878	-0.010581	0.058829
H105	H	0.717756	-0.005187	0.023422
H106	H	0.650006	-0.040501	-0.035149
H107	H	0.710385	-0.105576	0.116022
H108	H	0.642628	-0.140891	0.057468
O109	O	1.164094	-0.520129	0.000022
C110	C	1.225565	-0.581850	0.000051
H111	H	1.198347	-0.637239	-0.027687
H112	H	1.247860	-0.593404	0.070317
C113	C	1.332793	-0.490811	-0.023299
C114	C	1.299365	-0.558840	-0.057375
H115	H	1.378318	-0.476617	-0.058718
H116	H	1.291379	-0.449228	-0.023315
H117	H	1.351365	-0.500449	0.035256
H118	H	1.280784	-0.549199	-0.115924
H119	H	1.340778	-0.600421	-0.057370
H120	H	1.087705	-0.391465	0.000025
O121	O	1.149532	-0.680875	0.000008
C122	C	1.126197	-0.759593	0.000026
H123	H	1.060675	-0.762702	-0.027703
H124	H	1.127679	-0.783185	0.070288
C125	C	1.267692	-0.805697	-0.023352
C126	C	1.187219	-0.809515	-0.057416
H127	H	1.305334	-0.836493	-0.058781
H128	H	1.283414	-0.752663	-0.023361
H129	H	1.268915	-0.825355	0.035199
H130	H	1.185994	-0.789848	-0.115962
H131	H	1.171498	-0.862547	-0.057419
H132	H	0.865956	-0.638991	0.000037
O133	O	0.885720	0.211497	0.591049
C134	C	0.897028	0.200093	0.682301
H135	H	0.961060	0.170887	0.694889
H136	H	0.847199	0.160869	0.708473
C137	C	0.811548	0.315942	0.714159
C138	C	0.890197	0.280078	0.729621
H139	H	0.807331	0.365279	0.743350
H140	H	0.803927	0.323624	0.652681
H141	H	0.770033	0.283247	0.735970
H142	H	0.931710	0.312767	0.707801
H143	H	0.897825	0.272403	0.791096
H144	H	0.893916	0.203173	0.416419
H145	H	0.879224	-0.491053	0.000019
O146	O	0.565508	0.248645	0.000077
C147	C	0.504267	0.310569	0.000056
H148	H	0.443809	0.288662	0.027784
H149	H	0.493534	0.332323	-0.070206
C150	C	0.607796	0.405326	0.023438
C151	C	0.533542	0.378421	0.057500
H152	H	0.625854	0.447183	0.058868
H153	H	0.649056	0.363607	0.023448
H154	H	0.598841	0.423448	-0.035114
H155	H	0.542500	0.360291	0.116046
H156	H	0.492284	0.420139	0.057500
