data_functionalizedCrystal
_audit_creation_method	'MofGen! by Chris Wilmer'
_symmetry_space_group_name_H-M	'P1'
_symmetry_Int_Tables_number	1
_symmetry_cell_setting	triclinic
loop_
_symmetry_equiv_pos_as_xyz
  x,y,z
_cell_length_a	15.944551
_cell_length_b	16.109301
_cell_length_c	15.186229
_cell_angle_alpha	89.994833
_cell_angle_beta	89.998867
_cell_angle_gamma	96.519890
loop_
_atom_site_label
_atom_site_type_symbol
_atom_site_fract_x
_atom_site_fract_y
_atom_site_fract_z
O1	O	1.114487	-0.107227	0.073140
O2	O	0.869933	-0.120447	0.073162
O3	O	0.998929	0.007192	0.073141
O4	O	0.985492	-0.234866	0.073160
O5	O	0.998920	0.007194	-0.073316
O6	O	0.869925	-0.120445	-0.073295
O7	O	1.114479	-0.107225	-0.073318
Zn8	Zn	0.992200	-0.113835	-0.096560
Zn9	Zn	0.992212	-0.113837	0.096404
O10	O	0.985484	-0.234864	-0.073297
C11	C	0.838635	-0.119897	-0.000064
C12	C	0.745390	-0.118252	-0.000056
N13	N	0.992199	-0.113833	-0.228252
C14	C	0.998380	0.038168	-0.000088
C15	C	0.996748	0.130464	-0.000089
C16	C	0.530561	-0.035203	-0.000079
C17	C	0.469532	-0.073769	0.072135
C18	C	0.574665	-0.115275	-0.000066
C19	C	0.469546	-0.073786	-0.072261
C20	C	0.409753	-0.112394	-0.000081
C21	C	0.514865	-0.153864	0.072207
C22	C	0.514885	-0.153870	-0.072253
C23	C	0.453874	-0.192494	-0.000021
C24	C	0.669667	-0.116933	-0.000058
C25	C	0.314753	-0.110743	-0.000083
C26	C	1.145777	-0.107775	-0.000090
C27	C	1.239022	-0.109420	-0.000092
C28	C	0.986032	-0.265840	-0.000066
C29	C	0.987664	-0.358136	-0.000059
C30	C	1.069497	0.352712	-0.000082
C31	C	1.067958	0.439433	-0.000074
C32	C	0.914909	0.419608	-0.000064
C33	C	0.916450	0.332889	-0.000065
C34	C	0.993746	0.299444	-0.000078
C35	C	0.990666	0.472884	-0.000070
C36	C	0.988996	0.566910	-0.000062
C37	C	0.995417	0.205411	-0.000085
C38	C	1.049337	-0.057333	-0.453984
C39	C	1.049340	-0.057331	-0.546174
C40	C	0.935075	-0.170335	-0.546165
C41	C	0.935070	-0.170332	-0.453977
C42	C	0.992205	-0.113833	-0.407889
C43	C	0.992214	-0.113833	-0.592267
C44	C	0.992216	-0.113832	-0.692223
C45	C	0.992202	-0.113833	-0.307927
N46	N	0.992220	-0.113833	0.228097
H47	H	0.563915	0.031251	0.000005
O48	O	1.104881	-0.002544	-0.409155
C49	C	1.219500	0.015158	-0.304967
C50	C	1.156680	-0.046998	-0.355706
H51	H	1.261384	-0.020758	-0.261727
H52	H	1.260396	0.055555	-0.353689
H53	H	1.183177	0.056701	-0.261873
H54	H	1.192935	-0.088595	-0.398800
H55	H	1.115785	-0.087336	-0.306935
O56	O	0.879488	-0.225107	-0.409153
C57	C	0.764809	-0.242732	-0.305024
C58	C	0.827691	-0.180615	-0.355749
H59	H	0.722926	-0.206785	-0.261821
H60	H	0.723917	-0.283110	-0.353757
H61	H	0.801079	-0.284298	-0.261896
H62	H	0.791489	-0.138995	-0.398879
H63	H	0.868582	-0.140295	-0.306969
H64	H	1.129642	0.482802	-0.000075
O65	O	1.104725	-0.002368	-0.590990
C66	C	1.122649	0.111137	-0.695122
C67	C	1.059832	0.048947	-0.644408
H68	H	1.086378	0.152630	-0.738336
H69	H	1.163469	0.151578	-0.646382
H70	H	1.164613	0.075198	-0.738238
H71	H	1.017812	0.084819	-0.601290
H72	H	1.019070	0.008507	-0.693195
O73	O	1.144559	0.320183	-0.000241
C74	C	1.235107	0.233751	-0.076088
C75	C	1.150077	0.270546	-0.076032
H76	H	1.239588	0.193597	-0.137349
H77	H	1.289016	0.286692	-0.076143
H78	H	1.239642	0.193677	-0.014768
H79	H	1.145460	0.310610	-0.137342
H80	H	1.096208	0.217566	-0.075931
O81	O	0.839901	0.452238	-0.000098
C82	C	0.769697	0.577047	-0.000046
C83	C	0.854704	0.540208	-0.000024
H84	H	0.781636	0.648175	0.000032
H85	H	0.732251	0.555172	-0.061351
H86	H	0.732265	0.555054	0.061233
H87	H	0.892204	0.562184	-0.061262
H88	H	0.892086	0.562079	0.061321
O89	O	0.842783	0.281257	-0.000101
C90	C	0.690817	0.270737	-0.000035
C91	C	0.774176	0.329305	-0.000020
H92	H	0.635326	0.309561	0.000049
H93	H	0.687653	0.229661	-0.061341
H94	H	0.687765	0.229621	0.061244
H95	H	0.777284	0.370473	-0.061257
H96	H	0.777305	0.370324	0.061326
H97	H	0.534845	-0.187707	0.133325
O98	O	0.879548	-0.225106	-0.591036
C99	C	0.764811	-0.242738	-0.695087
C100	C	0.827660	-0.180616	-0.644344
H101	H	0.722832	-0.206793	-0.738185
H102	H	0.801022	-0.284284	-0.738298
H103	H	0.724011	-0.283136	-0.646289
H104	H	0.868476	-0.140163	-0.693078
H105	H	0.791398	-0.139129	-0.601120
O106	O	0.445607	-0.033236	0.144897
C107	C	0.457917	0.095459	0.227191
C108	C	0.485060	0.049655	0.144747
H109	H	0.489816	0.162479	0.227106
H110	H	0.386463	0.095851	0.226820
H111	H	0.477421	0.061928	0.288719
H112	H	0.465613	0.083151	0.083174
H113	H	0.556511	0.049256	0.145195
H114	H	0.420693	-0.259016	0.000025
O115	O	0.539011	-0.194127	-0.145104
C116	C	0.623334	-0.185155	-0.277169
C117	C	0.596093	-0.139481	-0.194681
H118	H	0.669475	-0.140988	-0.317284
H119	H	0.655216	-0.241925	-0.256409
H120	H	0.565420	-0.206355	-0.318913
H121	H	0.653963	-0.118226	-0.152900
H122	H	0.564181	-0.082749	-0.215502
O123	O	0.445704	-0.033257	-0.145068
C124	C	0.457967	0.095487	-0.227300
C125	C	0.485048	0.049675	-0.144828
H126	H	0.489750	0.162550	-0.227124
H127	H	0.477541	0.062069	-0.288869
H128	H	0.386501	0.095768	-0.226932
H129	H	0.556510	0.049381	-0.145111
H130	H	0.465412	0.083108	-0.083295
