data_functionalizedCrystal
_audit_creation_method	'MofGen! by Chris Wilmer'
_symmetry_space_group_name_H-M	'P1'
_symmetry_Int_Tables_number	1
_symmetry_cell_setting	triclinic
loop_
_symmetry_equiv_pos_as_xyz
  x,y,z
_cell_length_a	11.169417
_cell_length_b	25.639239
_cell_length_c	11.169417
_cell_angle_alpha	90.012392
_cell_angle_beta	90.003712
_cell_angle_gamma	90.039565
loop_
_atom_site_label
_atom_site_type_symbol
_atom_site_fract_x
_atom_site_fract_y
_atom_site_fract_z
Zn1	Zn	1.834535	-0.208235	0.678484
Zn2	Zn	1.834381	-0.295644	0.477777
Zn3	Zn	1.633877	-0.208226	0.477819
Zn4	Zn	1.633729	-0.295643	0.678422
O5	O	1.734131	-0.251937	0.578125
O6	O	2.002464	-0.219834	0.651869
O7	O	1.807782	-0.284045	0.309833
O8	O	1.660621	-0.135062	0.504481
O9	O	2.002352	-0.284054	0.504410
O10	O	1.808044	-0.135069	0.651909
O11	O	1.660472	-0.219819	0.309863
O12	O	1.465908	-0.219817	0.504420
O13	O	1.660369	-0.284051	0.846380
O14	O	1.465799	-0.284042	0.651802
O15	O	1.807900	-0.219833	0.846425
O16	O	1.807638	-0.368809	0.504349
O17	O	1.660220	-0.368808	0.651762
C18	C	1.422306	-0.251929	0.578110
C19	C	1.288906	-0.251938	0.578132
C20	C	1.733929	-0.387779	0.578070
C21	C	1.733952	-0.445893	0.578087
C22	C	1.811092	-0.806245	0.501498
C23	C	1.811138	-0.860849	0.501514
O24	O	1.876516	-0.889075	0.436336
N25	N	1.734342	-0.888176	0.578205
C26	C	1.657502	-0.860896	0.654893
O27	O	1.592186	-0.889154	0.720126
C28	C	1.657463	-0.806293	0.654882
C29	C	1.734256	-0.778968	0.578178
C30	C	1.887879	-0.778920	0.424801
C31	C	1.887831	-0.724320	0.424784
C32	C	1.810995	-0.697043	0.501464
C33	C	1.734207	-0.724368	0.578161
C34	C	1.580630	-0.779013	0.731575
C35	C	1.580598	-0.724406	0.731558
C36	C	1.657391	-0.697082	0.654854
C37	C	1.657323	-0.642491	0.654823
N38	N	1.734119	-0.615164	0.578132
C39	C	1.810955	-0.642440	0.501453
C40	C	1.657593	-0.975566	0.654911
C41	C	1.657625	-1.030169	0.654917
C42	C	1.811263	-1.030118	0.501540
C43	C	1.811224	-0.975515	0.501529
C44	C	1.734389	-0.948239	0.578221
C45	C	1.810847	-0.527775	0.501421
C46	C	1.810788	-0.473170	0.501407
C47	C	1.657155	-0.473225	0.654789
C48	C	1.657209	-0.527826	0.654799
C49	C	1.734065	-0.555099	0.578111
O50	O	1.591982	-0.614230	0.719972
O51	O	1.876272	-0.614176	0.436241
C52	C	2.047173	-0.251945	0.578141
C53	C	2.180573	-0.251949	0.578148
C54	C	1.734135	-0.251943	0.891168
C55	C	1.734136	-0.251945	1.024568
C56	C	1.734366	-0.115564	0.578207
C57	C	1.734466	-0.057450	0.578241
C58	C	1.734122	-0.251944	1.266301
C59	C	1.734132	-0.251947	1.132901
H60	H	1.873322	-0.450924	0.438941
H61	H	1.873756	-0.953270	0.439071
H62	H	1.950366	-0.702075	0.362329
O63	O	1.885953	-1.056700	0.427250
C64	C	1.869538	-1.110753	0.443742
H65	H	1.830046	-1.118197	0.536290
H66	H	1.805805	-1.126319	0.372439
C67	C	2.039551	-1.129570	0.319392
C68	C	1.991055	-1.138713	0.433065
H69	H	2.114506	-1.146818	0.312800
H70	H	2.050608	-1.093154	0.308277
H71	H	1.986429	-1.142542	0.259985
H72	H	2.044170	-1.125736	0.492468
H73	H	1.980010	-1.175128	0.444190
O74	O	1.962394	-0.805486	0.350317
C75	C	1.894213	-0.837122	0.272715
H76	H	1.803200	-0.845329	0.314907
H77	H	1.881148	-0.816119	0.183721
C78	C	2.072111	-0.878888	0.199351
C79	C	1.960331	-0.888971	0.251176
H80	H	2.112897	-0.910869	0.186059
H81	H	2.118047	-0.857572	0.251629
H82	H	2.061208	-0.861383	0.125194
H83	H	1.971236	-0.906469	0.325338
H84	H	1.914398	-0.910290	0.198910
O85	O	1.582980	-1.056627	0.729531
C86	C	1.515136	-1.020837	0.797177
H87	H	1.564265	-0.981892	0.801356
H88	H	1.424016	-1.015077	0.753144
C89	C	1.437407	-1.089963	0.919777
C90	C	1.497754	-1.042131	0.924917
H91	H	1.426679	-1.103099	0.998571
H92	H	1.483111	-1.114076	0.874200
H93	H	1.361480	-1.085157	0.883077
H94	H	1.573684	-1.046939	0.961602
H95	H	1.452061	-1.018019	0.970503
O96	O	1.582878	-0.949016	0.729237
C97	C	1.505367	-0.917486	0.660835
H98	H	1.547765	-0.909293	0.569920
H99	H	1.416459	-0.938575	0.647566
C100	C	1.431452	-0.875686	0.838513
C101	C	1.483530	-0.865620	0.726854
H102	H	1.417976	-0.843693	0.879238
H103	H	1.483669	-0.896930	0.884598
H104	H	1.357367	-0.893262	0.827440
H105	H	1.557620	-0.848050	0.737929
H106	H	1.431325	-0.844372	0.680772
O107	O	1.885537	-0.554183	0.426811
C108	C	1.953313	-0.518348	0.359141
H109	H	1.904114	-0.479450	0.354948
H110	H	2.044426	-0.512490	0.403164
C111	C	2.031154	-0.587435	0.236569
C112	C	1.970722	-0.539662	0.231411
H113	H	2.041898	-0.600583	0.157781
H114	H	1.985496	-0.611579	0.282162
H115	H	2.107075	-0.582548	0.273260
H116	H	1.894797	-0.544551	0.194735
H117	H	2.016368	-0.515520	0.185809
H118	H	1.518091	-0.801252	0.794030
O119	O	1.505848	-0.697993	0.806101
C120	C	1.438111	-0.733824	0.873821
H121	H	1.434023	-0.772754	0.824664
H122	H	1.482006	-0.739600	0.965005
C123	C	1.315366	-0.664756	0.951401
C124	C	1.310337	-0.712570	0.891019
H125	H	1.236551	-0.651646	0.962015
H126	H	1.361004	-0.640616	0.905780
H127	H	1.351951	-0.669576	1.027381
H128	H	1.273767	-0.707749	0.815035
H129	H	1.264690	-0.736710	0.936628
H130	H	1.594682	-0.550074	0.717261
H131	H	1.594592	-0.451008	0.717217
