data_functionalizedCrystal
_audit_creation_method	'MofGen! by Chris Wilmer'
_symmetry_space_group_name_H-M	'P1'
_symmetry_Int_Tables_number	1
_symmetry_cell_setting	triclinic
loop_
_symmetry_equiv_pos_as_xyz
  x,y,z
_cell_length_a	14.971486
_cell_length_b	17.019370
_cell_length_c	14.048226
_cell_angle_alpha	93.871793
_cell_angle_beta	89.998499
_cell_angle_gamma	83.503867
loop_
_atom_site_label
_atom_site_type_symbol
_atom_site_fract_x
_atom_site_fract_y
_atom_site_fract_z
O1	O	1.186690	0.102799	-0.070628
O2	O	1.686690	0.602799	0.429372
O3	O	0.926260	0.115109	-0.069645
O4	O	1.426260	0.615109	0.430355
O5	O	1.063741	-0.005870	-0.079538
O6	O	1.563741	0.494130	0.420462
O7	O	1.049209	0.223778	-0.060735
O8	O	1.549209	0.723778	0.439265
O9	O	1.063724	-0.005877	0.078783
O10	O	1.563724	0.494123	0.578783
O11	O	0.926243	0.115102	0.088676
O12	O	1.426243	0.615102	0.588676
O13	O	1.186674	0.102792	0.087693
O14	O	1.686674	0.602792	0.587693
Zn15	Zn	1.056456	0.108946	0.113321
Zn16	Zn	1.556456	0.608946	0.613321
Zn17	Zn	1.056478	0.108955	-0.095273
Zn18	Zn	1.556478	0.608955	0.404727
O19	O	1.049193	0.223771	0.097586
O20	O	1.549193	0.723771	0.597586
C21	C	0.892928	0.114555	0.009467
C22	C	1.392928	0.614555	0.509467
C23	C	0.793635	0.112905	0.009322
C24	C	1.293635	0.612905	0.509322
C25	C	0.736232	0.183977	0.015143
C26	C	1.236232	0.683977	0.515143
C27	C	0.642937	0.182422	0.015030
C28	C	1.142937	0.682422	0.515030
C29	C	0.607046	0.109795	0.009089
C30	C	1.107046	0.609795	0.509089
C31	C	0.664456	0.038717	0.003271
C32	C	1.164456	0.538717	0.503271
C33	C	0.757750	0.040273	0.003391
C34	C	1.257750	0.540273	0.503391
C35	C	0.470001	0.035480	0.003019
C36	C	0.970001	0.535480	0.503019
C37	C	0.376701	0.033924	0.002897
C38	C	0.876701	0.533924	0.502897
C39	C	0.355189	0.177629	0.014658
C40	C	0.855189	0.677629	0.514658
C41	C	0.448482	0.179185	0.014778
C42	C	0.948482	0.679185	0.514778
C43	C	0.505886	0.108107	0.008958
C44	C	1.005886	0.608107	0.508958
C45	C	1.063182	-0.035263	-0.002786
C46	C	1.563182	0.464737	0.497214
C47	C	1.061530	-0.122833	-0.009963
C48	C	1.561530	0.377167	0.490037
C49	C	1.060742	-0.163985	0.072961
C50	C	1.560742	0.336015	0.572961
C51	C	1.059196	-0.246267	0.066209
C52	C	1.559196	0.253733	0.566209
C53	C	1.058430	-0.287396	-0.023468
C54	C	1.558430	0.212604	0.476532
C55	C	1.059220	-0.246239	-0.106399
C56	C	1.559220	0.253761	0.393601
C57	C	1.060773	-0.163958	-0.099646
C58	C	1.560773	0.336042	0.400354
C59	C	1.053747	-0.535829	-0.048175
C60	C	1.553747	-0.035829	0.451825
C61	C	1.052191	-0.618114	-0.054921
C62	C	1.552191	-0.118114	0.445079
C63	C	1.052169	-0.618138	0.117688
C64	C	1.552169	-0.118138	0.617688
C65	C	1.053716	-0.535855	0.124433
C66	C	1.553716	-0.035855	0.624433
C67	C	1.054511	-0.494706	0.041502
C68	C	1.554511	0.005294	0.541502
C69	C	1.056846	-0.371501	-0.030372
C70	C	1.556846	0.128499	0.469628
C71	C	1.056101	-0.410603	0.048406
C72	C	1.556101	0.089397	0.548406
C73	C	1.220006	0.103346	0.008579
C74	C	1.720006	0.603346	0.508579
C75	C	1.319299	0.104995	0.008718
C76	C	1.819299	0.604995	0.508718
C77	C	1.049752	0.253163	0.020832
C78	C	1.549752	0.753163	0.520832
C79	C	1.051404	0.340734	0.028003
C80	C	1.551404	0.840734	0.528003
N81	N	1.056448	0.108939	0.255681
N82	N	1.556448	0.608939	0.755681
N83	N	1.056493	0.108956	-0.237634
N84	N	1.556493	0.608956	0.262366
C85	C	1.117343	0.055391	0.301121
C86	C	1.617343	0.555391	0.801121
C87	C	1.117349	0.055391	0.400778
C88	C	1.617349	0.555391	0.900778
C89	C	1.056463	0.108942	0.454995
C90	C	1.556463	0.608942	0.954995
C91	C	0.995561	0.162492	0.409549
C92	C	1.495561	0.662492	0.909549
C93	C	0.995551	0.162488	0.309893
C94	C	1.495551	0.662488	0.809893
C95	C	0.995587	0.162498	0.617264
C96	C	1.495587	0.662498	1.117264
C97	C	0.995597	0.162503	0.716927
C98	C	1.495597	0.662503	1.216927
C99	C	1.117385	0.055401	0.708149
C100	C	1.617385	0.555401	1.208149
C101	C	1.117375	0.055397	0.608493
C102	C	1.617375	0.555397	1.108493
C103	C	1.056474	0.108948	0.563054
C104	C	1.556474	0.608948	1.063054
H105	H	0.347482	-0.025216	-0.001939
H106	H	0.847482	0.474784	0.498061
H107	H	1.058602	-0.279733	-0.179417
H108	H	1.558602	0.220267	0.320583
C109	C	1.051314	-0.663350	-0.153577
C110	C	1.551314	-0.163350	0.346423
N111	N	1.050638	-0.697420	-0.227881
N112	N	1.550638	-0.197420	0.272119
H113	H	1.058559	-0.279770	0.133735
H114	H	1.558559	0.220230	0.633735
C115	C	0.624972	-0.041174	-0.003262
C116	C	1.124972	0.458826	0.496738
N117	N	0.595235	-0.101350	-0.008187
N118	N	1.095235	0.398650	0.491813
C119	C	0.579797	0.260607	0.021450
C120	C	1.079797	0.760607	0.521450
N121	N	0.532240	0.319500	0.026293
N122	N	1.032240	0.819500	0.526293
C123	C	0.775703	0.263874	0.021680
C124	C	1.275703	0.763874	0.521680
N125	N	0.805429	0.324056	0.026608
N126	N	1.305429	0.824056	0.526608
C127	C	1.061636	-0.118692	-0.190870
C128	C	1.561636	0.381308	0.309130
N129	N	1.062289	-0.084598	-0.259583
N130	N	1.562289	0.415402	0.240417
C131	C	1.184324	-0.003521	0.241491
C132	C	1.684324	0.496479	0.741491
N133	N	1.234773	-0.047898	0.196580
N134	N	1.734773	0.452102	0.696580
C135	C	1.184353	-0.003512	0.548856
C136	C	1.684353	0.496488	1.048856
N137	N	1.234800	-0.047886	0.503937
N138	N	1.734800	0.452114	1.003937
C139	C	1.184374	-0.003509	0.758133
C140	C	1.684374	0.496491	1.258133
N141	N	1.234830	-0.047877	0.795786
N142	N	1.734830	0.452123	1.295786
H143	H	0.946016	0.206109	0.761066
H144	H	1.446016	0.706109	1.261066
C145	C	0.292043	0.255815	0.021065
C146	C	0.792043	0.755815	0.521065
N147	N	0.244478	0.314703	0.025888
N148	N	0.744478	0.814703	0.525888
C149	C	0.820893	-0.037912	-0.003015
C150	C	1.320893	0.462088	0.496985
N151	N	0.868452	-0.096803	-0.007838
N152	N	1.368452	0.403197	0.492162
C153	C	1.061584	-0.118751	0.171614
C154	C	1.561584	0.381249	0.671614
N155	N	1.062223	-0.084684	0.245923
N156	N	1.562223	0.415316	0.745923
H157	H	1.056729	-0.377113	0.121421
H158	H	1.556729	0.122887	0.621421
H159	H	0.945991	0.206102	0.580271
H160	H	1.445991	0.706102	1.080271
H161	H	0.516738	-0.022400	-0.001719
H162	H	1.016738	0.477600	0.498281
C163	C	1.055995	-0.416750	-0.129015
C164	C	1.555995	0.083250	0.370985
N165	N	1.055353	-0.450834	-0.203313
N166	N	1.555353	0.049166	0.296687
H167	H	1.166935	0.011788	0.437774
H168	H	1.666935	0.511788	0.937774
C169	C	0.928568	0.221401	0.259911
C170	C	1.428568	0.721401	0.759911
N171	N	0.878115	0.265776	0.222267
N172	N	1.378115	0.765776	0.722267
C173	C	1.054557	-0.490620	0.223085
C174	C	1.554557	0.009380	0.723085
N175	N	1.055186	-0.456548	0.297391
N176	N	1.555186	0.043452	0.797391
C177	C	1.051300	-0.663409	0.208905
C178	C	1.551300	-0.163409	0.708905
N179	N	1.050648	-0.697508	0.277614
N180	N	1.550648	-0.197508	0.777614
H181	H	0.477701	0.238324	0.019606
H182	H	0.977701	0.738324	0.519606
C183	C	0.928577	0.221392	0.469191
C184	C	1.428577	0.721392	0.969191
N185	N	0.878123	0.265756	0.514112
N186	N	1.378123	0.765756	1.014112
H187	H	1.054393	-0.502335	-0.115703
H188	H	1.554393	-0.002335	0.384297
