data_functionalizedCrystal
_audit_creation_method	'MofGen! by Chris Wilmer'
_symmetry_space_group_name_H-M	'P1'
_symmetry_Int_Tables_number	1
_symmetry_cell_setting	triclinic
loop_
_symmetry_equiv_pos_as_xyz
  x,y,z
_cell_length_a	12.645331
_cell_length_b	19.120786
_cell_length_c	12.645323
_cell_angle_alpha	92.471912
_cell_angle_beta	90.022822
_cell_angle_gamma	92.465319
loop_
_atom_site_label
_atom_site_type_symbol
_atom_site_fract_x
_atom_site_fract_y
_atom_site_fract_z
Zn1	Zn	1.602669	-0.279621	0.581391
Zn2	Zn	1.936002	0.053712	0.914724
Zn3	Zn	2.269336	0.387046	1.248057
Zn4	Zn	1.594963	-0.397087	0.396544
Zn5	Zn	1.928296	-0.063753	0.729878
Zn6	Zn	2.261629	0.269580	1.063211
Zn7	Zn	1.425382	-0.279647	0.404133
Zn8	Zn	1.758715	0.053686	0.737466
Zn9	Zn	2.092048	0.387019	1.070800
Zn10	Zn	1.417780	-0.397043	0.573762
Zn11	Zn	1.751114	-0.063710	0.907095
Zn12	Zn	2.084447	0.269623	1.240429
O13	O	1.510198	-0.338350	0.488957
O14	O	1.843532	-0.005016	0.822291
O15	O	2.176865	0.328317	1.155624
O16	O	1.749993	-0.295210	0.556887
O17	O	2.083327	0.038123	0.890221
O18	O	2.416660	0.371456	1.223554
O19	O	1.572424	-0.381537	0.249202
O20	O	1.905757	-0.048204	0.582535
O21	O	2.239090	0.285129	0.915868
O22	O	1.455306	-0.181353	0.434015
O23	O	1.788639	0.151980	0.767349
O24	O	2.121972	0.485313	1.100682
O25	O	1.744332	-0.381512	0.421081
O26	O	2.077665	-0.048179	0.754415
O27	O	2.410998	0.285155	1.087748
O28	O	1.585558	-0.181334	0.564246
O29	O	1.918891	0.151999	0.897579
O30	O	2.252224	0.485333	1.230912
O31	O	1.447833	-0.295255	0.254777
O32	O	1.781167	0.038078	0.588110
O33	O	2.114500	0.371412	0.921444
O34	O	1.276027	-0.295213	0.426618
O35	O	1.609360	0.038120	0.759951
O36	O	1.942693	0.371454	1.093285
O37	O	1.442350	-0.381438	0.723123
O38	O	1.775683	-0.048105	1.056456
O39	O	2.109017	0.285229	1.389790
O40	O	1.270442	-0.381463	0.551244
O41	O	1.603775	-0.048130	0.884577
O42	O	1.937109	0.285203	1.217910
O43	O	1.578187	-0.295168	0.728728
O44	O	1.911520	0.038165	1.062061
O45	O	2.244853	0.371498	1.395395
O46	O	1.565053	-0.495372	0.413684
O47	O	1.898386	-0.162038	0.747017
O48	O	2.231720	0.171295	1.080351
O49	O	1.434878	-0.495340	0.543885
O50	O	1.768211	-0.162006	0.877218
O51	O	2.101544	0.171327	1.210552
C52	C	1.234770	-0.338337	0.488927
C53	C	1.568103	-0.005004	0.822260
C54	C	1.901436	0.328330	1.155594
C55	C	1.116939	-0.338348	0.488938
C56	C	1.450272	-0.005015	0.822271
C57	C	1.783605	0.328318	1.155605
C58	C	1.075540	-0.284004	0.410675
C59	C	1.408873	0.049329	0.744008
C60	C	1.742207	0.382663	1.077342
C61	C	0.952993	-0.283803	0.410968
C62	C	1.286327	0.049530	0.744301
C63	C	1.619660	0.382864	1.077635
C64	C	0.950385	-0.318609	0.602120
C65	C	1.283718	0.014724	0.935454
C66	C	1.617051	0.348058	1.268787
C67	C	1.073009	-0.318203	0.601636
C68	C	1.406342	0.015131	0.934969
C69	C	1.739675	0.348464	1.268303
C70	C	1.066928	-0.412595	0.455064
C71	C	1.400261	-0.079261	0.788397
C72	C	1.733594	0.254072	1.121731
C73	C	0.944345	-0.412207	0.452663
C74	C	1.277678	-0.078874	0.785997
C75	C	1.611012	0.254460	1.119330
C76	C	1.498333	-0.520841	0.477156
C77	C	1.831666	-0.187508	0.810490
C78	C	2.165000	0.145825	1.143823
C79	C	1.493354	-0.598912	0.472143
C80	C	1.826687	-0.265579	0.805476
C81	C	2.160020	0.067755	1.138810
C82	C	1.558779	-0.635519	0.537647
C83	C	1.892113	-0.302186	0.870980
C84	C	2.225446	0.031147	1.204314
C85	C	1.554097	-0.708875	0.532938
C86	C	1.887430	-0.375542	0.866272
C87	C	2.220763	-0.042208	1.199605
C88	C	1.483993	-0.745622	0.462720
C89	C	1.817326	-0.412289	0.796053
C90	C	2.150660	-0.078955	1.129386
C91	C	1.418560	-0.709009	0.397213
C92	C	1.751894	-0.375676	0.730547
C93	C	2.085227	-0.042343	1.063880
C94	C	1.423238	-0.635655	0.401928
C95	C	1.756572	-0.302322	0.735261
C96	C	2.089905	0.031012	1.068595
C97	C	1.466473	-0.967108	0.445095
C98	C	1.799806	-0.633775	0.778428
C99	C	2.133140	-0.300441	1.111761
C100	C	1.461802	-1.040468	0.440383
C101	C	1.795135	-0.707134	0.773716
C102	C	2.128469	-0.373801	1.107049
C103	C	1.597338	-1.040328	0.576110
C104	C	1.930671	-0.706995	0.909443
C105	C	2.264004	-0.373661	1.242776
C106	C	1.602014	-0.966972	0.580814
C107	C	1.935347	-0.633639	0.914147
C108	C	2.268681	-0.300305	1.247480
C109	C	1.536577	-0.930366	0.515311
C110	C	1.869911	-0.597033	0.848644
C111	C	2.203244	-0.263699	1.181978
C112	C	1.479207	-0.820603	0.457903
C113	C	1.812540	-0.487270	0.791236
C114	C	2.145874	-0.153937	1.124570
C115	C	1.541359	-0.855386	0.520134
C116	C	1.874692	-0.522053	0.853467
C117	C	2.208025	-0.188720	1.186801
C118	C	1.786703	-0.338363	0.488989
C119	C	2.120036	-0.005030	0.822322
C120	C	2.453369	0.328304	1.155655
C121	C	1.904532	-0.338369	0.489002
C122	C	2.237866	-0.005035	0.822335
C123	C	2.571199	0.328298	1.155669
C124	C	1.510280	-0.338295	0.765466
C125	C	1.843613	-0.004962	1.098800
C126	C	2.176947	0.328371	1.432133
C127	C	1.510315	-0.338272	0.883298
C128	C	1.843648	-0.004939	1.216631
C129	C	2.176981	0.328394	1.549965
C130	C	1.522139	-0.155146	0.500828
C131	C	1.855473	0.178188	0.834161
C132	C	2.188806	0.511521	1.167495
C133	C	1.527228	-0.077075	0.505887
C134	C	1.860561	0.256258	0.839220
C135	C	2.193894	0.589592	1.172553
C136	C	1.510181	-0.338353	0.213528
C137	C	1.843515	-0.005020	0.546861
C138	C	2.176848	0.328314	0.880194
C139	C	1.510365	-0.338178	0.095709
C140	C	1.843698	-0.004845	0.429043
C141	C	2.177032	0.328488	0.762376
C142	C	1.424624	-0.392289	1.047353
C143	C	1.757957	-0.058955	1.380686
C144	C	2.091290	0.274378	1.714019
C145	C	1.424821	-0.392556	0.924775
C146	C	1.758155	-0.059223	1.258109
C147	C	2.091488	0.274110	1.591442
C148	C	1.620717	-0.358360	0.926521
C149	C	1.954050	-0.025027	1.259854
C150	C	2.287384	0.308307	1.593187
C151	C	1.620244	-0.358699	1.049097
C152	C	1.953577	-0.025366	1.382430
C153	C	2.286911	0.307968	1.715764
C154	C	1.486680	-0.263866	1.055301
C155	C	1.820013	0.069467	1.388635
C156	C	2.153347	0.402801	1.721968
C157	C	1.484159	-0.264312	0.932666
C158	C	1.817492	0.069022	1.266000
C159	C	2.150826	0.402355	1.599333
H160	H	0.918806	-0.356987	0.662262
H161	H	1.252139	-0.023654	0.995595
H162	H	1.585472	0.309680	1.328928
H163	H	1.686037	-0.320998	1.081211
H164	H	2.019370	0.012335	1.414544
H165	H	2.352704	0.345668	1.747877
H166	H	0.922053	-0.296131	0.327256
H167	H	1.255387	0.037202	0.660589
H168	H	1.588720	0.370536	0.993922
Cl169	Cl	1.391073	-0.866806	0.369637
Cl170	Cl	1.724407	-0.533472	0.702970
Cl171	Cl	2.057740	-0.200139	1.036303
H172	H	1.640880	-0.413023	1.074199
H173	H	1.974213	-0.079689	1.407533
H174	H	2.307547	0.253644	1.740866
H175	H	0.914243	-0.427112	0.369389
H176	H	1.247577	-0.093779	0.702722
H177	H	1.580910	0.239555	1.036056
Cl178	Cl	1.128584	-0.199543	0.445550
Cl179	Cl	1.461917	0.133790	0.778883
Cl180	Cl	1.795251	0.467123	1.112217
H181	H	0.910993	-0.454845	0.505093
H182	H	1.244326	-0.121512	0.838426
H183	H	1.577660	0.211821	1.171760
H184	H	1.659098	-0.937054	0.637991
H185	H	1.992431	-0.603721	0.971325
H186	H	2.325765	-0.270388	1.304658
H187	H	1.104156	-0.296190	0.326690
H188	H	1.437489	0.037144	0.660024
H189	H	1.770823	0.370477	0.993357
H190	H	0.927237	-0.228793	0.433832
H191	H	1.260571	0.104540	0.767165
H192	H	1.593904	0.437874	1.100499
Cl193	Cl	1.112775	-0.440449	0.329440
Cl194	Cl	1.446108	-0.107116	0.662773
Cl195	Cl	1.779442	0.226217	0.996106
H196	H	1.686105	-0.320195	0.899851
H197	H	2.019438	0.013138	1.233184
H198	H	2.352771	0.346472	1.566517
H199	H	0.923171	-0.264948	0.630606
H200	H	1.256504	0.068385	0.963939
H201	H	1.589838	0.401718	1.297272
H202	H	1.093352	-0.453080	0.512009
H203	H	1.426685	-0.119747	0.845342
H204	H	1.760019	0.213586	1.178676
H205	H	1.105132	-0.263940	0.629721
H206	H	1.438465	0.069393	0.963054
H207	H	1.771799	0.402727	1.296387
Cl208	Cl	1.115114	-0.376680	0.695181
Cl209	Cl	1.448447	-0.043347	1.028515
Cl210	Cl	1.781780	0.289986	1.361848
H211	H	1.641803	-0.412115	0.892360
H212	H	1.975136	-0.078781	1.225694
H213	H	2.308470	0.254552	1.559027
H214	H	1.615870	-0.605605	0.594822
H215	H	1.949203	-0.272271	0.928155
H216	H	2.282536	0.061062	1.261488
H217	H	1.404710	-1.070385	0.383201
H218	H	1.738044	-0.737052	0.716535
H219	H	2.071377	-0.403718	1.049868
H220	H	1.342804	-0.379986	0.895485
H221	H	1.676138	-0.046653	1.228818
H222	H	2.009471	0.286681	1.562152
Cl223	Cl	1.384199	-0.921099	0.362757
Cl224	Cl	1.717533	-0.587765	0.696090
Cl225	Cl	2.050866	-0.254432	1.029424
H226	H	1.598433	-0.825465	0.577310
H227	H	1.931767	-0.492131	0.910644
H228	H	2.265100	-0.158798	1.243977
Cl229	Cl	1.330419	-0.755206	0.308948
Cl230	Cl	1.663752	-0.421873	0.642282
Cl231	Cl	1.997085	-0.088539	0.975615
H232	H	1.407829	-0.245555	1.087388
H233	H	1.741163	0.087778	1.420721
H234	H	2.074496	0.421112	1.754055
H235	H	1.402937	-0.249163	0.904545
H236	H	1.736270	0.084171	1.237878
H237	H	2.069603	0.417504	1.571212
H238	H	1.342353	-0.379839	1.077630
H239	H	1.675686	-0.046506	1.410963
H240	H	2.009020	0.286827	1.744297
Cl241	Cl	1.447850	-0.476805	1.089552
Cl242	Cl	1.781183	-0.143471	1.422886
Cl243	Cl	2.114516	0.189862	1.756219
H244	H	1.607381	-0.738677	0.586271
H245	H	1.940715	-0.405344	0.919604
H246	H	2.274048	-0.072011	1.252937
H247	H	1.440067	-0.447647	0.891903
H248	H	1.773401	-0.114314	1.225237
H249	H	2.106734	0.219019	1.558570
H250	H	1.650611	-1.070140	0.629439
H251	H	1.983944	-0.736807	0.962773
H252	H	2.317278	-0.403474	1.296106
H253	H	1.369961	-0.605850	0.348589
H254	H	1.703294	-0.272517	0.681922
H255	H	2.036627	0.060817	1.015256
Cl256	Cl	1.574134	-0.198776	0.889640
Cl257	Cl	1.907468	0.134558	1.222974
Cl258	Cl	2.240801	0.467891	1.556307
H259	H	1.549188	-0.223552	1.086919
H260	H	1.882521	0.109782	1.420252
H261	H	2.215855	0.443115	1.753586
