data_functionalizedCrystal
_audit_creation_method	'MofGen! by Chris Wilmer'
_symmetry_space_group_name_H-M	'P1'
_symmetry_Int_Tables_number	1
_symmetry_cell_setting	triclinic
loop_
_symmetry_equiv_pos_as_xyz
  x,y,z
_cell_length_a	23.532355
_cell_length_b	14.519731
_cell_length_c	12.996460
_cell_angle_alpha	89.992872
_cell_angle_beta	90.000230
_cell_angle_gamma	83.258176
loop_
_atom_site_label
_atom_site_type_symbol
_atom_site_fract_x
_atom_site_fract_y
_atom_site_fract_z
O1	O	0.755789	0.111722	-0.085429
O2	O	1.255789	0.611722	0.414571
O3	O	0.589995	0.127970	-0.085462
O4	O	1.089995	0.627970	0.414538
O5	O	0.677282	-0.014445	-0.085436
O6	O	1.177282	0.485555	0.414564
O7	O	0.668503	0.254136	-0.085456
O8	O	1.168503	0.754136	0.414544
O9	O	0.677272	-0.014452	0.085698
O10	O	1.177272	0.485548	0.585698
O11	O	0.589986	0.127962	0.085672
O12	O	1.089986	0.627962	0.585672
O13	O	0.755780	0.111714	0.085705
O14	O	1.255780	0.611714	0.585705
Cu15	Cu	0.672882	0.119837	0.101314
Cu16	Cu	1.172882	0.619837	0.601314
Cu17	Cu	0.672893	0.119847	-0.101072
Cu18	Cu	1.172893	0.619847	0.398928
O19	O	0.668494	0.254128	0.085678
O20	O	1.168494	0.754128	0.585678
C21	C	0.676866	-0.048803	0.000132
C22	C	1.176866	0.451197	0.500132
C23	C	0.675633	-0.151168	0.000132
C24	C	1.175633	0.348832	0.500132
C25	C	0.568772	0.127560	0.000100
C26	C	1.068772	0.627560	0.500100
C27	C	0.505548	0.126339	0.000088
C28	C	1.005548	0.626339	0.500088
C29	C	0.674631	-0.234300	0.000129
C30	C	1.174631	0.265700	0.500129
C31	C	0.673380	-0.338594	0.000121
C32	C	1.173380	0.161406	0.500121
C33	C	0.672387	-0.421721	0.000114
C34	C	1.172387	0.078279	0.500114
C35	C	0.671135	-0.526021	0.000108
C36	C	1.171135	-0.026021	0.500108
C37	C	0.113494	0.118662	0.093417
C38	C	0.613494	0.618662	0.593417
C39	C	0.054090	0.117500	0.093421
C40	C	0.554090	0.617500	0.593421
O41	O	0.023364	0.116865	0.172755
O42	O	0.523364	0.616865	0.672755
N43	N	0.024384	0.116929	0.000136
N44	N	0.524384	0.616929	0.500136
C45	C	0.054086	0.117509	-0.093159
C46	C	0.554086	0.617509	0.406841
O47	O	0.023364	0.116915	-0.172504
O48	O	0.523364	0.616915	0.327496
C49	C	0.113490	0.118664	-0.093162
C50	C	0.613490	0.618664	0.406838
C51	C	0.143192	0.119246	0.000129
C52	C	0.643192	0.619246	0.500129
C53	C	0.143197	0.119242	0.186700
C54	C	0.643197	0.619242	0.686700
C55	C	0.202597	0.120406	0.186696
C56	C	0.702597	0.620406	0.686696
C57	C	0.232295	0.120989	0.093408
C58	C	0.732295	0.620989	0.593408
C59	C	0.202593	0.120409	0.000125
C60	C	0.702593	0.620409	0.500125
C61	C	0.143192	0.119238	-0.186455
C62	C	0.643192	0.619238	0.313545
C63	C	0.202600	0.120393	-0.186450
C64	C	0.702600	0.620393	0.313550
C65	C	0.232302	0.120974	-0.093159
C66	C	0.732302	0.620974	0.406841
C67	C	0.291691	0.122156	-0.093167
C68	C	0.791691	0.622156	0.406833
N69	N	0.321398	0.122727	0.000117
N70	N	0.821398	0.622727	0.500117
C71	C	0.291699	0.122144	0.093405
C72	C	0.791699	0.622144	0.593405
C73	C	-0.070667	0.115082	-0.093145
C74	C	0.429333	0.615082	0.406855
C75	C	-0.130070	0.113933	-0.093143
C76	C	0.369930	0.613933	0.406857
C77	C	-0.130062	0.113923	0.093437
C78	C	0.369938	0.613923	0.593437
C79	C	-0.070658	0.115078	0.093434
C80	C	0.429342	0.615078	0.593434
C81	C	-0.040961	0.115654	0.000140
C82	C	0.459039	0.615654	0.500140
C83	C	0.416445	0.124588	0.093389
C84	C	0.916445	0.624588	0.593389
C85	C	0.475850	0.125756	0.093376
C86	C	0.975850	0.625756	0.593376
C87	C	0.475837	0.125761	-0.093203
C88	C	0.975837	0.625761	0.406797
C89	C	0.416437	0.124599	-0.093191
C90	C	0.916437	0.624599	0.406809
C91	C	0.386742	0.124009	0.000113
C92	C	0.886742	0.624009	0.500113
O93	O	0.322455	0.122788	-0.172461
O94	O	0.822455	0.622788	0.327539
O95	O	0.322430	0.122726	0.172737
O96	O	0.822430	0.622726	0.672737
C97	C	0.777003	0.112124	0.000140
C98	C	1.277003	0.612124	0.500140
C99	C	0.840227	0.113345	0.000145
C100	C	1.340227	0.613345	0.500145
C101	C	0.668909	0.288487	0.000109
C102	C	1.168909	0.788487	0.500109
C103	C	0.670142	0.390852	0.000101
C104	C	1.170142	0.890852	0.500101
N105	N	0.672879	0.119830	0.243661
N106	N	1.172879	0.619830	0.743661
N107	N	0.672901	0.119846	-0.243419
N108	N	1.172901	0.619846	0.256581
C109	C	0.672892	0.119847	0.663475
C110	C	1.172892	0.619847	1.163475
C111	C	0.672887	0.119846	0.546670
C112	C	1.172887	0.619846	1.046670
C113	C	0.672886	0.119840	0.453572
C114	C	1.172886	0.619840	0.953572
C115	C	0.672880	0.119837	0.336759
C116	C	1.172880	0.619837	0.836759
H117	H	0.500031	0.126232	0.169348
H118	H	1.000031	0.626232	0.669348
H119	H	0.392274	0.124117	0.169366
H120	H	0.892274	0.624117	0.669366
H121	H	0.119023	0.118765	0.262670
H122	H	0.619023	0.618765	0.762670
N123	N	0.232925	0.120985	0.282000
N124	N	0.732925	0.620985	0.782000
N125	N	0.206393	0.120452	0.365278
N126	N	0.706393	0.620452	0.865278
H127	H	0.227809	0.120854	0.432593
H128	H	0.727809	0.620854	0.932593
N129	N	-0.040330	0.115684	0.188736
N130	N	0.459670	0.615684	0.688736
N131	N	-0.066862	0.115175	0.272017
N132	N	0.433138	0.615175	0.772017
H133	H	-0.045446	0.115606	0.339330
H134	H	0.454554	0.615606	0.839330
N135	N	-0.160414	0.113336	0.188722
N136	N	0.339586	0.613336	0.688722
N137	N	-0.213453	0.112306	0.188700
N138	N	0.286547	0.612306	0.688700
H139	H	-0.234891	0.111895	0.255991
H140	H	0.265109	0.611895	0.755991
N141	N	-0.160399	0.113361	-0.188447
N142	N	0.339601	0.613361	0.311553
N143	N	-0.133870	0.113887	-0.271728
N144	N	0.366130	0.613887	0.228272
H145	H	-0.155287	0.113479	-0.339040
H146	H	0.344713	0.613479	0.160960
N147	N	-0.040343	0.115674	-0.188459
N148	N	0.459657	0.615674	0.311541
N149	N	-0.066878	0.115162	-0.271735
N150	N	0.433122	0.615162	0.228265
H151	H	-0.045465	0.115579	-0.339052
H152	H	0.454535	0.615579	0.160948
H153	H	0.500028	0.126240	-0.169156
H154	H	1.000028	0.626240	0.330844
H155	H	0.119019	0.118764	-0.262423
H156	H	0.619019	0.618764	0.237577
H157	H	0.392251	0.124140	-0.169156
H158	H	0.892251	0.624140	0.330844
N159	N	0.232926	0.120973	-0.281760
N160	N	0.732926	0.620973	0.218240
N161	N	0.206395	0.120451	-0.365040
N162	N	0.706395	0.620451	0.134960
H163	H	0.227811	0.120861	-0.432354
H164	H	0.727811	0.620861	0.067646
