data_functionalizedCrystal
_audit_creation_method	'MofGen! by Chris Wilmer'
_symmetry_space_group_name_H-M	'P1'
_symmetry_Int_Tables_number	1
_symmetry_cell_setting	triclinic
loop_
_symmetry_equiv_pos_as_xyz
  x,y,z
_cell_length_a	12.759401
_cell_length_b	13.897447
_cell_length_c	13.897441
_cell_angle_alpha	90.028354
_cell_angle_beta	90.017946
_cell_angle_gamma	90.021055
loop_
_atom_site_label
_atom_site_type_symbol
_atom_site_fract_x
_atom_site_fract_y
_atom_site_fract_z
Zn1	Zn	1.606200	-0.383954	0.545373
Zn2	Zn	2.106200	0.116046	1.045373
Zn3	Zn	1.606086	-0.545273	0.384078
Zn4	Zn	2.106086	-0.045273	0.884078
Zn5	Zn	1.430508	-0.383998	0.384093
Zn6	Zn	1.930508	0.116002	0.884093
Zn7	Zn	1.430476	-0.545213	0.545332
Zn8	Zn	1.930476	-0.045213	1.045332
O9	O	1.518317	-0.464610	0.464719
O10	O	2.018317	0.035390	0.964719
O11	O	1.753206	-0.405360	0.523987
O12	O	2.253206	0.094640	1.023987
O13	O	1.582760	-0.523923	0.249098
O14	O	2.082760	-0.023923	0.749098
O15	O	1.453875	-0.249011	0.405511
O16	O	1.953875	0.250989	0.905511
O17	O	1.753122	-0.523881	0.405485
O18	O	2.253122	-0.023881	0.905485
O19	O	1.582956	-0.248978	0.524002
O20	O	2.082956	0.251022	1.024002
O21	O	1.453764	-0.405435	0.249109
O22	O	1.953764	0.094565	0.749109
O23	O	1.283483	-0.405377	0.405471
O24	O	1.783483	0.094623	0.905471
O25	O	1.453821	-0.523778	0.680319
O26	O	1.953821	-0.023778	1.180319
O27	O	1.283459	-0.523821	0.523933
O28	O	1.783459	-0.023821	1.023933
O29	O	1.582924	-0.405302	0.680349
O30	O	2.082924	0.094698	1.180349
O31	O	1.582729	-0.680247	0.405445
O32	O	2.082729	-0.180247	0.905445
O33	O	1.453710	-0.680203	0.523918
O34	O	1.953710	-0.180203	1.023918
C35	C	1.245350	-0.464598	0.464700
C36	C	1.745350	0.035402	0.964700
C37	C	1.128573	-0.464616	0.464715
C38	C	1.628573	0.035384	0.964715
C39	C	1.073727	-0.526384	0.526301
C40	C	1.573727	-0.026384	1.026301
C41	C	0.964003	-0.526387	0.526320
C42	C	1.464003	-0.026387	1.026320
C43	C	0.963982	-0.402853	0.403159
C44	C	1.463982	0.097147	0.903159
C45	C	1.073704	-0.402845	0.403145
C46	C	1.573704	0.097155	0.903145
C47	C	1.518232	-0.715224	0.464697
C48	C	2.018232	-0.215224	0.964697
C49	C	1.518292	-0.822438	0.464719
C50	C	2.018292	-0.322438	0.964719
C51	C	1.518342	-0.909508	0.464741
C52	C	2.018342	-0.409508	0.964741
C53	C	1.518416	-1.018740	0.464766
C54	C	2.018416	-0.518740	0.964766
C55	C	1.792351	-0.464622	0.464739
C56	C	2.292351	0.035378	0.964739
C57	C	1.909127	-0.464628	0.464747
C58	C	2.409127	0.035372	0.964747
C59	C	1.518382	-0.464529	0.716312
C60	C	2.018382	0.035471	1.216312
C61	C	1.518409	-0.464494	0.823526
C62	C	2.018409	0.035506	1.323526
C63	C	1.518432	-0.213017	0.464763
C64	C	2.018432	0.286983	0.964763
C65	C	1.518480	-0.105803	0.464781
C66	C	2.018480	0.394197	0.964781
C67	C	1.518314	-0.464621	0.214105
C68	C	2.018314	0.035379	0.714105
C69	C	1.518490	-0.464383	0.106891
C70	C	2.018490	0.035617	0.606891
C71	C	1.518431	-0.464467	0.910596
C72	C	2.018431	0.035533	1.410596
C73	C	1.518461	-0.464423	1.019829
C74	C	2.018461	0.035577	1.519829
H75	H	1.118361	-0.352541	0.352994
H76	H	1.618361	0.147459	0.852994
N77	N	0.907962	-0.589489	0.589209
N78	N	1.407962	-0.089489	1.089209
N79	N	0.809997	-0.589492	0.589213
N80	N	1.309997	-0.089492	1.089213
H81	H	0.770417	-0.634062	0.633630
H82	H	1.270417	-0.134062	1.133630
N83	N	1.129759	-0.589486	0.589194
N84	N	1.629759	-0.089486	1.089194
N85	N	1.080770	-0.644631	0.644177
N86	N	1.580770	-0.144631	1.144177
H87	H	1.120340	-0.689198	0.688599
H88	H	1.620340	-0.189198	1.188599
N89	N	0.907947	-0.339752	0.340266
N90	N	1.407947	0.160248	0.840266
N91	N	0.920234	-0.250753	0.346818
N92	N	1.420234	0.249247	0.846818
H93	H	0.880662	-0.206185	0.302398
H94	H	1.380662	0.293815	0.802398
