data_functionalizedCrystal
_audit_creation_method	'MofGen! by Chris Wilmer'
_symmetry_space_group_name_H-M	'P1'
_symmetry_Int_Tables_number	1
_symmetry_cell_setting	triclinic
loop_
_symmetry_equiv_pos_as_xyz
  x,y,z
_cell_length_a	10.540510
_cell_length_b	14.519709
_cell_length_c	13.596369
_cell_angle_alpha	90.006934
_cell_angle_beta	89.994444
_cell_angle_gamma	95.903272
loop_
_atom_site_label
_atom_site_type_symbol
_atom_site_fract_x
_atom_site_fract_y
_atom_site_fract_z
O1	O	1.684585	-0.129839	-0.081800
O2	O	1.315042	-0.142113	-0.081801
O3	O	1.509611	-0.001789	-0.081791
O4	O	1.490016	-0.270162	-0.081809
O5	O	1.509592	-0.001782	0.081791
O6	O	1.315023	-0.142105	0.081782
O7	O	1.684566	-0.129831	0.081783
Zn8	Zn	1.499791	-0.135967	0.107755
Zn9	Zn	1.499817	-0.135977	-0.107773
O10	O	1.489996	-0.270154	0.081774
C11	C	1.267738	-0.141194	-0.000009
C12	C	1.126816	-0.138458	-0.000009
C13	C	0.908365	-0.235940	-0.000392
C14	C	1.054931	-0.238859	-0.000017
C15	C	1.082570	-0.087058	0.093406
C16	C	0.935831	-0.084850	0.093478
C17	C	0.936069	-0.082767	-0.092546
C18	C	1.082361	-0.087530	-0.093775
C19	C	1.508688	0.032579	0.000000
C20	C	1.505952	0.134975	0.000001
C21	C	1.731870	-0.130749	-0.000011
C22	C	1.872792	-0.133486	-0.000017
C23	C	1.490919	-0.304523	-0.000020
C24	C	1.493656	-0.406919	-0.000027
N25	N	1.499783	-0.135959	0.254847
C26	C	1.495877	0.509924	-0.000025
C27	C	1.498675	0.405602	-0.000017
C28	C	1.500914	0.322453	-0.000011
C29	C	1.503712	0.218124	-0.000006
N30	N	1.499835	-0.135977	-0.254864
C31	C	1.499815	-0.135978	0.656138
C32	C	1.499802	-0.135976	0.544486
C33	C	1.499799	-0.135969	0.455496
C34	C	1.499786	-0.135966	0.343837
H35	H	0.893206	-0.114433	-0.163350
H36	H	0.895248	-0.119971	0.163302
H37	H	0.914684	-0.007386	-0.093173
O38	O	1.122926	-0.134330	0.185494
H39	H	1.174482	-0.194423	0.164966
H40	H	1.083875	-0.279070	-0.066983
H41	H	1.110606	-0.124928	-0.162883
O42	O	0.852252	-0.287766	-0.089121
H43	H	0.890114	-0.252649	-0.157111
O44	O	0.850234	-0.287454	0.087848
H45	H	0.796117	-0.240404	0.131972
O46	O	1.092037	-0.292323	0.088899
H47	H	1.005244	-0.316195	0.131796
H48	H	1.132178	-0.014230	-0.099411
H49	H	0.913602	-0.009756	0.097726
H50	H	1.130714	-0.013144	0.096885
