data_functionalizedCrystal
_audit_creation_method	'MofGen! by Chris Wilmer'
_symmetry_space_group_name_H-M	'P1'
_symmetry_Int_Tables_number	1
_symmetry_cell_setting	triclinic
loop_
_symmetry_equiv_pos_as_xyz
  x,y,z
_cell_length_a	27.440280
_cell_length_b	21.606444
_cell_length_c	21.606444
_cell_angle_alpha	60.000398
_cell_angle_beta	90.002788
_cell_angle_gamma	59.997270
loop_
_atom_site_label
_atom_site_type_symbol
_atom_site_fract_x
_atom_site_fract_y
_atom_site_fract_z
Zr1	Zr	0.469496	0.677380	-0.081125
O2	O	0.391677	0.806512	-0.179959
O3	O	0.493353	0.548257	-0.050830
O4	O	0.493352	0.677378	-0.179947
O5	O	0.391677	0.677388	0.051011
O6	O	0.573555	0.677366	-0.179935
O7	O	0.391677	0.677390	-0.050842
O8	O	0.573556	0.446392	0.051032
O9	O	0.391676	0.908363	-0.179956
O10	O	0.563381	0.601355	-0.037897
O11	O	0.503526	0.601362	0.038106
O12	O	0.503526	0.753385	-0.113913
O13	O	0.443671	0.753393	-0.037911
Zr14	Zr	0.597410	0.677357	0.081339
Zr15	Zr	0.597410	0.677361	-0.081105
Zr16	Zr	0.469495	0.677376	0.081319
Zr17	Zr	0.469495	0.839820	-0.081120
Zr18	Zr	0.597411	0.514916	0.081334
O19	O	0.573553	0.806479	0.051044
O20	O	0.573554	0.806485	-0.179930
O21	O	0.391675	0.806506	0.051015
O22	O	0.675229	0.548224	0.180173
O23	O	0.675230	0.548230	-0.050801
O24	O	0.493352	0.548251	0.180144
O25	O	0.675229	0.677348	-0.050797
O26	O	0.573553	0.677358	0.180161
O27	O	0.493351	0.677370	0.180148
O28	O	0.675229	0.677346	0.051056
O29	O	0.493350	0.908348	-0.179940
O30	O	0.573555	0.446389	0.180154
O31	O	0.675230	0.446374	0.180170
O32	O	0.675231	0.446377	0.051048
O33	O	0.391675	0.908360	-0.050835
O34	O	0.493350	0.908344	-0.050819
O35	O	0.563380	0.601351	0.114127
O36	O	0.623235	0.601344	0.038125
O37	O	0.563380	0.753375	-0.037892
O38	O	0.503525	0.753382	0.038110
C39	C	0.533455	0.474180	0.000100
C40	C	0.533455	0.405220	0.000098
C41	C	0.564697	0.372819	-0.039575
C42	C	0.564700	0.308019	-0.039570
C43	C	0.533456	0.275626	0.000104
C44	C	0.502212	0.308030	0.039783
C45	C	0.502214	0.372824	0.039782
C46	C	0.502205	0.046720	0.039789
C47	C	0.502205	-0.018077	0.039785
C48	C	0.564691	-0.018085	-0.039563
C49	C	0.564693	0.046709	-0.039564
C50	C	0.533452	0.079104	0.000117
C51	C	0.533451	0.149367	0.000112
C52	C	0.533453	0.205369	0.000105
C53	C	0.373452	0.677392	0.000081
C54	C	0.319149	0.677400	0.000073
C55	C	0.013695	0.597995	0.039808
C56	C	-0.037323	0.597990	0.039814
O57	O	-0.037140	0.530499	0.073583
N58	N	-0.094084	0.677348	0.000134
C59	C	-0.099826	0.756716	-0.039550
O60	O	-0.152789	0.824215	-0.073300
C61	C	-0.048808	0.756720	-0.039552
C62	C	0.007952	0.677357	0.000125
C63	C	0.070452	0.518639	0.079482
C64	C	0.121467	0.518644	0.079474
C65	C	0.115725	0.598005	0.039791
C66	C	0.058967	0.677362	0.000117
C67	C	-0.054550	0.836086	-0.079230
C68	C	-0.003526	0.836084	-0.079228
C69	C	0.053234	0.756721	-0.039551
C70	C	0.104239	0.756729	-0.039573
N71	N	0.161000	0.677371	0.000107
C72	C	0.166743	0.598009	0.039790
C73	C	-0.206964	0.756701	-0.039542
C74	C	-0.257981	0.756698	-0.039545
C75	C	-0.195476	0.597973	0.039820
C76	C	-0.144458	0.597977	0.039819
C77	C	-0.150204	0.677344	0.000139
C78	C	0.273875	0.598026	0.039769
C79	C	0.324891	0.598038	0.039755
C80	C	0.262382	0.756764	-0.039607
C81	C	0.211369	0.756752	-0.039596
C82	C	0.217120	0.677376	0.000097
O83	O	0.104101	0.824186	-0.073323
O84	O	0.219708	0.530521	0.073542
C85	C	0.693454	0.677344	0.000132
C86	C	0.747757	0.677336	0.000141
C87	C	0.533454	0.677373	-0.203086
C88	C	0.533454	0.677375	-0.272048
C89	C	0.533451	0.880556	0.000113
C90	C	0.533451	0.949516	0.000116
C91	C	0.577638	0.677370	-0.304439
C92	C	0.577640	0.677364	-0.369232
C93	C	0.533455	0.677369	-0.401636
C94	C	0.489268	0.677371	-0.369238
C95	C	0.489269	0.677371	-0.304443
C96	C	0.489263	0.677370	-0.630549
C97	C	0.489264	0.677373	-0.695349
C98	C	0.577634	0.677363	-0.695337
C99	C	0.577635	0.677363	-0.630542
C100	C	0.533451	0.677360	-0.598148
C101	C	0.533450	0.677366	-0.527891
C102	C	0.533453	0.677370	-0.471894
C103	C	0.533452	0.677363	0.203300
C104	C	0.533452	0.677362	0.272261
C105	C	0.693456	0.474156	0.000126
C106	C	0.747759	0.405188	0.000132
C107	C	0.533454	0.474175	0.203293
C108	C	0.533454	0.405213	0.272252
C109	C	0.693455	0.474151	0.203318
C110	C	0.747758	0.405182	0.272287
C111	C	0.373451	0.880585	-0.203105
C112	C	0.319148	0.949555	-0.272073
C113	C	0.373450	0.880580	0.000088
C114	C	0.319147	0.949548	0.000082
C115	C	0.533452	0.880561	-0.203079
C116	C	0.533452	0.949523	-0.272039
C117	C	0.742017	0.372805	-0.039554
C118	C	0.793037	0.308011	-0.039563
C119	C	0.849797	0.275597	0.000119
C120	C	0.855537	0.307986	0.039806
C121	C	0.804519	0.372783	0.039810
C122	C	0.564697	0.372823	0.344326
C123	C	0.564695	0.308035	0.409127
C124	C	0.533453	0.275635	0.401853
C125	C	0.502206	0.308032	0.329772
C126	C	0.502205	0.372823	0.264973
C127	C	0.804508	0.372789	0.265002
C128	C	0.855537	0.307993	0.329799
C129	C	0.849814	0.275587	0.401879
C130	C	0.793057	0.307986	0.409162
C131	C	0.742030	0.372785	0.344366
C132	C	0.262398	0.981955	-0.264789
C133	C	0.211369	1.046771	-0.329585
C134	C	0.217092	1.079180	-0.401665
C135	C	0.273849	1.046777	-0.408948
C136	C	0.324876	0.981967	-0.344152
C137	C	0.324888	0.981938	0.039761
C138	C	0.273869	1.046750	0.039752
C139	C	0.217109	1.079166	0.000068
C140	C	0.211369	1.046774	-0.039616
C141	C	0.262387	0.981968	-0.039611
C142	C	0.564700	0.981903	-0.264740
C143	C	0.564712	1.046691	-0.329529
C144	C	0.533471	1.079103	-0.401615
C145	C	0.502222	1.046717	-0.408912
C146	C	0.502214	0.981925	-0.344124
H147	H	0.590137	0.399193	-0.071887
C148	C	0.679606	0.408408	0.352392
N149	N	0.632588	0.435238	0.358442
C150	C	0.256088	0.946323	-0.185506
N151	N	0.251330	0.919493	-0.125792
C152	C	0.917979	0.272314	0.083459
N153	N	0.965012	0.245439	0.116344
C154	C	0.440658	0.677370	-0.730988
N155	N	0.404050	0.677367	-0.757830
H156	H	0.476770	0.073085	0.072103
C157	C	0.280197	1.082362	0.083417
N158	N	0.284965	1.109181	0.116307
C159	C	0.905913	0.204312	0.000112
N160	N	0.948178	0.150616	0.000108
C161	C	0.387300	0.946323	-0.352178
N162	N	0.434317	0.919478	-0.358228
H163	H	0.476772	0.399206	0.072086
C164	C	0.387320	0.946295	0.083416
N165	N	0.434342	0.919458	0.116295
H166	H	-0.211651	0.821336	-0.071858
H167	H	0.901745	0.281621	0.323856
C168	C	-0.082025	0.510672	0.083471
N169	N	-0.035001	0.444911	0.116355
H170	H	0.371108	0.533409	0.072067
C171	C	0.626247	0.677364	-0.268800
N172	N	0.662862	0.677355	-0.241957
H173	H	0.476776	0.281646	0.072091
C174	C	0.160993	1.150452	0.000074
N175	N	0.118728	1.204141	0.000085
C176	C	0.786708	0.272388	-0.083216
N177	N	0.781941	0.245556	-0.116094
C178	C	0.148927	1.082430	-0.083254
N179	N	0.101894	1.109281	-0.116114
C180	C	0.905951	0.204300	0.473150
N181	N	0.948236	0.150603	0.526828
C182	C	0.280210	0.510709	0.083428
N183	N	0.284981	0.444941	0.116307
C184	C	0.280134	1.082429	-0.488244
N185	N	0.284866	1.109279	-0.547971
C186	C	0.183899	0.431338	0.123129
N187	N	0.230922	0.365574	0.156016
C188	C	0.076783	0.431327	0.123131
N189	N	0.081557	0.365558	0.156004
C190	C	0.626243	0.677354	-0.594900
N191	N	0.662858	0.677343	-0.568053
H192	H	0.533482	1.131860	-0.454363
H193	H	0.257704	0.955598	-0.071921
C194	C	0.599074	0.946257	-0.185451
N195	N	0.624969	0.919408	-0.125733
H196	H	0.613619	0.677359	-0.395604
C197	C	0.160955	1.150467	-0.472936
N198	N	0.118669	1.204156	-0.526615
C199	C	0.810845	0.408388	0.083480
N200	N	0.815614	0.435202	0.116375
H201	H	0.590132	0.073085	-0.071874
C202	C	0.626243	0.677354	-0.730970
N203	N	0.662854	0.677348	-0.757809
H204	H	-0.100758	0.900712	-0.111539
C205	C	0.599086	1.082308	-0.321486
N206	N	0.624977	1.109133	-0.315425
H207	H	0.476786	1.073116	-0.467613
C208	C	0.440594	0.677534	-0.595007
N209	N	0.403910	0.677716	-0.568264
H210	H	0.165161	1.073143	-0.323641
H211	H	0.590138	0.399196	0.350263
H212	H	0.453293	0.677370	-0.395623
H213	H	0.476765	0.955569	-0.350077
C214	C	0.467840	0.408436	0.185693
N215	N	0.441955	0.435256	0.125981
C216	C	-0.009853	0.923396	-0.122884
N217	N	-0.014619	0.989160	-0.155768
H218	H	0.590131	-0.044471	-0.071871
C219	C	0.148931	0.844055	-0.083246
N220	N	0.101905	0.909813	-0.116116
C221	C	0.599052	0.272401	-0.083235
N222	N	0.624923	0.245581	-0.116132
C223	C	0.440659	0.677386	-0.268819
N224	N	0.404044	0.677399	-0.241987
H225	H	0.257716	0.821378	-0.071918
C226	C	0.679586	0.408454	-0.083215
N227	N	0.632564	0.435305	-0.116108
C228	C	0.599078	0.272402	0.488408
N229	N	0.624976	0.245562	0.548121
H230	H	0.476761	-0.044450	0.072096
C231	C	0.786772	0.272323	0.488458
N232	N	0.782039	0.245454	0.548185
H233	H	0.809179	0.399164	0.206317
C234	C	0.467845	0.272377	0.321783
N235	N	0.441968	0.245515	0.315768
H236	H	0.533459	0.222878	0.454623
H237	H	-0.304194	0.821324	-0.071864
H238	H	-0.190808	0.533352	0.072130
