data_functionalizedCrystal
_audit_creation_method	'MofGen! by Chris Wilmer'
_symmetry_space_group_name_H-M	'P1'
_symmetry_Int_Tables_number	1
_symmetry_cell_setting	triclinic
loop_
_symmetry_equiv_pos_as_xyz
  x,y,z
_cell_length_a	12.811457
_cell_length_b	10.654551
_cell_length_c	11.892095
_cell_angle_alpha	93.929772
_cell_angle_beta	91.498327
_cell_angle_gamma	84.263213
loop_
_atom_site_label
_atom_site_type_symbol
_atom_site_fract_x
_atom_site_fract_y
_atom_site_fract_z
O1	O	1.390454	0.173271	0.048548
O2	O	1.087208	0.189023	0.017459
O3	O	1.245803	-0.001568	0.033718
O4	O	1.231859	0.363862	0.032290
O5	O	1.232579	0.014298	0.220370
O6	O	1.073984	0.204889	0.204111
O7	O	1.377231	0.189137	0.235200
Zn8	Zn	1.223508	0.199532	0.249291
Zn9	Zn	1.240931	0.178628	0.003369
O10	O	1.218636	0.379728	0.218941
C11	C	1.041767	0.195587	0.106804
C12	C	0.926067	0.191493	0.094942
C13	C	0.694238	0.201076	0.276163
C14	C	0.585528	0.197229	0.265023
C15	C	0.599935	0.179944	0.061524
C16	C	0.708645	0.183791	0.072664
C17	C	0.755793	0.194359	0.179987
C18	C	0.864504	0.198215	0.191125
C19	C	0.878910	0.180921	-0.012373
C20	C	0.770200	0.177074	-0.023512
C21	C	1.238167	-0.040437	0.126936
C22	C	1.235104	-0.179891	0.126615
C23	C	1.240875	-0.254057	0.024725
C24	C	1.237987	-0.385087	0.024435
C25	C	1.223561	-0.367774	0.227932
C26	C	1.226442	-0.236745	0.228221
C27	C	1.249537	-0.197203	-0.076881
C28	C	1.255309	-0.271369	-0.178778
C29	C	1.252421	-0.402399	-0.179069
C30	C	1.243761	-0.459263	-0.077462
C31	C	1.422672	0.182572	0.145853
C32	C	1.538372	0.186666	0.157707
C33	C	1.226272	0.418596	0.125721
C34	C	1.229335	0.558050	0.126035
N35	N	1.211625	0.213798	0.417127
N36	N	1.252822	0.164352	-0.164466
C37	C	1.335507	0.065009	0.666475
C38	C	1.327209	0.074990	0.783966
C39	C	1.186726	0.243735	0.769602
C40	C	1.195024	0.233754	0.652111
C41	C	1.269418	0.144389	0.600551
C42	C	1.277721	0.134415	0.483059
C43	C	1.137234	0.303153	0.468696
C44	C	1.128935	0.313134	0.586187
H45	H	0.731798	0.168464	-0.110891
N46	N	1.415722	-0.031396	0.610857
H47	H	1.410943	-0.025681	0.526423
H48	H	1.488308	-0.014084	0.638952
H49	H	1.241395	-0.565955	-0.077709
N50	N	1.214242	-0.429103	0.337517
H51	H	1.147109	-0.393246	0.375445
H52	H	1.213345	-0.523354	0.321782
N53	N	1.220211	-0.156740	0.338112
H54	H	1.214294	-0.212638	0.402435
H55	H	1.285576	-0.111275	0.349277
N56	N	1.357947	0.038035	0.427428
H57	H	1.430569	0.055304	0.455445
H58	H	1.343760	-0.049502	0.446590
N59	N	1.252649	-0.055879	-0.076557
H60	H	1.320661	-0.036996	-0.109815
H61	H	1.191649	-0.018520	-0.123032
H62	H	0.929039	0.175459	-0.090687
N63	N	0.549059	0.168546	-0.054215
H64	H	0.563232	0.243127	-0.097568
H65	H	0.579029	0.087705	-0.095867
H66	H	1.262351	-0.225061	-0.261503
N67	N	1.106505	0.340127	0.825227
H68	H	1.065897	0.388909	0.765639
H69	H	1.056644	0.295519	0.869228
N70	N	0.745091	0.212492	0.391913
H71	H	0.730911	0.137917	0.435270
H72	H	0.823282	0.213950	0.384281
N73	N	1.398498	-0.010616	0.855072
H74	H	1.446886	-0.068735	0.804577
H75	H	1.441466	0.042294	0.908560
N76	N	1.048710	0.409525	0.641806
H77	H	1.008104	0.458300	0.582212
H78	H	0.998847	0.364916	0.685805
N79	N	0.519137	0.204468	0.368756
H80	H	0.565592	0.210884	0.438436
H81	H	0.466300	0.281415	0.368149
N82	N	1.258695	-0.482379	-0.288972
H83	H	1.197889	-0.454089	-0.340051
H84	H	1.326887	-0.472570	-0.326644
N85	N	0.915353	0.209619	0.306878
H86	H	0.901171	0.135036	0.350223
H87	H	0.993544	0.211081	0.299252
N88	N	1.065952	0.388787	0.397595
H89	H	1.082498	0.368910	0.315341
H90	H	0.990472	0.374949	0.410555
