data_functionalizedCrystal
_audit_creation_method	'MofGen! by Chris Wilmer'
_symmetry_space_group_name_H-M	'P1'
_symmetry_Int_Tables_number	1
_symmetry_cell_setting	triclinic
loop_
_symmetry_equiv_pos_as_xyz
  x,y,z
_cell_length_a	12.827893
_cell_length_b	19.121073
_cell_length_c	12.827885
_cell_angle_alpha	92.401750
_cell_angle_beta	89.980538
_cell_angle_gamma	92.470437
loop_
_atom_site_label
_atom_site_type_symbol
_atom_site_fract_x
_atom_site_fract_y
_atom_site_fract_z
Zn1	Zn	1.579826	-0.279579	-0.608523
Zn2	Zn	2.079826	0.220421	-0.108523
Zn3	Zn	1.572222	-0.397046	-0.441209
Zn4	Zn	2.072222	0.102954	0.058791
Zn5	Zn	1.405065	-0.279613	-0.433799
Zn6	Zn	1.905065	0.220387	0.066201
Zn7	Zn	1.397558	-0.396993	-0.615906
Zn8	Zn	1.897558	0.103007	-0.115906
O9	O	1.488668	-0.338308	-0.524859
O10	O	1.988668	0.161692	-0.024859
O11	O	1.725053	-0.295169	-0.586340
O12	O	2.225053	0.204831	-0.086340
O13	O	1.550007	-0.381504	-0.293992
O14	O	2.050007	0.118496	0.206008
O15	O	1.434571	-0.181325	-0.450785
O16	O	1.934571	0.318675	0.049215
O17	O	1.719466	-0.381471	-0.463415
O18	O	2.219466	0.118529	0.036585
O19	O	1.562968	-0.181300	-0.579154
O20	O	2.062968	0.318700	-0.079154
O21	O	1.427198	-0.295227	-0.288548
O22	O	1.927198	0.204773	0.211452
O23	O	1.257833	-0.295176	-0.457944
O24	O	1.757833	0.204824	0.042056
O25	O	1.421777	-0.381382	-0.761160
O26	O	1.921777	0.118618	-0.261160
O27	O	1.252318	-0.381415	-0.591737
O28	O	1.752318	0.118585	-0.091737
O29	O	1.555689	-0.295118	-0.755736
O30	O	2.055689	0.204882	-0.255736
O31	O	1.542728	-0.495323	-0.470574
O32	O	2.042728	0.004677	0.029426
O33	O	1.414404	-0.495284	-0.598923
O34	O	1.914404	0.004716	-0.098923
C35	C	1.217159	-0.338294	-0.524838
C36	C	1.717159	0.161706	-0.024838
C37	C	1.101005	-0.338305	-0.524855
C38	C	1.601005	0.161695	-0.024855
C39	C	1.476955	-0.520788	-0.536376
C40	C	1.976955	-0.020788	-0.036376
C41	C	1.472040	-0.598853	-0.541338
C42	C	1.972040	-0.098853	-0.041338
C43	C	1.046515	-0.381046	-0.590967
C44	C	1.546515	0.118954	-0.090967
C45	C	0.926463	-0.381058	-0.590986
C46	C	1.426463	0.118942	-0.090986
C47	C	1.440921	-1.040377	-0.572836
C48	C	1.940921	-0.540377	-0.072836
C49	C	1.445539	-0.967026	-0.568162
C50	C	1.945539	-0.467026	-0.068162
C51	C	1.514710	-0.930349	-0.499048
C52	C	2.014710	-0.430349	0.000952
C53	C	1.579274	-0.967028	-0.434612
C54	C	2.079274	-0.467028	0.065388
C55	C	1.574661	-1.040377	-0.439292
C56	C	2.074661	-0.540377	0.060708
C57	C	1.531990	-0.708881	-0.481582
C58	C	2.031990	-0.208881	0.018418
C59	C	1.536597	-0.635526	-0.476905
C60	C	2.036597	-0.135526	0.023095
C61	C	1.402862	-0.635530	-0.610456
C62	C	1.902862	-0.135530	-0.110456
C63	C	1.398250	-0.708881	-0.615126
C64	C	1.898250	-0.208881	-0.115126
C65	C	1.462818	-0.745552	-0.550694
C66	C	1.962818	-0.245552	-0.050694
C67	C	1.519430	-0.855373	-0.494267
C68	C	2.019430	-0.355373	0.005733
C69	C	1.458103	-0.820527	-0.555481
C70	C	1.958103	-0.320527	-0.055481
C71	C	1.761237	-0.338322	-0.524880
C72	C	2.261237	0.161678	-0.024880
C73	C	1.877390	-0.338328	-0.524890
C74	C	2.377390	0.161672	-0.024890
C75	C	1.488744	-0.338240	-0.797425
C76	C	1.988744	0.161760	-0.297425
C77	C	1.488777	-0.338212	-0.913576
C78	C	1.988777	0.161788	-0.413576
C79	C	1.500455	-0.155116	-0.513319
C80	C	2.000455	0.344884	-0.013319
C81	C	1.505478	-0.077050	-0.508402
C82	C	2.005478	0.422950	-0.008402
C83	C	1.428027	-0.295511	-0.962667
C84	C	1.928027	0.204489	-0.462667
C85	C	1.428060	-0.295480	-1.082715
C86	C	1.928060	0.204520	-0.582715
C87	C	1.488655	-0.338324	-0.253350
C88	C	1.988655	0.161676	0.246650
C89	C	1.488838	-0.338155	-0.137187
C90	C	1.988838	0.161845	0.362813
H91	H	1.088741	-0.417625	-0.647556
H92	H	1.588741	0.082375	-0.147556
Br93	Br	1.030637	-0.277323	-0.430543
Br94	Br	1.530637	0.222677	0.069457
H95	H	0.924233	-0.301737	-0.468283
H96	H	1.424233	0.198263	0.031717
Br97	Br	1.341377	-0.234538	-1.153088
Br98	Br	1.841377	0.265462	-0.653088
Br99	Br	1.575541	-0.399088	-1.066820
Br100	Br	2.075541	0.100912	-0.566820
Br101	Br	1.347031	-1.090145	-0.666628
Br102	Br	1.847031	-0.590145	-0.166628
Br103	Br	1.357928	-0.917258	-0.655618
Br104	Br	1.857928	-0.417258	-0.155618
H105	H	0.879613	-0.417652	-0.647583
H106	H	1.379613	0.082348	-0.147583
H107	H	1.341912	-0.738738	-0.671393
H108	H	1.841912	-0.238738	-0.171393
H109	H	1.540809	-0.374748	-0.960424
H110	H	2.040809	0.125252	-0.460424
H111	H	1.350295	-0.605665	-0.662915
H112	H	1.850295	-0.105665	-0.162915
H113	H	1.401788	-0.850393	-0.611757
H114	H	1.901788	-0.350393	-0.111757
Br115	Br	1.630460	-0.585751	-0.383084
Br116	Br	2.130460	-0.085751	0.116916
H117	H	1.375990	-0.258978	-0.915819
H118	H	1.875990	0.241022	-0.415819
Br119	Br	1.619619	-0.758641	-0.394138
Br120	Br	2.119619	-0.258641	0.105862
Br121	Br	1.673159	-0.917253	-0.340823
Br122	Br	2.173159	-0.417253	0.159177
H123	H	1.627233	-1.070236	-0.386826
H124	H	2.127233	-0.570236	0.113174
H125	H	1.575748	-0.825505	-0.437991
H126	H	2.075748	-0.325505	0.062009
