data_functionalizedCrystal
_audit_creation_method	'MofGen! by Chris Wilmer'
_symmetry_space_group_name_H-M	'P1'
_symmetry_Int_Tables_number	1
_symmetry_cell_setting	triclinic
loop_
_symmetry_equiv_pos_as_xyz
  x,y,z
_cell_length_a	10.686220
_cell_length_b	17.640280
_cell_length_c	10.686551
_cell_angle_alpha	73.631970
_cell_angle_beta	90.308082
_cell_angle_gamma	83.981976
loop_
_atom_site_label
_atom_site_type_symbol
_atom_site_fract_x
_atom_site_fract_y
_atom_site_fract_z
Zn1	Zn	2.029519	-0.193149	-0.495722
Zn2	Zn	2.055778	-0.336546	-0.236472
Zn3	Zn	1.809642	-0.213416	-0.295045
Zn4	Zn	1.861733	-0.334940	-0.462803
O5	O	1.939168	-0.269513	-0.372511
O6	O	2.206230	-0.204361	-0.450596
O7	O	2.012318	-0.329366	-0.065537
O8	O	1.806019	-0.099857	-0.359955
O9	O	2.225523	-0.309714	-0.260125
O10	O	1.967562	-0.084968	-0.507392
O11	O	1.831482	-0.238903	-0.108570
O12	O	1.643324	-0.237346	-0.328035
O13	O	1.894800	-0.306978	-0.645875
O14	O	1.681595	-0.326629	-0.451286
O15	O	2.018072	-0.202805	-0.670060
O16	O	2.062828	-0.447203	-0.228205
O17	O	1.920263	-0.446023	-0.394490
C18	C	1.617544	-0.284013	-0.392445
C19	C	1.479959	-0.290234	-0.400997
C20	C	2.000083	-0.475357	-0.301445
C21	C	2.026258	-0.563411	-0.271079
C22	C	1.740852	-0.850116	-0.603633
C23	C	1.765448	-0.932858	-0.575058
C24	C	1.914008	-0.934008	-0.402065
C25	C	1.889430	-0.851264	-0.430629
C26	C	1.802849	-0.809324	-0.531413
C27	C	1.951427	-0.810472	-0.358409
C28	C	1.926845	-0.727736	-0.386967
C29	C	1.840266	-0.685791	-0.487744
C30	C	1.778267	-0.726588	-0.559971
C31	C	2.038000	-0.852414	-0.257619
C32	C	2.099997	-0.811622	-0.185400
C33	C	2.075422	-0.728884	-0.213963
C34	C	1.988843	-0.686939	-0.314741
C35	C	2.137421	-0.688087	-0.141737
C36	C	2.112839	-0.605351	-0.170295
C37	C	1.964261	-0.604203	-0.343299
C38	C	2.262048	-0.254956	-0.352499
C39	C	2.399641	-0.248753	-0.343971
C40	C	1.959317	-0.252451	-0.705599
C41	C	1.967904	-0.245181	-0.847542
C42	C	1.878051	-0.062861	-0.443879
C43	C	1.852006	0.025201	-0.474292
C44	C	1.919151	-0.286447	-0.040733
C45	C	1.910739	-0.293484	0.101147
H46	H	1.443463	-0.330515	-0.456356
H47	H	1.984498	-0.968166	-0.320002
O48	O	2.184085	-0.852485	-0.087568
C49	C	2.287707	-0.980462	0.033191
C50	C	2.192477	-0.934283	-0.077666
H51	H	2.294502	-1.046606	0.041251
H52	H	2.384072	-0.958553	0.011271
H53	H	2.254977	-0.970411	0.129192
H54	H	2.225090	-0.944313	-0.173712
H55	H	2.096133	-0.956200	-0.055633
O56	O	1.844514	-0.349528	-0.821895
C57	C	1.717973	-0.456403	-0.810710
C58	C	1.792950	-0.392977	-0.898019
H59	H	1.676241	-0.491538	-0.872226
H60	H	1.783293	-0.498481	-0.730469
H61	H	1.638800	-0.426101	-0.764804
H62	H	1.872125	-0.423211	-0.944016
H63	H	1.727547	-0.350904	-0.978185
H64	H	2.023424	-0.198264	-0.912208
H65	H	1.436133	-0.208480	-0.288605
O66	O	1.880238	-0.563329	-0.441200
C67	C	1.776476	-0.435361	-0.561808
C68	C	1.871677	-0.481549	-0.450930
H69	H	1.769503	-0.369235	-0.569693
H70	H	1.809177	-0.445288	-0.657901
H71	H	1.680191	-0.457381	-0.539854
H72	H	1.967991	-0.459557	-0.472759
H73	H	1.838869	-0.471621	-0.354871
O74	O	2.221361	-0.728809	-0.043669
C75	C	2.276029	-0.762471	0.185965
C76	C	2.180853	-0.716334	0.075028
H77	H	2.243327	-0.752388	0.281953
H78	H	2.282939	-0.828629	0.194097
H79	H	2.372342	-0.740505	0.163945
H80	H	2.084491	-0.738232	0.096967
H81	H	2.174053	-0.650184	0.066923
O82	O	1.694102	-0.685965	-0.657897
C83	C	1.549424	-0.693537	-0.826575
C84	C	1.644674	-0.739643	-0.715691
H85	H	1.509454	-0.736914	-0.873351
H86	H	1.469616	-0.660782	-0.785333
H87	H	1.598761	-0.648766	-0.903195
H88	H	1.595448	-0.784454	-0.639032
H89	H	1.724475	-0.772344	-0.757030
O90	O	1.705157	-0.972355	-0.645390
C91	C	1.555144	-0.962487	-0.819956
C92	C	1.623354	-0.917655	-0.740433
H93	H	1.488972	-0.918283	-0.896798
H94	H	1.627405	-0.995175	-0.870001
H95	H	1.498494	-1.007208	-0.751867
H96	H	1.680003	-0.872896	-0.808433
H97	H	1.551031	-0.885020	-0.690372
O98	O	2.062014	-0.932768	-0.230076
C99	C	2.136353	-1.043763	-0.309621
C100	C	2.109236	-0.952752	-0.340975
H101	H	2.174512	-1.059949	-0.399271
H102	H	2.208935	-1.066766	-0.225238
H103	H	2.045589	-1.071954	-0.281156
H104	H	2.199930	-0.924494	-0.369498
H105	H	2.036603	-0.929806	-0.425318
H106	H	1.670359	-0.815966	-0.685711
H107	H	1.820243	-0.618423	-0.510986
O108	O	2.172865	-0.565698	-0.100036
C109	C	2.151461	-0.480324	0.041090
C110	C	2.083329	-0.525207	-0.038404
H111	H	2.079100	-0.447562	0.090917
H112	H	2.217530	-0.524478	0.118107
H113	H	2.208200	-0.435656	-0.026991
H114	H	2.026521	-0.569874	0.029573
H115	H	2.017334	-0.481006	-0.115435
