data_functionalizedCrystal
_audit_creation_method	'MofGen! by Chris Wilmer'
_symmetry_space_group_name_H-M	'P1'
_symmetry_Int_Tables_number	1
_symmetry_cell_setting	triclinic
loop_
_symmetry_equiv_pos_as_xyz
  x,y,z
_cell_length_a	27.732048
_cell_length_b	27.731996
_cell_length_c	15.455313
_cell_angle_alpha	92.636264
_cell_angle_beta	87.346468
_cell_angle_gamma	82.632022
loop_
_atom_site_label
_atom_site_type_symbol
_atom_site_fract_x
_atom_site_fract_y
_atom_site_fract_z
O1	O	0.643048	0.055391	-0.072029
O2	O	1.143048	0.555391	0.427971
O3	O	0.502254	0.064136	-0.072057
O4	O	1.002254	0.564136	0.427943
O5	O	0.577037	-0.010634	-0.072024
O6	O	1.077037	0.489366	0.427976
O7	O	0.568266	0.130162	-0.072063
O8	O	1.068266	0.630162	0.427937
O9	O	0.572760	-0.006376	0.072237
O10	O	1.072760	0.493624	0.572237
O11	O	0.497978	0.068394	0.072203
O12	O	0.997978	0.568394	0.572203
O13	O	0.638772	0.059649	0.072231
O14	O	1.138772	0.559649	0.572231
Cu15	Cu	0.567984	0.064411	0.085389
Cu16	Cu	1.067984	0.564411	0.585389
Cu17	Cu	0.573042	0.059375	-0.085215
Cu18	Cu	1.073042	0.559375	0.414785
O19	O	0.563990	0.134420	0.072197
O20	O	1.063990	0.634420	0.572197
C21	C	0.482109	0.066082	0.000070
C22	C	0.982109	0.566082	0.500070
C23	C	0.428455	0.065528	0.000060
C24	C	0.928455	0.565528	0.500060
C25	C	0.089631	0.106234	0.000086
C26	C	0.589631	0.606234	0.500086
C27	C	-0.112028	0.104183	0.000094
C28	C	0.387972	0.604183	0.500094
O29	O	-0.143292	0.141406	0.000122
O30	O	0.356708	0.641406	0.500122
N31	N	-0.131144	0.059847	0.000105
N32	N	0.368856	0.559847	0.500105
C33	C	-0.099842	0.016021	0.000120
C34	C	0.400158	0.516021	0.500120
O35	O	-0.120728	-0.021736	0.000138
O36	O	0.379272	0.478264	0.500138
C37	C	0.101817	0.018072	0.000118
C38	C	0.601817	0.518072	0.500118
C39	C	0.120930	0.062411	0.000098
C40	C	0.620930	0.562411	0.500098
C41	C	0.108745	0.150569	0.000067
C42	C	0.608745	0.650569	0.500067
C43	C	0.159157	0.151081	0.000061
C44	C	0.659157	0.651081	0.500061
C45	C	0.190455	0.107258	0.000072
C46	C	0.690455	0.607258	0.500072
C47	C	0.171342	0.062923	0.000091
C48	C	0.671342	0.562923	0.500091
C49	C	0.133118	-0.025753	0.000138
C50	C	0.633118	0.474247	0.500138
C51	C	0.183535	-0.025236	0.000140
C52	C	0.683535	0.474764	0.500140
C53	C	0.202648	0.019102	0.000120
C54	C	0.702648	0.519102	0.500120
C55	C	0.253052	0.019612	0.000096
C56	C	0.753052	0.519612	0.500096
N57	N	0.272168	0.063948	0.000085
N58	N	0.772168	0.563948	0.500085
C59	C	0.240870	0.107771	0.000073
C60	C	0.740870	0.607771	0.500073
C61	C	-0.205716	0.014947	0.000119
C62	C	0.294284	0.514947	0.500119
C63	C	-0.256130	0.014434	0.000118
C64	C	0.243870	0.514434	0.500118
C65	C	-0.268313	0.102596	0.000094
C66	C	0.231687	0.602596	0.500094
C67	C	-0.217898	0.103109	0.000089
C68	C	0.282102	0.603109	0.500089
C69	C	-0.186600	0.059283	0.000108
C70	C	0.313400	0.559283	0.500108
C71	C	0.346739	0.108843	0.000058
C72	C	0.846739	0.608843	0.500058
C73	C	0.397156	0.109351	0.000048
C74	C	0.897156	0.609351	0.500048
C75	C	0.409335	0.021189	0.000076
C76	C	0.909335	0.521189	0.500076
C77	C	0.358922	0.020681	0.000082
C78	C	0.858922	0.520681	0.500082
C79	C	0.327625	0.064512	0.000076
C80	C	0.827625	0.564512	0.500076
O81	O	0.284344	-0.017590	0.000079
O82	O	0.784344	0.482410	0.500079
O83	O	0.261765	0.145524	0.000074
O84	O	0.761765	0.645524	0.500074
C85	C	0.039219	0.105722	0.000093
C86	C	0.539219	0.605722	0.500093
C87	C	0.020106	0.061387	0.000112
C88	C	0.520106	0.561387	0.500112
C89	C	0.051404	0.017564	0.000123
C90	C	0.551404	0.517564	0.500123
C91	C	-0.030309	0.060874	0.000111
C92	C	0.469691	0.560874	0.500111
C93	C	-0.061607	0.104697	0.000099
C94	C	0.438393	0.604697	0.500099
C95	C	-0.042491	0.149033	0.000088
C96	C	0.457509	0.649033	0.500088
C97	C	0.007921	0.149545	0.000081
C98	C	0.507921	0.649545	0.500081
C99	C	0.032288	-0.026772	0.000134
C100	C	0.532288	0.473228	0.500134
C101	C	-0.018124	-0.027281	0.000140
C102	C	0.481876	0.472719	0.500140
C103	C	-0.049423	0.016542	0.000128
C104	C	0.450577	0.516542	0.500128
C105	C	0.574718	-0.026513	0.000109
C106	C	1.074718	0.473487	0.500109
C107	C	0.574175	-0.080169	0.000118
C108	C	1.074175	0.419831	0.500118
C109	C	0.573093	-0.415207	-0.078561
C110	C	1.073093	0.084793	0.421439
C111	C	0.571032	-0.616866	-0.078577
C112	C	1.071032	-0.116866	0.421423
O113	O	0.572727	-0.644911	-0.145455
O114	O	1.072727	-0.144911	0.354545
N115	N	0.568445	-0.639762	0.000059
N116	N	1.068445	-0.139762	0.500059
C117	C	0.566370	-0.612240	0.078704
C118	C	1.066370	-0.112240	0.578704
O119	O	0.564117	-0.636340	0.145587
O120	O	1.064117	-0.136340	0.645587
C121	C	0.568427	-0.410581	0.078718
C122	C	1.068427	0.089419	0.578718
C123	C	0.571019	-0.387689	0.000078
C124	C	1.071019	0.112311	0.500078
C125	C	0.575684	-0.392314	-0.157195
C126	C	1.075684	0.107686	0.342805
C127	C	0.576202	-0.341903	-0.157191
C128	C	1.076202	0.158097	0.342809
C129	C	0.574128	-0.314385	-0.078552
C130	C	1.074128	0.185615	0.421448
C131	C	0.571537	-0.337277	0.000082
C132	C	1.071537	0.162723	0.500082
C133	C	0.566348	-0.383059	0.157362
C134	C	1.066348	0.116941	0.657362
C135	C	0.566862	-0.332642	0.157359
C136	C	1.066862	0.167358	0.657359
C137	C	0.569454	-0.309749	0.078718
C138	C	1.069454	0.190251	0.578718
C139	C	0.569981	-0.259348	0.078726
C140	C	1.069981	0.240652	0.578726
N141	N	0.572568	-0.236452	0.000091
N142	N	1.072568	0.263548	0.500091
C143	C	0.574642	-0.263970	-0.078548
C144	C	1.074642	0.236030	0.421452
C145	C	0.565291	-0.718113	0.078690
C146	C	1.065291	-0.218113	0.578690
C147	C	0.564778	-0.768528	0.078687
C148	C	1.064778	-0.268528	0.578687
C149	C	0.569439	-0.773151	-0.078594
C150	C	1.069439	-0.273151	0.421406
C151	C	0.569956	-0.722736	-0.078590
C152	C	1.069956	-0.222736	0.421410
C153	C	0.567878	-0.695217	0.000055
C154	C	1.067878	-0.195217	0.500055
C155	C	0.575729	-0.158103	-0.078532
C156	C	1.075729	0.341897	0.421468
C157	C	0.576249	-0.107687	-0.078521
C158	C	1.076249	0.392313	0.421479
C159	C	0.571585	-0.103068	0.078759
C160	C	1.071585	0.396932	0.578759
C161	C	0.571068	-0.153480	0.078748
C162	C	1.071068	0.346520	0.578748
C163	C	0.573139	-0.180996	0.000095
C164	C	1.073139	0.319004	0.500095
O165	O	0.568282	-0.231272	0.145569
O166	O	1.068282	0.268728	0.645569
O167	O	0.576883	-0.239859	-0.145422
O168	O	1.076883	0.260141	0.354578
C169	C	0.572575	-0.465619	-0.078566
C170	C	1.072575	0.034381	0.421434
C171	C	0.569984	-0.488511	0.000068
C172	C	1.069984	0.011489	0.500068
C173	C	0.567910	-0.460993	0.078707
C174	C	1.067910	0.039007	0.578707
C175	C	0.569470	-0.538926	0.000065
C176	C	1.069470	-0.038926	0.500065
C177	C	0.571544	-0.566444	-0.078574
C178	C	1.071544	-0.066444	0.421426
C179	C	0.574131	-0.543548	-0.157209
C180	C	1.074131	-0.043548	0.342791
C181	C	0.574648	-0.493137	-0.157205
C182	C	1.074648	0.006863	0.342795
C183	C	0.565323	-0.483889	0.157343
C184	C	1.065323	0.016111	0.657343
C185	C	0.564806	-0.534301	0.157331
C186	C	1.064806	-0.034301	0.657331
C187	C	0.566880	-0.561819	0.078693
C188	C	1.066880	-0.061819	0.578693
C189	C	0.658917	0.057704	0.000102
C190	C	1.158917	0.557704	0.500102
C191	C	0.712572	0.058257	0.000106
C192	C	1.212572	0.558257	0.500106
C193	C	0.566308	0.150298	0.000062
C194	C	1.066308	0.650298	0.500062
C195	C	0.566851	0.203954	0.000048
C196	C	1.066851	0.703954	0.500048
N197	N	0.564431	0.067952	0.205383
N198	N	1.064431	0.567952	0.705383
N199	N	0.576599	0.055829	-0.205209
N200	N	1.076599	0.555829	0.294791
C201	C	0.596212	0.036199	0.250791
C202	C	1.096212	0.536199	0.750791
C203	C	0.593529	0.038882	0.341598
C204	C	1.093529	0.538882	0.841598
C205	C	0.559067	0.073321	0.386995
C206	C	1.059067	0.573321	0.886995
C207	C	0.527283	0.105076	0.341580
C208	C	1.027283	0.605076	0.841580
C209	C	0.529964	0.102390	0.250775
C210	C	1.029964	0.602390	0.750775
C211	C	0.547495	0.084899	0.658571
C212	C	1.047495	0.584899	1.158571
C213	C	0.544818	0.087583	0.749382
C214	C	1.044818	0.587583	1.249382
C215	C	0.611064	0.021388	0.749394
C216	C	1.111064	0.521388	1.249394
C217	C	0.613744	0.018708	0.658587
C218	C	1.113744	0.518708	1.158587
C219	C	0.581958	0.050461	0.613181
C220	C	1.081958	0.550461	1.113181
N221	N	0.556325	0.076065	0.479814
N222	N	1.056325	0.576065	0.979814
N223	N	0.584698	0.047714	0.520363
N224	N	1.084698	0.547714	1.020363
H225	H	-0.293805	0.138279	0.000085
H226	H	0.206195	0.638279	0.500085
Br227	Br	-0.282062	-0.045743	0.000119
Br228	Br	0.217938	0.454257	0.500119
H229	H	0.568962	-0.172120	0.142784
H230	H	1.068962	0.327880	0.642784
Br231	Br	0.033851	0.209722	0.000053
Br232	Br	0.533851	0.709722	0.500053
H233	H	0.572066	-0.704100	-0.142626
H234	H	1.072066	-0.204100	0.357374
Br235	Br	0.579769	-0.076622	-0.185254
Br236	Br	1.079769	0.423378	0.314746
H237	H	0.576759	-0.474503	-0.221242
H238	H	1.076759	0.025497	0.278758
Br239	Br	0.480508	0.151812	0.403186
Br240	Br	0.980508	0.651812	0.903186
H241	H	0.564239	-0.401690	0.221400
H242	H	1.064239	0.098310	0.721400
Br243	Br	-0.163246	-0.044537	0.000145
Br244	Br	0.336754	0.455463	0.500145
H245	H	0.504084	0.128247	0.213804
H246	H	1.004084	0.628247	0.713804
H247	H	0.577413	-0.180500	-0.142579
H248	H	1.077413	0.319500	0.357421
Br249	Br	0.561292	-0.565363	0.264069
Br250	Br	1.061292	-0.065363	0.764069
Br251	Br	0.642988	-0.010539	0.189191
Br252	Br	1.142988	0.489461	0.689191
Br253	Br	0.504359	0.127992	0.596952
Br254	Br	1.004359	0.627992	1.096952
H255	H	0.412715	0.145459	0.000032
H256	H	0.912715	0.645459	0.500032
Br257	Br	0.226008	-0.084718	0.000170
Br258	Br	0.726008	0.415282	0.500170
H259	H	0.569899	-0.080654	0.142785
H260	H	1.069899	0.419346	0.642785
H261	H	0.516753	0.115629	0.786340
H262	H	1.016753	0.615629	1.286340
H263	H	0.636942	-0.004465	0.786373
H264	H	1.136942	0.495535	1.286373
H265	H	-0.202340	0.139213	0.000078
H266	H	0.297660	0.639213	0.500078
Br267	Br	0.304272	0.168329	0.000052
Br268	Br	0.804272	0.668329	0.500052
H269	H	0.563635	-0.461488	0.221381
H270	H	1.063635	0.038512	0.721381
Br271	Br	0.185087	0.211258	0.000038
Br272	Br	0.685087	0.711258	0.500038
H273	H	0.117565	-0.061858	0.000155
H274	H	0.617565	0.438142	0.500155
H275	H	0.619408	0.013025	0.378569
H276	H	1.119408	0.513025	0.878569
Br277	Br	0.451821	-0.038282	0.000094
Br278	Br	0.951821	0.461718	0.500094
Br279	Br	0.332982	-0.039493	0.000111
Br280	Br	0.832982	0.460507	0.500111
Br281	Br	-0.084978	0.208506	0.000065
Br282	Br	0.415022	0.708506	0.500065
H283	H	-0.033680	-0.063389	0.000149
H284	H	0.466320	0.436611	0.500149
H285	H	0.083266	0.186257	0.000061
H286	H	0.583266	0.686257	0.500061
Br287	Br	0.579716	-0.310842	-0.263923
Br288	Br	1.079716	0.189158	0.236077
H289	H	0.057767	-0.062459	0.000146
H290	H	0.557767	0.437541	0.500146
H291	H	0.577371	-0.414715	-0.221236
H292	H	1.077371	0.085285	0.278764
H293	H	0.571128	-0.795565	-0.142625
H294	H	1.071128	-0.295565	0.357375
Br295	Br	0.561271	-0.799591	0.185418
Br296	Br	1.061271	-0.299591	0.685418
H297	H	0.563601	-0.695712	0.142736
H298	H	1.063601	-0.195712	0.642736
H299	H	0.565163	-0.310238	0.221402
H300	H	1.065163	0.189762	0.721402
Br301	Br	0.576949	-0.580905	-0.263933
Br302	Br	1.076949	-0.080905	0.236067
Br303	Br	0.660516	-0.028029	0.596976
Br304	Br	1.160516	0.471971	1.096976
