data_functionalizedCrystal
_audit_creation_method	'MofGen! by Chris Wilmer'
_symmetry_space_group_name_H-M	'P1'
_symmetry_Int_Tables_number	1
_symmetry_cell_setting	triclinic
loop_
_symmetry_equiv_pos_as_xyz
  x,y,z
_cell_length_a	19.288867
_cell_length_b	15.995350
_cell_length_c	17.766277
_cell_angle_alpha	89.995869
_cell_angle_beta	89.992126
_cell_angle_gamma	83.314722
loop_
_atom_site_label
_atom_site_type_symbol
_atom_site_fract_x
_atom_site_fract_y
_atom_site_fract_z
O1	O	0.921623	0.104460	-0.062564
O2	O	1.254957	0.437793	0.270769
O3	O	1.588290	0.771126	0.604102
O4	O	0.719399	0.118548	-0.062571
O5	O	1.052733	0.451881	0.270762
O6	O	1.386066	0.785215	0.604096
O7	O	0.826039	-0.010405	-0.062567
O8	O	1.159373	0.322929	0.270767
O9	O	1.492706	0.656262	0.604100
O10	O	0.814983	0.233412	-0.062568
O11	O	1.148317	0.566746	0.270765
O12	O	1.481650	0.900079	0.604098
O13	O	0.826020	-0.010411	0.062622
O14	O	1.159354	0.322922	0.395955
O15	O	1.492687	0.656256	0.729288
O16	O	0.719381	0.118542	0.062618
O17	O	1.052714	0.451875	0.395951
O18	O	1.386047	0.785208	0.729284
O19	O	0.921605	0.104453	0.062624
O20	O	1.254938	0.437786	0.395958
O21	O	1.588271	0.771120	0.729291
Cu22	Cu	0.820491	0.111497	0.074052
Cu23	Cu	1.153824	0.444830	0.407385
Cu24	Cu	1.487158	0.778163	0.740718
Cu25	Cu	0.820513	0.111504	-0.073998
Cu26	Cu	1.153846	0.444838	0.259335
Cu27	Cu	1.487180	0.778171	0.592668
O28	O	0.814965	0.233406	0.062620
O29	O	1.148298	0.566739	0.395953
O30	O	1.481631	0.900072	0.729287
C31	C	0.693512	0.118091	0.000022
C32	C	1.026846	0.451425	0.333356
C33	C	1.360179	0.784758	0.666689
C34	C	0.616405	0.116730	0.000020
C35	C	0.949739	0.450063	0.333353
C36	C	1.283072	0.783396	0.666686
C37	C	0.060825	0.106925	-0.068212
C38	C	0.394158	0.440258	0.265121
C39	C	0.727491	0.773592	0.598455
C40	C	0.133276	0.108200	-0.068215
C41	C	0.466609	0.441533	0.265119
C42	C	0.799942	0.774866	0.598452
C43	C	0.169496	0.108837	0.000025
C44	C	0.502829	0.442170	0.333359
C45	C	0.836162	0.775504	0.666692
C46	C	0.133261	0.108179	0.068273
C47	C	0.466595	0.441512	0.401607
C48	C	0.799928	0.774845	0.734940
C49	C	0.060813	0.106896	0.068274
C50	C	0.394146	0.440229	0.401608
C51	C	0.727479	0.773562	0.734941
C52	C	0.278948	0.159907	0.052306
C53	C	0.612281	0.493240	0.385639
C54	C	0.945614	0.826574	0.718972
C55	C	0.351394	0.161195	0.052302
C56	C	0.684728	0.494528	0.385635
C57	C	1.018061	0.827862	0.718969
C58	C	0.392952	0.112790	0.000026
C59	C	0.726285	0.446123	0.333359
C60	C	1.059618	0.779457	0.666692
C61	C	0.362052	0.063108	-0.052260
C62	C	0.695385	0.396441	0.281073
C63	C	1.028719	0.729775	0.614407
C64	C	0.289603	0.061825	-0.052259
C65	C	0.622937	0.395158	0.281074
C66	C	0.956270	0.728492	0.614408
C67	C	0.248054	0.110228	0.000032
C68	C	0.581387	0.443561	0.333365
C69	C	0.914721	0.776894	0.666699
C70	C	0.507737	0.114824	-0.068221
C71	C	0.841071	0.448158	0.265112
C72	C	1.174404	0.781491	0.598446
C73	C	0.580190	0.116093	-0.068221
C74	C	0.913524	0.449427	0.265112
C75	C	1.246857	0.782760	0.598446
C76	C	0.580173	0.116081	0.068269
C77	C	0.913507	0.449414	0.401602
C78	C	1.246840	0.782748	0.734936
C79	C	0.507723	0.114803	0.068267
C80	C	0.841056	0.448137	0.401600
C81	C	1.174390	0.781470	0.734934
C82	C	0.471509	0.114179	0.000020
C83	C	0.804842	0.447512	0.333353
C84	C	1.138176	0.780846	0.666686
C85	C	0.825573	-0.041601	0.000026
C86	C	1.158906	0.291732	0.333359
C87	C	1.492239	0.625066	0.666693
C88	C	0.824203	-0.134546	0.000022
C89	C	1.157536	0.198787	0.333355
C90	C	1.490869	0.532121	0.666688
C91	C	0.819281	-0.472275	0.000024
C92	C	1.152615	-0.138942	0.333357
C93	C	1.485948	0.194392	0.666691
C94	C	0.743335	-0.424555	-0.000259
C95	C	1.076668	-0.091222	0.333074
C96	C	1.410001	0.242111	0.666407
C97	C	0.744705	-0.327870	0.000023
C98	C	1.078038	0.005463	0.333356
C99	C	1.411372	0.338796	0.666690
C100	C	0.821722	-0.304724	0.000023
C101	C	1.155056	0.028610	0.333356
C102	C	1.488389	0.361943	0.666689
C103	C	0.859171	-0.345946	0.071511
C104	C	1.192505	-0.012613	0.404845
C105	C	1.525838	0.320721	0.738178
C106	C	0.857264	-0.442575	0.071571
C107	C	1.190597	-0.109241	0.404904
C108	C	1.523930	0.224092	0.738238
C109	C	0.858854	-0.442931	-0.070792
C110	C	1.192187	-0.109598	0.262542
C111	C	1.525520	0.223736	0.595875
C112	C	0.858836	-0.345986	-0.071736
C113	C	1.192169	-0.012652	0.261597
C114	C	1.525503	0.320681	0.594930
C115	C	0.823106	-0.210032	0.000024
C116	C	1.156439	0.123302	0.333358
C117	C	1.489773	0.456635	0.666691
C118	C	0.817900	-0.566968	0.000028
C119	C	1.151234	-0.233634	0.333361
C120	C	1.484567	0.099699	0.666694
C121	C	0.947491	0.104910	0.000029
C122	C	1.280825	0.438243	0.333363
C123	C	1.614158	0.771577	0.666696
C124	C	1.024599	0.106272	0.000027
C125	C	1.357932	0.439605	0.333360
C126	C	1.691265	0.772938	0.666694
C127	C	0.815431	0.264602	0.000026
C128	C	1.148764	0.597935	0.333359
C129	C	1.482098	0.931269	0.666692
C130	C	0.816801	0.357547	0.000025
C131	C	1.150135	0.690881	0.333358
C132	C	1.483468	1.024214	0.666692
N133	N	0.820480	0.111491	0.178182
N134	N	1.153814	0.444824	0.511515
N135	N	1.487147	0.778157	0.844849
N136	N	0.820529	0.111504	-0.178129
N137	N	1.153862	0.444837	0.155205
N138	N	1.487196	0.778170	0.488538
C139	C	0.867716	0.054418	0.217571
C140	C	1.201049	0.387752	0.550904
C141	C	1.534382	0.721085	0.884237
C142	C	0.867720	0.054414	0.296373
C143	C	1.201053	0.387748	0.629706
C144	C	1.534386	0.721081	0.963039
C145	C	0.820495	0.111497	0.335783
C146	C	1.153828	0.444831	0.669116
C147	C	1.487162	0.778164	1.002449
C148	C	0.773251	0.168574	0.296384
C149	C	1.106584	0.501907	0.629718
C150	C	1.439917	0.835241	0.963051
C151	C	0.773243	0.168571	0.217584
C152	C	1.106577	0.501904	0.550917
C153	C	1.439910	0.835237	0.884251
C154	C	0.811394	0.187788	0.460620
C155	C	1.144728	0.521121	0.793953
C156	C	1.478061	0.854455	1.127286
C157	C	0.811406	0.187792	0.539419
C158	C	1.144740	0.521126	0.872752
C159	C	1.478073	0.854459	1.206085
C160	C	0.820514	0.111507	0.578829
C161	C	1.153847	0.444841	0.912162
C162	C	1.487180	0.778174	1.245496
C163	C	0.829623	0.035215	0.539431
C164	C	1.162957	0.368548	0.872764
C165	C	1.496290	0.701881	1.206097
C166	C	0.829616	0.035211	0.460630
C167	C	1.162949	0.368545	0.793964
C168	C	1.496283	0.701878	1.127297
C169	C	0.820497	0.111507	0.421228
C170	C	1.153831	0.444840	0.754562
C171	C	1.487164	0.778174	1.087895
C172	C	0.867756	0.054426	0.703664
C173	C	1.201089	0.387759	1.036997
C174	C	1.534423	0.721093	1.370330
C175	C	0.867755	0.054421	0.782467
C176	C	1.201088	0.387754	1.115800
C177	C	1.534422	0.721088	1.449134
C178	C	0.773289	0.168588	0.782477
C179	C	1.106623	0.501921	1.115810
C180	C	1.439956	0.835255	1.449144
C181	C	0.773287	0.168586	0.703675
C182	C	1.106620	0.501919	1.037009
C183	C	1.439954	0.835252	1.370342
C184	C	0.820524	0.111506	0.664273
C185	C	1.153857	0.444839	0.997607
C186	C	1.487190	0.778172	1.330940
H187	H	0.609663	0.116597	0.123831
H188	H	0.942997	0.449930	0.457165
H189	H	1.276330	0.783264	0.790498
Cl190	Cl	0.462177	0.113995	0.154058
Cl191	Cl	0.795511	0.447329	0.487392
Cl192	Cl	1.128844	0.780662	0.820725
Cl193	Cl	0.841078	-0.060693	0.588966
Cl194	Cl	1.174412	0.272640	0.922299
Cl195	Cl	1.507745	0.605973	1.255632
Cl196	Cl	0.015303	0.106133	-0.154008
Cl197	Cl	0.348636	0.439467	0.179325
Cl198	Cl	0.681970	0.772800	0.512659
H199	H	0.609685	0.116619	-0.123792
H200	H	0.943018	0.449953	0.209542
H201	H	1.276352	0.783286	0.542875
H202	H	0.376545	0.201669	0.094860
H203	H	0.709878	0.535003	0.428194
H204	H	1.043211	0.868336	0.761527
H205	H	0.829940	-0.460776	0.125010
H206	H	1.163273	-0.127443	0.458344
H207	H	1.496607	0.205891	0.791677
H208	H	0.833146	-0.317469	0.124711
H209	H	1.166479	0.015864	0.458044
H210	H	1.499812	0.349197	0.791378
Cl211	Cl	0.927135	-0.017335	0.654128
Cl212	Cl	1.260469	0.315998	0.987462
Cl213	Cl	1.593802	0.649331	1.320795
Cl214	Cl	0.462209	0.114033	-0.154015
Cl215	Cl	0.795542	0.447366	0.179318
Cl216	Cl	1.128875	0.780700	0.512651
H217	H	0.913022	-0.475033	0.074814
H218	H	1.246356	-0.141699	0.408148
H219	H	1.579689	0.191634	0.741481
H220	H	0.734835	0.215063	0.814564
H221	H	1.068169	0.548396	1.147897
H222	H	1.401502	0.881729	1.481231
Cl223	Cl	0.226712	0.220755	0.118039
Cl224	Cl	0.560046	0.554088	0.451372
Cl225	Cl	0.893379	0.887422	0.784706
H226	H	0.906218	0.007942	0.814538
H227	H	1.239551	0.341275	1.147871
H228	H	1.572884	0.674608	1.481204
Cl229	Cl	0.178794	0.108977	0.154061
Cl230	Cl	0.512128	0.442310	0.487394
Cl231	Cl	0.845461	0.775643	0.820728
H232	H	0.803993	0.249914	0.571491
H233	H	1.137326	0.583248	0.904824
H234	H	1.470660	0.916581	1.238157
Cl235	Cl	0.699254	-0.283810	-0.079096
Cl236	Cl	1.032587	0.049524	0.254237
Cl237	Cl	1.365920	0.382857	0.587571
H238	H	0.734826	0.215063	0.671603
H239	H	1.068159	0.548396	1.004936
H240	H	1.401493	0.881729	1.338269
H241	H	0.713106	-0.444038	0.050719
H242	H	1.046440	-0.110705	0.384053
H243	H	1.379773	0.222628	0.717386
Cl244	Cl	0.800009	0.283701	0.411084
Cl245	Cl	1.133343	0.617034	0.744417
Cl246	Cl	1.466676	0.950368	1.077750
H247	H	0.715054	-0.299897	0.051354
H248	H	1.048387	0.033437	0.384688
H249	H	1.381720	0.366770	0.718021
Cl250	Cl	0.820523	-0.474481	-0.154449
Cl251	Cl	1.153856	-0.141147	0.178885
Cl252	Cl	1.487189	0.192186	0.512218
H253	H	0.734798	0.215051	0.328476
H254	H	1.068132	0.548384	0.661809
H255	H	1.401465	0.881717	0.995142
H256	H	0.831456	-0.318631	-0.124622
H257	H	1.164789	0.014702	0.208712
H258	H	1.498123	0.348036	0.542045
Cl259	Cl	0.178827	0.109024	-0.154007
Cl260	Cl	0.512160	0.442357	0.179326
Cl261	Cl	0.845493	0.775690	0.512659
Cl262	Cl	0.015268	0.106078	0.154068
Cl263	Cl	0.348602	0.439411	0.487401
Cl264	Cl	0.681935	0.772745	0.820734
Cl265	Cl	0.696476	-0.452984	-0.079411
Cl266	Cl	1.029809	-0.119651	0.253923
Cl267	Cl	1.363142	0.213683	0.587256
Cl268	Cl	0.713858	0.240326	0.168063
Cl269	Cl	1.047191	0.573659	0.501396
Cl270	Cl	1.380524	0.906992	0.834730
Cl271	Cl	0.945551	-0.322591	-0.078407
Cl272	Cl	1.278884	0.010742	0.254926
Cl273	Cl	1.612217	0.344076	0.588260
Cl274	Cl	0.945305	-0.492294	-0.071537
Cl275	Cl	1.278638	-0.158961	0.261797
Cl276	Cl	1.611972	0.174373	0.595130
Cl277	Cl	0.250761	-0.000633	-0.117983
Cl278	Cl	0.584094	0.332700	0.215351
Cl279	Cl	0.917427	0.666033	0.548684
Cl280	Cl	0.927094	-0.017342	0.168037
Cl281	Cl	1.260428	0.315991	0.501371
Cl282	Cl	1.593761	0.649325	0.834704
H283	H	0.395886	0.023695	-0.094831
H284	H	0.729220	0.357028	0.238503
H285	H	1.062553	0.690361	0.571836
H286	H	0.837032	-0.026909	0.428555
H287	H	1.170365	0.306425	0.761889
H288	H	1.503698	0.639758	1.095222
Cl289	Cl	0.946531	-0.324468	0.075620
Cl290	Cl	1.279864	0.008865	0.408953
Cl291	Cl	1.613197	0.342199	0.742287
Cl292	Cl	0.927108	-0.017339	0.345898
Cl293	Cl	1.260441	0.315994	0.679232
Cl294	Cl	1.593774	0.649327	1.012565
