data_functionalizedCrystal
_audit_creation_method	'MofGen! by Chris Wilmer'
_symmetry_space_group_name_H-M	'P1'
_symmetry_Int_Tables_number	1
_symmetry_cell_setting	triclinic
loop_
_symmetry_equiv_pos_as_xyz
  x,y,z
_cell_length_a	6.817900
_cell_length_b	19.551136
_cell_length_c	19.453114
_cell_angle_alpha	96.340680
_cell_angle_beta	101.709288
_cell_angle_gamma	101.650842
loop_
_atom_site_label
_atom_site_type_symbol
_atom_site_fract_x
_atom_site_fract_y
_atom_site_fract_z
V1	V	-3.997720	-0.097405	-0.219347
V2	V	-3.497720	0.402595	0.280653
O3	O	-3.995109	0.003932	-0.214816
O4	O	-3.495109	0.503932	0.285184
O5	O	-3.940469	-0.192418	-0.218190
O6	O	-3.440469	0.307582	0.281810
O7	O	-3.940744	-0.096235	-0.314856
O8	O	-3.440744	0.403765	0.185144
O9	O	-3.994832	-0.092917	-0.117480
O10	O	-3.494832	0.407083	0.382520
V11	V	-4.483606	-0.085245	-0.207122
V12	V	-3.983606	0.414755	0.292878
O13	O	-4.253795	-0.124079	-0.246166
O14	O	-3.753795	0.375921	0.253834
O15	O	-4.677728	-0.058572	-0.180304
O16	O	-4.177728	0.441428	0.319696
O17	O	-4.317650	0.009768	-0.208280
O18	O	-3.817650	0.509768	0.291720
O19	O	-4.603613	-0.186583	-0.211653
O20	O	-4.103613	0.313417	0.288347
O21	O	-4.603890	-0.089734	-0.308989
O22	O	-4.103890	0.410266	0.191011
O23	O	-4.317375	-0.086415	-0.111613
O24	O	-3.817375	0.413585	0.388387
C25	C	-3.783594	-0.215570	-0.214818
C26	C	-3.283594	0.284430	0.285182
C27	C	-3.818014	-0.293247	-0.214508
C28	C	-3.318014	0.206753	0.285492
C29	C	-3.800746	-0.319523	-0.149994
C30	C	-3.300746	0.180477	0.350006
C31	C	-3.833161	-0.392506	-0.149681
C32	C	-3.333161	0.107494	0.350319
C33	C	-3.882804	-0.439210	-0.213885
C34	C	-3.382804	0.060790	0.286115
C35	C	-3.900083	-0.412927	-0.278407
C36	C	-3.400083	0.087073	0.221593
C37	C	-3.867688	-0.339945	-0.278719
C38	C	-3.367688	0.160055	0.221281
C39	C	-3.843135	-0.560376	-0.260437
C40	C	-3.343135	-0.060376	0.239563
C41	C	-3.875515	-0.633356	-0.260123
C42	C	-3.375515	-0.133356	0.239877
C43	C	-3.982731	-0.664311	-0.212927
C44	C	-3.482731	-0.164311	0.287073
C45	C	-4.057530	-0.622276	-0.166033
C46	C	-3.557530	-0.122276	0.333967
C47	C	-4.025135	-0.549294	-0.166344
C48	C	-3.525135	-0.049294	0.333656
C49	C	-3.917936	-0.518348	-0.213554
C50	C	-3.417936	-0.018348	0.286446
C51	C	-4.000611	-0.769724	-0.148070
C52	C	-3.500611	-0.269724	0.351930
C53	C	-4.033040	-0.842709	-0.147760
C54	C	-3.533040	-0.342709	0.352240
C55	C	-4.099943	-0.863128	-0.276487
C56	C	-3.599943	-0.363128	0.223513
C57	C	-4.067534	-0.790145	-0.276796
C58	C	-3.567534	-0.290145	0.223204
C59	C	-4.017859	-0.743446	-0.212585
C60	C	-3.517859	-0.243446	0.287415
C61	C	-3.783944	-0.092879	-0.338125
C62	C	-3.283944	0.407121	0.161875
C63	C	-3.818585	-0.092551	-0.416206
C64	C	-3.318585	0.407449	0.083794
C65	C	-4.016314	-0.095904	-0.456475
C66	C	-3.516314	0.404096	0.043525
C67	C	-4.048864	-0.095596	-0.529841
C68	C	-3.548864	0.404404	-0.029841
C69	C	-3.883679	-0.091949	-0.562937
C70	C	-3.383679	0.408051	-0.062937
C71	C	-3.685919	-0.088591	-0.522657
C72	C	-3.185919	0.411409	-0.022657
C73	C	-3.653372	-0.088892	-0.449292
C74	C	-3.153372	0.411108	0.050708
N75	N	-3.820498	-0.128850	-0.681858
N76	N	-3.320498	0.371150	-0.181858
N77	N	-3.851430	-0.128566	-0.751552
N78	N	-3.351430	0.371434	-0.251552
C79	C	-3.981730	-0.091041	-0.783982
C80	C	-3.481730	0.408959	-0.283982
N81	N	-4.079965	-0.053819	-0.744086
N82	N	-3.579965	0.446181	-0.244086
N83	N	-4.049038	-0.054107	-0.674385
N84	N	-3.549038	0.445893	-0.174385
C85	C	-3.918950	-0.091622	-0.642488
C86	C	-3.418950	0.408378	-0.142488
C87	C	-4.214765	-0.094059	-0.903802
C88	C	-3.714765	0.405941	-0.403802
C89	C	-4.247305	-0.093747	-0.977168
C90	C	-3.747305	0.406253	-0.477168
C91	C	-3.884358	-0.086749	-0.969985
C92	C	-3.384358	0.413251	-0.469985
C93	C	-3.851821	-0.087054	-0.896619
C94	C	-3.351821	0.412946	-0.396619
C95	C	-4.017033	-0.090713	-0.863533
C96	C	-3.517033	0.409287	-0.363533
C97	C	-4.137867	0.032916	-0.211650
C98	C	-3.637867	0.532916	0.288350
C99	C	-4.082685	0.110592	-0.211964
C100	C	-3.582685	0.610592	0.288036
C101	C	-4.137517	-0.089774	-0.088341
C102	C	-3.637517	0.410226	0.411659
C103	C	-4.082115	-0.090099	-0.010259
C104	C	-3.582115	0.409901	0.489741
H105	H	-3.814602	-0.667576	-0.298306
H106	H	-3.314602	-0.167576	0.201694
F107	F	-4.457765	-0.097315	-1.020026
F108	F	-3.957765	0.402685	-0.520026
H109	H	-4.209886	-0.098331	-0.562635
H110	H	-3.709886	0.401669	-0.062635
H111	H	-4.081581	-0.768751	-0.329330
H112	H	-3.581581	-0.268751	0.170670
H113	H	-3.551426	-0.085619	-0.549608
H114	H	-3.051426	0.414381	-0.049608
H115	H	-4.086044	-0.515071	-0.128163
H116	H	-3.586044	-0.015071	0.371837
F117	F	-3.947755	-0.720021	-0.079732
F118	F	-3.447755	-0.220021	0.420268
F119	F	-3.442914	-0.085325	-0.406433
F120	F	-2.942914	0.414675	0.093567
F121	F	-4.152793	-0.912830	-0.344819
F122	F	-3.652793	-0.412830	0.155181
F123	F	-3.952927	-0.462634	-0.346737
F124	F	-3.452927	0.037366	0.153263
H125	H	-3.755828	-0.535179	-0.298873
H126	H	-3.255828	-0.035179	0.201127
F127	F	-3.708547	-0.082857	-1.005201
F128	F	-3.208547	0.417143	-0.505201
F129	F	-3.641372	-0.083495	-0.853761
F130	F	-3.141372	0.416505	-0.353761
H131	H	-3.819095	-0.413904	-0.097145
H132	H	-3.319095	0.086096	0.402855
H133	H	-3.760313	-0.281505	-0.097708
H134	H	-3.260313	0.218495	0.402292
F135	F	-4.171624	-0.655213	-0.115795
F136	F	-3.671624	-0.155213	0.384205
H137	H	-4.018989	-0.864100	-0.095223
H138	H	-3.518989	-0.364100	0.404777
F139	F	-4.192150	-0.099795	-0.421266
F140	F	-3.692150	0.400205	0.078734
F141	F	-3.886067	-0.311980	-0.347386
F142	F	-3.386067	0.188020	0.152614
H143	H	-4.349290	-0.097036	-0.876862
H144	H	-3.849290	0.402964	-0.376862
