data_functionalizedCrystal
_audit_creation_method	'MofGen! by Chris Wilmer'
_symmetry_space_group_name_H-M	'P1'
_symmetry_Int_Tables_number	1
_symmetry_cell_setting	triclinic
loop_
_symmetry_equiv_pos_as_xyz
  x,y,z
_cell_length_a	19.077409
_cell_length_b	17.637651
_cell_length_c	19.076919
_cell_angle_alpha	99.433464
_cell_angle_beta	85.523525
_cell_angle_gamma	103.923911
loop_
_atom_site_label
_atom_site_type_symbol
_atom_site_fract_x
_atom_site_fract_y
_atom_site_fract_z
Zn1	Zn	1.012774	-0.282861	0.306438
Zn2	Zn	1.512774	0.217139	0.806438
Zn3	Zn	0.995528	-0.409545	0.166607
Zn4	Zn	1.495528	0.090455	0.666607
Zn5	Zn	0.899624	-0.282887	0.193282
Zn6	Zn	1.399624	0.217113	0.693282
Zn7	Zn	0.871051	-0.420570	0.287259
Zn8	Zn	1.371051	0.079430	0.787259
O9	O	0.944744	-0.348966	0.238396
O10	O	1.444744	0.151034	0.738396
O11	O	1.109933	-0.295041	0.284752
O12	O	1.609933	0.204959	0.784752
O13	O	0.987547	-0.388140	0.072296
O14	O	1.487547	0.111860	0.572296
O15	O	0.933809	-0.172245	0.227482
O16	O	1.433809	0.327755	0.727482
O17	O	1.097263	-0.388115	0.182019
O18	O	1.597263	0.111885	0.682019
O19	O	1.016940	-0.172225	0.310617
O20	O	1.516940	0.327775	0.810617
O21	O	0.917087	-0.295085	0.091894
O22	O	1.417087	0.204915	0.591894
O23	O	0.796386	-0.305776	0.208885
O24	O	1.296386	0.194224	0.708885
O25	O	0.885110	-0.406906	0.387652
O26	O	1.385110	0.093094	0.887652
O27	O	0.775394	-0.406931	0.277930
O28	O	1.275394	0.093069	0.777930
O29	O	0.989233	-0.305731	0.401743
O30	O	1.489233	0.194269	0.901743
O31	O	0.959840	-0.521646	0.163422
O32	O	1.459840	-0.021646	0.663422
O33	O	0.868388	-0.529746	0.252064
O34	O	1.368388	-0.029746	0.752064
C35	C	0.760104	-0.357554	0.244221
C36	C	1.260104	0.142446	0.744221
C37	C	0.681110	-0.361247	0.246726
C38	C	1.181110	0.138753	0.746726
C39	C	0.235288	-0.387678	0.264737
C40	C	0.735288	0.112322	0.764737
C41	C	0.309511	-0.384213	0.262369
C42	C	0.809511	0.115787	0.762369
C43	C	0.357539	-0.329736	0.225326
C44	C	0.857539	0.170264	0.725326
C45	C	0.331341	-0.278727	0.190642
C46	C	0.831341	0.221273	0.690642
C47	C	0.257119	-0.282197	0.193006
C48	C	0.757119	0.217803	0.693006
C49	C	0.580690	-0.313708	0.214406
C50	C	1.080690	0.186292	0.714406
C51	C	0.654917	-0.310240	0.212047
C52	C	1.154917	0.189760	0.712047
C53	C	0.633081	-0.415728	0.283773
C54	C	1.133081	0.084272	0.783773
C55	C	0.558859	-0.419189	0.286137
C56	C	1.058859	0.080811	0.786137
C57	C	0.532667	-0.368183	0.251451
C58	C	1.032667	0.131817	0.751451
N59	N	0.433407	-0.326191	0.222906
N60	N	0.933407	0.173809	0.722906
N61	N	0.456800	-0.371732	0.253866
N62	N	0.956800	0.128268	0.753866
C63	C	0.909160	-0.554383	0.202782
C64	C	1.409160	-0.054383	0.702782
C65	C	0.894002	-0.642260	0.187568
C66	C	1.394002	-0.142260	0.687568
C67	C	1.060356	-0.930950	0.354185
C68	C	1.560356	-0.430950	0.854185
C69	C	1.046090	-1.013524	0.339877
C70	C	1.546090	-0.513524	0.839877
C71	C	0.959591	-1.013645	0.253220
C72	C	1.459591	-0.513645	0.753220
C73	C	0.973853	-0.931069	0.267518
C74	C	1.473853	-0.431069	0.767518
C75	C	1.024235	-0.889728	0.318002
C76	C	1.524235	-0.389728	0.818002
C77	C	0.937732	-0.889847	0.231335
C78	C	1.437732	-0.389847	0.731335
C79	C	0.951990	-0.807278	0.245635
C80	C	1.451990	-0.307278	0.745635
C81	C	1.002368	-0.765932	0.296118
C82	C	1.502368	-0.265932	0.796118
C83	C	1.038493	-0.807160	0.332302
C84	C	1.538493	-0.307160	0.832302
C85	C	0.887346	-0.931189	0.180855
C86	C	1.387346	-0.431189	0.680855
C87	C	0.851225	-0.889967	0.144672
C88	C	1.351225	-0.389967	0.644672
C89	C	0.865486	-0.807397	0.158968
C90	C	1.365486	-0.307397	0.658968
C91	C	0.915865	-0.766051	0.209451
C92	C	1.415865	-0.266051	0.709451
C93	C	0.829361	-0.766169	0.122784
C94	C	1.329361	-0.266169	0.622784
C95	C	0.843619	-0.683601	0.137084
C96	C	1.343619	-0.183601	0.637084
C97	C	0.930122	-0.683482	0.223751
C98	C	1.430122	-0.183482	0.723751
C99	C	1.130105	-0.340345	0.232549
C100	C	1.630105	0.159655	0.732549
C101	C	1.209095	-0.336671	0.230058
C102	C	1.709095	0.163329	0.730058
C103	C	0.935908	-0.357546	0.420778
C104	C	1.435908	0.142454	0.920778
C105	C	0.932142	-0.361202	0.498499
C106	C	1.432142	0.138798	0.998499
C107	C	0.980485	-0.142746	0.274164
C108	C	1.480485	0.357254	0.774164
C109	C	0.995716	-0.054867	0.289406
C110	C	1.495716	0.445133	0.789406
C111	C	0.953597	-0.340360	0.056732
C112	C	1.453597	0.159640	0.556732
C113	C	0.957538	-0.336475	-0.020953
C114	C	1.457538	0.163525	0.479047
C115	C	0.984582	-0.310246	0.542349
C116	C	1.484582	0.189754	1.042349
C117	C	0.981036	-0.313678	0.615376
C118	C	1.481036	0.186322	1.115376
C119	C	0.925052	-0.368072	0.644551
C120	C	1.425052	0.131928	1.144551
C121	C	0.872608	-0.419030	0.600696
C122	C	1.372608	0.080970	1.100696
C123	C	0.876152	-0.415593	0.527670
C124	C	1.376152	0.084407	1.027670
C125	C	0.908638	-0.383996	0.862166
C126	C	1.408638	0.116004	1.362166
C127	C	0.905099	-0.387431	0.935197
C128	C	1.405099	0.112569	1.435197
C129	C	1.013527	-0.282078	0.949872
C130	C	1.513527	0.217922	1.449872
C131	C	1.017068	-0.278649	0.876845
C132	C	1.517068	0.221351	1.376845
C133	C	0.964621	-0.329604	0.832996
C134	C	1.464621	0.170396	1.332996
N135	N	0.921427	-0.371583	0.719196
N136	N	1.421427	0.128417	1.219196
N137	N	0.968244	-0.326088	0.758353
N138	N	1.468244	0.173912	1.258353
H139	H	0.559374	-0.272178	0.186158
H140	H	1.059374	0.227822	0.686158
H141	H	0.918568	-1.047316	0.212118
H142	H	1.418568	-0.547316	0.712118
H143	H	0.519758	-0.463551	0.316300
H144	H	1.019758	0.036449	0.816300
F145	F	1.044171	-0.252356	0.511305
F146	F	1.544171	0.247644	1.011305
H147	H	0.654415	-0.457255	0.312013
H148	H	1.154415	0.042745	0.812013
F149	F	0.706032	-0.252258	0.172615
F150	F	1.206032	0.247742	0.672615
F151	F	0.382459	-0.220752	0.151214
F152	F	0.882459	0.279248	0.651214
F153	F	0.813023	-0.476917	0.631748
F154	F	1.313023	0.023083	1.131748
H155	H	1.023739	-0.272186	0.651076
H156	H	1.523739	0.227814	1.151076
F157	F	0.845508	-0.445323	0.966245
F158	F	1.345508	0.054677	1.466245
H159	H	0.810201	-0.923638	0.103570
H160	H	1.310201	-0.423638	0.603570
H161	H	0.875732	-0.998423	0.169221
H162	H	1.375732	-0.498423	0.669221
F163	F	0.184179	-0.445656	0.304169
F164	F	0.684179	0.054344	0.804169
H165	H	0.833444	-0.457079	0.491969
H166	H	1.333444	0.042921	0.991969
H167	H	0.235795	-0.240659	0.164768
H168	H	0.735795	0.259341	0.664768
H169	H	0.865940	-0.425499	0.826471
H170	H	1.365940	0.074501	1.326471
H171	H	0.971155	-0.649821	0.264855
H172	H	1.471155	-0.149821	0.764855
H173	H	1.013976	-0.698699	0.307759
H174	H	1.513976	-0.198699	0.807759
H175	H	1.079525	-0.773498	0.373405
H176	H	1.579525	-0.273498	0.873405
F177	F	1.113987	-0.886947	0.407908
F178	F	1.613987	-0.386947	0.907908
H179	H	0.330833	-0.425750	0.290607
H180	H	0.830833	0.074250	0.790607
H181	H	1.075497	-1.047085	0.369356
H182	H	1.575497	-0.547085	0.869356
F183	F	0.805177	-0.639727	0.098572
F184	F	1.305177	-0.139727	0.598572
F185	F	0.775733	-0.810178	0.069067
F186	F	1.275733	-0.310178	0.569067
F187	F	1.076654	-0.220757	0.845800
F188	F	1.576654	0.279243	1.345800
F189	F	1.069339	-0.227850	0.996544
F190	F	1.569339	0.272150	1.496544
