data_functionalizedCrystal
_audit_creation_method	'MofGen! by Chris Wilmer'
_symmetry_space_group_name_H-M	'P1'
_symmetry_Int_Tables_number	1
_symmetry_cell_setting	triclinic
loop_
_symmetry_equiv_pos_as_xyz
  x,y,z
_cell_length_a	17.699083
_cell_length_b	16.176319
_cell_length_c	17.699083
_cell_angle_alpha	90.007696
_cell_angle_beta	96.716985
_cell_angle_gamma	89.999042
loop_
_atom_site_label
_atom_site_type_symbol
_atom_site_fract_x
_atom_site_fract_y
_atom_site_fract_z
O1	O	-1.004079	0.068624	0.095713
O2	O	-0.504079	0.568624	0.595713
O3	O	-0.783700	0.068653	0.108166
O4	O	-0.283700	0.568653	0.608166
O5	O	-0.900116	0.068630	-0.008250
O6	O	-0.400116	0.568630	0.491750
O7	O	-0.887663	0.068647	0.212129
O8	O	-0.387663	0.568647	0.712129
O9	O	-0.900100	-0.068863	-0.008257
O10	O	-0.400100	0.431137	0.491743
O11	O	-0.783684	-0.068840	0.108158
O12	O	-0.283684	0.431160	0.608158
O13	O	-1.004063	-0.068869	0.095706
O14	O	-0.504063	0.431131	0.595706
Cu15	Cu	-0.893872	-0.081409	0.101931
Cu16	Cu	-0.393872	0.418591	0.601931
Cu17	Cu	-0.893891	0.081193	0.101940
Cu18	Cu	-0.393891	0.581193	0.601940
O19	O	-0.887647	-0.068846	0.212121
O20	O	-0.387647	0.431154	0.712121
C21	C	-0.755495	-0.000090	0.107716
C22	C	-0.255495	0.499910	0.607716
C23	C	-0.671477	-0.000079	0.106377
C24	C	-0.171477	0.499921	0.606377
C25	C	-0.622856	-0.000074	0.174710
C26	C	-0.122856	0.499926	0.674710
C27	C	-0.543913	-0.000084	0.173448
C28	C	-0.043913	0.499916	0.673448
C29	C	-0.513592	-0.000093	0.103852
C30	C	-0.013592	0.499907	0.603852
C31	C	-0.562219	-0.000101	0.035513
C32	C	-0.062219	0.499899	0.535513
C33	C	-0.641161	-0.000097	0.036776
C34	C	-0.141161	0.499903	0.536776
C35	C	-0.243856	-0.000119	0.030418
C36	C	0.256144	0.499881	0.530418
C37	C	-0.164908	-0.000121	0.029160
C38	C	0.335092	0.499879	0.529160
C39	C	-0.146608	-0.000106	0.167090
C40	C	0.353392	0.499894	0.667090
C41	C	-0.225550	-0.000102	0.168353
C42	C	0.274450	0.499898	0.668353
C43	C	-0.274170	-0.000114	0.100015
C44	C	0.225830	0.499886	0.600015
C45	C	-0.359769	-0.000105	0.101384
C46	C	0.140231	0.499895	0.601384
C47	C	-0.427995	-0.000097	0.102481
C48	C	0.072005	0.499903	0.602481
N49	N	-0.893864	-0.195774	0.101925
N50	N	-0.393864	0.304226	0.601925
C51	C	-0.945429	-0.239048	0.050397
C52	C	-0.445429	0.260952	0.550397
C53	C	-0.945432	-0.325595	0.050396
C54	C	-0.445432	0.174405	0.550396
C55	C	-0.893875	-0.368867	0.101927
C56	C	-0.393875	0.131133	0.601927
C57	C	-0.842305	-0.325586	0.153457
C58	C	-0.342305	0.174414	0.653457
C59	C	-0.842299	-0.239041	0.153454
C60	C	-0.342299	0.260959	0.653454
C61	C	-0.842331	-0.674615	0.153472
C62	C	-0.342331	-0.174615	0.653472
C63	C	-0.842344	-0.761166	0.153473
C64	C	-0.342344	-0.261166	0.653473
C65	C	-0.945465	-0.761169	0.050414
C66	C	-0.445465	-0.261169	0.550414
C67	C	-0.945458	-0.674624	0.050410
C68	C	-0.445458	-0.174624	0.550410
C69	C	-0.893886	-0.631351	0.101937
C70	C	-0.393886	-0.131351	0.601937
C71	C	-0.893882	-0.537507	0.101937
C72	C	-0.393882	-0.037507	0.601937
C73	C	-0.893883	-0.462709	0.101932
C74	C	-0.393883	0.037291	0.601932
C75	C	-0.032268	-0.000122	0.096156
C76	C	0.467732	0.499878	0.596156
C77	C	-0.116286	-0.000122	0.097494
C78	C	0.383714	0.499878	0.597494
C79	C	-0.899662	-0.000116	-0.036451
C80	C	-0.399662	0.499884	0.463549
C81	C	-0.898323	-0.000116	-0.120469
C82	C	-0.398323	0.499884	0.379531
N83	N	-0.893905	0.195558	0.101941
N84	N	-0.393905	0.695558	0.601941
C85	C	-0.966656	-0.000127	-0.169090
C86	C	-0.466656	0.499873	0.330910
C87	C	-0.965394	-0.000119	-0.248033
C88	C	-0.465394	0.499881	0.251967
C89	C	-0.895798	-0.000107	-0.278354
C90	C	-0.395798	0.499893	0.221646
C91	C	-0.827459	-0.000095	-0.229727
C92	C	-0.327459	0.499905	0.270273
C93	C	-0.828722	-0.000096	-0.150785
C94	C	-0.328722	0.499904	0.349215
C95	C	-0.822364	-0.000087	-0.548090
C96	C	-0.322364	0.499913	-0.048090
C97	C	-0.821106	-0.000088	-0.627038
C98	C	-0.321106	0.499912	-0.127038
C99	C	-0.959036	-0.000110	-0.645338
C100	C	-0.459036	0.499890	-0.145338
C101	C	-0.960299	-0.000112	-0.566396
C102	C	-0.460299	0.499888	-0.066396
C103	C	-0.891961	-0.000095	-0.517776
C104	C	-0.391961	0.499905	-0.017776
C105	C	-0.893330	-0.000101	-0.432177
C106	C	-0.393330	0.499899	0.067823
C107	C	-0.894427	-0.000107	-0.363951
C108	C	-0.394427	0.499893	0.136049
C109	C	-0.888102	-0.000098	0.240322
C110	C	-0.388102	0.499902	0.740322
C111	C	-0.889440	-0.000092	0.324340
C112	C	-0.389440	0.499908	0.824340
H113	H	-0.283434	-0.000130	-0.025228
H114	H	0.216566	0.499870	0.474772
Cl115	Cl	-1.010297	-0.815574	-0.014368
Cl116	Cl	-0.510297	-0.315574	0.485632
Cl117	Cl	-0.660965	-0.000057	0.262208
Cl118	Cl	-0.160965	0.499943	0.762208
H119	H	-1.023330	-0.000141	-0.144409
H120	H	-0.523330	0.499859	0.355591
H121	H	-1.021038	-0.000129	-0.287618
H122	H	-0.521038	0.499871	0.212382
Cl123	Cl	-1.047795	-0.000124	-0.528283
Cl124	Cl	-0.547795	0.499876	-0.028283
H125	H	-0.766718	-0.000074	-0.508512
H126	H	-0.266718	0.499926	-0.008512
H127	H	-1.014680	-0.000120	-0.684934
H128	H	-0.514680	0.499880	-0.184934
H129	H	-0.537526	-0.000120	-0.021154
H130	H	-0.037526	0.499880	0.478846
H131	H	-0.764429	-0.000080	-0.651721
H132	H	-0.264429	0.499920	-0.151721
Cl133	Cl	-0.085481	-0.000095	0.253002
Cl134	Cl	0.414519	0.499905	0.753002
Cl135	Cl	-0.777503	-0.620220	0.218250
Cl136	Cl	-0.277503	-0.120220	0.718250
Cl137	Cl	-0.702285	-0.000107	-0.049132
Cl138	Cl	-0.202285	0.499893	0.450868
H139	H	-0.987416	-0.203822	0.008438
H140	H	-0.487416	0.296178	0.508438
H141	H	-0.770792	-0.000080	-0.254420
H142	H	-0.270792	0.499920	0.245580
H143	H	-0.504328	-0.000079	0.229092
H144	H	-0.004328	0.499921	0.729092
Cl145	Cl	-0.777523	-0.815564	0.218259
Cl146	Cl	-0.277523	-0.315564	0.718259
Cl147	Cl	-1.010277	-0.620229	-0.014371
Cl148	Cl	-0.510277	-0.120229	0.485629
H149	H	-0.250232	-0.000091	0.225025
H150	H	0.249768	0.499909	0.725025
Cl151	Cl	-1.010256	-0.379999	-0.014383
Cl152	Cl	-0.510256	0.120001	0.485617
H153	H	-0.140225	-0.000130	-0.027517
H154	H	0.359775	0.499870	0.472483
H155	H	-0.800323	-0.360823	0.195413
H156	H	-0.300323	0.139177	0.695413
H157	H	-0.800309	-0.203808	0.195412
H158	H	-0.300309	0.296192	0.695412
H159	H	-0.773078	-0.000088	-0.111198
H160	H	-0.273078	0.499912	0.388802
