data_functionalizedCrystal
_audit_creation_method	'MofGen! by Chris Wilmer'
_symmetry_space_group_name_H-M	'P1'
_symmetry_Int_Tables_number	1
_symmetry_cell_setting	triclinic
loop_
_symmetry_equiv_pos_as_xyz
  x,y,z
_cell_length_a	12.759401
_cell_length_b	11.169416
_cell_length_c	12.759393
_cell_angle_alpha	89.971151
_cell_angle_beta	89.982620
_cell_angle_gamma	90.010501
loop_
_atom_site_label
_atom_site_type_symbol
_atom_site_fract_x
_atom_site_fract_y
_atom_site_fract_z
Zn1	Zn	1.606276	-0.477729	-0.594003
Zn2	Zn	1.606187	-0.678462	-0.418332
Zn3	Zn	1.430581	-0.477792	-0.418342
Zn4	Zn	1.430580	-0.678369	-0.593973
O5	O	1.518406	-0.578088	-0.506162
O6	O	1.753285	-0.504369	-0.570708
O7	O	1.582856	-0.651908	-0.271312
O8	O	1.453925	-0.309834	-0.441660
O9	O	1.753220	-0.651847	-0.441643
O10	O	1.583007	-0.309788	-0.570718
O11	O	1.453839	-0.504477	-0.271320
O12	O	1.283560	-0.504387	-0.441632
O13	O	1.453923	-0.651688	-0.740998
O14	O	1.283559	-0.651750	-0.570667
O15	O	1.583006	-0.504279	-0.741020
O16	O	1.582854	-0.846400	-0.441614
O17	O	1.453836	-0.846331	-0.570657
C18	C	1.245438	-0.578066	-0.506148
C19	C	1.128662	-0.578085	-0.506167
C20	C	1.518364	-0.889913	-0.506154
C21	C	1.518442	-1.023313	-0.506186
C22	C	1.073827	-0.654940	-0.573245
C23	C	0.964103	-0.654955	-0.573256
C24	C	0.964058	-0.501258	-0.439103
C25	C	1.073780	-0.501237	-0.439098
C26	C	1.073851	-0.743680	-0.650694
C27	C	0.964127	-0.743695	-0.650705
C28	C	1.792439	-0.578111	-0.506177
C29	C	1.909216	-0.578121	-0.506184
C30	C	1.518474	-0.577966	-0.780196
C31	C	1.518503	-0.577914	-0.896973
C32	C	1.518476	-0.265046	-0.506193
C33	C	1.518506	-0.131646	-0.506207
C34	C	1.451352	-0.501132	-0.951845
C35	C	1.451384	-0.501096	-1.061569
C36	C	1.585726	-0.654627	-1.061539
C37	C	1.585688	-0.654668	-0.951817
C38	C	1.373794	-0.412489	-0.951863
C39	C	1.373826	-0.412453	-1.061587
C40	C	1.518398	-0.578123	-0.233195
C41	C	1.518573	-0.577837	-0.116419
H42	H	1.118423	-0.438647	-0.384484
H43	H	0.930126	-0.710516	-0.728055
O44	O	1.109595	-0.714181	-0.747757
C45	C	1.260438	-0.680651	-0.857603
C46	C	1.220101	-0.714095	-0.747641
H47	H	1.349785	-0.680545	-0.857539
H48	H	1.230758	-0.748795	-0.917100
H49	H	1.230621	-0.587759	-0.879560
H50	H	1.249901	-0.806958	-0.725585
H51	H	1.249771	-0.645874	-0.688207
H52	H	0.934338	-0.836625	-0.628777
H53	H	1.640353	-0.717209	-0.907144
H54	H	1.296531	-0.445725	-1.095614
H55	H	0.919361	-0.438690	-0.384499
O56	O	1.114395	-0.849056	-0.615935
C57	C	1.126133	-1.062339	-0.641704
C58	C	1.080168	-0.943084	-0.681198
H59	H	1.098460	-1.138395	-0.694437
H60	H	1.215370	-1.057552	-0.643354
H61	H	1.098538	-1.079363	-0.558025
H62	H	1.107683	-0.925987	-0.764888
H63	H	0.990936	-0.947929	-0.679470
H64	H	1.395637	-0.319486	-1.091380
H65	H	1.640427	-0.717117	-1.106207
H66	H	1.292407	-0.437379	-0.922086
H67	H	1.402953	-0.324209	-0.917843
