data_functionalizedCrystal
_audit_creation_method	'MofGen! by Chris Wilmer'
_symmetry_space_group_name_H-M	'P1'
_symmetry_Int_Tables_number	1
_symmetry_cell_setting	triclinic
loop_
_symmetry_equiv_pos_as_xyz
  x,y,z
_cell_length_a	14.853567
_cell_length_b	18.266242
_cell_length_c	14.853567
_cell_angle_alpha	89.997455
_cell_angle_beta	96.365070
_cell_angle_gamma	90.006062
loop_
_atom_site_label
_atom_site_type_symbol
_atom_site_fract_x
_atom_site_fract_y
_atom_site_fract_z
O1	O	1.196371	0.060824	-0.117706
O2	O	0.933911	0.060836	-0.131727
O3	O	1.072151	0.060832	0.006513
O4	O	1.058130	0.060828	-0.255946
O5	O	1.072128	-0.060930	0.006521
O6	O	0.933888	-0.060926	-0.131720
O7	O	1.196347	-0.060938	-0.117698
Zn8	Zn	1.065114	-0.080264	-0.124708
Zn9	Zn	1.065144	0.080162	-0.124717
O10	O	1.058107	-0.060934	-0.255939
C11	C	0.900311	-0.000043	-0.131088
C12	C	0.800227	-0.000039	-0.129184
N13	N	1.065099	-0.189751	-0.124701
C14	C	0.387693	-0.000054	-0.039019
C15	C	0.366412	-0.000055	-0.203251
C16	C	0.460446	-0.000053	-0.205041
C17	C	0.518108	-0.000050	-0.123819
C18	C	0.481736	-0.000049	-0.040806
C19	C	0.496825	-0.000046	-0.288053
C20	C	0.590864	-0.000043	-0.289846
C21	C	0.648528	-0.000045	-0.208623
C22	C	0.612150	-0.000045	-0.125607
C23	C	0.669812	-0.000042	-0.044384
C24	C	0.633437	-0.000048	0.038633
C25	C	0.539399	-0.000051	0.040417
C26	C	0.742565	-0.000042	-0.210407
C27	C	0.763855	-0.000038	-0.046172
C28	C	1.126332	-0.228062	-0.063518
C29	C	1.126338	-0.304707	-0.063514
C30	C	1.065119	-0.343038	-0.124708
C31	C	1.003875	-0.304718	-0.185896
C32	C	1.003864	-0.228075	-0.185892
N33	N	1.053744	-0.463371	-0.204466
N34	N	1.053759	-0.536179	-0.204467
C35	C	1.065144	-0.573960	-0.124721
N36	N	1.076532	-0.536183	-0.044973
N37	N	1.076522	-0.463368	-0.044973
C38	C	1.065123	-0.426145	-0.124719
C39	C	1.126387	-0.695378	-0.063529
C40	C	1.126386	-0.772025	-0.063524
C41	C	1.003928	-0.772035	-0.185913
C42	C	1.003924	-0.695390	-0.185911
C43	C	1.065158	-0.657066	-0.124720
C44	C	1.229947	-0.000057	-0.118337
C45	C	1.330031	-0.000057	-0.120241
C46	C	1.071504	-0.000047	0.040106
C47	C	1.069601	-0.000040	0.140189
N48	N	1.065166	0.189649	-0.124717
C49	C	1.058754	-0.000053	-0.289531
C50	C	1.060657	-0.000055	-0.389615
C51	C	0.979435	-0.000050	0.552723
C52	C	1.143668	-0.000058	0.574004
C53	C	1.145458	-0.000053	0.479971
C54	C	1.064235	-0.000049	0.422309
C55	C	0.981223	-0.000048	0.458680
C56	C	1.228469	-0.000061	0.443591
C57	C	1.230262	-0.000058	0.349552
C58	C	1.149039	-0.000048	0.291889
C59	C	1.066023	-0.000047	0.328266
C60	C	0.984800	-0.000042	0.270604
C61	C	0.901783	-0.000036	0.306979
C62	C	0.899999	-0.000038	0.401017
C63	C	1.150823	-0.000045	0.197851
C64	C	0.986588	-0.000040	0.176561
H65	H	0.810798	-0.000038	0.019971
H66	H	0.449870	-0.000041	-0.354180
Cl67	Cl	0.926946	-0.647223	-0.262834
Cl68	Cl	1.334624	-0.000054	0.303832
Cl69	Cl	1.203362	-0.647199	0.013401
H70	H	0.954028	-0.335931	-0.235719
H71	H	1.209795	-0.000067	0.620958
Cl72	Cl	0.705937	-0.000038	0.140737
H73	H	0.509774	-0.000073	0.108005
H74	H	0.920445	-0.000033	0.129618
H75	H	0.358072	-0.000061	0.028572
Cl76	Cl	0.926881	-0.179910	-0.262815
Cl77	Cl	0.926960	-0.820217	-0.262836
Cl78	Cl	0.293923	-0.000049	-0.305354
Cl79	Cl	0.636585	-0.000039	-0.394208
H80	H	1.176203	-0.335905	-0.013690
H81	H	0.772178	-0.000039	-0.277998
Cl82	Cl	1.203306	-0.179884	0.013410
H83	H	0.835652	-0.000037	0.260019
Cl84	Cl	1.203366	-0.820190	0.013404
Cl85	Cl	0.795645	-0.000028	0.446752
H86	H	0.911844	-0.000042	0.582344
Cl87	Cl	1.255178	-0.000067	0.152125
H88	H	1.294596	-0.000072	0.490546
