data_functionalizedCrystal
_audit_creation_method	'MofGen! by Chris Wilmer'
_symmetry_space_group_name_H-M	'P1'
_symmetry_Int_Tables_number	1
_symmetry_cell_setting	triclinic
loop_
_symmetry_equiv_pos_as_xyz
  x,y,z
_cell_length_a	8.559649
_cell_length_b	14.971486
_cell_length_c	14.048226
_cell_angle_alpha	90.001501
_cell_angle_beta	89.995035
_cell_angle_gamma	103.303603
loop_
_atom_site_label
_atom_site_type_symbol
_atom_site_fract_x
_atom_site_fract_y
_atom_site_fract_z
O1	O	0.208203	-1.172520	-0.079048
O2	O	0.233135	-0.910393	-0.079073
O3	O	-0.011889	-1.064550	-0.079057
O4	O	0.453227	-1.018363	-0.079064
O5	O	-0.011903	-1.064535	0.079264
O6	O	0.233121	-0.910377	0.079248
O7	O	0.208188	-1.172505	0.079274
Zn8	Zn	0.220652	-1.041438	0.104398
Zn9	Zn	0.220671	-1.041459	-0.104197
O10	O	0.453212	-1.018347	0.079258
C11	C	0.232013	-0.877137	0.000084
C12	C	0.228672	-0.778072	0.000074
C13	C	-0.071419	-1.068043	0.000102
C14	C	-0.248779	-1.078461	0.000098
C15	C	0.209310	-1.205760	0.000114
C16	C	0.212652	-1.304826	0.000118
C17	C	0.512743	-1.014855	0.000096
C18	C	0.690103	-1.004436	0.000094
N19	N	0.220638	-1.041431	0.246758
C20	C	0.372617	-0.710872	0.000074
C21	C	0.369468	-0.617791	0.000088
C22	C	0.222372	-0.591911	0.000096
C23	C	0.078416	-0.659119	0.000099
C24	C	0.081566	-0.752198	0.000092
C25	C	0.071859	-0.465111	0.000113
C26	C	0.068707	-0.372025	0.000118
C27	C	0.359760	-0.330704	0.000108
C28	C	0.362910	-0.423783	0.000101
C29	C	0.218954	-0.490984	0.000103
N30	N	0.220673	-1.041474	-0.246558
C31	C	0.112186	-1.109708	0.296583
C32	C	0.112186	-1.109714	0.396241
C33	C	0.220645	-1.041446	0.446072
C34	C	0.329102	-0.973163	0.396240
C35	C	0.329094	-0.973153	0.296584
C36	C	0.329114	-0.973188	0.603954
C37	C	0.329124	-0.973197	0.703617
C38	C	0.112205	-1.109748	0.703611
C39	C	0.112197	-1.109739	0.603955
C40	C	0.220657	-1.041456	0.554130
H41	H	-0.332149	-1.149813	0.000112
H42	H	0.417428	-0.917581	0.563390
H43	H	0.023894	-1.165346	0.744185
H44	H	0.023875	-1.165310	0.436808
C45	C	0.363415	-0.849098	0.508336
C46	C	0.448321	-0.898122	0.451016
H47	H	0.437022	-0.802776	0.542156
H48	H	0.296829	-0.821498	0.469471
H49	H	0.298830	-0.889775	0.552268
H50	H	0.512897	-0.857446	0.407079
H51	H	0.514934	-0.925723	0.489885
H52	H	0.492399	-0.731935	0.000066
C53	C	0.657472	-0.586297	0.000064
C54	C	0.527697	-0.543925	0.000083
H55	H	0.755158	-0.540693	0.000057
H56	H	0.652647	-0.623463	0.055267
H57	H	0.652632	-0.623460	-0.055154
H58	H	0.532530	-0.506767	0.055305
H59	H	0.532524	-0.506743	-0.055125
H60	H	-0.226536	-0.933089	0.000090
C61	C	0.525075	-0.202053	-0.081272
C62	C	0.518004	-0.256840	0.000108
H63	H	0.622761	-0.156449	-0.081271
H64	H	0.520253	-0.239220	-0.136475
H65	H	0.437015	-0.173322	-0.081250
H66	H	0.606057	-0.285577	0.000083
H67	H	0.522841	-0.219667	0.055326
H68	H	0.482689	-0.444850	0.000085
C69	C	-0.218672	-0.422214	0.000143
C70	C	-0.092982	-0.343576	0.000133
H71	H	-0.318491	-0.404648	0.000157
H72	H	-0.211400	-0.457658	-0.055065
H73	H	-0.211381	-0.457659	0.055356
H74	H	-0.100266	-0.308134	-0.055084
H75	H	-0.100258	-0.308116	0.055346
H76	H	-0.045367	-0.519825	0.000115
H77	H	-0.041353	-0.638040	0.000120
C78	C	-0.206441	-0.783699	0.000086
C79	C	-0.076663	-0.826068	0.000084
H80	H	-0.304125	-0.829305	0.000077
H81	H	-0.201625	-0.746542	0.055296
H82	H	-0.201597	-0.746528	-0.055125
H83	H	-0.081500	-0.863234	0.055299
H84	H	-0.081481	-0.863241	-0.055132
C85	C	-0.102239	-1.244676	0.306598
C86	C	-0.007042	-1.184750	0.241814
H87	H	-0.175855	-1.291000	0.272786
H88	H	-0.035637	-1.272275	0.345454
H89	H	-0.159806	-1.211394	0.345481
H90	H	0.050536	-1.218031	0.202937
H91	H	-0.073652	-1.157150	0.202942
C92	C	-0.102227	-1.244712	0.613954
C93	C	-0.007024	-1.184779	0.549179
H94	H	-0.175837	-1.291034	0.580135
H95	H	-0.035629	-1.272313	0.652810
H96	H	-0.159802	-1.211435	0.652837
H97	H	0.050561	-1.218055	0.510301
H98	H	-0.073631	-1.157176	0.510307
C99	C	0.546520	-0.938838	0.815667
C100	C	0.448339	-0.898149	0.758386
H101	H	0.620124	-0.892502	0.849471
H102	H	0.481941	-0.979497	0.859602
H103	H	0.604101	-0.972099	0.776768
H104	H	0.390749	-0.864893	0.797285
H105	H	0.512926	-0.857474	0.714445
C106	C	0.543524	-0.838188	0.306593
C107	C	0.448316	-0.898105	0.241812
H108	H	0.617130	-0.791858	0.272778
H109	H	0.476928	-0.810597	0.345470
H110	H	0.601103	-0.871475	0.345453
H111	H	0.390727	-0.864819	0.202956
H112	H	0.514920	-0.925697	0.202918
