data_functionalizedCrystal
_audit_creation_method	'MofGen! by Chris Wilmer'
_symmetry_space_group_name_H-M	'P1'
_symmetry_Int_Tables_number	1
_symmetry_cell_setting	triclinic
loop_
_symmetry_equiv_pos_as_xyz
  x,y,z
_cell_length_a	15.944551
_cell_length_b	22.610064
_cell_length_c	15.944551
_cell_angle_alpha	89.996881
_cell_angle_beta	83.498738
_cell_angle_gamma	90.003741
loop_
_atom_site_label
_atom_site_type_symbol
_atom_site_fract_x
_atom_site_fract_y
_atom_site_fract_z
O1	O	1.114530	0.049124	0.108321
O2	O	0.869980	0.049139	0.121677
O3	O	0.998933	0.049126	-0.007276
O4	O	0.985577	0.049137	0.237274
O5	O	0.998910	-0.049243	-0.007257
O6	O	0.869958	-0.049230	0.121696
O7	O	1.114507	-0.049245	0.108339
Zn8	Zn	0.992229	-0.064856	0.115021
Zn9	Zn	0.992259	0.064750	0.114996
O10	O	0.985554	-0.049232	0.237292
C11	C	0.838675	-0.000044	0.121132
C12	C	0.745429	-0.000038	0.119470
N13	N	0.992214	-0.153308	0.115037
C14	C	0.530572	-0.000054	0.035565
C15	C	0.469563	0.048449	0.074518
C16	C	0.574703	-0.000045	0.116462
C17	C	0.469563	-0.048535	0.074556
C18	C	0.409790	-0.000055	0.113551
C19	C	0.514922	0.048498	0.155438
C20	C	0.514929	-0.048530	0.155464
C21	C	0.453937	-0.000015	0.194476
C22	C	0.669705	-0.000039	0.118137
C23	C	0.314789	-0.000057	0.111883
C24	C	1.049362	-0.561956	0.057904
C25	C	1.049366	-0.623875	0.057898
O26	O	1.097919	-0.655899	0.009334
N27	N	0.992258	-0.654845	0.114978
C28	C	0.935136	-0.623892	0.172063
O29	O	0.886562	-0.655920	0.220613
C30	C	0.935129	-0.561974	0.172064
C31	C	0.992246	-0.531007	0.114986
C32	C	1.106474	-0.530989	0.000830
C33	C	1.106470	-0.469073	0.000837
C34	C	1.049355	-0.438124	0.057919
C35	C	0.992243	-0.469091	0.114993
C36	C	0.878004	-0.531022	0.229144
C37	C	0.878001	-0.469099	0.229140
C38	C	0.935118	-0.438132	0.172062
C39	C	0.935124	-0.376227	0.172082
N40	N	0.992232	-0.345257	0.115002
C41	C	1.049347	-0.376205	0.057920
C42	C	0.935156	-0.753926	0.172054
C43	C	0.935167	-0.815844	0.172058
C44	C	1.049396	-0.815822	0.057892
C45	C	1.049388	-0.753904	0.057893
C46	C	0.992264	-0.722956	0.114974
C47	C	1.049336	-0.246178	0.057941
C48	C	1.049330	-0.184257	0.057955
C49	C	0.935099	-0.184284	0.172118
C50	C	0.935107	-0.246199	0.172106
C51	C	0.992229	-0.277145	0.115011
O52	O	0.886593	-0.344164	0.220619
O53	O	1.097906	-0.344170	0.009371
C54	C	1.145813	-0.000061	0.108885
C55	C	1.239059	-0.000063	0.110547
C56	C	0.998367	-0.000059	-0.038561
C57	C	0.996705	-0.000059	-0.131807
N58	N	0.992280	0.153202	0.114973
C59	C	0.912801	-0.000046	-0.346663
C60	C	0.951752	-0.048550	-0.407671
C61	C	0.993698	-0.000054	-0.302533
C62	C	0.951793	0.048434	-0.407673
C63	C	0.990787	-0.000047	-0.467445
C64	C	1.032671	-0.048599	-0.362312
C65	C	1.032701	0.048429	-0.362308
C66	C	1.071711	-0.000087	-0.423298
C67	C	0.995372	-0.000059	-0.207530
C68	C	0.989119	-0.000047	-0.562446
C69	C	0.986120	-0.000046	0.268577
C70	C	0.987782	-0.000042	0.361823
H71	H	0.563905	0.000003	-0.031573
H72	H	0.420779	0.000015	0.261683
O73	O	0.906419	-0.102863	-0.434299
H74	H	0.950195	-0.129520	-0.478303
O75	O	0.873496	-0.150886	0.233669
H76	H	0.884188	-0.162759	0.299165
O77	O	0.823861	-0.000100	-0.302531
H78	H	0.790472	-0.040422	-0.320572
H79	H	1.138919	-0.000118	-0.456457
O80	O	0.442920	0.102759	0.029190
H81	H	0.473904	0.102656	-0.036754
O82	O	1.077944	-0.102976	-0.335824
H83	H	1.143695	-0.103101	-0.367313
O84	O	1.078000	0.102741	-0.335639
H85	H	1.044297	0.142947	-0.353592
O86	O	0.906475	0.102753	-0.434293
H87	H	0.840538	0.102651	-0.403291
H88	H	1.152984	-0.556182	-0.045657
O89	O	1.110996	-0.849216	-0.003676
H90	H	1.176473	-0.837335	0.007074
O91	O	0.541590	-0.102845	0.200758
H92	H	0.572582	-0.089198	0.256606
O93	O	1.110970	-0.720503	-0.003688
H94	H	1.151799	-0.692285	0.031681
O95	O	0.541403	0.102889	0.200686
H96	H	0.610913	0.102482	0.201522
H97	H	1.095845	-0.159046	0.011475
O98	O	0.442948	-0.102856	0.029236
H99	H	0.473952	-0.102753	-0.036700
H100	H	1.095849	-0.271367	0.011447
H101	H	1.152978	-0.443863	-0.045643
H102	H	0.888666	-0.841052	0.218545
H103	H	0.831494	-0.556226	0.275621
O104	O	0.873552	-0.720547	0.233636
H105	H	0.833853	-0.752489	0.273328
H106	H	0.831481	-0.443904	0.275621
H107	H	0.888605	-0.271413	0.218593
