data_functionalizedCrystal
_audit_creation_method	'MofGen! by Chris Wilmer'
_symmetry_space_group_name_H-M	'P1'
_symmetry_Int_Tables_number	1
_symmetry_cell_setting	triclinic
loop_
_symmetry_equiv_pos_as_xyz
  x,y,z
_cell_length_a	13.032831
_cell_length_b	17.640280
_cell_length_c	13.032268
_cell_angle_alpha	87.294217
_cell_angle_beta	90.886977
_cell_angle_gamma	70.377065
loop_
_atom_site_label
_atom_site_type_symbol
_atom_site_fract_x
_atom_site_fract_y
_atom_site_fract_z
Zn1	Zn	1.657819	-0.537275	-0.657580
Zn2	Zn	2.157819	-0.037275	-0.157580
Zn3	Zn	1.714714	-0.655808	-0.458408
Zn4	Zn	2.214714	-0.155808	0.041592
Zn5	Zn	1.497821	-0.504041	-0.471445
Zn6	Zn	1.997821	-0.004041	0.028555
Zn7	Zn	1.519686	-0.651506	-0.609520
Zn8	Zn	2.019686	-0.151506	-0.109520
O9	O	1.597510	-0.587158	-0.549239
O10	O	2.097510	-0.087158	-0.049239
O11	O	1.813945	-0.568708	-0.645817
O12	O	2.313945	-0.068708	-0.145817
O13	O	1.700603	-0.623567	-0.318999
O14	O	2.200603	-0.123567	0.181001
O15	O	1.486083	-0.397129	-0.521706
O16	O	1.986083	0.102871	-0.021706
O17	O	1.855746	-0.655793	-0.499486
O18	O	2.355746	-0.155793	0.000514
O19	O	1.603633	-0.421546	-0.658459
O20	O	2.103633	0.078454	-0.158459
O21	O	1.541252	-0.512065	-0.328577
O22	O	2.041252	-0.012065	0.171423
O23	O	1.352142	-0.507894	-0.475104
O24	O	1.852142	-0.007894	0.024896
O25	O	1.523350	-0.648462	-0.757034
O26	O	2.023350	-0.148462	-0.257034
O27	O	1.368206	-0.616236	-0.576547
O28	O	1.868206	-0.116236	-0.076547
O29	O	1.624835	-0.564537	-0.792344
O30	O	2.124835	-0.064537	-0.292344
O31	O	1.721805	-0.766558	-0.452884
O32	O	2.221805	-0.266558	0.047116
O33	O	1.578519	-0.763397	-0.563905
O34	O	2.078519	-0.263397	-0.063905
C35	C	1.321649	-0.557992	-0.522026
C36	C	1.821649	-0.057992	-0.022026
C37	C	1.203638	-0.545536	-0.510403
C38	C	1.703638	-0.045536	-0.010403
C39	C	1.159034	-0.593658	-0.555304
C40	C	1.659034	-0.093658	-0.055304
C41	C	1.037063	-0.580786	-0.543293
C42	C	1.537063	-0.080786	-0.043293
C43	C	1.658735	-0.793847	-0.501790
C44	C	2.158735	-0.293847	-0.001790
C45	C	1.685021	-0.882282	-0.481534
C46	C	2.185021	-0.382282	0.018466
C47	C	1.398216	-1.164984	-0.703527
C48	C	1.898216	-0.664984	-0.203527
C49	C	1.422921	-1.248080	-0.684462
C50	C	1.922921	-0.748080	-0.184462
C51	C	1.572195	-1.251326	-0.568994
C52	C	2.072195	-0.751326	-0.068994
C53	C	1.547506	-1.168229	-0.588054
C54	C	2.047506	-0.668229	-0.088054
C55	C	1.460514	-1.125064	-0.655320
C56	C	1.960514	-0.625064	-0.155320
C57	C	1.609804	-1.128309	-0.539846
C58	C	2.109804	-0.628309	-0.039846
C59	C	1.585113	-1.045219	-0.558900
C60	C	2.085113	-0.545219	-0.058900
C61	C	1.498123	-1.002048	-0.626161
C62	C	1.998123	-0.502048	-0.126161
C63	C	1.435823	-1.041974	-0.674374
C64	C	1.935823	-0.541974	-0.174374
C65	C	1.696791	-1.171474	-0.472575
C66	C	2.196791	-0.671474	0.027425
C67	C	1.759089	-1.131554	-0.424368
C68	C	2.259089	-0.631554	0.075632
C69	C	1.734403	-1.048463	-0.443427
C70	C	2.234403	-0.548463	0.056573
C71	C	1.647414	-1.005293	-0.510688
C72	C	2.147414	-0.505293	-0.010688
C73	C	1.796704	-1.008537	-0.395214
C74	C	2.296704	-0.508537	0.104786
C75	C	1.772013	-0.925447	-0.414268
C76	C	2.272013	-0.425447	0.085732
C77	C	1.622722	-0.922202	-0.529741
C78	C	2.122722	-0.422202	-0.029741
C79	C	1.874448	-0.616437	-0.576558
C80	C	2.374448	-0.116437	-0.076558
C81	C	1.992462	-0.628915	-0.588200
C82	C	2.492462	-0.128915	-0.088200
C83	C	1.570185	-0.609727	-0.812308
C84	C	2.070185	-0.109727	-0.312308
C85	C	1.558541	-0.619344	-0.924413
C86	C	2.058541	-0.119344	-0.424413
C87	C	1.536072	-0.379666	-0.596898
C88	C	2.036072	0.120334	-0.096898
C89	C	1.509891	-0.291246	-0.617207
C90	C	2.009891	0.208754	-0.117207
C91	C	1.603562	-0.582108	-0.991863
C92	C	2.103562	-0.082108	-0.491863
C93	C	1.591528	-0.592047	-1.107729
C94	C	2.091528	-0.092047	-0.607729
C95	C	1.624773	-0.564625	-0.287212
C96	C	2.124773	-0.064625	0.212788
C97	C	1.636556	-0.554805	-0.175179
C98	C	2.136556	-0.054805	0.324821
H99	H	1.211143	-0.644385	-0.602642
H100	H	1.711143	-0.144385	-0.102642
Br101	Br	0.950220	-0.496221	-0.464404
Br102	Br	1.450220	0.003779	0.035596
Br103	Br	1.116791	-0.460975	-0.431518
Br104	Br	1.616791	0.039025	0.068482
H105	H	1.643021	-1.286481	-0.514223
H106	H	2.143021	-0.786481	-0.014223
Br107	Br	1.682619	-0.516678	-0.945155
Br108	Br	2.182619	-0.016678	-0.445155
Br109	Br	1.079293	-0.713460	-0.667123
Br110	Br	1.579293	-0.213460	-0.167123
H111	H	1.829915	-1.166710	-0.369596
H112	H	2.329915	-0.666710	0.130404
Br113	Br	1.338348	-1.302253	-0.749877
Br114	Br	1.838348	-0.802253	-0.249877
H115	H	1.364992	-1.006829	-0.729157
H116	H	1.864992	-0.506829	-0.229157
H117	H	1.551892	-0.887057	-0.584525
H118	H	2.051892	-0.387057	-0.084525
Br119	Br	1.464852	-0.889331	-0.652305
Br120	Br	1.964852	-0.389331	-0.152305
H121	H	1.327385	-1.129839	-0.758311
H122	H	1.827385	-0.629839	-0.258311
H123	H	1.716894	-1.239132	-0.457066
H124	H	2.216894	-0.739132	0.042934
H125	H	1.867525	-1.043693	-0.340438
H126	H	2.367525	-0.543693	0.159562
H127	H	1.544063	-0.631282	-1.135757
H128	H	2.044063	-0.131282	-0.635757
H129	H	1.822742	-0.892944	-0.375011
H130	H	2.322742	-0.392944	0.124989
H131	H	1.511079	-0.658576	-0.952446
H132	H	2.011079	-0.158576	-0.452446
H133	H	1.684006	-0.515559	-1.147154
H134	H	2.184006	-0.015559	-0.647154
