data_functionalizedCrystal
_audit_creation_method	'MofGen! by Chris Wilmer'
_symmetry_space_group_name_H-M	'P1'
_symmetry_Int_Tables_number	1
_symmetry_cell_setting	triclinic
loop_
_symmetry_equiv_pos_as_xyz
  x,y,z
_cell_length_a	10.489741
_cell_length_b	10.489741
_cell_length_c	16.176319
_cell_angle_alpha	89.993511
_cell_angle_beta	89.995299
_cell_angle_gamma	84.539174
loop_
_atom_site_label
_atom_site_type_symbol
_atom_site_fract_x
_atom_site_fract_y
_atom_site_fract_z
O1	O	1.694059	0.179971	-0.068695
O2	O	2.194059	0.679971	0.431305
O3	O	1.322863	0.196864	-0.068708
O4	O	1.822863	0.696864	0.431292
O5	O	1.516907	0.002820	-0.068696
O6	O	2.016907	0.502820	0.431304
O7	O	1.500015	0.374015	-0.068707
O8	O	2.000015	0.874015	0.431293
O9	O	1.516880	0.002807	0.068797
O10	O	2.016880	0.502807	0.568797
O11	O	1.322836	0.196851	0.068785
O12	O	1.822836	0.696851	0.568785
O13	O	1.694032	0.179958	0.068798
O14	O	2.194032	0.679958	0.568798
Cu15	Cu	1.508431	0.188404	0.081346
Cu16	Cu	2.008431	0.688404	0.581346
Cu17	Cu	1.508463	0.188419	-0.081256
Cu18	Cu	2.008463	0.688419	0.418744
O19	O	1.499987	0.374003	0.068787
O20	O	1.999987	0.874003	0.568787
C21	C	1.275318	0.195582	0.000037
C22	C	1.775318	0.695582	0.500037
C23	C	1.133688	0.191765	0.000032
C24	C	1.633688	0.691765	0.500032
C25	C	1.065548	0.068300	0.000044
C26	C	1.565548	0.568300	0.500044
C27	C	0.973435	0.126630	-0.067748
C28	C	1.473435	0.626630	0.432252
C29	C	0.973442	0.126647	0.067810
C30	C	1.473442	0.626647	0.567810
C31	C	1.043440	0.250145	-0.067815
C32	C	1.543440	0.750145	0.432185
C33	C	1.043457	0.250145	0.067804
C34	C	1.543457	0.750145	0.567804
C35	C	0.951371	0.308564	-0.000004
C36	C	1.451371	0.808564	0.499996
C37	C	1.515618	-0.044718	0.000050
C38	C	2.015618	0.455282	0.500050
C39	C	1.511801	-0.186348	0.000048
C40	C	2.011801	0.313652	0.500048
C41	C	1.388336	-0.254488	0.000038
C42	C	1.888336	0.245512	0.500038
C43	C	1.446646	-0.346617	0.067831
C44	C	1.946646	0.153383	0.567831
C45	C	1.446702	-0.346579	-0.067726
C46	C	1.946702	0.153421	0.432274
C47	C	1.570162	-0.276611	0.067898
C48	C	2.070162	0.223389	0.567898
C49	C	1.570201	-0.276564	-0.067721
C50	C	2.070201	0.223436	0.432279
C51	C	1.628600	-0.368665	0.000089
C52	C	2.128600	0.131335	0.500089
C53	C	1.741577	0.181241	0.000051
C54	C	2.241577	0.681241	0.500051
C55	C	1.883206	0.185058	0.000051
C56	C	2.383206	0.685058	0.500051
C57	C	1.501277	0.421541	0.000039
C58	C	2.001277	0.921541	0.500039
C59	C	1.505094	0.563170	0.000035
C60	C	2.005094	1.063170	0.500035
N61	N	1.508418	0.188392	0.195711
N62	N	2.008418	0.688392	0.695711
N63	N	1.508487	0.188420	-0.195621
N64	N	2.008487	0.688420	0.304379
C65	C	1.594367	0.102505	0.238981
C66	C	2.094367	0.602505	0.738981
C67	C	1.594374	0.102504	0.325528
C68	C	2.094374	0.602504	0.825528
C69	C	1.508436	0.188397	0.368804
C70	C	2.008436	0.688397	0.868804
C71	C	1.422478	0.274288	0.325528
C72	C	1.922478	0.774288	0.825528
C73	C	1.422466	0.274282	0.238983
C74	C	1.922466	0.774282	0.738983
C75	C	1.422522	0.274313	0.674557
C76	C	1.922522	0.774313	1.174557
C77	C	1.422543	0.274314	0.761108
C78	C	1.922543	0.774314	1.261108
C79	C	1.594429	0.102534	0.761101
C80	C	2.094429	0.602534	1.261101
C81	C	1.594418	0.102528	0.674556
C82	C	2.094418	0.602528	1.174556
C83	C	1.508455	0.188414	0.631288
C84	C	2.008455	0.688414	1.131288
C85	C	1.508448	0.188413	0.537444
C86	C	2.008448	0.688413	1.037444
C87	C	1.508449	0.188405	0.462646
C88	C	2.008449	0.688405	0.962646
H89	H	1.074492	0.302337	0.125117
H90	H	1.574492	0.802337	0.625117
Cl91	Cl	1.702461	-0.005451	0.620155
Cl92	Cl	2.202461	0.494549	1.120155
H93	H	1.394394	-0.377633	0.125142
H94	H	1.894394	0.122367	0.625142
Cl95	Cl	0.925600	0.045953	0.156298
Cl96	Cl	1.425600	0.545953	0.656298
H97	H	1.286824	-0.204837	0.000103
H98	H	1.786824	0.295163	0.500103
H99	H	1.622346	-0.245784	0.125276
H100	H	2.122346	0.254216	0.625276
Cl101	Cl	1.314434	0.382264	0.379931
Cl102	Cl	1.814434	0.882264	0.879931
Cl103	Cl	1.650806	-0.228619	-0.156210
Cl104	Cl	2.150806	0.271381	0.343790
H105	H	1.730204	-0.418089	0.000130
H106	H	2.230204	0.081911	0.500130
Cl107	Cl	1.366031	-0.394409	-0.156210
Cl108	Cl	1.866031	0.105591	0.343790
H109	H	1.115238	-0.033196	-0.000038
H110	H	1.615238	0.466804	0.499962
H111	H	0.901947	0.410168	-0.000044
H112	H	1.401947	0.910168	0.499956
H113	H	1.352557	0.344261	0.796342
H114	H	1.852557	0.844261	1.296342
Cl115	Cl	0.925570	0.045988	-0.156233
Cl116	Cl	1.425570	0.545988	0.343767
H117	H	1.074280	0.302350	-0.125192
H118	H	1.574280	0.802350	0.374808
Cl119	Cl	1.702416	-0.005476	0.184585
Cl120	Cl	2.202416	0.494524	0.684585
H121	H	1.352476	0.344219	0.203754
H122	H	1.852476	0.844219	0.703754
Cl123	Cl	1.702425	-0.005471	0.379925
Cl124	Cl	2.202425	0.494529	0.879925
H125	H	1.664421	0.032597	0.796339
H126	H	2.164421	0.532597	1.296339
Cl127	Cl	1.314463	0.382285	0.620169
Cl128	Cl	1.814463	0.882285	1.120169
