data_functionalizedCrystal
_audit_creation_method	'MofGen! by Chris Wilmer'
_symmetry_space_group_name_H-M	'P1'
_symmetry_Int_Tables_number	1
_symmetry_cell_setting	triclinic
loop_
_symmetry_equiv_pos_as_xyz
  x,y,z
_cell_length_a	18.215407
_cell_length_b	12.645330
_cell_length_c	18.215399
_cell_angle_alpha	89.976970
_cell_angle_beta	89.980167
_cell_angle_gamma	90.018140
loop_
_atom_site_label
_atom_site_type_symbol
_atom_site_fract_x
_atom_site_fract_y
_atom_site_fract_z
Zn1	Zn	1.125109	-0.422038	-0.416141
Zn2	Zn	1.125033	-0.599320	-0.293085
Zn3	Zn	1.002041	-0.422072	-0.293088
Zn4	Zn	1.002023	-0.599261	-0.416110
O5	O	1.063551	-0.510673	-0.354606
O6	O	1.228083	-0.445565	-0.399829
O7	O	1.108693	-0.575847	-0.190101
O8	O	1.018406	-0.273720	-0.309426
O9	O	1.228027	-0.575813	-0.309421
O10	O	1.108823	-0.273695	-0.399832
O11	O	1.018332	-0.445624	-0.190104
O12	O	0.899055	-0.445566	-0.309396
O13	O	1.018374	-0.575713	-0.519099
O14	O	0.899041	-0.575746	-0.399780
O15	O	1.108805	-0.445507	-0.519121
O16	O	1.108675	-0.747659	-0.309391
O17	O	1.018300	-0.747616	-0.399777
C18	C	0.872345	-0.510654	-0.354585
C19	C	0.790546	-0.510672	-0.354594
C20	C	0.602364	-0.578563	-0.401597
C21	C	0.525506	-0.578567	-0.401606
C22	C	0.525490	-0.442801	-0.307631
C23	C	0.602348	-0.442793	-0.307626
C24	C	0.640783	-0.510680	-0.354608
C25	C	0.487067	-0.510692	-0.354622
C26	C	0.403733	-0.510695	-0.354632
C27	C	0.724122	-0.510676	-0.354600
C28	C	1.063498	-0.786102	-0.354596
C29	C	1.063542	-0.903932	-0.354616
C30	C	1.006922	-1.071513	-0.411653
C31	C	1.006632	-0.948954	-0.411470
C32	C	1.042549	-0.948523	-0.277058
C33	C	1.042203	-1.071122	-0.277404
C34	C	1.141502	-1.071022	-0.374509
C35	C	1.141024	-0.948415	-0.376205
C36	C	1.255504	-0.510692	-0.354628
C37	C	1.337303	-0.510700	-0.354637
C38	C	1.063596	-0.510600	-0.546559
C39	C	1.063615	-0.510568	-0.628358
C40	C	1.063625	-0.234167	-0.354633
C41	C	1.063657	-0.116337	-0.354644
C42	C	1.110720	-0.442707	-0.816565
C43	C	1.110728	-0.442676	-0.893424
C44	C	1.016563	-0.578266	-0.893389
C45	C	1.016551	-0.578290	-0.816532
C46	C	1.063634	-0.510513	-0.778122
C47	C	1.063654	-0.510457	-0.931838
C48	C	1.063663	-0.510424	-1.015172
C49	C	1.063624	-0.510544	-0.694783
C50	C	1.063549	-0.510669	-0.163400
C51	C	1.063672	-0.510401	-0.081602
H52	H	0.633629	-0.387508	-0.269362
H53	H	0.633656	-0.633839	-0.439855
H54	H	1.156855	-0.919267	-0.433284
H55	H	1.149055	-0.387515	-0.785294
C56	C	1.161811	-0.368886	-0.935066
C57	C	1.145823	-0.264007	-0.916360
C58	C	1.192872	-0.195998	-0.954697
H59	H	1.155124	-0.378425	-0.986353
H60	H	1.211264	-0.384347	-0.922462
H61	H	1.096381	-0.248551	-0.928969
H62	H	1.152514	-0.254434	-0.865080
H63	H	1.242325	-0.211459	-0.942093
H64	H	1.186181	-0.205547	-1.005982
H65	H	1.182035	-0.124831	-0.942005
H66	H	0.949572	-1.102414	-0.398661
H67	H	0.978203	-0.633505	-0.785230
H68	H	0.978232	-0.633450	-0.924672
C69	C	0.483927	-0.652388	-0.452650
C70	C	0.534040	-0.711852	-0.493778
C71	C	0.495766	-0.779879	-0.540803
H72	H	0.453964	-0.612016	-0.484831
H73	H	0.453940	-0.698585	-0.424463
H74	H	0.564015	-0.665661	-0.521962
H75	H	0.564005	-0.752245	-0.461616
H76	H	0.465778	-0.826076	-0.512616
H77	H	0.465804	-0.739498	-0.572979
H78	H	0.529761	-0.820240	-0.568709
C79	C	1.024105	-0.908949	-0.488212
C80	C	1.035028	-0.995165	-0.535162
C81	C	1.051108	-0.958360	-0.605868
H82	H	1.067363	-0.867029	-0.486807
H83	H	0.984336	-0.867430	-0.505738
H84	H	1.074794	-1.036666	-0.517640
H85	H	0.991779	-1.037094	-0.536589
H86	H	1.011339	-0.916841	-0.623394
H87	H	1.094365	-0.916439	-0.604456
H88	H	1.058515	-1.016851	-0.637734
C89	C	1.200415	-0.907762	-0.324855
C90	C	1.234299	-0.993407	-0.289859
C91	C	1.289016	-0.956001	-0.242550
H92	H	1.179038	-0.862634	-0.289075
H93	H	1.235934	-0.869432	-0.352287
H94	H	1.198786	-1.031720	-0.262428
H95	H	1.255691	-1.038543	-0.325620
H96	H	1.324535	-0.917671	-0.269982
H97	H	1.267633	-0.910873	-0.206775
H98	H	1.312018	-1.014105	-0.218804
H99	H	0.494187	-0.387531	-0.269379
C100	C	0.929645	-0.910170	-0.393865
C101	C	0.883208	-0.997125	-0.383353
C102	C	0.812282	-0.961440	-0.367120
H103	H	0.911863	-0.868472	-0.433429
H104	H	0.930814	-0.868688	-0.350406
H105	H	0.882036	-1.038590	-0.426807
H106	H	0.900966	-1.038833	-0.343787
H107	H	0.813451	-0.919957	-0.323661
H108	H	0.794508	-0.919741	-0.406686
H109	H	0.780768	-1.020433	-0.359979
H110	H	1.081734	-1.100776	-0.233479
C111	C	0.966270	-1.109178	-0.254992
C112	C	0.921138	-1.021785	-0.241262
C113	C	0.851179	-1.056795	-0.220626
H114	H	0.969943	-1.151024	-0.211832
H115	H	0.945751	-1.150352	-0.293478
H116	H	0.941652	-0.980629	-0.202779
H117	H	0.917443	-0.979930	-0.284413
H118	H	0.830659	-1.097969	-0.259112
H119	H	0.854859	-1.098641	-0.177467
H120	H	0.820546	-0.997506	-0.211314
C121	C	1.095988	-0.909869	-0.218877
C122	C	1.130387	-0.996816	-0.185996
C123	C	1.179638	-0.961257	-0.132413
H124	H	1.070103	-0.870823	-0.182628
H125	H	1.131958	-0.865826	-0.241089
H126	H	1.094422	-1.040842	-0.163784
H127	H	1.156286	-1.035872	-0.222227
H128	H	1.215609	-0.917214	-0.154625
H129	H	1.153748	-0.922210	-0.096169
H130	H	1.202989	-1.020244	-0.110102
C131	C	1.167084	-1.111933	-0.448680
C132	C	1.178625	-1.026477	-0.496206
C133	C	1.202193	-1.064123	-0.564537
H134	H	1.130699	-1.157336	-0.468722
H135	H	1.211640	-1.150022	-0.442750
H136	H	1.134075	-0.988405	-0.502137
H137	H	1.215014	-0.981065	-0.476187
H138	H	1.246748	-1.102212	-0.558608
H139	H	1.165805	-1.109527	-0.584573
H140	H	1.210033	-1.006148	-0.596790
H141	H	1.019935	-1.100928	-0.469351
H142	H	1.183771	-1.100007	-0.332986
H143	H	0.986237	-0.917912	-0.259925
