data_functionalizedCrystal
_audit_creation_method	'MofGen! by Chris Wilmer'
_symmetry_space_group_name_H-M	'P1'
_symmetry_Int_Tables_number	1
_symmetry_cell_setting	triclinic
loop_
_symmetry_equiv_pos_as_xyz
  x,y,z
_cell_length_a	17.038272
_cell_length_b	15.995350
_cell_length_c	14.472310
_cell_angle_alpha	90.009379
_cell_angle_beta	89.999298
_cell_angle_gamma	92.698034
loop_
_atom_site_label
_atom_site_type_symbol
_atom_site_fract_x
_atom_site_fract_y
_atom_site_fract_z
O1	O	0.100774	-1.118175	-0.076763
O2	O	0.600774	-0.618175	0.423237
O3	O	0.113219	-0.875286	-0.076782
O4	O	0.613219	-0.375286	0.423218
O5	O	-0.006819	-0.995287	-0.076766
O6	O	0.493181	-0.495287	0.423234
O7	O	0.220812	-0.998174	-0.076780
O8	O	0.720812	-0.498174	0.423220
O9	O	-0.006812	-0.995254	0.076916
O10	O	0.493188	-0.495254	0.576916
O11	O	0.113226	-0.875253	0.076900
O12	O	0.613226	-0.375253	0.576900
O13	O	0.100781	-1.118142	0.076919
O14	O	0.600781	-0.618142	0.576919
Cu15	Cu	0.107004	-0.996695	0.090942
Cu16	Cu	0.607004	-0.496695	0.590942
Cu17	Cu	0.106996	-0.996733	-0.090805
Cu18	Cu	0.606996	-0.496733	0.409195
O19	O	0.220819	-0.998141	0.076902
O20	O	0.720819	-0.498141	0.576902
C21	C	0.112708	-0.844038	0.000056
C22	C	0.612708	-0.344038	0.500056
C23	C	0.111165	-0.750978	0.000049
C24	C	0.611165	-0.250978	0.500049
C25	C	-0.035945	-0.992645	0.000075
C26	C	0.464055	-0.492645	0.500075
C27	C	-0.122740	-0.984810	0.000074
C28	C	0.377260	-0.484810	0.500074
C29	C	0.101292	-1.149390	0.000078
C30	C	0.601292	-0.649390	0.500078
C31	C	0.102834	-1.242450	0.000079
C32	C	0.602834	-0.742450	0.500079
C33	C	-0.172836	-1.056739	0.000081
C34	C	0.327164	-0.556739	0.500081
C35	C	-0.254389	-1.049373	0.000072
C36	C	0.245611	-0.549373	0.500072
C37	C	-0.285843	-0.970077	0.000062
C38	C	0.214157	-0.470077	0.500062
C39	C	-0.235740	-0.898143	0.000053
C40	C	0.264260	-0.398143	0.500053
C41	C	-0.154189	-0.905510	0.000056
C42	C	0.345811	-0.405510	0.500056
C43	C	-0.531607	-0.944051	0.000047
C44	C	-0.031607	-0.444051	0.500047
C45	C	-0.613164	-0.936689	0.000048
C46	C	-0.113164	-0.436689	0.500048
C47	C	-0.631807	-1.087920	0.000065
C48	C	-0.131807	-0.587920	0.500065
C49	C	-0.550254	-1.095280	0.000073
C50	C	-0.050254	-0.595280	0.500073
C51	C	-0.500158	-1.023346	0.000059
C52	C	-0.000158	-0.523346	0.500059
C53	C	-0.369202	-0.962546	0.000056
C54	C	0.130798	-0.462546	0.500056
C55	C	-0.416801	-1.030878	0.000059
C56	C	0.083199	-0.530878	0.500059
C57	C	0.249944	-1.000784	0.000059
C58	C	0.749944	-0.500784	0.500059
C59	C	0.336739	-1.008618	0.000054
C60	C	0.836739	-0.508618	0.500054
N61	N	0.107009	-0.996674	0.218773
N62	N	0.607009	-0.496674	0.718773
C63	C	0.105626	-0.412836	0.000069
C64	C	0.605626	0.087164	0.500069
C65	C	0.020137	-0.454180	0.000417
C66	C	0.520137	0.045820	0.500417
C67	C	0.021680	-0.550981	0.000064
C68	C	0.521680	-0.050981	0.500064
C69	C	0.108374	-0.580592	0.000060
C70	C	0.608374	-0.080592	0.500060
C71	C	0.150536	-0.542527	-0.087699
C72	C	0.650536	-0.042527	0.412301
C73	C	0.148388	-0.445739	-0.087766
C74	C	0.648388	0.054261	0.412234
C75	C	0.150162	-0.445488	0.086999
C76	C	0.650162	0.054512	0.586999
C77	C	0.150142	-0.542432	0.088152
C78	C	0.650142	-0.042432	0.588152
C79	C	0.109931	-0.675401	0.000051
C80	C	0.609931	-0.175401	0.500051
C81	C	0.104071	-0.318027	0.000071
C82	C	0.604071	0.181973	0.500071
N83	N	0.106984	-0.996761	-0.218636
N84	N	0.606984	-0.496761	0.281364
C85	C	0.106993	-0.996732	0.592864
C86	C	0.606993	-0.496732	1.092864
C87	C	0.171007	-0.932276	0.553689
C88	C	0.671007	-0.432276	1.053689
C89	C	0.171241	-0.932452	0.446601
C90	C	0.671241	-0.432452	0.946601
C91	C	0.107001	-0.996702	0.407273
C92	C	0.607001	-0.496702	0.907273
C93	C	0.124819	-1.085336	0.446115
C94	C	0.624819	-0.585336	0.946115
C95	C	0.125274	-1.084981	0.553237
C96	C	0.625274	-0.584981	1.053237
C97	C	0.024970	-0.973320	0.553397
C98	C	0.524970	-0.473320	1.053397
C99	C	0.025517	-0.971356	0.446269
C100	C	0.525517	-0.471356	0.946269
C101	C	0.107004	-0.996691	0.302385
C102	C	0.607004	-0.496691	0.802385
C103	C	0.106991	-0.996749	0.697752
C104	C	0.606991	-0.496749	1.197752
H105	H	-0.147233	-1.121310	0.000094
H106	H	0.352767	-0.621310	0.500094
F107	F	-0.307702	-1.125930	0.000080
F108	F	0.192298	-0.625930	0.500080
F109	F	-0.516785	-1.179677	0.000059
F110	F	-0.016785	-0.679677	0.500059
H111	H	-0.014032	-0.433211	0.063353
H112	H	0.485968	0.066789	0.563353
F113	F	-0.478302	-0.867491	0.000030
F114	F	0.021698	-0.367491	0.500030
H115	H	-0.261356	-0.833579	0.000039
H116	H	0.238644	-0.333579	0.500039
H117	H	-0.672604	-1.146484	0.000074
H118	H	-0.172604	-0.646484	0.500074
H119	H	-0.638770	-0.872114	0.000055
H120	H	-0.138770	-0.372114	0.500055
H121	H	-0.113400	-0.846938	0.000050
H122	H	0.386600	-0.346938	0.500050
F123	F	-0.024331	-0.425416	-0.081380
F124	F	0.475669	0.074584	0.418620
H125	H	-0.391187	-1.095440	0.000046
H126	H	0.108813	-0.595440	0.500046
H127	H	-0.394821	-0.897983	0.000050
H128	H	0.105179	-0.397983	0.500050
F129	F	-0.021762	-0.584295	-0.082432
F130	F	0.478238	-0.084295	0.417568
H131	H	-0.011462	-0.577035	0.062974
H132	H	0.488538	-0.077035	0.562974
F133	F	0.108192	-0.418961	-0.173508
F134	F	0.608192	0.081039	0.326492
F135	F	0.112253	-0.576903	-0.173065
F136	F	0.612253	-0.076903	0.326935
F137	F	0.233779	-0.566939	-0.091987
F138	F	0.733779	-0.066939	0.408013
H139	H	0.211153	-0.417962	-0.091752
H140	H	0.711153	0.082038	0.408248
F141	F	0.113634	-0.416031	0.173945
F142	F	0.613634	0.083969	0.673945
F143	F	0.109850	-0.575165	0.173012
F144	F	0.609850	-0.075165	0.673012
H145	H	0.213362	-0.562300	0.093450
H146	H	0.713362	-0.062300	0.593450
H147	H	0.213193	-0.418217	0.087589
H148	H	0.713193	0.081783	0.587589
H149	H	0.160625	-0.866756	0.420341
H150	H	0.660625	-0.366756	0.920341
H151	H	0.160566	-0.866382	0.579472
H152	H	0.660566	-0.366382	1.079472
F153	F	0.250121	-0.952380	0.588842
F154	F	0.750121	-0.452380	1.088842
H155	H	0.079434	-1.134688	0.420639
H156	H	0.579434	-0.634688	0.920639
F157	F	0.002587	-0.890251	0.588744
F158	F	0.502587	-0.390251	1.088744
F159	F	0.250806	-0.952757	0.413087
F160	F	0.750806	-0.452757	0.913087
F161	F	0.203461	-1.110786	0.585882
F162	F	0.703461	-0.610786	1.085882
H163	H	0.080487	-1.134751	0.579149
H164	H	0.580487	-0.634751	1.079149
H165	H	0.183955	-1.105401	0.419276
H166	H	0.683955	-0.605401	0.919276
F167	F	0.007841	-0.886095	0.413089
F168	F	0.507841	-0.386095	0.913089
H169	H	-0.024352	-1.014806	0.419501
H170	H	0.475648	-0.514806	0.919501
F171	F	-0.037296	-1.034669	0.586508
F172	F	0.462704	-0.534669	1.086508
