data_functionalizedCrystal
_audit_creation_method	'MofGen! by Chris Wilmer'
_symmetry_space_group_name_H-M	'P1'
_symmetry_Int_Tables_number	1
_symmetry_cell_setting	triclinic
loop_
_symmetry_equiv_pos_as_xyz
  x,y,z
_cell_length_a	14.519709
_cell_length_b	17.699083
_cell_length_c	16.176319
_cell_angle_alpha	89.992304
_cell_angle_beta	89.998204
_cell_angle_gamma	83.481580
loop_
_atom_site_label
_atom_site_type_symbol
_atom_site_fract_x
_atom_site_fract_y
_atom_site_fract_z
O1	O	1.223449	0.099215	-0.068641
O2	O	0.954923	0.110899	-0.068666
O3	O	1.096773	-0.005110	-0.068645
O4	O	1.081600	0.215225	-0.068661
O5	O	1.096753	-0.005118	0.068848
O6	O	0.954903	0.110892	0.068827
O7	O	1.223430	0.099208	0.068853
Cu8	Cu	1.089165	0.105049	0.081394
Cu9	Cu	1.089188	0.105058	-0.081208
O10	O	1.081580	0.215217	0.068832
C11	C	1.096219	-0.033312	0.000101
C12	C	1.094588	-0.117335	0.000101
C13	C	0.920556	0.110351	0.000077
C14	C	0.818181	0.108719	0.000068
C15	C	1.177851	-0.165718	0.000111
C16	C	1.176313	-0.244665	0.000103
C17	C	1.091511	-0.275229	0.000093
C18	C	1.008242	-0.226840	0.000081
C19	C	1.009781	-0.147894	0.000082
C20	C	1.002033	-0.545221	0.000074
C21	C	1.000501	-0.624173	0.000075
C22	C	1.168566	-0.641992	0.000094
C23	C	1.170105	-0.563046	0.000096
C24	C	1.086836	-0.514664	0.000080
C25	C	1.088505	-0.429060	0.000086
C26	C	1.089841	-0.360831	0.000092
C27	C	0.443311	0.102712	0.000106
C28	C	0.547612	0.104380	0.000095
C29	C	0.630743	0.105716	0.000086
C30	C	0.735050	0.107384	0.000077
C31	C	1.257797	0.099756	0.000107
C32	C	1.360171	0.101388	0.000111
C33	C	1.082134	0.243420	0.000083
C34	C	1.083765	0.327442	0.000078
N35	N	1.089155	0.105043	0.195759
N36	N	1.089205	0.105059	-0.195573
C37	C	1.151985	0.053695	0.239033
C38	C	1.151990	0.053694	0.325580
C39	C	1.089168	0.105045	0.368852
C40	C	1.026332	0.156396	0.325572
C41	C	1.026323	0.156392	0.239027
C42	C	1.026363	0.156410	0.674601
C43	C	1.026378	0.156411	0.761152
C44	C	1.152030	0.053712	0.761154
C45	C	1.152022	0.053708	0.674608
C46	C	1.089182	0.105055	0.631336
C47	C	1.089177	0.105055	0.537492
C48	C	1.089178	0.105050	0.462694
H49	H	1.246907	-0.140840	0.000124
O50	O	1.249371	-0.689100	0.000064
C51	C	1.229836	-0.765335	0.000077
H52	H	1.157411	-0.768457	-0.025964
H53	H	1.282929	-0.801022	-0.039836
H54	H	1.233371	-0.788171	0.066038
H55	H	0.941980	-0.108501	0.000075
H56	H	1.239159	-0.538166	0.000109
H57	H	1.203146	0.011882	0.203806
O58	O	0.965384	0.206378	0.197025
C59	C	0.980187	0.281331	0.218170
H60	H	1.054020	0.281840	0.241952
H61	H	0.969484	0.319293	0.161247
H62	H	0.929026	0.303470	0.268407
H63	H	0.934231	-0.505837	0.000061
O64	O	1.257110	-0.291772	0.000073
C65	C	1.237571	-0.368006	0.000082
H66	H	1.165144	-0.371125	-0.025955
H67	H	1.290661	-0.403692	-0.039835
H68	H	1.241111	-0.390846	0.066042
H69	H	1.203150	0.011882	0.360813
H70	H	1.203180	0.011896	0.639378
O71	O	0.925945	-0.256653	0.000107
C72	C	0.942439	-0.336708	0.000090
H73	H	1.014445	-0.355153	0.026127
H74	H	0.888179	-0.361023	0.040003
H75	H	0.938028	-0.358683	-0.065873
H76	H	1.203195	0.011899	0.796395
H77	H	0.931441	-0.649055	0.000068
H78	H	0.975218	0.198229	0.796383
H79	H	0.975199	0.198220	0.639376
H80	H	0.975177	0.198204	0.360810
