data_functionalizedCrystal
_audit_creation_method	'MofGen! by Chris Wilmer'
_symmetry_space_group_name_H-M	'P1'
_symmetry_Int_Tables_number	1
_symmetry_cell_setting	triclinic
loop_
_symmetry_equiv_pos_as_xyz
  x,y,z
_cell_length_a	23.196402
_cell_length_b	23.196402
_cell_length_c	23.196401
_cell_angle_alpha	90.011299
_cell_angle_beta	60.008822
_cell_angle_gamma	59.998670
loop_
_atom_site_label
_atom_site_type_symbol
_atom_site_fract_x
_atom_site_fract_y
_atom_site_fract_z
Zr1	Zr	0.630985	0.555372	-0.075639
O2	O	0.751254	0.463302	-0.167684
O3	O	0.510718	0.583595	-0.047426
O4	O	0.630985	0.583569	-0.167692
O5	O	0.630985	0.463350	0.047453
O6	O	0.630983	0.678441	-0.167694
O7	O	0.630987	0.463327	-0.047419
O8	O	0.415847	0.678487	0.047439
O9	O	0.846121	0.463304	-0.167680
O10	O	0.560183	0.666436	-0.035391
O11	O	0.560184	0.595651	0.035412
O12	O	0.701783	0.595621	-0.106185
O13	O	0.701783	0.524836	-0.035382
Zr14	Zr	0.630978	0.706718	0.075666
Zr15	Zr	0.630981	0.706682	-0.075643
Zr16	Zr	0.630982	0.555409	0.075670
Zr17	Zr	0.782287	0.555377	-0.075633
Zr18	Zr	0.479676	0.706714	0.075660
O19	O	0.751245	0.678496	0.047453
O20	O	0.751248	0.678445	-0.167688
O21	O	0.751250	0.463353	0.047458
O22	O	0.510709	0.798789	0.167711
O23	O	0.510713	0.798738	-0.047431
O24	O	0.510715	0.583646	0.167716
O25	O	0.630978	0.798741	-0.047426
O26	O	0.630978	0.678521	0.167719
O27	O	0.630980	0.583650	0.167721
O28	O	0.630977	0.798764	0.047446
O29	O	0.846118	0.583575	-0.167682
O30	O	0.415845	0.678516	0.167709
O31	O	0.415842	0.798787	0.167707
O32	O	0.415844	0.798758	0.047436
O33	O	0.846119	0.463333	-0.047409
O34	O	0.846116	0.583604	-0.047412
O35	O	0.560181	0.666470	0.106212
O36	O	0.560180	0.737255	0.035409
O37	O	0.701780	0.666440	-0.035385
O38	O	0.701780	0.595655	0.035418
C39	C	0.441725	0.631040	0.000005
C40	C	0.377494	0.631038	0.000003
C41	C	0.347323	0.667983	-0.036958
C42	C	0.286962	0.667989	-0.036953
C43	C	0.256785	0.631038	0.000005
C44	C	0.286960	0.594093	0.036974
C45	C	0.347314	0.594093	0.036973
C46	C	0.194758	0.569132	-0.005269
C47	C	0.134408	0.569130	-0.005273
C48	C	0.070631	0.631039	0.000012
C49	C	0.067217	0.692950	0.005286
C50	C	0.127571	0.692950	0.005285
C51	C	0.191341	0.631034	0.000010
C52	C	-0.024991	0.667994	-0.036945
C53	C	-0.085357	0.668003	-0.036934
C54	C	-0.085352	0.594099	0.036988
C55	C	-0.024993	0.594097	0.036981
C56	C	0.005186	0.631043	0.000011
C57	C	0.630986	0.441780	0.000018
C58	C	0.630988	0.377545	0.000019
C59	C	0.630995	0.347360	-0.052250
C60	C	0.630988	0.287009	-0.052250
C61	C	0.630990	0.256837	0.000014
C62	C	0.630978	0.287031	0.052292
C63	C	0.630978	0.347385	0.052294
C64	C	0.678495	0.137467	0.016302
C65	C	0.678501	0.077112	0.016295
C66	C	0.630989	0.070687	0.000010
C67	C	0.583481	0.124619	-0.016282
C68	C	0.583480	0.184973	-0.016280
C69	C	0.630990	0.191393	0.000017
C70	C	0.630987	-0.024937	-0.052262
C71	C	0.630974	-0.085287	-0.052257
C72	C	0.630973	-0.085268	0.052282
C73	C	0.630977	-0.024915	0.052280
C74	C	0.630988	0.005245	0.000005
C75	C	0.820238	0.631051	0.000022
C76	C	0.884470	0.631052	0.000024
C77	C	0.630985	0.631000	-0.189251
C78	C	0.630986	0.630985	-0.253485
C79	C	0.630977	0.820311	0.000009
C80	C	0.630975	0.884546	0.000008
C81	C	0.704897	0.594024	-0.320612
C82	C	0.704898	0.594042	-0.380967
C83	C	0.630983	0.631011	-0.374192
C84	C	0.557062	0.667980	-0.307053
C85	C	0.557063	0.667967	-0.246700
C86	C	0.574356	0.625760	-0.441511
C87	C	0.574358	0.625768	-0.501865
C88	C	0.630977	0.631056	-0.560339
C89	C	0.687609	0.636321	-0.558460
C90	C	0.687610	0.636308	-0.498107
C91	C	0.630974	0.631030	-0.439630
C92	C	0.704895	0.594112	-0.692913
C93	C	0.704893	0.594135	-0.753268
C94	C	0.557055	0.668069	-0.679351
C95	C	0.557059	0.668051	-0.618998
C96	C	0.630981	0.631069	-0.625784
C97	C	0.630979	0.631091	0.189278
C98	C	0.630978	0.631106	0.253513
C99	C	0.441720	0.820306	0.000001
C100	C	0.377487	0.884539	-0.000003
C101	C	0.441722	0.631085	0.189270
C102	C	0.377490	0.631099	0.253502
C103	C	0.441718	0.820351	0.189266
C104	C	0.377483	0.884599	0.253496
C105	C	0.820246	0.441740	-0.189239
C106	C	0.884480	0.377491	-0.253469
C107	C	0.820243	0.441785	0.000026
C108	C	0.884476	0.377552	0.000030
C109	C	0.820241	0.631005	-0.189243
C110	C	0.884474	0.630992	-0.253475
C111	C	0.347324	0.877737	-0.036968
C112	C	0.286978	0.938085	-0.036986
C113	C	0.256792	1.005234	-0.000034
C114	C	0.286962	1.012035	0.036932
C115	C	0.347310	0.951688	0.036945
C116	C	0.347324	0.668072	0.320629
C117	C	0.286979	0.668082	0.380987
C118	C	0.256796	0.631123	0.374217
C119	C	0.286968	0.594145	0.307083
C120	C	0.347316	0.594132	0.246726
C121	C	0.347318	0.951726	0.246701
C122	C	0.286971	1.012101	0.307047
C123	C	0.256787	1.005346	0.374187
C124	C	0.286958	0.938212	0.380980
C125	C	0.347308	0.877839	0.320636
C126	C	0.914653	0.310364	-0.246674
C127	C	0.975018	0.249990	-0.307020
C128	C	1.005206	0.256745	-0.374160
C129	C	0.975030	0.323879	-0.380953
C130	C	0.914670	0.384252	-0.320608
C131	C	0.914646	0.384354	0.036989
C132	C	0.975008	0.324006	0.036990
C133	C	1.005196	0.256857	0.000036
C134	C	0.975024	0.250056	-0.036927
C135	C	0.914667	0.310403	-0.036932
C136	C	0.914637	0.667958	-0.246682
C137	C	0.974982	0.667959	-0.307029
C138	C	1.005168	0.630989	-0.374168
C139	C	0.974999	0.594022	-0.380959
C140	C	0.914650	0.594025	-0.320613
H141	H	0.015282	0.743365	0.009598
H142	H	1.054343	0.207724	0.000046
H143	H	0.890104	0.304855	-0.067026
N144	N	1.007593	0.331153	-0.453373
H145	H	0.961552	0.357804	-0.459037
H146	H	1.032646	0.357793	-0.458993
H147	H	0.733716	0.640624	-0.606073
N148	N	0.784617	0.554262	-0.825672
H149	H	0.773402	0.559884	-0.862878
H150	H	0.816901	0.573656	-0.831248
H151	H	0.630975	-0.109861	-0.094819
N152	N	0.631019	0.254424	-0.108635
H153	H	0.580760	0.254512	-0.085846
H154	H	0.631061	0.282701	-0.141740
H155	H	0.207652	1.054367	-0.000050
N156	N	1.007566	0.554147	-0.453377
H157	H	1.032615	0.502443	-0.459036
H158	H	0.961491	0.573581	-0.458999
N159	N	0.630966	0.007640	0.108663
H160	H	0.681229	-0.027996	0.106387
H161	H	0.630931	0.050460	0.100710
H162	H	-0.000421	0.698080	-0.067046
N163	N	0.379878	0.707931	0.327938
H164	H	0.369372	0.745122	0.304550
H165	H	0.351594	0.731304	0.379638
N166	N	0.729741	0.018944	0.033863
H167	H	0.759832	0.032175	0.044188
H168	H	0.693299	0.012131	0.076669
N169	N	0.882079	0.707837	-0.174270
H170	H	0.928122	0.688462	-0.168610
H171	H	0.857022	0.759531	-0.168665
N172	N	0.191680	1.070467	0.439268
H173	H	0.177127	1.056008	0.482836
H174	H	0.212727	1.099493	0.439230
H175	H	0.733719	0.640598	-0.496579
H176	H	0.717135	0.142716	0.029621
N177	N	0.254398	0.930932	0.453397
H178	H	0.211587	0.979367	0.490589
H179	H	0.229394	0.904251	0.458992
N180	N	1.007577	0.177627	-0.076769
H181	H	1.032626	0.171940	-0.128474
H182	H	1.050352	0.140483	-0.071090
H183	H	0.999540	0.698061	-0.301485
N184	N	0.379870	0.805317	-0.076824
H185	H	0.440455	0.778617	-0.114009
H186	H	0.369303	0.778698	-0.042877
N187	N	1.007555	0.177588	-0.299683
H188	H	0.979263	0.182475	-0.247992
H189	H	0.997060	0.150925	-0.323117
N190	N	0.138084	0.502360	-0.010931
H191	H	0.190504	0.464191	-0.056609
H192	H	0.136004	0.486474	0.030194
H193	H	0.207657	0.631140	0.423369
N194	N	0.882121	0.554151	-0.327945
H195	H	0.910407	0.530731	-0.379635
H196	H	0.892632	0.516995	-0.304520
N197	N	0.254440	0.707978	0.453387
H198	H	0.193856	0.745173	0.480074
H199	H	0.265005	0.674049	0.480026
H200	H	0.890078	0.304851	-0.192011
N201	N	0.477340	0.707915	-0.546592
H202	H	0.430514	0.731338	-0.551456
H203	H	0.474121	0.673975	-0.519956
N204	N	0.379876	0.959016	0.174288
H205	H	0.369372	0.935621	0.147599
H206	H	0.351594	1.010717	0.179205
H207	H	0.371861	0.823184	0.326178
H208	H	-0.000425	0.564010	0.067076
N209	N	0.254406	0.554289	0.299786
H210	H	0.211596	0.559917	0.348211
H211	H	0.229402	0.573695	0.273104
N212	N	1.070268	0.630980	-0.439251
H213	H	1.084820	0.601950	-0.482817
H214	H	1.049212	0.681057	-0.439210
H215	H	0.630970	-0.109831	0.094839
H216	H	0.371870	0.564026	0.192070
H217	H	0.999564	0.329557	0.067093
H218	H	1.054355	0.207580	-0.423291
H219	H	0.765087	0.564000	-0.698439
H220	H	0.890071	0.439025	0.067086
N221	N	0.379863	0.707835	-0.076830
H222	H	0.333814	0.759540	-0.057447
H223	H	0.422689	0.702178	-0.071215
N224	N	0.254409	0.707839	-0.076818
H225	H	0.282685	0.731244	-0.100237
H226	H	0.264913	0.673890	-0.113967
N227	N	0.882126	0.456652	-0.327943
H228	H	0.910411	0.451763	-0.379634
H229	H	0.821543	0.483304	-0.304523
N230	N	0.254435	1.084503	0.299710
H231	H	0.282711	1.079615	0.248019
H232	H	0.193849	1.111163	0.323140
N233	N	0.379839	0.959032	0.076817
H234	H	0.422654	0.910618	0.071221
H235	H	0.404830	0.985719	0.057403
N236	N	0.254437	0.930738	-0.076848
H237	H	0.211628	0.979153	-0.071256
H238	H	0.300535	0.904026	-0.128527
N239	N	0.123886	0.759723	0.010976
H240	H	0.071470	0.797872	0.056668
H241	H	0.171835	0.750264	0.010142
N242	N	-0.117905	0.707855	-0.076797
H243	H	-0.089625	0.731257	-0.100217
H244	H	-0.107406	0.673910	-0.113946
H245	H	0.246695	0.518710	-0.009586
N246	N	-0.117897	0.554250	0.076856
H247	H	-0.160711	0.559857	0.071251
H248	H	-0.071805	0.502561	0.057455
H249	H	0.262386	0.564007	0.067065
H250	H	0.371880	0.564006	0.067071
N251	N	0.630971	0.254498	0.108668
H252	H	0.630973	0.211683	0.100735
H253	H	0.681234	0.239913	0.106367
H254	H	0.631001	0.371916	-0.094814
N255	N	0.532245	0.243142	-0.033850
H256	H	0.502145	0.229919	-0.044169
H257	H	0.491669	0.288480	0.007541
H258	H	0.544796	0.119390	-0.029546
N259	N	0.513276	0.620094	-0.503887
H260	H	0.521868	0.620901	-0.550994
H261	H	0.520852	0.574402	-0.497141
N262	N	0.477339	0.707860	-0.299740
H263	H	0.488553	0.702258	-0.348159
H264	H	0.445059	0.688457	-0.273065
H265	H	0.262376	1.066716	0.067016
H266	H	0.630972	0.371963	0.094859
N267	N	0.630994	0.007599	-0.108639
H268	H	0.630991	-0.020679	-0.141749
H269	H	0.580729	0.057781	-0.085784
H270	H	0.765087	0.563942	-0.435632
N271	N	0.784623	0.554148	-0.327928
H272	H	0.816942	0.502445	-0.354604
H273	H	0.816866	0.573594	-0.354555
N274	N	0.477331	0.707951	-0.672033
H275	H	0.488544	0.702354	-0.720452
H276	H	0.445052	0.688548	-0.645361
N277	N	0.513281	0.620060	-0.378441
H278	H	0.477411	0.616720	-0.388791
H279	H	0.543127	0.576436	-0.368334
H280	H	0.496874	0.698066	-0.192040
