data_functionalizedCrystal
_audit_creation_method	'MofGen! by Chris Wilmer'
_symmetry_space_group_name_H-M	'P1'
_symmetry_Int_Tables_number	1
_symmetry_cell_setting	triclinic
loop_
_symmetry_equiv_pos_as_xyz
  x,y,z
_cell_length_a	14.853567
_cell_length_b	14.853567
_cell_length_c	13.330367
_cell_angle_alpha	90.000844
_cell_angle_beta	89.994807
_cell_angle_gamma	96.365070
loop_
_atom_site_label
_atom_site_type_symbol
_atom_site_fract_x
_atom_site_fract_y
_atom_site_fract_z
O1	O	1.196369	-0.117704	-0.083360
O2	O	1.696369	0.382296	0.416640
O3	O	0.933909	-0.131725	-0.083373
O4	O	1.433909	0.368275	0.416627
O5	O	1.072150	0.006515	-0.083369
O6	O	1.572150	0.506515	0.416631
O7	O	1.058128	-0.255944	-0.083364
O8	O	1.558128	0.244056	0.416636
O9	O	1.072130	0.006519	0.083478
O10	O	1.572130	0.506519	0.583478
O11	O	0.933889	-0.131722	0.083474
O12	O	1.433889	0.368278	0.583474
O13	O	1.196349	-0.117700	0.083487
O14	O	1.696349	0.382300	0.583487
Cu15	Cu	1.065117	-0.124711	0.098715
Cu16	Cu	1.565117	0.375289	0.598715
Cu17	Cu	1.065141	-0.124715	-0.098601
Cu18	Cu	1.565141	0.375285	0.401399
O19	O	1.058108	-0.255941	0.083483
O20	O	1.558108	0.244059	0.583483
C21	C	1.071504	0.040106	0.000052
C22	C	1.571504	0.540106	0.500052
C23	C	1.069601	0.140189	0.000043
C24	C	1.569601	0.640189	0.500043
C25	C	0.900311	-0.131088	0.000049
C26	C	1.400311	0.368912	0.500049
C27	C	0.800227	-0.129184	0.000043
C28	C	1.300227	0.370816	0.500043
C29	C	1.229947	-0.118337	0.000063
C30	C	1.729947	0.381663	0.500063
C31	C	1.330031	-0.120241	0.000062
C32	C	1.830031	0.379759	0.500062
C33	C	1.742565	-0.210407	0.000046
C34	C	2.242565	0.289593	0.500046
C35	C	1.763846	-0.046174	0.000043
C36	C	2.263846	0.453826	0.500043
C37	C	1.669812	-0.044384	0.000049
C38	C	2.169812	0.455616	0.500049
C39	C	1.612150	-0.125607	0.000052
C40	C	2.112150	0.374393	0.500052
C41	C	1.648522	-0.208619	0.000049
C42	C	2.148522	0.291381	0.500049
C43	C	1.633433	0.038627	0.000041
C44	C	2.133433	0.538627	0.500041
C45	C	1.539394	0.040421	0.000046
C46	C	2.039394	0.540421	0.500046
C47	C	1.481730	-0.040803	0.000056
C48	C	1.981730	0.459197	0.500056
C49	C	1.518108	-0.123819	0.000054
C50	C	2.018108	0.376181	0.500054
C51	C	1.460446	-0.205042	0.000057
C52	C	1.960446	0.294958	0.500057
C53	C	1.496821	-0.288059	0.000062
C54	C	1.996821	0.211941	0.500062
C55	C	1.590859	-0.289843	0.000059
C56	C	2.090859	0.210157	0.500059
C57	C	1.387693	-0.039019	0.000059
C58	C	1.887693	0.460981	0.500059
C59	C	1.366403	-0.203254	0.000059
C60	C	1.866403	0.296746	0.500059
C61	C	1.058754	-0.289531	0.000061
C62	C	1.558754	0.210469	0.500061
C63	C	1.060657	-0.389615	0.000063
C64	C	1.560657	0.110385	0.500063
N65	N	1.065107	-0.124708	0.237497
N66	N	1.565107	0.375292	0.737497
C67	C	0.979435	0.552723	0.000057
C68	C	1.479435	1.052723	0.500057
C69	C	1.143668	0.574004	0.000065
C70	C	1.643668	1.074004	0.500065
C71	C	1.145458	0.479971	0.000060
C72	C	1.645458	0.979971	0.500060
C73	C	1.064235	0.422309	0.000054
C74	C	1.564235	0.922309	0.500054
C75	C	0.981223	0.458680	0.000055
C76	C	1.481223	0.958680	0.500055
C77	C	1.228469	0.443591	0.000069
C78	C	1.728469	0.943591	0.500069
C79	C	1.230262	0.349552	0.000065
C80	C	1.730262	0.849552	0.500065
C81	C	1.149039	0.291889	0.000052
C82	C	1.649039	0.791889	0.500052
C83	C	1.066023	0.328266	0.000051
C84	C	1.566023	0.828266	0.500051
C85	C	0.984800	0.270604	0.000046
C86	C	1.484800	0.770604	0.500046
C87	C	0.901783	0.306979	0.000038
C88	C	1.401783	0.806979	0.500038
C89	C	0.899999	0.401017	0.000042
C90	C	1.399999	0.901017	0.500042
C91	C	1.150823	0.197851	0.000048
C92	C	1.650823	0.697851	0.500048
C93	C	0.986588	0.176561	0.000043
C94	C	1.486588	0.676561	0.500043
N95	N	1.065158	-0.124711	-0.237382
N96	N	1.565158	0.375289	0.262618
C97	C	1.003925	-0.185903	0.710118
C98	C	1.503925	0.314097	1.210118
C99	C	1.126381	-0.063519	0.710089
C100	C	1.626381	0.436481	1.210089
C101	C	1.126371	-0.063516	0.605071
C102	C	1.626371	0.436484	1.105071
C103	C	1.065138	-0.124709	0.552571
C104	C	1.565138	0.375291	1.052571
C105	C	1.003915	-0.185904	0.605090
C106	C	1.503915	0.314096	1.105090
C107	C	1.187598	-0.002328	0.552544
C108	C	1.687598	0.497672	1.052544
C109	C	1.187591	-0.002323	0.447520
C110	C	1.687591	0.497677	0.947520
C111	C	1.126353	-0.063512	0.395018
C112	C	1.626353	0.436488	0.895018
C113	C	1.065127	-0.124710	0.447543
C114	C	1.565127	0.375290	0.947543
C115	C	1.003895	-0.185902	0.395043
C116	C	1.503895	0.314098	0.895043
C117	C	0.942664	-0.247096	0.447567
C118	C	1.442664	0.252904	0.947567
C119	C	0.942677	-0.247093	0.552588
C120	C	1.442677	0.252907	1.052588
C121	C	1.126340	-0.063515	0.289996
C122	C	1.626340	0.436485	0.789996
C123	C	1.003884	-0.185903	0.290015
C124	C	1.503884	0.314097	0.790015
H125	H	1.319460	-0.269396	0.000068
H126	H	1.819460	0.230604	0.500068
H127	H	1.176197	-0.013696	0.247237
H128	H	1.676197	0.486304	0.747237
F129	F	1.318615	0.310847	0.000061
F130	F	1.818615	0.810847	0.500061
H131	H	1.358080	0.028572	0.000048
H132	H	1.858080	0.528572	0.500048
H133	H	1.449861	-0.354190	0.000059
H134	H	1.949861	0.145810	0.500059
H135	H	1.620484	-0.357431	0.000061
H136	H	2.120484	0.142569	0.500061
H137	H	1.176239	-0.013702	0.752838
H138	H	1.676239	0.486298	1.252838
H139	H	0.892826	-0.296916	0.595359
H140	H	1.392826	0.203084	1.095359
H141	H	0.892811	-0.296924	0.404809
H142	H	1.392811	0.203076	0.904809
H143	H	0.954070	-0.235724	0.752885
H144	H	1.454070	0.264276	1.252885
F145	F	1.252769	0.062790	0.608418
F146	F	1.752769	0.562790	1.108418
F147	F	1.239169	0.159141	0.000073
F148	F	1.739169	0.659141	0.500073
F149	F	0.900137	0.115200	0.000030
F150	F	1.400137	0.615200	0.500030
H151	H	1.772186	-0.277997	0.000055
H152	H	2.272186	0.222003	0.500055
H153	H	1.810799	0.019954	0.000035
H154	H	2.310799	0.519954	0.500035
F155	F	1.252755	0.062805	0.391628
F156	F	1.752755	0.562805	0.891628
H157	H	0.954018	-0.235731	0.247276
H158	H	1.454018	0.264269	0.747276
H159	H	1.209795	0.620958	0.000078
H160	H	1.709795	1.120958	0.500078
H161	H	1.680388	0.104754	0.000034
H162	H	2.180388	0.604754	0.500034
H163	H	0.835652	0.260019	0.000041
H164	H	1.335652	0.760019	0.500041
H165	H	1.509786	0.108018	0.000043
H166	H	2.009786	0.608018	0.500043
H167	H	0.911844	0.582344	0.000047
H168	H	1.411844	1.082344	0.500047
F169	F	0.811654	0.439737	0.000030
F170	F	1.311654	0.939737	0.500030
H171	H	1.294596	0.490546	0.000083
H172	H	1.794596	0.990546	0.500083
