data_functionalizedCrystal
_audit_creation_method	'MofGen! by Chris Wilmer'
_symmetry_space_group_name_H-M	'P1'
_symmetry_Int_Tables_number	1
_symmetry_cell_setting	triclinic
loop_
_symmetry_equiv_pos_as_xyz
  x,y,z
_cell_length_a	16.625547
_cell_length_b	21.295417
_cell_length_c	16.625527
_cell_angle_alpha	89.910215
_cell_angle_beta	89.935872
_cell_angle_gamma	90.029639
loop_
_atom_site_label
_atom_site_type_symbol
_atom_site_fract_x
_atom_site_fract_y
_atom_site_fract_z
Zn1	Zn	1.232953	-0.250252	-0.455979
Zn2	Zn	1.732953	0.249748	0.044021
Zn3	Zn	1.232747	-0.355631	-0.321137
Zn4	Zn	1.732747	0.144369	0.178863
Zn5	Zn	1.098022	-0.250379	-0.321150
Zn6	Zn	1.598022	0.249621	0.178850
Zn7	Zn	1.098068	-0.355487	-0.455917
Zn8	Zn	1.598068	0.144513	0.044083
O9	O	1.165448	-0.302937	-0.388546
O10	O	1.665448	0.197063	0.111454
O11	O	1.345758	-0.264238	-0.438113
O12	O	1.845758	0.235762	0.061887
O13	O	1.214770	-0.341783	-0.208306
O14	O	1.714770	0.158217	0.291694
O15	O	1.115988	-0.162273	-0.339066
O16	O	1.615988	0.337727	0.160934
O17	O	1.345606	-0.341659	-0.339045
O18	O	1.845606	0.158341	0.160955
O19	O	1.215121	-0.162179	-0.438125
O20	O	1.715121	0.337821	0.061875
O21	O	1.115788	-0.264455	-0.208315
O22	O	1.615788	0.235545	0.291685
O23	O	0.985196	-0.264315	-0.339006
O24	O	1.485196	0.235685	0.160994
O25	O	1.116067	-0.341414	-0.568758
O26	O	1.616067	0.158586	-0.068758
O27	O	0.985230	-0.341538	-0.438019
O28	O	1.485230	0.158462	0.061981
O29	O	1.215166	-0.264098	-0.568804
O30	O	1.715166	0.235902	-0.068804
O31	O	1.214814	-0.443701	-0.338984
O32	O	1.714814	0.056299	0.161016
O33	O	1.115866	-0.443596	-0.438007
O34	O	1.615866	0.056404	0.061993
C35	C	0.955957	-0.302925	-0.388508
C36	C	1.455957	0.197075	0.111492
C37	C	0.866336	-0.302935	-0.388510
C38	C	1.366336	0.197065	0.111490
C39	C	0.793553	-0.302936	-0.388520
C40	C	1.293553	0.197064	0.111480
C41	C	0.702245	-0.302940	-0.388541
C42	C	1.202245	0.197060	0.111459
C43	C	0.629468	-0.302945	-0.388561
C44	C	1.129468	0.197055	0.111439
C45	C	0.538154	-0.302950	-0.388580
C46	C	1.038154	0.197050	0.111420
C47	C	1.165345	-0.466489	-0.388505
C48	C	1.665345	0.033511	0.111495
C49	C	1.165375	-0.536457	-0.388514
C50	C	1.665375	-0.036457	0.111486
C51	C	1.216964	-0.569218	-0.440131
C52	C	1.716964	-0.069218	0.059869
C53	C	1.216992	-0.634960	-0.440151
C54	C	1.716992	-0.134960	0.059849
C55	C	1.165440	-0.667940	-0.388540
C56	C	1.665440	-0.167940	0.111460
C57	C	1.113841	-0.635171	-0.336919
C58	C	1.613841	-0.135171	0.163081
C59	C	1.113808	-0.569430	-0.336907
C60	C	1.613808	-0.069430	0.163093
N61	N	1.159300	-0.771258	-0.317974
N62	N	1.659300	-0.271258	0.182026
N63	N	1.159336	-0.833710	-0.317988
N64	N	1.659336	-0.333710	0.182012
C65	C	1.165534	-0.866014	-0.388576
C66	C	1.665534	-0.366014	0.111424
N67	N	1.171711	-0.833508	-0.459151
N68	N	1.671711	-0.333508	0.040849
N69	N	1.171679	-0.771051	-0.459136
N70	N	1.671679	-0.271051	0.040864
C71	C	1.165469	-0.739225	-0.388548
C72	C	1.665469	-0.239225	0.111452
C73	C	1.217157	-0.970060	-0.440219
C74	C	1.717157	-0.470060	0.059781
C75	C	1.217180	-1.035804	-0.440240
C76	C	1.717180	-0.535804	0.059760
C77	C	1.114033	-1.036014	-0.337001
C78	C	1.614033	-0.536014	0.162999
C79	C	1.114006	-0.970271	-0.336987
C80	C	1.614006	-0.470271	0.163013
C81	C	1.165572	-0.937299	-0.388595
C82	C	1.665572	-0.437299	0.111405
C83	C	1.375756	-0.302950	-0.388584
C84	C	1.875756	0.197050	0.111416
C85	C	1.465378	-0.302955	-0.388601
C86	C	1.965378	0.197045	0.111399
C87	C	1.165644	-0.302726	-0.598855
C88	C	1.665644	0.197274	-0.098855
C89	C	1.165728	-0.302636	-0.688477
C90	C	1.665728	0.197364	-0.188477
C91	C	1.165573	-0.138747	-0.388604
C92	C	1.665573	0.361253	0.111396
C93	C	1.165626	-0.068779	-0.388629
C94	C	1.665626	0.431221	0.111371
C95	C	1.165298	-0.303103	-0.179054
C96	C	1.665298	0.196897	0.320946
C97	C	1.165370	-0.303016	-0.089434
C98	C	1.665370	0.196984	0.410566
C99	C	1.165670	-0.302707	0.238741
C100	C	1.665670	0.197293	0.738741
C101	C	1.165589	-0.302795	0.147433
C102	C	1.665589	0.197205	0.647433
C103	C	1.165520	-0.302862	0.074657
C104	C	1.665520	0.197138	0.574657
C105	C	1.165439	-0.302949	-0.016657
C106	C	1.665439	0.197051	0.483343
H107	H	1.258950	-0.542373	-0.482155
H108	H	1.758950	-0.042373	0.017845
H109	H	1.071865	-0.662027	-0.294899
H110	H	1.571865	-0.162027	0.205101
H111	H	1.259143	-0.943213	-0.482244
H112	H	1.759143	-0.443213	0.017756
H113	H	1.071797	-0.542755	-0.294873
H114	H	1.571797	-0.042755	0.205127
H115	H	1.259189	-1.062477	-0.482276
H116	H	1.759189	-0.562477	0.017724
H117	H	1.258995	-0.661639	-0.482193
H118	H	1.758995	-0.161639	0.017807
H119	H	1.072053	-1.062865	-0.294983
H120	H	1.572053	-0.562865	0.205017
H121	H	1.072000	-0.943596	-0.294952
H122	H	1.572000	-0.443596	0.205048
