data_functionalizedCrystal
_audit_creation_method	'MofGen! by Chris Wilmer'
_symmetry_space_group_name_H-M	'P1'
_symmetry_Int_Tables_number	1
_symmetry_cell_setting	triclinic
loop_
_symmetry_equiv_pos_as_xyz
  x,y,z
_cell_length_a	10.686220
_cell_length_b	16.120484
_cell_length_c	10.685986
_cell_angle_alpha	88.260869
_cell_angle_beta	99.031303
_cell_angle_gamma	97.070967
loop_
_atom_site_label
_atom_site_type_symbol
_atom_site_fract_x
_atom_site_fract_y
_atom_site_fract_z
Zn1	Zn	1.868237	-0.207318	-0.586231
Zn2	Zn	2.368237	0.292682	-0.086231
Zn3	Zn	1.871914	-0.356704	-0.386391
Zn4	Zn	2.371914	0.143296	0.113609
Zn5	Zn	1.670575	-0.227247	-0.391915
Zn6	Zn	2.170575	0.272753	0.108085
Zn7	Zn	1.643516	-0.356645	-0.614830
Zn8	Zn	2.143516	0.143355	-0.114830
O9	O	1.763560	-0.286978	-0.494842
O10	O	2.263560	0.213022	0.005158
O11	O	2.047032	-0.218819	-0.545441
O12	O	2.547032	0.281181	-0.045441
O13	O	1.858069	-0.347896	-0.210199
O14	O	2.358069	0.152104	0.289801
O15	O	1.706581	-0.107931	-0.408034
O16	O	2.206581	0.392069	0.091966
O17	O	2.049733	-0.328572	-0.398620
O18	O	2.549733	0.171428	0.101380
O19	O	1.851802	-0.093290	-0.550797
O20	O	2.351802	0.406710	-0.050797
O21	O	1.710146	-0.252785	-0.214258
O22	O	2.210146	0.247215	0.285742
O23	O	1.488678	-0.252727	-0.435766
O24	O	1.988678	0.247273	0.064234
O25	O	1.660462	-0.328471	-0.787961
O26	O	2.160462	0.171529	-0.287961
O27	O	1.468798	-0.347795	-0.599541
O28	O	1.968798	0.152205	-0.099541
O29	O	1.825564	-0.218762	-0.766950
O30	O	2.325564	0.281238	-0.266950
O31	O	1.831831	-0.473368	-0.426351
O32	O	2.331831	0.026632	0.073649
O33	O	1.664028	-0.473325	-0.594185
O34	O	2.164028	0.026675	-0.094185
C35	C	1.432505	-0.302418	-0.521357
C36	C	1.932505	0.197582	-0.021357
C37	C	1.290874	-0.309042	-0.532732
C38	C	1.790874	0.190958	-0.032732
C39	C	1.745424	-0.503595	-0.512797
C40	C	2.245424	-0.003595	-0.012797
C41	C	1.737779	-0.596257	-0.520511
C42	C	2.237779	-0.096257	-0.020511
C43	C	1.723827	-0.765911	-0.534620
C44	C	2.223827	-0.265911	-0.034620
C45	C	1.803521	-0.807194	-0.455066
C46	C	2.303521	-0.307194	0.044934
C47	C	1.795758	-0.901595	-0.462916
C48	C	2.295758	-0.401595	0.037084
C49	C	1.731588	-0.671501	-0.526772
C50	C	2.231588	-0.171501	-0.026772
C51	C	2.095909	-0.271479	-0.468224
C52	C	2.595909	0.228521	0.031776
C53	C	2.237536	-0.264874	-0.456881
C54	C	2.737536	0.235126	0.043119
C55	C	1.739585	-0.271387	-0.824613
C56	C	2.239585	0.228613	-0.324613
C57	C	1.729368	-0.264743	-0.965141
C58	C	2.229368	0.235257	-0.465141
C59	C	1.781800	-0.069513	-0.476842
C60	C	2.281800	0.430487	0.023158
C61	C	1.789572	0.023158	-0.469171
C62	C	2.289572	0.523158	0.030829
C63	C	1.787521	-0.302446	-0.166343
C64	C	2.287521	0.197554	0.333657
C65	C	1.798005	-0.308844	-0.025776
C66	C	2.298005	0.191156	0.474224
H67	H	1.300222	-0.221994	-0.383240
H68	H	1.800222	0.278006	0.116760
H69	H	1.228180	-0.351930	-0.606371
H70	H	1.728180	0.148070	-0.106371
F71	F	1.900319	-0.760726	-0.358332
F72	F	2.400319	-0.260726	0.141668
F73	F	1.627031	-0.812379	-0.631342
F74	F	2.127031	-0.312379	-0.131342
F75	F	1.885037	-0.364830	-0.953108
F76	F	2.385037	0.135170	-0.453108
F77	F	1.642344	-0.208744	-1.037813
F78	F	2.142344	0.291256	-0.537813
