data_functionalizedCrystal
_audit_creation_method	'MofGen! by Chris Wilmer'
_symmetry_space_group_name_H-M	'P1'
_symmetry_Int_Tables_number	1
_symmetry_cell_setting	triclinic
loop_
_symmetry_equiv_pos_as_xyz
  x,y,z
_cell_length_a	8.597226
_cell_length_b	10.268362
_cell_length_c	11.792254
_cell_angle_alpha	89.994545
_cell_angle_beta	84.768959
_cell_angle_gamma	82.291947
loop_
_atom_site_label
_atom_site_type_symbol
_atom_site_fract_x
_atom_site_fract_y
_atom_site_fract_z
O1	O	-2.083926	0.342183	-0.169457
O2	O	-1.750593	0.675517	0.163876
O3	O	-1.417259	1.008850	0.497210
O4	O	-1.627096	0.290915	-0.182445
O5	O	-1.293762	0.624249	0.150888
O6	O	-0.960429	0.957582	0.484222
O7	O	-1.866586	0.317783	-0.010855
O8	O	-1.533253	0.651116	0.322478
O9	O	-1.199920	0.984450	0.655811
O10	O	-1.844435	0.315316	-0.341047
O11	O	-1.511102	0.648649	-0.007713
O12	O	-1.177768	0.981982	0.325620
O13	O	-1.866565	0.101180	-0.010848
O14	O	-1.533232	0.434513	0.322485
O15	O	-1.199899	0.767847	0.655819
O16	O	-1.627075	0.074312	-0.182438
O17	O	-1.293741	0.407646	0.150896
O18	O	-0.960408	0.740979	0.484229
O19	O	-2.083905	0.125580	-0.169450
O20	O	-1.750572	0.458914	0.163884
O21	O	-1.417238	0.792247	0.497217
Cu22	Cu	-1.855488	0.080169	-0.175943
Cu23	Cu	-1.522155	0.413502	0.157390
Cu24	Cu	-1.188821	0.746835	0.490724
Cu25	Cu	-1.855513	0.336327	-0.175952
Cu26	Cu	-1.522179	0.669660	0.157382
Cu27	Cu	-1.188846	1.002994	0.490715
O28	O	-1.844414	0.098713	-0.341039
O29	O	-1.511081	0.432046	-0.007706
O30	O	-1.177747	0.765379	0.325627
C31	C	-1.568601	0.176050	-0.181045
C32	C	-1.235267	0.509384	0.152289
C33	C	-0.901934	0.842717	0.485622
C34	C	-1.394335	0.156493	-0.176869
C35	C	-1.061002	0.489826	0.156465
C36	C	-0.727668	0.823160	0.489798
N37	N	-1.855482	-0.099998	-0.175936
N38	N	-1.522149	0.233336	0.157397
N39	N	-1.188815	0.566669	0.490730
C40	C	-1.855505	-0.365666	-0.175949
C41	C	-1.522171	-0.032332	0.157384
C42	C	-1.188838	0.301001	0.490717
C43	C	-1.855487	-0.217830	-0.175945
C44	C	-1.522154	0.115503	0.157388
C45	C	-1.188820	0.448837	0.490721
C46	C	-1.142400	0.240442	-0.170847
C47	C	-0.809067	0.573775	0.162486
C48	C	-0.475734	0.907109	0.495819
C49	C	-1.316668	0.259989	-0.175015
C50	C	-0.983334	0.593323	0.158319
C51	C	-0.650001	0.926656	0.491652
C52	C	-1.865181	0.209325	0.031448
C53	C	-1.531847	0.542659	0.364782
C54	C	-1.198514	0.875992	0.698115
C55	C	-1.861004	0.208858	0.157489
C56	C	-1.527671	0.542191	0.490823
C57	C	-1.194337	0.875525	0.824156
N58	N	-1.855531	0.516495	-0.175950
N59	N	-1.522198	0.849828	0.157384
N60	N	-1.188864	1.183161	0.490717
C61	C	-1.845820	0.207173	-0.383343
C62	C	-1.512487	0.540506	-0.050010
C63	C	-1.179153	0.873840	0.283324
C64	C	-1.849997	0.207649	-0.509384
C65	C	-1.516663	0.540983	-0.176051
C66	C	-1.183330	0.874316	0.157283
C67	C	-1.857611	0.208482	0.259848
C68	C	-1.524277	0.541815	0.593182
C69	C	-1.190944	0.875148	0.926515
C70	C	-1.853367	0.208017	0.388263
C71	C	-1.520034	0.541351	0.721597
C72	C	-1.186700	0.874684	1.054930
H73	H	-1.327509	0.052931	-0.175274
H74	H	-0.994176	0.386264	0.158060
H75	H	-0.660842	0.719597	0.491393
H76	H	-1.383499	0.363558	-0.176623
H77	H	-1.050166	0.696892	0.156710
H78	H	-0.716832	1.030225	0.490044
