data_functionalizedCrystal
_audit_creation_method	'MofGen! by Chris Wilmer'
_symmetry_space_group_name_H-M	'P1'
_symmetry_Int_Tables_number	1
_symmetry_cell_setting	triclinic
loop_
_symmetry_equiv_pos_as_xyz
  x,y,z
_cell_length_a	25.639243
_cell_length_b	13.897448
_cell_length_c	13.897441
_cell_angle_alpha	90.030599
_cell_angle_beta	89.975549
_cell_angle_gamma	89.979584
loop_
_atom_site_label
_atom_site_type_symbol
_atom_site_fract_x
_atom_site_fract_y
_atom_site_fract_z
Zn1	Zn	0.799345	0.383914	-0.545477
Zn2	Zn	0.799288	0.545236	-0.384178
Zn3	Zn	0.711909	0.383964	-0.384185
Zn4	Zn	0.711899	0.545176	-0.545420
O5	O	0.755610	0.464572	-0.464815
O6	O	0.872503	0.405318	-0.524101
O7	O	0.787677	0.523888	-0.249197
O8	O	0.723535	0.248976	-0.405607
O9	O	0.872461	0.523840	-0.405596
O10	O	0.787775	0.248939	-0.524108
O11	O	0.723480	0.405403	-0.249202
O12	O	0.638742	0.405345	-0.405552
O13	O	0.723519	0.523739	-0.680410
O14	O	0.638735	0.523787	-0.524011
O15	O	0.787765	0.405260	-0.680451
O16	O	0.787667	0.680209	-0.405541
O17	O	0.723463	0.680166	-0.524005
C18	C	0.619767	0.464566	-0.464777
C19	C	0.561653	0.464586	-0.464783
C20	C	0.201307	0.402955	-0.526624
C21	C	0.146702	0.402954	-0.526630
O22	O	0.118480	0.350535	-0.579161
N23	N	0.119371	0.464570	-0.464842
C24	C	0.146647	0.526183	-0.403037
O25	O	0.118385	0.578591	-0.350481
C26	C	0.201250	0.526178	-0.403026
C27	C	0.228579	0.464566	-0.464826
C28	C	0.228636	0.341346	-0.588417
C29	C	0.283236	0.341349	-0.588412
C30	C	0.310508	0.402960	-0.526614
C31	C	0.283179	0.464568	-0.464821
C32	C	0.228525	0.587786	-0.341217
C33	C	0.283132	0.587776	-0.341212
C34	C	0.310460	0.526163	-0.403011
C35	C	0.365051	0.526181	-0.403017
N36	N	0.392383	0.464566	-0.464805
C37	C	0.365111	0.402955	-0.526604
C38	C	0.031976	0.526187	-0.403061
C39	C	-0.022626	0.526198	-0.403076
C40	C	-0.022567	0.402967	-0.526668
C41	C	0.032037	0.402962	-0.526658
C42	C	0.059307	0.464572	-0.464849
C43	C	0.479776	0.402965	-0.526589
C44	C	0.534382	0.402976	-0.526582
C45	C	0.534317	0.526202	-0.402986
C46	C	0.479717	0.526196	-0.402997
C47	C	0.452447	0.464569	-0.464802
O48	O	0.393309	0.578571	-0.350510
O49	O	0.393379	0.350546	-0.579142
C50	C	0.755572	0.715187	-0.464787
C51	C	0.755603	0.822401	-0.464807
C52	C	0.755647	0.464487	-0.716408
C53	C	0.755663	0.464451	-0.823622
C54	C	0.891983	0.464580	-0.464854
C55	C	0.950097	0.464583	-0.464871
C56	C	0.755663	0.212979	-0.464864
C57	C	0.755685	0.105766	-0.464885
C58	C	0.755658	1.018696	-0.464868
C59	C	0.755626	0.909463	-0.464837
C60	C	0.755677	0.464386	-1.019918
C61	C	0.755668	0.464425	-0.910685
C62	C	0.755603	0.464588	-0.214201
C63	C	0.755689	0.464352	-0.106987
H64	H	0.556630	0.352802	-0.576909
C65	C	0.485145	0.648008	-0.280836
C66	C	0.449674	0.593927	-0.335075
H67	H	0.466600	0.689815	-0.238896
H68	H	0.506442	0.684955	-0.322799
H69	H	0.506445	0.605929	-0.244015
H70	H	0.428377	0.636007	-0.371901
H71	H	0.428368	0.556978	-0.293106
H72	H	0.457580	0.352780	-0.576914
C73	C	0.167106	0.717541	-0.327565
C74	C	0.198497	0.655515	-0.273281
H75	H	0.148573	0.759360	-0.285619
H76	H	0.143043	0.680859	-0.364355
H77	H	0.188417	0.754481	-0.369525
H78	H	0.177186	0.618569	-0.231326
H79	H	0.222563	0.692201	-0.236475
C80	C	0.093465	0.273218	-0.540284
C81	C	0.062075	0.335232	-0.594583
H82	H	0.112009	0.231406	-0.582221
H83	H	0.072157	0.236278	-0.498334
H84	H	0.117524	0.309915	-0.503483
H85	H	0.038013	0.298535	-0.631378
H86	H	0.083385	0.372176	-0.636549
C87	C	0.277793	0.219529	-0.710559
C88	C	0.313271	0.273606	-0.656330
H89	H	0.296334	0.177699	-0.752483
H90	H	0.256503	0.261603	-0.747388
H91	H	0.256488	0.182599	-0.668581
H92	H	0.334574	0.310542	-0.698308
H93	H	0.334570	0.231528	-0.619498
H94	H	-0.044781	0.352798	-0.576985
H95	H	0.206437	0.291170	-0.638741
C96	C	-0.017187	0.648003	-0.280911
C97	C	-0.052662	0.593931	-0.335150
H98	H	-0.035730	0.689812	-0.238969
H99	H	0.004112	0.684946	-0.322874
H100	H	0.004110	0.605918	-0.244092
H101	H	-0.073957	0.636015	-0.371975
H102	H	-0.073970	0.556984	-0.293182
C103	C	0.093336	0.539457	-0.273263
C104	C	0.061949	0.593927	-0.335126
H105	H	0.111835	0.581277	-0.231321
H106	H	0.117430	0.502774	-0.310055
H107	H	0.072027	0.497388	-0.236447
H108	H	0.083259	0.635991	-0.371948
H109	H	0.037853	0.630626	-0.298331
H110	H	0.305333	0.637946	-0.290878
H111	H	0.556532	0.576366	-0.352674
