data_functionalizedCrystal
_audit_creation_method	'MofGen! by Chris Wilmer'
_symmetry_space_group_name_H-M	'P1'
_symmetry_Int_Tables_number	1
_symmetry_cell_setting	triclinic
loop_
_symmetry_equiv_pos_as_xyz
  x,y,z
_cell_length_a	15.297475
_cell_length_b	19.121063
_cell_length_c	15.298259
_cell_angle_alpha	82.282989
_cell_angle_beta	88.370891
_cell_angle_gamma	83.156694
loop_
_atom_site_label
_atom_site_type_symbol
_atom_site_fract_x
_atom_site_fract_y
_atom_site_fract_z
Zn1	Zn	1.231887	-0.345844	-0.741846
Zn2	Zn	1.248464	-0.484465	-0.601430
Zn3	Zn	1.110319	-0.352579	-0.570365
Zn4	Zn	1.079144	-0.445477	-0.720860
O5	O	1.167454	-0.407091	-0.658625
O6	O	1.355823	-0.377731	-0.745003
O7	O	1.250122	-0.486105	-0.475562
O8	O	1.132555	-0.254794	-0.588895
O9	O	1.368002	-0.479575	-0.641840
O10	O	1.221870	-0.249846	-0.714881
O11	O	1.148628	-0.389209	-0.452739
O12	O	0.984446	-0.351404	-0.568545
O13	O	1.079422	-0.413126	-0.845390
O14	O	0.961542	-0.419656	-0.679113
O15	O	1.191641	-0.339926	-0.860809
O16	O	1.219893	-0.576185	-0.621490
O17	O	1.095495	-0.547541	-0.709235
C18	C	0.941429	-0.382031	-0.618181
C19	C	0.844731	-0.371323	-0.600900
C20	C	0.524590	-0.483625	-0.782136
C21	C	0.615443	-0.493691	-0.798370
C22	C	0.672769	-0.463100	-0.749004
C23	C	0.639234	-0.422441	-0.683401
C24	C	0.548372	-0.412379	-0.667161
C25	C	0.696551	-0.391854	-0.634029
C26	C	0.663016	-0.351195	-0.568426
C27	C	0.572163	-0.341134	-0.552190
C28	C	0.514837	-0.371725	-0.601555
C29	C	0.787413	-0.401916	-0.650269
C30	C	0.811195	-0.330670	-0.535295
C31	C	0.720342	-0.320604	-0.519061
C32	C	1.156131	-0.586985	-0.666479
C33	C	1.151362	-0.663949	-0.669883
C34	C	1.213924	-0.714994	-0.625852
C35	C	1.209443	-0.787309	-0.629058
C36	C	1.142395	-0.808577	-0.676292
C37	C	1.079830	-0.757525	-0.720328
C38	C	1.084315	-0.685212	-0.717126
C39	C	1.125613	-1.026170	-0.688248
C40	C	1.121131	-1.098490	-0.691445
C41	C	1.250746	-1.128268	-0.600176
C42	C	1.255223	-1.055953	-0.596973
C43	C	1.192660	-1.004907	-0.641014
C44	C	1.137812	-0.882493	-0.679569
C45	C	1.197248	-0.930992	-0.637742
C46	C	1.394360	-0.432250	-0.699228
C47	C	1.491054	-0.442971	-0.716530
C48	C	1.130205	-0.371426	-0.885550
C49	C	1.114332	-0.356227	-0.982252
C50	C	1.178841	-0.226494	-0.650764
C51	C	1.183694	-0.149535	-0.647414
C52	C	1.280962	-0.515187	-1.302363
C53	C	1.295871	-0.529471	-1.211506
C54	C	1.250488	-0.486161	-1.154188
C55	C	1.190193	-0.428565	-1.187736
C56	C	1.175278	-0.414284	-1.278601
C57	C	1.144803	-0.385258	-1.130426
C58	C	1.084508	-0.327662	-1.163974
C59	C	1.069596	-0.313383	-1.254830
C60	C	1.114979	-0.356692	-1.312148
C61	C	1.159718	-0.399539	-1.039561
C62	C	1.054034	-0.298636	-1.015799
C63	C	1.039125	-0.284352	-1.106656
C64	C	1.204610	-0.442574	-0.432590
C65	C	1.220664	-0.457596	-0.335910
H66	H	0.693024	-0.287500	-0.465646
H67	H	1.066541	-1.115801	-0.729925
Cl68	Cl	0.829561	-0.453027	-0.732740
Cl69	Cl	1.096242	-0.338737	-1.426374
H70	H	0.440855	-0.363530	-0.588343
H71	H	1.309818	-1.038639	-0.558512
H72	H	1.208817	-0.446431	-1.012257
H73	H	1.017078	-0.263370	-0.969130
Cl74	Cl	0.786986	-0.475752	-0.769416
H75	H	0.544862	-0.308036	-0.498763
Cl76	Cl	0.883256	-0.292214	-0.473227
H77	H	1.251841	-0.913674	-0.599288
H78	H	0.642741	-0.526797	-0.851782
Cl79	Cl	1.329396	-1.192442	-0.544821
Cl80	Cl	1.053525	-0.909236	-0.738945
Cl81	Cl	1.046961	-0.962008	-0.743612
H82	H	1.025241	-0.774846	-0.758791
H83	H	1.033371	-0.643650	-0.752982
Cl84	Cl	1.298213	-0.688266	-0.566463
H85	H	1.020491	-0.266490	-1.282140
Cl86	Cl	1.269236	-0.504116	-1.039967
H87	H	1.344954	-0.576371	-1.184197
Cl88	Cl	0.963327	-0.211950	-1.148841
Cl89	Cl	1.337998	-0.569632	-1.374420
H90	H	1.260388	-0.828868	-0.593203
Cl91	Cl	0.452523	-0.522095	-0.844169
