data_functionalizedCrystal
_audit_creation_method	'MofGen! by Chris Wilmer'
_symmetry_space_group_name_H-M	'P1'
_symmetry_Int_Tables_number	1
_symmetry_cell_setting	triclinic
loop_
_symmetry_equiv_pos_as_xyz
  x,y,z
_cell_length_a	12.759401
_cell_length_b	18.050590
_cell_length_c	12.759393
_cell_angle_alpha	90.038435
_cell_angle_beta	90.022497
_cell_angle_gamma	90.023314
loop_
_atom_site_label
_atom_site_type_symbol
_atom_site_fract_x
_atom_site_fract_y
_atom_site_fract_z
Zn1	Zn	-1.606209	0.295607	-0.594006
Zn2	Zn	-1.606077	0.419815	-0.418302
Zn3	Zn	-1.430508	0.295645	-0.418336
Zn4	Zn	-1.430476	0.419762	-0.593934
O5	O	-1.518318	0.357707	-0.506144
O6	O	-1.753213	0.312090	-0.570714
O7	O	-1.582745	0.403382	-0.271285
O8	O	-1.453884	0.191716	-0.441684
O9	O	-1.753115	0.403345	-0.441625
O10	O	-1.582971	0.191688	-0.570747
O11	O	-1.453756	0.312155	-0.271311
O12	O	-1.283483	0.312103	-0.441614
O13	O	-1.453830	0.403254	-0.740965
O14	O	-1.283459	0.403291	-0.570625
O15	O	-1.582940	0.312038	-0.741017
O16	O	-1.582714	0.523733	-0.441555
O17	O	-1.453701	0.523693	-0.570592
C18	C	-1.245350	0.357696	-0.506116
C19	C	-1.128574	0.357709	-0.506129
C20	C	-1.073727	0.405262	-0.573198
C21	C	-0.964003	0.405264	-0.573216
C22	C	-0.963982	0.310157	-0.439087
C23	C	-1.073704	0.310152	-0.439075
C24	C	-0.814102	0.431911	-0.697067
C25	C	-0.759251	0.479475	-0.764126
C26	C	-0.794835	0.551952	-0.780061
C27	C	-0.885268	0.576878	-0.728921
C28	C	-0.940112	0.529317	-0.661853
C29	C	-0.904530	0.456830	-0.645939
C30	C	-1.223607	0.283513	-0.315222
C31	C	-1.278454	0.235956	-0.248149
C32	C	-1.242872	0.163478	-0.232204
C33	C	-1.152436	0.138555	-0.283326
C34	C	-1.097589	0.186112	-0.350399
C35	C	-1.133179	0.258589	-0.366346
C36	C	-1.518218	0.550659	-0.506085
C37	C	-1.518272	0.633205	-0.506094
C38	C	-1.518396	0.357636	-0.780178
C39	C	-1.518430	0.357606	-0.896955
C40	C	-0.792351	0.357717	-0.506167
C41	C	-0.909128	0.357716	-0.506159
C42	C	-1.588555	0.832650	-0.436004
C43	C	-1.614220	0.881975	-0.531887
C44	C	-1.518317	0.784336	-0.506122
C45	C	-1.492745	0.882092	-0.410268
C46	C	-1.518362	0.930321	-0.506141
C47	C	-1.544030	0.832573	-0.602056
C48	C	-1.422511	0.832686	-0.480373
C49	C	-1.448139	0.881989	-0.576322
C50	C	-1.518293	0.700237	-0.506110
C51	C	-1.518385	1.014417	-0.506163
C52	C	-1.518422	1.164002	-0.506204
C53	C	-1.518404	1.081456	-0.506170
C54	C	-1.585663	0.310102	-0.951846
C55	C	-1.585680	0.310070	-1.061570
C56	C	-1.451230	0.405052	-1.061502
C57	C	-1.451207	0.405079	-0.951780
C58	C	-1.623309	0.222449	-1.211566
C59	C	-1.690559	0.174952	-1.266461
C60	C	-1.793074	0.163565	-1.230875
C61	C	-1.828360	0.199686	-1.140395
C62	C	-1.761116	0.247188	-1.085506
C63	C	-1.658587	0.258561	-1.121091
C64	C	-1.413589	0.492701	-0.801782
C65	C	-1.346350	0.540208	-0.746891
C66	C	-1.243833	0.551603	-0.782475
C67	C	-1.208550	0.515495	-0.872958
C68	C	-1.275790	0.467988	-0.927849
C69	C	-1.378305	0.456592	-0.892257
C70	C	-1.518300	0.357725	-0.233177
C71	C	-1.518470	0.357546	-0.116401
H72	H	-0.685622	0.459174	-0.805766
H73	H	-1.013740	0.549611	-0.620215
O74	O	-1.241591	0.432791	-1.015678
C75	C	-1.247972	0.355515	-1.000951
H76	H	-1.308409	0.342773	-0.937695
H77	H	-1.168197	0.333372	-0.975724
C78	C	-1.206837	0.333874	-1.182080
C79	C	-1.281073	0.318224	-1.104395
H80	H	-1.227250	0.310870	-1.245889
H81	H	-1.202533	0.385937	-1.192002
H82	H	-1.140363	0.315422	-1.161044
H83	H	-1.347542	0.336685	-1.125425
H84	H	-1.285389	0.266164	-1.094479
H85	H	-1.695260	0.903628	-0.553681
H86	H	-1.388760	0.903516	-0.635695
H87	H	-1.497065	0.483422	-0.772795
O88	O	-1.325891	0.806863	-0.454159
C89	C	-1.299196	0.832067	-0.352994
H90	H	-1.373674	0.845931	-0.307737
H91	H	-1.248238	0.883747	-0.359584
C92	C	-1.146788	0.754031	-0.350302
C93	C	-1.238264	0.771053	-0.294714
H94	H	-1.109198	0.716397	-0.314354
H95	H	-1.164770	0.737052	-0.418461
H96	H	-1.104336	0.797103	-0.355791
H97	H	-1.280720	0.727984	-0.289238
H98	H	-1.220287	0.788023	-0.226553
O99	O	-1.386037	0.451145	-1.114924
C100	C	-1.400455	0.440923	-1.223539
H101	H	-1.481555	0.416603	-1.238551
H102	H	-1.338172	0.401363	-1.254683
C103	C	-1.291176	0.545921	-1.261397
C104	C	-1.390788	0.516056	-1.279836
H105	H	-1.285209	0.592266	-1.296126
H106	H	-1.281459	0.552807	-1.188222
H107	H	-1.239284	0.512947	-1.287351
H108	H	-1.442677	0.549026	-1.253871
H109	H	-1.400514	0.509178	-1.353009
O110	O	-0.919710	0.647298	-0.744545
C111	C	-0.851896	0.683937	-0.814685
H112	H	-0.808648	0.641266	-0.864365
H113	H	-0.792719	0.718270	-0.768535
C114	C	-0.969299	0.787635	-0.825516
C115	C	-0.916187	0.735225	-0.886540
H116	H	-1.008955	0.819274	-0.869837
H117	H	-1.014985	0.762952	-0.778258
H118	H	-0.919975	0.816238	-0.787062
H119	H	-0.965512	0.706617	-0.924983
H120	H	-0.870511	0.759904	-0.933806
H121	H	-1.565597	0.810915	-0.683195
H122	H	-1.640397	0.271444	-0.907210
O123	O	-1.467034	0.907952	-0.313476
C124	C	-1.541290	0.882828	-0.239802
H125	H	-1.581276	0.830792	-0.270961
H126	H	-1.602499	0.927796	-0.226125
C127	C	-1.436590	0.928843	-0.097440
C128	C	-1.485697	0.864927	-0.135706
H129	H	-1.402300	0.917804	-0.033227
H130	H	-1.386564	0.945772	-0.147075
H131	H	-1.487607	0.966310	-0.086051
H132	H	-1.434679	0.827465	-0.147107
H133	H	-1.535713	0.847991	-0.086071
H134	H	-1.352091	0.256255	-0.206522
H135	H	-1.789848	0.276600	-1.011842
H136	H	-0.750168	0.590679	-0.834664
H137	H	-1.911842	0.190416	-1.111434
O138	O	-1.659297	0.806764	-0.365222
C139	C	-1.607132	0.763852	-0.289075
H140	H	-1.521085	0.780719	-0.285759
H141	H	-1.613288	0.702707	-0.310664
C142	C	-1.763755	0.756070	-0.185287
C143	C	-1.658072	0.776792	-0.181207
H144	H	-1.795179	0.764049	-0.118749
H145	H	-1.798901	0.784979	-0.236590
H146	H	-1.768870	0.705118	-0.203282
H147	H	-1.652959	0.827745	-0.163225
H148	H	-1.622926	0.747892	-0.129898
O149	O	-1.109032	0.526636	-0.907676
C150	C	-1.111910	0.556553	-1.009684
H151	H	-1.190533	0.585014	-1.023003
H152	H	-1.101565	0.510183	-1.069493
C153	C	-0.926258	0.578470	-1.005966
C154	C	-1.022820	0.613432	-1.022322
H155	H	-0.871300	0.613553	-1.013765
H156	H	-0.924317	0.558312	-0.937243
H157	H	-0.917652	0.539829	-1.055809
H158	H	-1.031430	0.652065	-0.972471
H159	H	-1.024760	0.633597	-1.091037
H160	H	-1.375090	0.569616	-0.673221
H161	H	-1.118399	0.443984	-0.627800
O162	O	-0.779688	0.361455	-0.681705
C163	C	-0.857956	0.311029	-0.713414
H164	H	-0.912336	0.339020	-0.772192
H165	H	-0.905082	0.292590	-0.642155
C166	C	-0.739543	0.208666	-0.692717
C167	C	-0.806328	0.243043	-0.764917
H168	H	-0.707698	0.166727	-0.724482
H169	H	-0.686813	0.242638	-0.671350
H170	H	-0.778825	0.193306	-0.633340
H171	H	-0.767043	0.258410	-0.824285
H172	H	-0.859050	0.209073	-0.786295
H173	H	-0.919294	0.271439	-0.384492
H174	H	-1.023957	0.165811	-0.392032
H175	H	-1.123453	0.079542	-0.270326
H176	H	-1.847828	0.124891	-1.275578
O177	O	-1.178639	0.597755	-0.729007
C178	C	-1.231769	0.627207	-0.641535
H179	H	-1.299166	0.588899	-0.619101
H180	H	-1.264030	0.684293	-0.661948
C181	C	-1.072405	0.681063	-0.576269
C182	C	-1.155178	0.634009	-0.548710
H183	H	-1.025160	0.685262	-0.519011
H184	H	-1.036610	0.661223	-0.635202
H185	H	-1.099302	0.728629	-0.593281
H186	H	-1.128281	0.586441	-0.531711
H187	H	-1.190967	0.653841	-0.489771
H188	H	-1.287534	0.124760	-0.177578
H189	H	-1.252593	0.342529	-0.328209
H190	H	-1.661819	0.145543	-1.340130
H191	H	-1.539831	0.231711	-1.240544
