data_functionalizedCrystal
_audit_creation_method	'MofGen! by Chris Wilmer'
_symmetry_space_group_name_H-M	'P1'
_symmetry_Int_Tables_number	1
_symmetry_cell_setting	triclinic
loop_
_symmetry_equiv_pos_as_xyz
  x,y,z
_cell_length_a	17.699097
_cell_length_b	19.188924
_cell_length_c	16.776229
_cell_angle_alpha	89.991276
_cell_angle_beta	89.989262
_cell_angle_gamma	83.215197
loop_
_atom_site_label
_atom_site_type_symbol
_atom_site_fract_x
_atom_site_fract_y
_atom_site_fract_z
O1	O	1.003953	0.088339	-0.066358
O2	O	1.503953	0.588339	0.433642
O3	O	0.783561	0.099816	-0.066346
O4	O	1.283561	0.599816	0.433654
O5	O	0.900120	-0.007571	-0.066343
O6	O	1.400120	0.492429	0.433657
O7	O	0.887394	0.195726	-0.066361
O8	O	1.387394	0.695726	0.433639
O9	O	0.900105	-0.007578	0.066234
O10	O	1.400105	0.492422	0.566234
O11	O	0.783546	0.099810	0.066231
O12	O	1.283546	0.599810	0.566231
O13	O	1.003938	0.088332	0.066218
O14	O	1.503938	0.588332	0.566218
Zn15	Zn	0.893739	0.094070	0.087274
Zn16	Zn	1.393739	0.594070	0.587274
Zn17	Zn	0.893760	0.094079	-0.087401
Zn18	Zn	1.393760	0.594079	0.412599
O19	O	0.887379	0.195720	0.066216
O20	O	1.387379	0.695720	0.566216
C21	C	0.755357	0.099400	-0.000056
C22	C	1.255357	0.599400	0.499944
C23	C	0.671341	0.098162	-0.000051
C24	C	1.171341	0.598162	0.499949
C25	C	0.899701	-0.033586	-0.000054
C26	C	1.399701	0.466414	0.499946
C27	C	0.898467	-0.111092	-0.000052
C28	C	1.398467	0.388908	0.499948
C29	C	0.155642	0.090574	-0.072350
C30	C	0.655642	0.590574	0.427650
C31	C	0.234584	0.091733	-0.072346
C32	C	0.734584	0.591733	0.427654
C33	C	0.274041	0.092310	-0.000075
C34	C	0.774041	0.592310	0.499925
C35	C	0.234552	0.091721	0.072197
C36	C	0.734552	0.591721	0.572197
C37	C	0.155612	0.090557	0.072192
C38	C	0.655612	0.590557	0.572192
C39	C	0.552910	0.096414	0.072217
C40	C	1.052910	0.596414	0.572217
C41	C	0.631855	0.097580	0.072216
C42	C	1.131855	0.597580	0.572216
C43	C	0.631882	0.097590	-0.072320
C44	C	1.131882	0.597590	0.427680
C45	C	0.552942	0.096426	-0.072325
C46	C	1.052942	0.596426	0.427675
C47	C	0.513460	0.095833	-0.000054
C48	C	1.013460	0.595833	0.499946
C49	C	0.427862	0.094575	-0.000059
C50	C	0.927862	0.594575	0.499941
C51	C	0.359637	0.093573	-0.000069
C52	C	0.859637	0.593573	0.499931
C53	C	0.897899	-0.147488	-0.072319
C54	C	1.397899	0.352512	0.427681
C55	C	0.896728	-0.220312	-0.072325
C56	C	1.396728	0.279688	0.427675
C57	C	0.896141	-0.256739	-0.000059
C58	C	1.396141	0.243261	0.499941
C59	C	0.896704	-0.220334	0.072218
C60	C	1.396704	0.279666	0.572218
C61	C	0.897867	-0.147510	0.072222
C62	C	1.397867	0.352490	0.572222
N63	N	0.937379	-0.376357	0.053724
N64	N	1.437379	0.123643	0.553724
N65	N	0.936275	-0.445537	0.053715
N66	N	1.436275	0.054463	0.553715
C67	C	0.892635	-0.476153	-0.000067
C68	C	1.392635	0.023847	0.499933
N69	N	0.850149	-0.434977	-0.053852
N70	N	1.350149	0.065023	0.446148
N71	N	0.851255	-0.365791	-0.053846
N72	N	1.351255	0.134209	0.446154
C73	C	0.894879	-0.335704	-0.000056
C74	C	1.394879	0.164296	0.499944
C75	C	0.890797	-0.591513	-0.072346
C76	C	1.390797	-0.091513	0.427654
C77	C	0.889621	-0.664337	-0.072349
C78	C	1.389621	-0.164337	0.427651
C79	C	0.889605	-0.664359	0.072196
C80	C	1.389605	-0.164359	0.572196
C81	C	0.890773	-0.591534	0.072197
C82	C	1.390773	-0.091534	0.572197
C83	C	0.891372	-0.555116	-0.000076
C84	C	1.391372	-0.055116	0.499924
C85	C	1.032142	0.088748	-0.000073
C86	C	1.532142	0.588748	0.499927
C87	C	1.116158	0.089987	-0.000084
C88	C	1.616158	0.589987	0.499916
C89	C	0.887798	0.221734	-0.000075
C90	C	1.387798	0.721734	0.499925
C91	C	0.889032	0.299241	-0.000083
C92	C	1.389032	0.799241	0.499917
N93	N	0.893731	0.094064	0.206485
N94	N	1.393731	0.594064	0.706485
N95	N	0.893774	0.094079	-0.206612
N96	N	1.393774	0.594079	0.293388
C97	C	0.945359	0.046532	0.248204
C98	C	1.445359	0.546532	0.748204
C99	C	0.945363	0.046531	0.331656
C100	C	1.445363	0.546531	0.831656
C101	C	0.893743	0.094066	0.373388
C102	C	1.393743	0.594066	0.873388
C103	C	0.842109	0.141600	0.331664
C104	C	1.342109	0.641600	0.831664
C105	C	0.842102	0.141597	0.248213
C106	C	1.342102	0.641597	0.748213
C107	C	0.842136	0.141614	0.668211
C108	C	1.342136	0.641614	1.168211
C109	C	0.842149	0.141615	0.751668
C110	C	1.342149	0.641615	1.251668
C111	C	0.945398	0.046548	0.751654
C112	C	1.445398	0.546548	1.251654
C113	C	0.945391	0.046545	0.668203
C114	C	1.445391	0.546545	1.168203
C115	C	0.893755	0.094076	0.626486
C116	C	1.393755	0.594076	1.126486
C117	C	0.893750	0.094075	0.535998
C118	C	1.393750	0.594075	1.035998
C119	C	0.893750	0.094071	0.463875
C120	C	1.393750	0.594071	0.963875
H121	H	0.123521	0.090109	-0.131201
H122	H	0.623521	0.590109	0.368799
N123	N	0.277102	0.092349	0.150148
N124	N	0.777102	0.592349	0.650148
H125	H	0.269640	0.048880	0.181748
H126	H	0.769640	0.548880	0.681748
H127	H	0.333085	0.093205	0.139122
H128	H	0.833085	0.593205	0.639122
H129	H	0.800075	0.180302	0.365647
H130	H	1.300075	0.680302	0.865647
N131	N	0.898547	-0.108217	-0.150273
N132	N	1.398547	0.391783	0.349727
H133	H	0.945259	-0.126635	-0.181860
H134	H	1.445259	0.373365	0.318140
H135	H	0.851413	-0.115164	-0.181806
H136	H	1.351413	0.384836	0.318194
N137	N	0.786422	0.192865	0.203210
N138	N	1.286422	0.692865	0.703210
H139	H	0.753002	0.166217	0.168605
H140	H	1.253002	0.666217	0.668605
H141	H	0.753773	0.222969	0.242357
H142	H	1.253773	0.722969	0.742357
N143	N	0.786441	0.192880	0.623233
N144	N	1.286441	0.692880	1.123233
H145	H	0.794990	0.242425	0.637743
H146	H	1.294990	0.742425	1.137743
H147	H	0.794285	0.185610	0.564047
H148	H	1.294285	0.685610	1.064047
H149	H	0.520775	0.095921	0.131065
H150	H	1.020775	0.595921	0.631065
H151	H	0.123464	0.090086	0.131038
H152	H	0.623464	0.590086	0.631038
H153	H	0.891280	-0.561859	-0.131195
H154	H	1.391280	-0.061859	0.368805
N155	N	0.277172	0.092357	-0.150289
N156	N	0.777172	0.592357	0.349711
H157	H	0.240198	0.091816	-0.196073
H158	H	0.740198	0.591816	0.303927
H159	H	0.303652	0.136102	-0.153443
H160	H	0.803652	0.636102	0.346557
H161	H	0.987427	0.007840	0.634227
H162	H	1.487427	0.507840	1.134227
N163	N	0.889060	-0.703583	-0.150312
N164	N	1.389060	-0.203583	0.349688
H165	H	0.842381	-0.685171	-0.181941
H166	H	1.342381	-0.185171	0.318059
H167	H	0.936227	-0.696604	-0.181794
H168	H	1.436227	-0.196604	0.318206
N169	N	0.510385	0.095804	-0.150273
N170	N	1.010385	0.595804	0.349727
H171	H	0.547377	0.096349	-0.196054
H172	H	1.047377	0.596349	0.303946
H173	H	0.483914	0.052054	-0.153415
H174	H	0.983914	0.552054	0.346585
N175	N	0.896110	-0.259579	-0.150273
N176	N	1.396110	0.240421	0.349727
H177	H	0.896664	-0.225458	-0.196056
H178	H	1.396664	0.274542	0.303944
H179	H	0.942537	-0.295533	-0.153421
H180	H	1.442537	0.204467	0.346579
H181	H	0.896223	-0.249997	0.131057
H182	H	1.396223	0.250003	0.631057
N183	N	0.888963	-0.703636	0.150142
N184	N	1.388963	-0.203636	0.650142
H185	H	0.888138	-0.755293	0.139175
H186	H	1.388138	-0.255293	0.639175
H187	H	0.936070	-0.696653	0.181701
H188	H	1.436070	-0.196653	0.681701
H189	H	0.664038	0.098069	-0.131167
H190	H	1.164038	0.598069	0.368833
H191	H	0.891241	-0.561901	0.131045
H192	H	1.391241	-0.061901	0.631045
H193	H	0.987440	0.007844	0.785628
H194	H	1.487440	0.507844	1.285628
H195	H	0.898326	-0.117877	0.131072
H196	H	1.398326	0.382123	0.631072
H197	H	0.987398	0.007826	0.214231
H198	H	1.487398	0.507826	0.714231
N199	N	0.674410	0.098202	0.150172
N200	N	1.174410	0.598202	0.650172
H201	H	0.666950	0.054730	0.181767
H202	H	1.166950	0.554730	0.681767
H203	H	0.730391	0.099060	0.139142
H204	H	1.230391	0.599060	0.639142
N205	N	1.001073	-0.004711	0.376653
N206	N	1.501073	0.495289	0.876653
H207	H	1.033785	-0.034813	0.337553
H208	H	1.533785	0.465187	0.837553
H209	H	1.034428	0.022013	0.411246
H210	H	1.534428	0.522013	0.911246
H211	H	0.800110	0.180325	0.785645
H212	H	1.300110	0.680325	1.285645
