data_functionalizedCrystal
_audit_creation_method	'MofGen! by Chris Wilmer'
_symmetry_space_group_name_H-M	'P1'
_symmetry_Int_Tables_number	1
_symmetry_cell_setting	triclinic
loop_
_symmetry_equiv_pos_as_xyz
  x,y,z
_cell_length_a	19.077212
_cell_length_b	18.050589
_cell_length_c	19.077237
_cell_angle_alpha	92.275368
_cell_angle_beta	85.294935
_cell_angle_gamma	92.320484
loop_
_atom_site_label
_atom_site_type_symbol
_atom_site_fract_x
_atom_site_fract_y
_atom_site_fract_z
Zn1	Zn	1.093705	-0.268145	-0.442029
Zn2	Zn	1.088889	-0.387549	-0.324149
Zn3	Zn	0.971092	-0.268158	-0.319409
Zn4	Zn	0.975773	-0.397083	-0.437249
O5	O	1.032364	-0.330234	-0.380709
O6	O	1.191719	-0.279989	-0.430377
O7	O	1.069288	-0.367727	-0.224871
O8	O	0.987413	-0.164230	-0.335691
O9	O	1.188181	-0.367715	-0.343771
O10	O	1.077497	-0.164221	-0.425780
O11	O	0.982743	-0.280011	-0.221388
O12	O	0.873059	-0.289255	-0.331056
O13	O	0.995391	-0.383964	-0.536533
O14	O	0.876498	-0.383976	-0.417632
O15	O	1.082035	-0.289234	-0.540045
O16	O	1.073827	-0.492740	-0.339135
O17	O	0.990721	-0.499744	-0.422229
C18	C	0.849199	-0.337652	-0.373311
C19	C	0.770841	-0.340844	-0.370163
C20	C	0.329569	-0.363709	-0.347617
C21	C	0.403194	-0.360705	-0.350569
C22	C	0.441855	-0.313610	-0.397210
C23	C	0.406885	-0.269510	-0.440897
C24	C	0.333260	-0.272510	-0.437940
C25	C	0.662247	-0.299745	-0.410893
C26	C	0.735876	-0.296749	-0.413847
C27	C	0.732181	-0.387944	-0.323519
C28	C	0.658555	-0.390943	-0.320569
C29	C	0.623592	-0.346840	-0.364253
N30	N	0.517112	-0.310540	-0.400231
N31	N	0.548335	-0.349906	-0.361228
C32	C	1.032279	-0.523189	-0.380694
C33	C	1.032308	-0.605734	-0.380714
C34	C	0.987160	-0.809018	-0.425885
C35	C	0.967398	-0.856539	-0.360866
C36	C	1.032377	-0.756862	-0.380726
C37	C	1.052174	-0.856422	-0.445754
C38	C	1.032444	-0.902845	-0.380743
C39	C	1.012580	-0.803296	-0.315671
C40	C	1.097388	-0.803175	-0.400603
C41	C	1.077648	-0.850670	-0.335540
C42	C	1.032338	-0.672765	-0.380716
C43	C	1.032483	-0.986940	-0.380745
C44	C	1.216245	-0.322787	-0.388136
C45	C	1.294604	-0.319614	-0.391301
C46	C	1.039772	-0.337661	-0.564583
C47	C	1.042929	-0.340826	-0.642939
C48	C	1.032470	-0.136525	-0.380740
C49	C	1.032515	-0.053978	-0.380754
C50	C	1.065576	-0.363580	-1.084197
C51	C	1.062599	-0.360602	-1.010572
C52	C	1.016056	-0.313440	-0.971955
C53	C	0.972481	-0.269259	-1.006965
C54	C	0.975455	-0.272242	-1.080588
C55	C	1.002328	-0.299627	-0.751572
C56	C	0.999359	-0.296646	-0.677944
C57	C	1.089477	-0.387991	-0.681557
C58	C	1.092449	-0.390965	-0.755181
C59	C	1.048872	-0.346787	-0.790185
N60	N	1.013014	-0.310394	-0.896699
N61	N	1.051911	-0.349839	-0.865439
C62	C	1.025026	-0.322780	-0.197552
C63	C	1.022006	-0.319401	-0.119202
H64	H	0.627082	-0.429292	-0.282588
H65	H	1.152322	-0.779785	-0.417431
O66	O	0.769894	-0.435501	-0.276401
H67	H	0.730642	-0.468755	-0.243475
O68	O	0.922282	-0.218391	-0.965313
H69	H	0.892480	-0.188176	-1.002025
O70	O	0.777579	-0.245947	-0.464150
H71	H	0.740898	-0.215777	-0.494025
H72	H	0.304793	-0.236601	-0.473510
O73	O	1.142648	-0.441845	-0.796818
H74	H	1.179900	-0.408521	-0.831812
H75	H	1.115914	-0.868946	-0.297312
O76	O	1.074325	-0.887248	-0.518588
H77	H	1.036674	-0.870675	-0.555957
H78	H	0.633789	-0.263837	-0.446466
H79	H	0.438368	-0.231161	-0.478870
H80	H	1.124954	-0.423959	-0.653049
O81	O	0.928473	-0.224574	-1.118344
H82	H	0.938359	-0.234571	-1.176026
H83	H	0.912453	-0.879933	-0.344068
O84	O	0.287871	-0.414500	-0.297307
H85	H	0.324556	-0.444650	-0.267421
H86	H	1.103480	-0.401981	-1.115634
H87	H	1.098070	-0.396587	-0.982074
H88	H	0.431659	-0.396611	-0.314996
H89	H	0.948861	-0.790603	-0.464017
H90	H	0.995799	-0.780114	-0.260667
O91	O	0.949151	-0.245784	-0.636287
H92	H	0.919342	-0.215572	-0.672995
O93	O	0.955339	-0.251971	-0.789323
H94	H	0.922484	-0.218668	-0.750099
