data_functionalizedCrystal
_audit_creation_method	'MofGen! by Chris Wilmer'
_symmetry_space_group_name_H-M	'P1'
_symmetry_Int_Tables_number	1
_symmetry_cell_setting	triclinic
loop_
_symmetry_equiv_pos_as_xyz
  x,y,z
_cell_length_a	21.295418
_cell_length_b	18.050589
_cell_length_c	18.050582
_cell_angle_alpha	89.981795
_cell_angle_beta	89.965893
_cell_angle_gamma	90.044036
loop_
_atom_site_label
_atom_site_type_symbol
_atom_site_fract_x
_atom_site_fract_y
_atom_site_fract_z
Zn1	Zn	0.962306	-0.295393	-0.420315
Zn2	Zn	1.462306	0.204607	0.079685
Zn3	Zn	0.962230	-0.419576	-0.296135
Zn4	Zn	1.462230	0.080424	0.203865
Zn5	Zn	0.857047	-0.295439	-0.296098
Zn6	Zn	1.357047	0.204561	0.203902
Zn7	Zn	0.857003	-0.419580	-0.420242
Zn8	Zn	1.357003	0.080420	0.079758
O9	O	0.909646	-0.357497	-0.358197
O10	O	1.409646	0.142503	0.141803
O11	O	1.050385	-0.311846	-0.403889
O12	O	1.550385	0.188154	0.096111
O13	O	0.948264	-0.403127	-0.192205
O14	O	1.448264	0.096873	0.307795
O15	O	0.871060	-0.191508	-0.312591
O16	O	1.371060	0.308492	0.187409
O17	O	1.050330	-0.403083	-0.312654
O18	O	1.550330	0.096917	0.187346
O19	O	0.948393	-0.191475	-0.403853
O20	O	1.448393	0.308525	0.096147
O21	O	0.870986	-0.311924	-0.192178
O22	O	1.370986	0.188076	0.307822
O23	O	0.768952	-0.311927	-0.312520
O24	O	1.268952	0.188073	0.187480
O25	O	0.870985	-0.403089	-0.524176
O26	O	1.370985	0.096911	-0.024176
O27	O	0.768919	-0.403133	-0.403727
O28	O	1.268919	0.096867	0.096273
O29	O	0.948350	-0.311849	-0.524230
O30	O	1.448350	0.188151	-0.024230
O31	O	0.948221	-0.523502	-0.312582
O32	O	1.448221	-0.023502	0.187418
O33	O	0.870911	-0.523504	-0.403763
O34	O	1.370911	-0.023504	0.096237
C35	C	0.909570	-0.550449	-0.358185
C36	C	1.409570	-0.050449	0.141815
C37	C	0.909596	-0.632995	-0.358205
C38	C	1.409596	-0.132995	0.141795
C39	C	0.746095	-0.357536	-0.358112
C40	C	1.246095	0.142464	0.141888
C41	C	0.676127	-0.357571	-0.358093
C42	C	1.176127	0.142429	0.141907
C43	C	0.867596	-0.832474	-0.407771
C44	C	1.367596	-0.332474	0.092229
C45	C	0.852255	-0.881913	-0.339998
C46	C	1.352255	-0.381913	0.160002
C47	C	0.909657	-0.784125	-0.358214
C48	C	1.409657	-0.284125	0.141786
C49	C	0.925029	-0.881768	-0.425995
C50	C	1.425029	-0.381768	0.074005
C51	C	0.909716	-0.930111	-0.358230
C52	C	1.409716	-0.430111	0.141770
C53	C	0.894287	-0.832477	-0.290405
C54	C	1.394287	-0.332477	0.209595
C55	C	0.967087	-0.832328	-0.376448
C56	C	1.467087	-0.332328	0.123552
C57	C	0.951768	-0.881745	-0.308628
C58	C	1.451768	-0.381745	0.191372
C59	C	0.909622	-0.700027	-0.358206
C60	C	1.409622	-0.200027	0.141794
C61	C	0.909751	-1.014207	-0.358230
C62	C	1.409751	-0.514207	0.141770
C63	C	0.643260	-0.405125	-0.405514
C64	C	1.143260	0.094875	0.094486
C65	C	0.577517	-0.405106	-0.405547
C66	C	1.077517	0.094894	0.094453
C67	C	0.544644	-0.357542	-0.358146
C68	C	1.044644	0.142458	0.141854
C69	C	0.577519	-0.309979	-0.310722
C70	C	1.077519	0.190021	0.189278
C71	C	0.643260	-0.309993	-0.310695
C72	C	1.143260	0.190007	0.189305
N73	N	0.441377	-0.351735	-0.293191
N74	N	0.941377	0.148265	0.206809
N75	N	0.378926	-0.351726	-0.293218
N76	N	0.878926	0.148274	0.206782
C77	C	0.346570	-0.357495	-0.358225
C78	C	0.846570	0.142505	0.141775
N79	N	0.379024	-0.363288	-0.423205
N80	N	0.879024	0.136712	0.076795
N81	N	0.441481	-0.363301	-0.423177
N82	N	0.941481	0.136699	0.076823
C83	C	0.473359	-0.357521	-0.358170
C84	C	0.973359	0.142479	0.141830
C85	C	0.242417	-0.405031	-0.405686
C86	C	0.742417	0.094969	0.094314
C87	C	0.176673	-0.405008	-0.405721
C88	C	0.676673	0.094992	0.094279
C89	C	0.176677	-0.309884	-0.310889
C90	C	0.676677	0.190116	0.189111
C91	C	0.242419	-0.309904	-0.310861
C92	C	0.742419	0.190096	0.189139
C93	C	0.275285	-0.357481	-0.358259
C94	C	0.775285	0.142519	0.141741
C95	C	1.073837	-0.357459	-0.358284
C96	C	1.573837	0.142541	0.141716
C97	C	1.143805	-0.357442	-0.358320
C98	C	1.643805	0.142558	0.141680
C99	C	0.909671	-0.357464	-0.551903
C100	C	1.409671	0.142536	-0.051903
C101	C	0.909682	-0.357450	-0.634449
C102	C	1.409682	0.142550	-0.134449
C103	C	0.909740	-0.163792	-0.358226
C104	C	1.409740	0.336208	0.141774
C105	C	0.909780	-0.081246	-0.358238
C106	C	1.409780	0.418754	0.141762
C107	C	0.867642	-0.406999	-0.833870
C108	C	1.367642	0.093001	-0.333870
C109	C	0.925074	-0.425133	-0.883286
C110	C	1.425074	0.074867	-0.383286
C111	C	0.909713	-0.357394	-0.785579
C112	C	1.409713	0.142606	-0.285579
C113	C	0.852313	-0.339238	-0.883246
C114	C	1.352313	0.160762	-0.383246
C115	C	0.909738	-0.357340	-0.931565
C116	C	1.409738	0.142660	-0.431565
C117	C	0.967174	-0.375564	-0.833908
C118	C	1.467174	0.124436	-0.333908
C119	C	0.894375	-0.289637	-0.833863
C120	C	1.394375	0.210363	-0.333863
C121	C	0.951846	-0.307746	-0.883256
C122	C	1.451846	0.192254	-0.383256
C123	C	0.909697	-0.357426	-0.701481
C124	C	1.409697	0.142574	-0.201481
C125	C	0.909759	-0.357307	-1.015661
C126	C	1.409759	0.142693	-0.515661
C127	C	0.909658	-0.357476	-0.165245
C128	C	1.409658	0.142524	0.334755
C129	C	0.909770	-0.357281	-0.082700
C130	C	1.409770	0.142719	0.417300
H131	H	0.803716	-0.903709	-0.324590
H132	H	1.303716	-0.403709	0.175410
H133	H	0.832098	-0.449003	-0.812187
H134	H	1.332098	0.050997	-0.312187
H135	H	0.803760	-0.323905	-0.904919
H136	H	1.303760	0.176095	-0.404919
H137	H	1.015615	-0.810534	-0.391889
H138	H	1.515615	-0.310534	0.108111
H139	H	0.550750	-0.271251	-0.272129
H140	H	1.050750	0.228749	0.227871
O141	O	0.942279	-0.500998	-0.912054
O142	O	1.442279	-0.000998	-0.412054
H143	H	0.907280	-0.542099	-0.892282
H144	H	1.407280	-0.042099	-0.392282
O145	O	0.877017	-0.803927	-0.214461
O146	O	1.377017	-0.303927	0.285539
H147	H	0.877103	-0.742439	-0.215059
H148	H	1.377103	-0.242439	0.284941
O149	O	0.877136	-0.213799	-0.805066
O150	O	1.377136	0.286201	-0.305066
H151	H	0.868104	-0.176109	-0.852468
H152	H	1.368104	0.323891	-0.352468
H153	H	0.670015	-0.443865	-0.444110
H154	H	1.170015	0.056135	0.055890
H155	H	1.015741	-0.390962	-0.812325
H156	H	1.515741	0.109038	-0.312325
H157	H	0.149914	-0.443730	-0.444341
H158	H	0.649914	0.056270	0.055659
O159	O	0.141232	-0.258587	-0.259755
O160	O	0.641232	0.241413	0.240245
H161	H	0.089995	-0.266569	-0.267734
H162	H	0.589995	0.233431	0.232266
H163	H	0.938006	-0.903420	-0.483311
H164	H	1.438006	-0.403420	0.016689
O165	O	0.998922	-0.910229	-0.253068
O166	O	1.498922	-0.410229	0.246932
H167	H	0.986039	-0.890380	-0.196889
H168	H	1.486039	-0.390380	0.303111
H169	H	0.670020	-0.271267	-0.272079
H170	H	1.170020	0.228733	0.227921
O171	O	0.542055	-0.456427	-0.456667
O172	O	1.042055	0.043573	0.043333
H173	H	0.575954	-0.489524	-0.489608
H174	H	1.075954	0.010476	0.010392
O175	O	0.820415	-0.803801	-0.463204
O176	O	1.320415	-0.303801	0.036796
H177	H	0.772804	-0.823661	-0.447892
H178	H	1.272804	-0.323661	0.052108
O179	O	0.277873	-0.456333	-0.456814
O180	O	0.777873	0.043667	0.043186
H181	H	0.243971	-0.489389	-0.489806
H182	H	0.743971	0.010611	0.010194
H183	H	0.269180	-0.271184	-0.272242
H184	H	0.769180	0.228816	0.227758
H185	H	0.987475	-0.265774	-0.904804
H186	H	1.487475	0.234226	-0.404804
