data_functionalizedCrystal
_audit_creation_method	'MofGen! by Chris Wilmer'
_symmetry_space_group_name_H-M	'P1'
_symmetry_Int_Tables_number	1
_symmetry_cell_setting	triclinic
loop_
_symmetry_equiv_pos_as_xyz
  x,y,z
_cell_length_a	12.759401
_cell_length_b	18.050590
_cell_length_c	12.759393
_cell_angle_alpha	89.965321
_cell_angle_beta	89.979213
_cell_angle_gamma	90.019035
loop_
_atom_site_label
_atom_site_type_symbol
_atom_site_fract_x
_atom_site_fract_y
_atom_site_fract_z
Zn1	Zn	1.606238	-0.295614	-0.593985
Zn2	Zn	1.606118	-0.419822	-0.418293
Zn3	Zn	1.430537	-0.295651	-0.418321
Zn4	Zn	1.430517	-0.419768	-0.593930
O5	O	1.518352	-0.357714	-0.506132
O6	O	1.753243	-0.312097	-0.570691
O7	O	1.582784	-0.403389	-0.271275
O8	O	1.453903	-0.191722	-0.441658
O9	O	1.753155	-0.403352	-0.441610
O10	O	1.582990	-0.191694	-0.570718
O11	O	1.453786	-0.312161	-0.271296
O12	O	1.283513	-0.312108	-0.441605
O13	O	1.453869	-0.403260	-0.740959
O14	O	1.283499	-0.403296	-0.570624
O15	O	1.582971	-0.312045	-0.740999
O16	O	1.582765	-0.523739	-0.441556
O17	O	1.453752	-0.523699	-0.570597
C18	C	1.245385	-0.357701	-0.506112
C19	C	1.128608	-0.357714	-0.506128
C20	C	0.963971	-0.405165	-0.438845
C21	C	1.073695	-0.405154	-0.438826
C22	C	1.073792	-0.310275	-0.573448
C23	C	0.964070	-0.310283	-0.573462
C24	C	1.223576	-0.431573	-0.314834
C25	C	1.278389	-0.479018	-0.247526
C26	C	1.242746	-0.551471	-0.231216
C27	C	1.152293	-0.576494	-0.282228
C28	C	1.097486	-0.529054	-0.349543
C29	C	1.133127	-0.456590	-0.365834
C30	C	0.814187	-0.283872	-0.697455
C31	C	0.759378	-0.236435	-0.764776
C32	C	0.795018	-0.163980	-0.781098
C33	C	0.885475	-0.138960	-0.730104
C34	C	0.940284	-0.186397	-0.662783
C35	C	0.904636	-0.258851	-0.646460
C36	C	1.518272	-0.550666	-0.506090
C37	C	1.518333	-0.633212	-0.506108
C38	C	1.588636	-0.832657	-0.436033
C39	C	1.614306	-0.881982	-0.531921
C40	C	1.518393	-0.784342	-0.506150
C41	C	1.492831	-0.882098	-0.410306
C42	C	1.518452	-0.930327	-0.506182
C43	C	1.544111	-0.832580	-0.602087
C44	C	1.422592	-0.832692	-0.480407
C45	C	1.448224	-0.881995	-0.576361
C46	C	1.518361	-0.700244	-0.506130
C47	C	1.518484	-1.014423	-0.506212
C48	C	1.792386	-0.357727	-0.506153
C49	C	1.909162	-0.357732	-0.506162
C50	C	1.518431	-0.357642	-0.780166
C51	C	1.518465	-0.357612	-0.896943
C52	C	1.518462	-0.164008	-0.506197
C53	C	1.518509	-0.081462	-0.506225
C54	C	1.585693	-0.310109	-0.951827
C55	C	1.585711	-0.310077	-1.061551
C56	C	1.451269	-0.405058	-1.061496
C57	C	1.451247	-0.405085	-0.951774
C58	C	1.623331	-0.222456	-1.211538
C59	C	1.690576	-0.174959	-1.266427
C60	C	1.793089	-0.163573	-1.230836
C61	C	1.828380	-0.199693	-1.140359
C62	C	1.761141	-0.247196	-1.085476
C63	C	1.658612	-0.258568	-1.121065
C64	C	1.413637	-0.492707	-0.801785
C65	C	1.346403	-0.540214	-0.746900
C66	C	1.243887	-0.551608	-0.782489
C67	C	1.208601	-0.515500	-0.872969
C68	C	1.275835	-0.467993	-0.927854
C69	C	1.378350	-0.456598	-0.892258
C70	C	1.518335	-0.357731	-0.233165
C71	C	1.518505	-0.357552	-0.116389
H72	H	1.123287	-0.635496	-0.268952
C73	C	1.573488	-0.803328	-0.711636
C74	C	1.578929	-0.719299	-0.731850
C75	C	1.608310	-0.690046	-0.841395
C76	C	1.632249	-0.744821	-0.930726
C77	C	1.626808	-0.828856	-0.910515
C78	C	1.597428	-0.858109	-0.800970
H79	H	1.561208	-0.678746	-0.665719
H80	H	1.612337	-0.627838	-0.856356
H81	H	1.653998	-0.723166	-1.011818
H82	H	1.644530	-0.869409	-0.976646
H83	H	1.593400	-0.920317	-0.786009
C84	C	1.313142	-0.803410	-0.450929
C85	C	1.292852	-0.719378	-0.446462
C86	C	1.183402	-0.690095	-0.416970
C87	C	1.094243	-0.744844	-0.391943
C88	C	1.114530	-0.828881	-0.396409
C89	C	1.223980	-0.858164	-0.425902
H90	H	1.358855	-0.678845	-0.464989
H91	H	1.168385	-0.627885	-0.413664
H92	H	1.013222	-0.723167	-0.370111
H93	H	1.048527	-0.869414	-0.377883
H94	H	1.238998	-0.920375	-0.429208
C95	C	1.095829	-0.528030	-0.912120
C96	C	1.076668	-0.560496	-1.022040
C97	C	0.963895	-0.573031	-1.061188
C98	C	0.870284	-0.553100	-0.990416
C99	C	0.889443	-0.520633	-0.880489
C100	C	1.002216	-0.508098	-0.841341
H101	H	1.145967	-0.575252	-1.074436
H102	H	0.949713	-0.597066	-1.142563
H103	H	0.786803	-0.562380	-1.019395
H104	H	0.820144	-0.505877	-0.828093
H105	H	1.016398	-0.484063	-0.759966
H106	H	1.640423	-0.271451	-0.907186
H107	H	1.189149	-0.590299	-0.737797
H108	H	1.252599	-0.372574	-0.328098
H109	H	1.471186	-0.903849	-0.329238
H110	H	1.375146	-0.569621	-0.673233
C111	C	1.368010	-0.911085	-0.656568
C112	C	1.379777	-0.891335	-0.773410
C113	C	1.299568	-0.920427	-0.853620
C114	C	1.207592	-0.969269	-0.816987
C115	C	1.195821	-0.989021	-0.700139
C116	C	1.276030	-0.959929	-0.619929
H117	H	1.447866	-0.855177	-0.800533
H118	H	1.308282	-0.905804	-0.940119
H119	H	1.148216	-0.990804	-0.876363
H120	H	1.127731	-1.025179	-0.673016
H121	H	1.267316	-0.974551	-0.533431
C122	C	0.734731	-0.111798	-0.855157
C123	C	0.773940	-0.032099	-0.873103
C124	C	0.713657	0.020084	-0.947157
C125	C	0.614165	-0.007432	-1.003265
C126	C	0.574951	-0.087136	-0.985320
C127	C	0.635234	-0.139319	-0.911266
H128	H	0.847594	-0.011726	-0.831568
H129	H	0.742686	0.079086	-0.960441
H130	H	0.569541	0.031197	-1.058084
H131	H	0.501297	-0.107509	-1.026855
H132	H	0.606204	-0.198320	-0.897982
H133	H	0.785161	-0.342871	-0.684173
C134	C	1.799944	-0.286924	-0.985954
C135	C	1.912713	-0.274405	-0.946801
C136	C	1.951517	-0.314129	-0.847272
C137	C	1.877553	-0.366372	-0.786895
C138	C	1.764777	-0.378893	-0.826047
C139	C	1.725973	-0.339170	-0.925577
H140	H	1.967472	-0.235730	-0.991496
H141	H	2.035001	-0.304859	-0.818289
H142	H	1.906278	-0.395777	-0.713218
H143	H	1.710018	-0.417569	-0.781352
H144	H	1.642489	-0.348439	-0.954559
C145	C	1.941154	-0.187172	-1.101217
C146	C	1.977895	-0.108729	-1.071233
C147	C	2.090671	-0.096206	-1.032087
C148	C	2.166706	-0.162126	-1.022925
C149	C	2.129966	-0.240574	-1.052910
C150	C	2.017190	-0.253098	-1.092056
H151	H	1.921609	-0.059926	-1.078014
H152	H	2.117868	-0.038133	-1.009890
H153	H	2.250189	-0.152855	-0.993947
H154	H	2.186252	-0.289377	-1.046129
H155	H	1.989993	-0.311171	-1.114253
H156	H	1.648059	-0.810993	-0.376800
H157	H	1.539854	-0.231717	-1.240520
C158	C	0.903571	-0.457352	-0.364809
C159	C	0.918601	-0.451184	-0.245387
C160	C	0.858204	-0.503370	-0.171346
C161	C	0.782778	-0.561723	-0.216727
C162	C	0.767745	-0.567892	-0.336155
C163	C	0.828142	-0.515707	-0.410196
H164	H	0.974438	-0.407986	-0.211788
H165	H	0.869332	-0.498802	-0.082937
H166	H	0.738068	-0.600353	-0.161917
H167	H	0.711907	-0.611091	-0.369754
H168	H	0.817013	-0.520274	-0.498605
C169	C	1.723786	-0.911236	-0.561365
C170	C	1.784267	-0.961154	-0.484414
C171	C	1.893750	-0.990403	-0.513850
C172	C	1.942752	-0.969734	-0.620238
C173	C	1.882271	-0.919814	-0.697196
C174	C	1.772788	-0.890565	-0.667760
H175	H	1.747993	-0.976457	-0.405653
H176	H	1.938522	-1.027358	-0.456880
H177	H	2.023798	-0.991386	-0.642028
H178	H	1.918545	-0.904511	-0.775957
H179	H	1.728016	-0.853610	-0.724730
C180	C	1.867058	-0.111326	-1.291213
C181	C	1.970364	-0.141191	-1.337115
C182	C	2.044325	-0.088942	-1.397496
C183	C	2.014980	-0.006827	-1.411974
C184	C	1.911669	0.023043	-1.366070
C185	C	1.837708	-0.029206	-1.305690
H186	H	1.992091	-0.201981	-1.326399
H187	H	2.120802	-0.111054	-1.431477
H188	H	2.069730	0.031851	-1.456671
H189	H	1.889941	0.083833	-1.376787
H190	H	1.761230	-0.007094	-1.271709
H191	H	1.661833	-0.145550	-1.340094
H192	H	1.023843	-0.549428	-0.391078
H193	H	1.396545	-0.443710	-1.106154
H194	H	0.685726	-0.256814	-0.806303
H195	H	1.287383	-0.590101	-0.176412
H196	H	1.497112	-0.483428	-0.772795
H197	H	1.352052	-0.458643	-0.206013
C198	C	1.134193	-0.258083	-0.647475
C199	C	1.254883	-0.258071	-0.647463
C200	C	1.315281	-0.205876	-0.721491
C201	C	1.254989	-0.153695	-0.795531
C202	C	1.134292	-0.153706	-0.795545
C203	C	1.073894	-0.205900	-0.721518
H204	H	1.299520	-0.296700	-0.592652
H205	H	1.404629	-0.205869	-0.721479
H206	H	1.299700	-0.115058	-0.850330
H207	H	1.089655	-0.115076	-0.850357
H208	H	0.984546	-0.205907	-0.721529
H209	H	1.014077	-0.166075	-0.621453
H210	H	1.247096	-0.438593	-1.001529
H211	H	0.914496	-0.079962	-0.743396
