data_functionalizedCrystal
_audit_creation_method	'MofGen! by Chris Wilmer'
_symmetry_space_group_name_H-M	'P1'
_symmetry_Int_Tables_number	1
_symmetry_cell_setting	triclinic
loop_
_symmetry_equiv_pos_as_xyz
  x,y,z
_cell_length_a	9.798715
_cell_length_b	19.288864
_cell_length_c	19.288865
_cell_angle_alpha	83.136245
_cell_angle_beta	89.991627
_cell_angle_gamma	89.982474
loop_
_atom_site_label
_atom_site_type_symbol
_atom_site_fract_x
_atom_site_fract_y
_atom_site_fract_z
O1	O	0.113944	-0.921348	-0.086646
O2	O	0.447278	-0.588014	0.246687
O3	O	0.780611	-0.254681	0.580021
O4	O	0.113853	-0.719087	-0.098335
O5	O	0.447186	-0.385754	0.234998
O6	O	0.780520	-0.052420	0.568332
O7	O	0.113874	-0.826062	0.008640
O8	O	0.447208	-0.492728	0.341973
O9	O	0.780541	-0.159395	0.675306
O10	O	0.113923	-0.814373	-0.193621
O11	O	0.447256	-0.481040	0.139713
O12	O	0.780590	-0.147706	0.473046
O13	O	-0.113108	-0.826054	0.008640
O14	O	0.220225	-0.492720	0.341973
O15	O	0.553559	-0.159387	0.675307
O16	O	-0.113129	-0.719079	-0.098335
O17	O	0.220204	-0.385746	0.234999
O18	O	0.553537	-0.052412	0.568332
O19	O	-0.113038	-0.921340	-0.086646
O20	O	0.220295	-0.588006	0.246687
O21	O	0.553629	-0.254673	0.580021
Zn22	Zn	-0.149122	-0.820208	-0.092490
Zn23	Zn	0.184211	-0.486875	0.240843
Zn24	Zn	0.517545	-0.153541	0.574176
Zn25	Zn	0.149937	-0.820219	-0.092491
Zn26	Zn	0.483270	-0.486885	0.240843
Zn27	Zn	0.816604	-0.153552	0.574176
O28	O	-0.113059	-0.814365	-0.193621
O29	O	0.220274	-0.481032	0.139713
O30	O	0.553607	-0.147698	0.473046
C31	C	0.000350	-0.693207	-0.097959
C32	C	0.333683	-0.359873	0.235375
C33	C	0.667016	-0.026540	0.568708
C34	C	0.000314	-0.616103	-0.096830
C35	C	0.333647	-0.282770	0.236504
C36	C	0.666980	0.050564	0.569837
N37	N	-0.353222	-0.820206	-0.092490
N38	N	-0.019888	-0.486873	0.240844
N39	N	0.313445	-0.153539	0.574177
C40	C	0.000379	-0.825682	0.034516
C41	C	0.333712	-0.492348	0.367850
C42	C	0.667046	-0.159015	0.701183
C43	C	0.000366	-0.824553	0.111620
C44	C	0.333700	-0.491219	0.444953
C45	C	0.667033	-0.157886	0.778287
C46	C	-0.420990	-0.865124	-0.047378
C47	C	-0.087656	-0.531791	0.285955
C48	C	0.245677	-0.198457	0.619288
C49	C	-0.578152	-0.865135	-0.047376
C50	C	-0.244819	-0.531802	0.285958
C51	C	0.088514	-0.198469	0.619291
N52	N	0.354037	-0.820226	-0.092486
N53	N	0.687370	-0.486893	0.240848
N54	N	1.020703	-0.153559	0.574181
C55	C	0.000468	-0.947220	-0.087022
C56	C	0.333802	-0.613887	0.246311
C57	C	0.667135	-0.280553	0.579645
C58	C	0.000513	-1.024324	-0.088151
C59	C	0.333846	-0.690990	0.245182
C60	C	0.667180	-0.357657	0.578516
C61	C	0.000350	-0.571407	-0.159598
C62	C	0.333684	-0.238073	0.173736
C63	C	0.667017	0.095260	0.507069
C64	C	0.000365	-0.498960	-0.158537
C65	C	0.333699	-0.165626	0.174796
C66	C	0.667032	0.167707	0.508130
C67	C	0.000371	-0.471212	-0.094705
C68	C	0.333704	-0.137879	0.238629
C69	C	0.667038	0.195455	0.571962
C70	C	0.000327	-0.515918	-0.031929
C71	C	0.333660	-0.182585	0.301405
C72	C	0.666993	0.150748	0.634738
C73	C	0.000298	-0.588364	-0.032991
C74	C	0.333631	-0.255030	0.300342
C75	C	0.666965	0.078303	0.633676
C76	C	0.079927	-0.362953	-0.044526
C77	C	0.413260	-0.029620	0.288808
C78	C	0.746593	0.303714	0.622141
C79	C	0.079963	-0.290508	-0.043466
C80	C	0.413297	0.042825	0.289868
C81	C	0.746630	0.376158	0.623201
C82	C	0.000453	-0.247767	-0.091425
C83	C	0.333786	0.085567	0.241908
C84	C	0.667119	0.418900	0.575242
C85	C	-0.079077	-0.277476	-0.140456
C86	C	0.254256	0.055857	0.192877
C87	C	0.587589	0.389190	0.526211
C88	C	-0.079106	-0.349922	-0.141519
C89	C	0.254227	-0.016589	0.191815
C90	C	0.587561	0.316745	0.525148
C91	C	0.000401	-0.392658	-0.093546
C92	C	0.333734	-0.059325	0.239788
C93	C	0.667068	0.274009	0.573121
C94	C	0.000503	-0.124514	-0.153047
C95	C	0.333837	0.208819	0.180286
C96	C	0.667170	0.542152	0.513619
C97	C	0.000510	-0.052066	-0.151984
C98	C	0.333843	0.281267	0.181349
C99	C	0.667176	0.614600	0.514683
C100	C	0.000485	-0.069026	-0.025374
C101	C	0.333818	0.264307	0.307960
C102	C	0.667151	0.597640	0.641293
C103	C	0.000465	-0.141473	-0.026439
C104	C	0.333798	0.191860	0.306894
C105	C	0.667131	0.525194	0.640228
C106	C	0.000480	-0.169212	-0.090278
C107	C	0.333814	0.164121	0.243056
C108	C	0.667147	0.497454	0.576389
C109	C	0.000439	-0.814745	-0.219497
C110	C	0.333772	-0.481412	0.113836
C111	C	0.667106	-0.148078	0.447169
C112	C	0.000461	-0.815874	-0.296601
C113	C	0.333794	-0.482541	0.036733
C114	C	0.667127	-0.149207	0.370066
C115	C	0.000388	-0.887321	0.156316
C116	C	0.333721	-0.553987	0.489650
C117	C	0.667055	-0.220654	0.822983
C118	C	0.000409	-0.886260	0.228763
C119	C	0.333742	-0.552927	0.562097
C120	C	0.667076	-0.219593	0.895430
C121	C	0.000381	-0.822428	0.256511
C122	C	0.333714	-0.489094	0.589844
C123	C	0.667048	-0.155761	0.923178
C124	C	0.000367	-0.759652	0.211805
C125	C	0.333701	-0.426318	0.545138
C126	C	0.667034	-0.092985	0.878471
C127	C	0.000360	-0.760714	0.139359
C128	C	0.333693	-0.427381	0.472693
C129	C	0.667026	-0.094047	0.806026
C130	C	-0.079148	-0.772245	0.364798
C131	C	0.254185	-0.438912	0.698132
C132	C	0.587518	-0.105579	1.031465
C133	C	-0.079149	-0.771186	0.437243
C134	C	0.254184	-0.437852	0.770576
C135	C	0.587517	-0.104519	1.103909
C136	C	0.000410	-0.819148	0.479956
C137	C	0.333744	-0.485815	0.813290
C138	C	0.667077	-0.152481	1.146623
C139	C	0.079953	-0.868182	0.450218
C140	C	0.413287	-0.534849	0.783552
C141	C	0.746620	-0.201516	1.116885
C142	C	0.079946	-0.869245	0.377773
C143	C	0.413279	-0.535911	0.711106
C144	C	0.746612	-0.202578	1.044439
C145	C	0.000390	-0.821269	0.335065
C146	C	0.333723	-0.487935	0.668398
C147	C	0.667057	-0.154602	1.001732
C148	C	0.000457	-0.880770	0.603209
C149	C	0.333790	-0.547437	0.936542
C150	C	0.667123	-0.214104	1.269875
C151	C	0.000486	-0.879707	0.675657
C152	C	0.333820	-0.546374	1.008990
C153	C	0.667153	-0.213040	1.342323
C154	C	0.000431	-0.753097	0.658697
C155	C	0.333764	-0.419763	0.992030
C156	C	0.667097	-0.086430	1.325363
C157	C	0.000415	-0.754162	0.586250
C158	C	0.333748	-0.420829	0.919583
C159	C	0.667081	-0.087495	1.252917
C160	C	0.000421	-0.818000	0.558511
C161	C	0.333755	-0.484667	0.891844
C162	C	0.667088	-0.151334	1.225177
H163	H	-0.362659	-0.903570	-0.008756
H164	H	-0.029326	-0.570237	0.324578
H165	H	0.304007	-0.236903	0.657911
Br166	Br	0.000320	-0.478263	0.054702
Br167	Br	0.333653	-0.144930	0.388035
Br168	Br	0.666987	0.188404	0.721368
H169	H	0.000390	-0.703049	0.549857
H170	H	0.333723	-0.369716	0.883190
H171	H	0.667056	-0.036383	1.216524
Br172	Br	-0.675278	-0.929241	0.016995
Br173	Br	-0.341945	-0.595908	0.350328
Br174	Br	-0.008611	-0.262574	0.683661
Br175	Br	0.000407	-0.438288	-0.243728
Br176	Br	0.333740	-0.104955	0.089606
Br177	Br	0.667073	0.228378	0.422939
H178	H	0.000442	-0.177866	0.024674
H179	H	0.333776	0.155467	0.358007
H180	H	0.667109	0.488801	0.691340
H181	H	0.000342	-0.709599	0.102967
H182	H	0.333675	-0.376266	0.436300
H183	H	0.667008	-0.042932	0.769633
H184	H	-0.587695	-0.781770	-0.131112
H185	H	-0.254361	-0.448437	0.202221
H186	H	0.078972	-0.115104	0.535555
H187	H	0.000347	-0.707679	0.234401
H188	H	0.333681	-0.374346	0.567735
H189	H	0.667014	-0.041012	0.901068
Br190	Br	-0.450433	-0.756114	-0.156857
Br191	Br	-0.117100	-0.422781	0.176477
Br192	Br	0.216233	-0.089448	0.509810
H193	H	0.000432	-0.937375	0.265162
H194	H	0.333765	-0.604041	0.598495
H195	H	0.667099	-0.270708	0.931829
Br196	Br	-0.187037	-0.390242	-0.208055
Br197	Br	0.146296	-0.056908	0.125278
Br198	Br	0.479629	0.276425	0.458612
H199	H	0.000574	-0.046435	0.026600
H200	H	0.333907	0.286898	0.359933
H201	H	0.667241	0.620231	0.693266
H202	H	0.000366	-0.593987	-0.211580
H203	H	0.333699	-0.260654	0.121753
H204	H	0.667033	0.072680	0.455087
Br205	Br	-0.186989	-0.219478	-0.205551
Br206	Br	0.146345	0.113855	0.127783
Br207	Br	0.479678	0.447188	0.461116
H208	H	0.000398	-0.939303	0.133736
H209	H	0.333731	-0.605970	0.467069
H210	H	0.667065	-0.272636	0.800403
Br211	Br	0.000515	-0.162165	-0.239683
Br212	Br	0.333848	0.171168	0.093651
Br213	Br	0.667182	0.504502	0.426984
H214	H	0.144739	-0.907238	0.484995
H215	H	0.478072	-0.573904	0.818328
H216	H	0.811406	-0.240571	1.151661
H217	H	0.000532	-0.015674	-0.203099
H218	H	0.333865	0.317659	0.130234
H219	H	0.667198	0.650992	0.463567
H220	H	0.144727	-0.266324	-0.003545
H221	H	0.478060	0.067009	0.329789
H222	H	0.811394	0.400343	0.663122
Br223	Br	0.000530	-0.964900	0.736319
Br224	Br	0.333863	-0.631566	1.069652
Br225	Br	0.667197	-0.298233	1.402986
H226	H	0.144682	-0.397748	-0.005470
H227	H	0.478015	-0.064415	0.327863
H228	H	0.811349	0.268918	0.661197
H229	H	-0.143943	-0.733187	0.330026
H230	H	0.189391	-0.399853	0.663359
H231	H	0.522724	-0.066520	0.996693
H232	H	0.000269	-0.624756	0.018124
H233	H	0.333602	-0.291423	0.351457
H234	H	0.666936	0.041910	0.684790
Br235	Br	0.000407	-0.666466	0.696346
Br236	Br	0.333740	-0.333132	1.029679
Br237	Br	0.667073	0.000201	1.363012
H238	H	0.000468	-0.932751	0.580622
H239	H	0.333802	-0.599418	0.913956
H240	H	0.667135	-0.266085	1.247289
H241	H	0.144715	-0.909169	0.353563
H242	H	0.478048	-0.575835	0.686896
H243	H	0.811382	-0.242502	1.020230
H244	H	-0.143910	-0.731256	0.461449
H245	H	0.189423	-0.397923	0.794783
H246	H	0.522757	-0.064589	1.128116
