data_functionalizedCrystal
_audit_creation_method	'MofGen! by Chris Wilmer'
_symmetry_space_group_name_H-M	'P1'
_symmetry_Int_Tables_number	1
_symmetry_cell_setting	triclinic
loop_
_symmetry_equiv_pos_as_xyz
  x,y,z
_cell_length_a	12.759401
_cell_length_b	12.594516
_cell_length_c	12.759386
_cell_angle_alpha	89.939998
_cell_angle_beta	89.957659
_cell_angle_gamma	90.015216
loop_
_atom_site_label
_atom_site_type_symbol
_atom_site_fract_x
_atom_site_fract_y
_atom_site_fract_z
Zn1	Zn	1.606480	-0.423379	-0.594034
Zn2	Zn	1.606301	-0.601494	-0.418361
Zn3	Zn	1.430713	-0.423527	-0.418370
Zn4	Zn	1.430767	-0.601313	-0.593999
O5	O	1.518565	-0.512428	-0.506191
O6	O	1.753477	-0.447020	-0.570742
O7	O	1.582911	-0.578024	-0.271341
O8	O	1.454081	-0.274562	-0.441690
O9	O	1.753346	-0.577880	-0.441676
O10	O	1.583217	-0.274453	-0.570750
O11	O	1.453907	-0.447273	-0.271347
O12	O	1.283699	-0.447097	-0.441656
O13	O	1.454173	-0.577572	-0.741025
O14	O	1.283738	-0.577716	-0.570691
O15	O	1.583269	-0.446844	-0.741051
O16	O	1.582964	-0.750416	-0.441642
O17	O	1.453999	-0.750283	-0.570683
C18	C	1.245598	-0.512404	-0.506171
C19	C	1.128821	-0.512419	-0.506187
C20	C	1.073908	-0.444317	-0.439122
C21	C	0.964184	-0.444342	-0.439136
C22	C	0.964296	-0.580574	-0.573289
C23	C	1.074018	-0.580554	-0.573269
C24	C	0.814123	-0.406259	-0.315321
C25	C	0.759206	-0.338141	-0.248265
C26	C	0.794810	-0.234267	-0.232301
C27	C	0.885330	-0.198491	-0.283409
C28	C	0.940242	-0.266604	-0.350473
C29	C	0.904639	-0.370493	-0.366416
C30	C	1.224081	-0.618625	-0.697086
C31	C	1.278994	-0.686734	-0.764156
C32	C	1.243392	-0.790609	-0.780130
C33	C	1.152868	-0.826381	-0.729040
C34	C	1.097955	-0.758273	-0.661971
C35	C	1.133565	-0.654398	-0.645995
C36	C	1.518496	-0.788969	-0.506181
C37	C	1.518563	-0.907275	-0.506212
C38	C	1.448412	-0.976494	-0.576347
C39	C	1.422775	-1.047416	-0.480480
C40	C	1.544296	-1.047151	-0.602095
C41	C	1.492875	-0.976639	-0.410294
C42	C	1.614440	-0.976367	-0.531973
C43	C	1.588840	-1.047258	-0.436040
C44	C	1.792598	-0.512453	-0.506212
C45	C	1.909375	-0.512464	-0.506221
C46	C	1.518747	-0.512171	-0.780225
C47	C	1.518824	-0.512062	-0.897002
C48	C	1.518663	-0.234807	-0.506224
C49	C	1.518705	-0.116502	-0.506239
C50	C	1.518444	-0.512607	-0.233223
C51	C	1.518571	-0.512417	-0.116447
C52	C	1.450980	-0.444753	-0.061638
C53	C	1.451110	-0.444572	0.048086
C54	C	1.586422	-0.579729	0.048181
C55	C	1.586297	-0.579904	-0.061540
C56	C	1.412885	-0.319082	0.197784
C57	C	1.345279	-0.251427	0.252597
C58	C	1.242615	-0.235889	0.217138
C59	C	1.207536	-0.288022	0.126868
C60	C	1.275137	-0.355685	0.072061
C61	C	1.377816	-0.371203	0.107518
C62	C	1.624511	-0.705395	-0.211240
C63	C	1.692107	-0.773064	-0.266050
C64	C	1.794773	-0.788613	-0.230593
C65	C	1.829848	-0.736499	-0.140320
C66	C	1.762251	-0.668830	-0.085511
C67	C	1.659587	-0.653279	-0.120975
H68	H	1.253083	-0.534043	-0.684077
H69	H	1.540915	-0.692731	-0.240125
F70	F	0.905962	-0.653089	-0.644673
H71	H	1.341759	-1.078647	-0.458713
F72	F	1.522160	-0.335595	0.235516
H73	H	1.388982	-0.945423	-0.635572
H74	H	1.118525	-0.388835	-0.384502
H75	H	0.685504	-0.367279	-0.206653
F76	F	1.572669	-1.087643	-0.708066
F77	F	1.378907	-0.372920	-0.120070
H78	H	1.123875	-0.910962	-0.742054
H79	H	1.849807	-0.843722	-0.275226
F80	F	1.464381	-0.936323	-0.304290
H81	H	1.246577	-0.398130	-0.001435
H82	H	1.790818	-0.626395	-0.012005
F83	F	1.036575	-0.228536	-0.404862
H84	H	1.648224	-1.078132	-0.376672
H85	H	1.024243	-0.787406	-0.620374
H86	H	1.288104	-0.846057	-0.834758
H87	H	0.785132	-0.490845	-0.328301
H88	H	1.695438	-0.945139	-0.553787
H89	H	0.914307	-0.113903	-0.270413
H90	H	0.750089	-0.178804	-0.177702
F91	F	1.098262	-0.271489	0.089142
F92	F	1.170665	-0.163884	0.275478
H93	H	1.373849	-0.208980	0.326095
H94	H	1.641561	-0.634676	0.092900
F95	F	1.375343	-0.648660	-0.818525
H96	H	1.913446	-0.749161	-0.111449
F97	F	1.654777	-0.828523	-0.362132
