data_functionalizedCrystal
_audit_creation_method	'MofGen! by Chris Wilmer'
_symmetry_space_group_name_H-M	'P1'
_symmetry_Int_Tables_number	1
_symmetry_cell_setting	triclinic
loop_
_symmetry_equiv_pos_as_xyz
  x,y,z
_cell_length_a	15.537862
_cell_length_b	14.044220
_cell_length_c	14.185569
_cell_angle_alpha	75.620253
_cell_angle_beta	97.877082
_cell_angle_gamma	70.226656
loop_
_atom_site_label
_atom_site_type_symbol
_atom_site_fract_x
_atom_site_fract_y
_atom_site_fract_z
O1	O	1.205825	-0.271292	-0.083358
O2	O	0.940489	-0.164893	-0.083374
O3	O	1.069177	-0.354709	-0.083356
O4	O	1.077138	-0.081475	-0.083376
O5	O	1.107192	-0.410778	0.083483
O6	O	0.978505	-0.220962	0.083466
O7	O	1.243841	-0.327361	0.083482
Cu8	Cu	1.114644	-0.279281	0.098708
Cu9	Cu	1.069686	-0.212973	-0.098600
O10	O	1.115153	-0.137544	0.083464
C11	C	0.925334	-0.181794	0.000044
C12	C	0.823540	-0.148634	0.000038
C13	C	0.676203	-0.014223	0.000024
C14	C	0.771854	-0.045392	0.000029
C15	C	0.779589	-0.220748	0.000046
C16	C	0.683938	-0.189595	0.000046
C17	C	0.632252	-0.086331	0.000034
C18	C	0.639986	-0.261703	0.000056
C19	C	0.544342	-0.230550	0.000050
C20	C	0.492649	-0.127289	0.000035
C21	C	0.536607	-0.055178	0.000028
C22	C	0.691672	-0.364965	0.000061
C23	C	0.647721	-0.437073	0.000071
C24	C	0.552076	-0.405923	0.000072
C25	C	0.500383	-0.302662	0.000057
C26	C	0.508118	-0.478034	0.000079
C27	C	0.412473	-0.446881	0.000074
C28	C	0.404739	-0.271509	0.000052
C29	C	1.084698	-0.416859	0.000064
C30	C	1.074298	-0.518506	0.000064
C31	C	1.055281	-0.704619	0.000049
C32	C	1.129043	-0.787636	0.000050
C33	C	1.118462	-0.891195	0.000042
C34	C	1.065861	-0.601049	0.000057
C35	C	1.258995	-0.310458	0.000062
C36	C	1.360788	-0.343617	0.000061
C37	C	1.099632	-0.075394	0.000042
C38	C	1.110030	0.026255	0.000035
N39	N	1.146272	-0.325921	0.237483
N40	N	1.038065	-0.166342	-0.237375
C41	C	0.945139	-0.029352	0.605105
C42	C	0.969103	-0.064678	0.710130
C43	C	1.083086	-0.232723	0.710107
C44	C	1.059127	-0.197413	0.605080
C45	C	0.990154	-0.095727	0.552587
C46	C	1.104143	-0.263788	0.552562
C47	C	1.080190	-0.228479	0.447544
C48	C	1.011221	-0.126795	0.395044
C49	C	0.966201	-0.060418	0.447569
C50	C	1.173120	-0.365471	0.605056
C51	C	1.218135	-0.431845	0.552538
C52	C	1.194178	-0.396539	0.447519
C53	C	1.125210	-0.294856	0.395019
C54	C	1.239198	-0.462917	0.394993
C55	C	1.215245	-0.427608	0.289976
C56	C	1.101257	-0.259547	0.290001
H57	H	0.821684	-0.304826	0.000053
H58	H	0.984190	-0.711323	0.000042
H59	H	0.550212	-0.562109	0.000079
O60	O	0.814688	0.024537	-0.000008
C61	C	0.958625	0.054240	0.000079
C62	C	0.910227	-0.025047	0.000094
H63	H	1.035880	0.014175	0.000183
H64	H	0.922073	0.127070	-0.069761
H65	H	0.953758	0.080157	0.069883
H66	H	0.915080	-0.051049	-0.069663
H67	H	0.946790	-0.097821	0.069981
H68	H	1.045085	-0.176748	0.247259
H69	H	0.991723	-0.098046	0.309532
H70	H	1.200124	-0.780909	-0.000013
O71	O	0.899205	0.038409	0.396724
C72	C	0.788621	0.201353	0.407818
C73	C	0.864486	0.089473	0.465525
H74	H	0.760514	0.242662	0.463418
H75	H	0.820765	0.250401	0.358672
H76	H	0.728369	0.193788	0.358632
H77	H	0.924761	0.096938	0.514766
H78	H	0.832270	0.040467	0.514608
O79	O	0.369928	-0.517071	0.000127
C80	C	0.387669	-0.694279	0.000082
C81	C	0.435976	-0.614906	0.000053
H82	H	0.441042	-0.773389	0.000001
H83	H	0.359022	-0.707618	0.069916
H84	H	0.327153	-0.660555	-0.069728
H85	H	0.496528	-0.648565	0.069816
H86	H	0.464556	-0.601573	-0.069827
H87	H	0.414768	-0.101925	0.000027
O88	O	0.784546	-0.395064	-0.000068
C89	C	0.899982	-0.362659	-0.086528
C90	C	0.794775	-0.328444	-0.086495
H91	H	0.908285	-0.308829	-0.156408
H92	H	0.940186	-0.355679	-0.016754
H93	H	0.929358	-0.448864	-0.086477
H94	H	0.765314	-0.242236	-0.086582
H95	H	0.754637	-0.335502	-0.156264
H96	H	0.689815	-0.521150	0.000077
H97	H	0.888967	0.053447	0.562363
O98	O	0.925242	-0.000083	0.760991
C99	C	0.809680	0.170354	0.749929
C100	C	0.859262	0.097306	0.692205
H101	H	0.756339	0.249117	0.694341
H102	H	0.771751	0.129830	0.799073
H103	H	0.864301	0.186217	0.799120
H104	H	0.804702	0.081418	0.642960
H105	H	0.897210	0.137866	0.643124
O106	O	1.150001	-0.331576	0.760996
C107	C	1.197467	-0.520999	0.793173
C108	C	1.121627	-0.409105	0.735462
H109	H	1.174544	-0.583712	0.772566
H110	H	1.267109	-0.527334	0.772495
H111	H	1.206865	-0.534786	0.877247
H112	H	1.112145	-0.395244	0.651374
H113	H	1.052027	-0.402824	0.756222
H114	H	1.192623	-0.394214	0.690569
H115	H	1.274297	-0.514638	0.595290
H116	H	1.295363	-0.545707	0.437747
H117	H	1.251902	-0.481657	0.247215
H118	H	0.494525	0.028906	0.000032
O119	O	0.354521	-0.171127	-0.000134
C120	C	0.298986	0.017344	-0.086550
C121	C	0.355866	-0.096273	-0.086475
H122	H	0.300071	0.077894	-0.156338
H123	H	0.223049	0.027297	-0.086619
H124	H	0.331786	0.030949	-0.016697
H125	H	0.323148	-0.109956	-0.156316
H126	H	0.431799	-0.106172	-0.086353
O127	O	0.626116	0.086144	-0.000029
C128	C	0.628541	0.256784	0.000018
C129	C	0.685370	0.143167	0.000058
H130	H	0.676429	0.302912	0.000109
H131	H	0.567680	0.299277	-0.069826
H132	H	0.599449	0.252247	0.069819
H133	H	0.714525	0.147607	-0.069696
H134	H	0.746182	0.100718	0.069947
