data_functionalizedCrystal
_audit_creation_method	'MofGen! by Chris Wilmer'
_symmetry_space_group_name_H-M	'P1'
_symmetry_Int_Tables_number	1
_symmetry_cell_setting	triclinic
loop_
_symmetry_equiv_pos_as_xyz
  x,y,z
_cell_length_a	23.096457
_cell_length_b	23.096457
_cell_length_c	18.878441
_cell_angle_alpha	60.001170
_cell_angle_beta	89.999551
_cell_angle_gamma	60.000185
loop_
_atom_site_label
_atom_site_type_symbol
_atom_site_fract_x
_atom_site_fract_y
_atom_site_fract_z
Zr1	Zr	0.557778	0.633741	-0.092952
O2	O	0.465329	0.754529	-0.206049
O3	O	0.586116	0.512955	-0.058286
O4	O	0.586115	0.633745	-0.206060
O5	O	0.465334	0.633735	0.058298
O6	O	0.681395	0.633747	-0.206064
O7	O	0.465330	0.633739	-0.058274
O8	O	0.681398	0.417675	0.058277
O9	O	0.465331	0.849807	-0.206044
O10	O	0.669312	0.562637	-0.043499
O11	O	0.598208	0.562633	0.043500
O12	O	0.598206	0.704848	-0.130485
O13	O	0.527102	0.704844	-0.043485
Zr14	Zr	0.709745	0.633738	0.092960
Zr15	Zr	0.709739	0.633744	-0.092958
Zr16	Zr	0.557784	0.633736	0.092967
Zr17	Zr	0.557782	0.785699	-0.092944
Zr18	Zr	0.709741	0.481781	0.092953
O19	O	0.681406	0.754525	0.058294
O20	O	0.681398	0.754532	-0.206058
O21	O	0.465337	0.754521	0.058304
O22	O	0.802194	0.512951	0.206057
O23	O	0.802186	0.512959	-0.058295
O24	O	0.586125	0.512947	0.206067
O25	O	0.802189	0.633744	-0.058289
O26	O	0.681408	0.633735	0.206069
O27	O	0.586128	0.633733	0.206073
O28	O	0.802192	0.633741	0.058283
O29	O	0.586120	0.849809	-0.206049
O30	O	0.681402	0.417671	0.206058
O31	O	0.802191	0.417673	0.206052
O32	O	0.802187	0.417677	0.058272
O33	O	0.465336	0.849802	-0.058263
O34	O	0.586125	0.849805	-0.058268
O35	O	0.669317	0.562632	0.130494
O36	O	0.740421	0.562635	0.043494
O37	O	0.669315	0.704847	-0.043492
O38	O	0.598211	0.704843	0.043508
C39	C	0.633757	0.443664	-0.000005
C40	C	0.633755	0.379154	-0.000009
C41	C	0.670866	0.348855	-0.045425
C42	C	0.670873	0.288233	-0.045418
C43	C	0.633755	0.257924	-0.000006
C44	C	0.596643	0.288227	0.045420
C45	C	0.596643	0.348842	0.045418
N46	N	0.573350	0.195527	-0.006301
N47	N	0.573352	0.137947	-0.006304
C48	C	0.633754	0.075292	0.000002
N49	N	0.694154	0.072400	0.006294
N50	N	0.694151	0.129989	0.006293
C51	C	0.633751	0.192196	0.000000
C52	C	0.670876	-0.020742	-0.045409
C53	C	0.670885	-0.081369	-0.045396
C54	C	0.596648	-0.081368	0.045436
C55	C	0.596646	-0.020748	0.045429
C56	C	0.633758	0.009564	0.000001
C57	C	0.443681	0.633737	0.000013
C58	C	0.379170	0.633736	0.000016
C59	C	0.385980	0.559505	0.045413
C60	C	0.325365	0.559504	0.045417
C61	C	0.257939	0.633737	0.000006
C62	C	0.251131	0.707978	-0.045393
C63	C	0.311746	0.707977	-0.045388
N64	N	0.135142	0.688995	-0.073900
N65	N	0.077563	0.688991	-0.073903
C66	C	0.075306	0.633745	-0.000009
N67	N	0.132810	0.578491	0.073887
N68	N	0.190396	0.578493	0.073888
C69	C	0.192208	0.633747	-0.000003
C70	C	0.016393	0.559508	0.045397
C71	C	-0.044225	0.559510	0.045403
C72	C	-0.118459	0.707986	-0.045416
C73	C	-0.057841	0.707982	-0.045413
C74	C	0.009583	0.633741	-0.000009
C75	C	0.823842	0.633743	-0.000004
C76	C	0.888353	0.633744	-0.000007
C77	C	0.633754	0.633747	-0.232552
C78	C	0.633752	0.633749	-0.311479
C79	C	0.633766	0.823815	0.000014
C80	C	0.633768	0.888325	0.000017
C81	C	0.596635	0.707981	-0.393965
C82	C	0.596642	0.707978	-0.468123
C83	C	0.633762	0.633743	-0.459793
C84	C	0.670883	0.559505	-0.377298
C85	C	0.670880	0.559509	-0.303142
C86	C	0.670885	0.559503	-0.531865
C87	C	0.670888	0.559499	-0.606026
C88	C	0.596648	0.707972	-0.696846
C89	C	0.596645	0.707976	-0.622690
C90	C	0.633765	0.633738	-0.540200
C91	C	0.633769	0.633733	0.232560
C92	C	0.633771	0.633731	0.311488
C93	C	0.823837	0.443668	-0.000014
C94	C	0.888347	0.379159	-0.000020
C95	C	0.633764	0.443658	0.232551
C96	C	0.633765	0.379145	0.311475
C97	C	0.823844	0.443661	0.232542
C98	C	0.888356	0.379150	0.311463
C99	C	0.443679	0.823819	-0.232533
C100	C	0.379166	0.888330	-0.311455
C101	C	0.443686	0.823812	0.000023
C102	C	0.379176	0.888321	0.000029
C103	C	0.633759	0.823822	-0.232542
C104	C	0.633758	0.888334	-0.311466
C105	C	0.881523	0.348865	-0.045440
C106	C	0.942131	0.288261	-0.045464
C107	C	1.009562	0.257947	-0.000061
C108	C	1.016385	0.288246	0.045361
C109	C	0.955777	0.348854	0.045378
C110	C	0.670883	0.348849	0.393956
C111	C	0.670881	0.288242	0.468120
C112	C	0.633764	0.257927	0.459802
C113	C	0.596641	0.288230	0.377313
C114	C	0.596639	0.348840	0.303150
C115	C	0.955774	0.348857	0.303113
C116	C	1.016396	0.288250	0.377260
C117	C	1.009599	0.257933	0.459758
C118	C	0.942174	0.288233	0.468107
C119	C	0.881554	0.348842	0.393960
C120	C	0.311749	0.918630	-0.303104
C121	C	0.251127	0.979256	-0.377252
C122	C	0.257924	1.009576	-0.459749
C123	C	0.325348	0.979273	-0.468098
C124	C	0.385969	0.918652	-0.393951
C125	C	0.386000	0.918621	0.045441
C126	C	0.325392	0.979242	0.045444
C127	C	0.257960	1.009558	0.000039
C128	C	0.251138	0.979256	-0.045379
C129	C	0.311745	0.918640	-0.045386
C130	C	0.670882	0.918629	-0.303120
C131	C	0.670895	0.979237	-0.377271
C132	C	0.633780	1.009553	-0.459766
C133	C	0.596654	0.979252	-0.468110
C134	C	0.596646	0.918641	-0.393961
H135	H	0.566422	0.263544	0.082395
Br136	Br	1.107904	0.247094	0.106977
Br137	Br	0.159631	1.020367	-0.365901
H138	H	0.208557	1.058936	-0.520117
Br139	Br	0.633797	1.091813	-0.560390
Br140	Br	1.091809	0.175692	-0.000094
Br141	Br	0.107899	0.458755	0.107018
H142	H	0.826662	0.373499	0.400771
Br143	Br	0.546272	0.247079	0.366038
H144	H	0.701114	0.263577	0.535280
H145	H	0.936650	0.263540	0.535286
H146	H	0.306201	0.893948	-0.235937
Br147	Br	0.477481	0.458750	0.107037
H148	H	-0.173357	0.768428	-0.082391
H149	H	0.196227	1.003949	-0.082347
Br150	Br	0.334561	1.020428	-0.580066
H151	H	0.306179	0.893972	-0.082364
Br152	Br	0.965051	0.389954	0.107031
Br153	Br	0.546276	0.389964	0.107062
H154	H	1.071291	0.263587	0.370447
Br155	Br	0.546251	0.877540	-0.405303
H156	H	0.936562	0.263599	-0.082451
Br157	Br	0.721280	1.020350	-0.365926
Br158	Br	0.721232	0.389991	-0.107075
Br159	Br	0.546262	0.389946	0.191214
Br160	Br	1.091878	0.175677	0.560379
Br161	Br	0.477462	0.877533	-0.405300
Br162	Br	0.546253	0.808735	-0.405281
Br163	Br	0.721266	0.389972	0.405269
Br164	Br	0.721259	0.877500	-0.191171
Br165	Br	0.334668	1.020351	0.107090
Br166	Br	-0.034979	0.458759	0.107033
H167	H	0.440900	0.893942	0.082422
H168	H	0.633772	0.208574	0.520197
H169	H	0.566420	0.768425	-0.535284
Br170	Br	0.546274	-0.122497	0.107069
Br171	Br	0.965018	0.389991	0.191161
H172	H	0.826622	0.373547	-0.082423
Br173	Br	0.175714	1.091824	0.000058
H174	H	-0.063390	0.768428	-0.082387
Br175	Br	0.546279	1.020411	-0.580076
H176	H	0.701098	0.003937	-0.082395
Br177	Br	0.721251	0.247094	-0.107046
H178	H	0.566420	0.768420	-0.764014
Br179	Br	0.546278	0.020375	0.107068
Br180	Br	0.334602	0.458755	0.107029
Br181	Br	0.721252	-0.122489	-0.107039
H182	H	0.701110	0.499061	-0.370521
Br183	Br	0.302502	0.808726	-0.107003
Br184	Br	0.159625	0.808724	-0.107014
Br185	Br	0.546245	0.808725	-0.633996
H186	H	0.701103	0.499061	-0.235978
Br187	Br	0.721268	0.458750	-0.594721
H188	H	0.701114	0.499050	-0.464700
