data_functionalizedCrystal
_audit_creation_method	'MofGen! by Chris Wilmer'
_symmetry_space_group_name_H-M	'P1'
_symmetry_Int_Tables_number	1
_symmetry_cell_setting	triclinic
loop_
_symmetry_equiv_pos_as_xyz
  x,y,z
_cell_length_a	12.759401
_cell_length_b	13.897441
_cell_length_c	12.759399
_cell_angle_alpha	90.029233
_cell_angle_beta	89.984458
_cell_angle_gamma	89.981179
loop_
_atom_site_label
_atom_site_type_symbol
_atom_site_fract_x
_atom_site_fract_y
_atom_site_fract_z
Zn1	Zn	1.606254	-0.545341	0.418221
Zn2	Zn	2.106254	-0.045341	0.918221
Zn3	Zn	1.606147	-0.384046	0.593931
Zn4	Zn	2.106147	0.115954	1.093931
Zn5	Zn	1.430556	-0.384065	0.418268
Zn6	Zn	1.930556	0.115935	0.918268
Zn7	Zn	1.430544	-0.545304	0.593860
Zn8	Zn	1.930544	-0.045304	1.093860
O9	O	1.518375	-0.464689	0.506070
O10	O	2.018375	0.035311	1.006070
O11	O	1.753261	-0.523953	0.441539
O12	O	2.253261	-0.023953	0.941539
O13	O	1.582814	-0.249067	0.570679
O14	O	2.082814	0.250933	1.070679
O15	O	1.453913	-0.405482	0.271241
O16	O	1.953913	0.094518	0.771241
O17	O	1.753182	-0.405450	0.570633
O18	O	2.253182	0.094550	1.070633
O19	O	1.582998	-0.523971	0.271206
O20	O	2.082998	-0.023971	0.771206
O21	O	1.453808	-0.249081	0.441620
O22	O	1.953808	0.250919	0.941620
O23	O	1.283533	-0.405446	0.441551
O24	O	1.783533	0.094554	0.941551
O25	O	1.453892	-0.680291	0.570511
O26	O	1.953892	-0.180291	1.070511
O27	O	1.283524	-0.523908	0.570557
O28	O	1.783524	-0.023908	1.070557
O29	O	1.582986	-0.680318	0.441470
O30	O	2.082986	-0.180318	0.941470
O31	O	1.582803	-0.405414	0.740943
O32	O	2.082803	0.094586	1.240943
O33	O	1.453788	-0.523890	0.740890
O34	O	1.953788	-0.023890	1.240890
C35	C	1.245408	-0.464676	0.506052
C36	C	1.745408	0.035324	1.006052
C37	C	1.128631	-0.464693	0.506070
C38	C	1.628631	0.035307	1.006070
C39	C	1.073811	-0.526492	0.438972
C40	C	1.573811	-0.026492	0.938972
C41	C	0.964087	-0.526498	0.438983
C42	C	1.464087	-0.026498	0.938983
C43	C	0.964013	-0.402903	0.573198
C44	C	1.464013	0.097097	1.073198
C45	C	1.073735	-0.402893	0.573181
C46	C	1.573735	0.097107	1.073181
C47	C	1.518450	-0.716282	0.505977
C48	C	2.018450	-0.216282	1.005977
C49	C	1.518482	-0.823496	0.505938
C50	C	2.018482	-0.323496	1.005938
C51	C	1.518510	-1.019792	0.505867
C52	C	2.018510	-0.519792	1.005867
C53	C	1.518491	-0.910559	0.505909
C54	C	2.018491	-0.410559	1.005909
C55	C	1.792408	-0.464703	0.506089
C56	C	2.292408	0.035297	1.006089
C57	C	1.909185	-0.464709	0.506097
C58	C	2.409185	0.035291	1.006097
C59	C	1.518311	-0.464667	0.779037
C60	C	2.018311	0.035333	1.279037
C61	C	1.518379	-0.464690	0.895814
C62	C	2.018379	0.035310	1.395814
C63	C	1.518361	-0.214075	0.506087
C64	C	2.018361	0.285925	1.006087
C65	C	1.518533	-0.106861	0.505830
C66	C	2.018533	0.393139	1.005830
C67	C	1.518468	-0.464732	0.232037
C68	C	2.018468	0.035268	0.732037
C69	C	1.518508	-0.464751	0.115260
C70	C	2.018508	0.035249	0.615260
C71	C	1.585634	-0.403070	0.950668
C72	C	2.085634	0.096930	1.450668
C73	C	1.585702	-0.403102	1.060392
C74	C	2.085702	0.096898	1.560392
C75	C	1.451251	-0.526378	1.060398
C76	C	1.951251	-0.026378	1.560398
C77	C	1.451189	-0.526349	0.950676
C78	C	1.951189	-0.026349	1.450676
H79	H	0.919457	-0.576820	0.384343
H80	H	1.419457	-0.076820	0.884343
H81	H	1.640346	-0.352865	0.906002
H82	H	2.140346	0.147135	1.406002
H83	H	1.640469	-0.352926	1.105050
H84	H	2.140469	0.147074	1.605050
H85	H	1.396422	-0.576532	0.906010
H86	H	1.896422	-0.076532	1.406010
F87	F	0.905579	-0.337137	0.644620
F88	F	1.405579	0.162863	1.144620
H89	H	1.118371	-0.352563	0.627821
H90	H	1.618371	0.147437	1.127821
H91	H	1.118504	-0.576810	0.384322
H92	H	1.618504	-0.076810	0.884322
F93	F	1.379744	-0.591994	1.118795
F94	F	1.879744	-0.091994	1.618795
