data_functionalizedCrystal
_audit_creation_method	'MofGen! by Chris Wilmer'
_symmetry_space_group_name_H-M	'P1'
_symmetry_Int_Tables_number	1
_symmetry_cell_setting	triclinic
loop_
_symmetry_equiv_pos_as_xyz
  x,y,z
_cell_length_a	15.944551
_cell_length_b	10.489711
_cell_length_c	8.965430
_cell_angle_alpha	89.994616
_cell_angle_beta	89.999468
_cell_angle_gamma	84.012873
loop_
_atom_site_label
_atom_site_type_symbol
_atom_site_fract_x
_atom_site_fract_y
_atom_site_fract_z
O1	O	0.118382	1.692434	-0.124097
O2	O	0.129531	1.321079	-0.124088
O3	O	0.001742	1.516898	-0.124079
O4	O	0.246171	1.496616	-0.124106
O5	O	0.001750	1.516881	0.123999
O6	O	0.129540	1.321063	0.123991
O7	O	0.118390	1.692418	0.123982
Cu8	Cu	0.123966	1.506739	0.146638
Cu9	Cu	0.123956	1.506758	-0.146744
O10	O	0.246179	1.496599	0.123973
C11	C	0.128699	1.273550	-0.000048
C12	C	0.126195	1.131954	-0.000044
C13	C	0.203044	0.948502	-0.000069
C14	C	0.164653	1.041188	-0.122379
C15	C	0.164640	1.041145	0.122208
C16	C	0.083301	0.972364	-0.122486
C17	C	0.083300	0.972312	0.122210
C18	C	0.044850	1.064971	-0.000129
C19	C	-0.029553	1.516047	-0.000040
C20	C	-0.122814	1.513523	-0.000039
C21	C	-0.338428	1.386112	-0.000056
C22	C	-0.399089	1.445269	0.122260
C23	C	-0.293567	1.508956	-0.000050
C24	C	-0.399081	1.445315	-0.122326
C25	C	-0.458506	1.504536	-0.000068
C26	C	-0.353000	1.568147	0.122367
C27	C	-0.352985	1.568176	-0.122329
C28	C	-0.413629	1.627422	0.000018
C29	C	-0.198550	1.511499	-0.000039
C30	C	-0.553522	1.502003	-0.000068
C31	C	0.277474	1.497450	-0.000070
C32	C	0.370735	1.499974	-0.000081
N33	N	0.123972	1.506734	0.352987
C34	C	0.119223	1.739947	-0.000062
C35	C	0.121726	1.881543	-0.000075
N36	N	0.123942	1.506773	-0.353093
C37	C	0.183051	1.416147	0.450289
C38	C	0.200039	1.531410	0.549698
C39	C	0.106992	1.391520	0.549705
C40	C	0.140998	1.622055	0.450207
C41	C	0.047918	1.482090	0.450206
C42	C	0.064874	1.597436	0.549570
H43	H	0.048925	0.941759	0.225627
O44	O	0.087975	1.262444	0.607609
H45	H	0.079108	1.197851	0.512127
O46	O	-0.426110	1.376471	-0.259291
H47	H	-0.469731	1.442935	-0.326528
O48	O	-0.325902	1.636952	-0.259306
H49	H	-0.344155	1.585767	-0.360696
O50	O	0.210231	1.081521	0.259181
H51	H	0.231573	0.995608	0.326852
O52	O	0.210218	1.081629	-0.259359
H53	H	0.275871	1.034536	-0.259118
H54	H	-0.419503	1.393304	0.225671
H55	H	0.233058	1.339610	0.406697
H56	H	-0.022049	1.115356	-0.000183
H57	H	0.264344	1.552281	0.593399
O58	O	0.160113	1.751171	0.392580
H59	H	0.160009	1.750124	0.268783
O60	O	-0.001323	1.699031	0.606983
H61	H	0.012965	1.794531	0.566921
H62	H	-0.016367	1.461183	0.406470
H63	H	0.269881	0.897885	-0.000198
H64	H	-0.305726	1.284146	0.000068
O65	O	0.037757	0.932222	-0.259620
H66	H	0.080946	0.864729	-0.326373
O67	O	-0.326119	1.636900	0.259506
H68	H	-0.256602	1.638183	0.258467
H69	H	-0.446181	1.729478	0.000084
