data_functionalizedCrystal
_audit_creation_method	'MofGen! by Chris Wilmer'
_symmetry_space_group_name_H-M	'P1'
_symmetry_Int_Tables_number	1
_symmetry_cell_setting	triclinic
loop_
_symmetry_equiv_pos_as_xyz
  x,y,z
_cell_length_a	15.698487
_cell_length_b	23.096457
_cell_length_c	23.096457
_cell_angle_alpha	89.999736
_cell_angle_beta	60.000350
_cell_angle_gamma	60.000870
loop_
_atom_site_label
_atom_site_type_symbol
_atom_site_fract_x
_atom_site_fract_y
_atom_site_fract_z
Zr1	Zr	0.932409	0.557779	-0.076001
O2	O	1.110118	0.465331	-0.168447
O3	O	0.754700	0.586117	-0.047661
O4	O	0.932410	0.586117	-0.168451
O5	O	0.932407	0.465334	0.047625
O6	O	0.932413	0.681397	-0.168455
O7	O	0.932407	0.465331	-0.047657
O8	O	0.614521	0.681397	0.047616
O9	O	1.250298	0.465334	-0.168446
O10	O	0.827797	0.669312	-0.035577
O11	O	0.827794	0.598207	0.035533
O12	O	1.037026	0.598207	-0.106682
O13	O	1.037024	0.527102	-0.035572
Zr14	Zr	0.932412	0.709744	0.075956
Zr15	Zr	0.932413	0.709740	-0.076006
Zr16	Zr	0.932409	0.557783	0.075962
Zr17	Zr	1.155982	0.557783	-0.076001
Zr18	Zr	0.708840	0.709740	0.075956
O19	O	1.110122	0.681406	0.047617
O20	O	1.110123	0.681401	-0.168454
O21	O	1.110117	0.465337	0.047625
O22	O	0.754704	0.802192	0.168402
O23	O	0.754705	0.802186	-0.047669
O24	O	0.754699	0.586122	0.168410
O25	O	0.932415	0.802189	-0.047669
O26	O	0.932411	0.681406	0.168407
O27	O	0.932409	0.586125	0.168410
O28	O	0.932415	0.802192	0.047612
O29	O	1.250301	0.586123	-0.168451
O30	O	0.614520	0.681400	0.168406
O31	O	0.614523	0.802189	0.168402
O32	O	0.614524	0.802186	0.047612
O33	O	1.250298	0.465337	-0.047656
O34	O	1.250301	0.586126	-0.047661
O35	O	0.827796	0.669316	0.106637
O36	O	0.827798	0.740421	0.035527
O37	O	1.037027	0.669316	-0.035577
O38	O	1.037025	0.598211	0.035533
C39	C	0.652756	0.633757	-0.000022
C40	C	0.557844	0.633755	-0.000023
C41	C	0.480762	0.633754	-0.000021
C42	C	0.384057	0.633760	-0.000020
C43	C	0.932406	0.443681	-0.000015
C44	C	0.932405	0.379170	-0.000013
C45	C	0.823192	0.385980	0.037096
C46	C	0.823191	0.325364	0.037099
C47	C	0.932407	0.257939	-0.000021
C48	C	1.041634	0.251131	-0.037131
C49	C	1.041633	0.311747	-0.037127
N50	N	1.013703	0.135143	-0.060431
N51	N	1.013697	0.077564	-0.060434
C52	C	0.932418	0.075306	-0.000033
N53	N	0.851127	0.132810	0.060369
N54	N	0.851130	0.190396	0.060370
C55	C	0.932421	0.192208	-0.000028
C56	C	0.823196	0.016393	0.037083
C57	C	0.823199	-0.044225	0.037088
C58	C	1.041646	-0.118458	-0.037150
C59	C	1.041640	-0.057840	-0.037148
C60	C	0.932412	0.009583	-0.000033
C61	C	1.212066	0.633766	-0.000022
C62	C	1.306978	0.633768	-0.000022
C63	C	0.932412	0.633757	-0.190104
C64	C	0.932412	0.633755	-0.254616
C65	C	0.932416	0.823842	-0.000029
C66	C	0.932417	0.888353	-0.000032
C67	C	0.932423	0.581272	-0.715130
C68	C	0.932414	0.581272	-0.654511
C69	C	0.932417	0.633762	-0.624201
C70	C	0.932397	0.686267	-0.654504
C71	C	0.932394	0.686270	-0.715117
N72	N	1.000619	0.649655	-0.552208
N73	N	1.000625	0.649648	-0.494628
C74	C	0.932425	0.633758	-0.441574
N75	N	0.864235	0.617861	-0.448281
N76	N	0.864234	0.617865	-0.505867
C77	C	0.932420	0.633765	-0.558475
C78	C	0.932427	0.581259	-0.345546
C79	C	0.932411	0.581264	-0.284923
C80	C	0.932406	0.686256	-0.284921
C81	C	0.932410	0.686254	-0.345538
C82	C	0.932426	0.633752	-0.375849
C83	C	0.932410	0.633766	0.190060
C84	C	0.932410	0.633768	0.254572
C85	C	0.652761	0.823837	-0.000029
C86	C	0.557850	0.888347	-0.000032
C87	C	0.652755	0.633761	0.190060
C88	C	0.557843	0.633761	0.254572
C89	C	0.652760	0.823842	0.190053
C90	C	0.557849	0.888353	0.254562
C91	C	1.212062	0.443681	-0.190097
C92	C	1.306973	0.379170	-0.254607
C93	C	1.212061	0.443686	-0.000015
C94	C	1.306972	0.379176	-0.000012
C95	C	1.212067	0.633762	-0.190104
C96	C	1.306979	0.633762	-0.254616
C97	C	0.513278	0.881523	-0.037155
C98	C	0.424112	0.942131	-0.037172
C99	C	0.379513	1.009562	-0.000060
C100	C	0.424094	1.016384	0.037064
C101	C	0.513264	0.955777	0.037076
C102	C	0.513272	0.670879	0.321990
C103	C	0.424104	0.670876	0.382611
C104	C	0.379502	0.633760	0.375814
C105	C	0.424082	0.596637	0.308389
C106	C	0.513255	0.596636	0.247768
C107	C	0.513279	0.955771	0.247738
C108	C	0.424112	1.016392	0.308346
C109	C	0.379512	1.009594	0.375777
C110	C	0.424090	0.942169	0.382600
C111	C	0.513261	0.881550	0.321993
C112	C	1.351554	0.311752	-0.247783
C113	C	1.440748	0.251131	-0.308390
C114	C	1.485354	0.257929	-0.375822
C115	C	1.440769	0.325354	-0.382645
C116	C	1.351582	0.385973	-0.322037
C117	C	1.351553	0.386000	0.037105
C118	C	1.440744	0.325392	0.037104
C119	C	1.485346	0.257961	-0.000009
C120	C	1.440761	0.251139	-0.037131
C121	C	1.351578	0.311746	-0.037134
C122	C	1.351552	0.670886	-0.247796
C123	C	1.440721	0.670900	-0.308406
C124	C	1.485321	0.633785	-0.375836
C125	C	1.440739	0.596660	-0.382655
C126	C	1.351566	0.596650	-0.322045
H127	H	0.734250	0.440875	0.067313
H128	H	1.130573	-0.063389	-0.067371
H129	H	1.315253	0.701109	-0.192896
Cl130	Cl	0.569320	0.717548	0.330554
H131	H	0.549539	0.826657	0.327559
Cl132	Cl	1.295496	0.303187	-0.163019
H133	H	0.549580	0.961319	0.192837
Cl134	Cl	0.932396	0.752249	-0.246816
H135	H	1.315284	0.566416	-0.327608
H136	H	0.387763	0.936645	0.437511
Cl137	Cl	0.368008	1.101160	0.083719
Cl138	Cl	1.597461	0.181775	0.000004
H139	H	0.306903	1.058960	0.425122
Cl140	Cl	1.496774	0.166377	-0.299797
H141	H	0.387825	1.071287	0.302778
Cl142	Cl	0.932403	0.752249	-0.383634
Cl143	Cl	0.368075	0.717551	0.467365
H144	H	1.315245	0.440900	0.067332
H145	H	1.477066	0.566442	-0.437564
Cl146	Cl	0.267396	0.633769	0.452030
H147	H	0.932435	0.538510	-0.370224
H148	H	1.315282	0.306181	-0.067358
Cl149	Cl	0.569332	0.796761	-0.083819
Cl150	Cl	0.367996	0.549981	0.299855
Cl151	Cl	1.597430	0.633801	-0.452024
H152	H	1.557974	0.208563	-0.425166
Cl153	Cl	1.496853	0.333888	-0.467421
Cl154	Cl	1.496840	0.166363	-0.083781
Cl155	Cl	0.368081	0.933539	-0.083843
Cl156	Cl	1.295540	0.470725	-0.330629
Cl157	Cl	0.685884	0.101155	0.083744
H158	H	0.932396	0.729007	-0.629821
Cl159	Cl	1.496755	0.717570	-0.299817
H160	H	0.549543	0.961342	0.067311
H161	H	0.932425	0.538522	-0.629838
Cl162	Cl	1.496770	0.333984	0.083779
Cl163	Cl	0.267408	1.085748	-0.000081
H164	H	1.130559	0.196229	-0.067354
Cl165	Cl	0.685885	0.333921	0.083750
H166	H	1.130569	0.306196	-0.067344
H167	H	0.734262	-0.038674	0.067311
H168	H	1.130572	-0.173356	-0.067374
H169	H	0.932432	0.538523	-0.739806
Cl170	Cl	0.569269	0.549973	0.163017
H171	H	0.932383	0.729019	-0.739786
Cl172	Cl	0.932417	0.515267	-0.246829
