data_functionalizedCrystal
_audit_creation_method	'MofGen! by Chris Wilmer'
_symmetry_space_group_name_H-M	'P1'
_symmetry_Int_Tables_number	1
_symmetry_cell_setting	triclinic
loop_
_symmetry_equiv_pos_as_xyz
  x,y,z
_cell_length_a	21.295418
_cell_length_b	18.215405
_cell_length_c	18.215399
_cell_angle_alpha	90.032960
_cell_angle_beta	89.964127
_cell_angle_gamma	89.959302
loop_
_atom_site_label
_atom_site_type_symbol
_atom_site_fract_x
_atom_site_fract_y
_atom_site_fract_z
Zn1	Zn	0.962332	0.292664	-0.416477
Zn2	Zn	0.962259	0.415740	-0.293405
Zn3	Zn	0.857069	0.292726	-0.293383
Zn4	Zn	0.857034	0.415727	-0.416389
O5	O	0.909673	0.354214	-0.354913
O6	O	1.050411	0.308969	-0.400197
O7	O	0.948289	0.399454	-0.190418
O8	O	0.871077	0.189733	-0.309740
O9	O	1.050358	0.399393	-0.309776
O10	O	0.948413	0.189688	-0.400176
O11	O	0.871007	0.309076	-0.190402
O12	O	0.768975	0.309063	-0.309654
O13	O	0.871018	0.399371	-0.519385
O14	O	0.768950	0.399431	-0.400026
O15	O	0.948380	0.308957	-0.519449
O16	O	0.948255	0.518723	-0.309691
O17	O	0.870948	0.518713	-0.400047
C18	C	0.746122	0.354253	-0.354829
C19	C	0.676154	0.354287	-0.354810
C20	C	0.909607	0.545420	-0.354878
C21	C	0.909636	0.627219	-0.354887
C22	C	0.909703	0.354155	-0.546866
C23	C	0.909716	0.354130	-0.628665
C24	C	0.643290	0.401404	-0.401796
C25	C	0.577548	0.401386	-0.401829
C26	C	0.544671	0.354259	-0.354863
C27	C	0.577543	0.307132	-0.307873
C28	C	0.643284	0.307147	-0.307847
N29	N	0.441402	0.348513	-0.290496
N30	N	0.378951	0.348504	-0.290523
C31	C	0.346597	0.354212	-0.354941
N32	N	0.379053	0.359944	-0.419332
N33	N	0.441510	0.359957	-0.419304
C34	C	0.473386	0.354238	-0.354887
C35	C	0.242448	0.401312	-0.401967
C36	C	0.176704	0.401288	-0.402001
C37	C	0.176700	0.307038	-0.308039
C38	C	0.242442	0.307058	-0.308011
C39	C	0.275312	0.354198	-0.354974
C40	C	1.073864	0.354176	-0.354999
C41	C	1.143832	0.354159	-0.355035
C42	C	0.909757	0.162261	-0.354965
C43	C	0.909793	0.080462	-0.354987
C44	C	0.949985	0.815394	-0.307926
C45	C	0.950013	0.892252	-0.307944
C46	C	0.869443	0.892282	-0.401954
C47	C	0.869418	0.815425	-0.401939
C48	C	0.909688	0.776983	-0.354921
C49	C	0.909741	0.930699	-0.354954
C50	C	0.909771	1.014032	-0.354973
C51	C	0.909659	0.693644	-0.354902
C52	C	0.869509	0.307039	-0.816852
C53	C	0.869520	0.307024	-0.893711
C54	C	0.949998	0.401134	-0.893717
C55	C	0.949983	0.401152	-0.816859
C56	C	0.909740	0.354100	-0.778429
C57	C	0.909765	0.354067	-0.932145
C58	C	0.909778	0.354052	-1.015479
C59	C	0.909727	0.354117	-0.695090
C60	C	0.909680	0.354220	-0.163707
C61	C	0.909789	0.354037	-0.081909
H62	H	0.670049	0.439789	-0.440038
H63	H	0.149933	0.268663	-0.269801
Br64	Br	0.814908	0.243164	-0.945854
H65	H	0.269212	0.439692	-0.440211
H66	H	0.836655	0.923592	-0.440233
H67	H	0.982763	0.439442	-0.925016
Br68	Br	0.532937	0.465334	-0.465602
H69	H	0.149948	0.439655	-0.440268
Br70	Br	0.287046	0.243110	-0.244240
Br71	Br	1.004582	0.465031	-0.764709
H72	H	0.550770	0.268759	-0.269634
H73	H	0.982776	0.784096	-0.269642
Br74	Br	1.004707	0.944379	-0.244166
Br75	Br	0.814731	0.763291	-0.465730
H76	H	0.836740	0.268726	-0.785564
H77	H	0.670041	0.268776	-0.269585
