data_functionalizedCrystal
_audit_creation_method	'MofGen! by Chris Wilmer'
_symmetry_space_group_name_H-M	'P1'
_symmetry_Int_Tables_number	1
_symmetry_cell_setting	triclinic
loop_
_symmetry_equiv_pos_as_xyz
  x,y,z
_cell_length_a	8.559649
_cell_length_b	8.559649
_cell_length_c	7.088929
_cell_angle_alpha	84.655815
_cell_angle_beta	95.325015
_cell_angle_gamma	69.778664
loop_
_atom_site_label
_atom_site_type_symbol
_atom_site_fract_x
_atom_site_fract_y
_atom_site_fract_z
O1	O	2.108185	-0.036318	-0.158958
O2	O	2.608185	0.463682	0.341042
O3	O	1.632699	0.047464	-0.158965
O4	O	2.132699	0.547464	0.341035
O5	O	1.912333	-0.232170	-0.158959
O6	O	2.412333	0.267830	0.341041
O7	O	1.828551	0.243315	-0.158964
O8	O	2.328551	0.743315	0.341036
O9	O	1.949712	-0.269616	0.159017
O10	O	2.449712	0.230384	0.659017
O11	O	1.670079	0.010018	0.159011
O12	O	2.170079	0.510018	0.659011
O13	O	2.145564	-0.073764	0.159018
O14	O	2.645564	0.426236	0.659018
Cu15	Cu	1.911235	-0.035292	0.188048
Cu16	Cu	2.411235	0.464708	0.688048
Cu17	Cu	1.867029	0.008992	-0.187995
Cu18	Cu	2.367029	0.508992	0.312005
O19	O	1.865931	0.205870	0.159012
O20	O	2.365931	0.705870	0.659012
C21	C	1.591080	0.035090	0.000022
C22	C	2.091080	0.535090	0.500022
C23	C	1.411380	0.053990	0.000019
C24	C	1.911380	0.553990	0.500019
C25	C	1.937372	-0.311201	0.000026
C26	C	2.437372	0.188799	0.500026
C27	C	1.956269	-0.490899	0.000015
C28	C	2.456269	0.009101	0.500015
C29	C	2.187183	-0.061390	0.000027
C30	C	2.687183	0.438610	0.500027
C31	C	2.366881	-0.080288	0.000017
C32	C	2.866881	0.419712	0.500017
C33	C	1.840892	0.284902	0.000023
C34	C	2.340892	0.784902	0.500023
C35	C	1.821992	0.464601	0.000021
C36	C	2.321992	0.964601	0.500021
N37	N	1.942338	-0.066441	0.452537
N38	N	2.442338	0.433559	0.952537
N39	N	1.835940	0.040127	-0.452484
N40	N	2.335940	0.540127	0.047516
H41	H	1.466259	-0.209706	0.000009
H42	H	1.966259	0.290294	0.500009
O43	O	2.127723	-0.622533	0.000031
O44	O	2.627723	-0.122533	0.500031
H45	H	2.116169	-0.747757	0.000033
H46	H	2.616169	-0.247757	0.500033
H47	H	1.725671	0.150562	0.465867
H48	H	2.225671	0.650562	0.965867
O49	O	2.088422	-0.212738	0.560678
O50	O	2.588422	0.287262	1.060678
H51	H	2.085851	-0.210160	0.716635
H52	H	2.585851	0.289840	1.216635
H53	H	1.311991	0.183419	0.000007
H54	H	1.811991	0.683419	0.500007
O55	O	1.650557	-0.403766	0.000026
O56	O	2.150557	0.096234	0.500026
H57	H	1.555174	-0.464625	0.000051
H58	H	2.055174	0.035375	0.500051
