data_functionalizedCrystal
_audit_creation_method	'MofGen! by Chris Wilmer'
_symmetry_space_group_name_H-M	'P1'
_symmetry_Int_Tables_number	1
_symmetry_cell_setting	triclinic
loop_
_symmetry_equiv_pos_as_xyz
  x,y,z
_cell_length_a	10.540510
_cell_length_b	10.654550
_cell_length_c	9.730223
_cell_angle_alpha	89.995747
_cell_angle_beta	89.996468
_cell_angle_gamma	84.499121
loop_
_atom_site_label
_atom_site_type_symbol
_atom_site_fract_x
_atom_site_fract_y
_atom_site_fract_z
O1	O	1.685843	0.176814	-0.114298
O2	O	1.316420	0.193529	-0.114299
O3	O	1.509625	0.002434	-0.114290
O4	O	1.492638	0.367908	-0.114307
O5	O	1.509613	0.002429	0.114290
O6	O	1.316407	0.193523	0.114281
O7	O	1.685831	0.176808	0.114282
Zn8	Zn	1.501117	0.185165	0.150573
Zn9	Zn	1.501134	0.185172	-0.150591
O10	O	1.492625	0.367903	0.114273
C11	C	1.508372	-0.044367	-0.000001
C12	C	1.504640	-0.183811	-0.000003
C13	C	1.269110	0.192280	-0.000009
C14	C	1.128162	0.188554	-0.000009
C15	C	1.618396	-0.263269	-0.000003
C16	C	1.614882	-0.394290	-0.000020
C17	C	1.383846	-0.366384	-0.000030
C18	C	1.387361	-0.235365	-0.000023
C19	C	0.910658	0.321307	-0.000541
C20	C	1.057253	0.325282	-0.000017
C21	C	1.083420	0.118559	0.130521
C22	C	0.936660	0.115553	0.130622
C23	C	0.936869	0.112711	-0.129316
C24	C	1.083208	0.119196	-0.131033
C25	C	1.733140	0.178057	-0.000011
C26	C	1.874089	0.181783	-0.000020
C27	C	1.493879	0.414704	-0.000020
C28	C	1.497611	0.554148	-0.000026
N29	N	1.501115	0.185160	0.356110
N30	N	1.501146	0.185168	-0.356127
C31	C	1.586696	0.100579	0.428040
C32	C	1.586709	0.100579	0.571923
C33	C	1.415555	0.269752	0.571933
C34	C	1.415538	0.269745	0.428053
H35	H	1.713892	-0.221298	0.000011
H36	H	1.288361	-0.408376	-0.000044
Cl37	Cl	1.307936	0.376077	0.337618
H38	H	1.294721	-0.170667	-0.000027
H39	H	0.914752	0.010056	-0.130193
H40	H	1.114251	0.167165	0.227658
H41	H	1.656377	0.031703	0.369467
Cl42	Cl	0.845863	0.403560	-0.145069
Cl43	Cl	1.101078	0.410321	0.144690
Cl44	Cl	1.127430	0.197782	-0.280129
H45	H	1.707515	-0.458980	-0.000023
H46	H	0.913701	0.013289	0.136557
H47	H	1.656395	0.031705	0.630484
H48	H	1.086584	0.380040	-0.093590
Cl49	Cl	0.843450	0.403078	0.143156
H50	H	0.896421	0.163383	0.228191
H51	H	1.345882	0.338621	0.630523
H52	H	1.130846	0.017903	0.135381
Cl53	Cl	0.871182	0.179301	-0.282066
Cl54	Cl	1.159008	-0.034929	-0.143193
