data_functionalizedCrystal
_audit_creation_method	'MofGen! by Chris Wilmer'
_symmetry_space_group_name_H-M	'P1'
_symmetry_Int_Tables_number	1
_symmetry_cell_setting	triclinic
loop_
_symmetry_equiv_pos_as_xyz
  x,y,z
_cell_length_a	31.640172
_cell_length_b	31.640172
_cell_length_c	31.640172
_cell_angle_alpha	60.005009
_cell_angle_beta	89.999175
_cell_angle_gamma	60.000198
loop_
_atom_site_label
_atom_site_type_symbol
_atom_site_fract_x
_atom_site_fract_y
_atom_site_fract_z
Zr1	Zr	0.407240	0.462537	-0.055472
O2	O	0.339762	0.550703	-0.122949
O3	O	0.427917	0.374371	-0.034787
O4	O	0.427928	0.462527	-0.122954
O5	O	0.339752	0.462556	0.034766
O6	O	0.497484	0.462520	-0.122957
O7	O	0.339751	0.462547	-0.034783
O8	O	0.497465	0.304825	0.034758
O9	O	0.339772	0.620250	-0.122949
O10	O	0.488655	0.410630	-0.025967
O11	O	0.436747	0.410642	0.025939
O12	O	0.436759	0.514434	-0.077866
O13	O	0.384851	0.514446	-0.025961
Zr14	Zr	0.518176	0.462540	0.055445
Zr15	Zr	0.518174	0.462526	-0.055476
Zr16	Zr	0.407242	0.462551	0.055450
Zr17	Zr	0.407255	0.573458	-0.055471
Zr18	Zr	0.518160	0.351620	0.055444
O19	O	0.497499	0.550706	0.034760
O20	O	0.497496	0.550686	-0.122956
O21	O	0.339764	0.550722	0.034767
O22	O	0.585653	0.374375	0.122923
O23	O	0.585651	0.374355	-0.034793
O24	O	0.427919	0.374391	0.122929
O25	O	0.585663	0.462522	-0.034792
O26	O	0.497488	0.462551	0.122927
O27	O	0.427931	0.462558	0.122930
O28	O	0.585664	0.462530	0.034756
O29	O	0.427950	0.620241	-0.122952
O30	O	0.497466	0.304836	0.122925
O31	O	0.585644	0.304827	0.122922
O32	O	0.585643	0.304816	0.034754
O33	O	0.339773	0.620261	-0.034781
O34	O	0.427951	0.620252	-0.034784
O35	O	0.488656	0.410643	0.077840
O36	O	0.540565	0.410631	0.025934
O37	O	0.488669	0.514435	-0.025965
O38	O	0.436761	0.514447	0.025940
C39	C	0.462689	0.323794	-0.000015
C40	C	0.462682	0.276706	-0.000015
C41	C	0.489814	-0.015342	-0.027103
C42	C	0.489824	-0.192338	-0.027102
O43	O	0.512887	-0.215248	-0.050126
N44	N	0.462728	-0.214461	-0.000009
C45	C	0.435630	-0.192335	0.027088
O46	O	0.412588	-0.215217	0.050137
C47	C	0.435623	-0.015343	0.027091
C48	C	0.462717	0.006782	-0.000008
C49	C	0.516906	0.006782	-0.054199
C50	C	0.516901	0.051031	-0.054201
C51	C	0.489803	0.073155	-0.027107
C52	C	0.462711	0.051030	-0.000010
C53	C	0.408528	0.006779	0.054191
C54	C	0.408530	0.051029	0.054190
C55	C	0.435624	0.073154	0.027091
C56	C	0.435609	0.117403	0.027082
N57	N	0.462705	0.139526	-0.000011
C58	C	0.489802	0.117402	-0.027106
C59	C	0.435635	-0.285257	0.027084
C60	C	0.435636	-0.329504	0.027083
C61	C	0.489831	-0.329505	-0.027107
C62	C	0.489827	-0.285254	-0.027108
C63	C	0.462731	-0.263135	-0.000009
C64	C	0.489789	0.210327	-0.027108
C65	C	0.489780	0.254582	-0.027110
C66	C	0.435587	0.254576	0.027082
C67	C	0.435594	0.210328	0.027082
C68	C	0.462699	0.188203	-0.000015
O69	O	0.412563	0.140336	0.050098
O70	O	0.512851	0.140283	-0.050141
C71	C	0.489819	-0.059591	-0.027100
C72	C	0.462727	-0.081715	-0.000004
C73	C	0.435630	-0.059591	0.027090
C74	C	0.462728	-0.125962	-0.000005
C75	C	0.489825	-0.148087	-0.027100
C76	C	0.516922	-0.125964	-0.054193
C77	C	0.516916	-0.081715	-0.054195
C78	C	0.408534	-0.081714	0.054183
C79	C	0.408541	-0.125962	0.054182
C80	C	0.435638	-0.148086	0.027088
C81	C	0.323946	0.462553	-0.000008
C82	C	0.276852	0.462558	-0.000006
C83	C	-0.015154	0.462523	-0.038327
C84	C	-0.192141	0.462516	-0.038331
O85	O	-0.215014	0.462485	-0.070904
N86	N	-0.214271	0.462522	-0.000017
C87	C	-0.192150	0.462526	0.038303
O88	O	-0.215031	0.462524	0.070895
C89	C	-0.015162	0.462529	0.038309
C90	C	0.006963	0.462529	-0.000011
C91	C	0.006971	0.462522	-0.076643
C92	C	0.051213	0.462528	-0.076644
C93	C	0.073330	0.462533	-0.038328
C94	C	0.051205	0.462534	-0.000011
C95	C	0.006960	0.462528	0.076630
C96	C	0.051211	0.462528	0.076629
C97	C	0.073336	0.462528	0.038309
C98	C	0.117565	0.462545	0.038304
N99	N	0.139695	0.462539	-0.000010
C100	C	0.117578	0.462533	-0.038326
C101	C	-0.285072	0.462525	0.038297
C102	C	-0.329319	0.462525	0.038295
C103	C	-0.329306	0.462514	-0.038339
C104	C	-0.285060	0.462518	-0.038338
C105	C	-0.262941	0.462519	-0.000017
C106	C	0.210489	0.462544	-0.038324
C107	C	0.254734	0.462552	-0.038322
C108	C	0.254720	0.462560	0.038313
C109	C	0.210477	0.462555	0.038310
C110	C	0.188364	0.462546	-0.000011
O111	O	0.140468	0.462569	0.070863
O112	O	0.140473	0.462521	-0.070906
C113	C	-0.059397	0.462518	-0.038327
C114	C	-0.081522	0.462519	-0.000011
C115	C	-0.059405	0.462524	0.038305
C116	C	-0.125769	0.462519	-0.000012
C117	C	-0.147886	0.462513	-0.038328
C118	C	-0.125756	0.462507	-0.076642
C119	C	-0.081514	0.462512	-0.076643
C120	C	-0.081535	0.462530	0.076620
C121	C	-0.125778	0.462526	0.076616
C122	C	-0.147895	0.462520	0.038301
C123	C	0.601470	0.462524	-0.000019
C124	C	0.648564	0.462520	-0.000021
C125	C	0.462706	0.462521	-0.138759
C126	C	0.462705	0.462515	-0.185848
C127	C	0.462727	0.601283	-0.000012
C128	C	0.462733	0.648371	-0.000011
C129	C	0.435624	0.516729	-0.504975
C130	C	0.435624	0.516739	-0.681970
O131	O	0.412605	0.562821	-0.727896
N132	N	0.462712	0.462555	-0.677009
C133	C	0.489805	0.408364	-0.627794
O134	O	0.512849	0.362278	-0.627636
C135	C	0.489807	0.408355	-0.450800
C136	C	0.462713	0.462542	-0.455765
C137	C	0.408532	0.570912	-0.509937
C138	C	0.408530	0.570909	-0.465691
C139	C	0.435619	0.516722	-0.416482
C140	C	0.462711	0.462539	-0.411519
C141	C	0.516902	0.354165	-0.401587
C142	C	0.516901	0.354167	-0.357338
C143	C	0.489807	0.408355	-0.362303
C144	C	0.489798	0.408350	-0.318063
N145	N	0.462710	0.462534	-0.323024
C146	C	0.435620	0.516720	-0.372233
C147	C	0.489801	0.408373	-0.720721
C148	C	0.489800	0.408376	-0.764969
C149	C	0.435620	0.516751	-0.819142
C150	C	0.435618	0.516748	-0.774892
C151	C	0.462713	0.462558	-0.725682
C152	C	0.435618	0.516710	-0.279310
C153	C	0.435616	0.516702	-0.235058
C154	C	0.489798	0.408327	-0.180889
C155	C	0.489797	0.408335	-0.225138
C156	C	0.462706	0.462531	-0.274350
O157	O	0.512810	0.362292	-0.272121
O158	O	0.412589	0.562800	-0.372381
C159	C	0.435626	0.516732	-0.549221
C160	C	0.462717	0.462549	-0.544258
C161	C	0.489806	0.408362	-0.495049
C162	C	0.462716	0.462551	-0.588506
C163	C	0.435627	0.516737	-0.637716
C164	C	0.408539	0.570921	-0.642677
C165	C	0.408537	0.570918	-0.598430
C166	C	0.516894	0.354178	-0.490088
C167	C	0.516894	0.354186	-0.534336
C168	C	0.489805	0.408372	-0.583546
C169	C	0.462710	0.462556	0.138732
C170	C	0.462710	0.462562	0.185822
C171	C	0.601450	0.323780	-0.000021
C172	C	0.648538	0.276687	-0.000023
C173	C	0.462691	0.323812	0.138731
C174	C	0.462685	0.276729	0.185819
C175	C	0.601452	0.323798	0.138725
C176	C	0.648541	0.276710	0.185812
C177	C	0.323963	0.601280	-0.138752
C178	C	0.276875	0.648367	-0.185839
C179	C	0.323965	0.601297	-0.000006
C180	C	0.276877	0.648391	-0.000004
C181	C	0.462725	0.601265	-0.138758
C182	C	0.462731	0.648348	-0.185846
C183	C	0.643555	0.254571	-0.027121
C184	C	0.687795	0.210327	-0.027133
C185	C	0.737018	0.188198	-0.000045
C186	C	0.742000	0.210319	0.027054
C187	C	0.697761	0.254564	0.027063
C188	C	0.489779	0.254619	0.235029
C189	C	0.489771	0.210387	0.279278
C190	C	0.462673	0.188261	0.274316
C191	C	0.435576	0.210375	0.225101
C192	C	0.435581	0.254611	0.180853
C193	C	0.697755	0.254591	0.180830
C194	C	0.742004	0.210354	0.225069
C195	C	0.737038	0.188233	0.274289
C196	C	0.687819	0.210356	0.279269
C197	C	0.643571	0.254596	0.235031
C198	C	0.227661	0.670491	-0.180857
C199	C	0.183412	0.714743	-0.225096
C200	C	0.188378	0.736866	-0.274316
C201	C	0.237596	0.714740	-0.279296
C202	C	0.281844	0.670492	-0.235058
C203	C	0.281861	0.670511	0.027089
C204	C	0.237621	0.714767	0.027090
C205	C	0.188398	0.736897	-0.000000
C206	C	0.183415	0.714775	-0.027097
C207	C	0.227655	0.670523	-0.027100
C208	C	0.489834	0.670459	-0.180868
C209	C	0.489850	0.714692	-0.225108
C210	C	0.462758	0.736817	-0.274327
C211	C	0.435654	0.714701	-0.279304
C212	C	0.435642	0.670466	-0.235064
H213	H	0.538983	-0.143982	-0.076256
C214	C	0.519598	0.348765	-0.759500
N215	N	0.542046	0.303864	-0.755379
H216	H	0.223608	0.652481	-0.140784
H217	H	0.192491	0.462535	-0.069528
C218	C	0.129276	0.739072	-0.219606
N219	N	0.088503	0.757396	-0.215469
H220	H	0.143332	0.732800	-0.049152
H221	H	0.152344	0.772895	-0.310333
C222	C	0.405810	0.576328	-0.333439
N223	N	0.383356	0.621233	-0.374208
C224	C	0.796150	0.185966	0.056853
N225	N	0.836937	0.167618	0.079301
C226	C	0.546699	0.294571	-0.528865
N227	N	0.569152	0.249670	-0.524744
H228	H	0.069226	0.462525	-0.107846
H229	H	0.462673	0.152242	0.310350
H230	H	0.701808	0.272595	0.140757
H231	H	0.511866	0.364243	-0.680653
C232	C	0.243050	0.739076	-0.333443
N233	N	0.247156	0.757404	-0.374228
H234	H	0.321915	0.652479	-0.239120
C235	C	0.405825	0.576356	-0.873281
N236	N	0.383388	0.621248	-0.914059
H237	H	-0.011032	0.462516	-0.107845
H238	H	0.511861	0.192318	-0.049172
H239	H	0.386464	0.069037	0.076258
C240	C	0.378742	0.630527	-0.696816
N241	N	0.356303	0.675419	-0.737594
H242	H	0.511894	-0.347525	-0.049169
H243	H	0.683728	0.192322	-0.049200
H244	H	0.192458	0.462564	0.069509
C245	C	0.703251	0.278881	0.056880
N246	N	0.707391	0.297194	0.079341
C247	C	0.519665	0.739014	-0.219621
N248	N	0.542122	0.757333	-0.215487
C249	C	0.405835	-0.260940	0.056907
N250	N	0.383391	-0.242629	0.079372
H251	H	0.538964	0.069040	-0.076265
H252	H	0.386466	-0.011228	0.076258
C253	C	0.519642	0.646128	-0.126731
N254	N	0.542099	0.627801	-0.085957
C255	C	0.378735	0.630530	-0.603900
N256	N	0.356289	0.675432	-0.608024
H257	H	0.511845	0.272629	0.239079
H258	H	0.538966	0.310039	-0.397534
H259	H	0.223590	0.652514	-0.049161
C260	C	0.405769	0.186011	0.056871
N261	N	0.383302	0.167700	0.079307
H262	H	0.538966	0.310038	-0.317269
C263	C	-0.057206	0.462524	0.118779
N264	N	-0.038882	0.462517	0.150538
C265	C	0.462776	0.785478	-0.322987
N266	N	0.462790	0.822131	-0.359637
C267	C	0.405877	0.739023	-0.333449
N268	N	0.383455	0.757338	-0.374233
C269	C	0.405784	0.278919	0.056887
N270	N	0.383340	0.297251	0.079340
C271	C	0.546693	0.294565	-0.435960
N272	N	0.569136	0.249661	-0.395190
C273	C	0.519636	-0.260925	-0.056915
N274	N	0.542091	-0.242604	-0.079365
H275	H	-0.143791	0.462531	0.107821
H276	H	0.782076	0.192345	0.221005
C277	C	0.405816	0.646156	-0.240549
N278	N	0.383348	0.627850	-0.244685
H279	H	0.511842	0.272596	-0.049179
H280	H	0.511852	0.364211	-0.221094
C281	C	0.785717	0.139563	0.322947
N282	N	0.822385	0.102903	0.359595
C283	C	0.243113	0.739089	0.056903
N284	N	0.247251	0.757405	0.079361
H285	H	0.152379	0.772930	0.000007
C286	C	0.785678	0.139523	-0.000056
N287	N	0.822327	0.102858	-0.000065
H288	H	0.683784	0.192339	0.319350
H289	H	0.538974	-0.011229	-0.076262
H290	H	0.386473	-0.143969	0.076248
C291	C	0.519587	0.186063	0.333409
N292	N	0.542046	0.167743	0.374180
C293	C	0.546725	-0.057387	-0.084002
N294	N	0.569181	-0.039067	-0.106454
H295	H	0.413567	-0.347508	0.049143
H296	H	0.321936	0.652496	0.049152
H297	H	0.413513	0.192354	0.221069
H298	H	0.603501	0.272600	0.239095
H299	H	0.386469	-0.063706	0.076248
H300	H	0.413519	0.272607	0.140786
C301	C	0.589414	0.278908	-0.056925
N302	N	0.548636	0.297239	-0.079379
H303	H	-0.267049	0.462518	-0.069541
C304	C	0.279071	0.462549	-0.080477
N305	N	0.297400	0.462544	-0.112226
C306	C	0.279059	0.462563	0.080460
N307	N	0.297395	0.462560	0.112209
C308	C	-0.353641	0.462503	-0.080484
N309	N	-0.371969	0.462489	-0.112224
C310	C	-0.353654	0.462532	0.080447
N311	N	-0.371980	0.462532	0.112199
H312	H	-0.267066	0.462526	0.069504
H313	H	-0.011047	0.462528	0.107834
C314	C	0.075539	0.462529	0.118786
N315	N	0.093860	0.462533	0.150538
C316	C	-0.057180	0.462506	-0.118795
N317	N	-0.038852	0.462500	-0.150545
C318	C	-0.150093	0.462499	-0.118789
N319	N	-0.168423	0.462488	-0.150530
H320	H	0.386470	0.615034	-0.469740
H321	H	0.413551	0.560830	-0.239106
C322	C	0.405817	0.576358	-0.780360
N323	N	0.383372	0.621259	-0.784482
H324	H	0.386473	0.615040	-0.550003
H325	H	0.511852	0.364210	-0.140815
