data_functionalizedCrystal
_audit_creation_method	'MofGen! by Chris Wilmer'
_symmetry_space_group_name_H-M	'P1'
_symmetry_Int_Tables_number	1
_symmetry_cell_setting	triclinic
loop_
_symmetry_equiv_pos_as_xyz
  x,y,z
_cell_length_a	12.594517
_cell_length_b	12.594509
_cell_length_c	12.645330
_cell_angle_alpha	89.972877
_cell_angle_beta	90.017492
_cell_angle_gamma	89.978673
loop_
_atom_site_label
_atom_site_type_symbol
_atom_site_fract_x
_atom_site_fract_y
_atom_site_fract_z
Zn1	Zn	1.627255	-0.601868	-0.422013
Zn2	Zn	1.627141	-0.423893	-0.599308
Zn3	Zn	1.449259	-0.423897	-0.422058
Zn4	Zn	1.449236	-0.601823	-0.599234
O5	O	1.538222	-0.512870	-0.510653
O6	O	1.776185	-0.578277	-0.445543
O7	O	1.603506	-0.274948	-0.575845
O8	O	1.472928	-0.447526	-0.273705
O9	O	1.776102	-0.447519	-0.575801
O10	O	1.603701	-0.578281	-0.273672
O11	O	1.472817	-0.274951	-0.445621
O12	O	1.300310	-0.447482	-0.445549
O13	O	1.472889	-0.750775	-0.575676
O14	O	1.300293	-0.578204	-0.575720
O15	O	1.603678	-0.750808	-0.445472
O16	O	1.603484	-0.447475	-0.747645
O17	O	1.472778	-0.578200	-0.747591
C18	C	1.261682	-0.512839	-0.510632
C19	C	1.143376	-0.512851	-0.510649
C20	C	1.074101	-0.441887	-0.439752
C21	C	1.003287	-0.415709	-0.536451
C22	C	1.003391	-0.539047	-0.413997
C23	C	1.074121	-0.486622	-0.607398
C24	C	1.074230	-0.610005	-0.484879
C25	C	1.003448	-0.583864	-0.581645
C26	C	1.538294	-0.790491	-0.510561
C27	C	1.538324	-0.908797	-0.510521
C28	C	1.467210	-0.978032	-0.581299
C29	C	1.564330	-1.048823	-0.607200
C30	C	1.441280	-1.048805	-0.484555
C31	C	1.635495	-0.978030	-0.536474
C32	C	1.512380	-0.978006	-0.413783
C33	C	1.609566	-1.048765	-0.439649
C34	C	1.815843	-0.512903	-0.510676
C35	C	1.934149	-0.512916	-0.510685
C36	C	1.538145	-0.512856	-0.786083
C37	C	1.538209	-0.512885	-0.903913
C38	C	1.538213	-0.236329	-0.510669
C39	C	1.538389	-0.118025	-0.510410
C40	C	1.456321	-0.595377	-1.071487
C41	C	1.455902	-0.595112	-0.948928
C42	C	1.507845	-0.400712	-0.948512
C43	C	1.507345	-0.401213	-1.071110
C44	C	1.650962	-0.541656	-1.071002
C45	C	1.650271	-0.544108	-0.948395
C46	C	1.538329	-0.512909	-0.234148
C47	C	1.538375	-0.512925	-0.116318
H48	H	1.105060	-0.464401	-0.689174
F49	F	1.114989	-0.717331	-0.456325
H50	H	1.426400	-0.375934	-0.917901
F51	F	0.962774	-0.567971	-0.307144
H52	H	1.673170	-0.626662	-0.919241
H53	H	1.678662	-0.622062	-1.101843
H54	H	1.714625	-0.488428	-0.917747
F55	F	0.963152	-0.662342	-0.660117
H56	H	1.717615	-0.947071	-0.558483
H57	H	1.359184	-1.079895	-0.462639
H58	H	1.407118	-0.946976	-0.641246
H59	H	0.972128	-0.333575	-0.558270
F60	F	1.582062	-0.318171	-1.109881
H61	H	1.586309	-1.079930	-0.688962
F62	F	1.688296	-1.089108	-0.361353
F63	F	1.114653	-0.363354	-0.361463
F64	F	1.483615	-0.937314	-0.306945
H65	H	1.425043	-0.376874	-1.099802
F66	F	1.480731	-0.703828	-0.909507
F67	F	1.730871	-0.463175	-1.108911
F68	F	1.480919	-0.704453	-1.109928
F69	F	1.347908	-0.570834	-1.111896
H70	H	1.372435	-0.576077	-0.919694
F71	F	1.583482	-0.318217	-0.910406
