data_functionalizedCrystal
_audit_creation_method	'MofGen! by Chris Wilmer'
_symmetry_space_group_name_H-M	'P1'
_symmetry_Int_Tables_number	1
_symmetry_cell_setting	triclinic
loop_
_symmetry_equiv_pos_as_xyz
  x,y,z
_cell_length_a	15.944545
_cell_length_b	15.944551
_cell_length_c	9.730223
_cell_angle_alpha	89.994648
_cell_angle_beta	89.999494
_cell_angle_gamma	83.497455
loop_
_atom_site_label
_atom_site_type_symbol
_atom_site_fract_x
_atom_site_fract_y
_atom_site_fract_z
O1	O	1.114526	0.108307	-0.114204
O2	O	0.869976	0.121668	-0.114227
O3	O	0.998929	-0.007287	-0.114202
O4	O	0.985573	0.237263	-0.114228
O5	O	0.998921	-0.007291	0.114378
O6	O	0.869967	0.121665	0.114353
O7	O	1.114518	0.108303	0.114376
Zn8	Zn	0.992241	0.114984	0.150657
Zn9	Zn	0.992252	0.114988	-0.150507
O10	O	0.985564	0.237259	0.114352
C11	C	0.838677	0.121113	0.000061
C12	C	0.745431	0.119453	0.000052
C13	C	0.474798	0.034559	0.000076
C14	C	0.525376	0.075486	0.112777
C15	C	0.409787	0.113532	0.000077
C16	C	0.525365	0.075511	-0.112585
C17	C	0.574701	0.116437	0.000062
C18	C	0.459137	0.154438	0.112870
C19	C	0.459122	0.154451	-0.112593
C20	C	0.509667	0.195436	0.000136
C21	C	0.314785	0.111856	0.000086
C22	C	0.669700	0.118119	0.000063
C23	C	0.998370	-0.038583	0.000088
C24	C	0.996708	-0.131829	0.000089
C25	C	0.912803	-0.346684	0.000062
C26	C	0.951762	-0.407704	0.112769
C27	C	0.993701	-0.302555	0.000078
C28	C	0.951789	-0.407684	-0.112593
C29	C	0.990790	-0.467468	0.000061
C30	C	1.032681	-0.362347	0.112878
C31	C	1.032697	-0.362320	-0.112585
C32	C	1.071715	-0.423322	0.000150
C33	C	0.995375	-0.207553	0.000088
C34	C	0.989122	-0.562469	0.000060
C35	C	1.145816	0.108859	0.000086
C36	C	1.239062	0.110519	0.000085
C37	C	0.986123	0.268555	0.000059
C38	C	0.987785	0.361801	0.000049
N39	N	0.992240	0.114980	0.356193
N40	N	0.992260	0.114985	-0.356044
C41	C	1.049360	0.057902	0.428130
C42	C	1.049368	0.057902	0.572013
C43	C	0.935134	0.172066	0.572010
C44	C	0.935122	0.172061	0.428129
H45	H	0.554286	0.042146	-0.207859
C46	C	0.905551	-0.434816	-0.241316
N47	N	0.870720	-0.455247	-0.338265
H48	H	0.554303	0.042132	0.208064
C49	C	0.822092	-0.301678	0.000207
N50	N	0.753771	-0.267776	0.000326
H51	H	0.917542	-0.427813	0.208048
C52	C	1.162505	-0.468129	0.000247
N53	N	1.230887	-0.501880	0.000329
C54	C	1.112184	-0.004895	0.349005
N55	N	1.159502	-0.052198	0.289412
H56	H	1.066865	-0.342358	0.208268
H57	H	1.066888	-0.342189	-0.207869
C58	C	0.453643	-0.057319	0.000236
N59	N	0.437706	-0.126520	0.000365
H60	H	1.095879	0.011424	0.630580
H61	H	0.888631	0.218541	0.630594
C62	C	0.872321	0.234892	0.348994
N63	N	0.825034	0.282227	0.289390
H64	H	0.525159	0.263501	0.000194
C65	C	0.420014	0.199467	-0.241327
N66	N	0.390556	0.233367	-0.338301
C67	C	0.420215	0.199455	0.241734
N68	N	0.390898	0.233358	0.338795
