data_functionalizedCrystal
_audit_creation_method	'MofGen! by Chris Wilmer'
_symmetry_space_group_name_H-M	'P1'
_symmetry_Int_Tables_number	1
_symmetry_cell_setting	triclinic
loop_
_symmetry_equiv_pos_as_xyz
  x,y,z
_cell_length_a	15.944545
_cell_length_b	15.944493
_cell_length_c	9.730223
_cell_angle_alpha	90.004543
_cell_angle_beta	90.002580
_cell_angle_gamma	83.485608
loop_
_atom_site_label
_atom_site_type_symbol
_atom_site_fract_x
_atom_site_fract_y
_atom_site_fract_z
O1	O	1.114500	0.108306	-0.114183
O2	O	0.869947	0.121668	-0.114203
O3	O	0.998927	-0.007291	-0.114204
O4	O	0.985520	0.237266	-0.114182
O5	O	0.998926	-0.007288	0.114376
O6	O	0.869945	0.121672	0.114377
O7	O	1.114499	0.108310	0.114397
Zn8	Zn	0.992222	0.114991	0.150679
Zn9	Zn	0.992224	0.114987	-0.150485
O10	O	0.985518	0.237269	0.114398
C11	C	0.838652	0.121116	0.000084
C12	C	0.745406	0.119456	0.000076
C13	C	0.998378	-0.038584	0.000080
C14	C	0.996735	-0.131833	0.000063
C15	C	0.474791	0.034560	0.000083
C16	C	0.525364	0.075492	0.112792
C17	C	0.409764	0.113535	0.000099
C18	C	0.525346	0.075510	-0.112570
C19	C	0.574677	0.116440	0.000085
C20	C	0.459108	0.154446	0.112901
C21	C	0.459086	0.154452	-0.112563
C22	C	0.509626	0.195442	0.000174
C23	C	0.314762	0.111860	0.000108
C24	C	0.669676	0.118122	0.000086
C25	C	1.072656	-0.367594	0.000095
C26	C	1.031716	-0.418163	-0.112609
C27	C	0.993691	-0.302554	0.000079
C28	C	1.031696	-0.418136	0.112752
C29	C	0.990757	-0.467463	0.000101
C30	C	0.952772	-0.351894	-0.112718
C31	C	0.952764	-0.351864	0.112745
C32	C	0.911766	-0.402400	0.000013
C33	C	0.995384	-0.207554	0.000065
C34	C	0.989058	-0.562460	0.000105
C35	C	1.145793	0.108862	0.000107
C36	C	1.239039	0.110522	0.000107
C37	C	0.986067	0.268562	0.000111
C38	C	0.987710	0.361811	0.000120
N39	N	0.992227	0.114993	0.356216
N40	N	0.992226	0.114978	-0.356021
C41	C	1.049353	0.057909	0.428141
C42	C	1.049351	0.057899	0.572024
C43	C	0.935093	0.172064	0.572043
C44	C	0.935091	0.172070	0.428163
C45	C	1.115322	-0.008001	0.428131
C46	C	1.115320	-0.008011	0.572014
H47	H	0.459152	-0.033454	0.000186
H48	H	0.525104	0.263508	0.000246
O49	O	1.071633	-0.452683	-0.226173
C50	C	1.156386	-0.435303	-0.225788
H51	H	1.176434	-0.422224	-0.116113
H52	H	1.198400	-0.491982	-0.268354
H53	H	1.162857	-0.377651	-0.292586
O54	O	0.559782	0.035786	0.226602
C55	C	0.524734	0.076712	0.345242
H56	H	0.460750	0.112495	0.318976
H57	H	0.516360	0.027797	0.428085
H58	H	0.568750	0.122936	0.384601
H59	H	0.843695	-0.417864	-0.000054
H60	H	0.919444	-0.323075	-0.208103
O61	O	0.913136	-0.317359	0.226554
C62	C	0.954989	-0.351292	0.345155
H63	H	1.022916	-0.375899	0.318159
H64	H	0.954745	-0.300064	0.426938
H65	H	0.921150	-0.405350	0.386274
O66	O	0.424593	0.194085	-0.226371
C67	C	0.458524	0.152225	-0.344973
H68	H	0.483118	0.084295	-0.317978
H69	H	0.407298	0.152477	-0.426758
H70	H	0.512590	0.186054	-0.386087
H71	H	0.430291	0.187775	0.208289
O72	O	1.192106	0.008595	0.618783
C73	C	1.182444	0.082608	0.699244
H74	H	1.115103	0.093506	0.740201
H75	H	1.228595	0.075400	0.789084
H76	H	1.195821	0.138764	0.633514
H77	H	0.888574	0.218534	0.630638
H78	H	1.095452	-0.068850	0.616622
O79	O	1.071608	-0.452561	0.226385
C80	C	1.156370	-0.435210	0.225937
H81	H	1.162479	-0.377136	0.159959
H82	H	1.177040	-0.422838	0.335542
H83	H	1.198132	-0.491622	0.181948
O84	O	0.879711	0.227556	0.358147
C85	C	0.924675	0.279431	0.274966
H86	H	0.990408	0.246022	0.253401
H87	H	0.889611	0.292704	0.173793
H88	H	0.930366	0.341512	0.330439
O89	O	1.099031	-0.084904	0.381443
C90	C	1.167404	-0.120790	0.300941
H91	H	1.226833	-0.091524	0.330671
H92	H	1.177742	-0.191812	0.319438
H93	H	1.152928	-0.108052	0.187621
O94	O	1.187782	0.015938	0.374847
C95	C	1.168576	0.088697	0.293354
H96	H	1.105370	0.123203	0.326975
H97	H	1.220089	0.132144	0.306367
H98	H	1.164740	0.069581	0.180824
O99	O	0.559767	0.035591	-0.226204
C100	C	0.542399	-0.049166	-0.225762
H101	H	0.484322	-0.055263	-0.159785
H102	H	0.530025	-0.069832	-0.335370
H103	H	0.598804	-0.090938	-0.181778
H104	H	1.140674	-0.351967	-0.000013
