data_functionalizedCrystal
_audit_creation_method	'MofGen! by Chris Wilmer'
_symmetry_space_group_name_H-M	'P1'
_symmetry_Int_Tables_number	1
_symmetry_cell_setting	triclinic
loop_
_symmetry_equiv_pos_as_xyz
  x,y,z
_cell_length_a	16.109301
_cell_length_b	11.892113
_cell_length_c	16.109301
_cell_angle_alpha	94.370065
_cell_angle_beta	83.461532
_cell_angle_gamma	94.366300
loop_
_atom_site_label
_atom_site_type_symbol
_atom_site_fract_x
_atom_site_fract_y
_atom_site_fract_z
O1	O	1.107870	0.093945	0.111606
O2	O	1.607870	0.593945	0.611606
O3	O	0.865809	0.093962	0.124906
O4	O	1.365809	0.593962	0.624906
O5	O	0.993488	0.093941	-0.002776
O6	O	1.493488	0.593941	0.497224
O7	O	0.980190	0.093965	0.239287
O8	O	1.480190	0.593965	0.739287
O9	O	0.983995	-0.094066	-0.012261
O10	O	1.483995	0.405934	0.487739
O11	O	0.856316	-0.094046	0.115421
O12	O	1.356316	0.405954	0.615421
O13	O	1.098377	-0.094062	0.102121
O14	O	1.598377	0.405938	0.602121
Zn15	Zn	0.975839	-0.123905	0.107265
Zn16	Zn	1.475839	0.376095	0.607265
Zn17	Zn	0.988346	0.123804	0.119762
Zn18	Zn	1.488346	0.623804	0.619762
O19	O	0.970697	-0.094042	0.229802
O20	O	1.470697	0.405958	0.729802
C21	C	0.830087	-0.000040	0.119624
C22	C	1.330087	0.499960	0.619624
C23	C	0.737792	-0.000034	0.118010
C24	C	1.237792	0.499966	0.618010
C25	C	0.428793	-0.000047	0.188492
C26	C	0.928793	0.499953	0.688492
C27	C	0.515514	-0.000040	0.190018
C28	C	1.015514	0.499960	0.690018
C29	C	0.535387	-0.000040	0.038529
C30	C	1.035387	0.499960	0.538529
C31	C	0.448669	-0.000039	0.037005
C32	C	0.948669	0.499961	0.537005
C33	C	0.395373	-0.000048	0.111988
C34	C	0.895373	0.499952	0.611988
C35	C	0.568813	-0.000043	0.115038
C36	C	1.068813	0.499957	0.615038
C37	C	0.662839	-0.000036	0.116692
C38	C	1.162839	0.499964	0.616692
C39	C	0.301341	-0.000053	0.110335
C40	C	0.801341	0.499947	0.610335
N41	N	0.967310	-0.292959	0.098736
N42	N	1.467310	0.207041	0.598736
C43	C	1.056227	-0.529605	0.187676
C44	C	1.556227	-0.029605	0.687676
C45	C	1.050271	-0.647947	0.181707
C46	C	1.550271	-0.147947	0.681707
C47	C	0.949448	-0.647987	0.080825
C48	C	1.449448	-0.147987	0.580825
C49	C	0.955403	-0.529645	0.086794
C50	C	1.455403	-0.029645	0.586794
C51	C	1.008794	-0.470458	0.140222
C52	C	1.508794	0.029542	0.640222
C53	C	1.014744	-0.352114	0.146195
C54	C	1.514744	0.147886	0.646195
C55	C	0.913926	-0.352156	0.045308
C56	C	1.413926	0.147844	0.545308
C57	C	0.907970	-0.470498	0.039340
C58	C	1.407970	0.029502	0.539340
C59	C	1.134098	-0.000058	0.107402
C60	C	1.634098	0.499942	0.607402
C61	C	1.226394	-0.000056	0.109017
C62	C	1.726394	0.499944	0.609017
C63	C	0.988203	-0.000063	-0.038493
C64	C	1.488203	0.499937	0.461507
C65	C	0.986588	-0.000064	-0.130789
C66	C	1.486588	0.499936	0.369211
N67	N	0.996882	0.292858	0.128284
N68	N	1.496882	0.792858	0.628284
C69	C	1.058596	-0.000051	-0.353060
C70	C	1.558596	0.499949	0.146940
C71	C	1.057073	-0.000042	-0.439780
C72	C	1.557073	0.499958	0.060220
C73	C	0.905584	-0.000036	-0.419906
C74	C	1.405584	0.499964	0.080094
C75	C	0.907109	-0.000037	-0.333187
C76	C	1.407109	0.499963	0.166813
C77	C	0.983617	-0.000051	-0.299767
C78	C	1.483617	0.499949	0.200233
C79	C	0.980569	-0.000040	-0.473206
C80	C	1.480569	0.499960	0.026794
C81	C	0.978916	-0.000030	-0.567231
C82	C	1.478916	0.499970	-0.067231
C83	C	0.985270	-0.000059	-0.205736
C84	C	1.485270	0.499941	0.294264
C85	C	0.975983	-0.000035	0.265520
C86	C	1.475983	0.499965	0.765520
C87	C	0.977598	-0.000026	0.357816
C88	C	1.477598	0.499974	0.857816
H89	H	1.058214	-0.303926	0.189703
H90	H	1.558214	0.196074	0.689703
H91	H	0.875298	-0.303986	0.006672
H92	H	1.375298	0.196014	0.506672
O93	O	0.834302	0.000163	-0.281368
O94	O	1.334302	0.500163	0.218632
C95	C	0.835578	0.097521	-0.225683
C96	C	1.335578	0.597521	0.274317
H97	H	0.881535	0.165575	-0.254021
H98	H	1.381535	0.665575	0.245979
H99	H	0.770256	0.130210	-0.214257
H100	H	1.270256	0.630210	0.285743
H101	H	0.855975	0.075508	-0.163743
H102	H	1.355975	0.575508	0.336257
O103	O	1.129844	-0.000194	-0.491642
O104	O	1.629844	0.499806	0.008358
C105	C	1.128590	-0.097574	-0.547307
C106	C	1.628590	0.402426	-0.047307
H107	H	1.060961	-0.130034	-0.553313
H108	H	1.560961	0.369966	-0.053313
H109	H	1.160681	-0.075670	-0.611386
H110	H	1.660681	0.424330	-0.111386
H111	H	1.163115	-0.165762	-0.522237
H112	H	1.663115	0.334238	-0.022237
O113	O	0.416306	0.000110	-0.037360
O114	O	0.916306	0.500110	0.462640
C115	C	0.448438	0.097494	-0.078139
C116	C	0.948438	0.597494	0.421861
H117	H	0.510216	0.129954	-0.053859
H118	H	1.010216	0.629954	0.446141
H119	H	0.459387	0.075596	-0.148485
H120	H	0.959387	0.575596	0.351515
H121	H	0.401696	0.165680	-0.065051
H122	H	0.901696	0.665680	0.434949
H123	H	1.120894	-0.000060	-0.325853
H124	H	1.620894	0.499940	0.174147
H125	H	0.864504	-0.518704	-0.004163
H126	H	1.364504	-0.018704	0.495837
O127	O	0.831198	0.000020	-0.452232
O128	O	1.331198	0.500020	0.047768
C129	C	0.765345	-0.000005	-0.386596
C130	C	1.265345	0.499995	0.113404
H131	H	0.790433	0.035587	-0.325895
H132	H	1.290433	0.535587	0.174105
H133	H	0.714685	0.054581	-0.401945
H134	H	1.214685	0.554581	0.098055
H135	H	0.737665	-0.090201	-0.378873
H136	H	1.237665	0.409799	0.121127
O137	O	0.377067	0.000156	0.261361
O138	O	0.877067	0.500156	0.761361
C139	C	0.397142	0.097517	0.312733
C140	C	0.897142	0.597517	0.812733
H141	H	0.430228	0.165569	0.272267
H142	H	0.930228	0.665569	0.772267
H143	H	0.337255	0.130205	0.347738
H144	H	0.837255	0.630205	0.847738
H145	H	0.440173	0.075506	0.359734
H146	H	0.940173	0.575506	0.859734
O147	O	0.548024	0.000167	0.264325
O148	O	1.048024	0.500167	0.764325
C149	C	0.602512	0.097531	0.274648
C150	C	1.102512	0.597531	0.774648
H151	H	0.585451	0.165579	0.234635
H152	H	1.085451	0.665579	0.734635
H153	H	0.596347	0.130223	0.343305
H154	H	1.096347	0.630223	0.843305
H155	H	0.669797	0.075524	0.254352
H156	H	1.169797	0.575524	0.754352
O157	O	0.587252	0.000109	-0.034243
O158	O	1.087252	0.500109	0.465757
C159	C	0.642911	0.097491	-0.032986
C160	C	1.142911	0.597491	0.467014
H161	H	0.648912	0.129955	0.034644
H162	H	1.148912	0.629955	0.534644
H163	H	0.706992	0.075586	-0.065075
H164	H	1.206992	0.575586	0.434925
H165	H	0.617837	0.165674	-0.067511
H166	H	1.117837	0.665674	0.432489
O167	O	1.108150	-0.472279	0.239591
O168	O	1.608150	0.027721	0.739591
C169	C	1.148719	-0.549862	0.280218
C170	C	1.648719	-0.049862	0.780218
H171	H	1.149340	-0.634225	0.241547
H172	H	1.649340	-0.134225	0.741547
H173	H	1.215812	-0.515649	0.287126
H174	H	1.715812	-0.015649	0.787126
H175	H	1.113812	-0.562447	0.344833
H176	H	1.613812	-0.062447	0.844833
H177	H	1.088897	-0.696100	0.220349
H178	H	1.588897	-0.196100	0.720349
H179	H	0.905989	-0.696197	0.037317
H180	H	1.405989	-0.196197	0.537317
