data_functionalizedCrystal
_audit_creation_method	'MofGen! by Chris Wilmer'
_symmetry_space_group_name_H-M	'P1'
_symmetry_Int_Tables_number	1
_symmetry_cell_setting	triclinic
loop_
_symmetry_equiv_pos_as_xyz
  x,y,z
_cell_length_a	14.519709
_cell_length_b	14.971486
_cell_length_c	13.448316
_cell_angle_alpha	89.998199
_cell_angle_beta	90.007547
_cell_angle_gamma	96.352863
loop_
_atom_site_label
_atom_site_type_symbol
_atom_site_fract_x
_atom_site_fract_y
_atom_site_fract_z
O1	O	0.120184	-1.187015	0.082580
O2	O	0.620184	-0.687015	0.582580
O3	O	0.134576	-0.926623	0.082607
O4	O	0.634576	-0.426623	0.582607
O5	O	-0.006863	-1.063723	0.082584
O6	O	0.493137	-0.563723	0.582584
O7	O	0.261623	-1.049915	0.082603
O8	O	0.761623	-0.549915	0.582603
O9	O	-0.006871	-1.063706	-0.082800
O10	O	0.493129	-0.563706	0.417200
O11	O	0.134567	-0.926606	-0.082777
O12	O	0.634567	-0.426606	0.417223
O13	O	0.120175	-1.186998	-0.082804
O14	O	0.620175	-0.686998	0.417196
Cu15	Cu	0.127371	-1.056800	-0.097891
Cu16	Cu	0.627371	-0.556800	0.402109
Cu17	Cu	0.127381	-1.056820	0.097694
Cu18	Cu	0.627381	-0.556820	0.597694
O19	O	0.261614	-1.049898	-0.082781
O20	O	0.761614	-0.549898	0.417219
C21	C	-0.041226	-1.063071	-0.000108
C22	C	0.458774	-0.563071	0.499892
C23	C	-0.143606	-1.061142	-0.000109
C24	C	0.356394	-0.561142	0.499891
C25	C	0.133928	-0.893289	-0.000082
C26	C	0.633928	-0.393289	0.499918
C27	C	0.131999	-0.793991	-0.000071
C28	C	0.631999	-0.293991	0.499929
C29	C	0.120823	-1.220331	-0.000113
C30	C	0.620823	-0.720331	0.499887
C31	C	0.122752	-1.319630	-0.000117
C32	C	0.622752	-0.819630	0.499883
C33	C	-0.518498	-1.054043	-0.000082
C34	C	-0.018498	-0.554043	0.499918
C35	C	-0.414191	-1.056015	-0.000090
C36	C	0.085809	-0.556015	0.499910
C37	C	-0.331055	-1.057593	-0.000096
C38	C	0.168945	-0.557593	0.499904
C39	C	-0.226742	-1.059564	-0.000102
C40	C	0.273258	-0.559564	0.499898
C41	C	0.295978	-1.050550	-0.000087
C42	C	0.795978	-0.550550	0.499913
C43	C	0.398358	-1.052478	-0.000080
C44	C	0.898358	-0.552478	0.499920
N45	N	0.127363	-1.056792	-0.235456
N46	N	0.627363	-0.556792	0.264544
C47	C	0.215091	-0.736812	-0.000067
C48	C	0.715091	-0.236812	0.499933
C49	C	0.213273	-0.643512	-0.000082
C50	C	0.713273	-0.143512	0.499918
C51	C	0.128363	-0.607392	-0.000094
C52	C	0.628363	-0.107392	0.499906
C53	C	0.045265	-0.664578	-0.000102
C54	C	0.545265	-0.164578	0.499898
C55	C	0.047084	-0.757876	-0.000094
C56	C	0.547084	-0.257876	0.499906
C57	C	0.041480	-0.470113	-0.000116
C58	C	0.541480	0.029887	0.499884
C59	C	0.039661	-0.376808	-0.000122
C60	C	0.539661	0.123192	0.499878
C61	C	0.207669	-0.355749	-0.000104
C62	C	0.707669	0.144251	0.499896
C63	C	0.209488	-0.449047	-0.000096
C64	C	0.709488	0.050953	0.499904
C65	C	0.126390	-0.506227	-0.000101
C66	C	0.626390	-0.006227	0.499899
C67	C	0.064759	-1.117519	-0.287506
C68	C	0.564759	-0.617519	0.212494
C69	C	0.064759	-1.117525	-0.391610
C70	C	0.564759	-0.617525	0.108390
C71	C	0.127366	-1.056807	-0.443660
C72	C	0.627366	-0.556807	0.056340
C73	C	0.189973	-0.996074	-0.391602
C74	C	0.689973	-0.496074	0.108398
C75	C	0.189968	-0.996065	-0.287501
C76	C	0.689968	-0.496065	0.212499
C77	C	0.189979	-0.996099	-0.608582
C78	C	0.689979	-0.496099	-0.108582
C79	C	0.189985	-0.996109	-0.712691
C80	C	0.689985	-0.496109	-0.212691
C81	C	0.064769	-1.117559	-0.712691
C82	C	0.564769	-0.617559	-0.212691
C83	C	0.064765	-1.117549	-0.608590
C84	C	0.564765	-0.617549	-0.108590
C85	C	0.127373	-1.056817	-0.556539
C86	C	0.627373	-0.556817	-0.056539
N87	N	0.127381	-1.056835	0.235258
N88	N	0.627381	-0.556835	0.735258
H89	H	0.284234	-0.766213	-0.000056
H90	H	0.784234	-0.266213	0.499944
C91	C	-0.004107	-1.184342	-0.551336
C92	C	0.495893	-0.684342	-0.051336
N93	N	-0.055984	-1.234649	-0.508213
N94	N	0.444016	-0.734649	-0.008213
H95	H	0.240946	-0.946632	-0.433988
H96	H	0.740946	-0.446632	0.066012
C97	C	-0.004116	-1.184314	-0.230260
C98	C	0.495884	-0.684314	0.269740
N99	N	-0.055998	-1.234623	-0.187145
N100	N	0.444002	-0.734623	0.312855
H101	H	0.280934	-0.596960	-0.000077
H102	H	0.780934	-0.096960	0.499923
C103	C	0.258841	-0.929280	-0.551329
C104	C	0.758841	-0.429280	-0.051329
N105	N	0.310707	-0.878953	-0.508206
N106	N	0.810707	-0.378953	-0.008206
C107	C	-0.048137	-0.624842	-0.000117
C108	C	0.451863	-0.124842	0.499883
N109	N	-0.118490	-0.594915	-0.000125
N110	N	0.381510	-0.094915	0.499875
C111	C	0.258844	-0.929268	-0.230246
C112	C	0.758844	-0.429268	0.269754
N113	N	0.310724	-0.878954	-0.187122
N114	N	0.810724	-0.378954	0.312878
C115	C	0.302893	-0.488777	-0.000086
C116	C	0.802893	0.011223	0.499914
N117	N	0.373248	-0.518701	-0.000084
N118	N	0.873248	-0.018701	0.499916
H119	H	0.275331	-0.309188	-0.000103
H120	H	0.775331	0.190812	0.499897
H121	H	-0.020578	-0.804431	-0.000097
H122	H	0.479422	-0.304431	0.499903
C123	C	-0.004103	-1.184362	-0.769949
C124	C	0.495897	-0.684362	-0.269949
N125	N	-0.055975	-1.234677	-0.813080
N126	N	0.444025	-0.734677	-0.313080
H127	H	0.013782	-1.166972	-0.433989
H128	H	0.513782	-0.666972	0.066011
H129	H	-0.029481	-0.347403	-0.000133
H130	H	0.470519	0.152597	0.499867
C131	C	0.258851	-0.929311	-0.769945
C132	C	0.758851	-0.429311	-0.269945
N133	N	0.310721	-0.878997	-0.813068
N134	N	0.810721	-0.378997	-0.313068
H135	H	-0.026188	-0.516667	-0.000122
H136	H	0.473812	-0.016667	0.499878
