data_functionalizedCrystal
_audit_creation_method	'MofGen! by Chris Wilmer'
_symmetry_space_group_name_H-M	'P1'
_symmetry_Int_Tables_number	1
_symmetry_cell_setting	triclinic
loop_
_symmetry_equiv_pos_as_xyz
  x,y,z
_cell_length_a	12.594516
_cell_length_b	13.897449
_cell_length_c	13.897441
_cell_angle_alpha	90.020733
_cell_angle_beta	89.973623
_cell_angle_gamma	89.982668
loop_
_atom_site_label
_atom_site_type_symbol
_atom_site_fract_x
_atom_site_fract_y
_atom_site_fract_z
Zn1	Zn	-0.423672	-1.474714	-0.545409
Zn2	Zn	-0.601683	-1.474612	-0.384123
Zn3	Zn	-0.423722	-1.313403	-0.384128
Zn4	Zn	-0.601613	-1.313389	-0.545375
O5	O	-0.512672	-1.394029	-0.464759
O6	O	-0.447293	-1.609682	-0.524027
O7	O	-0.578126	-1.453191	-0.249142
O8	O	-0.274770	-1.334849	-0.405539
O9	O	-0.578077	-1.609607	-0.405530
O10	O	-0.274733	-1.453364	-0.524032
O11	O	-0.447380	-1.334751	-0.249145
O12	O	-0.447312	-1.178419	-0.405506
O13	O	-0.577958	-1.334826	-0.680362
O14	O	-0.578007	-1.178409	-0.523973
O15	O	-0.447226	-1.453350	-0.680387
O16	O	-0.750619	-1.453177	-0.405497
O17	O	-0.750568	-1.334728	-0.523968
C18	C	-0.512658	-1.143415	-0.464737
C19	C	-0.512678	-1.036201	-0.464750
C20	C	-0.789213	-1.393966	-0.464749
C21	C	-0.907519	-1.394027	-0.464778
C22	C	-0.512578	-1.394098	-0.716352
C23	C	-0.512538	-1.394127	-0.823566
C24	C	-0.976783	-1.329596	-0.529169
C25	C	-1.047649	-1.306093	-0.441152
C26	C	-1.047452	-1.417619	-0.552810
C27	C	-0.976827	-1.370477	-0.376714
C28	C	-0.976623	-1.482044	-0.488431
C29	C	-1.047457	-1.458574	-0.400353
C30	C	-0.235052	-1.394119	-0.464789
C31	C	-0.116746	-1.394157	-0.464802
C32	C	-0.512687	-1.645622	-0.464781
C33	C	-0.512694	-1.752836	-0.464791
C34	C	-0.512682	-0.839906	-0.464776
C35	C	-0.512676	-0.949139	-0.464759
C36	C	-0.512466	-1.394153	-1.019861
C37	C	-0.512509	-1.394136	-0.910629
C38	C	-0.512689	-1.394017	-0.214145
C39	C	-0.512430	-1.394174	-0.106931
H40	H	-0.945749	-1.275011	-0.583543
H41	H	-1.078475	-1.437520	-0.627247
H42	H	-1.078870	-1.231719	-0.421166
H43	H	-1.078294	-1.513117	-0.345847
H44	H	-0.945932	-1.350490	-0.302256
C45	C	-0.970049	-1.606916	-0.607717
C46	C	-0.934466	-1.582420	-0.515467
H47	H	-0.944014	-1.668881	-0.624416
H48	H	-1.045456	-1.607552	-0.608498
H49	H	-0.944793	-1.560932	-0.652802
H50	H	-0.959729	-1.628401	-0.470380
H51	H	-0.859043	-1.581791	-0.514679
