data_functionalizedCrystal
_audit_creation_method	'MofGen! by Chris Wilmer'
_symmetry_space_group_name_H-M	'P1'
_symmetry_Int_Tables_number	1
_symmetry_cell_setting	triclinic
loop_
_symmetry_equiv_pos_as_xyz
  x,y,z
_cell_length_a	12.827893
_cell_length_b	13.897447
_cell_length_c	12.827885
_cell_angle_alpha	89.968996
_cell_angle_beta	89.980919
_cell_angle_gamma	90.019501
loop_
_atom_site_label
_atom_site_type_symbol
_atom_site_fract_x
_atom_site_fract_y
_atom_site_fract_z
Zn1	Zn	1.597640	-0.383969	-0.590835
Zn2	Zn	1.597521	-0.545295	-0.416091
Zn3	Zn	1.422881	-0.384016	-0.416109
Zn4	Zn	1.422854	-0.545224	-0.590792
O5	O	1.510224	-0.464626	-0.503456
O6	O	1.743860	-0.405380	-0.567665
O7	O	1.574316	-0.523951	-0.269857
O8	O	1.446124	-0.249028	-0.439312
O9	O	1.743773	-0.523905	-0.439282
O10	O	1.574518	-0.248994	-0.567682
O11	O	1.446009	-0.405460	-0.269870
O12	O	1.276641	-0.405390	-0.439270
O13	O	1.446077	-0.523783	-0.737033
O14	O	1.276621	-0.523829	-0.567609
O15	O	1.574492	-0.405310	-0.737065
O16	O	1.574290	-0.680267	-0.439240
O17	O	1.445963	-0.680215	-0.567592
C18	C	1.238714	-0.464607	-0.503437
C19	C	1.122561	-0.464623	-0.503454
C20	C	1.070733	-0.523183	-0.439842
C21	C	0.950683	-0.523200	-0.439857
C22	C	1.510139	-0.715240	-0.503432
C23	C	1.510198	-0.822454	-0.503457
C24	C	1.510249	-0.909524	-0.503481
C25	C	1.510322	-1.018756	-0.503508
C26	C	1.782794	-0.464645	-0.503476
C27	C	1.898947	-0.464654	-0.503485
C28	C	1.510295	-0.464533	-0.776027
C29	C	1.510325	-0.464494	-0.892180
C30	C	1.510338	-0.213033	-0.503504
C31	C	1.510386	-0.105819	-0.503524
C32	C	1.573876	-0.405858	-0.943980
C33	C	1.573908	-0.405816	-1.064031
C34	C	1.510213	-0.464649	-0.231947
C35	C	1.510385	-0.464416	-0.115794
H36	H	0.943511	-0.414511	-0.557944
H37	H	1.455935	-0.514656	-0.936709
Br38	Br	1.664493	-0.322205	-0.869774
H39	H	1.628320	-0.355619	-1.108578
H40	H	1.115238	-0.573309	-0.385373
H41	H	1.455978	-0.514623	-1.071254
Br42	Br	1.048394	-0.381084	-0.594260
Br43	Br	0.876404	-0.606760	-0.349071
