data_functionalizedCrystal
_audit_creation_method	'MofGen! by Chris Wilmer'
_symmetry_space_group_name_H-M	'P1'
_symmetry_Int_Tables_number	1
_symmetry_cell_setting	triclinic
loop_
_symmetry_equiv_pos_as_xyz
  x,y,z
_cell_length_a	17.699083
_cell_length_b	14.472310
_cell_length_c	17.699083
_cell_angle_alpha	89.998025
_cell_angle_beta	96.716985
_cell_angle_gamma	90.006988
loop_
_atom_site_label
_atom_site_type_symbol
_atom_site_fract_x
_atom_site_fract_y
_atom_site_fract_z
O1	O	1.004086	0.076713	-0.095706
O2	O	0.783707	0.076744	-0.108158
O3	O	0.900123	0.076719	0.008257
O4	O	0.887670	0.076738	-0.212121
O5	O	0.900093	-0.076963	0.008250
O6	O	0.783677	-0.076938	-0.108165
O7	O	1.004056	-0.076969	-0.095713
Cu8	Cu	0.893864	-0.090986	-0.101940
Cu9	Cu	0.893899	0.090761	-0.101932
O10	O	0.887640	-0.076944	-0.212128
C11	C	0.755495	-0.000093	-0.107716
C12	C	0.671477	-0.000082	-0.106377
N13	N	0.893845	-0.218817	-0.101945
C14	C	0.622856	-0.000077	-0.174710
C15	C	0.543913	-0.000089	-0.173448
C16	C	0.513592	-0.000100	-0.103852
C17	C	0.562219	-0.000108	-0.035513
C18	C	0.641161	-0.000102	-0.036776
C19	C	0.243856	-0.000131	-0.030418
C20	C	0.164908	-0.000134	-0.029160
C21	C	0.146608	-0.000118	-0.167090
C22	C	0.225550	-0.000112	-0.168353
C23	C	0.274170	-0.000125	-0.100015
C24	C	0.359769	-0.000114	-0.101384
C25	C	0.427995	-0.000104	-0.102481
C26	C	0.893898	-0.592908	-0.101929
C27	C	0.831399	-0.553729	-0.164012
C28	C	0.831542	-0.446641	-0.164238
C29	C	0.893871	-0.407317	-0.101937
C30	C	0.972811	-0.446163	-0.119040
C31	C	0.972460	-0.553285	-0.119481
C32	C	0.878163	-0.553441	-0.022557
C33	C	0.876351	-0.446313	-0.023090
C34	C	0.893860	-0.302429	-0.101940
C35	C	0.893914	-0.697796	-0.101927
C36	C	1.032268	-0.000130	-0.096156
C37	C	1.116286	-0.000135	-0.097494
C38	C	0.899662	-0.000122	0.036451
C39	C	0.898323	-0.000122	0.120469
N40	N	0.893925	0.218592	-0.101920
C41	C	0.888102	-0.000101	-0.240322
C42	C	0.889440	-0.000095	-0.324340
C43	C	0.966656	-0.000133	0.169090
C44	C	0.965394	-0.000124	0.248033
C45	C	0.895798	-0.000112	0.278354
C46	C	0.827459	-0.000098	0.229727
C47	C	0.828722	-0.000100	0.150785
C48	C	0.822364	-0.000090	0.548090
C49	C	0.821106	-0.000091	0.627038
C50	C	0.959036	-0.000114	0.645338
C51	C	0.960299	-0.000116	0.566396
C52	C	0.891961	-0.000098	0.517776
C53	C	0.893330	-0.000105	0.432177
C54	C	0.894427	-0.000111	0.363951
H55	H	0.647537	-0.000067	-0.231384
H56	H	0.107012	-0.000112	-0.222734
H57	H	1.021038	-0.000135	0.287618
O58	O	0.529522	-0.000127	0.039555
H59	H	0.494003	0.062512	0.043439
H60	H	0.773078	-0.000091	0.111198
H61	H	0.140225	-0.000144	0.027517
H62	H	0.841292	-0.580636	-0.222584
O63	O	1.032749	-0.000126	0.697777
H64	H	1.020183	-0.000113	0.757765
O65	O	0.752391	-0.000094	0.262423
H66	H	0.762991	-0.000108	0.325485
H67	H	1.023330	-0.000148	0.144409
O68	O	1.035888	-0.412427	-0.060735
H69	H	1.011585	-0.367502	-0.018850
O70	O	1.035362	-0.000116	0.533690
H71	H	1.082669	-0.000109	0.580763
O72	O	0.746038	-0.000070	0.659745
H73	H	0.698730	-0.000048	0.612675
O74	O	1.035905	-0.587621	-0.061857
H75	H	1.075918	-0.630093	-0.091046
H76	H	0.250232	-0.000099	-0.225025
H77	H	0.680748	-0.000106	0.018868
H78	H	0.987035	-0.419324	-0.176260
O79	O	0.932755	-0.410864	0.040956
H80	H	0.902097	-0.371790	0.081919
O81	O	0.753809	-0.411840	-0.150784
H82	H	0.715775	-0.471523	-0.144061
H83	H	0.772526	-0.579510	-0.154013
O84	O	0.296293	-0.000144	0.043286
H85	H	0.261944	-0.000145	0.091890
H86	H	0.504328	-0.000083	-0.229092
H87	H	0.766718	-0.000075	0.508512
H88	H	0.841575	-0.421004	-0.223141
H89	H	0.986348	-0.578258	-0.177362
H90	H	0.821858	-0.580502	-0.006075
H91	H	0.818282	-0.420924	-0.010106
H92	H	0.923743	-0.578777	0.023642
