data_functionalizedCrystal
_audit_creation_method	'MofGen! by Chris Wilmer'
_symmetry_space_group_name_H-M	'P1'
_symmetry_Int_Tables_number	1
_symmetry_cell_setting	triclinic
loop_
_symmetry_equiv_pos_as_xyz
  x,y,z
_cell_length_a	15.297475
_cell_length_b	16.959454
_cell_length_c	15.296720
_cell_angle_alpha	80.351722
_cell_angle_beta	88.382886
_cell_angle_gamma	80.323279
loop_
_atom_site_label
_atom_site_type_symbol
_atom_site_fract_x
_atom_site_fract_y
_atom_site_fract_z
Zn1	Zn	1.253421	-0.615181	0.726635
Zn2	Zn	1.278688	-0.729000	0.580157
Zn3	Zn	1.132298	-0.570776	0.554873
Zn4	Zn	1.106914	-0.721230	0.701285
O5	O	1.192830	-0.659047	0.640738
O6	O	1.379352	-0.652115	0.728395
O7	O	1.280466	-0.692679	0.454228
O8	O	1.148414	-0.466067	0.577685
O9	O	1.397915	-0.735737	0.620778
O10	O	1.237403	-0.498691	0.703878
O11	O	1.172914	-0.576432	0.435651
O12	O	1.006352	-0.568898	0.553104
O13	O	1.105151	-0.722495	0.827223
O14	O	0.987702	-0.679437	0.660673
O15	O	1.212790	-0.644581	0.845848
O16	O	1.255853	-0.838569	0.596198
O17	O	1.129651	-0.832860	0.685190
C18	C	0.965244	-0.618506	0.601395
C19	C	0.867878	-0.601185	0.584584
C20	C	0.554738	-0.782854	0.760885
C21	C	0.646218	-0.799134	0.776677
C22	C	0.701637	-0.749648	0.728655
C23	C	0.665567	-0.683879	0.664839
C24	C	0.574078	-0.667601	0.649041
C25	C	0.720978	-0.634395	0.616811
C26	C	0.684908	-0.568627	0.552995
C27	C	0.593428	-0.552351	0.537200
C28	C	0.538009	-0.601837	0.585221
C29	C	0.812467	-0.650673	0.632609
C30	C	0.831808	-0.535421	0.520765
C31	C	0.740327	-0.519141	0.504973
C32	C	1.192759	-0.864398	0.640710
C33	C	1.192804	-0.952266	0.640741
C34	C	1.127199	-1.320817	0.687084
C35	C	1.258690	-1.326729	0.594523
C36	C	1.258660	-1.244176	0.594509
C37	C	1.192899	-1.199940	0.640783
C38	C	1.127167	-1.238256	0.687070
C39	C	1.324386	-1.205852	0.548216
C40	C	1.324359	-1.123295	0.548200
C41	C	1.258601	-1.079058	0.594479
C42	C	1.192866	-1.117379	0.640769
C43	C	1.127105	-1.073143	0.687042
C44	C	1.061373	-1.111464	0.733338
C45	C	1.061408	-1.194019	0.733349
C46	C	1.258566	-0.996503	0.594468
C47	C	1.127072	-0.990582	0.687028
C48	C	1.421305	-0.699746	0.680234
C49	C	1.518668	-0.717090	0.697066
C50	C	1.153320	-0.687624	0.869207
C51	C	1.136484	-0.699803	0.966567
C52	C	1.192922	-0.452900	0.640788
C53	C	1.192961	-0.365053	0.640810
C54	C	1.232237	-0.630532	0.413166
C55	C	1.249243	-0.618162	0.315836
C56	C	1.313198	-0.571876	1.279796
C57	C	1.329022	-0.560436	1.188322
C58	C	1.280889	-0.595276	1.132879
C59	C	1.216928	-0.641559	1.168918
C60	C	1.201107	-0.653005	1.260401
C61	C	1.168798	-0.676406	1.113484
C62	C	1.104838	-0.722688	1.149523
C63	C	1.089019	-0.734131	1.240998
C64	C	1.137153	-0.699291	1.296441
C65	C	1.184620	-0.664960	1.022001
C66	C	1.072529	-0.746089	1.002606
C67	C	1.056705	-0.757528	1.094080
H68	H	0.463516	-0.588584	0.572369
N69	N	0.701422	-0.448219	0.436128
H70	H	0.635060	-0.445424	0.433406
H71	H	0.728225	-0.455463	0.376311
H72	H	1.007892	-1.225228	0.771039
N73	N	1.020043	-0.784056	1.279876
H74	H	1.036374	-0.840957	1.266290
H75	H	0.960242	-0.758574	1.253127
N76	N	0.554523	-0.481411	0.468377
H77	H	0.488160	-0.478608	0.465658
H78	H	0.581317	-0.488631	0.408550
H79	H	1.124272	-0.708603	1.370927
H80	H	0.841826	-0.704223	0.684570
H81	H	1.007826	-1.075436	0.771009
N82	N	0.800305	-0.767194	0.745690
H83	H	0.832725	-0.778032	0.689376
H84	H	0.814672	-0.816350	0.793432
H85	H	1.004627	-0.795212	1.123436
N86	N	1.395262	-1.081972	0.498283
H87	H	1.385268	-1.022961	0.505298
H88	H	1.392509	-1.086176	0.433367
N89	N	0.685127	-0.870055	0.845509
H90	H	0.729236	-0.908923	0.816394
H91	H	0.636091	-0.898871	0.873519
N92	N	1.056307	-1.362142	0.737017
H93	H	1.066304	-1.421154	0.730010
H94	H	0.996120	-1.334906	0.712516
N95	N	0.494961	-0.836222	0.812663
H96	H	0.449988	-0.802492	0.846762
H97	H	0.531751	-0.880349	0.855441
N98	N	1.329603	-1.374431	0.544599
H99	H	1.319646	-1.432543	0.551626
H100	H	1.389785	-1.372814	0.569087
N101	N	1.395296	-1.253555	0.498288
H102	H	1.385341	-1.311668	0.505322
H103	H	1.455481	-1.251935	0.522768
N104	N	1.056145	-0.942868	0.736937
H105	H	1.058880	-0.967453	0.801879
H106	H	0.995973	-0.944443	0.712398
N107	N	1.329448	-0.955164	0.544542
H108	H	1.326720	-0.959307	0.479605
H109	H	1.389633	-0.982360	0.569082
H110	H	1.293777	-0.585960	1.058398
N111	N	0.891562	-0.482029	0.468971
H112	H	0.886456	-0.483546	0.403610
H113	H	0.954962	-0.502343	0.488733
H114	H	1.236696	-0.627275	0.992667
N115	N	1.398004	-0.510524	1.149453
H116	H	1.426095	-0.490188	1.198454
H117	H	1.368932	-0.462848	1.105342
H118	H	1.033337	-0.774460	0.957464
H119	H	1.352386	-0.543519	1.324946
