data_functionalizedCrystal
_audit_creation_method	'MofGen! by Chris Wilmer'
_symmetry_space_group_name_H-M	'P1'
_symmetry_Int_Tables_number	1
_symmetry_cell_setting	triclinic
loop_
_symmetry_equiv_pos_as_xyz
  x,y,z
_cell_length_a	19.077236
_cell_length_b	25.639240
_cell_length_c	19.077314
_cell_angle_alpha	87.665026
_cell_angle_beta	90.071888
_cell_angle_gamma	92.325142
loop_
_atom_site_label
_atom_site_type_symbol
_atom_site_fract_x
_atom_site_fract_y
_atom_site_fract_z
Zn1	Zn	1.058270	-0.163505	-0.440510
Zn2	Zn	1.558270	0.336495	0.059490
Zn3	Zn	1.062891	-0.254308	-0.322980
Zn4	Zn	1.562891	0.245692	0.177020
Zn5	Zn	0.945482	-0.170525	-0.318287
Zn6	Zn	1.445482	0.329475	0.181713
Zn7	Zn	0.940713	-0.254555	-0.435720
Zn8	Zn	1.440713	0.245445	0.064280
O9	O	1.001839	-0.210723	-0.379374
O10	O	1.501839	0.289277	0.120626
O11	O	1.157218	-0.172509	-0.428889
O12	O	1.657218	0.327491	0.071111
O13	O	1.051246	-0.246028	-0.224024
O14	O	1.551246	0.253972	0.275976
O15	O	0.960506	-0.096425	-0.334540
O16	O	1.460506	0.403575	0.165460
O17	O	1.160613	-0.239222	-0.342540
O18	O	1.660613	0.260778	0.157460
O19	O	1.043371	-0.091268	-0.424338
O20	O	1.543371	0.408732	0.075662
O21	O	0.964986	-0.184473	-0.220576
O22	O	1.464986	0.315527	0.279424
O23	O	0.846515	-0.184713	-0.329895
O24	O	1.346515	0.315287	0.170105
O25	O	0.952377	-0.239643	-0.534689
O26	O	1.452377	0.260357	-0.034689
O27	O	0.843011	-0.246450	-0.416173
O28	O	1.343011	0.253550	0.083827
O29	O	1.038746	-0.172749	-0.538208
O30	O	1.538746	0.327251	-0.038208
O31	O	1.046622	-0.327509	-0.337895
O32	O	1.546622	0.172491	0.162105
O33	O	0.956858	-0.327691	-0.420724
O34	O	1.456858	0.172309	0.079276
C35	C	0.819266	-0.216370	-0.372006
C36	C	1.319266	0.283630	0.127994
C37	C	0.741160	-0.218798	-0.368870
C38	C	1.241160	0.281202	0.131130
C39	C	0.702696	-0.185257	-0.412423
C40	C	1.202696	0.314743	0.087577
C41	C	0.629307	-0.187536	-0.409470
C42	C	1.129307	0.312464	0.090530
C43	C	0.594383	-0.223359	-0.362968
C44	C	1.094383	0.276641	0.137032
C45	C	0.632853	-0.256902	-0.319411
C46	C	1.132853	0.243098	0.180589
C47	C	0.706240	-0.254621	-0.322360
C48	C	1.206240	0.245379	0.177640
C49	C	0.375088	-0.233900	-0.349316
C50	C	0.875088	0.266100	0.150684
C51	C	0.301695	-0.236181	-0.346372
C52	C	0.801695	0.263819	0.153628
C53	C	0.298154	-0.166813	-0.436431
C54	C	0.798154	0.333187	0.063569
C55	C	0.371543	-0.164537	-0.439379
C56	C	0.871543	0.335463	0.060621
C57	C	0.410006	-0.198078	-0.395819
C58	C	0.910006	0.301922	0.104181
N59	N	0.519368	-0.225691	-0.359951
N60	N	1.019368	0.274309	0.140049
N61	N	0.485020	-0.195743	-0.398833
N62	N	0.985020	0.304257	0.101167
C63	C	1.001742	-0.346571	-0.379315
C64	C	1.501742	0.153429	0.120685
C65	C	1.001764	-0.404684	-0.379316
C66	C	1.501764	0.095316	0.120684
C67	C	1.045006	-0.762316	-0.426214
C68	C	1.545006	-0.262316	0.073786
C69	C	1.045026	-0.816919	-0.426229
C70	C	1.545026	-0.316919	0.073771
O71	O	1.081676	-0.842840	-0.466041
O72	O	1.581676	-0.342840	0.033959
N73	N	1.001934	-0.846957	-0.379446
N74	N	1.501934	-0.346957	0.120554
C75	C	0.958813	-0.822390	-0.332650
C76	C	1.458813	-0.322390	0.167350
O77	O	0.922161	-0.852953	-0.292860
O78	O	1.422161	-0.352953	0.207140
C79	C	0.958790	-0.767787	-0.332639
C80	C	1.458790	-0.267787	0.167361
C81	C	1.001890	-0.737752	-0.379420
C82	C	1.501890	-0.237752	0.120580
C83	C	1.088102	-0.732281	-0.472991
C84	C	1.588102	-0.232281	0.027009
C85	C	1.088083	-0.677682	-0.472975
C86	C	1.588083	-0.177682	0.027025
C87	C	1.044967	-0.653117	-0.426181
C88	C	1.544967	-0.153117	0.073819
C89	C	1.001871	-0.683152	-0.379404
C90	C	1.501871	-0.183152	0.120596
C91	C	0.915666	-0.743220	-0.285847
C92	C	1.415666	-0.243220	0.214153
C93	C	0.915646	-0.688614	-0.285840
C94	C	1.415646	-0.188614	0.214160
C95	C	0.958747	-0.658579	-0.332621
C96	C	1.458747	-0.158579	0.167379
C97	C	0.958736	-0.603989	-0.332594
C98	C	1.458736	-0.103989	0.167406
N99	N	1.001828	-0.573951	-0.379376
N100	N	1.501828	-0.073951	0.120624
C101	C	1.044944	-0.598515	-0.426170
C102	C	1.544944	-0.098515	0.073830
C103	C	0.958865	-0.937058	-0.332678
C104	C	1.458865	-0.437058	0.167322
C105	C	0.958891	-0.991659	-0.332685
C106	C	1.458891	-0.491659	0.167315
C107	C	1.045103	-0.986185	-0.426265
C108	C	1.545103	-0.486185	0.073735
C109	C	1.045080	-0.931583	-0.426254
C110	C	1.545080	-0.431583	0.073746
C111	C	1.001957	-0.907020	-0.379461
C112	C	1.501957	-0.407020	0.120539
C113	C	1.044901	-0.483852	-0.426132
C114	C	1.544901	0.016148	0.073868
C115	C	1.044880	-0.429248	-0.426110
C116	C	1.544880	0.070752	0.073890
C117	C	0.958665	-0.434727	-0.332533
C118	C	1.458665	0.065273	0.167467
C119	C	0.958689	-0.489326	-0.332552
C120	C	1.458689	0.010674	0.167448
C121	C	1.001808	-0.513887	-0.379358
C122	C	1.501808	-0.013887	0.120642
O123	O	0.922102	-0.578033	-0.292803
O124	O	1.422102	-0.078033	0.207197
O125	O	1.081583	-0.567945	-0.465960
O126	O	1.581583	-0.067945	0.034040
C127	C	1.185125	-0.205055	-0.386772
C128	C	1.685125	0.294945	0.113228
C129	C	1.263231	-0.202639	-0.389925
C130	C	1.763231	0.297361	0.110075
C131	C	0.994514	-0.205441	-0.562658
C132	C	1.494514	0.294559	-0.062658
C133	C	0.991393	-0.203190	-0.640762
C134	C	1.491393	0.296810	-0.140762
C135	C	1.001955	-0.074345	-0.379450
C136	C	1.501955	0.425655	0.120550
C137	C	1.002005	-0.016228	-0.379482
C138	C	1.502005	0.483772	0.120518
C139	C	1.034834	-0.234179	-0.679254
C140	C	1.534834	0.265821	-0.179254
C141	C	1.031901	-0.232058	-0.752642
C142	C	1.531901	0.267942	-0.252642
C143	C	0.985523	-0.198949	-0.787536
C144	C	1.485523	0.301051	-0.287536
C145	C	0.942081	-0.167957	-0.749039
C146	C	1.442081	0.332043	-0.249039
C147	C	0.945017	-0.170076	-0.675653
C148	C	1.445017	0.329924	-0.175653
C149	C	0.971927	-0.189172	-1.006824
C150	C	1.471927	0.310828	-0.506824
C151	C	0.968992	-0.187057	-1.080215
C152	C	1.468992	0.312943	-0.580215
C153	C	1.058814	-0.251157	-1.083813
C154	C	1.558814	0.248843	-0.583813
C155	C	1.061744	-0.253276	-1.010425
C156	C	1.561744	0.246724	-0.510425
C157	C	1.018304	-0.222281	-0.971935
C158	C	1.518304	0.277719	-0.471935
N159	N	0.982523	-0.196781	-0.862550
N160	N	1.482523	0.303219	-0.362550
N161	N	1.021309	-0.224447	-0.896922
N162	N	1.521309	0.275553	-0.396922
C163	C	1.009176	-0.215946	-0.196805
C164	C	1.509176	0.284054	0.303195
C165	C	1.012433	-0.218046	-0.118707
C166	C	1.512433	0.281954	0.381293
H167	H	1.080008	-0.503843	-0.464250
H168	H	1.580008	-0.003843	0.035750
O169	O	0.747727	-0.290797	-0.275381
O170	O	1.247727	0.209203	0.224619
H171	H	0.804625	-0.283188	-0.285237
H172	H	1.304625	0.216812	0.214763
O173	O	1.091602	-1.012688	-0.476741
O174	O	1.591602	-0.512688	0.023259
H175	H	1.121571	-0.982633	-0.509270
H176	H	1.621571	-0.482633	-0.009270
O177	O	0.869177	-0.775609	-0.235392
O178	O	1.369177	-0.275609	0.264608
H179	H	0.813536	-0.766519	-0.245184
H180	H	1.313536	-0.266519	0.254816
O181	O	1.078758	-0.265483	-0.794155
O182	O	1.578758	0.234517	-0.294155
H183	H	1.068933	-0.258443	-0.851047
H184	H	1.568933	0.241557	-0.351047
H185	H	0.731125	-0.156086	-0.450292
H186	H	1.231125	0.343914	0.049708
O187	O	0.587818	-0.151358	-0.456444
O188	O	1.087818	0.348642	0.043556
H189	H	0.624431	-0.126069	-0.489280
H190	H	1.124431	0.373931	0.010720
H191	H	0.399973	-0.135367	-0.477248
H192	H	0.899973	0.364633	0.022752
O193	O	0.256672	-0.130630	-0.483402
O194	O	0.756672	0.369370	0.016598
H195	H	0.199773	-0.138229	-0.473535
H196	H	0.699773	0.361771	0.026465
O197	O	0.912358	-0.910566	-0.282198
O198	O	1.412358	-0.410566	0.217802
H199	H	0.945257	-0.885735	-0.247741
H200	H	1.445257	-0.385735	0.252259
O201	O	0.595191	-0.295541	-0.269251
O202	O	1.095191	0.204459	0.230749
H203	H	0.537697	-0.291496	-0.274521
H204	H	1.037697	0.208504	0.225479
O205	O	1.084862	-0.269884	-0.641619
O206	O	1.584862	0.230116	-0.141619
H207	H	1.114583	-0.291071	-0.680717
H208	H	1.614583	0.208929	-0.180717
H209	H	0.923803	-1.016110	-0.294584
H210	H	1.423803	-0.516110	0.205416
H211	H	1.079979	-0.404795	-0.464204
H212	H	1.579979	0.095205	0.035796
O213	O	0.869141	-0.662120	-0.235363
O214	O	1.369141	-0.162120	0.264637
H215	H	0.839184	-0.692182	-0.202835
H216	H	1.339184	-0.192182	0.297165
O217	O	0.264023	-0.274816	-0.296207
O218	O	0.764023	0.225184	0.203793
H219	H	0.277612	-0.315085	-0.308704
H220	H	0.777612	0.184915	0.191296
O221	O	0.416570	-0.270074	-0.302334
O222	O	0.916570	0.229926	0.197666
H223	H	0.379953	-0.295368	-0.269508
H224	H	0.879953	0.204632	0.230492
O225	O	1.134612	-0.758771	-0.523463
O226	O	1.634612	-0.258771	-0.023463
H227	H	1.164574	-0.728704	-0.555980
H228	H	1.664574	-0.228704	-0.055980
H229	H	1.123177	-0.653230	-0.511070
H230	H	1.623177	-0.153230	-0.011070
H231	H	1.080176	-0.907131	-0.464347
H232	H	1.580176	-0.407131	0.035653
O233	O	0.912206	-0.521727	-0.282097
O234	O	1.412206	-0.021727	0.217903
H235	H	0.882219	-0.495470	-0.249558
H236	H	1.382219	0.004530	0.250442
H237	H	1.094182	-0.276390	-1.115159
H238	H	1.594182	0.223610	-0.615159
H239	H	0.923563	-0.414718	-0.294432
H240	H	1.423563	0.085282	0.205568
H241	H	1.099499	-0.280245	-0.982019
H242	H	1.599499	0.219755	-0.482019
H243	H	0.931227	-0.160092	-1.108624
H244	H	1.431227	0.339908	-0.608624
H245	H	0.936552	-0.163937	-0.975494
H246	H	1.436552	0.336063	-0.475494
H247	H	0.904322	-0.140997	-0.777456
H248	H	1.404322	0.359003	-0.277456
H249	H	0.909645	-0.144839	-0.644314
H250	H	1.409645	0.355161	-0.144314
