data_functionalizedCrystal
_audit_creation_method	'MofGen! by Chris Wilmer'
_symmetry_space_group_name_H-M	'P1'
_symmetry_Int_Tables_number	1
_symmetry_cell_setting	triclinic
loop_
_symmetry_equiv_pos_as_xyz
  x,y,z
_cell_length_a	15.944493
_cell_length_b	14.421503
_cell_length_c	15.944551
_cell_angle_alpha	89.996660
_cell_angle_beta	83.486891
_cell_angle_gamma	90.007064
loop_
_atom_site_label
_atom_site_type_symbol
_atom_site_fract_x
_atom_site_fract_y
_atom_site_fract_z
O1	O	1.114560	0.077101	0.108089
O2	O	0.870003	0.077106	0.121496
O3	O	0.998960	0.077095	-0.007484
O4	O	0.985603	0.077112	0.237068
O5	O	0.998938	-0.077128	-0.007465
O6	O	0.869982	-0.077117	0.121515
O7	O	1.114538	-0.077122	0.108108
Cu8	Cu	0.992258	-0.091201	0.114813
Cu9	Cu	0.992283	0.091186	0.114790
O10	O	0.985582	-0.077111	0.237087
C11	C	0.838698	-0.000005	0.120957
C12	C	0.745449	-0.000003	0.119314
C13	C	0.509689	0.000002	0.195235
C14	C	0.459120	-0.076045	0.154303
C15	C	0.574728	-0.000005	0.116270
C16	C	0.459146	0.076008	0.154266
C17	C	0.409819	-0.000003	0.113336
C18	C	0.525388	-0.076115	0.075360
C19	C	0.525417	0.076005	0.075334
C20	C	0.474880	-0.000060	0.034345
C21	C	0.669728	-0.000007	0.117963
C22	C	0.314821	-0.000008	0.111637
N23	N	0.992246	-0.219483	0.114828
C24	C	0.932607	-0.469131	0.174442
C25	C	1.008509	-0.530934	0.190733
C26	C	0.992267	-0.408644	0.114808
C27	C	0.916384	-0.530935	0.098537
C28	C	0.992280	-0.591366	0.114791
C29	C	1.068207	-0.469086	0.131138
C30	C	0.976033	-0.469082	0.038908
C31	C	1.051990	-0.530857	0.055167
C32	C	0.992258	-0.303383	0.114821
C33	C	0.992297	-0.696625	0.114778
C34	C	1.145844	-0.000009	0.108646
C35	C	1.239092	-0.000004	0.110289
C36	C	0.998395	-0.000017	-0.038768
C37	C	0.996732	-0.000017	-0.132014
N38	N	0.992302	0.219467	0.114768
C39	C	0.912826	-0.000003	-0.346853
C40	C	0.951779	-0.076045	-0.407869
C41	C	0.993725	-0.000010	-0.302739
C42	C	0.951819	0.076007	-0.407872
C43	C	0.990814	0.000001	-0.467651
C44	C	1.032700	-0.076115	-0.362527
C45	C	1.032729	0.076006	-0.362523
C46	C	1.071741	-0.000055	-0.423521
C47	C	0.995399	-0.000017	-0.207737
C48	C	0.989146	0.000002	-0.562652
C49	C	0.986147	0.000003	0.268372
C50	C	0.987809	0.000009	0.361617
H51	H	0.459415	-0.000109	-0.033726
H52	H	0.962267	-0.441892	-0.025251
H53	H	0.525313	-0.000064	0.263254
Br54	Br	0.809419	-0.576222	0.075609
H55	H	1.138950	-0.000099	-0.456694
Br56	Br	1.089673	-0.183382	-0.329214
Br57	Br	1.089729	0.183160	-0.328994
H58	H	0.554372	0.140295	0.042003
H59	H	1.132399	-0.442033	0.144970
H60	H	0.845675	-0.000077	-0.313532
Br61	Br	0.894779	0.183148	-0.441362
H62	H	1.022251	-0.558102	0.254913
Br63	Br	1.136178	-0.575753	-0.028904
H64	H	0.917552	-0.140331	-0.427962
Br65	Br	0.573414	-0.183381	0.019824
Br66	Br	0.410926	0.183149	0.209859
H67	H	0.430174	-0.140331	0.187659
Br68	Br	0.848600	-0.423953	0.258558
