data_functionalizedCrystal
_audit_creation_method	'MofGen! by Chris Wilmer'
_symmetry_space_group_name_H-M	'P1'
_symmetry_Int_Tables_number	1
_symmetry_cell_setting	triclinic
loop_
_symmetry_equiv_pos_as_xyz
  x,y,z
_cell_length_a	12.827892
_cell_length_b	12.827893
_cell_length_c	12.827885
_cell_angle_alpha	89.980728
_cell_angle_beta	89.970214
_cell_angle_gamma	90.015553
loop_
_atom_site_label
_atom_site_type_symbol
_atom_site_fract_x
_atom_site_fract_y
_atom_site_fract_z
Zn1	Zn	-0.415978	1.597670	-0.590849
Zn2	Zn	-0.590755	1.597564	-0.416109
Zn3	Zn	-0.416029	1.422911	-0.416122
Zn4	Zn	-0.590678	1.422896	-0.590809
O5	O	-0.503360	1.510260	-0.503472
O6	O	-0.439173	1.743892	-0.567680
O7	O	-0.567631	1.574357	-0.269875
O8	O	-0.269787	1.446144	-0.439322
O9	O	-0.567582	1.743814	-0.439300
O10	O	-0.269749	1.574538	-0.567693
O11	O	-0.439261	1.446041	-0.269884
O12	O	-0.439186	1.276673	-0.439284
O13	O	-0.567450	1.446118	-0.737050
O14	O	-0.567500	1.276662	-0.567625
O15	O	-0.439098	1.574524	-0.737080
O16	O	-0.736981	1.574343	-0.439261
O17	O	-0.736924	1.446016	-0.567612
C18	C	-0.503341	1.238750	-0.503452
C19	C	-0.503358	1.122597	-0.503469
C20	C	-0.439930	1.070851	-0.567094
C21	C	-0.439946	0.950800	-0.567113
C22	C	-0.774870	1.510195	-0.503454
C23	C	-0.891023	1.510262	-0.503481
C24	C	-0.942801	1.573838	-0.440039
C25	C	-1.062852	1.573910	-0.440066
C26	C	-0.230790	1.510354	-0.503514
C27	C	-0.114637	1.510394	-0.503531
C28	C	-0.503260	1.510331	-0.776043
C29	C	-0.503217	1.510362	-0.892196
C30	C	-0.503380	1.782830	-0.503493
C31	C	-0.503389	1.898983	-0.503502
C32	C	-0.439692	1.573907	-0.943995
C33	C	-0.439647	1.573940	-1.064045
C34	C	-0.503385	1.510249	-0.231962
C35	C	-0.503133	1.510422	-0.115810
H36	H	-0.385612	1.115425	-0.621549
H37	H	-0.385647	0.906300	-0.621588
C38	C	-0.882637	1.647303	-0.366634
H39	H	-0.930689	1.687204	-0.326840
H40	H	-0.840123	1.607292	-0.321097
H41	H	-0.839993	1.692754	-0.406687
C42	C	-1.122997	1.647438	-0.366684
H43	H	-1.195794	1.637843	-0.376331
H44	H	-1.105223	1.632188	-0.296438
H45	H	-1.105092	1.717654	-0.382025
C46	C	-0.951188	1.436802	-0.576889
H47	H	-0.903135	1.396911	-0.616694
H48	H	-0.993840	1.391356	-0.536849
H49	H	-0.993694	1.476825	-0.622433
H50	H	-0.557526	1.456019	-1.071270
H51	H	-0.385336	1.628283	-0.899465
H52	H	-1.070117	1.455957	-0.557845
H53	H	-0.557700	0.943477	-0.449032
C54	C	-0.366173	1.647442	-1.124210
H55	H	-0.326354	1.687294	-1.076160
H56	H	-0.320661	1.607460	-1.166797
H57	H	-0.406183	1.692939	-1.166782
C58	C	-0.576736	1.062396	-0.429894
H59	H	-0.616524	1.110428	-0.389968
H60	H	-0.622282	1.019827	-0.469834
H61	H	-0.536667	1.019804	-0.384470
C62	C	-0.576646	1.436893	-0.952336
H63	H	-0.616502	1.397016	-0.904270
H64	H	-0.622125	1.476901	-0.994915
H65	H	-0.536605	1.391420	-0.994914
