data_functionalizedCrystal
_audit_creation_method	'MofGen! by Chris Wilmer'
_symmetry_space_group_name_H-M	'P1'
_symmetry_Int_Tables_number	1
_symmetry_cell_setting	triclinic
loop_
_symmetry_equiv_pos_as_xyz
  x,y,z
_cell_length_a	14.971491
_cell_length_b	10.489716
_cell_length_c	13.448316
_cell_angle_alpha	89.997460
_cell_angle_beta	89.991393
_cell_angle_gamma	84.072686
loop_
_atom_site_label
_atom_site_type_symbol
_atom_site_fract_x
_atom_site_fract_y
_atom_site_fract_z
O1	O	1.187880	0.166256	-0.082725
O2	O	0.927593	0.186154	-0.082717
O3	O	1.063671	-0.009463	-0.082725
O4	O	1.051803	0.361873	-0.082717
O5	O	1.063654	-0.009475	0.082659
O6	O	0.927576	0.186142	0.082667
O7	O	1.187863	0.166244	0.082658
Cu8	Cu	1.057718	0.176192	0.097763
Cu9	Cu	1.057738	0.176206	-0.097822
O10	O	1.051785	0.361861	0.082666
C11	C	0.894255	0.185257	-0.000024
C12	C	0.794943	0.182587	-0.000021
C13	C	0.367182	0.171071	-0.090195
C14	C	0.460496	0.173576	-0.090192
C15	C	0.507140	0.174830	-0.000037
C16	C	0.460465	0.173566	0.090119
C17	C	0.367153	0.171052	0.090114
C18	C	0.654956	0.178810	0.090123
C19	C	0.748274	0.181327	0.090128
C20	C	0.748299	0.181334	-0.090183
C21	C	0.654987	0.178820	-0.090188
C22	C	0.608319	0.177558	-0.000031
C23	C	1.062770	-0.056991	-0.000036
C24	C	1.060103	-0.198591	-0.000045
C25	C	1.143550	-0.297229	-0.000039
C26	C	1.099463	-0.374075	-0.081578
C27	C	1.099427	-0.374050	0.081478
C28	C	1.016051	-0.273572	-0.081651
C29	C	1.016026	-0.273542	0.081478
C30	C	0.971878	-0.350338	-0.000081
C31	C	1.221201	0.167141	-0.000037
C32	C	1.320513	0.169811	-0.000046
C33	C	1.052686	0.409389	-0.000025
C34	C	1.055354	0.550989	-0.000022
N35	N	1.057710	0.176181	0.235328
N36	N	1.057753	0.176207	-0.235386
C37	C	1.117984	0.089597	0.287365
C38	C	1.117990	0.089596	0.391468
C39	C	1.057725	0.176186	0.443532
C40	C	0.997444	0.262774	0.391488
C41	C	0.997435	0.262768	0.287387
C42	C	0.997469	0.262783	0.608468
C43	C	0.997479	0.262791	0.712577
C44	C	1.118024	0.089611	0.712549
C45	C	1.118015	0.089605	0.608448
C46	C	1.057735	0.176195	0.556411
H47	H	0.329211	0.170059	-0.163610
H48	H	0.329156	0.170040	0.163523
H49	H	1.216135	-0.273391	-0.000124
H50	H	0.980850	-0.229856	-0.150662
H51	H	0.616960	0.177799	0.163538
H52	H	1.134696	-0.417971	-0.150517
H53	H	0.948370	0.333273	0.433885
H54	H	0.899239	-0.373930	-0.000123
H55	H	0.980824	-0.229623	0.150419
H56	H	1.134663	-0.417935	0.150411
H57	H	0.948352	0.333272	0.245019
H58	H	0.786248	0.182355	0.163540
H59	H	1.167063	0.019091	0.244981
H60	H	1.167069	0.019092	0.433836
H61	H	1.167091	0.019103	0.566057
H62	H	1.167106	0.019106	0.754924
H63	H	0.498450	0.174580	0.163524
H64	H	0.498490	0.174594	-0.163600
H65	H	0.948404	0.333300	0.754963
H66	H	0.948379	0.333289	0.566103
H67	H	0.617012	0.177807	-0.163599
H68	H	0.786301	0.182363	-0.163592
