data_functionalizedCrystal
_audit_creation_method	'MofGen! by Chris Wilmer'
_symmetry_space_group_name_H-M	'P1'
_symmetry_Int_Tables_number	1
_symmetry_cell_setting	triclinic
loop_
_symmetry_equiv_pos_as_xyz
  x,y,z
_cell_length_a	10.967819
_cell_length_b	11.026607
_cell_length_c	10.065875
_cell_angle_alpha	100.718735
_cell_angle_beta	93.100497
_cell_angle_gamma	96.381100
loop_
_atom_site_label
_atom_site_type_symbol
_atom_site_fract_x
_atom_site_fract_y
_atom_site_fract_z
O1	O	1.631236	0.248000	0.497152
O2	O	1.281974	0.251519	0.415009
O3	O	1.427659	0.071796	0.449268
O4	O	1.485551	0.427722	0.462894
O5	O	1.455487	0.037450	0.228823
O6	O	1.309802	0.217172	0.194565
O7	O	1.659064	0.213653	0.276708
Zn8	Zn	1.488851	0.209959	0.200636
Zn9	Zn	1.452187	0.255212	0.491081
O10	O	1.513379	0.393376	0.242449
C11	C	1.250480	0.231493	0.294107
C12	C	1.115175	0.222979	0.262285
C13	C	1.430892	0.008929	0.336535
C14	C	1.399054	-0.127224	0.329052
C15	C	0.900596	0.228193	0.329431
C16	C	1.040441	0.236983	0.362312
C17	C	1.486964	-0.197053	0.349730
C18	C	1.454059	-0.337775	0.341996
C19	C	1.690558	0.233679	0.397612
C20	C	1.825861	0.242194	0.429444
C21	C	1.510145	0.456243	0.355184
C22	C	1.541982	0.592398	0.362676
N23	N	1.427163	0.286087	0.689302
N24	N	1.513882	0.179075	0.002416
C25	C	1.480154	0.220710	0.769542
C26	C	1.460884	0.244462	0.922178
H27	H	0.861049	0.209706	0.219463
H28	H	0.865410	0.260696	0.539412
C29	C	1.676580	-0.347638	0.394331
N30	N	1.777958	-0.302472	0.418171
H31	H	1.586588	-0.152657	0.373152
H32	H	1.367534	0.359649	0.733606
C33	C	1.264464	-0.187197	0.297396
N34	N	1.163088	-0.232367	0.273548
H35	H	1.079984	0.255485	0.472288
H36	H	1.354428	-0.382166	0.318573
H37	H	1.539794	0.147157	0.725243
C38	C	1.380314	0.343841	0.982018
N39	N	1.319629	0.418690	1.027091
H40	H	1.075635	0.204491	0.152309
C41	C	1.594452	0.079695	0.942580
N42	N	1.655133	0.004842	0.897509
