data_functionalizedCrystal
_audit_creation_method	'MofGen! by Chris Wilmer'
_symmetry_space_group_name_H-M	'P1'
_symmetry_Int_Tables_number	1
_symmetry_cell_setting	triclinic
loop_
_symmetry_equiv_pos_as_xyz
  x,y,z
_cell_length_a	27.440280
_cell_length_b	14.560432
_cell_length_c	27.440280
_cell_angle_alpha	60.006325
_cell_angle_beta	90.008003
_cell_angle_gamma	59.999445
loop_
_atom_site_label
_atom_site_type_symbol
_atom_site_fract_x
_atom_site_fract_y
_atom_site_fract_z
Zr1	Zr	0.469514	1.005150	-0.063886
O2	O	0.391697	1.196750	-0.141705
O3	O	0.493368	0.813551	-0.040031
O4	O	0.493369	1.005128	-0.141693
O5	O	0.391697	1.005191	0.040151
O6	O	0.573571	1.005110	-0.141683
O7	O	0.391695	1.005173	-0.040043
O8	O	0.573569	0.662414	0.040172
O9	O	0.391699	1.347887	-0.141704
O10	O	0.563397	0.892345	-0.029849
O11	O	0.503544	0.892372	0.029991
O12	O	0.503545	1.117929	-0.089703
O13	O	0.443692	1.117955	-0.029863
Zr14	Zr	0.597430	1.005150	0.064029
Zr15	Zr	0.597428	1.005122	-0.063870
Zr16	Zr	0.469516	1.005179	0.064013
Zr17	Zr	0.469517	1.246196	-0.063885
Zr18	Zr	0.597427	0.764104	0.064028
O19	O	0.573577	1.196750	0.040174
O20	O	0.573574	1.196710	-0.141682
O21	O	0.391699	1.196790	0.040152
O22	O	0.675248	0.813551	0.141848
O23	O	0.675245	0.813511	-0.040008
O24	O	0.493370	0.813591	0.141825
O25	O	0.675248	1.005110	-0.040007
O26	O	0.573576	1.005173	0.141836
O27	O	0.493373	1.005191	0.141826
O28	O	0.675249	1.005128	0.040186
O29	O	0.493373	1.347864	-0.141691
O30	O	0.573571	0.662436	0.141835
O31	O	0.675246	0.662414	0.141847
O32	O	0.675244	0.662392	0.040185
O33	O	0.391700	1.347909	-0.040041
O34	O	0.493375	1.347887	-0.040028
O35	O	0.563399	0.892372	0.089846
O36	O	0.623253	0.892345	0.030006
O37	O	0.563400	1.117929	-0.029848
O38	O	0.503547	1.117955	0.029992
C39	C	0.533468	0.703639	0.000070
C40	C	0.533467	0.601308	0.000070
C41	C	0.445091	0.767824	-0.088298
C42	C	0.400904	0.803004	-0.132480
C43	C	0.400905	0.706851	-0.132478
C44	C	0.445101	0.575506	-0.088291
C45	C	0.489288	0.540326	-0.044109
C46	C	0.489281	0.636490	-0.044115
C47	C	0.577665	0.373812	0.044255
C48	C	0.577662	0.469964	0.044257
C49	C	0.621860	0.242468	0.088442
C50	C	0.666046	0.207286	0.132627
C51	C	0.666042	0.303448	0.132624
C52	C	0.621849	0.434783	0.088438
C53	C	0.373471	1.005186	0.000052
C54	C	0.319168	1.005198	0.000045
C55	C	0.013713	0.887377	0.031331
C56	C	-0.037306	0.887369	0.031337
O57	O	-0.037123	0.787226	0.057926
N58	N	-0.094065	1.005120	0.000093
C59	C	-0.099805	1.122886	-0.031153
O60	O	-0.152767	1.223042	-0.057727
C61	C	-0.048787	1.122892	-0.031155
C62	C	0.007972	1.005133	0.000086
C63	C	0.070468	0.769627	0.062570
C64	C	0.121483	0.769635	0.062564
C65	C	0.115742	0.887392	0.031319
C66	C	0.058986	1.005141	0.000080
C67	C	-0.054527	1.240657	-0.062397
C68	C	-0.003503	1.240652	-0.062395
C69	C	0.053255	1.122894	-0.031154
C70	C	0.104260	1.122906	-0.031172
N71	N	0.161019	1.005155	0.000072
C72	C	0.166760	0.887398	0.031317
C73	C	-0.206943	1.122865	-0.031147
C74	C	-0.257961	1.122861	-0.031149
C75	C	-0.195458	0.887343	0.031341
C76	C	-0.144440	0.887349	0.031340
C77	C	-0.150184	1.005114	0.000097
C78	C	0.273893	0.887423	0.031301
C79	C	0.324909	0.887441	0.031290
C80	C	0.262402	1.122957	-0.031198
C81	C	0.211390	1.122940	-0.031190
C82	C	0.217139	1.005162	0.000064
O83	O	0.104124	1.222998	-0.057745
O84	O	0.219724	0.787259	0.057893
C85	C	0.693473	1.005115	0.000092
C86	C	0.747776	1.005103	0.000099
C87	C	0.533470	1.005115	-0.159911
C88	C	0.533469	1.005103	-0.214207
C89	C	0.533476	1.306662	0.000073
C90	C	0.533478	1.408993	0.000074
C91	C	0.502235	1.122924	-0.582184
C92	C	0.502237	1.122931	-0.633207
O93	O	0.475685	1.223075	-0.686166
N94	N	0.533478	1.005180	-0.627481
C95	C	0.564724	0.887414	-0.570728
O96	O	0.591298	0.787259	-0.570543
C97	C	0.564726	0.887409	-0.519707
C98	C	0.533478	1.005167	-0.525438
C99	C	0.470990	1.240673	-0.587912
C100	C	0.470988	1.240666	-0.536893
C101	C	0.502230	1.122909	-0.480147
C102	C	0.533475	1.005160	-0.474419
C103	C	0.595975	0.769644	-0.462956
C104	C	0.595974	0.769648	-0.411934
C105	C	0.564726	0.887407	-0.417665
C106	C	0.564715	0.887395	-0.366653
N107	N	0.533474	1.005146	-0.372379
C108	C	0.502232	1.122903	-0.429126
C109	C	0.564720	0.887436	-0.677878
C110	C	0.564715	0.887440	-0.728898
C111	C	0.502229	1.122957	-0.791373
C112	C	0.502230	1.122952	-0.740352
C113	C	0.533479	1.005187	-0.683604
C114	C	0.502228	1.122878	-0.321980
C115	C	0.502227	1.122860	-0.270954
C116	C	0.564716	0.887343	-0.208484
C117	C	0.564715	0.887361	-0.259505
C118	C	0.533470	1.005138	-0.316255
O119	O	0.591256	0.787302	-0.313676
O120	O	0.475669	1.223042	-0.429300
C121	C	0.533474	1.005186	0.160054
C122	C	0.533475	1.005198	0.214351
C123	C	0.693469	0.703603	0.000090
C124	C	0.747771	0.601261	0.000097
C125	C	0.533470	0.703674	0.160053
C126	C	0.533470	0.601356	0.214349
C127	C	0.693471	0.703639	0.160073
C128	C	0.747774	0.601308	0.214376
C129	C	0.373473	1.306662	-0.159929
C130	C	0.319170	1.408993	-0.214232
C131	C	0.373475	1.306697	0.000053
C132	C	0.319174	1.409040	0.000047
C133	C	0.533474	1.306627	-0.159909
C134	C	0.533475	1.408945	-0.214205
C135	C	0.742027	0.553200	-0.031149
C136	C	0.793045	0.457052	-0.031155
C137	C	0.849804	0.408960	0.000088
C138	C	0.855547	0.457030	0.031335
C139	C	0.804530	0.553183	0.031338
C140	C	0.564713	0.553306	0.271096
C141	C	0.564710	0.457180	0.322118
C142	C	0.533467	0.409100	0.316391
C143	C	0.502220	0.457159	0.259638
C144	C	0.502220	0.553289	0.208618
C145	C	0.804523	0.553239	0.208641
C146	C	0.855551	0.457102	0.259659
C147	C	0.849828	0.409030	0.316412
C148	C	0.793073	0.457108	0.322145
C149	C	0.742046	0.553250	0.271127
C150	C	0.262421	1.457073	-0.208497
C151	C	0.211394	1.553240	-0.259516
C152	C	0.217116	1.601318	-0.316268
C153	C	0.273872	1.553233	-0.322002
C154	C	0.324898	1.457074	-0.270984
C155	C	0.324917	1.457111	0.031288
C156	C	0.273900	1.553286	0.031280
C157	C	0.217140	1.601381	0.000034
C158	C	0.211398	1.553306	-0.031211
C159	C	0.262414	1.457139	-0.031206
C160	C	0.564724	1.456995	-0.208460
C161	C	0.564736	1.553121	-0.259472
C162	C	0.533495	1.601202	-0.316229
C163	C	0.502245	1.553143	-0.321973
C164	C	0.502236	1.457012	-0.270962
H165	H	0.445102	0.497220	-0.088297
Cl166	Cl	0.462942	0.613675	0.137280
Cl167	Cl	0.396266	1.396675	0.070570
H168	H	0.702027	0.274788	0.168600
H169	H	0.695840	0.592376	0.275805
H170	H	0.278524	1.592390	-0.368216
H171	H	0.371104	1.417928	-0.275660
H172	H	0.278587	1.592412	0.056725
Cl173	Cl	0.811733	0.613661	0.137301
Cl174	Cl	0.785812	0.396635	-0.070438
H175	H	0.257730	1.418003	-0.056644
Cl176	Cl	0.913982	0.288162	0.380544
Cl177	Cl	0.621864	0.121588	0.088443
Cl178	Cl	0.431692	1.388714	-0.544107
H179	H	0.901759	0.417966	0.254980
Cl180	Cl	0.153010	1.722275	0.000035
H181	H	0.891341	0.330665	0.000082
Cl182	Cl	0.140038	1.613777	-0.070485
Cl183	Cl	0.140036	1.270981	-0.070476
Cl184	Cl	0.604021	1.613527	-0.252236
Cl185	Cl	0.603997	0.613726	0.278311
H186	H	0.590164	1.417863	-0.162250
H187	H	0.533472	0.330824	0.357940
H188	H	0.788422	0.417954	0.368360
Cl189	Cl	0.462941	1.396630	-0.278195
Cl190	Cl	0.603999	0.396778	0.393457
Cl191	Cl	0.462947	0.396698	0.252449
Cl192	Cl	0.255211	1.396653	-0.137158
H193	H	0.533507	1.679479	-0.357761
H194	H	0.695815	0.592355	-0.056599
H195	H	0.257738	1.218832	-0.056639
Cl196	Cl	0.462967	1.613614	-0.393330
Cl197	Cl	0.926907	0.396552	0.070614
Cl198	Cl	0.635266	0.621591	-0.340595
Cl199	Cl	0.445080	0.888709	-0.088298
Cl200	Cl	0.721602	0.042175	0.188167
H201	H	0.809215	0.592302	0.056785
H202	H	0.364922	0.909953	-0.168457
H203	H	0.165186	1.592375	-0.254836
H204	H	0.364926	0.735502	-0.168456
H205	H	0.175563	1.679616	-0.357806
H206	H	0.621839	0.513087	0.088434
H207	H	0.371124	0.791543	0.056732
Cl208	Cl	-0.010730	1.388710	-0.101674
H209	H	0.590153	0.791549	-0.724225
Cl210	Cl	0.281128	0.739357	0.070591
H211	H	0.167695	0.673744	0.088001
H212	H	0.075153	0.673730	0.088017
Cl213	Cl	-0.188250	0.739305	0.070622
Cl214	Cl	-0.073091	0.739304	0.070617
H215	H	-0.304172	1.218752	-0.056596
H216	H	-0.211629	1.218770	-0.056592
H217	H	-0.100734	1.336549	-0.087836
H218	H	0.476786	1.218784	-0.368183
Cl219	Cl	0.431708	1.388731	-0.659247
Cl220	Cl	0.462936	1.270911	-0.278164
H221	H	0.476785	1.218841	-0.745024
Cl222	Cl	0.462955	1.270996	-0.862722
H223	H	0.621422	0.673752	-0.458278
Cl224	Cl	0.603993	0.739320	-0.252302
Cl225	Cl	0.603989	0.739314	-0.137137
Cl226	Cl	0.604000	0.739373	-0.606539
