data_functionalizedCrystal
_audit_creation_method	'MofGen! by Chris Wilmer'
_symmetry_space_group_name_H-M	'P1'
_symmetry_Int_Tables_number	1
_symmetry_cell_setting	triclinic
loop_
_symmetry_equiv_pos_as_xyz
  x,y,z
_cell_length_a	15.995350
_cell_length_b	22.610064
_cell_length_c	15.995350
_cell_angle_alpha	89.997790
_cell_angle_beta	96.507625
_cell_angle_gamma	90.011636
loop_
_atom_site_label
_atom_site_type_symbol
_atom_site_fract_x
_atom_site_fract_y
_atom_site_fract_z
O1	O	1.110999	0.049131	-0.107925
O2	O	0.867224	0.049143	-0.121252
O3	O	0.995775	0.049137	0.007299
O4	O	0.982447	0.049138	-0.236476
O5	O	0.995737	-0.049233	0.007299
O6	O	0.867186	-0.049226	-0.121252
O7	O	1.110961	-0.049238	-0.107924
Zn8	Zn	0.989068	-0.064850	-0.114588
Zn9	Zn	0.989117	0.064756	-0.114588
O10	O	0.982410	-0.049231	-0.236476
C11	C	0.836010	-0.000040	-0.120701
C12	C	0.743060	-0.000035	-0.119049
C13	C	0.405312	-0.000048	-0.113117
C14	C	0.452746	-0.000268	-0.021565
C15	C	0.549436	-0.000042	-0.023217
C16	C	0.572873	-0.000042	-0.116060
C17	C	0.531807	0.056130	-0.161216
C18	C	0.435171	0.056173	-0.158916
C19	C	0.434790	-0.055691	-0.160808
C20	C	0.531735	-0.056430	-0.160786
C21	C	0.667570	-0.000036	-0.117727
C22	C	0.310614	-0.000049	-0.111452
N23	N	0.989040	-0.153302	-0.114588
C24	C	1.039898	-0.561946	-0.165392
C25	C	1.039908	-0.623866	-0.165390
O26	O	1.083116	-0.655887	-0.208580
N27	N	0.989133	-0.654840	-0.114579
C28	C	0.938351	-0.623890	-0.063760
O29	O	0.895164	-0.655921	-0.020540
C30	C	0.938345	-0.561971	-0.063758
C31	C	0.989117	-0.531001	-0.114579
C32	C	1.090666	-0.530976	-0.216208
C33	C	1.090654	-0.469060	-0.216211
C34	C	1.039874	-0.438115	-0.165398
C35	C	0.989105	-0.469085	-0.114582
C36	C	0.887568	-0.531023	-0.012936
C37	C	0.887567	-0.469100	-0.012938
C38	C	0.938339	-0.438129	-0.063758
C39	C	0.938313	-0.376224	-0.063772
N40	N	0.989088	-0.345251	-0.114583
C41	C	1.039869	-0.376196	-0.165396
C42	C	0.938367	-0.753924	-0.063767
C43	C	0.938367	-0.815841	-0.063772
C44	C	1.039926	-0.815813	-0.165402
C45	C	1.039921	-0.753894	-0.165400
C46	C	0.989142	-0.722950	-0.114578
C47	C	1.039839	-0.246169	-0.165399
C48	C	1.039820	-0.184248	-0.165401
C49	C	0.938265	-0.184281	-0.063769
C50	C	0.938280	-0.246197	-0.063770
C51	C	0.989074	-0.277139	-0.114588
O52	O	0.895130	-0.344164	-0.020601
O53	O	1.083056	-0.344157	-0.208601
C54	C	1.142175	-0.000053	-0.108476
C55	C	1.235125	-0.000054	-0.110127
C56	C	0.995205	-0.000047	0.038494
C57	C	0.993553	-0.000044	0.131444
N58	N	0.989152	0.153208	-0.114583
C59	C	0.982980	-0.000046	-0.267671
C60	C	0.984631	-0.000046	-0.360621
C61	C	0.987621	-0.000045	0.469192
C62	C	0.896069	0.000180	0.421758
C63	C	0.897721	-0.000042	0.325068
C64	C	0.990564	-0.000044	0.301631
C65	C	1.035699	-0.056219	0.342709
C66	C	1.033399	-0.056266	0.439345
C67	C	1.035333	0.055598	0.439703
C68	C	1.035312	0.056341	0.342757
C69	C	0.992231	-0.000045	0.206934
C70	C	0.985956	-0.000048	0.563890
H71	H	0.416879	0.098162	-0.125986
N72	N	1.142522	-0.562576	-0.268140
N73	N	1.109820	-0.597121	-0.323491
H74	H	1.146440	-0.619435	-0.360179
H75	H	1.000454	-0.098256	0.457646
N76	N	0.886422	-0.152674	-0.011831
N77	N	0.841111	-0.180328	0.033560
H78	H	0.804508	-0.158005	0.070255
N79	N	1.091718	-0.277780	-0.217301
N80	N	1.147086	-0.312319	-0.184647
H81	H	1.183722	-0.334646	-0.221305
H82	H	0.560197	0.097934	-0.129853
H83	H	0.434208	-0.040550	0.015031
H84	H	1.081274	-0.841020	-0.206777
N85	N	0.428171	0.049984	0.024131
N86	N	0.375875	0.085958	-0.010436
H87	H	0.358516	0.121449	0.021834
H88	H	1.005417	0.098175	0.460242
N89	N	1.121265	-0.058836	0.324989
N90	N	1.150003	-0.019235	0.281783
H91	H	1.210435	-0.021081	0.269266
N92	N	0.584409	0.050555	0.021619
N93	N	0.575129	0.057128	0.097609
H94	H	0.599828	0.092864	0.129277
H95	H	0.859624	-0.039876	0.441352
N96	N	0.994005	0.108489	0.308517
N97	N	0.962171	0.143989	0.355778
H98	H	0.933007	0.180821	0.331588
H99	H	0.859492	0.040464	0.440290
H100	H	0.403028	-0.056071	-0.228308
N101	N	1.120247	0.060584	0.323480
N102	N	1.171517	0.020239	0.345369
H103	H	1.231506	0.023230	0.331752
N104	N	1.142510	-0.437416	-0.268117
N105	N	1.109811	-0.402869	-0.323458
H106	H	1.146436	-0.380520	-0.360117
H107	H	0.577850	-0.040308	0.012278
H108	H	0.402924	0.058722	-0.226132
N109	N	1.120014	0.056059	0.479538
N110	N	1.145215	0.015629	0.529442
H111	H	1.205020	0.015948	0.557576
H112	H	0.545933	0.058219	-0.229425
H113	H	1.100614	-0.058816	0.471593
H114	H	0.896927	-0.271414	-0.022399
H115	H	0.846225	-0.556228	0.028449
N116	N	0.409001	-0.109100	-0.123257
N117	N	0.368577	-0.106800	-0.060882
H118	H	0.350363	-0.144517	-0.034354
H119	H	0.861971	-0.040376	0.297203
N120	N	0.565972	-0.108557	-0.119416
N121	N	0.620470	-0.104242	-0.057223
H122	H	0.644656	-0.141056	-0.028003
H123	H	0.547099	-0.059823	-0.228489
H124	H	1.081165	-0.159034	-0.206789
H125	H	1.081264	-0.728682	-0.206783
N126	N	0.996318	-0.108656	0.307114
N127	N	0.920244	-0.118134	0.313147
H128	H	0.892425	-0.155167	0.288010
N129	N	0.886486	-0.847464	-0.011869
N130	N	0.841149	-0.819819	0.033489
H131	H	0.804507	-0.842150	0.070151
H132	H	0.897009	-0.728733	-0.022385
N133	N	0.835719	-0.437487	0.038995
N134	N	0.845768	-0.444404	0.117021
H135	H	0.809155	-0.422077	0.153700
N136	N	0.853207	0.050475	0.289419
N137	N	0.820698	0.086141	0.335944
H138	H	0.789253	0.121819	0.310770
