data_functionalizedCrystal
_audit_creation_method	'MofGen! by Chris Wilmer'
_symmetry_space_group_name_H-M	'P1'
_symmetry_Int_Tables_number	1
_symmetry_cell_setting	triclinic
loop_
_symmetry_equiv_pos_as_xyz
  x,y,z
_cell_length_a	6.817900
_cell_length_b	9.108949
_cell_length_c	14.858572
_cell_angle_alpha	99.358378
_cell_angle_beta	104.524003
_cell_angle_gamma	111.764586
loop_
_atom_site_label
_atom_site_type_symbol
_atom_site_fract_x
_atom_site_fract_y
_atom_site_fract_z
V1	V	-4.094841	-0.226457	-0.308039
O2	O	-4.023160	0.009827	-0.283656
O3	O	-4.101577	-0.448010	-0.323743
O4	O	-4.050727	-0.223436	-0.434259
O5	O	-4.074362	-0.216302	-0.172374
V6	V	-4.570769	-0.198140	-0.289648
O7	O	-4.372759	-0.288572	-0.348379
O8	O	-4.743048	-0.136024	-0.249308
O9	O	-4.340826	0.023414	-0.273944
O10	O	-4.759847	-0.434423	-0.314031
O11	O	-4.708645	-0.208294	-0.425313
O12	O	-4.391676	-0.201160	-0.163428
C13	C	-3.959852	-0.502006	-0.323479
C14	C	-4.046675	-0.683132	-0.337160
C15	C	-3.894986	-0.215537	-0.464452
C16	C	-3.940567	-0.214534	-0.567755
C17	C	-4.107394	-0.210866	-0.946031
C18	C	-4.060969	-0.211887	-0.840783
C19	C	-4.023982	-0.212701	-0.756897
C20	C	-3.977554	-0.213719	-0.651642
C21	C	-4.145895	0.077401	-0.274206
C22	C	-4.038311	0.258526	-0.260531
C23	C	-4.210760	-0.209064	-0.133230
C24	C	-4.144416	-0.210059	-0.029926
H25	H	-3.964735	-0.652848	-0.184458
C26	C	-4.369769	-0.909879	-0.457488
C27	C	-4.146005	-0.802755	-0.439854
H28	H	-4.431086	-0.983742	-0.520886
H29	H	-4.453840	-0.847831	-0.452303
H30	H	-4.376126	-0.970736	-0.411239
H31	H	-4.139649	-0.741889	-0.486099
H32	H	-4.061912	-0.864811	-0.445048
