data_functionalizedCrystal
_audit_creation_method	'MofGen! by Chris Wilmer'
_symmetry_space_group_name_H-M	'P1'
_symmetry_Int_Tables_number	1
_symmetry_cell_setting	triclinic
loop_
_symmetry_equiv_pos_as_xyz
  x,y,z
_cell_length_a	10.654546
_cell_length_b	11.792254
_cell_length_c	9.130313
_cell_angle_alpha	89.998555
_cell_angle_beta	89.998822
_cell_angle_gamma	84.341040
loop_
_atom_site_label
_atom_site_type_symbol
_atom_site_fract_x
_atom_site_fract_y
_atom_site_fract_z
O1	O	1.667394	0.159395	-0.121832
O2	O	1.301872	0.174588	-0.121828
O3	O	1.493495	0.001842	-0.121820
O4	O	1.475771	0.332140	-0.121841
O5	O	1.493493	0.001847	0.121779
O6	O	1.301870	0.174592	0.121771
O7	O	1.667391	0.159400	0.121767
Cu8	Cu	1.484631	0.166996	0.144011
Cu9	Cu	1.484633	0.166991	-0.144073
O10	O	1.475769	0.332145	0.121758
C11	C	1.255076	0.173475	-0.000028
C12	C	1.115642	0.170140	-0.000026
C13	C	1.050153	0.168560	-0.132819
C14	C	0.919141	0.165417	-0.132830
C15	C	0.919119	0.165431	0.132755
C16	C	1.050128	0.168582	0.132765
C17	C	1.050165	0.168546	-0.286152
C18	C	0.919153	0.165404	-0.286164
C19	C	1.492377	-0.040449	-0.000021
C20	C	1.489036	-0.166470	-0.000022
C21	C	1.486320	-0.268812	-0.000027
C22	C	1.482925	-0.397207	-0.000041
C23	C	1.714188	0.160512	-0.000037
C24	C	1.853622	0.163847	-0.000048
C25	C	1.476887	0.374436	-0.000044
C26	C	1.480228	0.500457	-0.000052
N27	N	1.484638	0.167000	0.346634
N28	N	1.484636	0.166979	-0.346695
C29	C	1.569510	0.090534	0.423289
C30	C	1.569507	0.090520	0.576626
C31	C	1.399755	0.243448	0.576638
C32	C	1.399753	0.243455	0.423304
C33	C	1.667519	0.002246	0.423284
C34	C	1.667515	0.002232	0.576620
H35	H	0.867217	0.246234	-0.333762
F36	F	1.119819	0.170286	0.274100
H37	H	1.758626	0.029889	0.375722
F38	F	1.118070	0.062894	-0.348318
F39	F	0.887004	0.060645	-0.363097
F40	F	1.309418	0.324812	0.658248
F41	F	1.639808	-0.111780	0.368883
F42	F	0.849384	0.163774	0.274072
F43	F	1.627924	-0.105518	0.638783
H44	H	1.074762	0.248688	-0.345030
F45	F	1.309408	0.324825	0.341722
F46	F	1.793592	0.027640	0.631020
