data_functionalizedCrystal
_audit_creation_method	'MofGen! by Chris Wilmer'
_symmetry_space_group_name_H-M	'P1'
_symmetry_Int_Tables_number	1
_symmetry_cell_setting	triclinic
loop_
_symmetry_equiv_pos_as_xyz
  x,y,z
_cell_length_a	15.297475
_cell_length_b	17.640280
_cell_length_c	15.299447
_cell_angle_alpha	67.456776
_cell_angle_beta	69.207769
_cell_angle_gamma	67.467946
loop_
_atom_site_label
_atom_site_type_symbol
_atom_site_fract_x
_atom_site_fract_y
_atom_site_fract_z
Zn1	Zn	1.602327	-0.454511	-0.682198
Zn2	Zn	1.607054	-0.615805	-0.494973
Zn3	Zn	1.419878	-0.454493	-0.499829
Zn4	Zn	1.470344	-0.574254	-0.631749
O5	O	1.524901	-0.524766	-0.577187
O6	O	1.736524	-0.493304	-0.676442
O7	O	1.563083	-0.611788	-0.362054
O8	O	1.420982	-0.336873	-0.547166
O9	O	1.739996	-0.611806	-0.538889
O10	O	1.555027	-0.336886	-0.681151
O11	O	1.425565	-0.493272	-0.365621
O12	O	1.293003	-0.452982	-0.498248
O13	O	1.506995	-0.540989	-0.772005
O14	O	1.330081	-0.540970	-0.595169
O15	O	1.603962	-0.453014	-0.809069
O16	O	1.612018	-0.727916	-0.489971
O17	O	1.511578	-0.697388	-0.590460
C18	C	1.276909	-0.492466	-0.541762
C19	C	1.170824	-0.478665	-0.526625
C20	C	1.567816	-0.743151	-0.534239
C21	C	1.586267	-0.836584	-0.515910
C22	C	0.949124	-0.623407	-0.685371
C23	C	1.048796	-0.636380	-0.699589
C24	C	1.079309	-0.596952	-0.656349
C25	C	1.010138	-0.544550	-0.598889
C26	C	0.910455	-0.531581	-0.584664
C27	C	1.040640	-0.505126	-0.555643
C28	C	0.971469	-0.452723	-0.498183
C29	C	0.871797	-0.439756	-0.483961
C30	C	0.841285	-0.479184	-0.527200
C31	C	1.140323	-0.518095	-0.569868
C32	C	1.101654	-0.426268	-0.469161
C33	C	1.001981	-0.413295	-0.454943
C34	C	1.385171	-1.064555	-0.716833
C35	C	1.402506	-1.152354	-0.699580
C36	C	1.507188	-1.184070	-0.595075
C37	C	1.489865	-1.096272	-0.612323
C38	C	1.428855	-1.036521	-0.673202
C39	C	1.533549	-1.068238	-0.568692
C40	C	1.516224	-0.980448	-0.585935
C41	C	1.455214	-0.920691	-0.646809
C42	C	1.411530	-0.948730	-0.690445
C43	C	1.594554	-1.127991	-0.507808
C44	C	1.638238	-1.099957	-0.464177
C45	C	1.620918	-1.012165	-0.481425
C46	C	1.559909	-0.952409	-0.542299
C47	C	1.664603	-0.984126	-0.437789
C48	C	1.647277	-0.896336	-0.455031
C49	C	1.542583	-0.864618	-0.559541
C50	C	1.773861	-0.557192	-0.612751
C51	C	1.879953	-0.571011	-0.627907
C52	C	1.560580	-0.492369	-0.826136
C53	C	1.575785	-0.478563	-0.932224
C54	C	1.481847	-0.305529	-0.620327
C55	C	1.463501	-0.212103	-0.638711
C56	C	1.416703	-0.622864	-1.154077
C57	C	1.402408	-0.635829	-1.054402
C58	C	1.445751	-0.596514	-1.023853
C59	C	1.503392	-0.544231	-1.092988
C60	C	1.517683	-0.531258	-1.192673
C61	C	1.546730	-0.504909	-1.062448
C62	C	1.604371	-0.452625	-1.131583
C63	C	1.618660	-0.439656	-1.231258
C64	C	1.575317	-0.478971	-1.261808
C65	C	1.532440	-0.517881	-0.962763
C66	C	1.633419	-0.426275	-1.001359
C67	C	1.647714	-0.413310	-1.101034
C68	C	1.489403	-0.556983	-0.329226
C69	C	1.474337	-0.570576	-0.223212
H70	H	1.160468	-0.607518	-0.667929
H71	H	0.760125	-0.468622	-0.515629
H72	H	1.441101	-0.849207	-0.660839
O73	O	1.346419	-0.686562	-0.987122
C74	C	1.279701	-0.747184	-0.816456
C75	C	1.343113	-0.689688	-0.892551
H76	H	1.277024	-0.749746	-0.739979
H77	H	1.202616	-0.719853	-0.827894
H78	H	1.312577	-0.814576	-0.825169
H79	H	1.310323	-0.622284	-0.883884
H80	H	1.420192	-0.717089	-0.881091
H81	H	0.924270	-0.655509	-0.720563
O82	O	1.374498	-0.661083	-1.183589
C83	C	1.272880	-0.753349	-1.134803
C84	C	1.320607	-0.710100	-1.101249
H85	H	1.229315	-0.793004	-1.068249
H86	H	1.222026	-0.702216	-1.181892
H87	H	1.332035	-0.796895	-1.179119
H88	H	1.261520	-0.666559	-1.056895
H89	H	1.371483	-0.761278	-1.054210
O90	O	1.483414	-0.806646	-0.618812
C91	C	1.454975	-0.752568	-0.779795
C92	C	1.522048	-0.818281	-0.712773
H93	H	1.486196	-0.761941	-0.855782
H94	H	1.379024	-0.762047	-0.748667
H95	H	1.450084	-0.685019	-0.784566
H96	H	1.527021	-0.885857	-0.707975
H97	H	1.597963	-0.808728	-0.743927
O98	O	1.589345	-0.466321	-1.358672
C99	C	1.665230	-0.397423	-1.522893
C100	C	1.649438	-0.411685	-1.413227
H101	H	1.713798	-0.353236	-1.567033
H102	H	1.701759	-0.461555	-1.540025
H103	H	1.591754	-0.366873	-1.542810
H104	H	1.722872	-0.442207	-1.393233
H105	H	1.612862	-0.347531	-1.396153
O106	O	1.723853	-1.042058	-0.378590
C107	C	1.825911	-1.064256	-0.276793
C108	C	1.758814	-0.998558	-0.343797
H109	H	1.854213	-1.029111	-0.248660
H110	H	1.783119	-1.106180	-0.212461
H111	H	1.890136	-1.106122	-0.319716
H112	H	1.694578	-0.956635	-0.300958
H113	H	1.801677	-0.956694	-0.408130
H114	H	1.556859	-1.232731	-0.545504
O115	O	1.326056	-1.006468	-0.776106
C116	C	1.312021	-0.888840	-0.922541
C117	C	1.379074	-0.954591	-0.855517
H118	H	1.354853	-0.846869	-0.986749
H119	H	1.283792	-0.923903	-0.950857
H120	H	1.247746	-0.847032	-0.879589
H121	H	1.443396	-0.996418	-0.898403
H122	H	1.407226	-0.919475	-0.827197
O123	O	1.697495	-1.158116	-0.405088
C124	C	1.770505	-1.307418	-0.332125
C125	C	1.703400	-1.241648	-0.399089
H126	H	1.775284	-1.374969	-0.327237
H127	H	1.846488	-1.298008	-0.363323
H128	H	1.739362	-1.297961	-0.256177
H129	H	1.734455	-1.251065	-0.475052
H130	H	1.627425	-1.251076	-0.367811
H131	H	1.682848	-0.873511	-0.419501
O132	O	1.115855	-0.687274	-0.755466
C133	C	1.143685	-0.777028	-0.853800
C134	C	1.067635	-0.719393	-0.790557
H135	H	1.104729	-0.803027	-0.882172
H136	H	1.189944	-0.738107	-0.918067
H137	H	1.192694	-0.832671	-0.807916
H138	H	1.018562	-0.663742	-0.836359
H139	H	1.021447	-0.758375	-0.726285
O140	O	1.476327	-0.568545	-0.895583
C141	C	1.333576	-0.577737	-0.762381
C142	C	1.397025	-0.520252	-0.838427
H143	H	1.269458	-0.538720	-0.716137
H144	H	1.304980	-0.603587	-0.801295
H145	H	1.379367	-0.633485	-0.713368
H146	H	1.351298	-0.464463	-0.887462
H147	H	1.425628	-0.494468	-0.799451
H148	H	0.945649	-0.370629	-0.408159
H149	H	0.815480	-0.397096	-0.437161
H150	H	1.665587	-0.397076	-1.287547
H151	H	1.694646	-0.370740	-1.157337
H152	H	1.434109	-0.607075	-0.942692
H153	H	1.608661	-1.199475	-0.493774
O154	O	1.360031	-1.179439	-0.742085
C155	C	1.254319	-1.138712	-0.847524
C156	C	1.302376	-1.107920	-0.799471
H157	H	1.207678	-1.080905	-0.893915
H158	H	1.313321	-1.178936	-0.895719
H159	H	1.206324	-1.179102	-0.788445
H160	H	1.350365	-1.067497	-0.858484
H161	H	1.243325	-1.067742	-0.751253
O162	O	1.675479	-0.388165	-0.971528
C163	C	1.698137	-0.367485	-0.835069
C164	C	1.650482	-0.410718	-0.868726
H165	H	1.677928	-0.385688	-0.751952
H166	H	1.780822	-0.389722	-0.862680
H167	H	1.670883	-0.294980	-0.865671
H168	H	1.677658	-0.483228	-0.838137
H169	H	1.567801	-0.388412	-0.841127
H170	H	1.361857	-0.900077	-0.740027
O171	O	1.131402	-0.388100	-0.427100
C172	C	1.223147	-0.408023	-0.316531
C173	C	1.189537	-0.451351	-0.364111
H174	H	1.270138	-0.459143	-0.265579
H175	H	1.267543	-0.364520	-0.375680
H176	H	1.156574	-0.368322	-0.273059
H177	H	1.256055	-0.491097	-0.407577
H178	H	1.145108	-0.494804	-0.304916
H179	H	1.196633	-0.560761	-0.616653
