data_functionalizedCrystal
_audit_creation_method	'MofGen! by Chris Wilmer'
_symmetry_space_group_name_H-M	'P1'
_symmetry_Int_Tables_number	1
_symmetry_cell_setting	triclinic
loop_
_symmetry_equiv_pos_as_xyz
  x,y,z
_cell_length_a	19.188929
_cell_length_b	13.339070
_cell_length_c	11.804365
_cell_angle_alpha	74.875130
_cell_angle_beta	78.231222
_cell_angle_gamma	80.612963
loop_
_atom_site_label
_atom_site_type_symbol
_atom_site_fract_x
_atom_site_fract_y
_atom_site_fract_z
O1	O	-0.339569	1.361272	-0.099291
O2	O	-0.293669	1.066940	-0.099254
O3	O	-0.216634	1.222585	-0.099200
O4	O	-0.416604	1.205628	-0.099345
O5	O	-0.236886	1.181610	0.098842
O6	O	-0.313921	1.025965	0.098788
O7	O	-0.359821	1.320297	0.098751
Cu8	Cu	-0.338720	1.169390	0.116852
Cu9	Cu	-0.314770	1.217848	-0.117355
O10	O	-0.436856	1.164653	0.098697
C11	C	-0.296042	1.008797	-0.000227
C12	C	-0.272931	0.896593	-0.000209
C13	C	-0.452629	0.531036	-0.000359
C14	C	-0.474345	0.636457	-0.000379
C15	C	-0.423993	0.701496	-0.000336
C16	C	-0.351922	0.661104	-0.000274
C17	C	-0.330203	0.555675	-0.000263
C18	C	-0.301567	0.726135	-0.000240
C19	C	-0.229496	0.685743	-0.000178
C20	C	-0.207781	0.580324	-0.000166
C21	C	-0.258132	0.515285	-0.000208
C22	C	-0.323286	0.831564	-0.000251
C23	C	-0.200860	0.856203	-0.000155
C24	C	-0.179144	0.750782	-0.000135
C25	C	-0.452847	1.185694	-0.000343
C26	C	-0.530669	1.187357	-0.000400
C27	C	-0.557710	1.096016	-0.000365
C28	C	-0.630841	1.097562	-0.000338
C29	C	-0.676930	1.190449	-0.000323
C30	C	-0.649880	1.281804	-0.000365
C31	C	-0.576750	1.280258	-0.000404
N32	N	-0.805702	1.247494	0.067141
N33	N	-0.875172	1.248955	0.067180
C34	C	-0.897268	1.195113	-0.000209
N35	N	-0.847269	1.139736	-0.067624
N36	N	-0.777792	1.138270	-0.067658
C37	C	-0.756228	1.192136	-0.000282
C38	C	-1.003605	1.105443	-0.000146
C39	C	-1.076736	1.106994	-0.000127
C40	C	-1.095776	1.291235	-0.000142
C41	C	-1.022644	1.289684	-0.000173
C42	C	-0.976564	1.196784	-0.000170
C43	C	-0.200643	1.201544	-0.000163
C44	C	-0.122820	1.199882	-0.000114
C45	C	-0.357448	1.378441	-0.000279
C46	C	-0.380558	1.490646	-0.000305
N47	N	-0.355567	1.135315	0.281581
N48	N	-0.297920	1.251931	-0.282084
C49	C	-0.257452	1.333758	0.655598
C50	C	-0.244704	1.359535	0.530945
C51	C	-0.272419	1.303481	0.468598
C52	C	-0.312883	1.221648	0.530916
C53	C	-0.325636	1.195874	0.655581
C54	C	-0.340603	1.165597	0.468581
C55	C	-0.381067	1.083764	0.530898
C56	C	-0.393818	1.057994	0.655551
C57	C	-0.366104	1.114047	0.717898
C58	C	-0.327850	1.191371	0.343916
C59	C	-0.396034	1.053487	0.343898
C60	C	-0.408782	1.027711	0.468551
H61	H	-0.441678	0.787335	-0.000356
H62	H	-0.520194	1.020372	-0.000372
C63	C	-0.552628	0.680099	-0.000380
C64	C	-0.592079	0.600573	-0.000380
C65	C	-0.664201	0.640734	-0.000362
H66	H	-0.556680	0.734984	-0.069429
H67	H	-0.570742	0.706386	0.068703
H68	H	-0.573971	0.574301	-0.069456
H69	H	-0.588048	0.545683	0.068664
H70	H	-0.682315	0.667021	0.068720
H71	H	-0.668247	0.695619	-0.069413
H72	H	-0.690979	0.586780	-0.000352
C73	C	-0.100923	0.706740	-0.000136
C74	C	-0.092683	0.600502	-0.000164
C75	C	-0.020635	0.559899	-0.000182
H76	H	-0.086315	0.714678	0.068923
H77	H	-0.072247	0.743317	-0.069209
H78	H	-0.121349	0.563936	0.068901
H79	H	-0.107275	0.592534	-0.069219
H80	H	0.008041	0.596475	-0.069254
H81	H	-0.006033	0.567844	0.068879
H82	H	-0.015033	0.487815	-0.000212
C83	C	-0.200689	1.448206	0.463000
C84	C	-0.242335	1.524816	0.391133
C85	C	-0.201717	1.606391	0.328433
H86	H	-0.159700	1.421773	0.414468
H87	H	-0.185885	1.478022	0.517758
H88	H	-0.257129	1.495003	0.336382
H89	H	-0.283322	1.551277	0.439635
H90	H	-0.186913	1.636207	0.383191
H91	H	-0.160730	1.579948	0.279908
H92	H	-0.229969	1.658384	0.279673
H93	H	-0.234895	1.379394	0.706370
H94	H	-0.652863	1.023179	-0.000307
C95	C	-0.437650	0.969070	0.723362
C96	C	-0.395810	0.892576	0.795004
C97	C	-0.436165	0.810652	0.857496
H98	H	-0.452343	0.939251	0.668516
H99	H	-0.478711	0.995208	0.772024
H100	H	-0.354761	0.866441	0.746346
H101	H	-0.381116	0.922362	0.849872
H102	H	-0.477227	0.836789	0.906158
H103	H	-0.450856	0.780841	0.802642
H104	H	-0.407785	0.758745	0.906120
C105	C	-0.258722	1.331557	0.333260
C106	C	-0.324237	1.360223	0.291953
C107	C	-0.311643	1.386108	0.167282
H108	H	-0.233782	1.272890	0.304940
H109	H	-0.230686	1.388358	0.305029
H110	H	-0.352262	1.303428	0.320172
H111	H	-0.349187	1.418896	0.320240
H112	H	-0.283607	1.442909	0.139051
H113	H	-0.286701	1.327437	0.138974
H114	H	-0.356091	1.405570	0.139240
H115	H	-0.294904	1.258001	0.293188
H116	H	-0.687408	1.357437	-0.000375
H117	H	-0.441729	0.961080	0.519305
C118	C	-0.426269	0.992723	0.276286
C119	C	-0.501099	1.002571	0.306524
C120	C	-0.528976	0.946628	0.244244
H121	H	-0.407772	0.921039	0.296695
H122	H	-0.412925	1.019796	0.193107
H123	H	-0.514437	0.975493	0.389683
H124	H	-0.519615	1.074242	0.286111
H125	H	-0.515631	0.973701	0.161066
H126	H	-0.510474	0.874948	0.264659
H127	H	-0.579750	0.953310	0.264744
C128	C	-0.146129	0.926807	-0.000352
C129	C	-0.093509	0.929706	-0.102226
C130	C	-0.043089	0.994753	-0.102461
H131	H	-0.124401	0.900378	0.068648
H132	H	-0.169353	0.995406	-0.000429
H133	H	-0.070288	0.861121	-0.102139
H134	H	-0.115215	0.956145	-0.171243
H135	H	-0.066312	1.063351	-0.102537
H136	H	-0.021366	0.968317	-0.033456
H137	H	-0.007384	0.996736	-0.171586
H138	H	-0.381967	0.864440	-0.000298
H139	H	-0.149095	0.547444	-0.000128
C140	C	-0.953459	1.004678	-0.000097
C141	C	-0.883629	1.022864	-0.000097
C142	C	-0.837420	0.930062	-0.000037
H143	H	-0.954406	0.981292	-0.069133
H144	H	-0.968528	0.952777	0.068999
H145	H	-0.868564	1.074748	-0.069187
H146	H	-0.882659	1.046236	0.068933
H147	H	-0.852489	0.878161	0.069060
H148	H	-0.838373	0.906683	-0.069073
H149	H	-0.790037	0.942386	-0.000026
H150	H	-0.376480	1.093057	0.819401
H151	H	-0.554734	1.354641	-0.000434
H152	H	-0.493616	0.478075	-0.000404
H153	H	-0.240455	0.429441	-0.000191
C154	C	-0.993138	1.388759	-0.000262
C155	C	-0.919226	1.367531	-0.000331
C156	C	-0.892020	1.458782	-0.000435
H157	H	-1.015987	1.412653	0.068782
H158	H	-1.001960	1.441162	-0.069350
H159	H	-0.910410	1.315146	0.068750
H160	H	-0.896358	1.343651	-0.069370
H161	H	-0.900842	1.511186	-0.069523
H162	H	-0.914874	1.482670	0.068610
H163	H	-0.841867	1.444395	-0.000493
H164	H	-1.098750	1.032612	-0.000106
H165	H	-1.133292	1.366884	-0.000216
