data_functionalizedCrystal
_audit_creation_method	'MofGen! by Chris Wilmer'
_symmetry_space_group_name_H-M	'P1'
_symmetry_Int_Tables_number	1
_symmetry_cell_setting	triclinic
loop_
_symmetry_equiv_pos_as_xyz
  x,y,z
_cell_length_a	16.974800
_cell_length_b	10.489763
_cell_length_c	16.053802
_cell_angle_alpha	87.412648
_cell_angle_beta	91.074188
_cell_angle_gamma	96.031712
loop_
_atom_site_label
_atom_site_type_symbol
_atom_site_fract_x
_atom_site_fract_y
_atom_site_fract_z
O1	O	1.050009	-0.162591	0.001535
O2	O	1.550009	0.337409	0.501535
O3	O	0.820659	-0.182116	-0.013970
O4	O	1.320659	0.317884	0.486030
O5	O	0.940543	0.013301	-0.005850
O6	O	1.440543	0.513301	0.494150
O7	O	0.930125	-0.358008	-0.006585
O8	O	1.430125	0.141992	0.493415
O9	O	0.933944	0.002590	0.132562
O10	O	1.433944	0.502590	0.632562
O11	O	0.814060	-0.192828	0.124442
O12	O	1.314060	0.307172	0.624442
O13	O	1.043410	-0.173302	0.139947
O14	O	1.543410	0.326698	0.639947
Zn15	Zn	0.927687	-0.184766	0.154171
Zn16	Zn	1.427687	0.315234	0.654171
Zn17	Zn	0.936381	-0.170652	-0.028193
Zn18	Zn	1.436381	0.329348	0.471807
O19	O	0.923526	-0.368720	0.131827
O20	O	1.423526	0.131280	0.631827
C21	C	0.787991	-0.186533	0.053251
C22	C	1.287991	0.313467	0.553251
C23	C	0.700482	-0.183720	0.047335
C24	C	1.200482	0.316280	0.547335
C25	C	0.655778	-0.188235	0.120007
C26	C	1.155778	0.311765	0.620007
C27	C	0.573556	-0.185572	0.114451
C28	C	1.073556	0.314428	0.614451
C29	C	0.536038	-0.178404	0.036223
C30	C	1.036038	0.321596	0.536223
C31	C	0.580749	-0.173885	-0.036453
C32	C	1.080749	0.326115	0.463547
C33	C	0.662970	-0.176539	-0.030897
C34	C	1.162970	0.323461	0.469103
C35	C	0.290519	-0.169832	0.011515
C36	C	0.790519	0.330168	0.511515
C37	C	0.208291	-0.167183	0.005963
C38	C	0.708291	0.332817	0.505963
C39	C	0.201103	-0.178868	0.156869
C40	C	0.701103	0.321132	0.656869
C41	C	0.283326	-0.181529	0.162418
C42	C	0.783326	0.318471	0.662418
C43	C	0.328030	-0.177003	0.089742
C44	C	0.828030	0.322997	0.589742
N45	N	0.451994	-0.175686	0.030543
N46	N	0.951994	0.324314	0.530543
N47	N	0.412074	-0.179712	0.095423
N48	N	0.912074	0.320288	0.595423
C49	C	0.936452	0.055467	0.063305
C50	C	1.436452	0.555467	0.563305
C51	C	0.934086	0.197068	0.063152
C52	C	1.434086	0.697068	0.563152
C53	C	0.857798	0.264332	0.057993
C54	C	1.357798	0.764332	0.557993
C55	C	0.890576	0.351585	0.128678
C56	C	1.390576	0.851585	0.628678
C57	C	0.897100	0.362121	-0.007784
C58	C	1.397100	0.862121	0.492216
C59	C	0.966893	0.282452	0.133896
C60	C	1.466893	0.782452	0.633896
C61	C	0.973410	0.292983	-0.002628
C62	C	1.473410	0.792983	0.497372
C63	C	1.006242	0.380208	0.068077
C64	C	1.506242	0.880208	0.568077
C65	C	1.076078	-0.168885	0.072725
C66	C	1.576078	0.331115	0.572725
C67	C	1.163587	-0.171697	0.078635
C68	C	1.663587	0.328303	0.578635
N69	N	0.921759	-0.194397	0.278629
N70	N	1.421759	0.305603	0.778629
C71	C	0.927603	0.589111	0.062684
C72	C	1.427603	1.089111	0.562684
C73	C	0.929930	0.447500	0.062872
C74	C	1.429930	0.947500	0.562872
N75	N	0.942316	-0.161011	-0.152652
N76	N	1.442316	0.338989	0.347348
C77	C	0.972789	-0.111276	0.325780
C78	C	1.472789	0.388724	0.825780
C79	C	0.968649	-0.118026	0.412906
C80	C	1.468649	0.381974	0.912906
C81	C	0.913484	-0.207903	0.452881
C82	C	1.413484	0.292097	0.952881
C83	C	0.862449	-0.291027	0.405724
C84	C	1.362449	0.208973	0.905724
C85	C	0.866585	-0.284271	0.318599
C86	C	1.366585	0.215729	0.818599
C87	C	0.895417	-0.237379	0.713067
C88	C	1.395417	0.262621	1.213067
C89	C	0.891286	-0.244132	0.800198
C90	C	1.391286	0.255868	1.300198
C91	C	0.997486	-0.071128	0.807374
C92	C	1.497486	0.428872	1.307374
C93	C	1.001621	-0.064385	0.720248
C94	C	1.501621	0.435615	1.220248
C95	C	0.950583	-0.147505	0.673098
C96	C	1.450583	0.352495	1.173098
N97	N	0.909253	-0.214806	0.541938
N98	N	1.409253	0.285194	1.041938
N99	N	0.954810	-0.140594	0.584042
N100	N	1.454810	0.359406	1.084042
H101	H	0.699368	-0.172865	-0.090074
H102	H	1.199368	0.327135	0.409926
O103	O	0.338730	-0.164965	-0.066868
O104	O	0.838730	0.335035	0.433132
H105	H	0.298825	-0.159551	-0.122196
H106	H	0.798825	0.340449	0.377804
O107	O	1.052532	0.018519	0.858227
O108	O	1.552532	0.518519	1.358227
H109	H	1.042723	0.119292	0.840801
H110	H	1.542723	0.619292	1.340801
O111	O	0.696237	-0.195987	0.204383
O112	O	1.196237	0.304013	0.704383
H113	H	0.685270	-0.111421	0.239949
H114	H	1.185270	0.388579	0.739949
H115	H	0.867562	0.397179	-0.067666
H116	H	1.367562	0.897179	0.432334
H117	H	1.017714	-0.038094	0.293239
H118	H	1.517714	0.461906	0.793239
O119	O	0.844177	0.386260	0.202215
O120	O	1.344177	0.886260	0.702215
H121	H	0.883090	0.450052	0.242474
H122	H	1.383090	0.950052	0.742474
O123	O	1.019776	0.258244	-0.076166
O124	O	1.519776	0.758244	0.423834
H125	H	0.990686	0.289977	-0.134883
H126	H	1.490686	0.789977	0.365117
H127	H	0.537162	-0.189227	0.173628
H128	H	1.037162	0.310773	0.673628
H129	H	0.817528	-0.364203	0.438276
H130	H	1.317528	0.135797	0.938276
H131	H	0.795076	0.213956	0.053819
H132	H	1.295076	0.713956	0.553819
O133	O	0.167821	-0.159443	-0.078414
O134	O	0.667821	0.340557	0.421586
H135	H	0.212720	-0.156729	-0.128018
H136	H	0.712720	0.343271	0.371982
O137	O	0.811538	-0.373901	0.267732
O138	O	1.311538	0.126099	0.767732
H139	H	0.846943	-0.432952	0.230271
H140	H	1.346943	0.067048	0.730271
H141	H	0.853861	-0.305061	0.674684
H142	H	1.353861	0.194939	1.174684
H143	H	1.010201	-0.050342	0.451296
H144	H	1.510201	0.449658	0.951296
H145	H	1.069015	0.430349	0.072362
H146	H	1.569015	0.930349	0.572362
O147	O	0.323788	-0.189320	0.246792
O148	O	0.823788	0.310680	0.746792
H149	H	0.278887	-0.192026	0.296393
H150	H	0.778887	0.307974	0.796393
H151	H	0.550196	-0.168039	-0.100148
H152	H	1.050196	0.331961	0.399852
H153	H	1.046541	0.008800	0.687702
H154	H	1.546541	0.508800	1.187702
O155	O	0.152842	-0.184395	0.235249
O156	O	0.652842	0.315605	0.735249
H157	H	0.089348	-0.181576	0.218245
H158	H	0.589348	0.318424	0.718245
O159	O	1.005963	0.236198	0.213297
O160	O	1.505963	0.736198	0.713297
H161	H	1.007384	0.130689	0.212807
H162	H	1.507384	0.630689	0.712807
H163	H	0.846361	-0.317326	0.832741
H164	H	1.346361	0.182674	1.332741
