data_functionalizedCrystal
_audit_creation_method	'MofGen! by Chris Wilmer'
_symmetry_space_group_name_H-M	'P1'
_symmetry_Int_Tables_number	1
_symmetry_cell_setting	triclinic
loop_
_symmetry_equiv_pos_as_xyz
  x,y,z
_cell_length_a	14.971486
_cell_length_b	10.654541
_cell_length_c	13.448316
_cell_angle_alpha	89.993648
_cell_angle_beta	89.998199
_cell_angle_gamma	84.049029
loop_
_atom_site_label
_atom_site_type_symbol
_atom_site_fract_x
_atom_site_fract_y
_atom_site_fract_z
O1	O	1.187837	0.163659	-0.082577
O2	O	0.927543	0.183258	-0.082604
O3	O	1.063676	-0.009345	-0.082584
O4	O	1.051704	0.356262	-0.082597
O5	O	1.063659	-0.009357	0.082800
O6	O	0.927526	0.183246	0.082780
O7	O	1.187820	0.163648	0.082807
Cu8	Cu	1.057671	0.173446	0.097894
Cu9	Cu	1.057692	0.173460	-0.097691
O10	O	1.051687	0.356251	0.082787
C11	C	0.894205	0.182376	0.000085
C12	C	0.794894	0.179749	0.000074
C13	C	0.738284	0.292898	0.000072
C14	C	0.644971	0.290423	0.000087
C15	C	0.608270	0.174797	0.000097
C16	C	0.664887	0.061639	0.000103
C17	C	0.758199	0.064116	0.000095
C18	C	0.470397	0.056485	0.000117
C19	C	0.377079	0.054008	0.000123
C20	C	0.357169	0.282792	0.000108
C21	C	0.450480	0.285268	0.000100
C22	C	0.507091	0.172110	0.000104
C23	C	1.062789	-0.056140	0.000107
C24	C	1.060160	-0.195555	0.000106
C25	C	1.222944	-0.225272	0.000135
C26	C	1.303097	-0.305626	0.000152
C27	C	1.300621	-0.436618	0.000148
C28	C	1.217984	-0.487256	0.000125
C29	C	1.137831	-0.406902	0.000109
C30	C	1.140315	-0.275909	0.000115
C31	C	0.975050	-0.377185	0.000072
C32	C	0.977523	-0.246194	0.000083
C33	C	0.892412	-0.427824	0.000049
C34	C	0.812257	-0.347470	0.000040
C35	C	0.814736	-0.216471	0.000044
C36	C	0.897370	-0.165839	0.000066
C37	C	1.221158	0.164530	0.000116
C38	C	1.320469	0.167157	0.000120
C39	C	1.052574	0.403045	0.000093
C40	C	1.055203	0.542460	0.000089
N41	N	1.057663	0.173435	0.235458
N42	N	1.057707	0.173461	-0.235256
C43	C	1.117962	0.088186	0.287508
C44	C	1.117968	0.088185	0.391611
C45	C	1.057678	0.173440	0.443663
C46	C	0.997373	0.258694	0.391606
C47	C	0.997364	0.258688	0.287505
C48	C	0.997398	0.258702	0.608587
C49	C	0.997408	0.258710	0.712695
C50	C	1.118002	0.088199	0.712692
C51	C	1.117992	0.088193	0.608591
C52	C	1.057688	0.173449	0.556542
H53	H	0.598882	0.382560	0.000083
C54	C	0.531713	-0.066508	0.000063
C55	C	0.479603	-0.168300	0.000041
C56	C	0.536055	-0.281616	-0.000030
H57	H	0.568553	-0.070488	0.057715
H58	H	0.568508	-0.070354	-0.057639
H59	H	0.442823	-0.164456	0.057737
H60	H	0.442765	-0.164362	-0.057606
H61	H	0.572851	-0.285462	-0.057731
H62	H	0.572892	-0.285583	0.057623
H63	H	0.500707	-0.350695	-0.000053
C64	C	1.183460	-0.004521	0.231179
C65	C	1.236251	-0.079202	0.299049
C66	C	1.296588	-0.164633	0.247198
H67	H	1.221053	0.040591	0.190553
H68	H	1.150982	-0.056946	0.190602
H69	H	1.268727	-0.026784	0.339608
H70	H	1.198682	-0.124341	0.339676
H71	H	1.264110	-0.217058	0.206622
H72	H	1.334175	-0.119511	0.206574
H73	H	1.332408	-0.215322	0.293240
C74	C	1.387741	-0.523658	0.000214
C75	C	1.460641	-0.451283	0.000256
C76	C	1.540908	-0.531420	0.000329
H77	H	1.390292	-0.575395	-0.057443
H78	H	1.390194	-0.575365	0.057910
H79	H	1.458190	-0.399598	-0.057434
H80	H	1.458120	-0.399548	0.057909
H81	H	1.543361	-0.583127	0.058025
H82	H	1.543450	-0.583154	-0.057330
H83	H	1.590380	-0.482326	0.000366
H84	H	0.804290	-0.028022	0.000097
C85	C	1.183298	-0.004515	0.448168
C86	C	1.135196	-0.081539	0.507928
C87	C	1.195352	-0.166965	0.560029
H88	H	1.220834	0.040603	0.488849
H89	H	1.219191	-0.055354	0.402284
H90	H	1.099319	-0.030707	0.553806
H91	H	1.097664	-0.126685	0.467272
H92	H	1.231244	-0.217803	0.514145
H93	H	1.232884	-0.121836	0.600704
H94	H	1.162723	-0.219243	0.600575
H95	H	1.224967	-0.118613	0.000151
C96	C	1.183433	-0.004569	0.769067
C97	C	1.168191	-0.128015	0.743738
C98	C	1.228460	-0.213496	0.795643
H99	H	1.174870	0.007459	0.838537
H100	H	1.243224	0.009144	0.751972
H101	H	1.108415	-0.141723	0.760841
H102	H	1.176761	-0.140083	0.674278
H103	H	1.288251	-0.199782	0.778548
H104	H	1.219892	-0.201456	0.865110
H105	H	1.218132	-0.297263	0.778458
C106	C	0.931837	0.351307	0.769032
C107	C	0.878997	0.425933	0.701171
C108	C	0.818570	0.511229	0.753032
H109	H	0.964220	0.403792	0.809639
H110	H	0.894292	0.306052	0.809627
H111	H	0.916536	0.471184	0.660592
H112	H	0.846594	0.373483	0.660562
H113	H	0.781025	0.465974	0.793627
H114	H	0.850961	0.563705	0.793637
H115	H	0.782705	0.561865	0.706996
C116	C	0.932070	0.351328	0.551945
C117	C	0.980186	0.428288	0.492144
C118	C	0.920042	0.513618	0.439941
H119	H	0.896141	0.402230	0.597737
H120	H	0.894569	0.306096	0.511288
H121	H	1.017672	0.473516	0.532798
H122	H	1.016112	0.377420	0.446334
H123	H	0.882540	0.468387	0.399285
H124	H	0.884116	0.564512	0.485741
H125	H	0.952679	0.565838	0.399354
H126	H	1.215976	-0.593918	0.000110
C127	C	0.932003	0.351451	0.231043
C128	C	0.947284	0.474897	0.256325
C129	C	0.887094	0.560382	0.204322
H130	H	0.872189	0.337843	0.248072
H131	H	0.940634	0.339321	0.161580
H132	H	0.938644	0.487022	0.325772
H133	H	1.007085	0.488545	0.239293
H134	H	0.895726	0.548251	0.134860
H135	H	0.827284	0.546762	0.221356
H136	H	0.897459	0.644149	0.221462
H137	H	0.768157	0.387054	0.000062
H138	H	0.480359	0.379421	0.000082
H139	H	1.167089	0.018778	0.566211
H140	H	0.890403	-0.534485	0.000040
H141	H	0.744981	-0.388711	0.000014
H142	H	0.311071	0.374929	0.000109
H143	H	0.347201	-0.040145	0.000132
H144	H	0.634998	-0.032506	0.000126
H145	H	1.370379	-0.264381	0.000179
H146	H	0.749465	-0.151052	0.000026
H147	H	0.899396	-0.059181	0.000076
H148	H	0.948280	0.328106	0.433993
