data_functionalizedCrystal
_audit_creation_method	'MofGen! by Chris Wilmer'
_symmetry_space_group_name_H-M	'P1'
_symmetry_Int_Tables_number	1
_symmetry_cell_setting	triclinic
loop_
_symmetry_equiv_pos_as_xyz
  x,y,z
_cell_length_a	6.817900
_cell_length_b	17.284796
_cell_length_c	16.015572
_cell_angle_alpha	74.520630
_cell_angle_beta	104.485554
_cell_angle_gamma	103.042616
loop_
_atom_site_label
_atom_site_type_symbol
_atom_site_fract_x
_atom_site_fract_y
_atom_site_fract_z
V1	V	-3.989851	-0.032421	-0.267205
O2	O	-3.984272	0.082635	-0.269842
O3	O	-3.935653	-0.142261	-0.257950
O4	O	-3.928075	0.003653	-0.387131
O5	O	-3.991902	-0.064290	-0.139766
V6	V	-4.475964	-0.022862	-0.252865
O7	O	-4.245429	-0.053388	-0.298662
O8	O	-4.670583	-0.001895	-0.221408
O9	O	-4.306955	0.086979	-0.262120
O10	O	-4.598940	-0.137917	-0.250228
O11	O	-4.591309	0.009007	-0.380304
O12	O	-4.314533	-0.058936	-0.132939
C13	C	-3.779677	-0.170150	-0.251818
C14	C	-3.816561	-0.259717	-0.245050
C15	C	-3.770009	0.015980	-0.416600
C16	C	-3.800745	0.044747	-0.514592
C17	C	-4.020748	-0.765145	-0.198298
C18	C	-3.986107	-0.680986	-0.204672
C19	C	-3.999359	-0.627252	-0.287771
C20	C	-4.047237	-0.657682	-0.364501
C21	C	-4.081863	-0.741840	-0.358126
C22	C	-3.899065	-0.374305	-0.315405
C23	C	-3.864440	-0.290141	-0.321775
C24	C	-3.803308	-0.313451	-0.161944
C25	C	-3.837950	-0.397610	-0.155577
C26	C	-3.885814	-0.428032	-0.232307
N27	N	-3.963957	-0.541227	-0.294288
N28	N	-3.921200	-0.514056	-0.225789
C29	C	-4.075902	-0.210593	-0.874993
C30	C	-4.104789	-0.183536	-0.967068
C31	C	-4.035190	-0.043549	-0.951808
C32	C	-4.006286	-0.070595	-0.859730
C33	C	-4.026648	-0.154118	-0.821329
C34	C	-3.957032	-0.014119	-0.806066
C35	C	-3.928142	-0.041163	-0.713996
C36	C	-3.948505	-0.124683	-0.675589
C37	C	-3.997757	-0.181162	-0.729259
C38	C	-3.936686	0.069404	-0.844469
C39	C	-3.887432	0.125879	-0.790805
C40	C	-3.858526	0.098835	-0.698733
C41	C	-3.878890	0.015316	-0.660326
C42	C	-3.809274	0.155314	-0.645062
C43	C	-3.780383	0.128270	-0.552992
C44	C	-3.849999	-0.011728	-0.568255
C45	C	-4.126274	0.114862	-0.268249
C46	C	-4.068627	0.204430	-0.275022
C47	C	-4.135942	-0.071266	-0.103464
C48	C	-4.084444	-0.100030	-0.005472
H49	H	-4.009961	-0.808891	-0.130630
F50	F	-3.752386	-0.281067	-0.080289
F51	F	-3.878560	-0.232955	-0.410225
H52	H	-3.870867	0.193884	-0.822084
H53	H	-3.960181	0.091421	-0.919438
F54	F	-4.132839	-0.774219	-0.439788
F55	F	-3.871630	-0.100623	-0.527381
F56	F	-3.917762	-0.153466	-0.577598
H57	H	-3.947129	-0.656219	-0.142194
F58	F	-4.013527	0.045340	-0.992687
F59	F	-3.823862	-0.454792	-0.067132
F60	F	-3.787632	0.244203	-0.685943
F61	F	-4.019389	-0.270057	-0.688385
F62	F	-3.728031	0.188377	-0.495878
H63	H	-4.144888	-0.229531	-1.010759
F64	F	-3.949862	-0.406669	-0.397066
F65	F	-4.061319	-0.600492	-0.452942
H66	H	-4.092455	-0.278606	-0.843725
