data_functionalizedCrystal
_audit_creation_method	'MofGen! by Chris Wilmer'
_symmetry_space_group_name_H-M	'P1'
_symmetry_Int_Tables_number	1
_symmetry_cell_setting	triclinic
loop_
_symmetry_equiv_pos_as_xyz
  x,y,z
_cell_length_a	10.654550
_cell_length_b	10.654550
_cell_length_c	9.130313
_cell_angle_alpha	90.000110
_cell_angle_beta	90.003780
_cell_angle_gamma	84.484903
loop_
_atom_site_label
_atom_site_type_symbol
_atom_site_fract_x
_atom_site_fract_y
_atom_site_fract_z
O1	O	-1.667834	-0.176393	-0.121916
O2	O	-1.302356	-0.193199	-0.121892
O3	O	-1.493498	-0.002057	-0.121899
O4	O	-1.476692	-0.367535	-0.121909
O5	O	-1.493496	-0.002062	0.121700
O6	O	-1.302353	-0.193204	0.121707
O7	O	-1.667832	-0.176398	0.121683
Cu8	Cu	-1.485092	-0.184802	0.143937
Cu9	Cu	-1.485095	-0.184796	-0.144146
O10	O	-1.476689	-0.367540	0.121690
C11	C	-1.255556	-0.191968	-0.000089
C12	C	-1.116113	-0.188276	-0.000080
C13	C	-1.714631	-0.177630	-0.000123
C14	C	-1.854074	-0.181321	-0.000141
C15	C	-1.492263	0.044739	-0.000101
C16	C	-1.488571	0.184182	-0.000106
N17	N	-1.485099	-0.184805	0.346560
C18	C	-1.036627	-0.300817	-0.000105
C19	C	-0.905607	-0.297341	-0.000130
C20	C	-0.933570	-0.068771	-0.000113
C21	C	-1.064588	-0.072249	-0.000077
C22	C	-1.020482	-0.432780	-0.000121
C23	C	-0.889461	-0.429304	-0.000146
C24	C	-1.477925	-0.414336	-0.000111
C25	C	-1.481616	-0.553779	-0.000116
C26	C	-1.601112	0.263668	-0.000109
C27	C	-1.597636	0.394688	-0.000119
C28	C	-1.369066	0.366725	-0.000117
C29	C	-1.372544	0.235707	-0.000118
C30	C	-1.733075	0.279813	-0.000104
C31	C	-1.729599	0.410834	-0.000114
N32	N	-1.485098	-0.184782	-0.346769
C33	C	-1.569759	-0.100196	0.423209
C34	C	-1.569756	-0.100181	0.576546
C35	C	-1.400429	-0.269395	0.576571
C36	C	-1.400427	-0.269403	0.423237
C37	C	-1.667523	-0.002506	0.423195
C38	C	-1.667519	-0.002491	0.576532
H39	H	-0.891602	0.025694	-0.000132
H40	H	-1.775096	0.244184	0.105075
H41	H	-0.843789	-0.469187	0.105021
H42	H	-1.274601	0.408693	-0.000128
H43	H	-0.847729	-0.479023	-0.102101
H44	H	-1.784692	0.250457	-0.102046
H45	H	-1.280902	0.170993	-0.000136
O46	O	-1.318012	-0.351444	0.650995
C47	C	-1.100276	-0.423039	0.697862
C48	C	-1.193475	-0.330026	0.613516
H49	H	-0.999568	-0.405773	0.667568
H50	H	-1.114706	-0.408497	0.820638
H51	H	-1.117570	-0.523780	0.667745
H52	H	-1.176237	-0.229249	0.643511
H53	H	-1.179023	-0.344679	0.490761
O54	O	-1.641865	0.112704	0.373781
C55	C	-1.595285	0.322682	0.437800
C56	C	-1.624301	0.192264	0.493960
H57	H	-1.581103	0.387051	0.534936
H58	H	-1.505891	0.312120	0.368497
H59	H	-1.677480	0.365454	0.368372
H60	H	-1.542185	0.149419	0.563449
H61	H	-1.713737	0.202907	0.563184
O62	O	-1.776287	-0.038849	0.366238
C63	C	-1.958282	0.017908	0.215006
C64	C	-1.835143	0.059243	0.279404
H65	H	-2.005916	0.097203	0.144812
H66	H	-1.936058	-0.069814	0.144655
H67	H	-2.024081	-0.004243	0.307978
H68	H	-1.769285	0.081463	0.186526
H69	H	-1.857461	0.146926	0.349794
H70	H	-1.779319	0.452592	0.101827
O71	O	-1.062943	-0.483124	-0.125502
C72	C	-1.054858	-0.664429	-0.284202
C73	C	-1.006692	-0.607586	-0.142151
H74	H	-1.009380	-0.765055	-0.297723
H75	H	-1.161676	-0.665105	-0.278416
H76	H	-1.029112	-0.605161	-0.381692
H77	H	-1.032348	-0.666806	-0.044587
H78	H	-0.899882	-0.606887	-0.148063
O79	O	-1.318306	-0.351761	0.348851
C80	C	-1.246525	-0.569458	0.302040
C81	C	-1.339624	-0.476323	0.386344
H82	H	-1.263710	-0.670185	0.332345
H83	H	-1.261058	-0.555049	0.179258
H84	H	-1.145813	-0.552075	0.332184
H85	H	-1.440373	-0.493649	0.356322
H86	H	-1.324981	-0.490754	0.509106
H87	H	-1.637006	0.088732	0.624084
H88	H	-1.764031	-0.024009	0.618142
H89	H	-1.049812	-0.484393	0.101829
H90	H	-1.129302	0.019393	-0.000036
H91	H	-1.769481	0.456479	-0.105296
