data_functionalizedCrystal
_audit_creation_method	'MofGen! by Chris Wilmer'
_symmetry_space_group_name_H-M	'P1'
_symmetry_Int_Tables_number	1
_symmetry_cell_setting	triclinic
loop_
_symmetry_equiv_pos_as_xyz
  x,y,z
_cell_length_a	14.971486
_cell_length_b	9.798715
_cell_length_c	14.971486
_cell_angle_alpha	89.996407
_cell_angle_beta	96.385871
_cell_angle_gamma	89.998496
loop_
_atom_site_label
_atom_site_type_symbol
_atom_site_fract_x
_atom_site_fract_y
_atom_site_fract_z
O1	O	1.186944	0.113335	-0.116561
O2	O	0.926543	0.113372	-0.130520
O3	O	1.063723	0.113343	0.006660
O4	O	1.049764	0.113364	-0.253741
O5	O	1.063713	-0.113640	0.006661
O6	O	0.926534	-0.113610	-0.130519
O7	O	1.186934	-0.113647	-0.116560
Zn8	Zn	1.056732	-0.149667	-0.123539
Zn9	Zn	1.056745	0.149392	-0.123541
O10	O	1.049755	-0.113618	-0.253740
C11	C	0.893214	-0.000114	-0.129895
C12	C	0.793917	-0.000100	-0.128024
N13	N	1.056730	-0.353767	-0.123538
C14	C	0.736692	-0.000096	-0.208614
C15	C	0.643392	-0.000116	-0.206850
C16	C	0.607320	-0.000132	-0.124497
C17	C	0.664552	-0.000140	-0.043902
C18	C	0.757850	-0.000130	-0.045666
C19	C	0.470090	-0.000160	-0.040231
C20	C	0.376786	-0.000168	-0.038466
C21	C	0.355632	-0.000146	-0.201415
C22	C	0.448930	-0.000135	-0.203179
C23	C	0.506156	-0.000142	-0.122584
C24	C	0.999142	-0.421565	-0.181386
C25	C	0.999154	-0.578727	-0.181385
C26	C	1.220263	-0.000158	-0.117185
C27	C	1.319561	-0.000163	-0.119056
C28	C	1.063094	-0.000148	0.039985
C29	C	1.061223	-0.000146	0.139282
N30	N	1.056754	0.353491	-0.123535
C31	C	1.050384	-0.000125	-0.287065
C32	C	1.052254	-0.000117	-0.386362
C33	C	1.141812	-0.000159	0.196507
C34	C	1.140049	-0.000145	0.289807
C35	C	1.057696	-0.000128	0.325879
C36	C	0.977101	-0.000112	0.268646
C37	C	0.978865	-0.000116	0.175349
C38	C	0.973430	-0.000106	0.463109
C39	C	0.971665	-0.000105	0.556413
C40	C	1.134614	-0.000135	0.577567
C41	C	1.136378	-0.000140	0.484269
C42	C	1.055782	-0.000125	0.427043
H43	H	0.596802	-0.000111	-0.272474
O44	O	0.483824	-0.000178	-0.283254
C45	C	0.413311	-0.000143	-0.354012
H46	H	0.349906	-0.043125	-0.328875
H47	H	0.432877	-0.066033	-0.411501
H48	H	0.400131	0.108754	-0.378875
O49	O	1.115422	-0.576880	-0.064342
C50	C	1.067177	-0.494348	-0.009275
H51	H	0.997321	-0.473033	-0.045042
H52	H	1.104392	-0.393830	0.004956
H53	H	1.060806	-0.549442	0.056788
O54	O	0.525645	0.000082	0.038082
C55	C	0.509258	0.117619	0.088082
H56	H	0.477411	0.199778	0.040893
H57	H	0.575411	0.157090	0.123874
H58	H	0.461705	0.091033	0.139910
O59	O	0.940294	-0.648423	-0.240349
C60	C	0.884958	-0.731061	-0.192470
H61	H	0.920339	-0.752327	-0.122445
H62	H	0.871017	-0.831597	-0.229744
H63	H	0.818773	-0.676084	-0.186507
H64	H	0.347419	-0.000182	0.028593
O65	O	1.115647	-0.423103	-0.064413
C66	C	1.169172	-0.329551	-0.010608
H67	H	1.170383	-0.227655	-0.047204
H68	H	1.240547	-0.370936	0.003096
H69	H	1.139870	-0.314413	0.055791
O70	O	0.629663	-0.000212	0.036175
C71	C	0.700182	-0.000178	0.106927
H72	H	0.763587	-0.043149	0.081786
H73	H	0.680627	-0.066079	0.164421
H74	H	0.713354	0.108716	0.131787
H75	H	0.804443	-0.000133	0.019958
H76	H	1.208874	-0.000181	0.167145
O77	O	0.940432	-0.351865	-0.240510
C78	C	0.988603	-0.269226	-0.295584
H79	H	1.058489	-0.247956	-0.259879
H80	H	0.951370	-0.168691	-0.309709
H81	H	0.994900	-0.324203	-0.361699
H82	H	1.205673	-0.000158	0.336396
H83	H	1.203437	-0.000163	0.454903
H84	H	0.309033	-0.000147	-0.267039
O85	O	1.212824	-0.000073	0.633279
C86	C	1.193612	-0.000087	0.723362
H87	H	1.123354	0.042896	0.727009
H88	H	1.244977	0.065812	0.765568
H89	H	1.196970	-0.108978	0.750352
H90	H	0.904606	-0.000113	0.585780
O91	O	0.895056	-0.000150	0.407646
C92	C	0.821990	-0.000103	0.459488
H93	H	0.844615	-0.043077	0.529097
H94	H	0.765515	-0.065994	0.425134
H95	H	0.796756	0.108796	0.466152
O96	O	0.897158	0.000087	0.303791
C97	C	0.891259	0.117661	0.357104
H98	H	0.961734	0.156842	0.380264
H99	H	0.855537	0.091227	0.418235
H100	H	0.851736	0.199984	0.315924
O101	O	0.900663	-0.000048	0.119629
C102	C	0.919878	-0.000086	0.029548
H103	H	0.990141	0.042873	0.025897
H104	H	0.868520	0.065823	-0.012670
H105	H	0.916510	-0.108980	0.002574
O106	O	0.771579	-0.000139	-0.288691
C107	C	0.701059	-0.000108	-0.359442
H108	H	0.637659	-0.043090	-0.334298
H109	H	0.720620	-0.065998	-0.416933
H110	H	0.687876	0.108788	-0.384306
