data_functionalizedCrystal
_audit_creation_method	'MofGen! by Chris Wilmer'
_symmetry_space_group_name_H-M	'P1'
_symmetry_Int_Tables_number	1
_symmetry_cell_setting	triclinic
loop_
_symmetry_equiv_pos_as_xyz
  x,y,z
_cell_length_a	16.974800
_cell_length_b	19.188930
_cell_length_c	15.455446
_cell_angle_alpha	87.330126
_cell_angle_beta	96.313128
_cell_angle_gamma	83.267966
loop_
_atom_site_label
_atom_site_type_symbol
_atom_site_fract_x
_atom_site_fract_y
_atom_site_fract_z
O1	O	1.048914	0.088874	0.001518
O2	O	0.817888	0.100907	-0.014709
O3	O	0.940068	-0.006774	-0.006110
O4	O	0.926733	0.196555	-0.007081
O5	O	0.947016	-0.012910	0.138638
O6	O	0.824835	0.094771	0.130039
O7	O	1.055862	0.082738	0.146266
Cu8	Cu	0.940983	0.088195	0.151369
Cu9	Cu	0.932766	0.095451	-0.019812
O10	O	0.933681	0.190420	0.137667
C11	C	0.791805	0.097497	0.055590
C12	C	0.703735	0.096471	0.049405
C13	C	0.666152	0.092642	0.125403
C14	C	0.583403	0.091666	0.119594
C15	C	0.538238	0.094523	0.037786
C16	C	0.575827	0.098350	-0.038218
C17	C	0.658575	0.099321	-0.032408
C18	C	0.290351	0.091973	0.011950
C19	C	0.207597	0.091004	0.006146
C20	C	0.215179	0.084318	0.163959
C21	C	0.297928	0.085294	0.169761
C22	C	0.335510	0.089117	0.093757
N23	N	0.453655	0.093528	0.031847
N24	N	0.420093	0.090107	0.099698
C25	C	0.943111	-0.035853	0.066236
C26	C	0.941815	-0.113356	0.066152
C27	C	1.013506	-0.158373	0.071192
C28	C	1.012288	-0.231194	0.071092
C29	C	0.939375	-0.258997	0.065971
C30	C	0.867674	-0.213970	0.060926
C31	C	0.868894	-0.141149	0.061016
N32	N	0.886006	-0.369018	0.111317
N33	N	0.884852	-0.438195	0.111232
C34	C	0.935694	-0.478400	0.065695
N35	N	0.987747	-0.446817	0.020256
N36	N	0.988904	-0.377634	0.020344
C37	C	0.938044	-0.337957	0.065871
C38	C	1.006070	-0.602379	0.070625
C39	C	1.004848	-0.675201	0.070520
C40	C	0.860232	-0.657975	0.060362
C41	C	0.861455	-0.585154	0.060458
C42	C	0.934377	-0.557361	0.065594
C43	C	1.081944	0.086148	0.075965
C44	C	1.170014	0.087175	0.082145
C45	C	0.930639	0.219498	0.065319
C46	C	0.931934	0.297002	0.065397
N47	N	0.946768	0.083091	0.271769
N48	N	0.926988	0.100549	-0.140212
C49	C	0.978904	0.054820	0.818025
C50	C	0.974511	0.058689	0.726910
C51	C	0.918198	0.108283	0.677559
C52	C	0.866279	0.154017	0.719329
C53	C	0.870677	0.150152	0.810442
C54	C	0.899247	0.124959	0.404652
C55	C	0.894852	0.128820	0.313532
C56	C	1.003085	0.033491	0.321120
C57	C	1.007474	0.029627	0.412235
C58	C	0.955559	0.075364	0.453997
N59	N	0.913704	0.112237	0.584425
N60	N	0.960056	0.071412	0.547130
H61	H	0.334697	0.082963	0.236378
F62	F	0.843993	0.173633	0.449091
F63	F	0.792586	-0.093237	0.055652
F64	F	1.091115	-0.128796	0.076639
H65	H	1.045353	-0.003744	0.287109
F66	F	0.175175	0.080247	0.244842
H67	H	0.170825	0.093333	-0.060475
F68	F	0.330338	0.096043	-0.068941
H69	H	1.070669	-0.267854	0.075193
F70	F	0.527760	0.101370	-0.125285
F71	F	0.815422	0.198825	0.854889
H72	H	0.689174	0.102440	-0.094294
F73	F	0.790074	-0.243560	0.055469
F74	F	1.083678	-0.572797	0.076095
H75	H	1.063230	-0.711854	0.074619
H76	H	0.803077	-0.548500	0.056360
F77	F	0.782632	-0.687559	0.054907
H78	H	1.024757	0.014432	0.858200
F79	F	0.806349	0.206804	0.666806
F80	F	1.029766	0.010020	0.682462
H81	H	1.053329	-0.010757	0.452415
H82	H	0.702919	0.090320	0.192020
F83	F	0.543407	0.087600	0.200483
F84	F	0.834910	0.181608	0.261015
