data_functionalizedCrystal
_audit_creation_method	'MofGen! by Chris Wilmer'
_symmetry_space_group_name_H-M	'P1'
_symmetry_Int_Tables_number	1
_symmetry_cell_setting	triclinic
loop_
_symmetry_equiv_pos_as_xyz
  x,y,z
_cell_length_a	21.395362
_cell_length_b	16.120484
_cell_length_c	21.395355
_cell_angle_alpha	92.880721
_cell_angle_beta	89.956060
_cell_angle_gamma	92.942400
loop_
_atom_site_label
_atom_site_type_symbol
_atom_site_fract_x
_atom_site_fract_y
_atom_site_fract_z
Zn1	Zn	0.945244	-0.331659	-0.367215
Zn2	Zn	1.445244	0.168341	0.132785
Zn3	Zn	0.939845	-0.471058	-0.267746
Zn4	Zn	1.439845	0.028942	0.232254
Zn5	Zn	0.840458	-0.331698	-0.262418
Zn6	Zn	1.340458	0.168302	0.237582
Zn7	Zn	0.835126	-0.471075	-0.372451
Zn8	Zn	1.335126	0.028925	0.127549
O9	O	0.890168	-0.401372	-0.317458
O10	O	1.390168	0.098628	0.182542
O11	O	1.032207	-0.350127	-0.354059
O12	O	1.532207	0.149873	0.145941
O13	O	0.926633	-0.452580	-0.179362
O14	O	1.426633	0.047420	0.320638
O15	O	0.858849	-0.215024	-0.271898
O16	O	1.358849	0.284976	0.228102
O17	O	1.028240	-0.452543	-0.280979
O18	O	1.528240	0.047457	0.219021
O19	O	0.935836	-0.214995	-0.348892
O20	O	1.435836	0.285005	0.151108
O21	O	0.853614	-0.350193	-0.175447
O22	O	1.353614	0.149807	0.324553
O23	O	0.752072	-0.350210	-0.276976
O24	O	1.252072	0.149790	0.223024
O25	O	0.849761	-0.452572	-0.459434
O26	O	1.349761	0.047428	0.040566
O27	O	0.748154	-0.452609	-0.357817
O28	O	1.248154	0.047391	0.142183
O29	O	0.930665	-0.350144	-0.455587
O30	O	1.430665	0.149856	0.044413
O31	O	0.921462	-0.587728	-0.286057
O32	O	1.421462	-0.087728	0.213943
O33	O	0.844526	-0.587741	-0.362983
O34	O	1.344526	-0.087741	0.137017
C35	C	0.727379	-0.401416	-0.317387
C36	C	1.227379	0.098584	0.182613
C37	C	0.657736	-0.401455	-0.317372
C38	C	1.157736	0.098545	0.182628
C39	C	0.881846	-0.617986	-0.325680
C40	C	1.381846	-0.117986	0.174320
C41	C	0.878344	-0.710654	-0.329218
C42	C	1.378344	-0.210654	0.170782
C43	C	0.622997	-0.454845	-0.359409
C44	C	1.122997	0.045155	0.140591
C45	C	0.557562	-0.454825	-0.359436
C46	C	1.057562	0.045175	0.140564
C47	C	0.526869	-0.401423	-0.317415
C48	C	1.026869	0.098577	0.182585
C49	C	0.561617	-0.348022	-0.275375
C50	C	1.061617	0.151978	0.224625
C51	C	0.627050	-0.348039	-0.275354
C52	C	1.127050	0.151961	0.224646
C53	C	0.423400	-0.394707	-0.260754
C54	C	0.923400	0.105293	0.239246
C55	C	0.357967	-0.394696	-0.260775
C56	C	0.857967	0.105304	0.239225
C57	C	0.325050	-0.401369	-0.317482
C58	C	0.825050	0.098631	0.182518
C59	C	0.357574	-0.408069	-0.374171
C60	C	0.857574	0.091931	0.125829
C61	C	0.423007	-0.408085	-0.374149
C62	C	0.923007	0.091915	0.125851
C63	C	0.455918	-0.401399	-0.317434
C64	C	0.955918	0.098601	0.182566
C65	C	0.219359	-0.454740	-0.359552
C66	C	0.719359	0.045260	0.140448
C67	C	0.153924	-0.454713	-0.359580
C68	C	0.653924	0.045287	0.140420
C69	C	0.157979	-0.347915	-0.275514
C70	C	0.657979	0.152085	0.224486
C71	C	0.223414	-0.347937	-0.275492
C72	C	0.723414	0.152063	0.224508
C73	C	0.254100	-0.401354	-0.317510
C74	C	0.754100	0.098646	0.182490
C75	C	0.871952	-0.880320	-0.335692
C76	C	1.371952	-0.380320	0.164308
C77	C	0.908497	-0.921584	-0.299234
C78	C	1.408497	-0.421584	0.200766
C79	C	0.904940	-1.015992	-0.302836
C80	C	1.404940	-0.515992	0.197164
C81	C	0.875507	-0.785903	-0.332091
C82	C	1.375507	-0.285903	0.167909
C83	C	1.053593	-0.401328	-0.317529
C84	C	1.553593	0.098672	0.182471
C85	C	1.123235	-0.401310	-0.317560
C86	C	1.623235	0.098690	0.182440
C87	C	0.890221	-0.401355	-0.480880
C88	C	1.390221	0.098645	0.019120
C89	C	0.890243	-0.401348	-0.550521
C90	C	1.390243	0.098652	-0.050521
C91	C	0.898540	-0.183913	-0.309217
C92	C	1.398540	0.316087	0.190783
C93	C	0.902107	-0.091245	-0.305705
C94	C	1.402107	0.408755	0.194295
C95	C	0.932368	-0.348011	-0.581232
C96	C	1.432368	0.151989	-0.081232
C97	C	0.932369	-0.347976	-0.646666
C98	C	1.432369	0.152024	-0.146666
C99	C	0.890250	-0.401291	-0.681388
C100	C	1.390250	0.098709	-0.181388
C101	C	0.848117	-0.454632	-0.650669
C102	C	1.348117	0.045368	-0.150669
C103	C	0.848114	-0.454660	-0.585236
C104	C	1.348114	0.045340	-0.085236
C105	C	0.882419	-0.476362	-0.787910
C106	C	1.382419	0.023638	-0.287910
C107	C	0.882427	-0.476335	-0.853342
C108	C	1.382427	0.023665	-0.353342
C109	C	0.890258	-0.401203	-0.883205
C110	C	1.390258	0.098797	-0.383205
C111	C	0.898094	-0.326096	-0.847628
C112	C	1.398094	0.173904	-0.347628
C113	C	0.898090	-0.326124	-0.782195
C114	C	1.398090	0.173876	-0.282195
C115	C	0.890249	-0.401266	-0.752339
C116	C	1.390249	0.098734	-0.252339
C117	C	0.932385	-0.347823	-0.984867
C118	C	1.432385	0.152177	-0.484867
C119	C	0.932382	-0.347786	-1.050302
C120	C	1.432382	0.152214	-0.550302
C121	C	0.848133	-0.454449	-1.054304
C122	C	1.348133	0.045551	-0.554304
C123	C	0.848134	-0.454479	-0.988870
C124	C	1.348134	0.045521	-0.488870
C125	C	0.890263	-0.401167	-0.954155
C126	C	1.390263	0.098833	-0.454155
C127	C	0.890154	-0.401329	-0.154668
C128	C	1.390154	0.098671	0.345332
C129	C	0.890262	-0.401101	-0.085019
C130	C	1.390262	0.098899	0.414981
H131	H	0.647977	-0.498340	-0.393624
H132	H	1.147977	0.001660	0.106376
C133	C	0.954369	-0.873534	-0.253407
C134	C	1.454369	-0.373534	0.246593
C135	C	0.948842	-0.885473	-0.182621
C136	C	1.448842	-0.385473	0.317379
C137	C	0.994710	-0.837421	-0.136793
C138	C	1.494710	-0.337421	0.363207
C139	C	1.046104	-0.777428	-0.161751
C140	C	1.546104	-0.277428	0.338249
C141	C	1.051633	-0.765486	-0.232540
C142	C	1.551633	-0.265486	0.267460
C143	C	1.005765	-0.813539	-0.278368
C144	C	1.505765	-0.313539	0.221632
H145	H	0.910795	-0.929886	-0.164142
H146	H	1.410795	-0.429886	0.335858
H147	H	0.990617	-0.846261	-0.084390
H148	H	1.490617	-0.346261	0.415610
H149	H	1.080059	-0.741857	-0.127826
H150	H	1.580059	-0.241857	0.372174
H151	H	1.089680	-0.721074	-0.251019
H152	H	1.589680	-0.221074	0.248981
H153	H	1.009858	-0.804698	-0.330771
H154	H	1.509858	-0.304698	0.169229
H155	H	0.837996	-0.915892	-0.369606
H156	H	1.337996	-0.415892	0.130394
C157	C	0.978705	-0.289361	-0.543049
C158	C	1.478705	0.210639	-0.043049
C159	C	0.977240	-0.194581	-0.548438
C160	C	1.477240	0.305419	-0.048438
C161	C	1.023577	-0.135928	-0.510254
C162	C	1.523577	0.364072	-0.010254
C163	C	1.071377	-0.172055	-0.466682
C164	C	1.571377	0.327945	0.033318
C165	C	1.072844	-0.266841	-0.461291
C166	C	1.572844	0.233159	0.038709
C167	C	1.026508	-0.325493	-0.499475
C168	C	1.526508	0.174507	0.000525
H169	H	0.941854	-0.167833	-0.580694
H170	H	1.441854	0.332167	-0.080694
H171	H	1.022491	-0.065762	-0.514245
H172	H	1.522491	0.434238	-0.014245
H173	H	1.105678	-0.128637	-0.438416
H174	H	1.605678	0.371363	0.061584
H175	H	1.108230	-0.293589	-0.429035
H176	H	1.608230	0.206411	0.070965
H177	H	1.027593	-0.395660	-0.495484
H178	H	1.527593	0.104340	0.004516
C179	C	0.978714	-0.289309	-0.680459
C180	C	1.478714	0.210691	-0.180459
C181	C	1.025055	-0.230671	-0.642275
C182	C	1.525055	0.269329	-0.142275
C183	C	1.071401	-0.172008	-0.676065
C184	C	1.571401	0.327992	-0.176065
C185	C	1.071407	-0.171982	-0.748039
C186	C	1.571407	0.328018	-0.248039
C187	C	1.025064	-0.230622	-0.786227
C188	C	1.525064	0.269378	-0.286227
C189	C	0.978717	-0.289285	-0.752437
C190	C	1.478717	0.210715	-0.252437
H191	H	1.025052	-0.230688	-0.588992
H192	H	1.525052	0.269312	-0.088992
H193	H	1.105707	-0.128598	-0.647796
H194	H	1.605707	0.371402	-0.147796
H195	H	1.105715	-0.128556	-0.773053
H196	H	1.605715	0.371444	-0.273053
H197	H	1.025066	-0.230605	-0.839510
H198	H	1.525066	0.269395	-0.339510
H199	H	0.944412	-0.332695	-0.780707
H200	H	1.444412	0.167305	-0.280707
H201	H	0.904469	-0.264969	-0.753231
H202	H	1.404469	0.235031	-0.253231
H203	H	0.904471	-0.264916	-0.871941
H204	H	1.404471	0.235084	-0.371941
H205	H	0.966686	-0.304409	-0.956601
H206	H	1.466686	0.195591	-0.456601
H207	H	0.966684	-0.304348	-1.075305
H208	H	1.466684	0.195652	-0.575305
H209	H	0.813834	-0.497852	-1.082573
H210	H	1.313834	0.002148	-0.582573
C211	C	0.801801	-0.513160	-0.955083
C212	C	1.301801	-0.013160	-0.455083
C213	C	0.755471	-0.571808	-0.993271
C214	C	1.255471	-0.071808	-0.493271
C215	C	0.709134	-0.630489	-0.959486
C216	C	1.209134	-0.130489	-0.459486
C217	C	0.709128	-0.630523	-0.887512
C218	C	1.209128	-0.130523	-0.387512
C219	C	0.755461	-0.571873	-0.849320
C220	C	1.255461	-0.071873	-0.349320
C221	C	0.801797	-0.513191	-0.883106
C222	C	1.301797	-0.013191	-0.383106
H223	H	0.755473	-0.571785	-1.046554
H224	H	1.255473	-0.071785	-0.546554
H225	H	0.674836	-0.673906	-0.987758
H226	H	1.174836	-0.173906	-0.487758
H227	H	0.674827	-0.673963	-0.862501
H228	H	1.174827	-0.173963	-0.362501
H229	H	0.755458	-0.571896	-0.796037
H230	H	1.255458	-0.071896	-0.296037
H231	H	0.836095	-0.469775	-0.854833
H232	H	1.336095	0.030225	-0.354833
H233	H	0.876050	-0.537492	-0.882304
H234	H	1.376050	-0.037492	-0.382304
C235	C	0.873806	-0.559014	-0.755065
C236	C	1.373806	-0.059014	-0.255065
C237	C	0.865197	-0.641628	-0.794194
C238	C	1.365197	-0.141628	-0.294194
C239	C	0.856583	-0.724276	-0.761349
C240	C	1.356583	-0.224276	-0.261349
C241	C	0.856578	-0.724311	-0.689375
C242	C	1.356578	-0.224311	-0.189375
C243	C	0.865188	-0.641695	-0.650242
C244	C	1.365188	-0.141695	-0.150242
C245	C	0.873801	-0.559046	-0.683087
C246	C	1.373801	-0.059046	-0.183087
H247	H	0.865200	-0.641605	-0.847477
H248	H	1.365200	-0.141605	-0.347477
H249	H	0.850210	-0.785435	-0.790318
H250	H	1.350210	-0.285435	-0.290318
H251	H	0.850202	-0.785493	-0.665062
H252	H	1.350202	-0.285493	-0.165062
H253	H	0.865184	-0.641718	-0.596959
H254	H	1.365184	-0.141718	-0.096959
H255	H	0.880174	-0.497888	-0.654118
H256	H	1.380174	0.002112	-0.154118
C257	C	0.801775	-0.513339	-0.551452
C258	C	1.301775	-0.013339	-0.051452
C259	C	0.730810	-0.506549	-0.560137
C260	C	1.230810	-0.006549	-0.060137
C261	C	0.684471	-0.565229	-0.526353
C262	C	1.184471	-0.065229	-0.026353
C263	C	0.709098	-0.630700	-0.483883
C264	C	1.209098	-0.130700	0.016117
C265	C	0.780067	-0.637492	-0.475196
C266	C	1.280067	-0.137492	0.024804
C267	C	0.826406	-0.578812	-0.508981
C268	C	1.326406	-0.078812	-0.008981
H269	H	0.712576	-0.458081	-0.591577
H270	H	1.212576	0.041919	-0.091577
H271	H	0.631935	-0.560200	-0.532784
H272	H	1.131935	-0.060200	-0.032784
H273	H	0.674796	-0.674139	-0.458874
H274	H	1.174796	-0.174139	0.041126
H275	H	0.798301	-0.685960	-0.443756
H276	H	1.298301	-0.185960	0.056244
H277	H	0.878942	-0.583840	-0.502550
H278	H	1.378942	-0.083840	-0.002550
H279	H	0.449485	-0.413538	-0.420307
H280	H	0.949485	0.086462	0.079693
H281	H	0.813823	-0.498039	-0.678943
H282	H	1.313823	0.001961	-0.178943
H283	H	0.529272	-0.498301	-0.393669
H284	H	1.029272	0.001699	0.106331
C285	C	0.459608	-0.387364	-0.198373
C286	C	0.959608	0.112636	0.301627
C287	C	0.453554	-0.310301	-0.153679
C288	C	0.953554	0.189699	0.346321
C289	C	0.489763	-0.302955	-0.091301
C290	C	0.989763	0.197045	0.408699
C291	C	0.532024	-0.372671	-0.073617
C292	C	1.032024	0.127329	0.426383
C293	C	0.538079	-0.449739	-0.118312
C294	C	1.038079	0.050261	0.381688
C295	C	0.501871	-0.457086	-0.180690
C296	C	1.001871	0.042914	0.319310
H297	H	0.422268	-0.258688	-0.166768
H298	H	0.922268	0.241312	0.333232
H299	H	0.485280	-0.245903	-0.058214
H300	H	0.985280	0.254097	0.441786
H301	H	0.558828	-0.367233	-0.027441
H302	H	1.058828	0.132767	0.472559
H303	H	0.569365	-0.501353	-0.105223
H304	H	1.069365	-0.001353	0.394777
H305	H	0.506353	-0.514137	-0.213776
H306	H	1.006353	-0.014137	0.286224
C307	C	0.321374	-0.415412	-0.436555
C308	C	0.821374	0.084588	0.063445
C309	C	0.249400	-0.415391	-0.436585
C310	C	0.749400	0.084609	0.063415
C311	C	0.213198	-0.422740	-0.498966
C312	C	0.713198	0.077260	0.001034
C313	C	0.248970	-0.430111	-0.561318
C314	C	0.748970	0.069889	-0.061318
C315	C	0.320948	-0.430133	-0.561291
C316	C	0.820948	0.069867	-0.061291
C317	C	0.357150	-0.422784	-0.498910
C318	C	0.857150	0.077216	0.001090
H319	H	0.222916	-0.409934	-0.390426
H320	H	0.722916	0.090066	0.109574
H321	H	0.159915	-0.422724	-0.498986
H322	H	0.659915	0.077276	0.001014
H323	H	0.222171	-0.435552	-0.607496
H324	H	0.722171	0.064448	-0.107496
H325	H	0.347432	-0.435590	-0.607450
H326	H	0.847432	0.064410	-0.107450
H327	H	0.410433	-0.422800	-0.498890
H328	H	0.910433	0.077200	0.001110
H329	H	0.536622	-0.304541	-0.241163
H330	H	1.036622	0.195459	0.258837
H331	H	0.331492	-0.389246	-0.214616
H332	H	0.831492	0.110754	0.285384
H333	H	0.244345	-0.498230	-0.393769
H334	H	0.744345	0.001770	0.106231
H335	H	0.125640	-0.498188	-0.393815
H336	H	0.625640	0.001812	0.106185
C337	C	0.665266	-0.289312	-0.229105
C338	C	1.165266	0.210688	0.270895
C339	C	0.659955	-0.194540	-0.230738
C340	C	1.159955	0.305460	0.269262
C341	C	0.698172	-0.135815	-0.184487
C342	C	1.198172	0.364185	0.315513
C343	C	0.741700	-0.171862	-0.136604
C344	C	1.241700	0.328138	0.363396
C345	C	0.747014	-0.266638	-0.134970
C346	C	1.247014	0.233362	0.365030
C347	C	0.708796	-0.325363	-0.181221
C348	C	1.208796	0.174637	0.318779
H349	H	0.627731	-0.167852	-0.266185
H350	H	1.127731	0.332148	0.233815
H351	H	0.694239	-0.065655	-0.185697
H352	H	1.194239	0.434345	0.314303
H353	H	0.769991	-0.128390	-0.102367
H354	H	1.269991	0.371610	0.397633
H355	H	0.779237	-0.293326	-0.099523
H356	H	1.279237	0.206674	0.400477
H357	H	0.712730	-0.395523	-0.180011
H358	H	1.212730	0.104477	0.319989
H359	H	0.132990	-0.304430	-0.241303
H360	H	0.632990	0.195570	0.258697
H361	H	0.251699	-0.304465	-0.241258
H362	H	0.751699	0.195535	0.258742
