data_functionalizedCrystal
_audit_creation_method	'MofGen! by Chris Wilmer'
_symmetry_space_group_name_H-M	'P1'
_symmetry_Int_Tables_number	1
_symmetry_cell_setting	triclinic
loop_
_symmetry_equiv_pos_as_xyz
  x,y,z
_cell_length_a	12.759401
_cell_length_b	10.686285
_cell_length_c	12.759393
_cell_angle_alpha	85.603657
_cell_angle_beta	89.979541
_cell_angle_gamma	85.633237
loop_
_atom_site_label
_atom_site_type_symbol
_atom_site_fract_x
_atom_site_fract_y
_atom_site_fract_z
Zn1	Zn	1.638396	-0.502244	-0.562005
Zn2	Zn	1.651791	-0.713281	-0.372873
Zn3	Zn	1.462701	-0.502309	-0.386336
Zn4	Zn	1.476184	-0.713195	-0.548516
O5	O	1.557268	-0.607757	-0.467432
O6	O	1.787195	-0.530247	-0.536927
O7	O	1.626671	-0.685358	-0.227634
O8	O	1.474758	-0.325724	-0.420919
O9	O	1.797036	-0.685295	-0.397973
O10	O	1.603841	-0.325677	-0.549982
O11	O	1.487747	-0.530358	-0.237525
O12	O	1.317468	-0.530274	-0.407839
O13	O	1.497739	-0.685149	-0.697330
O14	O	1.327374	-0.685211	-0.526991
O15	O	1.616915	-0.530164	-0.707241
O16	O	1.639746	-0.889845	-0.384893
O17	O	1.510728	-0.889782	-0.513936
C18	C	1.284300	-0.607742	-0.467413
C19	C	1.167525	-0.607765	-0.467427
C20	C	1.117856	-0.688564	-0.529356
C21	C	1.008132	-0.688569	-0.529377
C22	C	0.997755	-0.526973	-0.405530
C23	C	1.107476	-0.526963	-0.405516
C24	C	1.578182	-0.935598	-0.446513
C25	C	1.587225	-1.075850	-0.437598
C26	C	1.831302	-0.607773	-0.467453
C27	C	1.948079	-0.607780	-0.467462
C28	C	1.557337	-0.607640	-0.741473
C29	C	1.557366	-0.607589	-0.858253
C30	C	1.536301	-0.278636	-0.488457
C31	C	1.527367	-0.138384	-0.497416
C32	C	1.629726	-0.688204	-1.017706
C33	C	1.629704	-0.688264	-0.907978
C34	C	1.485038	-0.526859	-0.918262
C35	C	1.485056	-0.526807	-1.027987
C36	C	1.557254	-0.607783	-0.194463
C37	C	1.557406	-0.607478	-0.077707
H38	H	1.166744	-0.754355	-0.579771
H39	H	1.469202	-1.084628	-0.555451
C40	C	0.931704	-0.438103	-0.337426
H41	H	0.977002	-0.389972	-0.300548
H42	H	0.891955	-0.486306	-0.288512
H43	H	0.885418	-0.383182	-0.381208
C44	C	0.953501	-0.777444	-0.597501
H45	H	1.004982	-0.825566	-0.634365
H46	H	0.907650	-0.729244	-0.646428
H47	H	0.914181	-0.832373	-0.553735
H48	H	1.645386	-1.129614	-0.379554
C49	C	1.709301	-0.776944	-1.072395
H50	H	1.752363	-0.825037	-1.020941
H51	H	1.752012	-0.728660	-1.118287
H52	H	1.672616	-0.831905	-1.111681
H53	H	1.688594	-0.754000	-0.859131
H54	H	1.426135	-0.461178	-0.877766
C55	C	1.162116	-0.438082	-0.337389
H56	H	1.110641	-0.389973	-0.300508
H57	H	1.201434	-0.383161	-0.381155
H58	H	1.207971	-0.486289	-0.288461
H59	H	1.426159	-0.461068	-1.076841
