data_functionalizedCrystal
_audit_creation_method	'MofGen! by Chris Wilmer'
_symmetry_space_group_name_H-M	'P1'
_symmetry_Int_Tables_number	1
_symmetry_cell_setting	triclinic
loop_
_symmetry_equiv_pos_as_xyz
  x,y,z
_cell_length_a	21.395362
_cell_length_b	12.759393
_cell_length_c	21.395361
_cell_angle_alpha	90.039434
_cell_angle_beta	89.953415
_cell_angle_gamma	89.960041
loop_
_atom_site_label
_atom_site_type_symbol
_atom_site_fract_x
_atom_site_fract_y
_atom_site_fract_z
Zn1	Zn	0.957835	-0.594559	0.249135
Zn2	Zn	0.957745	-0.418855	0.353927
Zn3	Zn	0.853057	-0.418829	0.249197
Zn4	Zn	0.853019	-0.594427	0.353907
O5	O	0.905414	-0.506667	0.301542
O6	O	1.045501	-0.571317	0.263018
O7	O	0.943836	-0.271831	0.340069
O8	O	0.867010	-0.442184	0.161510
O9	O	1.045435	-0.442229	0.340009
O10	O	0.943990	-0.571292	0.161465
O11	O	0.866922	-0.271811	0.263124
O12	O	0.765374	-0.442056	0.263104
O13	O	0.866945	-0.741466	0.339975
O14	O	0.765346	-0.571068	0.340035
O15	O	0.943953	-0.741562	0.262999
O16	O	0.943799	-0.442101	0.441603
O17	O	0.866857	-0.571094	0.441588
C18	C	0.742626	-0.506546	0.301575
C19	C	0.672985	-0.506518	0.301604
C20	C	0.640274	-0.573594	0.341715
C21	C	0.574838	-0.573641	0.341699
C22	C	0.542117	-0.506593	0.301580
C23	C	0.574836	-0.439513	0.261461
C24	C	0.640270	-0.439475	0.261473
C25	C	0.438396	-0.412012	0.296550
C26	C	0.372963	-0.412047	0.296542
C27	C	0.340296	-0.506709	0.301539
C28	C	0.373070	-0.601338	0.306556
C29	C	0.438504	-0.601301	0.306568
C30	C	0.471164	-0.506627	0.301562
C31	C	0.236632	-0.573841	0.341635
C32	C	0.171196	-0.573890	0.341615
C33	C	0.171194	-0.439752	0.261380
C34	C	0.236630	-0.439713	0.261397
C35	C	0.269345	-0.506756	0.301528
C36	C	0.905455	-0.780701	0.301478
C37	C	0.905472	-0.897478	0.301451
C38	C	0.865440	-0.952336	0.261378
C39	C	0.865459	-1.062060	0.261359
C40	C	0.945547	-1.062058	0.341488
C41	C	0.945525	-0.952336	0.341509
C42	C	0.825388	-0.897477	0.221319
C43	C	0.785353	-0.952335	0.181243
C44	C	0.785372	-1.062059	0.181224
C45	C	0.825425	-1.116926	0.221282
C46	C	1.068837	-0.506790	0.301509
C47	C	1.138479	-0.506843	0.301495
C48	C	0.905331	-0.506609	0.464329
C49	C	0.905353	-0.506619	0.533970
C50	C	0.905409	-0.233700	0.301560
C51	C	0.905514	-0.116924	0.301410
C52	C	0.905514	-0.506749	0.138118
C53	C	0.905557	-0.506784	0.068477
C54	C	0.945452	-0.439522	0.566670
C55	C	0.945481	-0.439545	0.632106
C56	C	0.905400	-0.506655	0.664839
C57	C	0.865299	-0.573766	0.632131
C58	C	0.865275	-0.573748	0.566697
C59	C	0.848985	-0.514856	0.768568
C60	C	0.849008	-0.514867	0.834001
C61	C	0.905473	-0.506717	0.866659
C62	C	0.961918	-0.498534	0.833877
C63	C	0.961894	-0.498516	0.768443
C64	C	0.905422	-0.506683	0.735791
C65	C	0.945607	-0.439641	0.970312
C66	C	0.945637	-0.439672	1.035748
C67	C	0.865449	-0.573887	1.035772
C68	C	0.865424	-0.573862	0.970337
C69	C	0.905503	-0.506733	0.937611
H70	H	0.548190	-0.384924	0.228794
H71	H	0.346283	-0.334994	0.292461
H72	H	0.978131	-0.907670	0.374131
H73	H	0.825436	-1.206270	0.221265
Br74	Br	0.684667	-0.348439	0.207031
H75	H	0.832665	-0.628409	0.658786
Br76	Br	0.731026	-1.136508	0.126851
Br77	Br	1.038555	-0.487456	0.878190
Br78	Br	0.999852	-0.348434	0.522259
H79	H	1.007853	-0.491856	0.741753
H80	H	0.825369	-0.808134	0.221329
Br81	Br	0.772405	-0.525966	0.878485
H82	H	0.752739	-0.907656	0.148633
Br83	Br	0.999995	-0.348538	0.925894
Br84	Br	0.126794	-0.348767	0.206925
Br85	Br	0.684670	-0.664583	0.396176
Br86	Br	1.000069	-0.348614	1.080128
H87	H	0.832621	-0.628388	0.540072
H88	H	0.548200	-0.628266	0.374362
H89	H	0.465186	-0.678351	0.310652
Br90	Br	0.772347	-0.525922	0.724252
H91	H	0.978158	-1.106739	0.374099
H92	H	0.346474	-0.678422	0.310624
Br93	Br	0.281027	-0.348676	0.206958
H94	H	0.263270	-0.628437	0.374309
Br95	Br	0.482723	-0.283530	0.289769
Br96	Br	0.126800	-0.664939	0.396051
H97	H	0.978137	-0.384907	0.658735
Br98	Br	0.811059	-0.664978	1.080188
Br99	Br	0.811000	-0.664925	0.925955
