data_functionalizedCrystal
_audit_creation_method	'MofGen! by Chris Wilmer'
_symmetry_space_group_name_H-M	'P1'
_symmetry_Int_Tables_number	1
_symmetry_cell_setting	triclinic
loop_
_symmetry_equiv_pos_as_xyz
  x,y,z
_cell_length_a	14.519731
_cell_length_b	10.654550
_cell_length_c	12.996460
_cell_angle_alpha	89.990231
_cell_angle_beta	90.001271
_cell_angle_gamma	95.913122
loop_
_atom_site_label
_atom_site_type_symbol
_atom_site_fract_x
_atom_site_fract_y
_atom_site_fract_z
O1	O	0.129525	-1.666613	0.085654
O2	O	0.141866	-1.301017	0.085638
O3	O	0.001508	-1.493495	0.085637
O4	O	0.269882	-1.474136	0.085655
O5	O	0.001516	-1.493470	-0.085497
O6	O	0.141874	-1.300993	-0.085496
O7	O	0.129533	-1.666589	-0.085480
Cu8	Cu	0.135704	-1.483788	-0.101114
Cu9	Cu	0.135694	-1.483818	0.101272
O10	O	0.269890	-1.474111	-0.085479
C11	C	0.140964	-1.254216	0.000069
C12	C	0.138253	-1.114798	0.000062
C13	C	-0.032852	-1.492575	0.000070
C14	C	-0.135246	-1.489857	0.000069
C15	C	0.130435	-1.713390	0.000092
C16	C	0.133146	-1.852808	0.000105
C17	C	-0.218402	-1.487649	0.000071
C18	C	-0.322725	-1.484889	0.000079
C19	C	-0.405875	-1.482699	0.000086
C20	C	-0.510205	-1.479939	0.000091
C21	C	0.304250	-1.475031	0.000090
C22	C	0.406645	-1.477749	0.000098
N23	N	0.135710	-1.483777	-0.243461
C24	C	0.220893	-1.034527	0.000083
C25	C	0.218340	-0.903530	0.000100
C26	C	0.050499	-0.933090	0.000081
C27	C	0.053053	-1.064084	0.000056
C28	C	0.317794	-1.017459	0.000098
C29	C	0.315241	-0.886463	0.000116
C30	C	0.135712	-1.483783	-0.336567
C31	C	0.135706	-1.483794	-0.453372
C32	C	0.135696	-1.483810	-0.546470
C33	C	0.135691	-1.483823	-0.663283
N34	N	0.135681	-1.483839	0.243619
H35	H	-0.018867	-0.891782	0.000092
H36	H	0.355696	-1.046420	-0.071523
C37	C	0.361960	-0.698640	0.096809
C38	C	0.364516	-0.829657	0.096809
H39	H	0.392383	-0.663574	0.156498
H40	H	0.299398	-0.679942	0.096805
H41	H	0.392383	-0.663551	0.037128
H42	H	0.334087	-0.864748	0.156486
H43	H	0.427090	-0.848366	0.096822
H44	H	0.348646	-1.052832	0.073986
H45	H	-0.014241	-1.129437	0.000025
C46	C	0.383352	-0.917253	-0.165132
C47	C	0.354781	-0.824404	-0.099614
H48	H	0.407765	-0.878935	-0.226697
H49	H	0.331934	-0.976489	-0.181179
H50	H	0.429749	-0.959290	-0.131958
H51	H	0.308379	-0.782373	-0.132786
H52	H	0.406205	-0.765146	-0.083570
