data_functionalizedCrystal
_audit_creation_method	'MofGen! by Chris Wilmer'
_symmetry_space_group_name_H-M	'P1'
_symmetry_Int_Tables_number	1
_symmetry_cell_setting	triclinic
loop_
_symmetry_equiv_pos_as_xyz
  x,y,z
_cell_length_a	10.723023
_cell_length_b	10.723024
_cell_length_c	9.198806
_cell_angle_alpha	89.997988
_cell_angle_beta	89.996191
_cell_angle_gamma	84.467709
loop_
_atom_site_label
_atom_site_type_symbol
_atom_site_fract_x
_atom_site_fract_y
_atom_site_fract_z
O1	O	1.657188	0.175020	-0.120884
O2	O	2.157188	0.675020	0.379116
O3	O	1.294036	0.191774	-0.120888
O4	O	1.794036	0.691774	0.379112
O5	O	1.483989	0.001821	-0.120881
O6	O	1.983989	0.501821	0.379119
O7	O	1.467235	0.364973	-0.120892
O8	O	1.967235	0.864973	0.379108
O9	O	1.483974	0.001820	0.120904
O10	O	1.983974	0.501820	0.620904
O11	O	1.294021	0.191774	0.120897
O12	O	1.794021	0.691774	0.620897
O13	O	1.657173	0.175019	0.120901
O14	O	2.157173	0.675019	0.620901
Cu15	Cu	1.475596	0.183396	0.142976
Cu16	Cu	1.975596	0.683396	0.642976
Cu17	Cu	1.475613	0.183397	-0.142963
Cu18	Cu	1.975613	0.683397	0.357037
O19	O	1.467220	0.364973	0.120893
O20	O	1.967220	0.864973	0.620893
C21	C	1.247529	0.190555	0.000004
C22	C	1.747529	0.690555	0.500004
C23	C	1.108974	0.186908	0.000003
C24	C	1.608974	0.686908	0.500003
C25	C	0.903998	0.181512	0.125249
C26	C	1.403998	0.681512	0.625249
C27	C	1.047202	0.185281	0.125254
C28	C	1.547202	0.685281	0.625254
C29	C	1.482762	-0.044679	0.000010
C30	C	1.982762	0.455321	0.500010
C31	C	1.479114	-0.183233	0.000005
C32	C	1.979114	0.316767	0.500005
C33	C	1.585402	-0.258216	0.000004
C34	C	2.085402	0.241784	0.500004
C35	C	1.581634	-0.401420	-0.000001
C36	C	2.081634	0.098580	0.499999
C37	C	1.703680	0.176239	0.000005
C38	C	2.203680	0.676239	0.500005
C39	C	1.842235	0.179886	-0.000003
C40	C	2.342235	0.679886	0.499997
C41	C	1.468447	0.411473	-0.000001
C42	C	1.968447	0.911473	0.499999
C43	C	1.472095	0.550027	-0.000005
C44	C	1.972095	1.050027	0.499995
N45	N	1.475592	0.183395	0.344090
N46	N	1.975592	0.683395	0.844090
N47	N	1.475627	0.183388	-0.344077
N48	N	1.975627	0.683388	0.155923
C49	C	1.555348	0.103288	0.416290
C50	C	2.055348	0.603288	0.916290
C51	C	1.555367	0.103283	0.583702
C52	C	2.055367	0.603283	1.083702
H53	H	1.055867	0.185506	-0.107236
H54	H	1.555867	0.685506	0.392764
O55	O	1.117554	0.187145	0.267301
O56	O	1.617554	0.687145	0.767301
H57	H	1.082227	0.271397	0.330527
H58	H	1.582227	0.771397	0.830527
H59	H	1.623612	0.034702	0.354166
H60	H	2.123612	0.534702	0.854166
H61	H	1.623654	0.034704	0.645791
H62	H	2.123654	0.534704	1.145791
H63	H	0.895373	0.181292	-0.107233
H64	H	1.395373	0.681292	0.392767
O65	O	1.385171	0.274233	0.573683
O66	O	1.885171	0.774233	1.073683
H67	H	1.402154	0.371615	0.602789
H68	H	1.902154	0.871615	1.102789
O69	O	1.385165	0.274262	0.426353
O70	O	1.885165	0.774262	0.926353
H71	H	1.323964	0.221321	0.495728
H72	H	1.823964	0.721321	0.995728
H73	H	1.679188	-0.216394	0.000014
H74	H	2.179188	0.283606	0.500014
H75	H	0.850859	0.180119	0.232479
H76	H	1.350859	0.680119	0.732479
O77	O	1.702174	-0.486753	0.000001
O78	O	2.202174	0.013247	0.500001
H79	H	1.680299	-0.585839	-0.000011
H80	H	2.180299	-0.085839	0.499989
H81	H	1.381099	-0.385548	0.000006
H82	H	1.881099	0.114452	0.500006
H83	H	1.385328	-0.225055	-0.000005
H84	H	1.885328	0.274945	0.499995
