data_functionalizedCrystal
_audit_creation_method	'MofGen! by Chris Wilmer'
_symmetry_space_group_name_H-M	'P1'
_symmetry_Int_Tables_number	1
_symmetry_cell_setting	triclinic
loop_
_symmetry_equiv_pos_as_xyz
  x,y,z
_cell_length_a	12.837943
_cell_length_b	23.532407
_cell_length_c	11.892095
_cell_angle_alpha	93.856151
_cell_angle_beta	85.689438
_cell_angle_gamma	88.838843
loop_
_atom_site_label
_atom_site_type_symbol
_atom_site_fract_x
_atom_site_fract_y
_atom_site_fract_z
O1	O	1.380594	0.144688	-0.094026
O2	O	1.078864	0.137378	-0.094030
O3	O	1.238825	0.058624	-0.093996
O4	O	1.220632	0.223441	-0.094060
O5	O	1.225488	0.065179	0.094008
O6	O	1.065527	0.143933	0.093974
O7	O	1.367257	0.151243	0.093979
Zn8	Zn	1.214274	0.148629	0.123826
Zn9	Zn	1.231846	0.139992	-0.123878
O10	O	1.207295	0.229996	0.093945
C11	C	1.033600	0.138186	-0.000028
C12	C	0.918599	0.130822	-0.000028
C13	C	0.676730	0.219355	-0.000046
C14	C	0.568675	0.212438	-0.000046
C15	C	0.594432	0.110072	-0.000018
C16	C	0.702487	0.116989	-0.000019
C17	C	0.743632	0.171632	-0.000035
C18	C	0.851689	0.178548	-0.000043
C19	C	0.877443	0.076183	-0.000008
C20	C	0.769388	0.069267	-0.000007
C21	C	1.231693	0.040659	0.000012
C22	C	1.230298	-0.022637	0.000029
C23	C	1.129895	-0.294568	-0.000043
C24	C	1.131188	-0.235093	-0.000035
O25	O	1.051538	-0.202920	-0.000071
N26	N	1.226286	-0.207010	-0.000020
C27	C	1.320096	-0.238405	-0.000026
O28	O	1.401103	-0.209057	-0.000014
C29	C	1.318802	-0.297879	-0.000043
C30	C	1.223698	-0.325959	-0.000046
C31	C	1.034798	-0.322648	-0.000047
C32	C	1.033505	-0.382119	-0.000054
C33	C	1.127308	-0.413509	-0.000056
C34	C	1.222405	-0.385429	-0.000052
C35	C	1.412612	-0.329273	-0.000057
C36	C	1.411310	-0.388751	-0.000074
C37	C	1.316206	-0.416831	-0.000077
C38	C	1.314915	-0.476291	-0.000061
N39	N	1.219817	-0.504374	-0.000076
C40	C	1.126014	-0.472983	-0.000073
C41	C	1.322807	-0.113506	0.000007
C42	C	1.324102	-0.054033	0.000032
C43	C	1.135193	-0.050725	0.000022
C44	C	1.133899	-0.110199	0.000005
C45	C	1.227710	-0.141589	-0.000007
C46	C	1.123305	-0.597876	-0.000086
C47	C	1.122020	-0.657352	-0.000088
C48	C	1.310928	-0.660655	-0.000083
C49	C	1.312213	-0.601184	-0.000075
C50	C	1.218394	-0.569796	-0.000081
O51	O	1.394524	-0.508501	-0.000029
O52	O	1.045022	-0.502339	-0.000100
C53	C	1.412520	0.150434	-0.000026
C54	C	1.527522	0.157798	-0.000033
C55	C	1.214428	0.247961	-0.000066
C56	C	1.215823	0.311257	-0.000090
N57	N	1.202289	0.154523	0.292878
N58	N	1.243840	0.134094	-0.292930
C59	C	1.327237	0.093045	0.529552
C60	C	1.318867	0.097170	0.647892
C61	C	1.177175	0.166894	0.647900
C62	C	1.185545	0.162769	0.529560
C63	C	1.260580	0.125844	0.470390
C64	C	1.268954	0.121723	0.352048
C65	C	1.127257	0.191443	0.352058
C66	C	1.118887	0.195568	0.470398
H67	H	0.931927	0.037324	-0.000006
C68	C	1.094618	0.207493	0.713007
N69	N	1.032430	0.238068	0.762048
H70	H	1.401544	-0.031175	0.000052
C71	C	1.517237	-0.298399	-0.000059
N72	N	1.596047	-0.275146	-0.000064
H73	H	0.514207	0.251299	-0.000052
H74	H	1.057792	0.225630	0.518588
C75	C	1.409779	0.052431	0.464463
N76	N	1.471951	0.021839	0.415439
H77	H	0.560906	0.065588	0.000088
C78	C	1.514512	-0.423277	-0.000081
N79	N	1.592243	-0.449280	-0.000082
C80	C	1.053928	0.227524	0.286970
N81	N	0.998700	0.254701	0.237945
C82	C	0.724116	0.009162	0.000008
N83	N	0.690018	-0.036110	0.000016
C84	C	1.029279	-0.141081	-0.000009
N85	N	0.950475	-0.164339	-0.000023
H86	H	0.885187	0.223041	-0.000054
H87	H	0.956062	-0.404976	-0.000066
H88	H	1.330053	0.091659	0.303873
H89	H	0.710231	0.263847	-0.000061
H90	H	1.373146	0.070461	0.696059
C91	C	1.020098	-0.563358	-0.000085
N92	N	0.942361	-0.537358	-0.000075
C93	C	1.017393	-0.688236	-0.000095
N94	N	0.938591	-0.711496	-0.000104
C95	C	1.426011	-0.148029	0.000018
N96	N	1.503745	-0.174029	0.000029
H97	H	0.958408	-0.297096	-0.000049
H98	H	1.058813	-0.025156	0.000024
H99	H	1.389654	-0.578320	-0.000057
H100	H	1.387299	-0.686223	-0.000080
