data_functionalizedCrystal
_audit_creation_method	'MofGen! by Chris Wilmer'
_symmetry_space_group_name_H-M	'P1'
_symmetry_Int_Tables_number	1
_symmetry_cell_setting	triclinic
loop_
_symmetry_equiv_pos_as_xyz
  x,y,z
_cell_length_a	12.759395
_cell_length_b	16.959454
_cell_length_c	12.759395
_cell_angle_alpha	90.008099
_cell_angle_beta	90.003667
_cell_angle_gamma	90.021612
loop_
_atom_site_label
_atom_site_type_symbol
_atom_site_fract_x
_atom_site_fract_y
_atom_site_fract_z
Zn1	Zn	1.606055	-0.314779	0.594010
Zn2	Zn	1.605981	-0.446928	0.418333
Zn3	Zn	1.430405	-0.314771	0.418347
Zn4	Zn	1.430329	-0.446923	0.593972
O5	O	1.518192	-0.380850	0.506165
O6	O	1.753066	-0.332314	0.570716
O7	O	1.582691	-0.429397	0.271313
O8	O	1.453768	-0.204161	0.441671
O9	O	1.753011	-0.429404	0.441647
O10	O	1.582817	-0.204167	0.570730
O11	O	1.453696	-0.332301	0.271324
O12	O	1.283373	-0.332296	0.441634
O13	O	1.453639	-0.429395	0.740998
O14	O	1.283318	-0.429387	0.570665
O15	O	1.582744	-0.332309	0.741026
O16	O	1.582617	-0.557539	0.441610
O17	O	1.453567	-0.557534	0.570651
C18	C	1.245225	-0.380841	0.506147
C19	C	1.128448	-0.380856	0.506164
C20	C	1.128429	-0.482120	0.640307
C21	C	1.073558	-0.532759	0.707381
C22	C	0.963837	-0.532768	0.707394
C23	C	0.908983	-0.482132	0.640327
C24	C	0.963853	-0.431494	0.573253
C25	C	1.073578	-0.431491	0.573245
C26	C	0.963873	-0.330227	0.439118
C27	C	1.073594	-0.330220	0.439098
C28	C	0.909019	-0.279591	0.372052
C29	C	0.963890	-0.228955	0.304970
C30	C	1.073618	-0.228948	0.304959
C31	C	1.128465	-0.279581	0.372024
C32	C	1.518104	-0.586217	0.506147
C33	C	1.518163	-0.674073	0.506175
C34	C	1.451093	-1.045577	0.573350
C35	C	1.585584	-1.045521	0.439088
C36	C	1.585547	-0.962975	0.439078
C37	C	1.518281	-0.921726	0.506204
C38	C	1.451052	-0.963023	0.573340
C39	C	1.652768	-0.921672	0.371936
C40	C	1.652733	-0.839121	0.371923
C41	C	1.585471	-0.797871	0.439055
C42	C	1.518240	-0.839173	0.506194
C43	C	1.450974	-0.797924	0.573320
C44	C	1.383748	-0.839224	0.640466
C45	C	1.383791	-0.921773	0.640472
C46	C	1.585429	-0.715322	0.439049
C47	C	1.450933	-0.715370	0.573311
C48	C	1.792226	-0.380861	0.506184
C49	C	1.909002	-0.380865	0.506192
C50	C	1.518191	-0.380852	0.780199
C51	C	1.518190	-0.380853	0.896975
C52	C	1.518309	-0.174682	0.506206
C53	C	1.518359	-0.086826	0.506224
C54	C	1.652635	-0.279764	1.116448
C55	C	1.719855	-0.229216	1.061601
C56	C	1.719855	-0.229211	0.951879
C57	C	1.652630	-0.279761	0.897002
C58	C	1.585410	-0.330310	0.951850
C59	C	1.585415	-0.330307	1.061574
C60	C	1.450971	-0.431401	0.951823
C61	C	1.450964	-0.431403	1.061544
C62	C	1.383746	-0.481951	0.896946
C63	C	1.316519	-0.532497	0.951793
C64	C	1.316522	-0.532499	1.061522
C65	C	1.383744	-0.481951	1.116392
C66	C	1.518186	-0.380863	1.233198
C67	C	1.518189	-0.380853	1.116421
H68	H	0.819642	-0.482138	0.640353
Cl69	Cl	1.652645	-0.279764	0.759065
Cl70	Cl	1.670143	-1.097377	0.354706
H71	H	1.217770	-0.482123	0.640295
H72	H	1.118232	-0.573984	0.761987
H73	H	1.217806	-0.279583	0.372018
H74	H	1.652629	-0.279753	1.205789
H75	H	0.919161	-0.573998	0.762017
Cl76	Cl	1.299283	-0.973698	0.724873
H77	H	1.707524	-0.955263	0.317278
H78	H	1.396161	-0.681790	0.627977
Cl79	Cl	1.383750	-0.481948	0.759009
Cl80	Cl	1.232017	-0.596053	1.130463
Cl81	Cl	1.804366	-0.165669	0.882925
Cl82	Cl	1.737254	-0.787208	0.287523
H83	H	1.396362	-1.079207	0.628021
Cl84	Cl	1.232022	-0.596041	0.882801
H85	H	1.328974	-0.805630	0.695116
Cl86	Cl	1.383747	-0.481945	1.254328
H87	H	1.774590	-0.188061	1.106293
Cl88	Cl	0.771082	-0.279598	0.372074
H89	H	0.919219	-0.187728	0.250375
Cl90	Cl	1.142588	-0.165280	0.220638
H91	H	1.640159	-0.681699	0.384375
