data_functionalizedCrystal
_audit_creation_method	'MofGen! by Chris Wilmer'
_symmetry_space_group_name_H-M	'P1'
_symmetry_Int_Tables_number	1
_symmetry_cell_setting	triclinic
loop_
_symmetry_equiv_pos_as_xyz
  x,y,z
_cell_length_a	18.215407
_cell_length_b	18.215405
_cell_length_c	18.215407
_cell_angle_alpha	90.015953
_cell_angle_beta	90.009037
_cell_angle_gamma	90.025333
loop_
_atom_site_label
_atom_site_type_symbol
_atom_site_fract_x
_atom_site_fract_y
_atom_site_fract_z
Zn1	Zn	1.124994	-0.293089	0.416102
Zn2	Zn	1.374994	-0.043089	0.666102
Zn3	Zn	1.624994	0.206911	0.916102
Zn4	Zn	1.874994	0.456911	1.166102
Zn5	Zn	1.124925	-0.416129	0.293031
Zn6	Zn	1.374925	-0.166129	0.543031
Zn7	Zn	1.624925	0.083871	0.793031
Zn8	Zn	1.874925	0.333871	1.043031
Zn9	Zn	1.001949	-0.293082	0.293050
Zn10	Zn	1.251949	-0.043082	0.543050
Zn11	Zn	1.501949	0.206918	0.793050
Zn12	Zn	1.751949	0.456918	1.043050
Zn13	Zn	1.001892	-0.416119	0.416055
Zn14	Zn	1.251892	-0.166119	0.666055
Zn15	Zn	1.501892	0.083881	0.916055
Zn16	Zn	1.751892	0.333881	1.166055
O17	O	1.063440	-0.354605	0.354559
O18	O	1.313440	-0.104605	0.604559
O19	O	1.563440	0.145395	0.854559
O20	O	1.813440	0.395395	1.104559
O21	O	1.227969	-0.309418	0.399788
O22	O	1.477969	-0.059418	0.649788
O23	O	1.727969	0.190582	0.899788
O24	O	1.977969	0.440582	1.149788
O25	O	1.108607	-0.399807	0.190049
O26	O	1.358607	-0.149807	0.440049
O27	O	1.608607	0.100193	0.690049
O28	O	1.858607	0.350193	0.940049
O29	O	1.018324	-0.190098	0.309401
O30	O	1.268324	0.059902	0.559401
O31	O	1.518324	0.309902	0.809401
O32	O	1.768324	0.559902	1.059401
O33	O	1.227918	-0.399815	0.309368
O34	O	1.477918	-0.149815	0.559368
O35	O	1.727918	0.100185	0.809368
O36	O	1.977918	0.350185	1.059368
O37	O	1.108724	-0.190104	0.399807
O38	O	1.358724	0.059896	0.649807
O39	O	1.608724	0.309896	0.899807
O40	O	1.858724	0.559896	1.149807
O41	O	1.018258	-0.309405	0.190063
O42	O	1.268258	-0.059405	0.440063
O43	O	1.518258	0.190595	0.690063
O44	O	1.768258	0.440595	0.940063
O45	O	0.898957	-0.309396	0.309355
O46	O	1.148957	-0.059396	0.559355
O47	O	1.398957	0.190604	0.809355
O48	O	1.648957	0.440604	1.059355
O49	O	1.018226	-0.399798	0.519046
O50	O	1.268226	-0.149798	0.769046
O51	O	1.518226	0.100202	1.019046
O52	O	1.768226	0.350202	1.269046
O53	O	0.898915	-0.399791	0.399727
O54	O	1.148915	-0.149791	0.649727
O55	O	1.398915	0.100209	0.899727
O56	O	1.648915	0.350209	1.149727
O57	O	1.108668	-0.309408	0.519080
O58	O	1.358668	-0.059408	0.769080
O59	O	1.608668	0.190592	1.019080
O60	O	1.858668	0.440592	1.269080
O61	O	1.108552	-0.519112	0.309322
O62	O	1.358552	-0.269112	0.559322
O63	O	1.608552	-0.019112	0.809322
O64	O	1.858552	0.230888	1.059322
O65	O	1.018160	-0.519105	0.399708
O66	O	1.268160	-0.269105	0.649708
O67	O	1.518160	-0.019105	0.899708
O68	O	1.768160	0.230895	1.149708
C69	C	0.872234	-0.354592	0.354538
C70	C	1.122234	-0.104592	0.604538
C71	C	1.372234	0.145408	0.854538
C72	C	1.622234	0.395408	1.104538
C73	C	0.790435	-0.354605	0.354547
C74	C	1.040435	-0.104605	0.604547
C75	C	1.290435	0.145395	0.854547
C76	C	1.540435	0.395395	1.104547
C77	C	0.602238	-0.401747	0.401544
C78	C	0.852238	-0.151747	0.651544
C79	C	1.102238	0.098253	0.901544
C80	C	1.352238	0.348253	1.151544
C81	C	0.525379	-0.401750	0.401553
C82	C	0.775379	-0.151750	0.651553
C83	C	1.025379	0.098250	0.901553
C84	C	1.275379	0.348250	1.151553
C85	C	0.525394	-0.307476	0.307591
C86	C	0.775394	-0.057476	0.557591
C87	C	1.025394	0.192524	0.807591
C88	C	1.275394	0.442524	1.057591
C89	C	0.602251	-0.307470	0.307586
C90	C	0.852251	-0.057470	0.557586
C91	C	1.102251	0.192530	0.807586
C92	C	1.352251	0.442530	1.057586
C93	C	0.640671	-0.354610	0.354562
C94	C	0.890671	-0.104610	0.604562
C95	C	1.140671	0.145390	0.854562
C96	C	1.390671	0.395390	1.104562
C97	C	0.486955	-0.354618	0.354576
C98	C	0.736955	-0.104618	0.604576
C99	C	0.986955	0.145382	0.854576
C100	C	1.236955	0.395382	1.104576
C101	C	0.403622	-0.354620	0.354585
C102	C	0.653622	-0.104620	0.604585
C103	C	0.903622	0.145380	0.854585
C104	C	1.153622	0.395380	1.104585
C105	C	0.724010	-0.354607	0.354553
C106	C	0.974010	-0.104607	0.604553
C107	C	1.224010	0.145393	0.854553
C108	C	1.474010	0.395393	1.104553
C109	C	1.063362	-0.545811	0.354524
C110	C	1.313362	-0.295811	0.604524
C111	C	1.563362	-0.045811	0.854524
C112	C	1.813362	0.204189	1.104524
C113	C	1.063396	-0.627610	0.354534
C114	C	1.313396	-0.377610	0.604534
C115	C	1.563396	-0.127610	0.854534
C116	C	1.813396	0.122390	1.104534
C117	C	1.110574	-0.815783	0.307556
C118	C	1.360574	-0.565783	0.557556
C119	C	1.610574	-0.315783	0.807556
C120	C	1.860574	-0.065783	1.057556
C121	C	1.110607	-0.892642	0.307574
C122	C	1.360607	-0.642642	0.557574
C123	C	1.610607	-0.392642	0.807574
C124	C	1.860607	-0.142642	1.057574
C125	C	1.016400	-0.892674	0.401616
C126	C	1.266400	-0.642674	0.651616
C127	C	1.516400	-0.392674	0.901616
C128	C	1.766400	-0.142674	1.151616
C129	C	1.016372	-0.815817	0.401601
C130	C	1.266372	-0.565817	0.651601
C131	C	1.516372	-0.315817	0.901601
C132	C	1.766372	-0.065817	1.151601
C133	C	1.063457	-0.777373	0.354567
C134	C	1.313457	-0.527373	0.604567
C135	C	1.563457	-0.277373	0.854567
C136	C	1.813457	-0.027373	1.104567
C137	C	1.063519	-0.931090	0.354600
C138	C	1.313519	-0.681090	0.604600
C139	C	1.563519	-0.431090	0.854600
C140	C	1.813519	-0.181090	1.104600
C141	C	1.063554	-1.014423	0.354619
C142	C	1.313554	-0.764423	0.604619
C143	C	1.563554	-0.514423	0.854619
C144	C	1.813554	-0.264423	1.104619
C145	C	1.063423	-0.694035	0.354548
C146	C	1.313423	-0.444035	0.604548
C147	C	1.563423	-0.194035	0.854548
C148	C	1.813423	0.055965	1.104548
C149	C	1.255393	-0.354618	0.354581
C150	C	1.505393	-0.104618	0.604581
C151	C	1.755393	0.145382	0.854581
C152	C	2.005393	0.395382	1.104581
C153	C	1.337192	-0.354624	0.354590
C154	C	1.587192	-0.104624	0.604590
C155	C	1.837192	0.145376	0.854590
C156	C	2.087192	0.395376	1.104590
C157	C	1.063449	-0.354603	0.546512
C158	C	1.313449	-0.104603	0.796512
C159	C	1.563449	0.145397	1.046512
C160	C	1.813449	0.395397	1.296512
C161	C	1.063452	-0.354602	0.628311
C162	C	1.313452	-0.104602	0.878311
C163	C	1.563452	0.145398	1.128311
C164	C	1.813452	0.395398	1.378311
C165	C	1.063538	-0.162652	0.354611
C166	C	1.313538	0.087348	0.604611
C167	C	1.563538	0.337348	0.854611
C168	C	1.813538	0.587348	1.104611
C169	C	1.063580	-0.080853	0.354633
C170	C	1.313580	0.169147	0.604633
C171	C	1.563580	0.419147	0.854633
C172	C	1.813580	0.669147	1.104633
C173	C	1.110525	-0.307542	0.893388
C174	C	1.360525	-0.057542	1.143388
C175	C	1.610525	0.192458	1.393388
C176	C	1.860525	0.442458	1.643388
C177	C	1.110530	-0.307542	0.816529
C178	C	1.360530	-0.057542	1.066529
C179	C	1.610530	0.192458	1.316529
C180	C	1.860530	0.442458	1.566529
C181	C	1.016358	-0.401674	0.816483
C182	C	1.266358	-0.151674	1.066483
C183	C	1.516358	0.098326	1.316483
C184	C	1.766358	0.348326	1.566483
C185	C	1.016357	-0.401678	0.893340
C186	C	1.266357	-0.151678	1.143340
C187	C	1.516357	0.098322	1.393340
C188	C	1.766357	0.348322	1.643340
C189	C	1.063439	-0.354608	0.931791
C190	C	1.313439	-0.104608	1.181791
C191	C	1.563439	0.145392	1.431791
C192	C	1.813439	0.395392	1.681791
C193	C	1.063445	-0.354604	0.778075
C194	C	1.313445	-0.104604	1.028075
C195	C	1.563445	0.145396	1.278075
C196	C	1.813445	0.395396	1.528075
C197	C	1.063451	-0.354604	0.694741
C198	C	1.313451	-0.104604	0.944741
C199	C	1.563451	0.145396	1.194741
C200	C	1.813451	0.395396	1.444741
C201	C	1.063435	-0.354608	1.015130
C202	C	1.313435	-0.104608	1.265130
C203	C	1.563435	0.145392	1.515130
C204	C	1.813435	0.395392	1.765130
C205	C	1.063428	-0.354619	1.163353
C206	C	1.313428	-0.104619	1.413353
C207	C	1.563428	0.145381	1.663353
C208	C	1.813428	0.395381	1.913353
C209	C	1.063433	-0.354609	1.081554
C210	C	1.313433	-0.104609	1.331554
C211	C	1.563433	0.145391	1.581554
C212	C	1.813433	0.395391	1.831554
H213	H	1.148915	-0.784484	0.269260
H214	H	1.398915	-0.534484	0.519260
H215	H	1.648915	-0.284484	0.769260
H216	H	1.898915	-0.034484	1.019260
H217	H	0.978003	-0.784542	0.439886
H218	H	1.228003	-0.534542	0.689886
H219	H	1.478003	-0.284542	0.939886
H220	H	1.728003	-0.034542	1.189886
N221	N	1.161302	-0.256775	0.934861
N222	N	1.411302	-0.006775	1.184861
N223	N	1.661302	0.243225	1.434861
N224	N	1.911302	0.493225	1.684861
H225	H	1.191131	-0.226960	0.898868
H226	H	1.441131	0.023040	1.148868
H227	H	1.691131	0.273040	1.398868
H228	H	1.941131	0.523040	1.648868
H229	H	1.195347	-0.286730	0.966749
H230	H	1.445347	-0.036730	1.216749
H231	H	1.695347	0.213270	1.466749
H232	H	1.945347	0.463270	1.716749
H233	H	0.633544	-0.269081	0.269327
H234	H	0.883544	-0.019081	0.519327
H235	H	1.133544	0.230919	0.769327
H236	H	1.383544	0.480919	1.019327
H237	H	0.978013	-0.440008	0.924609
H238	H	1.228013	-0.190008	1.174609
H239	H	1.478013	0.059992	1.424609
H240	H	1.728013	0.309992	1.674609
H241	H	1.148975	-0.923912	0.269294
H242	H	1.398975	-0.673912	0.519294
H243	H	1.648975	-0.423912	0.769294
H244	H	1.898975	-0.173912	1.019294
H245	H	1.148873	-0.269217	0.785265
H246	H	1.398873	-0.019217	1.035265
H247	H	1.648873	0.230783	1.285265
H248	H	1.898873	0.480783	1.535265
H249	H	0.978024	-0.439996	0.785167
H250	H	1.228024	-0.189996	1.035167
H251	H	1.478024	0.060004	1.285167
H252	H	1.728024	0.310004	1.535167
N253	N	0.643679	-0.452588	0.452209
N254	N	0.893679	-0.202588	0.702209
N255	N	1.143679	0.047412	0.952209
N256	N	1.393679	0.297412	1.202209
H257	H	0.607666	-0.482448	0.481974
H258	H	0.857666	-0.232448	0.731974
H259	H	1.107666	0.017552	0.981974
H260	H	1.357666	0.267552	1.231974
H261	H	0.675587	-0.422681	0.486317
H262	H	0.925587	-0.172681	0.736317
H263	H	1.175587	0.077319	0.986317
H264	H	1.425587	0.327319	1.236317
N265	N	0.483926	-0.452593	0.452224
N266	N	0.733926	-0.202593	0.702224
N267	N	0.983926	0.047407	0.952224
N268	N	1.233926	0.297407	1.202224
H269	H	0.519930	-0.482454	0.481979
H270	H	0.769930	-0.232454	0.731979
H271	H	1.019930	0.017546	0.981979
H272	H	1.269930	0.267546	1.231979
H273	H	0.452018	-0.486604	0.422204
H274	H	0.702018	-0.236604	0.672204
H275	H	0.952018	0.013396	0.922204
H276	H	1.202018	0.263396	1.172204
H277	H	0.978064	-0.923985	0.439908
H278	H	1.228064	-0.673985	0.689908
H279	H	1.478064	-0.423985	0.939908
H280	H	1.728064	-0.173985	1.189908
H281	H	0.494103	-0.269097	0.269344
H282	H	0.744103	-0.019097	0.519344
H283	H	0.994103	0.230903	0.769344
H284	H	1.244103	0.480903	1.019344
