data_functionalizedCrystal
_audit_creation_method	'MofGen! by Chris Wilmer'
_symmetry_space_group_name_H-M	'P1'
_symmetry_Int_Tables_number	1
_symmetry_cell_setting	triclinic
loop_
_symmetry_equiv_pos_as_xyz
  x,y,z
_cell_length_a	19.188879
_cell_length_b	14.971486
_cell_length_c	13.448316
_cell_angle_alpha	89.998199
_cell_angle_beta	90.016397
_cell_angle_gamma	96.630896
loop_
_atom_site_label
_atom_site_type_symbol
_atom_site_fract_x
_atom_site_fract_y
_atom_site_fract_z
O1	O	-0.090990	1.186446	-0.082600
O2	O	0.409010	1.686446	0.417400
O3	O	-0.101886	0.925985	-0.082629
O4	O	0.398114	1.425985	0.417371
O5	O	0.005196	1.063755	-0.082582
O6	O	0.505196	1.563755	0.417418
O7	O	-0.198072	1.048675	-0.082647
O8	O	0.301928	1.548675	0.417353
O9	O	0.005202	1.063738	0.082801
O10	O	0.505202	1.563738	0.582801
O11	O	-0.101880	0.925968	0.082754
O12	O	0.398120	1.425968	0.582754
O13	O	-0.090984	1.186428	0.082784
O14	O	0.409016	1.686428	0.582784
Cu15	Cu	-0.096431	1.056197	0.097870
Cu16	Cu	0.403569	1.556197	0.597870
Cu17	Cu	-0.096439	1.056217	-0.097715
Cu18	Cu	0.403561	1.556217	0.402285
O19	O	-0.198066	1.048658	0.082737
O20	O	0.301934	1.548658	0.582737
C21	C	-0.101396	0.892655	0.000059
C22	C	0.398604	1.392655	0.500059
C23	C	-0.099936	0.793366	0.000049
C24	C	0.400064	1.293366	0.500049
C25	C	-0.162843	0.735793	0.000031
C26	C	0.337157	1.235793	0.500031
C27	C	-0.161467	0.642501	0.000046
C28	C	0.338533	1.142501	0.500046
C29	C	-0.097182	0.606784	0.000073
C30	C	0.402818	1.106784	0.500073
C31	C	-0.034270	0.664363	0.000094
C32	C	0.465730	1.164363	0.500094
C33	C	-0.035647	0.757653	0.000086
C34	C	0.464353	1.257653	0.500086
C35	C	-0.031404	0.469917	0.000109
C36	C	0.468596	0.969917	0.500109
C37	C	-0.030027	0.376620	0.000115
C38	C	0.469973	0.876620	0.500115
C39	C	-0.157224	0.354765	0.000069
C40	C	0.342776	0.854765	0.500069
C41	C	-0.158601	0.448055	0.000061
C42	C	0.341399	0.948055	0.500061
C43	C	-0.095688	0.505628	0.000080
C44	C	0.404312	1.005628	0.500080
C45	C	-0.224082	1.049148	0.000037
C46	C	0.275918	1.549148	0.500037
C47	C	-0.301593	1.050591	0.000013
C48	C	0.198407	1.550591	0.500013
C49	C	-0.337974	1.051282	0.090169
C50	C	0.162026	1.551282	0.590169
C51	C	-0.410802	1.052663	0.090187
C52	C	0.089198	1.552663	0.590187
C53	C	-0.447243	1.053370	0.000043
C54	C	0.052757	1.553370	0.500043
C55	C	-0.410854	1.052674	-0.090125
C56	C	0.089146	1.552674	0.409875
C57	C	-0.338029	1.051284	-0.090140
C58	C	0.161971	1.551284	0.409860
N59	N	-0.556437	1.106460	-0.067030
N60	N	-0.056437	1.606460	0.432970
N61	N	-0.625617	1.107782	-0.067009
N62	N	-0.125617	1.607782	0.432991
C63	C	-0.666662	1.057555	0.000082
C64	C	-0.166662	1.557555	0.500082
N65	N	-0.635911	1.005967	0.067168
N66	N	-0.135911	1.505967	0.567168
N67	N	-0.566723	1.004649	0.067151
N68	N	-0.066723	1.504649	0.567151
C69	C	-0.526210	1.054876	0.000049
C70	C	-0.026210	1.554876	0.500049
C71	C	-0.782011	1.059742	0.090263
C72	C	-0.282011	1.559742	0.590263
C73	C	-0.854840	1.061117	0.090277
C74	C	-0.354840	1.561117	0.590277
C75	C	-0.854890	1.061137	-0.090037
C76	C	-0.354890	1.561137	0.409963
C77	C	-0.782063	1.059753	-0.090048
C78	C	-0.282063	1.559753	0.409952
C79	C	-0.745627	1.059060	0.000105
C80	C	-0.245627	1.559060	0.500105
C81	C	0.031212	1.063266	0.000115
C82	C	0.531212	1.563266	0.500115
C83	C	0.108723	1.061823	0.000133
C84	C	0.608723	1.561823	0.500133
C85	C	-0.091474	1.219759	0.000093
C86	C	0.408526	1.719759	0.500093
C87	C	-0.092934	1.319048	0.000097
C88	C	0.407066	1.819048	0.500097
N89	N	-0.096425	1.056189	0.235434
N90	N	0.403575	1.556189	0.735434
N91	N	-0.096439	1.056232	-0.235280
N92	N	0.403561	1.556232	0.264720
C93	C	-0.049029	1.117212	0.287496
C94	C	0.450971	1.617212	0.787496
C95	C	-0.049028	1.117218	0.391599
C96	C	0.450972	1.617218	0.891599
C97	C	-0.096428	1.056204	0.443639
C98	C	0.403572	1.556204	0.943639
C99	C	-0.143827	0.995174	0.391571
C100	C	0.356173	1.495174	0.891571
C101	C	-0.143823	0.995165	0.287469
C102	C	0.356177	1.495165	0.787469
C103	C	-0.143831	0.995199	0.608551
C104	C	0.356169	1.495199	1.108551
C105	C	-0.143836	0.995209	0.712659
C106	C	0.356164	1.495209	1.212659
C107	C	-0.049036	1.117252	0.712680
C108	C	0.450964	1.617252	1.212680
C109	C	-0.049033	1.117243	0.608579
C110	C	0.450967	1.617243	1.108579
C111	C	-0.096433	1.056214	0.556518
C112	C	0.403567	1.556214	1.056518
H113	H	-0.215191	0.764867	0.000009
H114	H	0.284809	1.264867	0.500009
H115	H	-0.884460	1.061677	0.163696
H116	H	-0.384460	1.561677	0.663696
H117	H	0.015579	0.804529	0.000100
H118	H	0.515579	1.304529	0.500100
H119	H	-0.308313	1.050716	0.163579
H120	H	0.191687	1.550716	0.663579
H121	H	-0.308408	1.050720	-0.163558
H122	H	0.191592	1.550720	0.336442
H123	H	-0.010442	1.166943	0.755075
H124	H	0.489558	1.666943	1.255075
H125	H	-0.182427	0.945499	0.566166
H126	H	0.317573	1.445499	1.066166
F127	F	-0.194284	0.930267	0.768037
F128	F	0.305716	1.430267	1.268037
H129	H	-0.210948	0.477133	0.000030
H130	H	0.289052	0.977133	0.500030
F131	F	-0.228422	0.581232	0.000022
F132	F	0.271578	1.081232	0.500022
F133	F	-0.194267	0.930212	0.232063
F134	F	0.305733	1.430212	0.732063
F135	F	0.001417	1.182164	0.447006
F136	F	0.501417	1.682164	0.947006
H137	H	-0.440431	1.053209	0.163605
H138	H	0.059569	1.553209	0.663605
F139	F	0.001410	1.182185	0.553193
F140	F	0.501410	1.682185	1.053193
H141	H	0.019826	0.516791	0.000126
H142	H	0.519826	1.016791	0.500126
H143	H	-0.208450	0.307884	0.000057
H144	H	0.291550	0.807884	0.500057
H145	H	-0.440530	1.053246	-0.163520
H146	H	0.059470	1.553246	0.336480
H147	H	0.022320	0.347542	0.000138
H148	H	0.522320	0.847542	0.500138
F149	F	-0.194270	0.930233	0.446956
F150	F	0.305730	1.430233	0.946956
F151	F	-0.743231	1.059000	0.186210
F152	F	-0.243231	1.559000	0.686210
H153	H	0.018072	0.635275	0.000130
H154	H	0.518072	1.135275	0.500130
F155	F	-0.893672	1.061861	-0.185975
F156	F	-0.393672	1.561861	0.314025
H157	H	-0.752441	1.059196	-0.163463
H158	H	-0.252441	1.559196	0.336537
H159	H	-0.010433	1.166901	0.245131
H160	H	0.489567	1.666901	0.745131
