data_functionalizedCrystal
_audit_creation_method	'MofGen! by Chris Wilmer'
_symmetry_space_group_name_H-M	'P1'
_symmetry_Int_Tables_number	1
_symmetry_cell_setting	triclinic
loop_
_symmetry_equiv_pos_as_xyz
  x,y,z
_cell_length_a	12.759401
_cell_length_b	16.625546
_cell_length_c	12.759393
_cell_angle_alpha	89.963602
_cell_angle_beta	89.982620
_cell_angle_gamma	90.022629
loop_
_atom_site_label
_atom_site_type_symbol
_atom_site_fract_x
_atom_site_fract_y
_atom_site_fract_z
Zn1	Zn	1.606187	-0.320949	-0.593948
Zn2	Zn	2.106187	0.179051	-0.093948
Zn3	Zn	1.606061	-0.455806	-0.418253
Zn4	Zn	2.106061	0.044194	0.081747
Zn5	Zn	1.430492	-0.320992	-0.418287
Zn6	Zn	1.930492	0.179008	0.081713
Zn7	Zn	1.430454	-0.455744	-0.593895
Zn8	Zn	1.930454	0.044256	-0.093895
O9	O	1.518299	-0.388373	-0.506096
O10	O	2.018299	0.111627	-0.006096
O11	O	1.753191	-0.338846	-0.570649
O12	O	2.253191	0.161154	-0.070649
O13	O	1.582735	-0.437967	-0.271237
O14	O	2.082735	0.062033	0.228763
O15	O	1.453868	-0.208154	-0.441625
O16	O	1.953868	0.291846	0.058375
O17	O	1.753099	-0.437925	-0.441568
O18	O	2.253099	0.062075	0.058432
O19	O	1.582950	-0.208122	-0.570682
O20	O	2.082950	0.291878	-0.070682
O21	O	1.453745	-0.338919	-0.271261
O22	O	1.953745	0.161081	0.228739
O23	O	1.283466	-0.338859	-0.441574
O24	O	1.783466	0.161141	0.058426
O25	O	1.453802	-0.437819	-0.740923
O26	O	1.953802	0.062181	-0.240923
O27	O	1.283438	-0.437860	-0.570592
O28	O	1.783438	0.062140	-0.070592
O29	O	1.582912	-0.338786	-0.740962
O30	O	2.082912	0.161214	-0.240962
O31	O	1.582697	-0.568630	-0.441517
O32	O	2.082697	-0.068630	0.058483
O33	O	1.453680	-0.568584	-0.570560
O34	O	1.953680	-0.068584	-0.070560
C35	C	1.245331	-0.388358	-0.506081
C36	C	1.745331	0.111642	-0.006081
C37	C	1.128555	-0.388371	-0.506100
C38	C	1.628555	0.111629	-0.006100
C39	C	1.518199	-0.597864	-0.506052
C40	C	2.018199	-0.097864	-0.006052
C41	C	1.518253	-0.687485	-0.506068
C42	C	2.018253	-0.187485	-0.006068
C43	C	1.073705	-0.440004	-0.573169
C44	C	1.573705	0.059996	-0.073169
C45	C	0.963981	-0.440014	-0.573180
C46	C	1.463981	0.059986	-0.073180
C47	C	0.963965	-0.336756	-0.439045
C48	C	1.463965	0.163244	0.060955
C49	C	1.073688	-0.336743	-0.439040
C50	C	1.573688	0.163257	0.060960
C51	C	1.073714	-0.499621	-0.650608
C52	C	1.573714	0.000379	-0.150608
C53	C	0.963989	-0.499631	-0.650619
C54	C	1.463989	0.000369	-0.150619
C55	C	1.518436	-1.015660	-0.506177
C56	C	2.018436	-0.515660	-0.006177
C57	C	1.518382	-0.924352	-0.506150
C58	C	2.018382	-0.424352	-0.006150
C59	C	1.518344	-0.851575	-0.506122
C60	C	2.018344	-0.351575	-0.006122
C61	C	1.518291	-0.760261	-0.506096
C62	C	2.018291	-0.260261	-0.006096
C63	C	1.792332	-0.388388	-0.506111
C64	C	2.292332	0.111612	-0.006111
C65	C	1.909109	-0.388395	-0.506117
C66	C	2.409109	0.111605	-0.006117
C67	C	1.518367	-0.388291	-0.780129
C68	C	2.018367	0.111709	-0.280129
C69	C	1.518396	-0.388256	-0.896906
C70	C	2.018396	0.111744	-0.396906
C71	C	1.518427	-0.178064	-0.506163
C72	C	2.018427	0.321936	-0.006163
C73	C	1.518482	-0.088443	-0.506191
C74	C	2.018482	0.411557	-0.006191
C75	C	1.451260	-0.336672	-0.951787
C76	C	1.951260	0.163328	-0.451787
C77	C	1.451291	-0.336648	-1.061511
C78	C	1.951291	0.163352	-0.561511
C79	C	1.585605	-0.439793	-1.061464
C80	C	2.085605	0.060207	-0.561464
C81	C	1.585567	-0.439821	-0.951742
C82	C	2.085567	0.060179	-0.451742
C83	C	1.373718	-0.277119	-0.951815
C84	C	1.873718	0.222881	-0.451815
C85	C	1.373750	-0.277095	-1.061539
C86	C	1.873750	0.222905	-0.561539
C87	C	1.518291	-0.388396	-0.233128
C88	C	2.018291	0.111604	0.266872
C89	C	1.518466	-0.388204	-0.116352
C90	C	2.018466	0.111796	0.383648
H91	H	0.919279	-0.294722	-0.384448
H92	H	1.419279	0.205278	0.115552
H93	H	1.107718	-0.558909	-0.621317
H94	H	1.607718	-0.058909	-0.121317
C95	C	0.918056	-0.469521	-0.755112
C96	C	1.418056	0.030479	-0.255112
H97	H	0.973527	-0.456110	-0.801641
H98	H	1.473527	0.043890	-0.301641
H99	H	0.876163	-0.423269	-0.742742
H100	H	1.376163	0.076731	-0.242742
H101	H	0.876151	-0.510618	-0.785425
H102	H	1.376151	-0.010618	-0.285425
H103	H	0.934183	-0.562064	-0.628680
H104	H	1.434183	-0.062064	-0.128680
C105	C	1.659413	-0.496565	-0.891376
C106	C	2.159413	0.003435	-0.391376
H107	H	1.699428	-0.527264	-0.939751
H108	H	2.199428	-0.027264	-0.439751
H109	H	1.619186	-0.531702	-0.848558
H110	H	2.119186	-0.031702	-0.348558
H111	H	1.705202	-0.465732	-0.848587
H112	H	2.205202	0.034268	-0.348587
C113	C	1.659494	-0.496505	-1.121786
C114	C	2.159494	0.003495	-0.621786
H115	H	1.649906	-0.489099	-1.194993
H116	H	2.149906	0.010901	-0.694993
H117	H	1.644081	-0.550684	-1.103781
H118	H	2.144081	-0.050684	-0.603781
H119	H	1.730089	-0.484707	-1.103808
H120	H	2.230089	0.015293	-0.603808
H121	H	1.292326	-0.293841	-0.922036
H122	H	1.792326	0.206159	-0.422036
C123	C	1.413123	-0.197002	-0.905862
C124	C	1.913123	0.302998	-0.405862
H125	H	1.430692	-0.161303	-0.961325
H126	H	1.930692	0.338697	-0.461325
H127	H	1.473358	-0.206599	-0.863950
H128	H	1.973358	0.293401	-0.363950
H129	H	1.359617	-0.173669	-0.863972
H130	H	1.859617	0.326331	-0.363972
C131	C	1.403269	-0.192733	-1.101810
C132	C	1.903269	0.307267	-0.601810
H133	H	1.415398	-0.158056	-1.043914
H134	H	1.915398	0.341944	-0.543914
H135	H	1.347609	-0.171967	-1.143179
H136	H	1.847609	0.328033	-0.643179
H137	H	1.465030	-0.196132	-1.143169
H138	H	1.965030	0.303868	-0.643169
H139	H	1.118342	-0.294693	-0.384433
H140	H	1.618342	0.205307	0.115567
C141	C	1.269325	-0.307282	-1.107511
C142	C	1.769325	0.192718	-0.607511
H143	H	1.222797	-0.320738	-1.052057
H144	H	1.722797	0.179262	-0.552057
H145	H	1.281786	-0.353518	-1.149396
H146	H	1.781786	0.146482	-0.649396
H147	H	1.238961	-0.266203	-1.149430
H148	H	1.738961	0.233797	-0.649430
C149	C	1.113992	-0.477119	-0.760575
C150	C	1.613992	0.022881	-0.260575
H151	H	1.056099	-0.467865	-0.805803
H152	H	1.556099	0.032135	-0.305803
H153	H	1.155349	-0.519876	-0.787507
H154	H	1.655349	-0.019876	-0.287507
H155	H	1.155365	-0.429718	-0.756255
H156	H	1.655365	0.070282	-0.256255
