data_functionalizedCrystal
_audit_creation_method	'MofGen! by Chris Wilmer'
_symmetry_space_group_name_H-M	'P1'
_symmetry_Int_Tables_number	1
_symmetry_cell_setting	triclinic
loop_
_symmetry_equiv_pos_as_xyz
  x,y,z
_cell_length_a	17.038272
_cell_length_b	16.992695
_cell_length_c	15.455313
_cell_angle_alpha	87.152573
_cell_angle_beta	92.868682
_cell_angle_gamma	90.889890
loop_
_atom_site_label
_atom_site_type_symbol
_atom_site_fract_x
_atom_site_fract_y
_atom_site_fract_z
O1	O	-1.051316	-0.167773	-0.072023
O2	O	-0.551316	0.332227	0.427977
O3	O	-0.823516	-0.165057	-0.072048
O4	O	-0.323516	0.334943	0.427952
O5	O	-0.936503	-0.052212	-0.072029
O6	O	-0.436503	0.447788	0.427971
O7	O	-0.938330	-0.280618	-0.072042
O8	O	-0.438330	0.219382	0.427958
O9	O	-0.930040	-0.058636	0.072232
O10	O	-0.430040	0.441364	0.572232
O11	O	-0.817053	-0.171481	0.072213
O12	O	-0.317053	0.328519	0.572213
O13	O	-1.044853	-0.174197	0.072238
O14	O	-0.544853	0.325803	0.572238
Cu15	Cu	-0.930363	-0.173426	0.085398
Cu16	Cu	-0.430363	0.326574	0.585398
Cu17	Cu	-0.938006	-0.165828	-0.085208
Cu18	Cu	-0.438006	0.334172	0.414792
O19	O	-0.931867	-0.287043	0.072219
O20	O	-0.431867	0.212957	0.572219
C21	C	-0.791002	-0.165800	0.000079
C22	C	-0.291002	0.334200	0.500079
C23	C	-0.703747	-0.158432	0.000069
C24	C	-0.203747	0.341568	0.500069
C25	C	-0.930922	-0.026055	0.000101
C26	C	-0.430922	0.473945	0.500101
C27	C	-0.923911	0.061457	0.000100
C28	C	-0.423911	0.561457	0.500100
C29	C	-1.077368	-0.173455	0.000109
C30	C	-0.577368	0.326545	0.500109
C31	C	-1.164623	-0.180822	0.000113
C32	C	-0.664623	0.319178	0.500113
C33	C	-0.657877	-0.226072	0.000066
C34	C	-0.157877	0.273928	0.500066
C35	C	-0.575891	-0.219145	0.000078
C36	C	-0.075891	0.280855	0.500078
C37	C	-0.539777	-0.144578	0.000088
C38	C	-0.039777	0.355422	0.500088
C39	C	-0.585653	-0.076933	0.000094
C40	C	-0.085653	0.423067	0.500094
C41	C	-0.667637	-0.083861	0.000088
C42	C	-0.167637	0.416139	0.500088
C43	C	-0.292483	-0.120105	0.000113
C44	C	0.207517	0.379895	0.500113
C45	C	-0.210493	-0.113182	0.000116
C46	C	0.289507	0.386818	0.500116
C47	C	-0.200736	-0.255395	0.000102
C48	C	0.299264	0.244605	0.500102
C49	C	-0.282722	-0.262316	0.000091
C50	C	0.217278	0.237684	0.500091
C51	C	-0.328591	-0.194671	0.000102
C52	C	0.171409	0.305329	0.500102
C53	C	-0.455975	-0.137496	0.000098
C54	C	0.044025	0.362504	0.500098
C55	C	-0.412391	-0.201754	0.000098
C56	C	0.087609	0.298246	0.500098
C57	C	-0.937448	-0.313200	0.000087
C58	C	-0.437448	0.186800	0.500087
C59	C	-0.944458	-0.400711	0.000082
C60	C	-0.444458	0.099289	0.500082
N61	N	-0.924993	-0.178770	0.205392
N62	N	-0.424993	0.321230	0.705392
C63	C	-0.991551	0.107185	0.000109
C64	C	-0.491551	0.607185	0.500109
C65	C	-0.984960	0.189412	0.000100
C66	C	-0.484960	0.689412	0.500100
C67	C	-0.910728	0.225909	0.000089
C68	C	-0.410728	0.725909	0.500089
C69	C	-0.843083	0.180175	0.000078
C70	C	-0.343083	0.680175	0.500078
C71	C	-0.849675	0.097950	0.000080
C72	C	-0.349675	0.597950	0.500080
C73	C	-0.883406	0.471330	0.000074
C74	C	-0.383406	0.971330	0.500074
C75	C	-0.876819	0.553561	0.000073
C76	C	-0.376819	1.053561	0.500073
C77	C	-1.018696	0.562792	0.000094
C78	C	-0.518696	1.062792	0.500094
C79	C	-1.025281	0.480565	0.000102
C80	C	-0.525281	0.980565	0.500102
C81	C	-0.957637	0.434839	0.000086
C82	C	-0.457637	0.934839	0.500086
N83	N	-0.903989	0.309958	0.000082
N84	N	-0.403989	0.809958	0.500082
N85	N	-0.964377	0.350792	0.000087
N86	N	-0.464377	0.850792	0.500087
N87	N	-0.943382	-0.160479	-0.205202
N88	N	-0.443382	0.339521	0.294798
C89	C	-0.973013	-0.130849	0.250795
C90	C	-0.473013	0.369151	0.750795
C91	C	-0.968959	-0.134898	0.341602
C92	C	-0.468959	0.365102	0.841602
C93	C	-0.916890	-0.186872	0.387005
C94	C	-0.416890	0.313128	0.887005
C95	C	-0.868865	-0.234795	0.341596
C96	C	-0.368865	0.265205	0.841596
C97	C	-0.872915	-0.230741	0.250791
C98	C	-0.372915	0.269259	0.750791
C99	C	-0.899407	-0.204348	0.658583
C100	C	-0.399407	0.295652	1.158583
C101	C	-0.895362	-0.208399	0.749395
C102	C	-0.395362	0.291601	1.249395
C103	C	-0.995456	-0.108501	0.749395
C104	C	-0.495456	0.391499	1.249395
C105	C	-0.999505	-0.104456	0.658587
C106	C	-0.499505	0.395544	1.158587
C107	C	-0.951477	-0.152375	0.613187
C108	C	-0.451477	0.347625	1.113187
N109	N	-0.912747	-0.191014	0.479824
N110	N	-0.412747	0.308986	0.979824
N111	N	-0.955617	-0.148229	0.520369
N112	N	-0.455617	0.351771	1.020369
H113	H	-0.687274	-0.286792	0.000058
H114	H	-0.187274	0.213208	0.500058
H115	H	-0.329819	-0.065023	0.000122
H116	H	0.170181	0.434977	0.500122
N117	N	-1.057915	0.238731	0.000119
N118	N	-0.557915	0.738731	0.500119
H119	H	-1.042478	0.296358	0.000112
H120	H	-0.542478	0.796358	0.500112
H121	H	-1.092444	0.228750	-0.053352
H122	H	-0.592444	0.728750	0.446648
N123	N	-0.526412	-0.292104	0.000173
N124	N	-0.026412	0.207896	0.500173
H125	H	-0.561729	-0.340393	0.000192
H126	H	-0.061729	0.159607	0.500192
H127	H	-0.494528	-0.290002	-0.053271
H128	H	0.005472	0.209998	0.446729
H129	H	-0.426561	-0.076784	0.000130
H130	H	0.073439	0.423216	0.500130
N131	N	-0.839191	-0.264460	0.798357
N132	N	-0.339191	0.235540	1.298357
H133	H	-0.800874	-0.233713	0.836046
H134	H	-0.300874	0.266287	1.336046
H135	H	-0.869745	-0.303016	0.835967
H136	H	-0.369745	0.196984	1.335967
H137	H	-0.312120	-0.323036	0.000073
H138	H	0.187880	0.176964	0.500073
N139	N	-1.055674	-0.048404	0.609622
N140	N	-0.555674	0.451596	1.109622
H141	H	-1.050958	-0.053114	0.545207
H142	H	-0.550958	0.446886	1.045207
H143	H	-1.111225	-0.061971	0.625493
H144	H	-0.611225	0.438029	1.125493
N145	N	-0.546706	0.003494	0.000118
N146	N	-0.046706	0.503494	0.500118
H147	H	-0.487809	-0.002380	0.000121
H148	H	0.012191	0.497620	0.500121
H149	H	-0.565555	0.035721	-0.053357
H150	H	-0.065555	0.535721	0.446643
N151	N	-1.020761	-0.083219	0.390569
N152	N	-0.520761	0.416781	0.890569
H153	H	-1.010294	-0.093670	0.454984
H154	H	-0.510294	0.406330	0.954984
H155	H	-1.008918	-0.026042	0.374707
H156	H	-0.508918	0.473958	0.874707
H157	H	-0.163381	-0.310467	0.000096
H158	H	0.336619	0.189533	0.500096
N159	N	-0.717115	-0.010907	0.000098
N160	N	-0.217115	0.489093	0.500098
H161	H	-0.681799	0.037382	0.000104
H162	H	-0.181799	0.537382	0.500104
H163	H	-0.753734	-0.008299	-0.053381
H164	H	-0.253734	0.491701	0.446619
N165	N	-0.451341	-0.282176	0.000076
N166	N	0.048659	0.217824	0.500076
H167	H	-0.409845	-0.323980	0.000070
H168	H	0.090155	0.176020	0.500070
H169	H	-0.482758	-0.290534	0.053551
H170	H	0.017242	0.209466	0.553551
H171	H	-1.051998	0.077476	0.000123
H172	H	-0.551998	0.577476	0.500123
N173	N	-1.105342	0.441193	0.000092
N174	N	-0.605342	0.941193	0.500092
H175	H	-1.108847	0.404902	0.053567
H176	H	-0.608847	0.904902	0.553567
H177	H	-1.147153	0.482681	0.000057
H178	H	-0.647153	0.982681	0.500057
H179	H	-1.073768	0.600032	0.000105
H180	H	-0.573768	1.100032	0.500105
H181	H	-1.034557	-0.069487	0.786368
H182	H	-0.534557	0.430513	1.286368
N183	N	-1.029179	-0.074796	0.201827
N184	N	-0.529179	0.425204	0.701827
H185	H	-1.058982	-0.045052	0.244372
H186	H	-0.558982	0.454948	0.744372
H187	H	-0.998630	-0.036282	0.164161
H188	H	-0.498630	0.463718	0.664161
N189	N	-0.796749	0.592925	0.000060
N190	N	-0.296749	1.092925	0.500060
H191	H	-0.769283	0.578980	-0.053425
H192	H	-0.269283	1.078980	0.446575
H193	H	-0.802905	0.651940	0.000098
H194	H	-0.302905	1.151940	0.500098
H195	H	-0.828325	0.434109	0.000061
H196	H	-0.328325	0.934109	0.500061
H197	H	-0.860302	-0.243367	0.621625
H198	H	-0.360302	0.256633	1.121625
N199	N	-0.763017	0.219535	0.000060
N200	N	-0.263017	0.719535	0.500060
H201	H	-0.769103	0.278563	0.000062
H202	H	-0.269103	0.778563	0.500062
H203	H	-0.730797	0.200765	0.053535
H204	H	-0.230797	0.700765	0.553535
H205	H	-0.826464	-0.277110	0.378569
H206	H	-0.326464	0.222890	0.878569
N207	N	-0.821118	-0.282422	0.201816
N208	N	-0.321118	0.217578	0.701816
H209	H	-0.787518	-0.315963	0.244356
H210	H	-0.287518	0.184037	0.744356
H211	H	-0.855026	-0.317573	0.164126
H212	H	-0.355026	0.182427	0.664126
N213	N	-0.776722	0.048625	0.000066
N214	N	-0.276722	0.548625	0.500066
H215	H	-0.728696	0.084221	0.000059
H216	H	-0.228696	0.584221	0.500059
H217	H	-0.773969	0.011928	0.053544
H218	H	-0.273969	0.511928	0.553544
H219	H	-0.181092	-0.052458	0.000123
H220	H	0.318908	0.447542	0.500123
