data_functionalizedCrystal
_audit_creation_method	'MofGen! by Chris Wilmer'
_symmetry_space_group_name_H-M	'P1'
_symmetry_Int_Tables_number	1
_symmetry_cell_setting	triclinic
loop_
_symmetry_equiv_pos_as_xyz
  x,y,z
_cell_length_a	14.519709
_cell_length_b	14.519731
_cell_length_c	14.185569
_cell_angle_alpha	76.818244
_cell_angle_beta	103.184626
_cell_angle_gamma	83.684499
loop_
_atom_site_label
_atom_site_type_symbol
_atom_site_fract_x
_atom_site_fract_y
_atom_site_fract_z
O1	O	1.203024	0.141733	-0.083293
O2	O	1.703024	0.641733	0.416707
O3	O	0.934541	0.155977	-0.083324
O4	O	1.434541	0.655977	0.416676
O5	O	1.075893	0.014616	-0.083298
O6	O	1.575893	0.514616	0.416702
O7	O	1.061672	0.283095	-0.083318
O8	O	1.561672	0.783095	0.416682
O9	O	1.117650	-0.027139	0.083544
O10	O	1.617650	0.472861	0.583544
O11	O	0.976298	0.114222	0.083518
O12	O	1.476298	0.614222	0.583518
O13	O	1.244781	0.099978	0.083549
O14	O	1.744781	0.599978	0.583549
Cu15	Cu	1.114352	0.103288	0.098768
Cu16	Cu	1.614352	0.603288	0.598768
Cu17	Cu	1.064970	0.152668	-0.098542
Cu18	Cu	1.564970	0.652668	0.401458
O19	O	1.103429	0.241340	0.083524
O20	O	1.603429	0.741340	0.583524
C21	C	1.096105	-0.040621	0.000123
C22	C	1.596105	0.459379	0.500123
C23	C	1.094109	-0.143002	0.000123
C24	C	1.594109	0.356998	0.500123
C25	C	0.921058	0.134437	0.000094
C26	C	1.421058	0.634437	0.500094
C27	C	0.818674	0.132452	0.000082
C28	C	1.318674	0.632452	0.500082
C29	C	1.092487	-0.226145	0.000121
C30	C	1.592487	0.273855	0.500121
C31	C	1.090458	-0.330452	0.000113
C32	C	1.590458	0.169548	0.500113
C33	C	1.088848	-0.413589	0.000106
C34	C	1.588848	0.086411	0.500106
C35	C	1.086820	-0.517903	0.000100
C36	C	1.586820	-0.017903	0.500100
C37	C	0.443789	0.125121	0.000128
C38	C	0.943789	0.625121	0.500128
C39	C	0.548094	0.127157	0.000115
C40	C	1.048094	0.627157	0.500115
C41	C	0.631228	0.128787	0.000104
C42	C	1.131228	0.628787	0.500104
C43	C	0.735540	0.130822	0.000093
C44	C	1.235540	0.630822	0.500093
C45	C	1.258263	0.121519	0.000130
C46	C	1.758263	0.621519	0.500130
C47	C	1.360646	0.123506	0.000135
C48	C	1.860646	0.623506	0.500135
C49	C	1.083216	0.296577	0.000101
C50	C	1.583216	0.796577	0.500101
C51	C	1.085210	0.398959	0.000094
C52	C	1.585210	0.898959	0.500094
N53	N	1.149091	0.068556	0.237545
N54	N	1.649091	0.568556	0.737545
N55	N	1.030238	0.187392	-0.237319
N56	N	1.530238	0.687392	0.262681
C57	C	0.928173	0.289394	0.605155
C58	C	1.428173	0.789394	1.105155
C59	C	0.954494	0.263092	0.710182
C60	C	1.454494	0.763092	1.210182
C61	C	1.079687	0.137963	0.710165
C62	C	1.579687	0.637963	1.210165
C63	C	1.053373	0.164252	0.605137
C64	C	1.553373	0.664252	1.105137
C65	C	0.977616	0.239969	0.552640
C66	C	1.477616	0.739969	1.052640
C67	C	1.102817	0.114826	0.552622
C68	C	1.602817	0.614826	1.052622
C69	C	1.076508	0.141117	0.447602
C70	C	1.576508	0.641117	0.947602
C71	C	1.000756	0.216833	0.395098
C72	C	1.500756	0.716833	0.895098
C73	C	0.951308	0.266260	0.447621
C74	C	1.451308	0.766260	0.947621
C75	C	1.178578	0.039114	0.605120
C76	C	1.678578	0.539114	1.105120
C77	C	1.228021	-0.010311	0.552605
C78	C	1.728021	0.489689	1.052605
C79	C	1.201709	0.015975	0.447584
C80	C	1.701709	0.515975	0.947584
C81	C	1.125957	0.091691	0.395080
C82	C	1.625957	0.591691	0.895080
C83	C	1.251157	-0.033452	0.395061
C84	C	1.751157	0.466548	0.895061
C85	C	1.224848	-0.007161	0.290042
C86	C	1.724848	0.492839	0.790042
C87	C	1.099648	0.117981	0.290061
C88	C	1.599648	0.617981	0.790061
H89	H	1.037953	0.179631	0.247316
H90	H	1.537953	0.679631	0.747316
Cl91	Cl	1.287011	-0.069296	0.224021
Cl92	Cl	1.787011	0.430704	0.724021
Cl93	Cl	0.967686	0.249889	0.263072
Cl94	Cl	1.467686	0.749889	0.763072
Cl95	Cl	0.856058	0.361440	0.381621
Cl96	Cl	1.356058	0.861440	0.881621
H97	H	1.289706	-0.071959	0.595360
H98	H	1.789706	0.428041	1.095360
H99	H	1.312845	-0.095096	0.437818
H100	H	1.812845	0.404904	0.937818
H101	H	0.866478	0.351044	0.562411
H102	H	1.366478	0.851044	1.062411
Cl103	Cl	1.174924	0.042780	0.776168
Cl104	Cl	1.674924	0.542780	1.276168
Cl105	Cl	0.892327	0.325241	0.776194
Cl106	Cl	1.392327	0.825241	1.276194
H107	H	1.199998	0.017714	0.690634
H108	H	1.699998	0.517714	1.190634
