data_functionalizedCrystal
_audit_creation_method	'MofGen! by Chris Wilmer'
_symmetry_space_group_name_H-M	'P1'
_symmetry_Int_Tables_number	1
_symmetry_cell_setting	triclinic
loop_
_symmetry_equiv_pos_as_xyz
  x,y,z
_cell_length_a	12.759395
_cell_length_b	12.645330
_cell_length_c	12.759387
_cell_angle_alpha	89.970586
_cell_angle_beta	89.979491
_cell_angle_gamma	90.019229
loop_
_atom_site_label
_atom_site_type_symbol
_atom_site_fract_x
_atom_site_fract_y
_atom_site_fract_z
Zn1	Zn	1.606247	-0.421940	-0.594015
Zn2	Zn	2.106247	0.078060	-0.094015
Zn3	Zn	1.606128	-0.599242	-0.418340
Zn4	Zn	2.106128	-0.099242	0.081660
Zn5	Zn	1.430545	-0.421998	-0.418352
Zn6	Zn	1.930545	0.078002	0.081648
Zn7	Zn	1.430528	-0.599167	-0.593979
Zn8	Zn	1.930528	-0.099167	-0.093979
O9	O	1.518362	-0.510587	-0.506172
O10	O	2.018362	-0.010587	-0.006172
O11	O	1.753252	-0.445467	-0.570722
O12	O	2.253252	0.054533	-0.070722
O13	O	1.582794	-0.575786	-0.271320
O14	O	2.082794	-0.075786	0.228680
O15	O	1.453909	-0.273643	-0.441674
O16	O	1.953909	0.226357	0.058326
O17	O	1.753165	-0.575730	-0.441654
O18	O	2.253165	-0.075730	0.058346
O19	O	1.582996	-0.273600	-0.570733
O20	O	2.082996	0.226400	-0.070733
O21	O	1.453794	-0.445565	-0.271329
O22	O	1.953794	0.054435	0.228671
O23	O	1.283522	-0.445492	-0.441639
O24	O	1.783522	0.054508	0.058361
O25	O	1.453880	-0.575601	-0.741005
O26	O	1.953880	-0.075601	-0.241005
O27	O	1.283509	-0.575657	-0.570672
O28	O	1.783509	-0.075657	-0.070672
O29	O	1.582980	-0.445394	-0.741032
O30	O	2.082980	0.054606	-0.241032
O31	O	1.582778	-0.747579	-0.441619
O32	O	2.082778	-0.247579	0.058381
O33	O	1.453765	-0.747524	-0.570660
O34	O	1.953765	-0.247524	-0.070660
C35	C	1.245395	-0.510574	-0.506153
C36	C	1.745395	-0.010574	-0.006153
C37	C	1.128618	-0.510594	-0.506171
C38	C	1.628618	-0.010594	-0.006171
C39	C	1.128644	-0.646354	-0.640315
C40	C	1.628644	-0.146354	-0.140315
C41	C	1.073796	-0.714242	-0.707390
C42	C	1.573796	-0.214242	-0.207390
C43	C	0.964074	-0.714255	-0.707403
C44	C	1.464074	-0.214255	-0.207403
C45	C	0.909198	-0.646370	-0.640335
C46	C	1.409198	-0.146370	-0.140335
C47	C	0.964046	-0.578482	-0.573260
C48	C	1.464046	-0.078482	-0.073260
C49	C	1.073770	-0.578478	-0.573253
C50	C	1.573770	-0.078478	-0.073253
C51	C	0.964020	-0.442718	-0.439123
C52	C	1.464020	0.057282	0.060877
C53	C	1.073742	-0.442709	-0.439103
C54	C	1.573742	0.057291	0.060897
C55	C	0.909144	-0.374833	-0.372056
C56	C	1.409144	0.125167	0.127944
C57	C	0.963992	-0.306948	-0.304974
C58	C	1.463992	0.193052	0.195026
C59	C	1.073720	-0.306939	-0.304963
C60	C	1.573720	0.193061	0.195037
C61	C	1.128590	-0.374820	-0.372028
C62	C	1.628590	0.125180	0.127972
C63	C	1.518285	-0.786016	-0.506157
C64	C	2.018285	-0.286016	-0.006157
C65	C	1.518349	-0.903846	-0.506186
C66	C	2.018349	-0.403846	-0.006186
C67	C	1.437522	-1.071420	-0.587616
C68	C	1.937522	-0.571420	-0.087616
C69	C	1.437108	-0.948860	-0.587354
C70	C	1.937108	-0.448860	-0.087354
C71	C	1.488373	-0.948450	-0.395464
C72	C	1.988373	-0.448450	0.104536
C73	C	1.487880	-1.071049	-0.395958
C74	C	1.987880	-0.571049	0.104042
C75	C	1.629646	-1.070930	-0.534579
C76	C	2.129646	-0.570930	-0.034579
C77	C	1.628964	-0.948323	-0.537001
C78	C	2.128964	-0.448323	-0.037001
C79	C	1.792395	-0.510600	-0.506190
C80	C	2.292395	-0.010600	-0.006190
C81	C	1.909172	-0.510606	-0.506198
C82	C	2.409172	-0.010606	-0.006198
C83	C	1.518441	-0.510483	-0.780205
C84	C	2.018441	-0.010483	-0.280205
C85	C	1.518475	-0.510438	-0.896982
C86	C	2.018475	-0.010438	-0.396982
C87	C	1.518468	-0.234081	-0.506209
C88	C	2.018468	0.265919	-0.006209
C89	C	1.518513	-0.116251	-0.506225
C90	C	2.018513	0.383749	-0.006225
C91	C	1.652916	-0.374862	-0.897029
C92	C	2.152916	0.125138	-0.397029
C93	C	1.720151	-0.307058	-0.951914
C94	C	2.220151	0.192942	-0.451914
C95	C	1.720176	-0.307019	-1.061636
C96	C	2.220176	0.192981	-0.561636
C97	C	1.652958	-0.374790	-1.116475
C98	C	2.152958	0.125210	-0.616475
C99	C	1.585723	-0.442594	-1.061591
C100	C	2.085723	0.057406	-0.561591
C101	C	1.585707	-0.442627	-0.951867
C102	C	2.085707	0.057373	-0.451867
C103	C	1.451278	-0.578163	-1.061543
C104	C	1.951278	-0.078163	-0.561543
C105	C	1.451256	-0.578209	-0.951822
C106	C	1.951256	-0.078209	-0.451822
C107	C	1.384059	-0.645934	-1.116383
C108	C	1.884059	-0.145934	-0.616383
C109	C	1.316828	-0.713745	-1.061498
C110	C	1.816828	-0.213745	-0.561498
C111	C	1.316806	-0.713781	-0.951770
C112	C	1.816806	-0.213781	-0.451770
C113	C	1.384021	-0.646013	-0.896937
C114	C	1.884021	-0.146013	-0.396937
C115	C	1.518344	-0.510614	-0.233204
C116	C	2.018344	-0.010614	0.266796
C117	C	1.518513	-0.510359	-0.116428
C118	C	2.018513	-0.010359	0.383572
H119	H	0.919417	-0.769531	-0.762026
H120	H	1.419417	-0.269531	-0.262026
F121	F	1.711994	-0.908258	-0.465165
F122	F	2.211994	-0.408258	0.034835
H123	H	1.217985	-0.646358	-0.640303
H124	H	1.717985	-0.146358	-0.140303
H125	H	1.118488	-0.769511	-0.761996
H126	H	1.618488	-0.269511	-0.261996
H127	H	1.407980	-0.917843	-0.371009
H128	H	1.907980	-0.417843	0.128991
F129	F	1.791721	-0.234842	-1.120049
F130	F	2.291721	0.265158	-0.620049
F131	F	0.905584	-0.234701	-0.233612
F132	F	1.405584	0.265299	0.266388
H133	H	1.406640	-1.099744	-0.371938
H134	H	1.906640	-0.599744	0.128062
H135	H	1.656990	-1.101767	-0.613945
H136	H	2.156990	-0.601767	-0.113945
H137	H	1.384014	-0.646041	-0.807596
H138	H	1.884014	-0.146041	-0.307596
F139	F	1.708520	-1.108840	-0.457110
F140	F	2.208520	-0.608840	0.042890
F141	F	1.652980	-0.374736	-1.233251
F142	F	2.152980	0.125264	-0.733251
H143	H	1.384081	-0.645893	-1.205724
H144	H	1.884081	-0.145893	-0.705724
H145	H	0.819857	-0.646378	-0.640361
H146	H	1.319857	-0.146378	-0.140361
H147	H	1.456104	-1.100824	-0.669985
H148	H	1.956104	-0.600824	-0.169985
H149	H	1.262098	-0.768912	-1.106157
H150	H	1.762098	-0.268912	-0.606157
F151	F	1.330508	-1.111832	-0.563395
F152	F	1.830508	-0.611832	-0.063395
H153	H	0.819803	-0.374843	-0.372076
H154	H	1.319803	0.125157	0.127924
H155	H	1.544310	-1.100709	-0.333248
H156	H	2.044310	-0.600709	0.166752
F157	F	1.132085	-0.234676	-0.233576
F158	F	1.632085	0.265324	0.266424
F159	F	1.652907	-0.374911	-0.780253
F160	F	2.152907	0.125089	-0.280253
F161	F	1.791666	-0.234915	-0.893543
F162	F	2.291666	0.265085	-0.393543
F163	F	1.245365	-0.374821	-0.372018
F164	F	1.745365	0.125179	0.127982
F165	F	1.563031	-0.910345	-0.314031
F166	F	2.063031	-0.410345	0.185969
H167	H	1.354719	-0.919629	-0.568570
H168	H	1.854719	-0.419629	-0.068570
H169	H	1.651570	-0.919166	-0.618486
H170	H	2.151570	-0.419166	-0.118486
H171	H	1.262044	-0.768984	-0.907089
H172	H	1.762044	-0.268984	-0.407089
H173	H	1.455863	-0.918699	-0.669454
H174	H	1.955863	-0.418699	-0.169454
