data_functionalizedCrystal
_audit_creation_method	'MofGen! by Chris Wilmer'
_symmetry_space_group_name_H-M	'P1'
_symmetry_Int_Tables_number	1
_symmetry_cell_setting	triclinic
loop_
_symmetry_equiv_pos_as_xyz
  x,y,z
_cell_length_a	12.759401
_cell_length_b	13.897447
_cell_length_c	12.759393
_cell_angle_alpha	89.969000
_cell_angle_beta	89.979213
_cell_angle_gamma	90.020012
loop_
_atom_site_label
_atom_site_type_symbol
_atom_site_fract_x
_atom_site_fract_y
_atom_site_fract_z
Zn1	Zn	1.606231	-0.383956	-0.594012
Zn2	Zn	1.606107	-0.545282	-0.418331
Zn3	Zn	1.430530	-0.384004	-0.418348
Zn4	Zn	1.430507	-0.545212	-0.593968
O5	O	1.518344	-0.464614	-0.506165
O6	O	1.753236	-0.405365	-0.570719
O7	O	1.582774	-0.523938	-0.271312
O8	O	1.453898	-0.249016	-0.441676
O9	O	1.753145	-0.523891	-0.441646
O10	O	1.582985	-0.248981	-0.570735
O11	O	1.453778	-0.405448	-0.271324
O12	O	1.283506	-0.405380	-0.441633
O13	O	1.453859	-0.523771	-0.740995
O14	O	1.283489	-0.523818	-0.570661
O15	O	1.582963	-0.405297	-0.741028
O16	O	1.582752	-0.680255	-0.441604
O17	O	1.453739	-0.680203	-0.570644
C18	C	1.245376	-0.464597	-0.506145
C19	C	1.128600	-0.464613	-0.506161
C20	C	0.963961	-0.526246	-0.438882
C21	C	1.073686	-0.526232	-0.438862
C22	C	1.073784	-0.402999	-0.573476
C23	C	0.964062	-0.403009	-0.573490
C24	C	1.223566	-0.560546	-0.314873
C25	C	1.278377	-0.622169	-0.247570
C26	C	1.242733	-0.716274	-0.231266
C27	C	1.152279	-0.748775	-0.282280
C28	C	1.097473	-0.687157	-0.349591
C29	C	1.133116	-0.593038	-0.365875
C30	C	0.814180	-0.368705	-0.697481
C31	C	0.759372	-0.307091	-0.764798
C32	C	0.795014	-0.212984	-0.781113
C33	C	0.885472	-0.180487	-0.730117
C34	C	0.940279	-0.242100	-0.662800
C35	C	0.904630	-0.336206	-0.646483
C36	C	1.518258	-0.715228	-0.506140
C37	C	1.518318	-0.822442	-0.506165
C38	C	1.518369	-0.909512	-0.506189
C39	C	1.518442	-1.018744	-0.506216
C40	C	1.792377	-0.464631	-0.506186
C41	C	1.909154	-0.464638	-0.506195
C42	C	1.518422	-0.464521	-0.780198
C43	C	1.518456	-0.464481	-0.896975
C44	C	1.518458	-0.213021	-0.506212
C45	C	1.518507	-0.105807	-0.506232
C46	C	1.585685	-0.402782	-0.951855
C47	C	1.585703	-0.402741	-1.061580
C48	C	1.451259	-0.526106	-1.061533
C49	C	1.451237	-0.526142	-0.951811
C50	C	1.623326	-0.288935	-1.211559
C51	C	1.690571	-0.227244	-1.266443
C52	C	1.793085	-0.212455	-1.230851
C53	C	1.828375	-0.259370	-1.140377
C54	C	1.761135	-0.321068	-1.085499
C55	C	1.658606	-0.335840	-1.121089
C56	C	1.413625	-0.639948	-0.801830
C57	C	1.346390	-0.701652	-0.746950
C58	C	1.243874	-0.716452	-0.782539
C59	C	1.208588	-0.669553	-0.873016
C60	C	1.275824	-0.607850	-0.927897
C61	C	1.378339	-0.593049	-0.892300
C62	C	1.518326	-0.464636	-0.233197
C63	C	1.518496	-0.464404	-0.116421
H64	H	1.252590	-0.483915	-0.328132
O65	O	0.923917	-0.078980	-0.747693
H66	H	0.870602	-0.041592	-0.803057
H67	H	0.750384	-0.162822	-0.835936
O68	O	1.133005	-0.336535	-0.646065
H69	H	1.218511	-0.346883	-0.634756
H70	H	1.287369	-0.766448	-0.176466
O71	O	0.999910	-0.722191	-0.404604
H72	H	0.984326	-0.797983	-0.381957
H73	H	0.785152	-0.445336	-0.684204
H74	H	1.125113	-0.681607	-0.901997
H75	H	1.375132	-0.739848	-0.673285
O76	O	1.375942	-0.587124	-0.192555
H77	H	1.391515	-0.511327	-0.215186
H78	H	1.014073	-0.215705	-0.621468
O79	O	1.237769	-0.557251	-1.025477
H80	H	1.155183	-0.577898	-1.041004
H81	H	1.189135	-0.766705	-0.737850
H82	H	0.685720	-0.333561	-0.806326
O83	O	1.658173	-0.336273	-0.892705
H84	H	1.704918	-0.293357	-0.949306
O85	O	1.524204	-0.623986	-0.763449
H86	H	1.537450	-0.666978	-0.691326
H87	H	1.847837	-0.162224	-1.275546
O88	O	1.799175	-0.371663	-0.987916
H89	H	1.881759	-0.351013	-0.972381
O90	O	1.938954	-0.243434	-1.101997
H91	H	1.979780	-0.192647	-1.155354
O92	O	1.652511	-0.176627	-1.364011
H93	H	1.569918	-0.197256	-1.379530
H94	H	1.396534	-0.576310	-1.106194
O95	O	0.904733	-0.592701	-0.366290
H96	H	0.961283	-0.635529	-0.319471
O97	O	1.113836	-0.850279	-0.264692
H98	H	1.175367	-0.901942	-0.289431
O99	O	1.512746	-0.304877	-1.249936
H100	H	1.499516	-0.261900	-1.322072
