data_functionalizedCrystal
_audit_creation_method	'MofGen! by Chris Wilmer'
_symmetry_space_group_name_H-M	'P1'
_symmetry_Int_Tables_number	1
_symmetry_cell_setting	triclinic
loop_
_symmetry_equiv_pos_as_xyz
  x,y,z
_cell_length_a	12.811457
_cell_length_b	13.930277
_cell_length_c	12.837942
_cell_angle_alpha	90.005532
_cell_angle_beta	90.588063
_cell_angle_gamma	84.574686
loop_
_atom_site_label
_atom_site_type_symbol
_atom_site_fract_x
_atom_site_fract_y
_atom_site_fract_z
O1	O	1.406626	-0.042631	-0.139681
O2	O	1.102566	-0.016157	-0.154868
O3	O	1.247854	-0.028813	0.003657
O4	O	1.261338	-0.029975	-0.298206
O5	O	1.247832	-0.188473	0.003633
O6	O	1.102545	-0.175817	-0.154892
O7	O	1.406605	-0.202291	-0.139706
Zn8	Zn	1.254571	-0.214404	-0.147303
Zn9	Zn	1.254599	-0.004045	-0.147271
O10	O	1.261317	-0.189635	-0.298231
C11	C	1.063367	-0.092575	-0.154028
C12	C	0.946596	-0.082409	-0.151479
N13	N	1.254560	-0.357969	-0.147324
C14	C	0.727147	-0.237385	-0.146695
C15	C	0.617430	-0.227837	-0.144299
C16	C	0.617444	-0.053767	-0.144283
C17	C	0.727161	-0.063314	-0.146679
C18	C	0.782008	-0.155127	-0.147886
C19	C	0.891726	-0.164673	-0.150290
C20	C	0.891739	0.009397	-0.150267
C21	C	0.782022	0.018944	-0.147871
C22	C	1.324587	-0.816322	-0.210463
C23	C	1.184640	-0.804132	-0.084036
C24	C	1.184625	-0.703635	-0.084053
C25	C	1.254594	-0.659477	-0.147274
C26	C	1.324577	-0.715816	-0.210479
C27	C	1.114651	-0.647290	-0.020842
C28	C	1.114635	-0.546786	-0.020855
C29	C	1.184599	-0.502626	-0.084083
C30	C	1.254584	-0.558972	-0.147291
C31	C	1.324553	-0.514814	-0.210512
C32	C	1.394533	-0.571157	-0.273726
C33	C	1.394541	-0.671656	-0.273707
C34	C	1.184591	-0.402127	-0.084102
C35	C	1.324543	-0.414308	-0.210528
C36	C	1.445804	-0.125871	-0.140545
C37	C	1.562575	-0.136031	-0.143094
C38	C	1.243288	-0.108246	0.042286
C39	C	1.229702	-0.107061	0.157421
N40	N	1.254618	0.139520	-0.147241
C41	C	1.265883	-0.110200	-0.336859
C42	C	1.279469	-0.111378	-0.451995
C43	C	1.393029	-0.121262	0.397674
C44	C	1.380269	-0.120149	0.505855
C45	C	1.191422	-0.103717	0.481966
C46	C	1.204182	-0.104830	0.373785
C47	C	1.304989	-0.113604	0.331643
C48	C	1.317748	-0.114723	0.223460
C49	C	1.128903	-0.098284	0.199574
C50	C	1.116142	-0.097171	0.307755
H51	H	0.771804	-0.312142	-0.147691
O52	O	1.501752	-0.130731	0.352218
H53	H	1.495833	-0.130224	0.265899
H54	H	1.057652	-0.500920	0.030617
O55	O	1.426470	-0.124185	0.178002
H56	H	1.436797	-0.060013	0.129284
O57	O	1.007422	-0.087722	0.353216
H58	H	0.997090	-0.021753	0.401945
O59	O	1.033934	-0.090020	0.128357
H60	H	1.059738	-0.092262	0.046051
O61	O	0.558252	-0.316557	-0.143023
H62	H	0.614827	-0.382000	-0.144274
H63	H	0.936381	-0.239432	-0.151279
H64	H	1.451960	-0.126382	0.559614
O65	O	1.400004	-0.366679	-0.278724
H66	H	1.481678	-0.393054	-0.256567
H67	H	0.936418	0.076378	-0.151244
H68	H	1.451518	-0.717540	-0.325170
O69	O	1.400060	-0.877089	-0.278641
H70	H	1.448704	-0.829495	-0.322608
O71	O	0.558278	0.045253	-0.142973
H72	H	0.505999	0.053966	-0.212481
O73	O	0.722865	0.117968	-0.146576
H74	H	0.637354	0.110789	-0.144717
O75	O	1.469995	-0.523527	-0.341921
H76	H	1.458222	-0.444178	-0.331310
O77	O	1.109121	-0.341354	-0.015934
H78	H	1.060467	-0.388944	0.028028
H79	H	1.127681	-0.840093	-0.032557
O80	O	1.039187	-0.694912	0.047343
H81	H	1.050942	-0.774260	0.036723
O82	O	1.082701	-0.094261	0.527427
H83	H	1.088624	-0.094781	0.613745
