data_functionalizedCrystal
_audit_creation_method	'MofGen! by Chris Wilmer'
_symmetry_space_group_name_H-M	'P1'
_symmetry_Int_Tables_number	1
_symmetry_cell_setting	triclinic
loop_
_symmetry_equiv_pos_as_xyz
  x,y,z
_cell_length_a	19.188930
_cell_length_b	13.330367
_cell_length_c	14.853567
_cell_angle_alpha	90.002150
_cell_angle_beta	96.610144
_cell_angle_gamma	90.018898
loop_
_atom_site_label
_atom_site_type_symbol
_atom_site_fract_x
_atom_site_fract_y
_atom_site_fract_z
O1	O	0.926521	0.083738	-0.112548
O2	O	0.723260	0.083668	-0.127700
O3	O	0.830320	0.083708	0.011136
O4	O	0.819461	0.083698	-0.251384
O5	O	0.830309	-0.083139	0.011132
O6	O	0.723249	-0.083179	-0.127704
O7	O	0.926510	-0.083109	-0.112553
Cu8	Cu	0.824879	-0.098379	-0.120129
Cu9	Cu	0.824892	0.098937	-0.120124
O10	O	0.819450	-0.083149	-0.251388
C11	C	0.697242	0.000236	-0.127211
C12	C	0.619733	0.000209	-0.125739
N13	N	0.824875	-0.237160	-0.120132
C14	C	0.829823	0.000287	0.044720
C15	C	0.828348	0.000295	0.144795
C16	C	0.575080	0.000222	-0.207203
C17	C	0.502252	0.000233	-0.205819
C18	C	0.474079	0.000252	-0.122966
C19	C	0.518741	0.000233	-0.041491
C20	C	0.591568	0.000212	-0.042877
N21	N	0.365892	0.057080	-0.059634
N22	N	0.296709	0.057102	-0.058323
C23	C	0.254657	0.000313	-0.118785
N24	N	0.284400	-0.056486	-0.180622
N25	N	0.353589	-0.056504	-0.181935
C26	C	0.395112	0.000274	-0.121454
C27	C	0.131035	0.000336	-0.198755
C28	C	0.058205	0.000341	-0.197367
C29	C	0.074696	0.000352	-0.033038
C30	C	0.147524	0.000337	-0.034427
C31	C	0.175689	0.000334	-0.117288
C32	C	0.952528	0.000325	-0.113041
C33	C	1.030038	0.000358	-0.114514
C34	C	0.777462	-0.289703	-0.181589
C35	C	0.872291	-0.289645	-0.058670
C36	C	0.872298	-0.394664	-0.058667
C37	C	0.824886	-0.447207	-0.120124
C38	C	0.777466	-0.394731	-0.181586
C39	C	0.919713	-0.447147	0.002800
C40	C	0.919721	-0.552172	0.002806
C41	C	0.872311	-0.604717	-0.058656
C42	C	0.824890	-0.552235	-0.120121
C43	C	0.777477	-0.604778	-0.181579
C44	C	0.730059	-0.552298	-0.243048
C45	C	0.730056	-0.447276	-0.243049
C46	C	0.872314	-0.709738	-0.058656
C47	C	0.777482	-0.709806	-0.181575
N48	N	0.824901	0.237719	-0.120114
C49	C	0.819948	0.000274	-0.284972
C50	C	0.821422	0.000272	-0.385048
C51	C	0.758520	0.000252	0.556941
C52	C	0.885709	0.000296	0.578929
C53	C	0.887095	0.000302	0.484903
C54	C	0.824193	0.000282	0.426891
C55	C	0.759904	0.000255	0.462906
C56	C	0.951383	0.000319	0.448881
C57	C	0.952772	0.000324	0.354850
C58	C	0.889869	0.000311	0.296836
C59	C	0.825577	0.000285	0.332856
C60	C	0.762675	0.000265	0.274845
C61	C	0.698383	0.000247	0.310862
C62	C	0.697001	0.000242	0.404892
C63	C	0.891251	0.000315	0.202807
C64	C	0.764059	0.000269	0.180809
H65	H	0.598007	0.000222	-0.274675
Br66	Br	1.040023	0.000364	0.305976
Br67	Br	0.978497	0.000316	0.153927
Br68	Br	0.971073	0.000302	0.657658
Br69	Br	0.441641	0.000244	-0.316385
Br70	Br	0.671270	0.000241	0.605818
H71	H	0.021850	0.000346	-0.263708
H72	H	0.495798	0.000262	0.025968
Br73	Br	0.609755	0.000224	0.453780
Br74	Br	0.936629	-0.218341	0.024743
H75	H	1.002595	0.000326	0.496121
H76	H	0.627925	0.000202	0.023463
Br77	Br	0.678687	0.000253	0.102086
H78	H	0.153968	0.000319	-0.266225
H79	H	0.183881	0.000332	0.031910
H80	H	0.910918	-0.752463	-0.008604
H81	H	0.647168	0.000223	0.263617
H82	H	0.738856	-0.246971	-0.231640
H83	H	0.051759	0.000429	0.034423
Br84	Br	0.665709	-0.623617	-0.326444
Br85	Br	0.713138	-0.781106	-0.264994
H86	H	0.691449	-0.404540	-0.293094
H87	H	0.958311	-0.404363	0.052841
H88	H	0.958332	-0.594894	0.052857
