data_functionalizedCrystal
_audit_creation_method	'MofGen! by Chris Wilmer'
_symmetry_space_group_name_H-M	'P1'
_symmetry_Int_Tables_number	1
_symmetry_cell_setting	triclinic
loop_
_symmetry_equiv_pos_as_xyz
  x,y,z
_cell_length_a	11.792254
_cell_length_b	10.489716
_cell_length_c	10.868271
_cell_angle_alpha	89.998908
_cell_angle_beta	89.995741
_cell_angle_gamma	84.363867
loop_
_atom_site_label
_atom_site_type_symbol
_atom_site_fract_x
_atom_site_fract_y
_atom_site_fract_z
O1	O	1.507358	0.174911	-0.102309
O2	O	1.177066	0.192913	-0.102311
O3	O	1.349742	-0.001713	-0.102315
O4	O	1.334682	0.369537	-0.102306
O5	O	1.349728	-0.001721	0.102330
O6	O	1.177052	0.192905	0.102334
O7	O	1.507344	0.174904	0.102335
Zn8	Zn	1.342195	0.183903	0.134826
Zn9	Zn	1.342214	0.183913	-0.134802
O10	O	1.334667	0.369530	0.102339
C11	C	1.134765	0.191775	0.000011
C12	C	1.008743	0.188381	0.000010
C13	C	0.906399	0.185623	0.000005
C14	C	0.778004	0.182175	0.000004
C15	C	1.348603	-0.049245	0.000004
C16	C	1.345218	-0.190865	-0.000007
C17	C	1.451108	-0.288894	0.000004
C18	C	1.395161	-0.366063	-0.100893
C19	C	1.395122	-0.366035	0.100871
C20	C	1.289314	-0.266169	-0.100988
C21	C	1.289291	-0.266135	0.100866
C22	C	1.233266	-0.343255	-0.000056
C23	C	1.549644	0.176041	0.000011
C24	C	1.675666	0.179436	0.000004
C25	C	1.335806	0.417062	0.000018
C26	C	1.339192	0.558681	0.000021
N27	N	1.342191	0.183896	0.318840
N28	N	1.342228	0.183911	-0.318816
C29	C	1.342208	0.183911	0.569846
C30	C	1.342195	0.183906	0.430169
H31	H	1.439867	-0.409705	-0.186196
N32	N	1.117643	-0.373549	-0.000129
N33	N	1.096245	-0.487916	0.000684
H34	H	1.014588	-0.509316	0.000628
N35	N	1.233282	-0.211644	-0.208115
N36	N	1.226908	-0.093353	-0.225436
H37	H	1.187338	-0.054841	-0.301094
N38	N	1.233263	-0.211369	0.207891
N39	N	1.269392	-0.243625	0.312585
H40	H	1.229830	-0.204948	0.388182
N41	N	1.451192	-0.420772	0.207887
N42	N	1.456794	-0.538982	0.225488
H43	H	1.496399	-0.577640	0.301064
N44	N	1.566657	-0.258336	-0.000129
N45	N	1.631502	-0.294734	-0.086902
H46	H	1.713107	-0.273152	-0.087002
