data_functionalizedCrystal
_audit_creation_method	'MofGen! by Chris Wilmer'
_symmetry_space_group_name_H-M	'P1'
_symmetry_Int_Tables_number	1
_symmetry_cell_setting	triclinic
loop_
_symmetry_equiv_pos_as_xyz
  x,y,z
_cell_length_a	31.640172
_cell_length_b	18.426585
_cell_length_c	18.426585
_cell_angle_alpha	90.003400
_cell_angle_beta	60.006414
_cell_angle_gamma	60.000462
loop_
_atom_site_label
_atom_site_type_symbol
_atom_site_fract_x
_atom_site_fract_y
_atom_site_fract_z
Zr1	Zr	0.462567	-0.095186	0.699249
O2	O	0.550733	-0.211068	0.583388
O3	O	0.374400	-0.059664	0.734752
O4	O	0.462563	-0.211061	0.734773
O5	O	0.462573	0.059755	0.583368
O6	O	0.462560	-0.211054	0.854204
O7	O	0.462570	-0.059671	0.583368
O8	O	0.304852	0.059768	0.854167
O9	O	0.620281	-0.211066	0.583405
O10	O	0.410662	-0.044507	0.839041
O11	O	0.410666	0.044614	0.749912
O12	O	0.514467	-0.133637	0.749936
O13	O	0.514471	-0.044515	0.660806
Zr14	Zr	0.462567	0.095295	0.889728
Zr15	Zr	0.462562	-0.095175	0.889728
Zr16	Zr	0.462571	0.095284	0.699250
Zr17	Zr	0.573487	-0.095184	0.699275
Zr18	Zr	0.351646	0.095293	0.889702
O19	O	0.550733	0.059772	0.854225
O20	O	0.550727	-0.211052	0.854224
O21	O	0.550740	0.059757	0.583389
O22	O	0.374400	0.211176	1.005589
O23	O	0.374393	-0.059648	1.005588
O24	O	0.374406	0.211161	0.734753
O25	O	0.462560	-0.059647	1.005609
O26	O	0.462570	0.211169	0.854205
O27	O	0.462573	0.211162	0.734774
O28	O	0.462563	0.059779	1.005609
O29	O	0.620277	-0.211058	0.734810
O30	O	0.304856	0.211166	0.854167
O31	O	0.304852	0.211175	1.005572
O32	O	0.304849	0.059776	1.005572
O33	O	0.620285	-0.059668	0.583405
O34	O	0.620281	-0.059659	0.734810
O35	O	0.410666	0.133745	0.839042
O36	O	0.410662	0.044624	0.928171
O37	O	0.514467	-0.044505	0.839066
O38	O	0.514471	0.044616	0.749936
C39	C	0.323822	0.000052	0.794456
C40	C	0.276734	0.000051	0.794445
C41	C	0.462572	0.000041	0.556229
C42	C	0.462574	0.000036	0.475366
C43	C	0.462572	0.238304	0.794489
C44	C	0.462574	0.319164	0.794489
C45	C	-0.015310	-0.046458	0.841031
C46	C	-0.192306	-0.046457	0.841050
O47	O	-0.215213	-0.085989	0.880650
N48	N	-0.214433	0.000061	0.794524
C49	C	-0.192311	0.046588	0.747995
O50	O	-0.215197	0.086162	0.708429
C51	C	-0.015319	0.046592	0.747982
C52	C	0.006810	0.000063	0.794504
C53	C	0.006818	-0.092982	0.887550
C54	C	0.051066	-0.092986	0.887541
C55	C	0.073187	-0.046465	0.841013
C56	C	0.051058	0.000059	0.794495
C57	C	0.006799	0.093123	0.701459
C58	C	0.051049	0.093122	0.701462
C59	C	0.073178	0.046593	0.747983
C60	C	0.117427	0.046576	0.747958
N61	N	0.139554	0.000058	0.794484
C62	C	0.117434	-0.046463	0.841012
C63	C	-0.285233	0.046581	0.748003
C64	C	-0.329480	0.046579	0.748005
C65	C	-0.329473	-0.046465	0.841061
C66	C	-0.285223	-0.046468	0.841054
C67	C	-0.263107	0.000062	0.794529
C68	C	0.210359	-0.046468	0.840989
C69	C	0.254614	-0.046470	0.840972
C70	C	0.254600	0.046577	0.747920
C71	C	0.210352	0.046576	0.747932
C72	C	0.188231	0.000052	0.794473
O73	O	0.140356	0.086096	0.708387
O74	O	0.140318	-0.086015	0.880587
C75	C	-0.059559	-0.046454	0.841040
C76	C	-0.081687	0.000070	0.794522
C77	C	-0.059567	0.046591	0.747994
C78	C	-0.125934	0.000068	0.794523
C79	C	-0.148055	-0.046453	0.841051
C80	C	-0.125928	-0.092971	0.887577
C81	C	-0.081679	-0.092975	0.887568
C82	C	-0.081694	0.093109	0.701468
C83	C	-0.125942	0.093108	0.701480
C84	C	-0.148062	0.046588	0.748008
C85	C	0.601311	0.000057	0.794521
C86	C	0.648399	0.000058	0.794532
C87	C	0.462561	-0.238195	0.794488
C88	C	0.462559	-0.319055	0.794488
C89	C	0.462557	0.615278	0.794490
C90	C	0.462559	0.532892	0.794493
C91	C	0.462565	0.467224	0.794491
C92	C	0.462568	0.384832	0.794491
C93	C	0.462577	0.000036	0.409695
C94	C	0.462574	0.000044	0.327314
C95	C	0.462568	0.000055	0.261656
C96	C	0.462565	0.000062	0.179269
C97	C	0.462561	0.000068	1.032748
C98	C	0.462559	0.000073	1.113611
C99	C	0.323816	0.000065	1.032716
C100	C	0.276726	0.000069	1.113568
C101	C	0.323828	0.238301	0.794456
C102	C	0.276742	0.319160	0.794446
C103	C	0.323822	0.238315	1.032716
C104	C	0.276734	0.319178	1.113568
C105	C	0.601311	-0.238206	0.556261
C106	C	0.648399	-0.319070	0.475409
C107	C	0.601317	0.000043	0.556262
C108	C	0.648407	0.000040	0.475410
C109	C	0.601305	-0.238193	0.794521
C110	C	0.648392	-0.319051	0.794532
C111	C	0.254612	-0.046463	1.105012
C112	C	0.210371	-0.046477	1.180973
C113	C	0.188243	0.000046	1.265490
C114	C	0.210361	0.046579	1.274045
C115	C	0.254604	0.046588	1.198084
C116	C	0.254629	0.403666	0.840965
C117	C	0.210393	0.479648	0.840952
C118	C	0.188266	0.471124	0.794423
C119	C	0.210383	0.386609	0.747897
C120	C	0.254622	0.310628	0.747906
C121	C	0.254618	0.310632	1.198070
C122	C	0.210380	0.386605	1.274047
C123	C	0.188255	0.471122	1.265519
C124	C	0.210374	0.479667	1.181009
C125	C	0.254615	0.403695	1.105034
C126	C	0.670520	-0.310524	0.390907
C127	C	0.714773	-0.386496	0.314931
C128	C	0.736900	-0.471014	0.323458
C129	C	0.714777	-0.479558	0.407969
C130	C	0.670529	-0.403586	0.483943
C131	C	0.670526	0.046564	0.483966
C132	C	0.714779	0.046557	0.408004
C133	C	0.736909	0.000031	0.323487
C134	C	0.714788	-0.046499	0.314933
C135	C	0.670539	-0.046497	0.390894
C136	C	0.670504	-0.310498	0.841070
C137	C	0.714741	-0.386466	0.841097
C138	C	0.736868	-0.470987	0.794581
C139	C	0.714751	-0.479539	0.748042
C140	C	0.670512	-0.403571	0.748020
H141	H	0.192353	-0.084350	0.878888
O142	O	0.278453	0.412930	1.013898
H143	H	0.327259	0.380556	0.977049
H144	H	0.652507	-0.241712	0.383947
O145	O	0.784628	-0.552945	0.241503
H146	H	0.767657	-0.593077	0.241530
H147	H	0.152217	0.000033	1.327335
H148	H	0.732813	-0.084379	0.246109
O149	O	0.646642	-0.219345	0.891256
H150	H	0.655140	-0.182502	0.844294
O151	O	0.186520	-0.096669	1.171734
H152	H	0.137713	-0.049706	1.204122
O153	O	0.186487	0.096766	1.365204
H154	H	0.152002	0.088946	1.416579
O155	O	0.278443	0.096794	1.207325
H156	H	0.312927	0.088990	1.140312
O157	O	0.074928	-0.143164	0.937724
H158	H	0.052103	-0.175501	0.970081
O159	O	0.738618	-0.377272	0.223786
H160	H	0.715785	-0.305736	0.230628
H161	H	0.152244	0.532999	0.794423
O162	O	0.140531	0.553062	1.347467
H163	H	0.128868	0.532911	1.407656
H164	H	0.732744	-0.379486	0.878994
H165	H	0.652513	-0.410548	0.710119
O166	O	0.278484	0.219478	1.207278
H167	H	0.255674	0.226314	1.278807
O168	O	0.646680	-0.096673	0.381661
H169	H	0.626528	-0.069778	0.344762
O170	O	0.784627	0.000056	0.241571
H171	H	0.824953	-0.069215	0.201452
H172	H	-0.267231	0.084474	0.710116
H173	H	0.192391	0.548456	0.878842
O174	O	0.738641	-0.570718	0.417162
H175	H	0.773120	-0.622102	0.350130
O176	O	0.186497	0.570830	1.171823
H177	H	0.194980	0.607678	1.204226
H178	H	0.772890	-0.532837	0.794606
H179	H	0.732773	-0.548365	0.710170
O180	O	0.278492	0.412871	0.891149
H181	H	0.255684	0.484404	0.923482
O182	O	0.646663	-0.412808	0.575085
H183	H	0.669481	-0.484344	0.568241
O184	O	0.646671	0.096733	0.575119
H185	H	0.669499	0.129066	0.568292
H186	H	-0.347490	-0.084346	0.878945
H187	H	0.272631	-0.084363	0.878855
H188	H	-0.267208	-0.084355	0.878936
O189	O	0.186499	0.377418	0.697743
H190	H	0.152013	0.444455	0.705576
O191	O	0.186533	0.377396	1.365198
H192	H	0.137723	0.409800	1.402056
H193	H	0.732782	0.084450	0.414986
H194	H	-0.063690	0.130995	0.663581
H195	H	-0.011190	-0.130864	0.925442
O196	O	-0.353341	0.096745	0.697815
H197	H	-0.344845	0.049762	0.646398
O198	O	-0.017036	0.143264	0.651237
H199	H	0.005790	0.175599	0.618881
O200	O	0.074894	0.143332	0.651313
H201	H	0.123701	0.096382	0.599897
H202	H	0.192341	0.084452	0.710039
H203	H	0.272620	0.084450	0.710036
H204	H	0.272620	0.241822	0.710027
O205	O	-0.057816	-0.143155	0.937749
H206	H	-0.080641	-0.175493	0.970105
H207	H	-0.143943	-0.130854	0.925458
O208	O	-0.149789	0.143263	0.651267
H209	H	-0.126966	0.175604	0.618910
H210	H	0.272628	-0.084359	1.036200
