data_functionalizedCrystal
_audit_creation_method	'MofGen! by Chris Wilmer'
_symmetry_space_group_name_H-M	'P1'
_symmetry_Int_Tables_number	1
_symmetry_cell_setting	triclinic
loop_
_symmetry_equiv_pos_as_xyz
  x,y,z
_cell_length_a	19.121063
_cell_length_b	19.805407
_cell_length_c	19.805399
_cell_angle_alpha	90.021064
_cell_angle_beta	92.411105
_cell_angle_gamma	87.531918
loop_
_atom_site_label
_atom_site_type_symbol
_atom_site_fract_x
_atom_site_fract_y
_atom_site_fract_z
Zn1	Zn	-0.279649	-1.023233	-0.394230
Zn2	Zn	0.053684	-0.689900	-0.060897
Zn3	Zn	0.387017	-0.356566	0.272436
Zn4	Zn	-0.397102	-1.018317	-0.285865
Zn5	Zn	-0.063768	-0.684983	0.047468
Zn6	Zn	0.269565	-0.351650	0.380802
Zn7	Zn	-0.279667	-0.910047	-0.281053
Zn8	Zn	0.053667	-0.576714	0.052281
Zn9	Zn	0.387000	-0.243380	0.385614
Zn10	Zn	-0.397062	-0.905182	-0.399007
Zn11	Zn	-0.063729	-0.571848	-0.065674
Zn12	Zn	0.269604	-0.238515	0.267659
O13	O	-0.338370	-0.964195	-0.340039
O14	O	-0.005037	-0.630861	-0.006705
O15	O	0.328297	-0.297528	0.326628
O16	O	-0.295239	-1.117297	-0.379870
O17	O	0.038094	-0.783964	-0.046537
O18	O	0.371428	-0.450630	0.286796
O19	O	-0.381547	-1.003933	-0.190511
O20	O	-0.048214	-0.670600	0.142822
O21	O	0.285119	-0.337266	0.476156
O22	O	-0.181380	-0.929155	-0.292053
O23	O	0.151954	-0.595822	0.041281
O24	O	0.485287	-0.262488	0.374614
O25	O	-0.381531	-1.113685	-0.300255
O26	O	-0.048197	-0.780352	0.033079
O27	O	0.285136	-0.447018	0.366412
O28	O	-0.181367	-1.012312	-0.375204
O29	O	0.151966	-0.678979	-0.041870
O30	O	0.485300	-0.345646	0.291463
O31	O	-0.295268	-0.924388	-0.186975
O32	O	0.038065	-0.591054	0.146358
O33	O	0.371398	-0.257721	0.479691
O34	O	-0.295230	-0.814685	-0.296685
O35	O	0.038103	-0.481352	0.036649
O36	O	0.371436	-0.148019	0.369982
O37	O	-0.381464	-0.920863	-0.493089
O38	O	-0.048130	-0.587529	-0.159756
O39	O	0.285203	-0.254196	0.173577
O40	O	-0.381480	-0.811111	-0.383345
O41	O	-0.048147	-0.477777	-0.050012
O42	O	0.285186	-0.144444	0.283321
O43	O	-0.295201	-1.007595	-0.489580
O44	O	0.038133	-0.674261	-0.156246
O45	O	0.371466	-0.340928	0.177087
O46	O	-0.495381	-0.999215	-0.304887
O47	O	-0.162048	-0.665882	0.028446
O48	O	0.171285	-0.332549	0.361780
O49	O	-0.495352	-0.916096	-0.388012
O50	O	-0.162019	-0.582762	-0.054679
O51	O	0.171314	-0.249429	0.278655
C52	C	-0.338353	-0.788339	-0.340012
C53	C	-0.005020	-0.455006	-0.006678
C54	C	0.328313	-0.121673	0.326655
C55	C	-0.338363	-0.713107	-0.340017
C56	C	-0.005030	-0.379773	-0.006683
C57	C	0.328303	-0.046440	0.326650
C58	C	-0.520851	-0.956612	-0.347505
C59	C	-0.187517	-0.623279	-0.014171
C60	C	0.145816	-0.289946	0.319162
C61	C	-0.598917	-0.953431	-0.350721
C62	C	-0.265584	-0.620097	-0.017388
C63	C	0.067750	-0.286764	0.315945
C64	C	-0.383341	-0.675916	-0.385073
C65	C	-0.050007	-0.342583	-0.051739
C66	C	0.283326	-0.009250	0.281594
C67	C	-0.383340	-0.605228	-0.385081
C68	C	-0.050007	-0.271895	-0.051747
C69	C	0.283326	0.061439	0.281586
C70	C	-0.338366	-0.571731	-0.340028
C71	C	-0.005033	-0.238398	-0.006695
C72	C	0.328301	0.094936	0.326638
C73	C	-0.293384	-0.608927	-0.294970
C74	C	0.039950	-0.275593	0.038363
C75	C	0.373283	0.057740	0.371696
C76	C	-0.293381	-0.679614	-0.294966
C77	C	0.039953	-0.346281	0.038367
C78	C	0.373286	-0.012947	0.371700
C79	C	-0.293394	-0.323853	-0.294986
C80	C	0.039939	0.009480	0.038348
C81	C	0.373273	0.342814	0.371681
C82	C	-0.293402	-0.253161	-0.294992
C83	C	0.039931	0.080173	0.038342
C84	C	0.373265	0.413506	0.371675
C85	C	-0.383354	-0.249467	-0.385100
C86	C	-0.050020	0.083866	-0.051766
C87	C	0.283313	0.417200	0.281567
C88	C	-0.383351	-0.320154	-0.385096
C89	C	-0.050017	0.013179	-0.051763
C90	C	0.283316	0.346512	0.281571
C91	C	-0.338366	-0.357344	-0.340041
C92	C	-0.005033	-0.024010	-0.006707
C93	C	0.328301	0.309323	0.326626
C94	C	-0.338366	-0.433992	-0.340034
C95	C	-0.005032	-0.100659	-0.006700
C96	C	0.328301	0.232674	0.326633
C97	C	-0.338369	-0.495084	-0.340032
C98	C	-0.005036	-0.161751	-0.006698
C99	C	0.328297	0.171583	0.326635
C100	C	-0.635584	-0.995246	-0.308990
C101	C	-0.302251	-0.661912	0.024344
C102	C	0.031082	-0.328579	0.357677
C103	C	-0.708936	-0.992257	-0.312019
C104	C	-0.375602	-0.658924	0.021314
C105	C	-0.042269	-0.325591	0.354648
C106	C	-0.745618	-0.947450	-0.356777
C107	C	-0.412285	-0.614117	-0.023444
C108	C	-0.078952	-0.280783	0.309890
C109	C	-0.708946	-0.905633	-0.398513
C110	C	-0.375612	-0.572300	-0.065180
C111	C	-0.042279	-0.238967	0.268153
C112	C	-0.635596	-0.908626	-0.395487
C113	C	-0.302262	-0.575292	-0.062154
C114	C	0.031071	-0.241959	0.271180
C115	C	-0.967088	-0.936252	-0.368081
C116	C	-0.633755	-0.602918	-0.034747
C117	C	-0.300422	-0.269585	0.298586
C118	C	-1.040443	-0.933261	-0.371102
C119	C	-0.707110	-0.599928	-0.037769
C120	C	-0.373777	-0.266595	0.295564
C121	C	-1.040428	-1.019886	-0.284609
C122	C	-0.707095	-0.686553	0.048725
C123	C	-0.373761	-0.353220	0.382058
C124	C	-0.967077	-1.022872	-0.281584
C125	C	-0.633743	-0.689538	0.051750
C126	C	-0.300410	-0.356205	0.385083
C127	C	-0.930411	-0.981058	-0.323322
C128	C	-0.597077	-0.647724	0.010011
C129	C	-0.263744	-0.314391	0.343344
C130	C	-0.820595	-0.944393	-0.359873
C131	C	-0.487262	-0.611060	-0.026539
C132	C	-0.153928	-0.277726	0.306794
C133	C	-0.855435	-0.984119	-0.320229
C134	C	-0.522102	-0.650785	0.013104
C135	C	-0.188768	-0.317452	0.346437
C136	C	-0.155177	-0.971825	-0.332558
C137	C	0.178157	-0.638491	0.000775
C138	C	0.511490	-0.305158	0.334108
C139	C	-0.077111	-0.975076	-0.329371
C140	C	0.256223	-0.641743	0.003963
C141	C	0.589556	-0.308409	0.337296
C142	C	-0.338326	-0.964234	-0.516580
C143	C	-0.004992	-0.630901	-0.183246
C144	C	0.328341	-0.297568	0.150087
C145	C	-0.338307	-0.964251	-0.591811
C146	C	-0.004974	-0.630918	-0.258478
C147	C	0.328360	-0.297585	0.074856
C148	C	-0.338383	-0.140737	-0.340060
C149	C	-0.005049	0.192597	-0.006726
C150	C	0.328284	0.525930	0.326607
C151	C	-0.338376	-0.215969	-0.340051
C152	C	-0.005043	0.117364	-0.006718
C153	C	0.328290	0.450698	0.326615
C154	C	-0.293388	-1.009414	-0.625329
C155	C	0.039946	-0.676080	-0.291995
C156	C	0.373279	-0.342747	0.041338
C157	C	-0.293367	-1.009421	-0.696016
C158	C	0.039966	-0.676088	-0.362683
C159	C	0.373299	-0.342755	-0.029350
C160	C	-0.338270	-0.964270	-0.733185
C161	C	-0.004937	-0.630936	-0.399852
C162	C	0.328396	-0.297603	-0.066519
C163	C	-0.383192	-0.919102	-0.699663
C164	C	-0.049858	-0.585769	-0.366329
C165	C	0.283475	-0.252436	-0.032996
C166	C	-0.383208	-0.919092	-0.628976
C167	C	-0.049875	-0.585759	-0.295643
C168	C	0.283459	-0.252425	0.037691
C169	C	-0.383126	-0.919143	-0.984733
C170	C	-0.049793	-0.585810	-0.651400
C171	C	0.283541	-0.252477	-0.318067
C172	C	-0.383108	-0.919159	-1.055425
C173	C	-0.049774	-0.585825	-0.722091
C174	C	0.283559	-0.252492	-0.388758
C175	C	-0.293286	-1.009473	-1.051774
C176	C	0.040048	-0.676139	-0.718440
C177	C	0.373381	-0.342806	-0.385107
C178	C	-0.293302	-1.009462	-0.981087
C179	C	0.040031	-0.676129	-0.647754
C180	C	0.373365	-0.342796	-0.314420
C181	C	-0.338220	-0.964293	-0.947571
C182	C	-0.004887	-0.630960	-0.614237
C183	C	0.328446	-0.297626	-0.280904
C184	C	-0.338241	-0.964284	-0.870923
C185	C	-0.004907	-0.630951	-0.537590
C186	C	0.328426	-0.297618	-0.204256
C187	C	-0.338254	-0.964281	-0.809832
C188	C	-0.004920	-0.630948	-0.476498
C189	C	0.328413	-0.297614	-0.143165
C190	C	-0.338363	-0.964196	-0.164183
C191	C	-0.005030	-0.630863	0.169151
C192	C	0.328303	-0.297529	0.502484
C193	C	-0.338184	-0.964318	-0.088944
C194	C	-0.004851	-0.630985	0.244390
C195	C	0.328482	-0.297652	0.577723
H196	H	-0.419966	-0.703184	-0.421757
H197	H	-0.086633	-0.369851	-0.088424
H198	H	0.246700	-0.036517	0.244909
H199	H	-1.070290	-1.053930	-0.250628
H200	H	-0.736956	-0.720597	0.082705
H201	H	-0.403623	-0.387263	0.416038
N202	N	-0.247424	-1.055583	-0.943132
N203	N	0.085910	-0.722250	-0.609799
N204	N	0.419243	-0.388917	-0.276466
N205	N	-0.182613	-1.053792	-0.948384
N206	N	0.150720	-0.720458	-0.615050
N207	N	0.484053	-0.387125	-0.281717
H208	H	-0.150208	-1.086364	-0.921580
H209	H	0.183125	-0.753031	-0.588246
H210	H	0.516459	-0.419698	-0.254913
N211	N	-0.429002	-0.872998	-0.950508
N212	N	-0.095669	-0.539664	-0.617174
N213	N	0.237665	-0.206331	-0.283841
N214	N	-0.424331	-0.810739	-0.958207
N215	N	-0.090998	-0.477405	-0.624874
N216	N	0.242335	-0.144072	-0.291541
H217	H	-0.456733	-0.778144	-0.934034
H218	H	-0.123400	-0.444811	-0.600701
H219	H	0.209933	-0.111478	-0.267368
H220	H	-0.256791	-1.046199	-0.723303
H221	H	0.076542	-0.712865	-0.389970
H222	H	0.409875	-0.379532	-0.056637
H223	H	-1.070308	-0.896782	-0.407562
H224	H	-0.736975	-0.563449	-0.074228
H225	H	-0.403642	-0.230115	0.259105
H226	H	-0.937211	-1.059357	-0.245138
H227	H	-0.603878	-0.726024	0.088195
H228	H	-0.270544	-0.392691	0.421529
N229	N	-0.247405	-1.055609	-1.086022
N230	N	0.085928	-0.722276	-0.752688
N231	N	0.419261	-0.388942	-0.419355
N232	N	-0.247393	-1.055615	-1.149134
N233	N	0.085940	-0.722282	-0.815801
N234	N	0.419273	-0.388949	-0.482467
H235	H	-0.214993	-1.088200	-1.173321
H236	H	0.118340	-0.754866	-0.839988
H237	H	0.451674	-0.421533	-0.506655
N238	N	-0.247442	-0.361833	-0.248965
N239	N	0.085891	-0.028499	0.084368
N240	N	0.419225	0.304834	0.417701
N241	N	-0.182640	-0.356626	-0.250903
N242	N	0.150693	-0.023292	0.082431
N243	N	0.484027	0.310041	0.415764
H244	H	-0.150185	-0.383450	-0.218397
H245	H	0.183149	-0.050117	0.114936
H246	H	0.516482	0.283216	0.448269
N247	N	-0.929652	-0.893536	-0.410719
N248	N	-0.596319	-0.560203	-0.077386
N249	N	-0.262985	-0.226870	0.255948
N250	N	-0.962415	-0.853533	-0.450676
N251	N	-0.629082	-0.520199	-0.117342
N252	N	-0.295749	-0.186866	0.215991
H253	H	-0.935974	-0.823362	-0.480791
H254	H	-0.602641	-0.490029	-0.147458
H255	H	-0.269307	-0.156695	0.185876
N256	N	-0.858080	-0.898621	-0.405578
N257	N	-0.524747	-0.565287	-0.072245
N258	N	-0.191413	-0.231954	0.261089
N259	N	-0.899067	-0.853840	-0.383405
N260	N	-0.565734	-0.520507	-0.050072
N261	N	-0.232401	-0.187174	0.283262
H262	H	-0.925545	-0.821514	-0.415684
H263	H	-0.592212	-0.488181	-0.082351
H264	H	-0.258878	-0.154848	0.250982
N265	N	-0.429284	-0.567250	-0.431113
N266	N	-0.095951	-0.233916	-0.097779
N267	N	0.237383	0.099417	0.235554
N268	N	-0.469437	-0.597165	-0.471333
N269	N	-0.136104	-0.263832	-0.138000
N270	N	0.197229	0.069501	0.195334
H271	H	-0.501886	-0.570344	-0.503847
H272	H	-0.168553	-0.237011	-0.170514
H273	H	0.164780	0.096323	0.162819
H274	H	-0.419675	-0.882388	-1.085686
H275	H	-0.086341	-0.549054	-0.752353
H276	H	0.246992	-0.215721	-0.419019
H277	H	-0.419750	-0.882337	-0.729931
H278	H	-0.086416	-0.549003	-0.396598
H279	H	0.246917	-0.215670	-0.063264
N280	N	-0.429092	-0.872951	-0.594747
N281	N	-0.095758	-0.539617	-0.261413
N282	N	0.237575	-0.206284	0.071920
N283	N	-0.469179	-0.832638	-0.627939
N284	N	-0.135846	-0.499305	-0.294606
N285	N	0.197488	-0.165971	0.038728
H286	H	-0.501584	-0.800046	-0.603766
H287	H	-0.168251	-0.466713	-0.270432
H288	H	0.165083	-0.133380	0.062901
H289	H	-0.605722	-1.031729	-0.272540
H290	H	-0.272389	-0.698396	0.060793
H291	H	0.060945	-0.365063	0.394127
N292	N	-0.429300	-0.354359	-0.431116
N293	N	-0.095967	-0.021025	-0.097782
N294	N	0.237366	0.312308	0.235551
N295	N	-0.469456	-0.321144	-0.471342
N296	N	-0.136123	0.012189	-0.138009
N297	N	0.197211	0.345523	0.195324
H298	H	-0.501908	-0.345300	-0.503846
H299	H	-0.168575	-0.011966	-0.170513
H300	H	0.164758	0.321367	0.162820
H301	H	-0.256752	-0.709894	-0.258280
H302	H	0.076581	-0.376561	0.075053
H303	H	0.409915	-0.043227	0.408386
N304	N	-0.247442	-0.574723	-0.248942
N305	N	0.085891	-0.241390	0.084391
N306	N	0.419224	0.091943	0.417725
N307	N	-0.207287	-0.607940	-0.208716
N308	N	0.126046	-0.274606	0.124617
N309	N	0.459379	0.058727	0.457951
H310	H	-0.174841	-0.583786	-0.176206
H311	H	0.158493	-0.250452	0.157128
H312	H	0.491826	0.082881	0.490461
H313	H	-0.738787	-1.026307	-0.278036
H314	H	-0.405454	-0.692974	0.055297
H315	H	-0.072120	-0.359640	0.388631
N316	N	-0.429312	-0.211478	-0.431120
N317	N	-0.095978	0.121855	-0.097786
N318	N	0.237355	0.455189	0.235547
N319	N	-0.474037	-0.170169	-0.409065
N320	N	-0.140704	0.163165	-0.075732
N321	N	0.192630	0.496498	0.257602
H322	H	-0.506497	-0.143340	-0.441563
H323	H	-0.173164	0.189993	-0.108230
H324	H	0.160170	0.523327	0.225103
H325	H	-0.256774	-0.225890	-0.258304
H326	H	0.076559	0.107444	0.075029
H327	H	0.409893	0.440777	0.408362
N328	N	-0.746424	-0.859873	-0.444235
N329	N	-0.413091	-0.526540	-0.110902
N330	N	-0.079758	-0.193207	0.222432
N331	N	-0.811915	-0.857207	-0.446932
N332	N	-0.478581	-0.523874	-0.113599
N333	N	-0.145248	-0.190541	0.219734
H334	H	-0.838384	-0.824888	-0.479224
H335	H	-0.505051	-0.491554	-0.145891
H336	H	-0.171718	-0.158221	0.187443
H337	H	-0.605742	-0.874577	-0.429470
H338	H	-0.272408	-0.541243	-0.096137
H339	H	0.060925	-0.207910	0.237196
N340	N	-0.817958	-1.029876	-0.274508
N341	N	-0.484624	-0.696543	0.058825
N342	N	-0.151291	-0.363210	0.392158
N343	N	-0.777076	-1.007745	-0.229675
N344	N	-0.443743	-0.674412	0.103658
N345	N	-0.110410	-0.341078	0.436992
H346	H	-0.750602	-1.040059	-0.197381
H347	H	-0.417268	-0.706726	0.135952
H348	H	-0.083935	-0.373392	0.469285
H349	H	-0.256825	-1.046184	-0.595071
H350	H	0.076509	-0.712850	-0.261737
H351	H	0.409842	-0.379517	0.071596
