data_functionalizedCrystal
_audit_creation_method	'MofGen! by Chris Wilmer'
_symmetry_space_group_name_H-M	'P1'
_symmetry_Int_Tables_number	1
_symmetry_cell_setting	triclinic
loop_
_symmetry_equiv_pos_as_xyz
  x,y,z
_cell_length_a	14.044220
_cell_length_b	16.109301
_cell_length_c	15.186229
_cell_angle_alpha	90.005167
_cell_angle_beta	89.998463
_cell_angle_gamma	88.325179
loop_
_atom_site_label
_atom_site_type_symbol
_atom_site_fract_x
_atom_site_fract_y
_atom_site_fract_z
O1	O	-1.257643	-0.200436	-0.073140
O2	O	-0.981676	-0.193203	-0.073163
O3	O	-1.127241	-0.076352	-0.073142
O4	O	-1.112079	-0.317286	-0.073161
O5	O	-1.127231	-0.076350	0.073315
O6	O	-0.981667	-0.193200	0.073295
O7	O	-1.257634	-0.200433	0.073317
Zn8	Zn	-1.119649	-0.196816	0.096559
Zn9	Zn	-1.119661	-0.196820	-0.096405
O10	O	-1.112069	-0.317284	0.073296
C11	C	-1.126622	-0.045330	0.000087
C12	C	-1.124781	0.047102	0.000088
C13	C	-0.946358	-0.190036	0.000063
C14	C	-0.841135	-0.180592	0.000055
C15	C	-1.292952	-0.203600	0.000089
C16	C	-1.398175	-0.213044	0.000091
C17	C	-0.648479	-0.163326	0.000074
C18	C	-0.590825	-0.230306	0.000072
C19	C	-0.483625	-0.220699	0.000083
C20	C	-0.755690	-0.172932	0.000064
C21	C	-1.112688	-0.348306	0.000065
C22	C	-1.114529	-0.440738	0.000058
N23	N	-1.119647	-0.196814	0.228252
C24	C	-1.206874	0.263266	0.000081
C25	C	-1.205137	0.350116	0.000073
C26	C	-1.032429	0.343091	0.000063
C27	C	-1.034168	0.256243	0.000064
C28	C	-1.121393	0.216333	0.000078
C29	C	-1.117917	0.390031	0.000069
C30	C	-1.116032	0.484197	0.000061
C31	C	-1.123278	0.122161	0.000084
N32	N	-1.119671	-0.196816	-0.228097
C33	C	-1.184125	-0.145093	0.453984
C34	C	-1.184128	-0.145092	0.546173
C35	C	-1.055186	-0.248539	0.546164
C36	C	-1.055179	-0.248536	0.453976
C37	C	-1.119654	-0.196814	0.407888
C38	C	-1.119664	-0.196816	0.592266
C39	C	-1.119666	-0.196814	0.692222
C40	C	-1.119650	-0.196814	0.307926
H41	H	-0.621976	-0.294863	0.000063
C42	C	-0.550255	-0.066594	-0.075212
C43	C	-0.606435	-0.076179	0.000075
H44	H	-0.524295	-0.012792	-0.075215
H45	H	-0.500002	-0.107355	-0.075200
H46	H	-0.588373	-0.073122	-0.126280
H47	H	-0.568315	-0.069657	0.051144
H48	H	-0.656694	-0.035407	0.000072
H49	H	-0.961413	0.375597	0.000054
C50	C	-0.891089	-0.285104	0.574559
C51	C	-0.984322	-0.305390	0.596831
H52	H	-0.847342	-0.320200	0.605843
H53	H	-0.881862	-0.292510	0.513067
H54	H	-0.880831	-0.228846	0.589679
H55	H	-0.994582	-0.361646	0.581705
H56	H	-0.993553	-0.297991	0.658337
C57	C	-0.935929	0.154495	0.075343
C58	C	-0.940202	0.204644	0.000059
H59	H	-0.877923	0.122637	0.075332
H60	H	-0.938828	0.188525	0.126408
H61	H	-0.988131	0.118304	0.075337
H62	H	-0.888003	0.240840	0.000068
H63	H	-0.937293	0.170611	-0.051019
H64	H	-1.236623	-0.102977	0.416461
H65	H	-1.277898	0.230774	0.000090
C66	C	-1.279160	0.486365	0.000063
C67	C	-1.299100	0.401706	0.000075
H68	H	-1.337173	0.518212	0.000056
H69	H	-1.243402	0.499159	0.051130
H70	H	-1.243394	0.499138	-0.051016
H71	H	-1.334859	0.388932	0.051157
H72	H	-1.334873	0.388906	-0.050998
C73	C	-0.999473	-0.388314	0.425566
C74	C	-0.984310	-0.305395	0.403301
H75	H	-0.955725	-0.423412	0.394277
H76	H	-0.990246	-0.395715	0.487058
H77	H	-1.062729	-0.402053	0.410450
H78	H	-0.921056	-0.291654	0.418424
H79	H	-0.993529	-0.297990	0.341796
C80	C	-1.311587	-0.042848	0.536916
C81	C	-1.255000	-0.088242	0.596841
H82	H	-1.355345	-0.007754	0.568198
H83	H	-1.272144	-0.009997	0.500966
H84	H	-1.345662	-0.080012	0.500953
H85	H	-1.220920	-0.051078	0.632800
H86	H	-1.294449	-0.121096	0.632806
