data_functionalizedCrystal
_audit_creation_method	'MofGen! by Chris Wilmer'
_symmetry_space_group_name_H-M	'P1'
_symmetry_Int_Tables_number	1
_symmetry_cell_setting	triclinic
loop_
_symmetry_equiv_pos_as_xyz
  x,y,z
_cell_length_a	10.967819
_cell_length_b	11.792254
_cell_length_c	10.065875
_cell_angle_alpha	98.849918
_cell_angle_beta	69.228723
_cell_angle_gamma	84.460315
loop_
_atom_site_label
_atom_site_type_symbol
_atom_site_fract_x
_atom_site_fract_y
_atom_site_fract_z
O1	O	1.740395	0.083024	-0.522824
O2	O	2.073729	0.416357	-0.189490
O3	O	2.407062	0.749691	0.143843
O4	O	1.363006	0.111191	-0.434067
O5	O	1.696339	0.444525	-0.100734
O6	O	2.029673	0.777858	0.232600
O7	O	1.560849	-0.068355	-0.480587
O8	O	1.894182	0.264979	-0.147254
O9	O	2.227515	0.598312	0.186080
O10	O	1.542553	0.262570	-0.476303
O11	O	1.875886	0.595903	-0.142970
O12	O	2.209219	0.929237	0.190363
O13	O	1.523124	-0.033984	-0.244728
O14	O	1.856457	0.299349	0.088606
O15	O	2.189790	0.632682	0.421939
O16	O	1.325281	0.145562	-0.198208
O17	O	1.658614	0.478895	0.135126
O18	O	1.991948	0.812228	0.468459
O19	O	1.702670	0.117394	-0.286964
O20	O	2.036004	0.450728	0.046369
O21	O	2.369337	0.784061	0.379702
Zn22	Zn	1.507986	0.136935	-0.205138
Zn23	Zn	1.841319	0.470268	0.128195
Zn24	Zn	2.174653	0.803602	0.461528
Zn25	Zn	1.557690	0.091651	-0.515893
Zn26	Zn	1.891024	0.424984	-0.182560
Zn27	Zn	2.224357	0.758317	0.150774
O28	O	1.504828	0.296940	-0.240444
O29	O	1.838161	0.630274	0.092889
O30	O	2.171494	0.963607	0.426223
C31	C	1.295829	0.128923	-0.304774
C32	C	1.629162	0.462256	0.028559
C33	C	1.962496	0.795589	0.361892
C34	C	1.151868	0.130537	-0.270916
C35	C	1.485201	0.463871	0.062417
C36	C	1.818534	0.797204	0.395750
C37	C	0.958446	0.115129	-0.343037
C38	C	1.291780	0.448462	-0.009703
C39	C	1.625113	0.781795	0.323630
C40	C	1.107238	0.113453	-0.378022
C41	C	1.440571	0.446786	-0.044689
C42	C	1.773904	0.780120	0.288644
C43	C	1.540833	-0.093423	-0.362387
C44	C	1.874167	0.239910	-0.029053
C45	C	2.207500	0.573243	0.304280
C46	C	1.537383	-0.219325	-0.361577
C47	C	1.870717	0.114008	-0.028243
C48	C	2.204050	0.447341	0.305090
C49	C	1.534581	-0.321573	-0.360922
C50	C	1.867914	0.011761	-0.027589
C51	C	2.201248	0.345094	0.305744
C52	C	1.531077	-0.449848	-0.360111
C53	C	1.864411	-0.116515	-0.026778
C54	C	2.197744	0.216818	0.306556
C55	C	1.769848	0.099662	-0.416260
C56	C	2.103181	0.432996	-0.082927
C57	C	2.436514	0.766329	0.250407
C58	C	1.913810	0.098047	-0.450127
C59	C	2.247144	0.431380	-0.116794
C60	C	2.580477	0.764713	0.216539
C61	C	1.524843	0.322008	-0.358648
C62	C	1.858177	0.655342	-0.025314
C63	C	2.191510	0.988675	0.308019
C64	C	1.528295	0.447909	-0.359467
C65	C	1.861628	0.781243	-0.026134
C66	C	2.194961	1.114576	0.307200
N67	N	1.474074	0.167839	0.006941
N68	N	1.807407	0.501173	0.340275
N69	N	2.140740	0.834506	0.673608
N70	N	1.591613	0.060737	-0.727975
N71	N	1.924946	0.394070	-0.394642
N72	N	2.258280	0.727404	-0.061308
C73	C	1.545883	0.102396	0.057835
C74	C	1.879216	0.435730	0.391169
C75	C	2.212550	0.769063	0.724502
C76	C	1.519793	0.126190	0.221137
C77	C	1.853126	0.459523	0.554471
C78	C	2.186460	0.792856	0.887804
H79	H	0.886505	0.131000	-0.225452
H80	H	1.219838	0.464333	0.107882
H81	H	1.553172	0.797666	0.441215
F82	F	1.368462	0.264093	0.108006
F83	F	1.701795	0.597426	0.441339
F84	F	2.035129	0.930760	0.774672
F85	F	1.651256	0.005943	-0.043173
F86	F	1.984589	0.339277	0.290161
F87	F	2.317923	0.672610	0.623494
F88	F	1.414176	0.222448	0.322198
F89	F	1.747509	0.555781	0.655531
F90	F	2.080843	0.889115	0.988864
F91	F	1.201258	0.092723	-0.531726
F92	F	1.534592	0.426056	-0.198392
F93	F	1.867925	0.759389	0.134941
H94	H	1.079932	0.146410	-0.153323
H95	H	1.413265	0.479744	0.180011
H96	H	1.746598	0.813077	0.513344
F97	F	1.007835	0.077318	-0.603823
F98	F	1.341168	0.410651	-0.270489
F99	F	1.674501	0.743984	0.062844
H100	H	1.672407	-0.012915	0.194706
H101	H	2.005741	0.320418	0.528040
H102	H	2.339074	0.653752	0.861373
