data_functionalizedCrystal
_audit_creation_method	'MofGen! by Chris Wilmer'
_symmetry_space_group_name_H-M	'P1'
_symmetry_Int_Tables_number	1
_symmetry_cell_setting	triclinic
loop_
_symmetry_equiv_pos_as_xyz
  x,y,z
_cell_length_a	12.759401
_cell_length_b	16.959454
_cell_length_c	12.759393
_cell_angle_alpha	89.970336
_cell_angle_beta	89.981287
_cell_angle_gamma	90.021600
loop_
_atom_site_label
_atom_site_type_symbol
_atom_site_fract_x
_atom_site_fract_y
_atom_site_fract_z
Zn1	Zn	1.606204	-0.314611	-0.594026
Zn2	Zn	1.606086	-0.446810	-0.418349
Zn3	Zn	1.430510	-0.314653	-0.418362
Zn4	Zn	1.430478	-0.446755	-0.593986
O5	O	1.518319	-0.380707	-0.506181
O6	O	1.753209	-0.332153	-0.570734
O7	O	1.582759	-0.429320	-0.271330
O8	O	1.453879	-0.204037	-0.441686
O9	O	1.753122	-0.429279	-0.441665
O10	O	1.582961	-0.204006	-0.570746
O11	O	1.453764	-0.332225	-0.271339
O12	O	1.283484	-0.332171	-0.441647
O13	O	1.453825	-0.429185	-0.741013
O14	O	1.283461	-0.429226	-0.570678
O15	O	1.582930	-0.332099	-0.741042
O16	O	1.582728	-0.557414	-0.441626
O17	O	1.453710	-0.557373	-0.570666
C18	C	1.245352	-0.380698	-0.506160
C19	C	1.128575	-0.380712	-0.506176
C20	C	1.518231	-0.586074	-0.506163
C21	C	1.518290	-0.673930	-0.506190
C22	C	1.073729	-0.431326	-0.573257
C23	C	0.964005	-0.431329	-0.573277
C24	C	0.963983	-0.330103	-0.439128
C25	C	1.073705	-0.330097	-0.439113
C26	C	0.814100	-0.459691	-0.697138
C27	C	0.759250	-0.510317	-0.764210
C28	C	0.794838	-0.587455	-0.780159
C29	C	0.885274	-0.613984	-0.729022
C30	C	0.940118	-0.563363	-0.661943
C31	C	0.904532	-0.486213	-0.646013
C32	C	1.223612	-0.301743	-0.315251
C33	C	1.278458	-0.251125	-0.248166
C34	C	1.242873	-0.173984	-0.232205
C35	C	1.152434	-0.147458	-0.283324
C36	C	1.097587	-0.198076	-0.350409
C37	C	1.133180	-0.275216	-0.366371
C38	C	1.451237	-1.045414	-0.573365
C39	C	1.585694	-1.045397	-0.439104
C40	C	1.585657	-0.962851	-0.439094
C41	C	1.518408	-0.921583	-0.506220
C42	C	1.451196	-0.962861	-0.573355
C43	C	1.652861	-0.921567	-0.371953
C44	C	1.652826	-0.839016	-0.371940
C45	C	1.585582	-0.797746	-0.439071
C46	C	1.518367	-0.839029	-0.506210
C47	C	1.451119	-0.797762	-0.573335
C48	C	1.383909	-0.839043	-0.640480
C49	C	1.383952	-0.921592	-0.640486
C50	C	1.585539	-0.715198	-0.439065
C51	C	1.451078	-0.715208	-0.573326
C52	C	1.792353	-0.380718	-0.506202
C53	C	1.909129	-0.380722	-0.506212
C54	C	1.518387	-0.380631	-0.780214
C55	C	1.518416	-0.380599	-0.896991
C56	C	1.518436	-0.174539	-0.506222
C57	C	1.518486	-0.086682	-0.506239
C58	C	1.451214	-0.431128	-0.951839
C59	C	1.451251	-0.431098	-1.061564
C60	C	1.585696	-0.330005	-1.061581
C61	C	1.585664	-0.330038	-0.951859
C62	C	1.413703	-0.524270	-1.211500
C63	C	1.346484	-0.574792	-1.266352
C64	C	1.243952	-0.586933	-1.230736
C65	C	1.208618	-0.548541	-1.140271
C66	C	1.275831	-0.498013	-1.085424
C67	C	1.378378	-0.485887	-1.121038
C68	C	1.623201	-0.236866	-0.801921
C69	C	1.690410	-0.186333	-0.747073
C70	C	1.792944	-0.174184	-0.782686
C71	C	1.828274	-0.212562	-0.873155
C72	C	1.761065	-0.263094	-0.928003
C73	C	1.658533	-0.275245	-0.892383
C74	C	1.518312	-0.380726	-0.233213
C75	C	1.518487	-0.380536	-0.116437
H76	H	1.118401	-0.472538	-0.627866
Br77	Br	1.360036	-1.101435	-0.664493
Br78	Br	1.552868	-0.507810	-1.259829
Br79	Br	1.069450	-0.565007	-1.091953
H80	H	1.661631	-0.155078	-0.673413
Br81	Br	1.484048	-0.253367	-0.753569
H82	H	1.707552	-0.805410	-0.317268
Br83	Br	1.676729	-0.659176	-0.347933
Br84	Br	0.636522	-0.474314	-0.833610
H85	H	0.914235	-0.676802	-0.742005
Br86	Br	1.401186	-0.287131	-0.178769
H87	H	0.750171	-0.628675	-0.834771
H88	H	1.396451	-0.472293	-0.907169
Br89	Br	1.359815	-0.659208	-0.664438
Br90	Br	1.292638	-0.783027	-0.731568
Br91	Br	1.104123	-0.042769	-0.261655
H92	H	1.329232	-0.955210	-0.695151
Br93	Br	0.765811	-0.354992	-0.675518
H94	H	1.189222	-0.628069	-1.275405
Br95	Br	1.394437	-0.626895	-1.389120
H96	H	1.640445	-0.288839	-1.106268
H97	H	1.013749	-0.584963	-0.620307
Br98	Br	1.967432	-0.196076	-0.921494
H99	H	1.789839	-0.294341	-1.001672
H100	H	1.247061	-0.466753	-1.011771
H101	H	1.252601	-0.364554	-0.328250
H102	H	1.287534	-0.132774	-0.177570
Br103	Br	0.889511	-0.261414	-0.348119
Br104	Br	1.744126	-0.977576	-0.280865
Br105	Br	1.676955	-1.101403	-0.348008
Br106	Br	1.884153	-0.105596	-0.708253
H107	H	1.023951	-0.176470	-0.392040
