data_functionalizedCrystal
_audit_creation_method	'MofGen! by Chris Wilmer'
_symmetry_space_group_name_H-M	'P1'
_symmetry_Int_Tables_number	1
_symmetry_cell_setting	triclinic
loop_
_symmetry_equiv_pos_as_xyz
  x,y,z
_cell_length_a	19.288862
_cell_length_b	19.288864
_cell_length_c	17.766277
_cell_angle_alpha	90.023209
_cell_angle_beta	90.013866
_cell_angle_gamma	83.135763
loop_
_atom_site_label
_atom_site_type_symbol
_atom_site_fract_x
_atom_site_fract_y
_atom_site_fract_z
O1	O	-0.086649	-0.921352	-0.062848
O2	O	0.413351	-0.421352	0.437152
O3	O	-0.098338	-0.719092	-0.062798
O4	O	0.401662	-0.219092	0.437202
O5	O	0.008637	-0.826067	-0.062805
O6	O	0.508637	-0.326067	0.437195
O7	O	-0.193624	-0.814377	-0.062841
O8	O	0.306376	-0.314377	0.437159
O9	O	0.008643	-0.826048	0.062383
O10	O	0.508643	-0.326048	0.562383
O11	O	-0.098332	-0.719073	0.062390
O12	O	0.401668	-0.219073	0.562390
O13	O	-0.086643	-0.921334	0.062341
O14	O	0.413357	-0.421334	0.562341
Cu15	Cu	-0.092487	-0.820202	0.073796
Cu16	Cu	0.407513	-0.320202	0.573796
Cu17	Cu	-0.092494	-0.820224	-0.074254
Cu18	Cu	0.407506	-0.320224	0.425746
O19	O	-0.193618	-0.814358	0.062348
O20	O	0.306382	-0.314358	0.562348
C21	C	0.034516	-0.825682	-0.000207
C22	C	0.534516	-0.325682	0.499793
C23	C	0.111620	-0.824554	-0.000197
C24	C	0.611620	-0.324554	0.499803
C25	C	-0.097959	-0.693206	-0.000197
C26	C	0.402041	-0.193206	0.499803
C27	C	-0.096830	-0.616102	-0.000177
C28	C	0.403170	-0.116102	0.499823
C29	C	0.156316	-0.887322	-0.000207
C30	C	0.656316	-0.387322	0.499793
C31	C	0.228764	-0.886262	-0.000216
C32	C	0.728764	-0.386262	0.499784
C33	C	0.256511	-0.822430	-0.000199
C34	C	0.756511	-0.322430	0.499801
C35	C	0.211805	-0.759653	-0.000193
C36	C	0.711805	-0.259653	0.499807
C37	C	0.139359	-0.760715	-0.000192
C38	C	0.639359	-0.260715	0.499808
C39	C	0.364801	-0.772245	0.043669
C40	C	0.864801	-0.272245	0.543669
C41	C	0.437245	-0.771185	0.043672
C42	C	0.937245	-0.271185	0.543672
C43	C	0.479957	-0.819152	-0.000206
C44	C	0.979957	-0.319152	0.499794
C45	C	0.450217	-0.868190	-0.044078
C46	C	0.950217	-0.368190	0.455922
C47	C	0.377771	-0.869252	-0.044077
C48	C	0.877771	-0.369252	0.455923
C49	C	0.335065	-0.821271	-0.000201
C50	C	0.835065	-0.321271	0.499799
C51	C	0.603209	-0.880775	-0.000226
C52	C	1.103209	-0.380775	0.499774
C53	C	0.675658	-0.879713	-0.000239
C54	C	1.175658	-0.379713	0.499761
C55	C	0.658697	-0.753102	-0.000209
C56	C	1.158697	-0.253102	0.499791
C57	C	0.586251	-0.754167	-0.000204
C58	C	1.086251	-0.254167	0.499796
C59	C	0.558511	-0.818005	-0.000208
C60	C	1.058511	-0.318005	0.499792
C61	C	-0.087022	-0.947219	-0.000262
C62	C	0.412978	-0.447219	0.499738
C63	C	-0.088151	-1.024323	-0.000287
C64	C	0.411849	-0.524323	0.499713
C65	C	0.780503	-0.814745	-0.000241
C66	C	1.280503	-0.314745	0.499759
C67	C	0.703400	-0.815880	-0.000224
C68	C	1.203400	-0.315880	0.499776
C69	C	-0.159598	-0.571405	-0.000200
C70	C	0.340402	-0.071405	0.499800
C71	C	-0.158537	-0.498958	-0.000208
C72	C	0.341463	0.001042	0.499792
C73	C	-0.094705	-0.471211	-0.000209
C74	C	0.405295	0.028789	0.499791
C75	C	-0.031929	-0.515918	-0.000181
C76	C	0.468071	-0.015918	0.499819
C77	C	-0.032991	-0.588363	-0.000166
C78	C	0.467009	-0.088363	0.499834
C79	C	-0.044528	-0.362956	-0.044084
C80	C	0.455472	0.137044	0.455916
C81	C	-0.043468	-0.290512	-0.044104
C82	C	0.456532	0.209488	0.455896
C83	C	-0.091425	-0.247766	-0.000254
C84	C	0.408575	0.252234	0.499746
C85	C	-0.140454	-0.277472	0.043608
C86	C	0.359546	0.222528	0.543608
C87	C	-0.141517	-0.349917	0.043624
C88	C	0.358483	0.150083	0.543624
C89	C	-0.093546	-0.392657	-0.000225
C90	C	0.406454	0.107343	0.499775
C91	C	-0.153047	-0.124513	-0.000284
C92	C	0.346953	0.375487	0.499716
C93	C	-0.151984	-0.052065	-0.000288
C94	C	0.348016	0.447935	0.499712
C95	C	-0.025374	-0.069026	-0.000268
C96	C	0.474626	0.430974	0.499732
C97	C	-0.026439	-0.141473	-0.000257
C98	C	0.473561	0.358527	0.499743
C99	C	-0.090278	-0.169211	-0.000269
C100	C	0.409722	0.330789	0.499731
N101	N	-0.092482	-0.820191	0.177927
N102	N	0.407518	-0.320191	0.677927
N103	N	-0.092493	-0.820240	-0.178384
N104	N	0.407507	-0.320240	0.321616
C105	C	-0.045137	-0.867575	0.217310
C106	C	0.454863	-0.367575	0.717310
C107	C	-0.045134	-0.867579	0.296112
C108	C	0.454866	-0.367579	0.796112
C109	C	-0.092488	-0.820206	0.335527
C110	C	0.407512	-0.320206	0.835527
C111	C	-0.139837	-0.772813	0.296134
C112	C	0.360163	-0.272813	0.796134
C113	C	-0.139834	-0.772805	0.217334
C114	C	0.360166	-0.272805	0.717334
C115	C	-0.155776	-0.810906	0.460355
C116	C	0.344224	-0.310906	0.960355
C117	C	-0.155779	-0.810918	0.539154
C118	C	0.344221	-0.310918	1.039154
C119	C	-0.092496	-0.820224	0.578574
C120	C	0.407504	-0.320224	1.078574
C121	C	-0.029207	-0.829533	0.539184
C122	C	0.470793	-0.329533	1.039184
C123	C	-0.029204	-0.829525	0.460384
C124	C	0.470796	-0.329525	0.960384
C125	C	-0.092496	-0.820208	0.420973
C126	C	0.407504	-0.320208	0.920973
C127	C	-0.045144	-0.867615	0.703403
C128	C	0.454856	-0.367615	1.203403
C129	C	-0.045139	-0.867614	0.782206
C130	C	0.454861	-0.367614	1.282206
C131	C	-0.139848	-0.772851	0.782227
C132	C	0.360152	-0.272851	1.282227
C133	C	-0.139846	-0.772849	0.703425
C134	C	0.360154	-0.272849	1.203425
C135	C	-0.092495	-0.820234	0.664018
C136	C	0.407505	-0.320234	1.164018
H137	H	0.133736	-0.939304	-0.000214
H138	H	0.633736	-0.439304	0.499786
F139	F	0.346122	-0.921437	-0.090770
F140	F	0.846122	-0.421437	0.409230
F141	F	0.276341	-0.953071	-0.000228
F142	F	0.776341	-0.453071	0.499772
H143	H	-0.207313	-0.803344	0.571219
H144	H	0.292687	-0.303344	1.071219
F145	F	0.040368	-0.189045	-0.000237
F146	F	0.540368	0.310955	0.499763
H147	H	-0.178392	-0.734239	0.328230
H148	H	0.321608	-0.234239	0.828230
H149	H	0.461453	-0.731253	0.079391
H150	H	0.961453	-0.231253	0.579391
F151	F	0.038151	-0.839426	0.418466
F152	F	0.538151	-0.339426	0.918466
F153	F	-0.227541	-0.600923	-0.000210
F154	F	0.272459	-0.100923	0.499790
H155	H	-0.006581	-0.906198	0.814273
H156	H	0.493419	-0.406198	1.314273
F157	F	-0.225346	-0.451380	-0.000231
F158	F	0.274654	0.048620	0.499769
F159	F	0.005255	-0.918044	0.661462
F160	F	0.505255	-0.418044	1.161462
F161	F	-0.190241	-0.722419	0.661507
F162	F	0.309759	-0.222419	1.161507
F163	F	0.538679	-0.687359	-0.000190
F164	F	1.038679	-0.187359	0.499810
H165	H	0.026600	-0.046436	-0.000315
H166	H	0.526600	0.453564	0.499685
F167	F	0.038149	-0.839442	0.581130
F168	F	0.538149	-0.339442	1.081130
F169	F	-0.223136	-0.801052	0.418410
F170	F	0.276864	-0.301052	0.918410
F171	F	0.008707	-0.258903	-0.090792
F172	F	0.508707	0.241097	0.409208
H173	H	0.484992	-0.907249	-0.079808
H174	H	0.984992	-0.407249	0.420192
F175	F	0.688223	-0.685167	-0.000195
F176	F	1.188223	-0.185167	0.499805
F177	F	0.319350	-0.721189	0.090374
F178	F	0.819350	-0.221189	0.590374
F179	F	0.006520	-0.408444	-0.090759
F180	F	0.506520	0.091556	0.409241
F181	F	0.573685	-0.948717	-0.000228
F182	F	1.073685	-0.448717	0.499772
H183	H	0.712049	-0.930828	-0.000252
H184	H	1.212049	-0.430828	0.499748
H185	H	-0.181436	-0.374100	0.079340
H186	H	0.318564	0.125900	0.579340
F187	F	0.241337	-0.691719	-0.000181
F188	F	0.741337	-0.191719	0.499819
H189	H	-0.178389	-0.734219	0.185267
H190	H	0.321611	-0.234219	0.685267
F191	F	-0.190242	-0.722429	0.824171
F192	F	0.309758	-0.222429	1.324171
F193	F	0.091788	-0.693906	-0.000182
F194	F	0.591788	-0.193906	0.499818
H195	H	-0.179506	-0.242669	0.079316
H196	H	0.320494	0.257331	0.579316
H197	H	0.020044	-0.493322	-0.000192
H198	H	0.520044	0.006678	0.499808
H199	H	-0.203099	-0.015673	-0.000302
H200	H	0.296901	0.484327	0.499698
F201	F	-0.220989	-0.154037	-0.000291
F202	F	0.279011	0.345963	0.499709
H203	H	0.018124	-0.624756	-0.000148
H204	H	0.518124	-0.124756	0.499852
H205	H	-0.006579	-0.906158	0.185227
H206	H	0.493421	-0.406158	0.685227
H207	H	-0.006578	-0.906166	0.328184
H208	H	0.493422	-0.406166	0.828184
