data_functionalizedCrystal
_audit_creation_method	'MofGen! by Chris Wilmer'
_symmetry_space_group_name_H-M	'P1'
_symmetry_Int_Tables_number	1
_symmetry_cell_setting	triclinic
loop_
_symmetry_equiv_pos_as_xyz
  x,y,z
_cell_length_a	16.109295
_cell_length_b	16.109301
_cell_length_c	15.186229
_cell_angle_alpha	90.000894
_cell_angle_beta	90.000428
_cell_angle_gamma	96.539667
loop_
_atom_site_label
_atom_site_type_symbol
_atom_site_fract_x
_atom_site_fract_y
_atom_site_fract_z
O1	O	-1.103134	0.106844	-0.073159
O2	O	-0.769800	0.440177	0.260174
O3	O	-0.436467	0.773510	0.593507
O4	O	-0.861071	0.120148	-0.073173
O5	O	-0.527738	0.453481	0.260160
O6	O	-0.194404	0.786815	0.593493
O7	O	-0.988752	-0.007535	-0.073171
O8	O	-0.655419	0.325798	0.260163
O9	O	-0.322085	0.659131	0.593496
O10	O	-0.975453	0.234527	-0.073162
O11	O	-0.642119	0.567860	0.260171
O12	O	-0.308786	0.901194	0.593505
O13	O	-0.988743	-0.007537	0.073287
O14	O	-0.655410	0.325796	0.406620
O15	O	-0.322077	0.659130	0.739953
O16	O	-0.861062	0.120146	0.073284
O17	O	-0.527729	0.453480	0.406617
O18	O	-0.194396	0.786813	0.739951
O19	O	-1.103125	0.106842	0.073298
O20	O	-0.769792	0.440175	0.406631
O21	O	-0.436458	0.773509	0.739965
Zn22	Zn	-0.982092	0.113494	0.096544
Zn23	Zn	-0.648759	0.446827	0.429878
Zn24	Zn	-0.315426	0.780160	0.763211
Zn25	Zn	-0.982104	0.113496	-0.096420
Zn26	Zn	-0.648770	0.446830	0.236914
Zn27	Zn	-0.315437	0.780163	0.570247
O28	O	-0.975444	0.234525	0.073295
O29	O	-0.642111	0.567859	0.406628
O30	O	-0.308777	0.901192	0.739962
C31	C	-0.830092	0.119609	0.000053
C32	C	-0.496758	0.452942	0.333387
C33	C	-0.163425	0.786276	0.666720
C34	C	-0.737796	0.117996	0.000048
C35	C	-0.404463	0.451329	0.333381
C36	C	-0.071129	0.784662	0.666714
N37	N	-0.982091	0.113492	0.228237
N38	N	-0.648757	0.446825	0.561570
N39	N	-0.315424	0.780158	0.894904
C40	C	-0.515523	0.190008	0.000060
C41	C	-0.182190	0.523341	0.333393
C42	C	0.151143	0.856675	0.666726
C43	C	-0.428803	0.188486	0.000065
C44	C	-0.095469	0.521819	0.333398
C45	C	0.237864	0.855152	0.666732
C46	C	-0.448677	0.036996	0.000056
C47	C	-0.115344	0.370330	0.333389
C48	C	0.217990	0.703663	0.666723
C49	C	-0.535396	0.038520	0.000057
C50	C	-0.202063	0.371853	0.333390
C51	C	0.131271	0.705186	0.666724
C52	C	-0.568816	0.115028	0.000054
C53	C	-0.235483	0.448361	0.333388
C54	C	0.097850	0.781695	0.666721
C55	C	-0.395377	0.111982	0.000059
C56	C	-0.062044	0.445316	0.333392
C57	C	0.271290	0.778649	0.666725
C58	C	-0.301351	0.110331	0.000064
C59	C	0.031983	0.443665	0.333398
C60	C	0.365316	0.776998	0.666731
C61	C	-0.662849	0.116679	0.000050
C62	C	-0.329515	0.450013	0.333384
C63	C	0.003818	0.783346	0.666717
C64	C	-0.134104	0.107386	0.000068
C65	C	0.199230	0.440719	0.333402
C66	C	0.532563	0.774053	0.666735
C67	C	-0.226397	0.109014	0.000065
C68	C	0.106936	0.442348	0.333399
C69	C	0.440270	0.775681	0.666732
C70	C	-0.975987	0.265501	0.000068
C71	C	-0.642654	0.598834	0.333401
C72	C	-0.309320	0.932168	0.666734
C73	C	-0.977602	0.357796	0.000071
C74	C	-0.644269	0.691130	0.333404
C75	C	-0.310935	1.024463	0.666738
C76	C	-0.988209	-0.038511	0.000055
C77	C	-0.654876	0.294822	0.333388
C78	C	-0.321542	0.628156	0.666722
C79	C	-0.986594	-0.130806	0.000046
C80	C	-0.653260	0.202527	0.333379
C81	C	-0.319927	0.535860	0.666713
C82	C	-0.905594	0.580070	0.000054
C83	C	-0.572261	0.913403	0.333387
C84	C	-0.238928	1.246737	0.666721
C85	C	-0.907118	0.666790	0.000048
C86	C	-0.573785	1.000124	0.333381
C87	C	-0.240452	1.333457	0.666714
C88	C	-1.058607	0.646913	0.000060
C89	C	-0.725274	0.980246	0.333393
C90	C	-0.391941	1.313580	0.666727
C91	C	-1.057083	0.560194	0.000060
C92	C	-0.723749	0.893528	0.333394
C93	C	-0.390416	1.226861	0.666727
C94	C	-0.980573	0.526775	0.000062
C95	C	-0.647240	0.860109	0.333395
C96	C	-0.313907	1.193442	0.666729
C97	C	-0.983622	0.700215	0.000055
C98	C	-0.650289	1.033548	0.333388
C99	C	-0.316956	1.366881	0.666722
C100	C	-0.985275	0.794241	0.000048
C101	C	-0.651942	1.127574	0.333381
C102	C	-0.318609	1.460907	0.666715
C103	C	-0.978920	0.432744	0.000067
C104	C	-0.645587	0.766077	0.333401
C105	C	-0.312253	1.099410	0.666734
N106	N	-0.982112	0.113492	-0.228112
N107	N	-0.648778	0.446825	0.105221
N108	N	-0.315445	0.780158	0.438554
C109	C	-1.038647	0.056973	0.453961
C110	C	-0.705314	0.390306	0.787294
C111	C	-0.371980	0.723639	1.120628
C112	C	-1.038650	0.056971	0.546151
C113	C	-0.705316	0.390304	0.879484
C114	C	-0.371983	0.723637	1.212817
C115	C	-0.925549	0.170014	0.546157
C116	C	-0.592216	0.503347	0.879491
C117	C	-0.258883	0.836680	1.212824
C118	C	-0.925543	0.170011	0.453969
C119	C	-0.592210	0.503344	0.787303
C120	C	-0.258877	0.836678	1.120636
C121	C	-0.982097	0.113491	0.407873
C122	C	-0.648764	0.446825	0.741207
C123	C	-0.315430	0.780158	1.074540
C124	C	-0.982106	0.113492	0.592251
C125	C	-0.648772	0.446825	0.925584
C126	C	-0.315439	0.780159	1.258918
C127	C	-0.982108	0.113490	0.692207
C128	C	-0.648775	0.446824	1.025541
C129	C	-0.315441	0.780157	1.358874
C130	C	-0.982094	0.113492	0.307911
C131	C	-0.648760	0.446825	0.641244
C132	C	-0.315427	0.780158	0.974578
H133	H	-0.542731	0.252306	0.000064
H134	H	-0.209398	0.585639	0.333397
H135	H	0.123936	0.918972	0.666731
H136	H	-0.578790	-0.022542	0.000055
H137	H	-0.245457	0.310791	0.333389
H138	H	0.087877	0.644125	0.666722
F139	F	-1.136890	0.503470	0.000064
F140	F	-0.803557	0.836804	0.333397
F141	F	-0.470223	1.170137	0.666731
H142	H	-1.084697	0.010947	0.583672
H143	H	-0.751364	0.344280	0.917006
H144	H	-0.418030	0.677614	1.250339
H145	H	-0.385414	0.249542	0.000071
H146	H	-0.052081	0.582875	0.333404
H147	H	0.281253	0.916209	0.666738
F148	F	-0.413101	-0.044424	0.000055
F149	F	-0.079767	0.288909	0.333388
F150	F	0.253566	0.622242	0.666722
F151	F	-1.098834	-0.003183	0.404906
F152	F	-0.765501	0.330151	0.738239
F153	F	-0.432168	0.663484	1.071573
H154	H	-0.843296	0.552864	0.000058
H155	H	-0.509962	0.886197	0.333392
H156	H	-0.176629	1.219530	0.666725
F157	F	-0.827315	0.723507	0.000035
F158	F	-0.493982	1.056841	0.333369
F159	F	-0.160648	1.390174	0.666702
F160	F	-0.865366	0.230165	0.595222
F161	F	-0.532032	0.563498	0.928555
F162	F	-0.198699	0.896832	1.261888
F163	F	-0.865349	0.230166	0.404916
F164	F	-0.532016	0.563499	0.738249
F165	F	-0.198682	0.896832	1.071582
H166	H	-1.120899	0.674134	0.000068
H167	H	-0.787565	1.007467	0.333401
H168	H	-0.454232	1.340800	0.666734
