data_functionalizedCrystal
_audit_creation_method	'MofGen! by Chris Wilmer'
_symmetry_space_group_name_H-M	'P1'
_symmetry_Int_Tables_number	1
_symmetry_cell_setting	triclinic
loop_
_symmetry_equiv_pos_as_xyz
  x,y,z
_cell_length_a	27.440280
_cell_length_b	27.440280
_cell_length_c	14.560438
_cell_angle_alpha	89.997332
_cell_angle_beta	120.003325
_cell_angle_gamma	60.004644
loop_
_atom_site_label
_atom_site_type_symbol
_atom_site_fract_x
_atom_site_fract_y
_atom_site_fract_z
Zr1	Zr	0.533336	0.469571	0.120400
O2	O	0.635009	0.391766	0.267067
O3	O	0.431671	0.493413	0.075441
O4	O	0.533336	0.493427	0.267044
O5	O	0.533342	0.391751	-0.075678
O6	O	0.533326	0.573630	0.267024
O7	O	0.533345	0.391752	0.075463
O8	O	0.351467	0.573605	-0.075719
O9	O	0.715202	0.391776	0.267065
O10	O	0.473477	0.563447	0.056249
O11	O	0.473483	0.503592	-0.056531
O12	O	0.593180	0.503609	0.169057
O13	O	0.593185	0.443754	0.056276
Zr14	Zr	0.533317	0.597484	-0.120685
Zr15	Zr	0.533321	0.597485	0.120369
Zr16	Zr	0.533332	0.469570	-0.120653
Zr17	Zr	0.661234	0.469587	0.120397
Zr18	Zr	0.405420	0.597468	-0.120682
O19	O	0.634983	0.573642	-0.075725
O20	O	0.634988	0.573643	0.267022
O21	O	0.635004	0.391764	-0.075681
O22	O	0.431644	0.675289	-0.267351
O23	O	0.431650	0.675291	0.075396
O24	O	0.431666	0.493412	-0.267307
O25	O	0.533311	0.675304	0.075394
O26	O	0.533318	0.573628	-0.267328
O27	O	0.533327	0.493425	-0.267309
O28	O	0.533309	0.675303	-0.075748
O29	O	0.715190	0.493451	0.267040
O30	O	0.351464	0.573604	-0.267324
O31	O	0.351452	0.675279	-0.267349
O32	O	0.351455	0.675280	-0.075744
O33	O	0.715199	0.391775	0.075459
O34	O	0.715187	0.493450	0.075434
O35	O	0.473474	0.563446	-0.169341
O36	O	0.473469	0.623301	-0.056561
O37	O	0.593171	0.563463	0.056247
O38	O	0.593176	0.503608	-0.056534
C39	C	0.373346	0.533507	-0.000139
C40	C	0.319050	0.533500	-0.000137
C41	C	0.533346	0.373526	-0.000103
C42	C	0.533352	0.319223	-0.000090
C43	C	0.533332	0.533529	0.301379
C44	C	0.533333	0.533530	0.403713
C45	C	-0.017694	0.564788	0.058718
C46	C	-0.068718	0.564793	0.058715
O47	O	-0.095127	0.591383	0.108748
N48	N	-0.094232	0.533549	-0.000153
C49	C	-0.068723	0.502302	-0.059031
O50	O	-0.095110	0.475728	-0.109104
C51	C	-0.017704	0.502301	-0.059034
C52	C	0.007812	0.533542	-0.000153
C53	C	0.007821	0.596027	0.117594
C54	C	0.058842	0.596021	0.117598
C55	C	0.084348	0.564775	0.058727
C56	C	0.058833	0.533536	-0.000148
C57	C	0.007800	0.471058	-0.117918
C58	C	0.058822	0.471059	-0.117917
C59	C	0.084338	0.502301	-0.059035
C60	C	0.135360	0.502283	-0.059015
N61	N	0.160874	0.533527	-0.000146
C62	C	0.135368	0.564773	0.058725
C63	C	-0.175869	0.502309	-0.059022
C64	C	-0.226884	0.502307	-0.059014
C65	C	-0.226876	0.564799	0.058731
C66	C	-0.175856	0.564797	0.058729
C67	C	-0.150355	0.533553	-0.000154
C68	C	0.242517	0.564757	0.058730
C69	C	0.293544	0.564746	0.058733
C70	C	0.293529	0.502256	-0.059016
C71	C	0.242509	0.502265	-0.059015
C72	C	0.217002	0.533520	-0.000139
O73	O	0.161799	0.475709	-0.109025
O74	O	0.161754	0.591350	0.108777
C75	C	0.693307	0.533548	-0.000146
C76	C	0.747603	0.533555	-0.000147
C77	C	0.595822	0.053294	0.058742
C78	C	0.595825	0.104313	0.058749
O79	O	0.648965	0.104136	0.108798
N80	N	0.533343	0.161064	-0.000127
C81	C	0.470852	0.166797	-0.059024
O82	O	0.417706	0.219754	-0.109103
C83	C	0.470849	0.115779	-0.059037
C84	C	0.533336	0.059028	-0.000148
C85	C	0.658303	-0.003455	0.117625
C86	C	0.658299	-0.054469	0.117619
C87	C	0.595813	-0.048735	0.058730
C88	C	0.533332	0.008013	-0.000153
C89	C	0.408359	0.121512	-0.117939
C90	C	0.408362	0.070488	-0.117948
C91	C	0.470848	0.013737	-0.059058
C92	C	0.470842	-0.037268	-0.059048
N93	N	0.533325	-0.094019	-0.000172
C94	C	0.595810	-0.099753	0.058717
C95	C	0.470864	0.273936	-0.058993
C96	C	0.470866	0.324953	-0.058975
C97	C	0.595839	0.262465	0.058796
C98	C	0.595836	0.211447	0.058783
C99	C	0.533346	0.217184	-0.000117
C100	C	0.595797	-0.206886	0.058702
C101	C	0.595787	-0.257902	0.058694
C102	C	0.470814	-0.195410	-0.059081
C103	C	0.470823	-0.144398	-0.059069
C104	C	0.533320	-0.150140	-0.000176
O105	O	0.417729	-0.037137	-0.109075
O106	O	0.648947	-0.152712	0.108776
C107	C	0.533308	0.693529	-0.000181
C108	C	0.533302	0.747832	-0.000195
C109	C	0.595816	0.502292	0.510674
C110	C	0.595813	0.502295	0.606823
C111	C	0.470840	0.564772	0.489037
C112	C	0.470843	0.564773	0.392890
C113	C	0.667968	0.466219	0.578677
C114	C	0.667965	0.466222	0.674827
C115	C	0.533324	0.533527	0.698338
C116	C	0.533327	0.533531	0.596009
C117	C	0.373327	0.693508	-0.000178
C118	C	0.319025	0.747804	-0.000190
C119	C	0.373342	0.533505	-0.301660
C120	C	0.319044	0.533498	-0.403992
C121	C	0.373323	0.693507	-0.301699
C122	C	0.319019	0.747802	-0.404045
C123	C	0.693331	0.373548	0.301415
C124	C	0.747635	0.319253	0.403760
C125	C	0.693326	0.373547	-0.000107
C126	C	0.747629	0.319251	-0.000095
C127	C	0.693312	0.533550	0.301376
C128	C	0.747610	0.533557	0.403708
C129	C	0.293529	0.742059	0.058700
C130	C	0.242513	0.793071	0.058711
C131	C	0.216991	0.849827	-0.000175
C132	C	0.242492	0.855571	-0.059067
C133	C	0.293511	0.804560	-0.059071
C134	C	0.293541	0.564737	-0.510945
C135	C	0.242530	0.564728	-0.607106
C136	C	0.217019	0.533482	-0.596313
C137	C	0.242528	0.502239	-0.489349
C138	C	0.293541	0.502245	-0.393190
C139	C	0.293514	0.804549	-0.393237
C140	C	0.242497	0.855570	-0.489392
C141	C	0.216982	0.849843	-0.596355
C142	C	0.242491	0.793090	-0.607160
C143	C	0.293511	0.742070	-0.511006
C144	C	0.773145	0.262506	0.392953
C145	C	0.824179	0.211485	0.489108
C146	C	0.849697	0.217212	0.596070
C147	C	0.824184	0.273965	0.606876
C148	C	0.773155	0.324985	0.510721
C149	C	0.773130	0.324996	-0.058975
C150	C	0.824160	0.273984	-0.058959
C151	C	0.849684	0.217228	-0.000070
C152	C	0.824180	0.211484	0.058818
C153	C	0.773155	0.262495	0.058808
C154	C	0.773104	0.564809	0.392879
C155	C	0.824115	0.564828	0.489022
C156	C	0.849635	0.533591	0.595993
C157	C	0.824136	0.502338	0.606820
C158	C	0.773122	0.502323	0.510678
H159	H	0.314319	0.590186	0.106686
H160	H	0.221749	0.476799	-0.480578
O161	O	0.320999	0.810763	-0.122607
H162	H	0.311204	0.789013	-0.187682
H163	H	0.891247	0.175663	0.674356
H164	H	0.175448	0.891359	-0.000163
O165	O	0.215020	0.598438	-0.722460
H166	H	0.224823	0.566903	-0.769085
O167	O	0.851670	0.468640	0.722198
H168	H	0.891433	0.473898	0.787222
H169	H	0.175438	0.891392	-0.674640
H170	H	0.709182	-0.100675	0.165569
O171	O	0.663231	0.150238	0.122288
H172	H	0.706678	0.154829	0.163231
H173	H	0.221741	0.476818	-0.106945
O174	O	0.320951	0.468645	-0.277834
H175	H	0.294600	0.446958	-0.286496
O176	O	0.704660	0.402947	0.743984
H177	H	0.704642	0.402989	0.820197
H178	H	0.221709	0.788436	-0.694262
O179	O	0.725699	-0.009636	0.181191
H180	H	0.728718	0.012113	0.121796
H181	H	0.891232	0.175696	-0.000071
O182	O	0.321004	0.680864	-0.522668
H183	H	0.294678	0.685460	-0.613202
O184	O	0.663236	0.256288	0.122309
H185	H	0.706689	0.208256	0.163262
H186	H	0.752372	0.257832	0.305867
H187	H	0.419964	0.590216	0.305800
O188	O	0.851704	0.280139	0.722244
H189	H	0.891466	0.235124	0.787281
H190	H	0.695671	0.486290	0.578694
H191	H	0.221705	0.901789	-0.107009
O192	O	0.403457	0.280129	-0.122502
H193	H	0.373487	0.304916	-0.212995
O194	O	-0.019678	0.629729	0.181105
H195	H	-0.059445	0.624490	0.171226
H196	H	0.175481	0.533482	-0.674621
O197	O	0.851678	0.150277	0.477442
H198	H	0.825346	0.154872	0.386909
H199	H	0.752370	0.476871	0.519511
O200	O	0.321037	0.810733	-0.277876
H201	H	0.294732	0.858768	-0.286534
H202	H	0.752385	0.371189	0.519535
O203	O	0.403444	0.598477	0.477374
H204	H	0.359997	0.620206	0.386841
H205	H	0.752353	0.371206	-0.106937
O206	O	0.321057	0.680846	0.122229
H207	H	0.294758	0.685431	0.163189
O208	O	0.904661	0.533607	0.699684
H209	H	0.951155	0.487088	0.750469
H210	H	0.690362	0.420029	0.569960
H211	H	0.844917	0.278673	-0.106917
O212	O	0.214981	0.916778	-0.477726
H213	H	0.241287	0.912183	-0.387193
O214	O	0.851712	0.150266	0.122333
H215	H	0.891471	0.115766	0.112431
H216	H	0.752392	0.257809	0.106752
O217	O	0.745576	0.598510	0.277508
H218	H	0.771873	0.620249	0.286149
H219	H	0.844871	0.590277	0.480184
O220	O	0.321051	0.598440	-0.522599
H221	H	0.344304	0.580379	-0.569268
O222	O	0.215015	0.598459	0.122242
H223	H	0.241342	0.620172	0.163188
H224	H	0.079612	0.621462	0.165541
H225	H	0.221756	0.788382	0.106668
O226	O	0.697632	0.497740	0.742302
H227	H	0.713366	0.514448	0.700323
H228	H	-0.247653	0.590242	0.106666
O229	O	-0.148341	0.598497	0.122226
H230	H	-0.174655	0.620224	0.163156
H231	H	-0.247647	0.476859	-0.106946
H232	H	0.646674	-0.304112	0.106654
O233	O	-0.148354	0.468608	-0.122523
H234	H	-0.125104	0.420590	-0.088481
O235	O	-0.019691	0.437347	-0.181423
H236	H	-0.075972	0.468873	-0.246519
O237	O	0.086333	0.437369	-0.181429
H238	H	0.109582	0.389350	-0.147402
O239	O	0.321029	0.468591	-0.122555
H240	H	0.377314	0.434067	-0.063139
O241	O	0.663202	-0.213081	0.122232
H242	H	0.706643	-0.261116	0.163181
H243	H	0.357476	0.167714	-0.165884
O244	O	0.403470	0.386161	-0.122477
H245	H	0.360023	0.381570	-0.163429
H246	H	0.419942	-0.098187	-0.107034
O247	O	0.340959	0.076679	-0.181466
H248	H	0.310992	0.101460	-0.271960
O249	O	0.403420	-0.189230	-0.122597
H250	H	0.413921	-0.234242	-0.112712
