data_functionalizedCrystal
_audit_creation_method	'MofGen! by Chris Wilmer'
_symmetry_space_group_name_H-M	'P1'
_symmetry_Int_Tables_number	1
_symmetry_cell_setting	triclinic
loop_
_symmetry_equiv_pos_as_xyz
  x,y,z
_cell_length_a	27.732048
_cell_length_b	11.792241
_cell_length_c	10.868271
_cell_angle_alpha	90.005281
_cell_angle_beta	89.993197
_cell_angle_gamma	96.581965
loop_
_atom_site_label
_atom_site_type_symbol
_atom_site_fract_x
_atom_site_fract_y
_atom_site_fract_z
O1	O	0.641710	-0.135041	-0.102393
O2	O	0.975044	0.198292	0.230941
O3	O	1.308377	0.531626	0.564274
O4	O	0.501036	-0.155574	-0.102380
O5	O	0.834369	0.177759	0.230954
O6	O	1.167703	0.511093	0.564287
O7	O	0.574787	0.019972	-0.102378
O8	O	0.908120	0.353306	0.230955
O9	O	1.241454	0.686639	0.564289
O10	O	0.567960	-0.310587	-0.102395
O11	O	0.901293	0.022746	0.230939
O12	O	1.234626	0.356080	0.564272
O13	O	0.574781	0.019979	0.102267
O14	O	0.908114	0.353312	0.435600
O15	O	1.241448	0.686646	0.768933
O16	O	0.501030	-0.155567	0.102265
O17	O	0.834363	0.177766	0.435598
O18	O	1.167697	0.511099	0.768932
O19	O	0.641704	-0.135034	0.102252
O20	O	0.975038	0.198299	0.435585
O21	O	1.308371	0.531632	0.768919
Zn22	Zn	0.571366	-0.145300	0.134750
Zn23	Zn	0.904700	0.188034	0.468084
Zn24	Zn	1.238033	0.521367	0.801417
Zn25	Zn	0.571374	-0.145308	-0.134878
Zn26	Zn	0.904708	0.188025	0.198455
Zn27	Zn	1.238041	0.521358	0.531789
O28	O	0.567953	-0.310580	0.102250
O29	O	0.901287	0.022753	0.435583
O30	O	1.234620	0.356086	0.768917
C31	C	0.483024	-0.155140	-0.000056
C32	C	0.816357	0.178194	0.333278
C33	C	1.149690	0.511527	0.666611
C34	C	0.429361	-0.153842	-0.000051
C35	C	0.762695	0.179492	0.333283
C36	C	1.096028	0.512825	0.666616
C37	C	0.574355	0.062253	-0.000056
C38	C	0.907689	0.395586	0.333277
C39	C	1.241022	0.728920	0.666611
C40	C	0.573071	0.188226	-0.000057
C41	C	0.906405	0.521559	0.333276
C42	C	1.239738	0.854892	0.666610
C43	C	0.659717	-0.135469	-0.000075
C44	C	0.993050	0.197865	0.333259
C45	C	1.326384	0.531198	0.666592
C46	C	0.713379	-0.136766	-0.000088
C47	C	1.046713	0.196567	0.333246
C48	C	1.380046	0.529900	0.666579
C49	C	1.051640	-0.041201	-0.000041
C50	C	1.384973	0.292133	0.333293
C51	C	1.718307	0.625466	0.666626
C52	C	1.253327	-0.046016	-0.000037
C53	C	1.586661	0.287317	0.333296
C54	C	1.919994	0.620650	0.666630
O55	O	1.284076	0.041372	0.000020
O56	O	1.617409	0.374705	0.333354
O57	O	1.950743	0.708038	0.666687
N58	N	1.273055	-0.150108	-0.000046
N59	N	1.606388	0.183225	0.333288
N60	N	1.939722	0.516559	0.666621
C61	C	1.242357	-0.253003	-0.000048
C62	C	1.575691	0.080330	0.333286
C63	C	1.909024	0.413664	0.666619
O64	O	1.263765	-0.341650	-0.000042
O65	O	1.597098	-0.008316	0.333291
O66	O	1.930432	0.325017	0.666624
C67	C	1.040671	-0.248186	-0.000042
C68	C	1.374004	0.085147	0.333291
C69	C	1.707338	0.418480	0.666624
C70	C	1.020946	-0.144088	-0.000046
C71	C	1.354279	0.189245	0.333287
C72	C	1.687613	0.522579	0.666621
C73	C	1.031915	0.062889	-0.000043
C74	C	1.365248	0.396222	0.333290
C75	C	1.698581	0.729556	0.666624
C76	C	0.981496	0.064092	-0.000051
C77	C	1.314829	0.397425	0.333283
C78	C	1.648162	0.730759	0.666616
C79	C	0.950802	-0.038795	-0.000056
C80	C	1.284135	0.294538	0.333277
C81	C	1.617469	0.627871	0.666611
C82	C	0.970527	-0.142885	-0.000054
C83	C	1.303861	0.190448	0.333280
C84	C	1.637194	0.523781	0.666613
C85	C	1.009974	-0.351080	-0.000035
C86	C	1.343308	-0.017747	0.333298
C87	C	1.676641	0.315586	0.666631
C88	C	0.959550	-0.349867	-0.000031
C89	C	1.292883	-0.016534	0.333302
C90	C	1.626217	0.316800	0.666636
C91	C	0.939825	-0.245769	-0.000035
C92	C	1.273158	0.087565	0.333299
C93	C	1.606492	0.420898	0.666632
C94	C	0.889415	-0.244570	-0.000067
C95	C	1.222748	0.088764	0.333267
C96	C	1.556081	0.422097	0.666600
N97	N	0.869687	-0.140478	-0.000058
N98	N	1.203020	0.192855	0.333275
N99	N	1.536354	0.526189	0.666609
C100	C	0.900381	-0.037591	-0.000053
C101	C	1.233714	0.295742	0.333281
C102	C	1.567047	0.629076	0.666614
C103	C	1.348246	-0.255524	-0.000053
C104	C	1.681580	0.077809	0.333281
C105	C	2.014913	0.411142	0.666614
C106	C	1.398668	-0.256729	-0.000056
C107	C	1.732001	0.076604	0.333277
C108	C	2.065334	0.409938	0.666611
C109	C	1.409634	-0.049742	-0.000043
C110	C	1.742967	0.283592	0.333290
C111	C	2.076301	0.616925	0.666623
C112	C	1.359212	-0.048538	-0.000049
C113	C	1.692545	0.284795	0.333285
C114	C	2.025878	0.618128	0.666618
C115	C	1.328518	-0.151433	-0.000044
C116	C	1.661852	0.181901	0.333290
C117	C	1.995185	0.515234	0.666623
C118	C	0.794497	-0.035073	-0.000070
C119	C	1.127830	0.298260	0.333264
C120	C	1.461163	0.631594	0.666597
C121	C	0.744073	-0.033879	-0.000082
C122	C	1.077406	0.299454	0.333251
C123	C	1.410740	0.632787	0.666584
C124	C	0.733111	-0.240866	-0.000089
C125	C	1.066444	0.092467	0.333245
C126	C	1.399778	0.425801	0.666578
C127	C	0.783530	-0.242060	-0.000083
C128	C	1.116864	0.091273	0.333251
C129	C	1.450197	0.424607	0.666584
C130	C	0.814223	-0.139154	-0.000069
C131	C	1.147556	0.194179	0.333265
C132	C	1.480889	0.527512	0.666598
O133	O	0.858637	-0.331911	-0.000110
O134	O	1.191971	0.001422	0.333223
O135	O	1.525304	0.334756	0.666557
O136	O	0.878964	0.051043	-0.000030
O137	O	1.212297	0.384376	0.333303
O138	O	1.545630	0.717710	0.666636
C139	C	1.102059	-0.042404	-0.000033
C140	C	1.435392	0.290930	0.333300
C141	C	1.768725	0.624263	0.666634
C142	C	1.121784	-0.146493	-0.000031
C143	C	1.455117	0.186840	0.333303
C144	C	1.788451	0.520173	0.666636
C145	C	1.091090	-0.249381	-0.000036
C146	C	1.424424	0.083953	0.333297
C147	C	1.757757	0.417286	0.666630
C148	C	1.172205	-0.147698	-0.000034
C149	C	1.505539	0.185635	0.333299
C150	C	1.838872	0.518969	0.666632
C151	C	1.202899	-0.044811	-0.000029
C152	C	1.536232	0.288523	0.333304
C153	C	1.869566	0.621856	0.666638
C154	C	1.183171	0.059281	-0.000020
C155	C	1.516505	0.392614	0.333313
C156	C	1.849838	0.725948	0.666647
C157	C	1.132752	0.060484	-0.000028
C158	C	1.466086	0.393817	0.333306
C159	C	1.799419	0.727150	0.666639
C160	C	1.110818	-0.353472	-0.000045
C161	C	1.444151	-0.020139	0.333288
C162	C	1.777485	0.313194	0.666622
C163	C	1.161237	-0.354667	-0.000039
C164	C	1.494571	-0.021333	0.333295
C165	C	1.827904	0.312000	0.666628
C166	C	1.191931	-0.251779	-0.000033
C167	C	1.525264	0.081554	0.333300
C168	C	1.858598	0.414887	0.666633
C169	C	0.568385	-0.352861	-0.000075
C170	C	0.901719	-0.019528	0.333259
C171	C	1.235052	0.313806	0.666592
C172	C	0.569669	-0.478834	-0.000082
C173	C	0.903002	-0.145500	0.333252
C174	C	1.236336	0.187833	0.666585
N175	N	0.571364	-0.145293	0.318764
N176	N	0.904698	0.188040	0.652098
N177	N	1.238031	0.521374	0.985431
C178	C	0.570711	0.418862	-0.000077
C179	C	0.904044	0.752196	0.333256
C180	C	1.237378	1.085529	0.666589
C181	C	0.572023	0.290519	-0.000066
C182	C	0.905356	0.623852	0.333267
C183	C	1.238689	0.957186	0.666600
N184	N	0.571380	-0.145306	-0.318892
N185	N	0.904713	0.188027	0.014441
N186	N	1.238047	0.521361	0.347775
C187	C	0.571372	-0.145306	0.569770
C188	C	0.904705	0.188027	0.903104
C189	C	1.238038	0.521361	1.236437
C190	C	0.571366	-0.145302	0.430093
C191	C	0.904699	0.188031	0.763426
C192	C	1.238033	0.521364	1.096759
H193	H	0.728016	0.050894	-0.000089
H194	H	1.061350	0.384227	0.333245
H195	H	1.394683	0.717560	0.666578
F196	F	0.700436	-0.350360	-0.000101
F197	F	1.033769	-0.017027	0.333232
F198	F	1.367103	0.316307	0.666565
H199	H	1.116698	0.145251	-0.000030
H200	H	1.450031	0.478585	0.333303
H201	H	1.783364	0.811918	0.666636
F202	F	1.419654	-0.367524	-0.000076
F203	F	1.752988	-0.034191	0.333258
F204	F	2.086321	0.299142	0.666591
F205	F	1.215847	0.168781	-0.000020
F206	F	1.549180	0.502114	0.333314
F207	F	1.882513	0.835448	0.666647
H208	H	1.085832	-0.437258	-0.000048
H209	H	1.419165	-0.103924	0.333286
H210	H	1.752498	0.229409	0.666619
F211	F	0.827155	0.074451	-0.000056
F212	F	1.160488	0.407784	0.333278
F213	F	1.493822	0.741118	0.666611
F214	F	0.960510	0.174888	-0.000064
F215	F	1.293843	0.508222	0.333269
F216	F	1.627177	0.841555	0.666603
H217	H	1.056901	0.146677	-0.000035
H218	H	1.390234	0.480010	0.333299
H219	H	1.723568	0.813344	0.666632
F220	F	1.338224	0.062256	-0.000048
F221	F	1.671557	0.395589	0.333285
F222	F	2.004891	0.728923	0.666618
H223	H	1.434634	0.034033	-0.000043
H224	H	1.767967	0.367366	0.333290
H225	H	2.101300	0.700700	0.666623
F226	F	1.315586	-0.365047	-0.000055
F227	F	1.648919	-0.031713	0.333279
F228	F	1.982252	0.301620	0.666612
H229	H	1.026025	-0.435848	-0.000038
H230	H	1.359358	-0.102515	0.333295
H231	H	1.692692	0.230818	0.666629
H232	H	0.934561	-0.433658	-0.000021
H233	H	1.267895	-0.100325	0.333312
H234	H	1.601228	0.233009	0.666645
H235	H	0.799591	-0.326825	-0.000081
H236	H	1.132924	0.006508	0.333252
H237	H	1.466257	0.339841	0.666586
F238	F	1.182224	-0.465470	-0.000045
F239	F	1.515557	-0.132137	0.333289
F240	F	1.848890	0.201196	0.666622
