data_functionalizedCrystal
_audit_creation_method	'MofGen! by Chris Wilmer'
_symmetry_space_group_name_H-M	'P1'
_symmetry_Int_Tables_number	1
_symmetry_cell_setting	triclinic
loop_
_symmetry_equiv_pos_as_xyz
  x,y,z
_cell_length_a	12.759401
_cell_length_b	12.759400
_cell_length_c	12.759393
_cell_angle_alpha	89.968436
_cell_angle_beta	89.980535
_cell_angle_gamma	90.014356
loop_
_atom_site_label
_atom_site_type_symbol
_atom_site_fract_x
_atom_site_fract_y
_atom_site_fract_z
Zn1	Zn	1.606256	-0.418214	-0.594009
Zn2	Zn	1.606150	-0.593932	-0.418329
Zn3	Zn	1.430557	-0.418267	-0.418345
Zn4	Zn	1.430546	-0.593850	-0.593967
O5	O	1.518377	-0.506066	-0.506162
O6	O	1.753263	-0.441535	-0.570715
O7	O	1.582818	-0.570687	-0.271310
O8	O	1.453913	-0.271239	-0.441671
O9	O	1.753185	-0.570635	-0.441643
O10	O	1.582998	-0.271200	-0.570730
O11	O	1.453811	-0.441626	-0.271322
O12	O	1.283535	-0.441546	-0.441631
O13	O	1.453894	-0.570495	-0.740994
O14	O	1.283527	-0.570546	-0.570660
O15	O	1.582987	-0.441455	-0.741024
O16	O	1.582807	-0.740942	-0.441603
O17	O	1.453791	-0.740882	-0.570644
C18	C	1.245410	-0.506044	-0.506143
C19	C	1.128633	-0.506060	-0.506160
C20	C	0.964008	-0.573201	-0.438881
C21	C	1.073732	-0.573180	-0.438863
C22	C	1.073805	-0.438949	-0.573472
C23	C	0.964083	-0.438966	-0.573484
C24	C	0.909112	-0.640333	-0.371587
C25	C	0.963932	-0.707442	-0.304274
C26	C	1.073656	-0.707421	-0.304256
C27	C	1.128560	-0.640291	-0.371551
C28	C	1.518315	-0.779033	-0.506140
C29	C	1.518384	-0.895810	-0.506166
C30	C	1.585637	-0.950668	-0.439049
C31	C	1.585702	-1.060392	-0.439081
C32	C	1.451252	-1.060389	-0.573351
C33	C	1.451193	-0.950667	-0.573323
C34	C	1.652828	-0.895811	-0.371892
C35	C	1.720086	-0.950669	-0.304768
C36	C	1.720150	-1.060393	-0.304801
C37	C	1.652957	-1.115259	-0.371957
C38	C	1.792411	-0.506088	-0.506182
C39	C	1.909187	-0.506098	-0.506190
C40	C	1.518451	-0.505960	-0.780196
C41	C	1.518482	-0.505915	-0.896973
C42	C	1.518468	-0.232032	-0.506207
C43	C	1.518507	-0.115256	-0.506226
C44	C	1.585710	-0.438717	-0.951852
C45	C	1.585735	-0.438679	-1.061576
C46	C	1.451301	-0.573045	-1.061532
C47	C	1.451272	-0.573077	-0.951809
C48	C	1.663328	-0.361146	-0.951879
C49	C	1.663353	-0.361108	-1.061603
C50	C	1.518364	-0.506096	-0.233195
C51	C	1.518537	-0.505845	-0.116419
H52	H	0.819769	-0.640360	-0.371596
F53	F	1.791602	-0.892277	-0.233309
F54	F	1.379704	-0.644582	-0.893406
H55	H	1.118288	-0.762058	-0.249439
H56	H	1.217904	-0.640271	-0.371523
H57	H	1.118516	-0.384296	-0.628262
F58	F	0.905499	-0.778875	-0.232649
F59	F	1.379775	-0.644519	-1.119902
H60	H	1.641559	-0.279781	-0.922122
F61	F	1.652996	-0.779034	-0.372082
F62	F	1.791739	-1.118775	-0.233372
F63	F	1.652690	-1.232037	-0.371648
F64	F	0.905736	-0.367543	-0.645118
F65	F	1.379744	-1.118784	-0.644816
F66	F	1.379617	-0.892279	-0.644759
F67	F	1.764327	-0.399267	-0.907388
F68	F	1.625181	-0.260106	-1.106111
F69	F	1.769710	-0.389580	-1.100532
