data_functionalizedCrystal
_audit_creation_method	'MofGen! by Chris Wilmer'
_symmetry_space_group_name_H-M	'P1'
_symmetry_Int_Tables_number	1
_symmetry_cell_setting	triclinic
loop_
_symmetry_equiv_pos_as_xyz
  x,y,z
_cell_length_a	25.639242
_cell_length_b	25.639239
_cell_length_c	25.639234
_cell_angle_alpha	89.975416
_cell_angle_beta	89.973005
_cell_angle_gamma	90.034213
loop_
_atom_site_label
_atom_site_type_symbol
_atom_site_fract_x
_atom_site_fract_y
_atom_site_fract_z
Zn1	Zn	0.799250	-0.208247	-0.295742
Zn2	Zn	0.799166	-0.295674	-0.208307
Zn3	Zn	0.711819	-0.208248	-0.208306
Zn4	Zn	0.711771	-0.295646	-0.295696
O5	O	0.755502	-0.251954	-0.252013
O6	O	0.872404	-0.219855	-0.284163
O7	O	0.787564	-0.284089	-0.135141
O8	O	0.723472	-0.135083	-0.219924
O9	O	0.872342	-0.284088	-0.219924
O10	O	0.787707	-0.135082	-0.284163
O11	O	0.723390	-0.219858	-0.135141
O12	O	0.638647	-0.219830	-0.219880
O13	O	0.723391	-0.284040	-0.368868
O14	O	0.638613	-0.284041	-0.284085
O15	O	0.787661	-0.219828	-0.368901
O16	O	0.787518	-0.368836	-0.219880
O17	O	0.723309	-0.368815	-0.284085
C18	C	0.619659	-0.251933	-0.251977
C19	C	0.561545	-0.251937	-0.251975
C20	C	0.755414	-0.387796	-0.251989
C21	C	0.755424	-0.445910	-0.251996
C22	C	0.201173	-0.285444	-0.285413
C23	C	0.146568	-0.285447	-0.285421
O24	O	0.118324	-0.313911	-0.313821
N25	N	0.119263	-0.251968	-0.252047
C26	C	0.146564	-0.218480	-0.218666
O27	O	0.118324	-0.190003	-0.190280
C28	C	0.201167	-0.218474	-0.218661
C29	C	0.228470	-0.251959	-0.252034
C30	C	0.228476	-0.318926	-0.318783
C31	C	0.283076	-0.318924	-0.318774
C32	C	0.310374	-0.285439	-0.285395
C33	C	0.283071	-0.251957	-0.252024
C34	C	0.228468	-0.184983	-0.185283
C35	C	0.283075	-0.184981	-0.185281
C36	C	0.310378	-0.218466	-0.218654
C37	C	0.364969	-0.218469	-0.218636
N38	N	0.392275	-0.251949	-0.252010
C39	C	0.364977	-0.285434	-0.285389
C40	C	0.031893	-0.218493	-0.218680
C41	C	-0.022709	-0.218501	-0.218683
C42	C	-0.022701	-0.285468	-0.285438
C43	C	0.031902	-0.285463	-0.285433
C44	C	0.059199	-0.251972	-0.252054
C45	C	0.479642	-0.285426	-0.285368
C46	C	0.534247	-0.285422	-0.285354
C47	C	0.534235	-0.218453	-0.218601
C48	C	0.479634	-0.218458	-0.218612
C49	C	0.452339	-0.251947	-0.252000
O50	O	0.393248	-0.190019	-0.190252
O51	O	0.393223	-0.313901	-0.313776
C52	C	0.789022	-0.806272	-0.218638
C53	C	0.789042	-0.860876	-0.218645
O54	O	0.817518	-0.889111	-0.190257
N55	N	0.755593	-0.888193	-0.252048
C56	C	0.722126	-0.860902	-0.285449
O57	O	0.693677	-0.889152	-0.313861
C58	C	0.722109	-0.806299	-0.285444
C59	C	0.755556	-0.778985	-0.252036
C60	C	0.822467	-0.778958	-0.185233
C61	C	0.822446	-0.724357	-0.185226
C62	C	0.788980	-0.697071	-0.218623
C63	C	0.755535	-0.724385	-0.252028
C64	C	0.688644	-0.779010	-0.318847
C65	C	0.688630	-0.724403	-0.318840
C66	C	0.722077	-0.697089	-0.285432
C67	C	0.722048	-0.642498	-0.285418
N68	N	0.755497	-0.615181	-0.252016
C69	C	0.788963	-0.642467	-0.218619
C70	C	0.722165	-0.975573	-0.285457
C71	C	0.722179	-1.030175	-0.285459
C72	C	0.789097	-1.030145	-0.218656
C73	C	0.789080	-0.975542	-0.218652
C74	C	0.755614	-0.948256	-0.252055
C75	C	0.788916	-0.527802	-0.218605
C76	C	0.788890	-0.473197	-0.218599
C77	C	0.721975	-0.473232	-0.285403
C78	C	0.721998	-0.527832	-0.285408
C79	C	0.755473	-0.555116	-0.252007
O80	O	0.693588	-0.614228	-0.313794
O81	O	0.817412	-0.614212	-0.190216
C82	C	0.891875	-0.251975	-0.252049
C83	C	0.949989	-0.251984	-0.252064
C84	C	0.755530	-0.251931	-0.388386
C85	C	0.755542	-0.251921	-0.446500
C86	C	0.755604	-0.115581	-0.252048
C87	C	0.755648	-0.057467	-0.252064
C88	C	0.788971	-0.285323	-0.697686
C89	C	0.788965	-0.285334	-0.643082
O90	O	0.817364	-0.313792	-0.614839
N91	N	0.755553	-0.251895	-0.615774
C92	C	0.722141	-0.218447	-0.643073
O93	O	0.693720	-0.190006	-0.614832
C94	C	0.722144	-0.218439	-0.697677
C95	C	0.755562	-0.251877	-0.724982
C96	C	0.822386	-0.318758	-0.724991
C97	C	0.822392	-0.318747	-0.779592
C98	C	0.788983	-0.285300	-0.806887
C99	C	0.755568	-0.251865	-0.779582
C100	C	0.688729	-0.184994	-0.724975
C101	C	0.688735	-0.184989	-0.779582
C102	C	0.722153	-0.218427	-0.806887
C103	C	0.722165	-0.218406	-0.861478
N104	N	0.755578	-0.251845	-0.888786
C105	C	0.788986	-0.285292	-0.861491
C106	C	0.722136	-0.218467	-0.528403
C107	C	0.722135	-0.218472	-0.473800
C108	C	0.788959	-0.285360	-0.473813
C109	C	0.788962	-0.285352	-0.528416
C110	C	0.755548	-0.251906	-0.555710
C111	C	0.788997	-0.285264	-0.976156
C112	C	0.789002	-0.285248	-1.030761
C113	C	0.722176	-0.218363	-1.030744
C114	C	0.722173	-0.218377	-0.976144
C115	C	0.755585	-0.251832	-0.948851
O116	O	0.693780	-0.189965	-0.889756
O117	O	0.817397	-0.313733	-0.889739
C118	C	0.755503	-0.251939	-0.116170
C119	C	0.755593	-0.251802	-0.058057
H120	H	0.457425	-0.312694	-0.312556
O121	O	0.825040	-0.321345	-0.946728
H122	H	0.801624	-0.347956	-0.921838
O123	O	0.685879	-0.443798	-0.321425
H124	H	0.709260	-0.418888	-0.348047
O125	O	0.824995	-0.321439	-0.444371
H126	H	0.801569	-0.348043	-0.419482
H127	H	0.849592	-0.345997	-0.702773
H128	H	0.305301	-0.346190	-0.345950
H129	H	0.816217	-0.312477	-1.052990
H130	H	0.694929	-0.191238	-0.451573
H131	H	0.661405	-0.801240	-0.346049
O132	O	0.686137	-0.182307	-0.946688
H133	H	0.659517	-0.205709	-0.921795
O134	O	0.061334	-0.182383	-0.182664
H135	H	0.033169	-0.159112	-0.159455
O136	O	0.858421	-0.354826	-0.809040
H137	H	0.881640	-0.378089	-0.780878
O138	O	0.199037	-0.355105	-0.354727
H139	H	0.227205	-0.378407	-0.377903
O140	O	0.061344	-0.321572	-0.321438
H141	H	0.086244	-0.298201	-0.348078
O142	O	0.858528	-0.694904	-0.149195
H143	H	0.852896	-0.652349	-0.154793
O144	O	0.824973	-0.443740	-0.182567
H145	H	0.851547	-0.418823	-0.205996
O146	O	-0.052147	-0.321581	-0.321448
H147	H	-0.094703	-0.315951	-0.315847
O148	O	0.858562	-0.808384	-0.149205
H149	H	0.881809	-0.780209	-0.125977
H150	H	0.816349	-1.052372	-0.191464
H151	H	0.661525	-0.157753	-0.801803
O152	O	0.686153	-0.182277	-1.060189
H153	H	0.691775	-0.187890	-1.102744
H154	H	0.305297	-0.157705	-0.158103
H155	H	0.816174	-0.312580	-0.550644
O156	O	-0.052156	-0.182388	-0.182686
H157	H	-0.023995	-0.159102	-0.159478
O158	O	0.199027	-0.148862	-0.149293
H159	H	0.227190	-0.125575	-0.126091
O160	O	0.450180	-0.182345	-0.182618
H161	H	0.478338	-0.159059	-0.159407
H162	H	0.816316	-0.953306	-0.191448
H163	H	0.694928	-0.191226	-0.550623
H164	H	0.661516	-0.157767	-0.702753
H165	H	0.816175	-0.550010	-0.191408
O166	O	0.563697	-0.321535	-0.321354
H167	H	0.535538	-0.344814	-0.344570
O168	O	0.686101	-1.059634	-0.321488
H169	H	0.662831	-1.031481	-0.344711
O170	O	0.686055	-0.946144	-0.321473
H171	H	0.662796	-0.974317	-0.344692
H172	H	0.661379	-0.702190	-0.346042
H173	H	0.556470	-0.191192	-0.191422
O174	O	0.685923	-0.557298	-0.321438
H175	H	0.662650	-0.529148	-0.344661
