data_functionalizedCrystal
_audit_creation_method	'MofGen! by Chris Wilmer'
_symmetry_space_group_name_H-M	'P1'
_symmetry_Int_Tables_number	1
_symmetry_cell_setting	triclinic
loop_
_symmetry_equiv_pos_as_xyz
  x,y,z
_cell_length_a	14.971506
_cell_length_b	14.048226
_cell_length_c	14.971507
_cell_angle_alpha	89.990763
_cell_angle_beta	96.377475
_cell_angle_gamma	90.001638
loop_
_atom_site_label
_atom_site_type_symbol
_atom_site_fract_x
_atom_site_fract_y
_atom_site_fract_z
O1	O	1.186938	0.079172	-0.116651
O2	O	1.686938	0.579172	0.383349
O3	O	0.926541	0.079173	-0.130591
O4	O	1.426541	0.579173	0.369409
O5	O	1.063709	0.079161	0.006577
O6	O	1.563709	0.579161	0.506577
O7	O	1.049770	0.079184	-0.253819
O8	O	1.549770	0.579184	0.246181
O9	O	1.063706	-0.079160	0.006589
O10	O	1.563706	0.420840	0.506589
O11	O	0.926538	-0.079148	-0.130580
O12	O	1.426538	0.420852	0.369420
O13	O	1.186935	-0.079149	-0.116640
O14	O	1.686935	0.420851	0.383360
Zn15	Zn	1.056736	-0.104286	-0.123608
Zn16	Zn	1.556736	0.395714	0.376392
Zn17	Zn	1.056740	0.104309	-0.123623
Zn18	Zn	1.556740	0.604309	0.376377
O19	O	1.049767	-0.079137	-0.253808
O20	O	1.549767	0.420863	0.246192
C21	C	0.893215	0.000012	-0.129959
C22	C	1.393215	0.500012	0.370041
C23	C	0.793919	0.000012	-0.128081
C24	C	1.293919	0.500012	0.371919
C25	C	0.355642	0.000029	-0.201498
C26	C	0.855642	0.500029	0.298502
C27	C	0.448942	0.000033	-0.203256
C28	C	0.948942	0.500033	0.296744
C29	C	0.506156	0.000021	-0.122664
C30	C	1.006156	0.500021	0.377336
C31	C	0.470065	0.000015	-0.040310
C32	C	0.970065	0.500015	0.459690
C33	C	0.376767	0.000018	-0.038553
C34	C	0.876767	0.500018	0.461447
C35	C	0.664529	0.000008	-0.043976
C36	C	1.164529	0.500008	0.456024
C37	C	0.757834	0.000003	-0.045733
C38	C	1.257834	0.500003	0.454267
C39	C	0.736704	0.000023	-0.208679
C40	C	1.236704	0.500023	0.291321
C41	C	0.643406	0.000025	-0.206922
C42	C	1.143406	0.500025	0.293078
C43	C	0.607321	0.000017	-0.124568
C44	C	1.107321	0.500017	0.375432
C45	C	1.063081	-0.000001	0.039907
C46	C	1.563081	0.499999	0.539907
C47	C	1.061203	-0.000003	0.139204
C48	C	1.561203	0.499997	0.639204
C49	C	1.220261	0.000013	-0.117272
C50	C	1.720261	0.500013	0.382728
C51	C	1.319557	0.000020	-0.119150
C52	C	1.819557	0.500020	0.380850
N53	N	1.056743	0.246670	-0.123626
N54	N	1.556743	0.746670	0.376374
N55	N	1.056740	-0.246646	-0.123597
N56	N	1.556740	0.253354	0.376403
C57	C	1.117594	0.296483	-0.063008
C58	C	1.617594	0.796483	0.436992
C59	C	1.117598	0.396141	-0.063005
C60	C	1.617598	0.896141	0.436995
C61	C	1.056745	0.445984	-0.123617
C62	C	1.556745	0.945984	0.376383
C63	C	0.995891	0.396164	-0.184242
C64	C	1.495891	0.896164	0.315758
C65	C	0.995893	0.296508	-0.184249
C66	C	1.495893	0.796508	0.315751
C67	C	0.995891	0.603878	-0.184223
C68	C	1.495891	1.103878	0.315777
C69	C	0.995889	0.703541	-0.184216
C70	C	1.495889	1.203541	0.315784
C71	C	1.117597	0.703511	-0.062980
C72	C	1.617597	1.203511	0.437020
C73	C	1.117598	0.603855	-0.062986
C74	C	1.617598	1.103855	0.437014
C75	C	1.056743	0.554042	-0.123610
C76	C	1.556743	1.054042	0.376390
C77	C	1.134619	-0.000034	0.577481
C78	C	1.634619	0.499966	1.077481
C79	C	1.136377	-0.000034	0.484180
C80	C	1.636377	0.499966	0.984180
C81	C	1.055785	-0.000027	0.426966
C82	C	1.555785	0.499973	0.926966
C83	C	0.973431	-0.000029	0.463057
C84	C	1.473431	0.499971	0.963057
C85	C	0.971674	-0.000036	0.556355
C86	C	1.471674	0.499964	1.056355
C87	C	0.977098	-0.000012	0.268594
C88	C	1.477098	0.499988	0.768594
C89	C	0.978855	-0.000003	0.175288
C90	C	1.478855	0.499997	0.675288
C91	C	1.141801	-0.000010	0.196418
C92	C	1.641801	0.499990	0.696418
C93	C	1.140044	-0.000017	0.289717
C94	C	1.640044	0.499983	0.789717
C95	C	1.057689	-0.000018	0.325801
C96	C	1.557689	0.499982	0.825801
C97	C	1.050395	0.000009	0.712862
C98	C	1.550395	0.500009	1.212862
C99	C	1.052271	-0.000034	0.613565
C100	C	1.552271	0.499966	1.113565
H101	H	0.516657	0.000012	0.025309
H102	H	1.016657	0.500012	0.525309
H103	H	0.478317	0.000049	-0.270311
H104	H	0.978317	0.500049	0.229689
H105	H	0.804416	0.000002	0.019892
H106	H	1.304416	0.500002	0.519892
F107	F	0.582516	0.000032	-0.292697
F108	F	1.082516	0.500032	0.207303
F109	F	0.931128	0.243495	-0.248770
F110	F	1.431128	0.743495	0.251230
H111	H	1.208857	0.000079	0.167035
H112	H	1.708857	0.500079	0.667035
F113	F	0.775108	0.000023	-0.296328
F114	F	1.275108	0.500023	0.203672
F115	F	0.626128	-0.000004	0.043675
F116	F	1.126128	0.499996	0.543675
F117	F	1.220397	-0.000035	0.638365
F118	F	1.720397	0.499965	1.138365
F119	F	0.884028	-0.000041	0.594758
F120	F	1.384028	0.499959	1.094758
F121	F	1.182364	0.449155	0.001510
F122	F	1.682364	0.949155	0.501510
H123	H	0.309064	0.000031	-0.267125
H124	H	0.809064	0.500031	0.232875
H125	H	0.913230	-0.000003	0.128706
H126	H	1.413230	0.499997	0.628706
F127	F	1.224023	-0.000016	0.445781
F128	F	1.724023	0.499984	0.945781
F129	F	0.338364	0.000009	0.049093
F130	F	0.838364	0.500009	0.549093
H131	H	1.167144	0.563273	-0.013627
H132	H	1.667144	1.063273	0.486373
F133	F	1.182359	0.243445	0.001509
F134	F	1.682359	0.743445	0.501509
H135	H	1.167148	0.744074	-0.013618
H136	H	1.667148	1.244074	0.486382
F137	F	1.225818	-0.000018	0.350607
F138	F	1.725818	0.499982	0.850607
H139	H	0.910036	-0.000026	0.297969
H140	H	1.410036	0.499974	0.797969
H141	H	0.946337	0.744118	-0.233573
H142	H	1.446337	1.244118	0.266427
F143	F	0.931124	0.550868	-0.248750
F144	F	1.431124	1.050868	0.251250
H145	H	0.946347	0.436752	-0.233598
H146	H	1.446347	0.936752	0.266402
F147	F	0.887659	-0.000026	0.402163
F148	F	1.387659	0.499974	0.902163
