data_functionalizedCrystal
_audit_creation_method	'MofGen! by Chris Wilmer'
_symmetry_space_group_name_H-M	'P1'
_symmetry_Int_Tables_number	1
_symmetry_cell_setting	triclinic
loop_
_symmetry_equiv_pos_as_xyz
  x,y,z
_cell_length_a	19.188905
_cell_length_b	19.188924
_cell_length_c	18.266242
_cell_angle_alpha	89.991576
_cell_angle_beta	89.983837
_cell_angle_gamma	83.138260
loop_
_atom_site_label
_atom_site_type_symbol
_atom_site_fract_x
_atom_site_fract_y
_atom_site_fract_z
O1	O	0.926158	0.087086	-0.061005
O2	O	0.722844	0.098838	-0.060980
O3	O	0.830371	-0.008694	-0.060985
O4	O	0.818632	0.194619	-0.061001
O5	O	0.830353	-0.008700	0.060777
O6	O	0.722826	0.098833	0.060782
O7	O	0.926140	0.087080	0.060757
Zn8	Zn	0.824480	0.092956	0.080102
Zn9	Zn	0.824504	0.092963	-0.080325
O10	O	0.818613	0.194613	0.060761
C11	C	0.696824	0.098458	-0.000096
C12	C	0.619318	0.097324	-0.000086
C13	C	0.582937	0.096783	-0.066461
C14	C	0.510113	0.095710	-0.066470
C15	C	0.473676	0.095164	-0.000101
C16	C	0.510066	0.095710	0.066282
C17	C	0.582887	0.096790	0.066290
N18	N	0.364649	0.053733	0.049295
N19	N	0.295472	0.052706	0.049283
C20	C	0.254269	0.091911	-0.000118
N21	N	0.284858	0.132175	-0.049519
N22	N	0.354041	0.133199	-0.049510
C23	C	0.394713	0.093993	-0.000101
C24	C	0.138924	0.090207	-0.066507
C25	C	0.066098	0.089139	-0.066513
C26	C	0.066054	0.089132	0.066241
C27	C	0.138877	0.090208	0.066245
C28	C	0.175308	0.090742	-0.000131
C29	C	0.829982	-0.034708	-0.000103
C30	C	0.828844	-0.112213	-0.000101
C31	C	0.828322	-0.148609	-0.066473
C32	C	0.827242	-0.221431	-0.066479
C33	C	0.826698	-0.257857	-0.000108
C34	C	0.827216	-0.221452	0.066273
C35	C	0.828289	-0.148630	0.066277
N36	N	0.864739	-0.377526	0.049286
N37	N	0.863721	-0.446704	0.049278
C38	C	0.823464	-0.477266	-0.000115
N39	N	0.784271	-0.436038	-0.049510
N40	N	0.785292	-0.366853	-0.049504
C41	C	0.825534	-0.336821	-0.000104
C42	C	0.821770	-0.592624	-0.066498
C43	C	0.820686	-0.665448	-0.066500
C44	C	0.820666	-0.665468	0.066254
C45	C	0.821744	-0.592645	0.066255
C46	C	0.822299	-0.556228	-0.000123
C47	C	0.952160	0.087461	-0.000129
C48	C	1.029666	0.088594	-0.000143
C49	C	0.819002	0.220627	-0.000122
C50	C	0.820141	0.298132	-0.000129
N51	N	0.824469	0.092950	0.189589
N52	N	0.824521	0.092963	-0.189812
C53	C	0.872097	0.045358	0.227896
C54	C	0.872102	0.045355	0.304541
C55	C	0.824484	0.092956	0.342876
C56	C	0.776847	0.140552	0.304559
C57	C	0.776839	0.140549	0.227916
N58	N	0.815407	0.154764	0.463204
N59	N	0.815419	0.154765	0.536012
C60	C	0.824504	0.092966	0.573798
N61	N	0.833591	0.031165	0.536025
N62	N	0.833583	0.031165	0.463211
C63	C	0.824487	0.092964	0.425983
C64	C	0.872140	0.045366	0.695212
C65	C	0.872139	0.045362	0.771858
C66	C	0.776888	0.140565	0.771876
C67	C	0.776885	0.140563	0.695231
C68	C	0.824515	0.092964	0.656904
H69	H	0.036477	0.088702	-0.120565
H70	H	0.910921	0.006606	0.664005
C71	C	0.923890	-0.006354	0.346010
C72	C	0.965607	-0.048031	0.296040
C73	C	1.013325	-0.095669	0.334213
H74	H	0.898948	-0.035420	0.375927
H75	H	0.952915	0.018672	0.375878
H76	H	0.936586	-0.073056	0.266185
H77	H	0.990564	-0.018985	0.266123
H78	H	1.042350	-0.070642	0.364081
H79	H	0.988378	-0.124729	0.364128
H80	H	1.041640	-0.123948	0.300314
C81	C	0.725221	0.192358	0.813394
C82	C	0.736314	0.260940	0.794720
C83	C	0.688722	0.308669	0.832949
H84	H	0.731995	0.185641	0.864538
H85	H	0.678634	0.184936	0.800837
H86	H	0.782890	0.268360	0.807282
H87	H	0.729534	0.267680	0.743583
H88	H	0.642135	0.301247	0.820392
H89	H	0.695500	0.301946	0.884091
H90	H	0.696238	0.355207	0.820279
C91	C	0.923660	-0.006326	0.186114
C92	C	0.966311	0.030581	0.141942
C93	C	1.013723	-0.017058	0.103390
H94	H	0.898482	-0.035218	0.156266
H95	H	0.952080	-0.034780	0.219780
H96	H	0.937895	0.059023	0.108281
H97	H	0.991505	0.059470	0.171772
H98	H	1.042143	-0.045512	0.137055
H99	H	0.988539	-0.045947	0.073546
H100	H	1.042672	0.007976	0.073420
C101	C	0.828879	-0.109191	-0.138615
C102	C	0.828172	-0.156655	-0.196743
C103	C	0.828673	-0.120366	-0.263211
H104	H	0.869992	-0.086230	-0.141483
H105	H	0.788573	-0.075344	-0.141409
H106	H	0.868473	-0.190490	-0.193951
H107	H	0.787061	-0.179618	-0.193900
H108	H	0.788367	-0.086519	-0.266004
H109	H	0.869787	-0.097407	-0.266071
H110	H	0.828186	-0.152564	-0.302658
H111	H	0.822218	-0.562972	-0.120546
H112	H	0.826813	-0.251070	-0.120529
H113	H	0.612594	0.097218	-0.120509
C114	C	0.470732	0.095088	-0.138614
C115	C	0.518225	0.095774	-0.196740
C116	C	0.481976	0.095193	-0.263208
H117	H	0.436866	0.135362	-0.141483
H118	H	0.447800	0.053944	-0.141408
H119	H	0.541146	0.136913	-0.193947
H120	H	0.552092	0.055503	-0.193895
H121	H	0.459044	0.054049	-0.266003
H122	H	0.448112	0.135468	-0.266070
H123	H	0.514196	0.095652	-0.302655
H124	H	0.820218	-0.695124	0.120294
C125	C	0.826656	-0.261127	0.138258
C126	C	0.825623	-0.332695	0.124050
C127	C	0.825112	-0.369264	0.190346
H128	H	0.786129	-0.243829	0.165587
H129	H	0.867548	-0.254692	0.165535
H130	H	0.784736	-0.339125	0.096784
H131	H	0.866147	-0.350013	0.096732
H132	H	0.866004	-0.362830	0.217624
H133	H	0.784584	-0.351961	0.217670
H134	H	0.824418	-0.417827	0.180715
H135	H	0.738075	0.179308	0.335776
H136	H	0.828710	-0.118996	0.120327
C137	C	0.725293	0.192280	0.653544
C138	C	0.762349	0.234912	0.609508
C139	C	0.714842	0.282558	0.571090
H140	H	0.696915	0.220698	0.687267
H141	H	0.696313	0.167259	0.623618
H142	H	0.791316	0.259931	0.639432
H143	H	0.790724	0.206514	0.575771
H144	H	0.685863	0.257537	0.541164
H145	H	0.686468	0.310971	0.604818
H146	H	0.739978	0.311485	0.541202
C147	C	0.725098	0.192306	0.186453
C148	C	0.683405	0.234004	0.236426
C149	C	0.635741	0.281697	0.198256
H150	H	0.696046	0.167345	0.156566
H151	H	0.750103	0.221345	0.156557
H152	H	0.658401	0.204968	0.266309
H153	H	0.712438	0.258980	0.266315
H154	H	0.660746	0.310737	0.168359
H155	H	0.606694	0.256731	0.168369
H156	H	0.607451	0.309999	0.232156
H157	H	0.036387	0.088692	0.120280
H158	H	0.820258	-0.695080	-0.120551
H159	H	0.822174	-0.563012	0.120302
H160	H	0.612509	0.097231	0.120341
H161	H	0.168586	0.090650	-0.120554
C162	C	0.470389	0.095077	0.138265
C163	C	0.398830	0.093994	0.124053
C164	C	0.362260	0.093405	0.190348
H165	H	0.476771	0.135948	0.165590
H166	H	0.487735	0.054530	0.165547
H167	H	0.381489	0.134538	0.096783
H168	H	0.392427	0.053127	0.096739
H169	H	0.379606	0.052858	0.217630
H170	H	0.368647	0.134276	0.217668
H171	H	0.313704	0.092664	0.180714
C172	C	0.178262	0.090749	0.138388
C173	C	0.130771	0.090024	0.196511
C174	C	0.167028	0.090516	0.262982
H175	H	0.201216	0.131865	0.141251
H176	H	0.212113	0.050447	0.141191
H177	H	0.096933	0.130322	0.193709
H178	H	0.107815	0.048911	0.193671
H179	H	0.200878	0.050213	0.265785
H180	H	0.189980	0.131632	0.265838
H181	H	0.134812	0.090017	0.302426
C182	C	0.923886	-0.006202	0.813547
C183	C	0.966494	0.030888	0.857541
C184	C	1.014165	-0.016589	0.895964
H185	H	0.952319	-0.034568	0.779827
H186	H	0.898885	-0.035195	0.843502
H187	H	0.991494	0.059869	0.827589
H188	H	0.938081	0.059252	0.891275
H189	H	0.989164	-0.045582	0.925919
H190	H	1.042593	-0.044953	0.862238
H191	H	1.043076	0.008569	0.925823
