data_functionalizedCrystal
_audit_creation_method	'MofGen! by Chris Wilmer'
_symmetry_space_group_name_H-M	'P1'
_symmetry_Int_Tables_number	1
_symmetry_cell_setting	triclinic
loop_
_symmetry_equiv_pos_as_xyz
  x,y,z
_cell_length_a	18.878441
_cell_length_b	14.560438
_cell_length_c	14.560438
_cell_angle_alpha	90.000890
_cell_angle_beta	60.001476
_cell_angle_gamma	60.000373
loop_
_atom_site_label
_atom_site_type_symbol
_atom_site_fract_x
_atom_site_fract_y
_atom_site_fract_z
Zr1	Zr	0.775356	0.884742	-0.120487
O2	O	0.923130	0.738096	-0.267131
O3	O	0.627580	0.929698	-0.075536
O4	O	0.775355	0.929699	-0.267133
O5	O	0.775356	0.738093	0.075604
O6	O	0.775357	1.080837	-0.267130
O7	O	0.775355	0.738095	-0.075534
O8	O	0.511014	1.080836	0.075602
O9	O	1.039699	0.738094	-0.267128
O10	O	0.688365	1.061663	-0.056359
O11	O	0.688364	0.948868	0.056432
O12	O	0.862351	0.948869	-0.169149
O13	O	0.862350	0.836074	-0.056357
Zr14	Zr	0.775362	1.125786	0.120566
Zr15	Zr	0.775359	1.125790	-0.120483
Zr16	Zr	0.775358	0.884738	0.120562
Zr17	Zr	0.961271	0.884739	-0.120481
Zr18	Zr	0.589447	1.125789	0.120560
O19	O	0.923138	1.080829	0.075614
O20	O	0.923134	1.080835	-0.267126
O21	O	0.923133	0.738090	0.075609
O22	O	0.627588	1.272432	0.267210
O23	O	0.627584	1.272438	-0.075530
O24	O	0.627583	0.929693	0.267204
O25	O	0.775362	1.272435	-0.075526
O26	O	0.775363	1.080829	0.267211
O27	O	0.775361	0.929691	0.267209
O28	O	0.775363	1.272433	0.075613
O29	O	1.039702	0.929695	-0.267125
O30	O	0.511016	1.080833	0.267203
O31	O	0.511018	1.272434	0.267206
O32	O	0.511017	1.272437	0.075605
O33	O	1.039701	0.738091	-0.075526
O34	O	1.039704	0.929692	-0.075523
O35	O	0.688367	1.061659	0.169227
O36	O	0.688367	1.174454	0.056436
O37	O	0.862353	1.061660	-0.056354
O38	O	0.862353	0.948865	0.056438
C39	C	0.542808	1.005268	0.000032
C40	C	0.463883	1.005269	0.000030
C41	C	0.426803	1.064144	-0.058847
C42	C	0.352639	1.064148	-0.058839
C43	C	0.315560	1.005270	0.000041
C44	C	0.352643	0.946393	0.058925
C45	C	0.426800	0.946396	0.058923
C46	C	0.198076	0.946389	0.058924
C47	C	0.123914	0.946384	0.058926
C48	C	0.123915	1.064141	-0.058837
C49	C	0.198072	1.064144	-0.058839
C50	C	0.235151	1.005265	0.000043
C51	C	0.775355	0.703750	0.000034
C52	C	0.775354	0.601418	0.000033
C53	C	0.684536	0.612217	0.058908
C54	C	0.684541	0.516062	0.058918
C55	C	0.866188	0.398313	-0.058831
C56	C	0.866183	0.494467	-0.058834
C57	C	0.579663	0.680198	0.126885
C58	C	0.579668	0.584043	0.126895
C59	C	1.007910	1.005260	0.000046
C60	C	1.086835	1.005259	0.000049
C61	C	0.775356	1.005269	-0.301476
C62	C	0.775355	1.005270	-0.403807
C63	C	0.775363	1.306778	0.000044
C64	C	0.775364	1.409110	0.000046
C65	C	0.775363	0.921994	-0.548040
C66	C	0.775355	0.922002	-0.451883
C67	C	0.775352	1.088542	-0.451886
C68	C	0.775352	1.088538	-0.548036
C69	C	0.775369	0.825840	-0.548041
C70	C	0.775361	0.825848	-0.451884
C71	C	0.775362	1.005259	0.301554
C72	C	0.775363	1.005258	0.403886
C73	C	0.542812	1.306782	0.000037
C74	C	0.463888	1.409115	0.000037
C75	C	0.542811	1.005263	0.301547
C76	C	0.463887	1.005263	0.403876
C77	C	0.542815	1.306777	0.301552
C78	C	0.463892	1.409108	0.403883
C79	C	1.007903	0.703750	-0.301474
C80	C	1.086826	0.601420	-0.403804
C81	C	1.007906	0.703746	0.000041
C82	C	1.086830	0.601413	0.000042
C83	C	1.007907	1.005265	-0.301469
C84	C	1.086831	1.005265	-0.403798
C85	C	0.426823	1.398295	-0.058852
C86	C	0.352675	1.494438	-0.058875
C87	C	0.315589	1.601400	-0.000003
C88	C	0.352662	1.612217	0.058887
C89	C	0.426813	1.516075	0.058903
C90	C	0.426824	1.064138	0.510819
C91	C	0.352676	1.064134	0.606977
C92	C	0.315588	1.005260	0.596190
C93	C	0.352657	0.946377	0.489237
C94	C	0.426809	0.946375	0.393081
C95	C	0.426829	1.516052	0.393063
C96	C	0.352682	1.612212	0.489204
C97	C	0.315595	1.601426	0.596165
C98	C	0.352666	1.494471	0.606983
C99	C	0.426816	1.398314	0.510842
C100	C	1.123898	0.494476	-0.392984
C101	C	1.198067	0.398316	-0.489125
C102	C	1.235158	0.409102	-0.596086
C103	C	1.198083	0.516057	-0.606904
C104	C	1.123920	0.612214	-0.510764
C105	C	1.123903	0.612233	0.058920
C106	C	1.198071	0.516090	0.058917
C107	C	1.235159	0.409128	0.000041
C108	C	1.198083	0.398311	-0.058844
C109	C	1.123922	0.494453	-0.058847
C110	C	1.123897	1.064151	-0.392975
C111	C	1.198045	1.064173	-0.489115
C112	C	1.235131	1.005302	-0.596076
C113	C	1.198059	0.946415	-0.606897
C114	C	1.123907	0.946400	-0.510758
H115	H	0.093721	1.112082	-0.106781
H116	H	0.547123	0.575325	0.213951
H117	H	1.295511	1.005323	-0.674350
H118	H	0.457018	1.311211	-0.106806
H119	H	0.322500	1.485609	-0.106830
H120	H	0.093728	0.898439	0.106870
H121	H	0.322449	1.112090	-0.106780
H122	H	0.940138	0.311223	-0.106758
H123	H	0.255217	1.679733	0.674439
H124	H	0.255209	1.005270	0.674496
H125	H	0.255210	1.679675	-0.000024
H126	H	1.295546	0.330852	0.000053
H127	H	0.705647	0.834120	-0.528935
H128	H	0.539410	0.584038	0.089067
H129	H	1.228266	0.898484	-0.693998
H130	H	1.093711	0.699317	0.106871
H131	H	0.322455	1.699317	0.106819
H132	H	0.703420	0.842652	-0.375426
H133	H	0.775342	1.156348	-0.412730
H134	H	1.228293	0.311210	-0.106779
H135	H	1.093712	1.112090	-0.305890
H136	H	0.322448	0.898443	0.480470
H137	H	1.228241	0.311239	-0.480295
H138	H	1.093702	0.485673	-0.305900
H139	H	1.093739	0.485628	-0.106789
H140	H	0.228267	1.112080	-0.106790
H141	H	1.228222	1.112125	-0.480282
H142	H	1.093736	0.898443	-0.519586
H143	H	1.093737	0.699290	-0.519587
H144	H	0.456982	1.524900	0.106864
H145	H	0.775340	1.156346	-0.587169
H146	H	0.456992	1.112084	-0.106799
H147	H	0.847308	0.749370	-0.624497
H148	H	0.845082	0.743729	-0.470984
H149	H	0.457014	1.112081	0.519624
H150	H	0.228265	0.898441	0.106871
H151	H	0.322507	1.699290	0.480376
H152	H	0.322503	1.112087	0.694054
H153	H	0.456975	0.898436	0.306007
H154	H	0.457014	1.524855	0.305979
H155	H	0.322458	1.485706	0.694083
H156	H	0.456983	1.311239	0.519668
H157	H	0.456992	0.898451	0.106863
H158	H	0.322442	0.898460	0.106873
H159	H	1.228245	0.524919	0.106873
H160	H	1.295546	0.330795	-0.674360
H161	H	0.539464	0.732355	0.216902
H162	H	0.940135	0.485665	-0.106771
H163	H	0.547127	0.731107	0.082019
H164	H	1.228293	0.524825	-0.694003
