data_functionalizedCrystal
_audit_creation_method	'MofGen! by Chris Wilmer'
_symmetry_space_group_name_H-M	'P1'
_symmetry_Int_Tables_number	1
_symmetry_cell_setting	triclinic
loop_
_symmetry_equiv_pos_as_xyz
  x,y,z
_cell_length_a	12.503572
_cell_length_b	11.026607
_cell_length_c	11.026607
_cell_angle_alpha	108.586017
_cell_angle_beta	94.298318
_cell_angle_gamma	85.706536
loop_
_atom_site_label
_atom_site_type_symbol
_atom_site_fract_x
_atom_site_fract_y
_atom_site_fract_z
O1	O	0.089318	-1.732471	-0.527857
O2	O	0.589318	-1.232471	-0.027857
O3	O	0.089320	-1.365891	-0.467093
O4	O	0.589320	-0.865891	0.032907
O5	O	0.089315	-1.518799	-0.314185
O6	O	0.589315	-1.018799	0.185815
O7	O	0.089323	-1.579563	-0.680765
O8	O	0.589323	-1.079563	-0.180765
O9	O	-0.089326	-1.507305	-0.325709
O10	O	0.410674	-1.007305	0.174291
O11	O	-0.089322	-1.354397	-0.478617
O12	O	0.410678	-0.854397	0.021383
O13	O	-0.089323	-1.720977	-0.539381
O14	O	0.410677	-1.220977	-0.039381
Cu15	Cu	-0.105634	-1.536638	-0.510051
Cu16	Cu	0.394366	-1.036638	-0.010051
Cu17	Cu	0.105630	-1.550231	-0.496423
Cu18	Cu	0.605630	-1.050231	0.003577
O19	O	-0.089319	-1.568069	-0.692289
O20	O	0.410681	-1.068069	-0.192289
C21	C	-0.000001	-1.312485	-0.461645
C22	C	0.499999	-0.812485	0.038355
C23	C	-0.000000	-1.170471	-0.428228
C24	C	0.500000	-0.670471	0.071772
N25	N	-0.254226	-1.527086	-0.519638
N26	N	0.245774	-1.027086	-0.019638
C27	C	-0.000004	-1.501842	-0.272288
C28	C	0.499996	-1.001842	0.227712
C29	C	-0.000000	-1.468426	-0.130273
C30	C	0.500000	-0.968426	0.369727
C31	C	-0.473341	-1.513037	-0.533751
C32	C	0.026659	-1.013037	-0.033751
C33	C	-0.526670	-1.573836	-0.472718
C34	C	-0.026670	-1.073836	0.027282
C35	C	-0.648593	-1.566019	-0.480571
C36	C	-0.148593	-1.066019	0.019429
C37	C	-0.351407	-1.520853	-0.525900
C38	C	0.148593	-1.020853	-0.025900
N39	N	0.254222	-1.559790	-0.486828
N40	N	0.754222	-1.059790	0.013172
C41	C	-0.000001	-1.774384	-0.544829
C42	C	0.499999	-1.274384	-0.044829
C43	C	0.000006	-1.916398	-0.578245
C44	C	0.500006	-1.416398	-0.078245
C45	C	0.000003	-1.116822	-0.520498
C46	C	0.500003	-0.616822	-0.020498
C47	C	0.000003	-0.970043	-0.485962
C48	C	0.500003	-0.470043	0.014038
C49	C	0.000003	-1.585026	-0.734186
C50	C	0.500003	-1.085026	-0.234186
C51	C	0.000006	-1.618443	-0.876200
C52	C	0.500006	-1.118443	-0.376200
C53	C	0.000001	-1.560695	-0.076624
C54	C	0.500001	-1.060695	0.423376
C55	C	0.000005	-1.526160	0.070155
C56	C	0.500005	-1.026160	0.570155
H57	H	-0.480759	-1.631759	-0.414570
H58	H	0.019241	-1.131759	0.085430
H59	H	0.000086	-1.723019	0.061078
H60	H	0.500086	-1.223019	0.561078
N61	N	-0.534153	-1.436331	-0.610782
N62	N	-0.034153	-0.936331	-0.110782
H63	H	-0.514649	-1.472149	-0.703194
H64	H	-0.014649	-0.972149	-0.203194
H65	H	-0.514644	-1.343913	-0.575118
H66	H	-0.014644	-0.843913	-0.075118
N67	N	-0.000002	-1.199902	-0.659008
N68	N	0.499998	-0.699902	-0.159008
H69	H	-0.000003	-1.292980	-0.664046
H70	H	0.499997	-0.792980	-0.164046
H71	H	0.066225	-1.185350	-0.698538
H72	H	0.566225	-0.685350	-0.198538
N73	N	0.000011	-1.329916	-0.047191
N74	N	0.500011	-0.829916	0.452809
H75	H	0.000015	-1.324879	0.045886
H76	H	0.500015	-0.824879	0.545886
H77	H	-0.066214	-1.281851	-0.070271
H78	H	0.433786	-0.781851	0.429729
H79	H	0.000025	-1.107739	-0.323664
H80	H	0.500025	-0.607739	0.176336
N81	N	0.000016	-1.387644	0.153233
N82	N	0.500016	-0.887644	0.653233
H83	H	0.000020	-1.382606	0.246310
H84	H	0.500020	-0.882606	0.746310
H85	H	-0.066209	-1.339578	0.130153
H86	H	0.433791	-0.839578	0.630153
N87	N	-0.000013	-0.886965	-0.347446
N88	N	0.499987	-0.386965	0.152554
H89	H	-0.000015	-0.793887	-0.342409
H90	H	0.499985	-0.293887	0.157591
H91	H	0.066209	-0.910035	-0.299366
H92	H	0.566209	-0.410035	0.200634
H93	H	0.000001	-0.979125	-0.682816
H94	H	0.500001	-0.479125	-0.182816
N95	N	-0.000010	-1.699204	-0.159709
N96	N	0.499990	-1.199204	0.340291
H97	H	-0.066235	-1.738816	-0.145262
H98	H	0.433765	-1.238816	0.354738
H99	H	0.066254	-1.747250	-0.136694
H100	H	0.566254	-1.247250	0.363306
