data_functionalizedCrystal
_audit_creation_method	'MofGen! by Chris Wilmer'
_symmetry_space_group_name_H-M	'P1'
_symmetry_Int_Tables_number	1
_symmetry_cell_setting	triclinic
loop_
_symmetry_equiv_pos_as_xyz
  x,y,z
_cell_length_a	25.639243
_cell_length_b	25.639239
_cell_length_c	21.395355
_cell_angle_alpha	89.980666
_cell_angle_beta	89.972891
_cell_angle_gamma	90.041410
loop_
_atom_site_label
_atom_site_type_symbol
_atom_site_fract_x
_atom_site_fract_y
_atom_site_fract_z
Zn1	Zn	0.799283	-0.208173	-0.354301
Zn2	Zn	1.132616	0.125160	-0.020967
Zn3	Zn	1.465949	0.458493	0.312366
Zn4	Zn	0.799189	-0.295593	-0.249522
Zn5	Zn	1.132522	0.037740	0.083812
Zn6	Zn	1.465856	0.371074	0.417145
Zn7	Zn	0.711842	-0.208178	-0.249533
Zn8	Zn	1.045175	0.125156	0.083801
Zn9	Zn	1.378509	0.458489	0.417134
Zn10	Zn	0.711804	-0.295584	-0.354257
Zn11	Zn	1.045137	0.037750	-0.020924
Zn12	Zn	1.378471	0.371083	0.312410
O13	O	0.755529	-0.251882	-0.301903
O14	O	1.088863	0.081451	0.031430
O15	O	1.422196	0.414785	0.364764
O16	O	0.872435	-0.219772	-0.340415
O17	O	1.205769	0.113561	-0.007082
O18	O	1.539102	0.446895	0.326252
O19	O	0.787579	-0.284003	-0.161845
O20	O	1.120912	0.049330	0.171488
O21	O	1.454246	0.382664	0.504822
O22	O	0.723496	-0.135012	-0.263453
O23	O	1.056829	0.198322	0.069880
O24	O	1.390163	0.531655	0.403214
O25	O	0.872367	-0.283999	-0.263434
O26	O	1.205700	0.049335	0.069899
O27	O	1.539033	0.382668	0.403232
O28	O	0.787738	-0.135009	-0.340426
O29	O	1.121072	0.198325	-0.007092
O30	O	1.454405	0.531658	0.326241
O31	O	0.723405	-0.219779	-0.161853
O32	O	1.056739	0.113554	0.171480
O33	O	1.390072	0.446888	0.504813
O34	O	0.638672	-0.219770	-0.263411
O35	O	0.972005	0.113563	0.069922
O36	O	1.305338	0.446897	0.403256
O37	O	0.723432	-0.283983	-0.441941
O38	O	1.056765	0.049350	-0.108607
O39	O	1.390098	0.382684	0.224726
O40	O	0.638644	-0.283987	-0.340352
O41	O	0.971977	0.049346	-0.007018
O42	O	1.305311	0.382680	0.326315
O43	O	0.787702	-0.219763	-0.441973
O44	O	1.121035	0.113570	-0.108639
O45	O	1.454368	0.446904	0.224694
O46	O	0.787542	-0.368757	-0.263392
O47	O	1.120876	-0.035424	0.069941
O48	O	1.454209	0.297910	0.403274
O49	O	0.723341	-0.368750	-0.340341
O50	O	1.056674	-0.035417	-0.007008
O51	O	1.390007	0.297916	0.326326
C52	C	0.619687	-0.251878	-0.301878
C53	C	0.953020	0.081455	0.031455
C54	C	1.286354	0.414788	0.364789
C55	C	0.561573	-0.251889	-0.301882
C56	C	0.894906	0.081444	0.031451
C57	C	1.228239	0.414777	0.364784
C58	C	0.201240	-0.218492	-0.342054
C59	C	0.534573	0.114842	-0.008720
C60	C	0.867907	0.448175	0.324613
C61	C	0.146636	-0.218491	-0.342058
C62	C	0.479969	0.114842	-0.008724
C63	C	0.813302	0.448176	0.324609
O64	O	0.118425	-0.190085	-0.376182
O65	O	0.451758	0.143248	-0.042848
O66	O	0.785091	0.476581	0.290485
N67	N	0.119290	-0.251880	-0.301920
N68	N	0.452624	0.081453	0.031413
N69	N	0.785957	0.414786	0.364746
C70	C	0.146552	-0.285269	-0.261772
C71	C	0.479885	0.048065	0.071561
C72	C	0.813219	0.381398	0.404895
O73	O	0.118279	-0.313668	-0.227632
O74	O	0.451612	0.019665	0.105701
O75	O	0.784946	0.352998	0.439035
C76	C	0.201155	-0.285266	-0.261765
C77	C	0.534489	0.048067	0.071568
C78	C	0.867822	0.381401	0.404901
C79	C	0.228498	-0.251878	-0.301910
C80	C	0.561831	0.081455	0.031424
C81	C	0.895165	0.414788	0.364757
C82	C	0.228582	-0.185106	-0.382194
C83	C	0.561916	0.148227	-0.048861
C84	C	0.895249	0.481561	0.284472
C85	C	0.283183	-0.185107	-0.382191
C86	C	0.616516	0.148226	-0.048858
C87	C	0.949850	0.481559	0.284476
C88	C	0.310441	-0.218494	-0.342047
C89	C	0.643774	0.114839	-0.008714
C90	C	0.977108	0.448173	0.324619
C91	C	0.283098	-0.251880	-0.301907
C92	C	0.616432	0.081454	0.031427
C93	C	0.949765	0.414787	0.364760
C94	C	0.228416	-0.318651	-0.221614
C95	C	0.561750	0.014682	0.111719
C96	C	0.895083	0.348016	0.445052
C97	C	0.283023	-0.318645	-0.221611
C98	C	0.616357	0.014688	0.111722
C99	C	0.949690	0.348021	0.445056
C100	C	0.310366	-0.285258	-0.261755
C101	C	0.643699	0.048076	0.071578
C102	C	0.977032	0.381409	0.404911
C103	C	0.364957	-0.285267	-0.261759
C104	C	0.698290	0.048066	0.071574
C105	C	1.031624	0.381399	0.404907
N106	N	0.392302	-0.251878	-0.301897
N107	N	0.725636	0.081455	0.031437
N108	N	1.058969	0.414788	0.364770
C109	C	0.365044	-0.218491	-0.342041
C110	C	0.698378	0.114842	-0.008707
C111	C	1.031711	0.448175	0.324626
C112	C	0.031882	-0.285271	-0.261788
C113	C	0.365215	0.048063	0.071545
C114	C	0.698548	0.381396	0.404879
C115	C	-0.022721	-0.285276	-0.261797
C116	C	0.310613	0.048057	0.071536
C117	C	0.643946	0.381390	0.404869
C118	C	-0.022634	-0.218498	-0.342082
C119	C	0.310700	0.114835	-0.008749
C120	C	0.644033	0.448169	0.324584
C121	C	0.031970	-0.218496	-0.342076
C122	C	0.365303	0.114838	-0.008742
C123	C	0.698636	0.448171	0.324591
C124	C	0.059227	-0.251882	-0.301925
C125	C	0.392560	0.081452	0.031408
C126	C	0.725893	0.414785	0.364741
C127	C	0.479709	-0.218497	-0.342031
C128	C	0.813043	0.114836	-0.008698
C129	C	1.146376	0.448170	0.324635
C130	C	0.534315	-0.218503	-0.342026
C131	C	0.867648	0.114831	-0.008693
C132	C	1.200981	0.448164	0.324640
C133	C	0.534223	-0.285279	-0.261739
C134	C	0.867556	0.048054	0.071594
C135	C	1.200889	0.381388	0.404927
C136	C	0.479622	-0.285275	-0.261746
C137	C	0.812956	0.048058	0.071587
C138	C	1.146289	0.381391	0.404920
C139	C	0.452367	-0.251880	-0.301894
C140	C	0.785700	0.081453	0.031439
C141	C	1.119034	0.414787	0.364772
O142	O	0.393203	-0.313657	-0.227651
O143	O	0.726536	0.019676	0.105682
O144	O	1.059869	0.353009	0.439016
O145	O	0.393324	-0.190092	-0.376169
O146	O	0.726658	0.143242	-0.042836
O147	O	1.059991	0.476575	0.290498
C148	C	0.755441	-0.387725	-0.301874
C149	C	1.088775	-0.054391	0.031459
C150	C	1.422108	0.278942	0.364792
C151	C	0.755452	-0.445839	-0.301883
C152	C	1.088785	-0.112505	0.031450
C153	C	1.422118	0.220828	0.364784
C154	C	0.789046	-0.806193	-0.261904
C155	C	1.122380	-0.472859	0.071429
C156	C	1.455713	-0.139526	0.404763
C157	C	0.789067	-0.860797	-0.261912
C158	C	1.122400	-0.527464	0.071421
C159	C	1.455733	-0.194130	0.404754
O160	O	0.817539	-0.889026	-0.227889
O161	O	1.150872	-0.555693	0.105444
O162	O	1.484205	-0.222359	0.438777
N163	N	0.755621	-0.888121	-0.301945
N164	N	1.088955	-0.554788	0.031389
N165	N	1.422288	-0.221454	0.364722
C166	C	0.722157	-0.860838	-0.341975
C167	C	1.055491	-0.527505	-0.008642
C168	C	1.388824	-0.194171	0.324691
O169	O	0.693712	-0.889093	-0.376027
O170	O	1.027045	-0.555760	-0.042694
O171	O	1.360378	-0.222427	0.290640
C172	C	0.722140	-0.806235	-0.341970
C173	C	1.055473	-0.472901	-0.008636
C174	C	1.388807	-0.139568	0.324697
C175	C	0.755584	-0.778913	-0.301930
C176	C	1.088917	-0.445580	0.031403
C177	C	1.422250	-0.112247	0.364736
C178	C	0.822488	-0.778871	-0.221869
C179	C	1.155821	-0.445538	0.111465
C180	C	1.489154	-0.112205	0.444798
C181	C	0.822467	-0.724271	-0.221860
C182	C	1.155800	-0.390937	0.111474
C183	C	1.489133	-0.057604	0.444807
C184	C	0.789004	-0.696991	-0.261886
C185	C	1.122337	-0.363658	0.071447
C186	C	1.455671	-0.030325	0.404781
C187	C	0.755563	-0.724313	-0.301921
C188	C	1.088896	-0.390979	0.031412
C189	C	1.422229	-0.057646	0.364745
C190	C	0.688679	-0.778953	-0.382003
C191	C	1.022012	-0.445619	-0.048670
C192	C	1.355346	-0.112286	0.284664
C193	C	0.688665	-0.724346	-0.381994
C194	C	1.021998	-0.391012	-0.048661
C195	C	1.355332	-0.057679	0.284672
C196	C	0.722109	-0.697024	-0.341955
C197	C	1.055442	-0.363691	-0.008622
C198	C	1.388775	-0.030358	0.324712
C199	C	0.722079	-0.642433	-0.341939
C200	C	1.055412	-0.309100	-0.008605
C201	C	1.388746	0.024234	0.324728
N202	N	0.755524	-0.615109	-0.301907
N203	N	1.088858	-0.281776	0.031427
N204	N	1.422191	0.051558	0.364760
C205	C	0.788987	-0.642388	-0.261880
C206	C	1.122320	-0.309055	0.071453
C207	C	1.455654	0.024278	0.404786
C208	C	0.722197	-0.975509	-0.341985
C209	C	1.055530	-0.642175	-0.008652
C210	C	1.388863	-0.308842	0.324682
C211	C	0.722211	-1.030111	-0.341988
C212	C	1.055544	-0.696778	-0.008655
C213	C	1.388878	-0.363444	0.324679
C214	C	0.789121	-1.030066	-0.261926
C215	C	1.122454	-0.696733	0.071408
C216	C	1.455788	-0.363399	0.404741
C217	C	0.789104	-0.975463	-0.261920
C218	C	1.122437	-0.642129	0.071413
C219	C	1.455770	-0.308796	0.404747
C220	C	0.755642	-0.948184	-0.301953
C221	C	1.088975	-0.614851	0.031380
C222	C	1.422309	-0.281518	0.364714
C223	C	0.788940	-0.527723	-0.261864
C224	C	1.122273	-0.194390	0.071469
C225	C	1.455606	0.138944	0.404803
C226	C	0.788914	-0.473118	-0.261857
C227	C	1.122248	-0.139784	0.071477
C228	C	1.455581	0.193549	0.404810
C229	C	0.722006	-0.473167	-0.341921
C230	C	1.055340	-0.139834	-0.008587
C231	C	1.388673	0.193499	0.324746
C232	C	0.722030	-0.527768	-0.341926
C233	C	1.055363	-0.194435	-0.008593
C234	C	1.388696	0.138899	0.324741
C235	C	0.755501	-0.555045	-0.301896
C236	C	1.088834	-0.221711	0.031438
C237	C	1.422167	0.111622	0.364771
O238	O	0.693623	-0.614169	-0.375946
O239	O	1.026956	-0.280836	-0.042613
O240	O	1.360290	0.052497	0.290721
O241	O	0.817433	-0.614126	-0.227840
O242	O	1.150766	-0.280793	0.105493
O243	O	1.484099	0.052540	0.438826
C244	C	0.891902	-0.251886	-0.301928
C245	C	1.225236	0.081447	0.031405
C246	C	1.558569	0.414781	0.364738
C247	C	0.950016	-0.251888	-0.301939
C248	C	1.283350	0.081446	0.031394
C249	C	1.616683	0.414779	0.364728
C250	C	0.755573	-0.251871	-0.465326
C251	C	1.088906	0.081462	-0.131993
C252	C	1.422239	0.414795	0.201340
C253	C	0.755591	-0.251867	-0.534968
C254	C	1.088925	0.081466	-0.201634
C255	C	1.422258	0.414800	0.131699
C256	C	0.755632	-0.115509	-0.301945
C257	C	1.088965	0.217824	0.031388
C258	C	1.422299	0.551158	0.364721
C259	C	0.755676	-0.057395	-0.301964
C260	C	1.089009	0.275939	0.031370
C261	C	1.422342	0.609272	0.364703
C262	C	0.789055	-0.218426	-0.567698
C263	C	1.122389	0.114907	-0.234365
C264	C	1.455722	0.448241	0.098968
C265	C	0.789055	-0.218404	-0.633134
C266	C	1.122388	0.114930	-0.299800
C267	C	1.455721	0.448263	0.033533
C268	C	0.755595	-0.251831	-0.665836
C269	C	1.088929	0.081502	-0.332503
C270	C	1.422262	0.414835	0.000831
C271	C	0.722125	-0.285274	-0.633097
C272	C	1.055458	0.048059	-0.299764
C273	C	1.388792	0.381392	0.033569
C274	C	0.722123	-0.285292	-0.567663
C275	C	1.055456	0.048041	-0.234330
C276	C	1.388789	0.381375	0.099004
C277	C	0.751437	-0.298909	-0.769500
C278	C	1.084770	0.034425	-0.436167
C279	C	1.418103	0.367758	-0.102834
C280	C	0.751442	-0.298892	-0.834933
C281	C	1.084776	0.034442	-0.501600
C282	C	1.418109	0.367775	-0.168267
C283	C	0.755599	-0.251776	-0.867657
C284	C	1.088932	0.081557	-0.534324
C285	C	1.422265	0.414891	-0.200990
C286	C	0.759760	-0.204676	-0.834939
C287	C	1.093094	0.128658	-0.501606
C288	C	1.426427	0.461991	-0.168273
C289	C	0.759758	-0.204693	-0.769505
C290	C	1.093092	0.128640	-0.436172
C291	C	1.426425	0.461973	-0.102838
C292	C	0.755594	-0.251815	-0.736788
C293	C	1.088927	0.081518	-0.403455
C294	C	1.422260	0.414851	-0.070122
C295	C	0.789064	-0.218308	-0.971340
C296	C	1.122397	0.115025	-0.638007
C297	C	1.455730	0.448359	-0.304674
C298	C	0.789059	-0.218285	-1.036777
C299	C	1.122393	0.115049	-0.703444
C300	C	1.455726	0.448382	-0.370110
C301	C	0.722132	-0.285160	-1.036739
C302	C	1.055466	0.048173	-0.703406
C303	C	1.388799	0.381507	-0.370072
C304	C	0.722134	-0.285179	-0.971304
C305	C	1.055467	0.048155	-0.637970
C306	C	1.388801	0.381488	-0.304637
C307	C	0.755602	-0.251753	-0.938608
C308	C	1.088936	0.081580	-0.605275
C309	C	1.422269	0.414913	-0.271942
C310	C	0.755516	-0.251855	-0.139115
C311	C	1.088850	0.081479	0.194218
C312	C	1.422183	0.414812	0.527551
C313	C	0.755599	-0.251712	-0.069475
C314	C	1.088932	0.081621	0.263859
C315	C	1.422266	0.414955	0.597192
H316	H	0.305213	-0.345832	-0.188914
H317	H	0.638547	-0.012499	0.144419
H318	H	0.971880	0.320835	0.477753
Br319	Br	0.745802	-0.362813	-0.879329
Br320	Br	1.079135	-0.029480	-0.545996
Br321	Br	1.412468	0.303854	-0.212663
H322	H	0.305440	-0.157919	-0.414880
H323	H	0.638774	0.175415	-0.081547
H324	H	0.972107	0.508748	0.251787
Br325	Br	0.068868	-0.330587	-0.207295
Br326	Br	0.402201	0.002747	0.126038
Br327	Br	0.735534	0.336080	0.459372
H328	H	0.457359	-0.312468	-0.229065
H329	H	0.790692	0.020865	0.104269
H330	H	1.124025	0.354198	0.437602
H331	H	0.694944	-0.953301	-0.374583
H332	H	1.028277	-0.619968	-0.041249
H333	H	1.361610	-0.286635	0.292084
Br334	Br	0.571226	-0.330588	-0.207262
Br335	Br	0.904560	0.002745	0.126071
Br336	Br	1.237893	0.336078	0.459404
Br337	Br	-0.059822	-0.330597	-0.207321
Br338	Br	0.273512	0.002737	0.126012
Br339	Br	0.606845	0.336070	0.459346
H340	H	0.206163	-0.345839	-0.188924
H341	H	0.539497	-0.012505	0.144410
H342	H	0.872830	0.320828	0.477743
Br343	Br	0.676703	-0.330679	-0.523240
Br344	Br	1.010036	0.002654	-0.189906
Br345	Br	1.343370	0.335988	0.143427
H346	H	0.747912	-0.337266	-0.742863
H347	H	1.081245	-0.003933	-0.409529
H348	H	1.414579	0.329400	-0.076196
Br349	Br	0.834304	-0.436042	-0.207513
Br350	Br	1.167637	-0.102709	0.125821
Br351	Br	1.500971	0.230625	0.459154
Br352	Br	0.643294	-0.816018	-0.436352
Br353	Br	0.976627	-0.482684	-0.103019
Br354	Br	1.309960	-0.149351	0.230314
H355	H	0.457525	-0.191302	-0.374722
H356	H	0.790858	0.142031	-0.041388
H357	H	1.124191	0.475365	0.291945
H358	H	0.694799	-0.550014	-0.374531
H359	H	1.028132	-0.216681	-0.041198
H360	H	1.361465	0.116653	0.292135
H361	H	0.661417	-0.702138	-0.414596
H362	H	0.994750	-0.368805	-0.081263
H363	H	1.328084	-0.035472	0.252071
H364	H	0.849701	-0.702029	-0.189258
H365	H	1.183034	-0.368696	0.144075
H366	H	1.516368	-0.035362	0.477408
H367	H	0.694884	-0.312372	-1.063365
H368	H	1.028217	0.020961	-0.730031
H369	H	1.361550	0.354294	-0.396698
H370	H	0.849740	-0.801076	-0.189274
H371	H	1.183073	-0.467743	0.144059
H372	H	1.516406	-0.134410	0.477392
H373	H	0.763145	-0.166343	-0.742869
H374	H	1.096479	0.166991	-0.409536
H375	H	1.429812	0.500324	-0.076202
Br376	Br	0.834474	-0.173061	-0.523329
Br377	Br	1.167808	0.160272	-0.189995
Br378	Br	1.501141	0.493605	0.143338
Br379	Br	0.676712	-0.330637	-0.677477
Br380	Br	1.010045	0.002696	-0.344144
Br381	Br	1.343378	0.336029	-0.010810
H382	H	0.816304	-0.191169	-0.659788
H383	H	1.149637	0.142164	-0.326455
H384	H	1.482971	0.475497	0.006878
H385	H	0.206395	-0.157916	-0.414884
H386	H	0.539728	0.175418	-0.081551
H387	H	0.873061	0.508751	0.251782
Br388	Br	0.765406	-0.140728	-0.879341
Br389	Br	1.098739	0.192605	-0.546007
Br390	Br	1.432073	0.525938	-0.212674
H391	H	0.054228	-0.191307	-0.374763
H392	H	0.387562	0.142026	-0.041430
H393	H	0.720895	0.475359	0.291903
H394	H	0.816313	-0.191088	-0.944718
H395	H	1.149646	0.142245	-0.611385
H396	H	1.482979	0.475578	-0.278051
H397	H	0.694760	-0.450948	-0.374508
H398	H	1.028093	-0.117615	-0.041175
H399	H	1.361426	0.215719	0.292159
Br400	Br	0.834365	-0.564733	-0.207536
Br401	Br	1.167698	-0.231399	0.125797
Br402	Br	1.501032	0.101934	0.459130
Br403	Br	0.834493	-0.938390	-0.207579
Br404	Br	1.167826	-0.605056	0.125754
Br405	Br	1.501159	-0.271723	0.459088
H406	H	0.816309	-0.191050	-1.063425
H407	H	1.149642	0.142283	-0.730092
H408	H	1.482976	0.475617	-0.396758
H409	H	-0.044837	-0.191312	-0.374768
H410	H	0.288496	0.142022	-0.041435
H411	H	0.621830	0.475355	0.291899
H412	H	0.816370	-1.052287	-0.229336
H413	H	1.149703	-0.718953	0.103997
H414	H	1.483037	-0.385620	0.437330
H415	H	0.694973	-1.052351	-0.374586
H416	H	1.028306	-0.719018	-0.041253
H417	H	1.361639	-0.385685	0.292081
H418	H	0.556575	-0.191314	-0.374719
H419	H	0.889908	0.142019	-0.041386
H420	H	1.223241	0.475353	0.291948
Br421	Br	0.676717	-0.330566	-0.926880
Br422	Br	1.010050	0.002767	-0.593547
Br423	Br	1.343383	0.336100	-0.260213
