data_functionalizedCrystal
_audit_creation_method	'MofGen! by Chris Wilmer'
_symmetry_space_group_name_H-M	'P1'
_symmetry_Int_Tables_number	1
_symmetry_cell_setting	triclinic
loop_
_symmetry_equiv_pos_as_xyz
  x,y,z
_cell_length_a	12.759395
_cell_length_b	12.759394
_cell_length_c	11.169409
_cell_angle_alpha	90.032561
_cell_angle_beta	90.019706
_cell_angle_gamma	90.014487
loop_
_atom_site_label
_atom_site_type_symbol
_atom_site_fract_x
_atom_site_fract_y
_atom_site_fract_z
Zn1	Zn	1.606272	-0.418186	0.678537
Zn2	Zn	1.606162	-0.593912	0.477853
Zn3	Zn	1.430569	-0.418247	0.477872
Zn4	Zn	1.430563	-0.593823	0.678498
O5	O	1.518391	-0.506042	0.578190
O6	O	1.753278	-0.441508	0.651924
O7	O	1.582826	-0.570672	0.309906
O8	O	1.453925	-0.271217	0.504514
O9	O	1.753198	-0.570613	0.504483
O10	O	1.583013	-0.271173	0.651942
O11	O	1.453819	-0.441612	0.309920
O12	O	1.283547	-0.441526	0.504477
O13	O	1.453914	-0.570462	0.846453
O14	O	1.283542	-0.570521	0.651877
O15	O	1.583007	-0.441422	0.846482
O16	O	1.582819	-0.740921	0.504445
O17	O	1.453807	-0.740856	0.651858
C18	C	1.245424	-0.506021	0.578175
C19	C	1.128647	-0.506037	0.578198
C20	C	1.128712	-0.371817	0.731977
C21	C	1.073884	-0.304720	0.808876
C22	C	0.964162	-0.304739	0.808891
C23	C	0.909266	-0.371860	0.731996
C24	C	0.964095	-0.438957	0.655096
C25	C	1.073819	-0.438933	0.655092
C26	C	0.964030	-0.573170	0.501313
C27	C	1.073752	-0.573158	0.501302
C28	C	0.909134	-0.640291	0.424418
C29	C	0.963962	-0.707395	0.347523
C30	C	1.073691	-0.707374	0.347513
C31	C	1.128580	-0.640255	0.424403
C32	C	1.518329	-0.779009	0.578172
C33	C	1.518399	-0.895786	0.578204
C34	C	1.652962	-1.115224	0.424867
C35	C	1.720157	-1.060359	0.348166
C36	C	1.720103	-0.950638	0.348142
C37	C	1.652843	-0.895778	0.424825
C38	C	1.585648	-0.950643	0.501527
C39	C	1.585713	-1.060367	0.501545
C40	C	1.451204	-0.950650	0.654905
C41	C	1.451262	-1.060372	0.654937
C42	C	1.383945	-0.895791	0.731589
C43	C	1.316753	-0.950656	0.808298
C44	C	1.316812	-1.060384	0.808319
C45	C	1.384067	-1.115237	0.731638
C46	C	1.792425	-0.506063	0.578206
C47	C	1.909202	-0.506073	0.578212
C48	C	1.518472	-0.505925	0.891233
C49	C	1.518507	-0.505875	1.024633
C50	C	1.518482	-0.232008	0.578235
C51	C	1.518521	-0.115232	0.578254
C52	C	1.518372	-0.506082	0.266365
C53	C	1.518541	-0.505836	0.132966
H54	H	0.919521	-0.250096	0.871501
O55	O	1.384218	-1.221819	0.731852
C56	C	1.411139	-1.258387	0.846918
H57	H	1.456884	-1.195090	0.896572
H58	H	1.336744	-1.277884	0.898841
C59	C	1.423062	-1.435240	0.774409
C60	C	1.479255	-1.357501	0.835391
H61	H	1.465075	-1.496380	0.767301
H62	H	1.404921	-1.410605	0.696888
H63	H	1.361069	-1.451474	0.817687
H64	H	1.541240	-1.341258	0.792106
H65	H	1.497408	-1.382135	0.912905
O66	O	0.910591	-0.772700	0.273007
C67	C	0.847116	-0.840616	0.341205
H68	H	0.880215	-0.847202	0.435715
H69	H	0.763967	-0.808142	0.345411
C70	C	0.804736	-0.941684	0.166272
C71	C	0.845394	-0.949780	0.282348
H72	H	0.803669	-1.009021	0.129965
H73	H	0.847497	-0.895926	0.120324
H74	H	0.735449	-0.914618	0.169793
H75	H	0.914684	-0.976833	0.278824
H76	H	0.802645	-0.995546	0.328294
H77	H	1.261991	-0.905982	0.870722
O78	O	1.127047	-0.239430	0.883615
C79	C	1.055125	-0.180235	0.951513
H80	H	0.976895	-0.176552	0.902365
H81	H	1.043482	-0.218818	1.042581
C82	C	1.194047	-0.072956	1.029417
C83	C	1.097967	-0.068424	0.969048
H84	H	1.220475	-0.003987	1.040239
H85	H	1.242504	-0.112838	0.983677
H86	H	1.184332	-0.105112	1.105300
H87	H	1.107685	-0.036280	0.893161
H88	H	1.049512	-0.028534	1.014776
O89	O	1.126902	-0.772705	0.272940
C90	C	1.100066	-0.877448	0.298936
H91	H	1.069939	-0.882860	0.394807
H92	H	1.036350	-0.904848	0.234539
C93	C	1.234524	-0.940890	0.167064
C94	C	1.197529	-0.947539	0.284819
H95	H	1.294642	-0.984128	0.158351
H96	H	1.252602	-0.870324	0.149546
H97	H	1.181418	-0.963722	0.113413
H98	H	1.250630	-0.924695	0.338465
H99	H	1.179463	-1.018104	0.302345
H100	H	0.819925	-0.371860	0.732005
H101	H	1.218053	-0.371791	0.731967
O102	O	1.235163	-0.640400	0.424279
C103	C	1.271790	-0.713990	0.339896
H104	H	1.208553	-0.775371	0.322965
H105	H	1.291227	-0.672230	0.252468
C106	C	1.448634	-0.692485	0.409488
C107	C	1.370968	-0.767878	0.388700
H108	H	1.509814	-0.725723	0.439588
H109	H	1.423959	-0.642902	0.466336
H110	H	1.464819	-0.657691	0.336626
H111	H	1.354775	-0.802662	0.461564
H112	H	1.395643	-0.817468	0.331865
O113	O	1.653124	-1.221807	0.424710
C114	C	1.726916	-1.258462	0.340612
H115	H	1.741624	-1.195269	0.270486
H116	H	1.803514	-1.277830	0.388283
C117	C	1.666120	-1.435315	0.365207
C118	C	1.684178	-1.357704	0.279072
H119	H	1.639760	-1.496535	0.327249
H120	H	1.616407	-1.410621	0.421869
H121	H	1.729956	-1.451443	0.404926
H122	H	1.620340	-1.341569	0.239365
H123	H	1.733879	-1.382398	0.222402
H124	H	1.774916	-1.105038	0.285729
O125	O	1.785223	-0.897289	0.273509
C126	C	1.725403	-0.833896	0.195950
H127	H	1.642679	-0.867035	0.188462
H128	H	1.721719	-0.750721	0.233047
C129	C	1.878385	-0.791534	0.080428
C130	C	1.776784	-0.832242	0.071223
H131	H	1.910081	-0.790509	0.003492
H132	H	1.918688	-0.834240	0.132683
H133	H	1.875301	-0.722226	0.111348
H134	H	1.779870	-0.901553	0.040319
H135	H	1.736483	-0.789548	0.018960
H136	H	1.652796	-0.806437	0.424789
H137	H	1.262094	-1.105048	0.870780
H138	H	0.819793	-0.640298	0.424433
H139	H	1.383901	-0.806450	0.731559
