data_functionalizedCrystal
_audit_creation_method	'MofGen! by Chris Wilmer'
_symmetry_space_group_name_H-M	'P1'
_symmetry_Int_Tables_number	1
_symmetry_cell_setting	triclinic
loop_
_symmetry_equiv_pos_as_xyz
  x,y,z
_cell_length_a	19.121102
_cell_length_b	12.759400
_cell_length_c	19.122798
_cell_angle_alpha	87.637541
_cell_angle_beta	90.016213
_cell_angle_gamma	92.430863
loop_
_atom_site_label
_atom_site_type_symbol
_atom_site_fract_x
_atom_site_fract_y
_atom_site_fract_z
Zn1	Zn	1.055446	0.513336	-0.442020
Zn2	Zn	1.060242	0.682021	-0.324806
Zn3	Zn	0.943064	0.498556	-0.319821
Zn4	Zn	0.938190	0.681165	-0.436993
O5	O	0.999236	0.593770	-0.380910
O6	O	1.154193	0.542256	-0.430662
O7	O	1.048745	0.651857	-0.226053
O8	O	0.958003	0.353499	-0.336048
O9	O	1.157717	0.666189	-0.344545
O10	O	1.040570	0.364357	-0.425828
O11	O	0.962655	0.517066	-0.222390
O12	O	0.844306	0.516236	-0.331173
O13	O	0.949698	0.664729	-0.535752
O14	O	0.840726	0.650398	-0.417259
O15	O	1.035844	0.541426	-0.539445
O16	O	1.044020	0.828926	-0.339670
O17	O	0.954349	0.828296	-0.422094
C18	C	0.817077	0.581621	-0.373130
C19	C	0.739148	0.576450	-0.369819
C20	C	0.999195	0.866733	-0.380894
C21	C	0.999240	0.983514	-0.380913
C22	C	0.991692	0.604630	-0.563744
C23	C	0.988478	0.609259	-0.641656
C24	C	0.700694	0.643968	-0.413013
C25	C	0.627471	0.639096	-0.409904
C26	C	0.592704	0.566709	-0.363598
C27	C	0.631163	0.499183	-0.320402
C28	C	0.704384	0.504051	-0.323514
C29	C	0.371715	0.548507	-0.351965
C30	C	0.298488	0.543646	-0.348855
C31	C	0.294801	0.683558	-0.438359
C32	C	0.368024	0.688424	-0.441464
C33	C	0.406477	0.620894	-0.398271
C34	C	0.517858	0.561729	-0.360418
C35	C	0.481321	0.625869	-0.401454
C36	C	1.182106	0.605967	-0.388721
C37	C	1.260034	0.611164	-0.392049
C38	C	0.999295	0.319742	-0.380943
C39	C	0.999321	0.202968	-0.380957
C40	C	1.045980	1.038675	-0.338047
C41	C	1.046022	1.148403	-0.338070
C42	C	0.952579	1.147799	-0.423827
C43	C	0.952541	1.038074	-0.423807
C44	C	1.099926	1.039024	-0.288533
C45	C	1.099968	1.148753	-0.288557
C46	C	1.006790	0.582878	-0.198789
C47	C	1.010140	0.577963	-0.120883
C48	C	1.031410	0.546878	0.319631
C49	C	1.028244	0.551500	0.246431
C50	C	0.982148	0.618510	0.211944
C51	C	0.939210	0.680893	0.250661
C52	C	0.942374	0.676264	0.323861
C53	C	0.970366	0.635717	-0.008966
C54	C	0.967207	0.640344	-0.082170
C55	C	1.056240	0.510949	-0.086396
C56	C	1.059403	0.506331	-0.013195
C57	C	1.016463	0.568710	0.025516
C58	C	0.978912	0.623239	0.137121
C59	C	1.019696	0.563975	0.100338
H60	H	0.728996	0.702917	-0.450718
H61	H	0.735693	0.449065	-0.288345
Br62	Br	0.470668	0.463489	-0.297577
Br63	Br	1.071082	0.975118	-0.201172
Br64	Br	1.189389	0.996730	-0.316690
H65	H	0.907406	0.727050	0.355380
Br66	Br	0.242612	0.775204	-0.496972
Br67	Br	0.583979	0.400933	-0.257563
Br68	Br	0.889119	0.963216	-0.481999
H69	H	0.270183	0.484688	-0.311151
H70	H	0.403014	0.493527	-0.316789
H71	H	1.096941	0.451767	0.014879
Br72	Br	1.184591	1.213014	-0.324723
H73	H	0.914559	1.192235	-0.458751
H74	H	0.901675	0.735450	0.222576
H75	H	0.509631	0.684802	-0.439160
Br76	Br	1.093978	0.455940	0.366428
H77	H	1.087717	1.174393	-0.233642
H78	H	1.063206	0.500706	0.214914
H79	H	1.057224	0.509411	0.128421
H80	H	1.091199	0.460162	-0.117923
Br81	Br	0.916356	0.714181	0.090311
H82	H	0.929668	0.694913	-0.110247
H83	H	0.596164	0.694078	-0.445077
H84	H	0.396326	0.747371	-0.479170
H85	H	0.935412	0.686527	0.022544
