data_functionalizedCrystal
_audit_creation_method	'MofGen! by Chris Wilmer'
_symmetry_space_group_name_H-M	'P1'
_symmetry_Int_Tables_number	1
_symmetry_cell_setting	triclinic
loop_
_symmetry_equiv_pos_as_xyz
  x,y,z
_cell_length_a	8.559649
_cell_length_b	8.559649
_cell_length_c	7.088929
_cell_angle_alpha	95.344185
_cell_angle_beta	84.674985
_cell_angle_gamma	69.778664
loop_
_atom_site_label
_atom_site_type_symbol
_atom_site_fract_x
_atom_site_fract_y
_atom_site_fract_z
O1	O	-2.108185	0.036318	-0.158958
O2	O	-1.608185	0.536318	0.341042
O3	O	-1.632699	-0.047464	-0.158965
O4	O	-1.132699	0.452536	0.341035
O5	O	-1.912333	0.232170	-0.158959
O6	O	-1.412333	0.732170	0.341041
O7	O	-1.828551	-0.243315	-0.158964
O8	O	-1.328551	0.256685	0.341036
O9	O	-1.949712	0.269616	0.159017
O10	O	-1.449712	0.769616	0.659017
O11	O	-1.670079	-0.010018	0.159011
O12	O	-1.170079	0.489982	0.659011
O13	O	-2.145564	0.073764	0.159018
O14	O	-1.645564	0.573764	0.659018
Cu15	Cu	-1.911235	0.035292	0.188048
Cu16	Cu	-1.411235	0.535292	0.688048
Cu17	Cu	-1.867029	-0.008992	-0.187995
Cu18	Cu	-1.367029	0.491008	0.312005
O19	O	-1.865931	-0.205870	0.159012
O20	O	-1.365931	0.294130	0.659012
C21	C	-1.591080	-0.035090	0.000022
C22	C	-1.091080	0.464910	0.500022
C23	C	-1.411380	-0.053990	0.000019
C24	C	-0.911380	0.446010	0.500019
C25	C	-1.937372	0.311201	0.000026
C26	C	-1.437372	0.811201	0.500026
C27	C	-1.956269	0.490899	0.000015
C28	C	-1.456269	0.990899	0.500015
C29	C	-2.187183	0.061390	0.000027
C30	C	-1.687183	0.561390	0.500027
C31	C	-2.366881	0.080288	0.000017
C32	C	-1.866881	0.580288	0.500017
C33	C	-1.840892	-0.284902	0.000023
C34	C	-1.340892	0.215098	0.500023
C35	C	-1.821992	-0.464601	0.000021
C36	C	-1.321992	0.035399	0.500021
N37	N	-1.942338	0.066441	0.452537
N38	N	-1.442338	0.566441	0.952537
N39	N	-1.835940	-0.040127	-0.452484
N40	N	-1.335940	0.459873	0.047516
H41	H	-1.466259	0.209706	0.000009
H42	H	-0.966259	0.709706	0.500009
H43	H	-1.692573	0.436021	0.000025
H44	H	-1.192573	0.936021	0.500025
F45	F	-2.125447	0.620804	0.000040
F46	F	-1.625447	1.120804	0.500040
H47	H	-2.052625	0.176874	0.534195
H48	H	-1.552625	0.676874	1.034195
H49	H	-1.311991	-0.183419	0.000007
H50	H	-0.811991	0.316581	0.500007
F51	F	-1.691808	-0.184477	0.440797
F52	F	-1.191808	0.315523	0.940797
