data_functionalizedCrystal
_audit_creation_method	'MofGen! by Chris Wilmer'
_symmetry_space_group_name_H-M	'P1'
_symmetry_Int_Tables_number	1
_symmetry_cell_setting	triclinic
loop_
_symmetry_equiv_pos_as_xyz
  x,y,z
_cell_length_a	31.640172
_cell_length_b	16.704494
_cell_length_c	16.704494
_cell_angle_alpha	89.699037
_cell_angle_beta	56.638814
_cell_angle_gamma	56.630222
loop_
_atom_site_label
_atom_site_type_symbol
_atom_site_fract_x
_atom_site_fract_y
_atom_site_fract_z
Zr1	Zr	0.422224	-0.066988	0.811679
O2	O	0.525876	-0.209856	0.668836
O3	O	0.329311	-0.023193	0.855451
O4	O	0.427593	-0.200250	0.845869
O5	O	0.419613	0.106868	0.685996
O6	O	0.419613	-0.192670	0.985534
O7	O	0.427593	-0.032799	0.678418
O8	O	0.243803	0.124051	1.002676
O9	O	0.595422	-0.209853	0.668855
O10	O	0.357593	0.001144	0.978371
O11	O	0.357593	0.099719	0.879795
O12	O	0.473309	-0.108742	0.868513
O13	O	0.473309	-0.010166	0.769937
Zr14	Zr	0.396767	0.167855	1.046516
Zr15	Zr	0.409495	-0.054899	1.034430
Zr16	Zr	0.409495	0.155766	0.823765
Zr17	Zr	0.533142	-0.066984	0.811710
Zr18	Zr	0.285848	0.167851	1.046485
O19	O	0.489680	0.124061	1.002744
O20	O	0.507778	-0.192667	0.985559
O21	O	0.507778	0.106872	0.686021
O22	O	0.293114	0.310723	1.189359
O23	O	0.311212	-0.006005	1.172174
O24	O	0.311212	0.293534	0.872636
O25	O	0.399378	-0.006001	1.172198
O26	O	0.391397	0.301117	1.012326
O27	O	0.399378	0.293537	0.872660
O28	O	0.391397	0.133666	1.179777
O29	O	0.585305	-0.200244	0.845912
O30	O	0.233685	0.301111	1.012282
O31	O	0.223568	0.310720	1.189340
O32	O	0.233685	0.133661	1.179733
O33	O	0.585305	-0.032793	0.678462
O34	O	0.575187	-0.023184	0.855519
O35	O	0.345682	0.209609	0.989682
O36	O	0.345682	0.111033	1.088257
O37	O	0.461397	0.001148	0.978400
O38	O	0.461397	0.099723	0.879824
C39	C	0.270753	0.050428	0.929059
C40	C	0.223665	0.050427	0.929046
C41	C	0.425416	0.035312	0.650470
C42	C	0.430820	0.030180	0.555906
C43	C	0.393574	0.329065	0.944215
C44	C	0.388170	0.423630	0.949346
C45	C	-0.068381	-0.001011	0.980574
C46	C	-0.245378	-0.001009	0.980596
O47	O	-0.268287	-0.044731	1.024397
N48	N	-0.267507	0.050444	0.929139
C49	C	-0.245388	0.101906	0.877679
O50	O	-0.268276	0.145680	0.833921
C51	C	-0.068395	0.101910	0.877664
C52	C	-0.046263	0.050445	0.929116
C53	C	-0.046250	-0.052472	1.032022
C54	C	-0.002001	-0.052477	1.032011
C55	C	0.020117	-0.001021	0.980553
C56	C	-0.002014	0.050440	0.929105
C57	C	-0.046280	0.153379	0.826211
C58	C	-0.002030	0.153377	0.826215
C59	C	0.020101	0.101912	0.877666
C60	C	0.064354	0.101891	0.877635
N61	N	0.086483	0.050438	0.929092
C62	C	0.064364	-0.001018	0.980551
C63	C	-0.338310	0.101899	0.877688
C64	C	-0.382557	0.101896	0.877690
C65	C	-0.382546	-0.001018	0.980609
C66	C	-0.338294	-0.001021	0.980600
C67	C	-0.316181	0.050445	0.929145
C68	C	0.157292	-0.001025	0.980524
C69	C	0.201547	-0.001029	0.980505
C70	C	0.201529	0.101889	0.877591
C71	C	0.157281	0.101889	0.877605
C72	C	0.135161	0.050430	0.929079
O73	O	0.087284	0.145600	0.833867
O74	O	0.087249	-0.044765	1.024322
C75	C	-0.112631	-0.001006	0.980585
C76	C	-0.134762	0.050454	0.929137
C77	C	-0.112644	0.101910	0.877678
C78	C	-0.179009	0.050452	0.929139
C79	C	-0.201127	-0.001004	0.980598
C80	C	-0.178998	-0.052457	1.032054
C81	C	-0.134749	-0.052462	1.032044
C82	C	-0.134773	0.153363	0.826222
C83	C	-0.179022	0.153363	0.826235
C84	C	-0.201140	0.101907	0.877694
C85	C	0.548237	0.050439	0.929136
C86	C	0.595325	0.050441	0.929149
C87	C	0.425416	-0.228198	0.913979
C88	C	0.430820	-0.322762	0.908849
C89	C	0.498835	0.486597	0.844270
C90	C	0.493761	0.575446	0.849088
C91	C	0.372949	0.690178	0.963793
C92	C	0.378023	0.601329	0.958975
C93	C	0.440968	0.499539	0.899213
C94	C	0.446041	0.410690	0.894402
C95	C	0.325230	0.525421	1.009100
C96	C	0.320156	0.614271	1.013918
C97	C	0.320156	0.135282	0.492912
C98	C	0.325230	0.130463	0.404064
C99	C	0.446041	0.015729	0.289362
C100	C	0.440967	0.020548	0.378210
C101	C	0.378022	0.080326	0.479984
C102	C	0.372949	0.085138	0.568833
C103	C	0.493760	-0.029589	0.454130
C104	C	0.498834	-0.034408	0.365282
C105	C	0.393574	0.065555	1.207725
C106	C	0.388170	0.070687	1.302288
C107	C	0.254832	0.065550	1.207686
C108	C	0.202341	0.070680	1.302237
C109	C	0.254832	0.329060	0.944177
C110	C	0.202341	0.423623	0.949295
C111	C	0.238910	0.344181	1.222804
C112	C	0.181016	0.443876	1.322486
C113	C	0.580080	-0.243314	0.635391
C114	C	0.637975	-0.343009	0.535709
C115	C	0.564158	0.035317	0.650508
C116	C	0.616650	0.030187	0.555958
C117	C	0.564158	-0.228192	0.914018
C118	C	0.616650	-0.322755	0.908900
C119	C	0.183909	0.015719	1.289279
C120	C	0.134595	0.020518	1.378109
C121	C	0.103711	0.080285	1.479897
C122	C	0.122148	0.135248	1.492854
C123	C	0.171464	0.130442	1.404024
C124	C	0.171472	0.525401	1.009058
C125	C	0.122156	0.614261	1.013863
C126	C	0.103708	0.601341	0.958911
C127	C	0.134582	0.499552	0.899140
C128	C	0.183900	0.410694	0.894329
C129	C	0.153827	0.439239	1.420762
C130	C	0.099435	0.532905	1.514431
C131	C	0.072229	0.631207	1.509822
C132	C	0.099423	0.635842	1.411535
C133	C	0.153817	0.542177	1.317868
C134	C	0.665168	-0.338372	0.437433
C135	C	0.719574	-0.432038	0.343764
C136	C	0.746782	-0.530340	0.348373
C137	C	0.719586	-0.534975	0.446660
C138	C	0.665184	-0.441310	0.540327
C139	C	0.635087	0.085139	0.568916
C140	C	0.684414	0.080315	0.480084
C141	C	0.715299	0.020545	0.378295
C142	C	0.696861	-0.034413	0.365339
C143	C	0.647538	-0.029595	0.454170
C144	C	0.635082	-0.309802	0.963865
C145	C	0.684395	-0.398644	0.959077
C146	C	0.715279	-0.500440	0.899317
C147	C	0.696843	-0.513392	0.844351
C148	C	0.647527	-0.424550	0.849145
H149	H	0.219567	-0.042942	1.022401
H150	H	0.175948	0.545967	1.237851
H151	H	-0.116771	0.195269	0.784320
H152	H	0.175970	0.359205	1.424535
H153	H	0.632526	-0.435112	0.804381
H154	H	0.791080	-0.606600	0.272095
H155	H	0.550081	-0.083073	0.282408
H156	H	-0.197011	-0.094360	1.073950
H157	H	0.609943	-0.226923	1.012528
H158	H	0.741746	-0.615023	0.450400
H159	H	0.077300	0.529113	1.594451
H160	H	0.077264	0.715892	1.407798
H161	H	0.722015	-0.083077	0.282451
H162	H	0.027938	0.707467	1.586100
H163	H	0.643044	-0.445098	0.620344
H164	H	0.643019	-0.258338	0.433660
H165	H	0.741709	-0.428244	0.263744
H166	H	0.609943	0.133817	0.651789
H167	H	0.699417	0.125074	0.490653
H168	H	0.209027	0.327825	0.845667
H169	H	-0.197034	0.195269	0.784327
H170	H	0.755460	0.016631	0.305973
H171	H	0.321703	0.773065	1.012442
H172	H	0.632529	-0.074341	0.443605
H173	H	0.699400	-0.388078	1.003837
H174	H	0.550086	0.403718	0.795617
H175	H	0.721996	-0.596285	0.795695
H176	H	0.139286	-0.042926	1.022440
H177	H	0.016014	-0.094381	1.073911
H178	H	0.755435	-0.572772	0.895422
H179	H	0.540879	-0.074342	0.443608
H180	H	0.278108	0.175215	0.414600
H181	H	-0.064257	-0.094372	1.073931
H182	H	-0.320278	-0.042928	1.022497
H183	H	0.268909	0.697157	1.062571
H184	H	-0.400565	0.143791	0.835779
H185	H	-0.400561	-0.042917	1.022507
H186	H	-0.064293	0.195289	0.784316
H187	H	0.119553	0.489048	0.854399
H188	H	-0.320310	0.143813	0.835786
H189	H	0.321696	0.133818	0.651700
H190	H	0.015973	0.195287	0.784311
H191	H	0.139268	0.143782	0.835695
H192	H	0.119591	-0.024240	1.367539
H193	H	0.219548	0.143780	0.835691
H194	H	0.063556	0.084190	1.552220
H195	H	0.063549	0.673705	0.962836
H196	H	-0.116732	-0.094370	1.073940
H197	H	0.186464	0.175205	1.414590
H198	H	0.186486	0.535941	1.053809
H199	H	0.497287	-0.032924	0.206487
H200	H	0.268903	0.183961	0.575780
H201	H	0.209055	-0.032962	1.206405
H202	H	0.497294	0.327811	0.845743
H203	H	0.540882	0.564900	0.804345
H204	H	0.278111	0.535954	1.053838
H205	H	0.096995	0.183908	1.575741
H206	H	0.097024	0.697134	1.062539
