data_functionalizedCrystal
_audit_creation_method	'MofGen! by Chris Wilmer'
_symmetry_space_group_name_H-M	'P1'
_symmetry_Int_Tables_number	1
_symmetry_cell_setting	triclinic
loop_
_symmetry_equiv_pos_as_xyz
  x,y,z
_cell_length_a	19.288864
_cell_length_b	14.185569
_cell_length_c	19.288865
_cell_angle_alpha	76.886572
_cell_angle_beta	96.863755
_cell_angle_gamma	76.905400
loop_
_atom_site_label
_atom_site_type_symbol
_atom_site_fract_x
_atom_site_fract_y
_atom_site_fract_z
O1	O	0.905480	0.083748	-0.102508
O2	O	0.703232	0.083681	-0.114184
O3	O	0.810204	0.083697	-0.007212
O4	O	0.798509	0.083732	-0.209479
O5	O	0.841805	-0.083133	0.024385
O6	O	0.734833	-0.083149	-0.082587
O7	O	0.937081	-0.083082	-0.070911
Cu8	Cu	0.838842	-0.098348	-0.073864
Cu9	Cu	0.801471	0.098947	-0.111231
O10	O	0.830109	-0.083098	-0.177882
C11	C	0.693158	0.000257	-0.098007
C12	C	0.616059	0.000231	-0.096873
N13	N	0.865132	-0.237116	-0.047581
C14	C	0.571358	0.000258	-0.159646
C15	C	0.498909	0.000268	-0.158588
C16	C	0.471160	0.000273	-0.094756
C17	C	0.515873	0.000240	-0.031974
C18	C	0.588322	0.000219	-0.033033
C19	C	0.351823	0.058745	-0.055652
C20	C	0.279373	0.058772	-0.054597
C21	C	0.247703	0.000333	-0.091488
C22	C	0.288488	-0.058121	-0.129448
C23	C	0.360938	-0.058142	-0.130507
C24	C	0.392602	0.000295	-0.093601
C25	C	0.124444	0.000370	-0.153117
C26	C	0.051995	0.000375	-0.152055
C27	C	0.068959	0.000356	-0.025441
C28	C	0.141408	0.000342	-0.026504
C29	C	0.169145	0.000353	-0.090344
C30	C	0.697947	-0.604790	-0.214695
C31	C	0.717866	-0.709809	-0.194791
C32	C	0.812609	-0.709756	-0.100103
C33	C	0.792695	-0.604735	-0.119997
C34	C	0.735364	-0.552260	-0.177294
C35	C	0.830113	-0.552205	-0.082595
C36	C	0.810203	-0.447194	-0.102490
C37	C	0.752876	-0.394712	-0.159786
C38	C	0.715455	-0.447249	-0.197189
C39	C	0.887446	-0.604682	-0.025302
C40	C	0.924864	-0.552152	0.012100
C41	C	0.904951	-0.447139	-0.007791
C42	C	0.847624	-0.394657	-0.065088
C43	C	0.942372	-0.394602	0.029611
C44	C	0.922463	-0.289590	0.009716
C45	C	0.827715	-0.289645	-0.084983
C46	C	0.947155	0.000344	-0.087087
C47	C	1.024252	0.000377	-0.088223
C48	C	0.825629	0.000278	0.034464
C49	C	0.824502	0.000269	0.111569
N50	N	0.775187	0.237715	-0.137508
C51	C	0.814684	0.000323	-0.219558
C52	C	0.815810	0.000339	-0.296665
C53	C	0.887266	0.000285	0.156262
C54	C	0.886203	0.000301	0.228706
C55	C	0.822375	0.000280	0.256458
C56	C	0.759600	0.000270	0.211754
C57	C	0.760664	0.000264	0.139309
C58	C	0.783267	-0.058173	0.375816
C59	C	0.782207	-0.058174	0.448261
C60	C	0.819091	0.000302	0.479899
C61	C	0.857048	0.058765	0.439088
C62	C	0.858112	0.058759	0.366644
C63	C	0.821214	0.000287	0.335011
C64	C	0.880707	0.000336	0.603145
C65	C	0.879639	0.000357	0.675589
C66	C	0.753037	0.000317	0.658637
C67	C	0.754104	0.000305	0.586192
C68	C	0.817942	0.000310	0.558452
H69	H	0.593936	0.000269	-0.211631
H70	H	0.952933	-0.246820	0.040172
N71	N	0.653613	-0.390644	-0.258983
H72	H	0.664912	-0.408903	-0.304803
H73	H	0.646709	-0.316168	-0.265844
H74	H	0.377601	0.106340	-0.025610
N75	N	0.743500	-0.121272	0.341704
H76	H	0.749935	-0.112409	0.289619
H77	H	0.690328	-0.099453	0.343682
H78	H	0.687392	-0.752573	-0.225254
H79	H	0.859290	-0.752493	-0.053452
H80	H	0.046355	0.000422	0.026520
N81	N	0.485941	0.000247	0.036869
H82	H	0.490562	0.062081	0.052650
H83	H	0.513964	-0.061648	0.076026
N84	N	0.154369	0.000377	-0.221968
H85	H	0.115055	0.000388	-0.261574
H86	H	0.195758	-0.061474	-0.213451
N87	N	0.896837	0.121835	0.473204
H88	H	0.876745	0.194764	0.445905
H89	H	0.950015	0.099936	0.471272
H90	H	0.930751	0.000376	0.711977
N91	N	0.686413	0.000267	0.537983
H92	H	0.672317	0.062107	0.495827
H93	H	0.645861	0.000216	0.566609
N94	N	0.636110	-0.548179	-0.276493
H95	H	0.597190	-0.504635	-0.258272
H96	H	0.615481	-0.597451	-0.297144
H97	H	0.989056	-0.437340	0.076258
H98	H	0.903657	-0.690189	-0.009108
N99	N	0.235386	0.121817	-0.013659
H100	H	0.266443	0.158825	0.009559
H101	H	0.217795	0.076984	0.025052
N102	N	0.003803	0.000388	-0.219775
H103	H	-0.038337	0.062233	-0.233886
H104	H	-0.014877	-0.061496	-0.210405
H105	H	0.971545	-0.594889	0.058750
N106	N	0.731391	-0.281449	-0.181238
H107	H	0.689394	-0.256180	-0.223207
H108	H	0.773782	-0.256187	-0.195983
H109	H	0.707631	0.000255	0.234353
H110	H	0.932686	0.000344	0.580557
H111	H	0.177804	0.000325	0.024612
N112	N	0.956116	0.000292	0.126342
H113	H	0.995717	0.000305	0.165652
H114	H	0.947604	0.062137	0.084933
H115	H	0.937314	0.000318	0.265102
N116	N	0.636542	0.000185	0.034676
H117	H	0.607975	0.000185	0.075277
H118	H	0.655275	0.062023	0.025283
N119	N	0.254336	-0.121163	-0.169232
H120	H	0.281607	-0.194097	-0.149132
H121	H	0.256266	-0.099260	-0.222415
N122	N	0.692965	0.000248	0.091099
H123	H	0.652366	0.000241	0.119668
H124	H	0.702363	-0.061603	0.072396
H125	H	0.889016	0.106364	0.333418
N126	N	0.765875	-0.233043	-0.146779
H127	H	0.784052	-0.189450	-0.185725
H128	H	0.726978	-0.189557	-0.128498
H129	H	0.701066	0.000305	0.681230
H130	H	0.751296	-0.105773	0.481482
N131	N	0.404934	-0.121197	-0.171432
H132	H	0.422533	-0.076434	-0.210183
H133	H	0.373847	-0.158213	-0.194597
N134	N	0.450682	0.000300	-0.226295
H135	H	0.479248	0.000303	-0.266898
H136	H	0.408560	0.062158	-0.240319
