data_functionalizedCrystal
_audit_creation_method	'MofGen! by Chris Wilmer'
_symmetry_space_group_name_H-M	'P1'
_symmetry_Int_Tables_number	1
_symmetry_cell_setting	triclinic
loop_
_symmetry_equiv_pos_as_xyz
  x,y,z
_cell_length_a	27.732064
_cell_length_b	27.732048
_cell_length_c	14.185569
_cell_angle_alpha	76.951782
_cell_angle_beta	103.051318
_cell_angle_gamma	82.646040
loop_
_atom_site_label
_atom_site_type_symbol
_atom_site_fract_x
_atom_site_fract_y
_atom_site_fract_z
O1	O	0.629896	0.068574	-0.083255
O2	O	0.963230	0.401908	0.250078
O3	O	1.296563	0.735241	0.583412
O4	O	0.489099	0.077317	-0.083298
O5	O	0.822432	0.410651	0.250035
O6	O	1.155765	0.743984	0.583369
O7	O	0.563873	0.002547	-0.083256
O8	O	0.897206	0.335880	0.250077
O9	O	1.230540	0.669213	0.583411
O10	O	0.555122	0.143345	-0.083297
O11	O	0.888455	0.476678	0.250036
O12	O	1.221789	0.810012	0.583370
O13	O	0.585962	-0.019539	0.083591
O14	O	0.919295	0.313795	0.416924
O15	O	1.252629	0.647128	0.750258
O16	O	0.511187	0.055232	0.083549
O17	O	0.844521	0.388565	0.416882
O18	O	1.177854	0.721898	0.750216
O19	O	0.651985	0.046489	0.083592
O20	O	0.985319	0.379822	0.416925
O21	O	1.318652	0.713156	0.750258
Cu22	Cu	0.583603	0.048844	0.098805
Cu23	Cu	0.916937	0.382177	0.432138
Cu24	Cu	1.250270	0.715510	0.765472
Cu25	Cu	0.557481	0.074962	-0.098511
Cu26	Cu	0.890814	0.408296	0.234822
Cu27	Cu	1.224147	0.741629	0.568156
O28	O	0.577211	0.121260	0.083550
O29	O	0.910544	0.454593	0.416883
O30	O	1.243878	0.787926	0.750217
C31	C	0.482136	0.066091	0.000120
C32	C	0.815469	0.399424	0.333454
C33	C	1.148802	0.732757	0.666787
C34	C	0.428479	0.065537	0.000105
C35	C	0.761812	0.398870	0.333438
C36	C	1.095146	0.732203	0.666772
C37	C	0.051416	0.017560	0.000176
C38	C	0.384749	0.350893	0.333509
C39	C	0.718082	0.684227	0.666843
C40	C	0.253072	0.019610	0.000149
C41	C	0.586406	0.352943	0.333483
C42	C	0.919739	0.686277	0.666816
O43	O	0.284331	-0.017618	0.000198
O44	O	0.617665	0.315716	0.333531
O45	O	0.950998	0.649049	0.666864
N46	N	0.272198	0.063946	0.000132
N47	N	0.605531	0.397280	0.333465
N48	N	0.938864	0.730613	0.666799
C49	C	0.240906	0.107773	0.000128
C50	C	0.574239	0.441106	0.333461
C51	C	0.907573	0.774439	0.666794
O52	O	0.261802	0.145529	0.000123
O53	O	0.595135	0.478863	0.333456
O54	O	0.928468	0.812196	0.666789
C55	C	0.039251	0.105722	0.000162
C56	C	0.372585	0.439055	0.333495
C57	C	0.705918	0.772388	0.666828
C58	C	0.020128	0.061383	0.000169
C59	C	0.353461	0.394717	0.333502
C60	C	0.686794	0.728050	0.666836
C61	C	0.032292	-0.026775	0.000184
C62	C	0.365625	0.306559	0.333518
C63	C	0.698958	0.639892	0.666851
C64	C	-0.018120	-0.027286	0.000185
C65	C	0.315213	0.306048	0.333519
C66	C	0.648546	0.639381	0.666852
C67	C	-0.049408	0.016538	0.000178
C68	C	0.283925	0.349871	0.333512
C69	C	0.617258	0.683204	0.666845
C70	C	-0.030284	0.060872	0.000170
C71	C	0.303049	0.394206	0.333503
C72	C	0.636382	0.727539	0.666837
C73	C	0.007961	0.149546	0.000165
C74	C	0.341295	0.482880	0.333498
C75	C	0.674628	0.816213	0.666831
C76	C	-0.042455	0.149029	0.000176
C77	C	0.290879	0.482363	0.333509
C78	C	0.624212	0.815696	0.666842
C79	C	-0.061578	0.104691	0.000183
C80	C	0.271755	0.438025	0.333516
C81	C	0.605089	0.771358	0.666850
C82	C	-0.111984	0.104184	0.000164
C83	C	0.221349	0.437518	0.333498
C84	C	0.554682	0.770851	0.666831
N85	N	-0.131109	0.059848	0.000182
N86	N	0.202224	0.393181	0.333515
N87	N	0.535557	0.726514	0.666848
C88	C	-0.099821	0.016024	0.000189
C89	C	0.233512	0.349358	0.333522
C90	C	0.566845	0.682691	0.666855
C91	C	0.346778	0.108847	0.000108
C92	C	0.680111	0.442180	0.333441
C93	C	1.013444	0.775514	0.666775
C94	C	0.397191	0.109360	0.000098
C95	C	0.730524	0.442693	0.333431
C96	C	1.063858	0.776027	0.666764
C97	C	0.409354	0.021197	0.000121
C98	C	0.742688	0.354530	0.333454
C99	C	1.076021	0.687863	0.666788
C100	C	0.358939	0.020685	0.000124
C101	C	0.692272	0.354018	0.333458
C102	C	1.025606	0.687352	0.666791
C103	C	0.327653	0.064510	0.000125
C104	C	0.660986	0.397844	0.333459
C105	C	0.994319	0.731177	0.666792
C106	C	-0.205691	0.014954	0.000190
C107	C	0.127643	0.348288	0.333524
C108	C	0.460976	0.681621	0.666857
C109	C	-0.256108	0.014447	0.000187
C110	C	0.077225	0.347781	0.333521
C111	C	0.410558	0.681114	0.666854
C112	C	-0.268266	0.102610	0.000169
C113	C	0.065067	0.435943	0.333503
C114	C	0.398400	0.769276	0.666836
C115	C	-0.217854	0.103118	0.000167
C116	C	0.115479	0.436451	0.333500
C117	C	0.448813	0.769784	0.666834
C118	C	-0.186566	0.059285	0.000181
C119	C	0.146767	0.392619	0.333514
C120	C	0.480100	0.725952	0.666848
O121	O	-0.143270	0.141390	0.000127
O122	O	0.190063	0.474724	0.333461
O123	O	0.523396	0.808057	0.666794
O124	O	-0.120724	-0.021730	0.000216
O125	O	0.212610	0.311604	0.333549
O126	O	0.545943	0.644937	0.666883
C127	C	0.101828	0.018071	0.000175
C128	C	0.435161	0.351405	0.333508
C129	C	0.768494	0.684738	0.666841
C130	C	0.120952	0.062406	0.000166
C131	C	0.454285	0.395739	0.333500
C132	C	0.787618	0.729073	0.666833
C133	C	0.089664	0.106229	0.000159
C134	C	0.422997	0.439563	0.333493
C135	C	0.756330	0.772896	0.666826
C136	C	0.171365	0.062919	0.000156
C137	C	0.504698	0.396252	0.333490
C138	C	0.838031	0.729586	0.666823
C139	C	0.202653	0.019096	0.000163
C140	C	0.535986	0.352429	0.333497
C141	C	0.869319	0.685762	0.666830
C142	C	0.183528	-0.025241	0.000181
C143	C	0.516861	0.308092	0.333514
C144	C	0.850194	0.641426	0.666847
C145	C	0.133116	-0.025752	0.000182
C146	C	0.466449	0.307581	0.333515
C147	C	0.799782	0.640915	0.666848
C148	C	0.108789	0.150566	0.000142
C149	C	0.442122	0.483899	0.333475
C150	C	0.775455	0.817233	0.666809
C151	C	0.159201	0.151074	0.000140
C152	C	0.492534	0.484407	0.333473
C153	C	0.825868	0.817740	0.666806
C154	C	0.190489	0.107250	0.000147
C155	C	0.523822	0.440584	0.333480
C156	C	0.857156	0.773917	0.666813
C157	C	0.574734	-0.026503	0.000170
C158	C	0.908068	0.306830	0.333503
C159	C	1.241401	0.640163	0.666837
C160	C	0.574182	-0.080159	0.000178
C161	C	0.907516	0.253174	0.333512
C162	C	1.240849	0.586507	0.666845
C163	C	0.614881	-0.418967	0.000139
C164	C	0.948214	-0.085633	0.333472
C165	C	1.281547	0.247700	0.666806
C166	C	0.612828	-0.620625	0.000124
C167	C	0.946161	-0.287291	0.333458
C168	C	1.279494	0.046042	0.666791
O169	O	0.650044	-0.651874	0.000092
O170	O	0.983377	-0.318540	0.333425
O171	O	1.316711	0.014793	0.666759
N172	N	0.568491	-0.639749	0.000112
N173	N	0.901825	-0.306416	0.333445
N174	N	1.235158	0.026917	0.666779
C175	C	0.524664	-0.608455	0.000096
C176	C	0.857997	-0.275122	0.333430
C177	C	1.191331	0.058211	0.666763
O178	O	0.486905	-0.629348	0.000075
O179	O	0.820238	-0.296014	0.333408
O180	O	1.153571	0.037319	0.666742
C181	C	0.526717	-0.406797	0.000104
C182	C	0.860050	-0.073464	0.333437
C183	C	1.193383	0.259869	0.666771
C184	C	0.571057	-0.387677	0.000127
C185	C	0.904391	-0.054344	0.333460
C186	C	1.237724	0.278990	0.666793
C187	C	0.659218	-0.399846	0.000161
C188	C	0.992551	-0.066512	0.333494
C189	C	1.325884	0.266821	0.666827
C190	C	0.659731	-0.349435	0.000170
C191	C	0.993064	-0.016102	0.333503
C192	C	1.326398	0.317232	0.666836
C193	C	0.615908	-0.318145	0.000157
C194	C	0.949241	0.015188	0.333491
C195	C	1.282574	0.348521	0.666824
C196	C	0.571571	-0.337266	0.000136
C197	C	0.904904	-0.003933	0.333469
C198	C	1.238237	0.329400	0.666802
C199	C	0.482889	-0.375503	0.000081
C200	C	0.816222	-0.042170	0.333415
C201	C	1.149555	0.291163	0.666748
C202	C	0.483406	-0.325086	0.000081
C203	C	0.816739	0.008247	0.333414
C204	C	1.150072	0.341581	0.666747
C205	C	0.527746	-0.305966	0.000103
C206	C	0.861080	0.027368	0.333437
C207	C	1.194413	0.360701	0.666770
C208	C	0.528261	-0.255566	0.000132
C209	C	0.861594	0.077767	0.333466
C210	C	1.194927	0.411101	0.666799
N211	N	0.572597	-0.236441	0.000145
N212	N	0.905931	0.096892	0.333478
N213	N	1.239264	0.430226	0.666812
C214	C	0.616421	-0.267731	0.000157
C215	C	0.949754	0.065603	0.333491
C216	C	1.283087	0.398936	0.666824
C217	C	0.523590	-0.714329	0.000095
C218	C	0.856923	-0.380996	0.333428
C219	C	1.190257	-0.047662	0.666761
C220	C	0.523077	-0.764744	0.000094
C221	C	0.856410	-0.431410	0.333428
C222	C	1.189743	-0.098077	0.666761
C223	C	0.611241	-0.776909	0.000121
C224	C	0.944574	-0.443576	0.333454
C225	C	1.277907	-0.110243	0.666787
C226	C	0.611754	-0.726495	0.000128
C227	C	0.945087	-0.393161	0.333461
C228	C	1.278421	-0.059828	0.666794
C229	C	0.567926	-0.695204	0.000107
C230	C	0.901260	-0.361871	0.333440
C231	C	1.234593	-0.028538	0.666774
C232	C	0.617496	-0.161864	0.000177
C233	C	0.950829	0.171469	0.333511
C234	C	1.284162	0.504802	0.666844
C235	C	0.618006	-0.111449	0.000191
C236	C	0.951339	0.221884	0.333524
C237	C	1.284673	0.555218	0.666857
C238	C	0.529842	-0.099287	0.000159
C239	C	0.863175	0.234046	0.333493
C240	C	1.196508	0.567380	0.666826
C241	C	0.529332	-0.149699	0.000151
C242	C	0.862665	0.183635	0.333485
C243	C	1.195999	0.516968	0.666818
C244	C	0.573163	-0.180986	0.000157
C245	C	0.906496	0.152347	0.333490
C246	C	1.239829	0.485681	0.666824
O247	O	0.491063	-0.224287	0.000154
O248	O	0.824396	0.109046	0.333487
O249	O	1.157730	0.442380	0.666820
O250	O	0.654172	-0.246826	0.000156
O251	O	0.987505	0.086507	0.333490
O252	O	1.320838	0.419841	0.666823
C253	C	0.614367	-0.469378	0.000130
C254	C	0.947701	-0.136044	0.333463
C255	C	1.281034	0.197289	0.666797
C256	C	0.570030	-0.488499	0.000108
C257	C	0.903364	-0.155165	0.333442
C258	C	1.236697	0.178168	0.666775
C259	C	0.526207	-0.457209	0.000096
C260	C	0.859540	-0.123876	0.333429
C261	C	1.192873	0.209458	0.666763
C262	C	0.569517	-0.538913	0.000108
C263	C	0.902851	-0.205580	0.333442
C264	C	1.236184	0.127754	0.666775
C265	C	0.613341	-0.570203	0.000121
C266	C	0.946674	-0.236869	0.333454
C267	C	1.280007	0.096464	0.666787
C268	C	0.657677	-0.551078	0.000133
C269	C	0.991011	-0.217745	0.333467
C270	C	1.324344	0.115589	0.666800
C271	C	0.658191	-0.500667	0.000142
C272	C	0.991524	-0.167334	0.333476
C273	C	1.324857	0.165999	0.666809
C274	C	0.481870	-0.476334	0.000083
C275	C	0.815204	-0.143000	0.333417
C276	C	1.148537	0.190333	0.666750
C277	C	0.481361	-0.526745	0.000075
C278	C	0.814694	-0.193412	0.333409
C279	C	1.148027	0.139922	0.666742
C280	C	0.525184	-0.558035	0.000088
C281	C	0.858517	-0.224701	0.333421
C282	C	1.191851	0.108632	0.666754
C283	C	0.658948	0.057716	0.000171
C284	C	0.992281	0.391049	0.333505
C285	C	1.325615	0.724383	0.666838
C286	C	0.712604	0.058271	0.000180
C287	C	1.045937	0.391604	0.333514
C288	C	1.379270	0.724937	0.666847
C289	C	0.566349	0.150310	0.000122
C290	C	0.899683	0.483643	0.333455
C291	C	1.233016	0.816977	0.666788
C292	C	0.566900	0.203967	0.000107
C293	C	0.900234	0.537300	0.333440
C294	C	1.233567	0.870633	0.666774
N295	N	0.601980	0.030473	0.237586
N296	N	0.935314	0.363806	0.570919
N297	N	1.268647	0.697140	0.904253
N298	N	0.539108	0.093329	-0.237292
N299	N	0.872441	0.426663	0.096041
N300	N	1.205774	0.759996	0.429374
C301	C	0.485116	0.147282	0.605171
C302	C	0.818450	0.480615	0.938504
C303	C	1.151783	0.813948	1.271837
C304	C	0.499040	0.133369	0.710200
C305	C	0.832373	0.466703	1.043533
C306	C	1.165707	0.800036	1.376867
C307	C	0.565266	0.067184	0.710198
C308	C	0.898599	0.400518	1.043531
C309	C	1.231932	0.733851	1.376865
C310	C	0.551346	0.081090	0.605167
C311	C	0.884679	0.414423	0.938500
C312	C	1.218013	0.747756	1.271833
C313	C	0.511272	0.121139	0.552661
C314	C	0.844605	0.454472	0.885995
C315	C	1.177938	0.787806	1.219328
C316	C	0.577501	0.054947	0.552657
C317	C	0.910835	0.388280	0.885990
C318	C	1.244168	0.721614	1.219324
C319	C	0.563584	0.068853	0.447635
C320	C	0.896918	0.402186	0.780968
C321	C	1.230251	0.735520	1.114302
C322	C	0.523512	0.108902	0.395122
C323	C	0.856846	0.442235	0.728455
C324	C	1.190179	0.775568	1.061789
C325	C	0.497355	0.135045	0.447639
C326	C	0.830688	0.468378	0.780972
C327	C	1.164021	0.801712	1.114306
C328	C	0.617578	0.014900	0.605164
C329	C	0.950911	0.348233	0.938498
C330	C	1.284245	0.681567	1.271831
C331	C	0.643733	-0.011243	0.552655
C332	C	0.977067	0.322091	0.885988
C333	C	1.310400	0.655424	1.219322
C334	C	0.629814	0.002661	0.447631
C335	C	0.963147	0.335994	0.780964
C336	C	1.296481	0.669328	1.114297
C337	C	0.589742	0.042710	0.395118
C338	C	0.923075	0.376043	0.728451
C339	C	1.256409	0.709376	1.061785
C340	C	0.655972	-0.023482	0.395114
C341	C	0.989305	0.309851	0.728447
C342	C	1.322639	0.643184	1.061781
C343	C	0.642055	-0.009576	0.290092
C344	C	0.975388	0.323757	0.623425
C345	C	1.308722	0.657090	0.956758
C346	C	0.575825	0.056616	0.290096
C347	C	0.909158	0.389949	0.623429
C348	C	1.242492	0.723282	0.956762
H349	H	-0.180222	-0.020738	0.000201
H350	H	0.153112	0.312595	0.333535
H351	H	0.486445	0.645928	0.666868
H352	H	0.597896	0.034577	0.752960
H353	H	0.931230	0.367910	1.086293
H354	H	1.264563	0.701243	1.419627
H355	H	-0.202283	0.139221	0.000160
H356	H	0.131050	0.472555	0.333493
H357	H	0.464383	0.805888	0.666827
Cl358	Cl	0.427142	-0.399527	0.000046
Cl359	Cl	0.760475	-0.066193	0.333379
Cl360	Cl	1.093808	0.267140	0.666713
H361	H	0.321308	0.144537	0.000108
H362	H	0.654641	0.477870	0.333441
H363	H	0.987974	0.811204	0.666774
Cl364	Cl	-0.081783	0.204127	0.000181
Cl365	Cl	0.251550	0.537461	0.333515
Cl366	Cl	0.584884	0.870794	0.666848
Cl367	Cl	0.674938	-0.042441	0.224078
Cl368	Cl	1.008272	0.290892	0.557411
Cl369	Cl	1.341605	0.624225	0.890745
Cl370	Cl	-0.042154	-0.083027	0.000186
Cl371	Cl	0.291179	0.250306	0.333519
Cl372	Cl	0.624512	0.583640	0.666852
Cl373	Cl	0.672598	-0.201190	0.000186
Cl374	Cl	1.005931	0.132144	0.333520
Cl375	Cl	1.339265	0.465477	0.666853
Cl376	Cl	0.069461	0.205665	0.000128
Cl377	Cl	0.402795	0.538998	0.333461
Cl378	Cl	0.736128	0.872332	0.666794
Cl379	Cl	0.706355	-0.073824	0.461131
Cl380	Cl	1.039688	0.259510	0.794464
Cl381	Cl	1.373021	0.592843	1.127798
Cl382	Cl	0.031990	0.205289	0.000156
Cl383	Cl	0.365323	0.538623	0.333490
Cl384	Cl	0.698656	0.871956	0.666823
Cl385	Cl	0.448697	-0.033895	0.000130
Cl386	Cl	0.782030	0.299438	0.333463
Cl387	Cl	1.115364	0.632771	0.666796
H388	H	0.117550	-0.061857	0.000188
H389	H	0.450884	0.271477	0.333521
H390	H	0.784217	0.604810	0.666855
H391	H	0.464718	0.167654	0.404887
H392	H	0.798052	0.500987	0.738220
H393	H	1.131385	0.834321	1.071554
Cl394	Cl	0.715473	-0.325402	0.000170
Cl395	Cl	1.048806	0.007931	0.333503
Cl396	Cl	1.382140	0.341265	0.666836
H397	H	0.654115	-0.095885	0.000212
H398	H	0.987449	0.237449	0.333545
H399	H	1.320782	0.570782	0.666878
H400	H	0.412755	0.145466	0.000078
H401	H	0.746088	0.478800	0.333411
H402	H	1.079421	0.812133	0.666745
Cl403	Cl	0.222870	-0.080332	0.000186
Cl404	Cl	0.556204	0.253001	0.333520
Cl405	Cl	0.889537	0.586335	0.666853
Cl406	Cl	-0.280146	-0.041295	0.000190
Cl407	Cl	0.053187	0.292038	0.333523
Cl408	Cl	0.386520	0.625371	0.666856
H409	H	0.694297	-0.485105	0.000161
H410	H	1.027631	-0.151771	0.333494
H411	H	1.360964	0.181562	0.666827
Cl412	Cl	0.473591	-0.173739	0.000142
Cl413	Cl	0.806925	0.159594	0.333475
Cl414	Cl	1.140258	0.492928	0.666808
H415	H	0.628909	0.003581	0.690680
H416	H	0.962243	0.336914	1.024014
H417	H	1.295576	0.670248	1.357347
Cl418	Cl	0.666332	-0.816253	0.000131
Cl419	Cl	0.999665	-0.482920	0.333465
Cl420	Cl	1.332999	-0.149587	0.666798
H421	H	0.174765	0.187183	0.000127
H422	H	0.508098	0.520516	0.333460
H423	H	0.841432	0.853849	0.666793
H424	H	0.057763	-0.062463	0.000193
H425	H	0.391096	0.270870	0.333527
H426	H	0.724429	0.604203	0.666860
Cl427	Cl	0.694112	-0.061588	0.618669
Cl428	Cl	1.027446	0.271745	0.952002
Cl429	Cl	1.360779	0.605079	1.285335
Cl430	Cl	0.714318	-0.439174	0.000178
Cl431	Cl	1.047652	-0.105840	0.333511
Cl432	Cl	1.380985	0.227493	0.666845
Cl433	Cl	0.428304	-0.285752	0.000053
Cl434	Cl	0.761637	0.047581	0.333387
Cl435	Cl	1.094971	0.380915	0.666720
Cl436	Cl	0.468486	-0.674999	0.000070
Cl437	Cl	0.801820	-0.341666	0.333403
Cl438	Cl	1.135153	-0.008332	0.666736
H439	H	0.343373	-0.015419	0.000131
H440	H	0.676706	0.317914	0.333464
H441	H	1.010039	0.651247	0.666797
H442	H	-0.293751	0.138290	0.000159
H443	H	0.039583	0.471624	0.333492
H444	H	0.372916	0.804957	0.666825
H445	H	0.477738	0.154662	0.752948
H446	H	0.811071	0.487995	1.086282
H447	H	1.144405	0.821329	1.419615
H448	H	0.647860	-0.710931	0.000145
H449	H	0.981193	-0.377597	0.333479
H450	H	1.314527	-0.044264	0.666812
Cl451	Cl	0.467334	-0.788777	0.000085
Cl452	Cl	0.800668	-0.455443	0.333419
Cl453	Cl	1.134001	-0.122110	0.666752
H454	H	0.693360	-0.576564	0.000148
H455	H	1.026694	-0.243230	0.333481
H456	H	1.360027	0.090103	0.666815
Cl457	Cl	0.425613	-0.550776	0.000052
Cl458	Cl	0.758946	-0.217442	0.333385
Cl459	Cl	1.092279	0.115891	0.666718
H460	H	0.494162	-0.073803	0.000153
H461	H	0.827496	0.259531	0.333486
H462	H	1.160829	0.592864	0.666819
Cl463	Cl	0.426772	-0.437005	0.000066
Cl464	Cl	0.760105	-0.103671	0.333399
Cl465	Cl	1.093438	0.229662	0.666732
Cl466	Cl	0.525439	0.106960	0.224085
Cl467	Cl	0.858772	0.440293	0.557418
Cl468	Cl	1.192106	0.773627	0.890752
Cl469	Cl	0.506018	0.126386	0.263092
Cl470	Cl	0.839352	0.459719	0.596425
Cl471	Cl	1.172685	0.793053	0.929759
Cl472	Cl	0.434730	0.197626	0.539160
Cl473	Cl	0.768064	0.530959	0.872493
Cl474	Cl	1.101397	0.864293	1.205827
