data_functionalizedCrystal
_audit_creation_method	'MofGen! by Chris Wilmer'
_symmetry_space_group_name_H-M	'P1'
_symmetry_Int_Tables_number	1
_symmetry_cell_setting	triclinic
loop_
_symmetry_equiv_pos_as_xyz
  x,y,z
_cell_length_a	12.759401
_cell_length_b	18.215405
_cell_length_c	12.759401
_cell_angle_alpha	90.013481
_cell_angle_beta	90.002249
_cell_angle_gamma	90.021776
loop_
_atom_site_label
_atom_site_type_symbol
_atom_site_fract_x
_atom_site_fract_y
_atom_site_fract_z
Zn1	Zn	1.606027	-0.293113	0.593961
Zn2	Zn	1.605947	-0.416154	0.418272
Zn3	Zn	1.430380	-0.293104	0.418300
Zn4	Zn	1.430293	-0.416140	0.593913
O5	O	1.518162	-0.354628	0.506112
O6	O	1.753038	-0.309444	0.570664
O7	O	1.582660	-0.399833	0.271255
O8	O	1.453749	-0.190121	0.441634
O9	O	1.752979	-0.399842	0.441586
O10	O	1.582797	-0.190127	0.570691
O11	O	1.453671	-0.309428	0.271276
O12	O	1.283347	-0.309415	0.441588
O13	O	1.453603	-0.399818	0.740940
O14	O	1.283284	-0.399809	0.570610
O15	O	1.582714	-0.309431	0.740976
O16	O	1.582577	-0.519136	0.441539
O17	O	1.453525	-0.519126	0.570582
C18	C	1.245195	-0.354610	0.506097
C19	C	1.128418	-0.354621	0.506116
C20	C	1.073580	-0.307639	0.573431
C21	C	0.963856	-0.307653	0.573437
C22	C	0.963818	-0.401636	0.438811
C23	C	1.073540	-0.401618	0.438800
C24	C	1.073600	-0.253381	0.651159
C25	C	0.963876	-0.253395	0.651166
C26	C	1.518061	-0.545834	0.506075
C27	C	1.518114	-0.627633	0.506095
C28	C	1.585341	-0.815769	0.573386
C29	C	1.585380	-0.892628	0.573406
C30	C	1.451112	-0.892734	0.438902
C31	C	1.451070	-0.815877	0.438889
C32	C	1.518190	-0.777396	0.506129
C33	C	1.518271	-0.931112	0.506162
C34	C	1.518312	-1.014446	0.506183
C35	C	1.518148	-0.694057	0.506110
C36	C	1.792195	-0.354645	0.506127
C37	C	1.908972	-0.354653	0.506133
C38	C	1.518157	-0.354624	0.780145
C39	C	1.518156	-0.354622	0.896921
C40	C	1.518292	-0.162675	0.506171
C41	C	1.518347	-0.080876	0.506196
C42	C	1.585377	-0.307567	0.951803
C43	C	1.585371	-0.307569	1.061528
C44	C	1.450918	-0.401687	1.061478
C45	C	1.450920	-0.401681	0.951756
C46	C	1.663006	-0.253231	0.951833
C47	C	1.662999	-0.253233	1.061557
C48	C	1.518155	-0.354643	1.233144
C49	C	1.518147	-0.354630	1.116368
H50	H	0.919123	-0.439900	0.384005
H51	H	1.640058	-0.923868	0.628176
O52	O	1.378741	-0.934236	0.366358
H53	H	1.390064	-0.994127	0.377652
O54	O	1.378635	-0.774486	0.366341
H55	H	1.389874	-0.714578	0.377639
H56	H	1.396175	-0.439999	1.106137
O57	O	1.770758	-0.273472	1.101016
H58	H	1.823516	-0.283387	1.033317
O59	O	1.657736	-0.774265	0.645904
H60	H	1.639653	-0.788999	0.728349
O61	O	0.924429	-0.273740	0.758896
H62	H	0.876085	-0.324272	0.753521
O63	O	1.634201	-0.177728	0.912416
H64	H	1.562059	-0.181389	0.864081
O65	O	1.378364	-0.452395	0.892556
H66	H	1.331603	-0.485109	0.949122
H67	H	1.740283	-0.273655	0.917796
O68	O	1.624460	-0.181511	1.106679
H69	H	1.604038	-0.143483	1.041868
H70	H	1.103385	-0.196355	0.629510
O71	O	1.132688	-0.452278	0.366178
H72	H	1.111630	-0.510064	0.384039
O73	O	1.118699	-0.280519	0.753470
H74	H	1.091782	-0.337576	0.767921
O75	O	0.918793	-0.181642	0.612760
H76	H	0.983625	-0.143586	0.592398
