data_functionalizedCrystal
_audit_creation_method	'MofGen! by Chris Wilmer'
_symmetry_space_group_name_H-M	'P1'
_symmetry_Int_Tables_number	1
_symmetry_cell_setting	triclinic
loop_
_symmetry_equiv_pos_as_xyz
  x,y,z
_cell_length_a	12.827893
_cell_length_b	21.295417
_cell_length_c	12.827893
_cell_angle_alpha	90.015771
_cell_angle_beta	90.003976
_cell_angle_gamma	90.030477
loop_
_atom_site_label
_atom_site_type_symbol
_atom_site_fract_x
_atom_site_fract_y
_atom_site_fract_z
Zn1	Zn	1.597402	-0.250718	0.590788
Zn2	Zn	1.597297	-0.355959	0.416023
Zn3	Zn	1.422690	-0.250708	0.416062
Zn4	Zn	1.422583	-0.355953	0.590723
O5	O	1.509993	-0.303334	0.503399
O6	O	1.743624	-0.264685	0.567616
O7	O	1.574136	-0.341995	0.269792
O8	O	1.445955	-0.162620	0.439283
O9	O	1.743547	-0.342005	0.439217
O10	O	1.574315	-0.162627	0.567653
O11	O	1.445853	-0.264667	0.269820
O12	O	1.276440	-0.264662	0.439220
O13	O	1.445772	-0.341995	0.736967
O14	O	1.276361	-0.341985	0.567542
O15	O	1.574211	-0.264680	0.737015
O16	O	1.574031	-0.444048	0.439154
O17	O	1.445670	-0.444043	0.567505
C18	C	1.238483	-0.303322	0.503379
C19	C	1.122330	-0.303332	0.503395
C20	C	1.070534	-0.341654	0.566795
C21	C	0.950483	-0.341665	0.566814
C22	C	1.509856	-0.466886	0.503341
C23	C	1.509893	-0.536854	0.503351
C24	C	1.576790	-0.569702	0.436587
C25	C	1.576839	-0.635445	0.436611
C26	C	1.509972	-0.668337	0.503387
C27	C	1.443070	-0.635481	0.570164
C28	C	1.443031	-0.569739	0.570146
N29	N	1.418553	-0.771604	0.511347
N30	N	1.418594	-0.834055	0.511358
C31	C	1.510089	-0.866411	0.503447
N32	N	1.601544	-0.833957	0.495504
N33	N	1.601502	-0.771500	0.495488
C34	C	1.510008	-0.739622	0.503414
C35	C	1.577045	-0.970545	0.436705
C36	C	1.577096	-1.036289	0.436736
C37	C	1.443318	-1.036323	0.570284
C38	C	1.443276	-0.970581	0.570258
C39	C	1.510139	-0.937696	0.503463
C40	C	1.782563	-0.303347	0.503419
C41	C	1.898716	-0.303352	0.503428
C42	C	1.509991	-0.303338	0.775969
C43	C	1.509990	-0.303340	0.892122
C44	C	1.510159	-0.139144	0.503480
C45	C	1.510230	-0.069176	0.503514
C46	C	1.573537	-0.265088	1.063975
C47	C	1.573539	-0.265086	0.943924
C48	C	1.509987	-0.303345	1.231889
C49	C	1.509987	-0.303343	1.115736
H50	H	1.077798	-0.270529	0.449134
O51	O	1.642271	-1.068102	0.371932
C52	C	1.746369	-1.051943	0.394917
H53	H	1.748400	-1.004207	0.435107
H54	H	1.793307	-1.049650	0.319554
H55	H	1.781576	-1.088906	0.448673
O56	O	1.638595	-0.226082	1.117079
C57	C	1.742758	-0.239818	1.090464
H58	H	1.748012	-0.290090	1.060367
H59	H	1.794326	-0.234437	1.162297
H60	H	1.770163	-0.206034	1.027210
O61	O	1.638301	-0.225976	0.890718
C62	C	1.578783	-0.185338	0.827625
H63	H	1.499555	-0.207547	0.811359
H64	H	1.621287	-0.176937	0.750838
H65	H	1.567380	-0.138669	0.869656
H66	H	1.115066	-0.374452	0.621065
H67	H	1.455574	-0.336089	0.936629
O68	O	0.951795	-0.264276	0.438515
C69	C	0.925146	-0.277913	0.334303
H70	H	0.895038	-0.328182	0.328851
H71	H	0.996965	-0.272476	0.282744
H72	H	0.861890	-0.244108	0.307043
O73	O	0.897191	-0.380749	0.631539
C74	C	0.789192	-0.372067	0.617135
H75	H	0.774412	-0.323448	0.583047
H76	H	0.747650	-0.376392	0.695366
H77	H	0.758181	-0.409339	0.561348
O78	O	1.641847	-0.537856	0.371682
C79	C	1.700887	-0.580952	0.312742
H80	H	1.704491	-0.627802	0.355560
H81	H	1.783223	-0.561919	0.301667
H82	H	1.662691	-0.587982	0.233342
H83	H	1.631319	-0.662195	0.382244
H84	H	1.388628	-0.662266	0.624536
H85	H	1.388554	-0.542994	0.624515
H86	H	1.631492	-0.943769	0.382319
O87	O	1.378400	-1.068364	0.635057
C88	C	1.392802	-1.133434	0.620782
H89	H	1.427094	-1.142417	0.540167
H90	H	1.314537	-1.158461	0.627815
H91	H	1.448417	-1.152040	0.682820
O92	O	1.445227	-0.342447	1.062465
C93	C	1.504747	-0.383081	0.999336
H94	H	1.583979	-0.360873	0.983116
H95	H	1.462249	-0.391471	0.922529
H96	H	1.516141	-0.429755	1.041313
H97	H	1.388798	-0.943834	0.624620
