data_functionalizedCrystal
_audit_creation_method	'MofGen! by Chris Wilmer'
_symmetry_space_group_name_H-M	'P1'
_symmetry_Int_Tables_number	1
_symmetry_cell_setting	triclinic
loop_
_symmetry_equiv_pos_as_xyz
  x,y,z
_cell_length_a	10.654550
_cell_length_b	10.540539
_cell_length_c	9.730223
_cell_angle_alpha	89.997733
_cell_angle_beta	89.999957
_cell_angle_gamma	84.505211
loop_
_atom_site_label
_atom_site_type_symbol
_atom_site_fract_x
_atom_site_fract_y
_atom_site_fract_z
O1	O	1.667902	0.178301	-0.114180
O2	O	1.302429	0.195288	-0.114205
O3	O	1.493504	0.002085	-0.114190
O4	O	1.476827	0.371504	-0.114195
O5	O	1.493491	0.002079	0.114390
O6	O	1.302417	0.195282	0.114375
O7	O	1.667889	0.178295	0.114400
Zn8	Zn	1.485151	0.186788	0.150679
Zn9	Zn	1.485167	0.186795	-0.150484
O10	O	1.476815	0.371498	0.114385
C11	C	1.255625	0.194038	0.000082
C12	C	1.116180	0.190306	0.000072
C13	C	1.036735	0.304061	0.000075
C14	C	0.905712	0.300547	0.000099
C15	C	0.933594	0.069513	0.000112
C16	C	1.064614	0.073029	0.000098
C17	C	1.492247	-0.045221	0.000097
C18	C	1.488505	-0.186167	0.000090
C19	C	1.345134	-0.369543	-0.000433
C20	C	1.348927	-0.222926	0.000082
C21	C	1.555670	-0.247852	0.130624
C22	C	1.550906	-0.394395	0.130734
C23	C	1.553759	-0.394908	-0.129204
C24	C	1.555044	-0.247927	-0.130930
C25	C	1.714694	0.179545	0.000110
C26	C	1.854139	0.183277	0.000110
C27	C	1.478072	0.418804	0.000095
C28	C	1.481813	0.559750	0.000093
N29	N	1.485149	0.186782	0.356216
N30	N	1.485179	0.186791	-0.356021
C31	C	1.569786	0.101269	0.428148
C32	C	1.569799	0.101269	0.572031
C33	C	1.400533	0.272309	0.572037
C34	C	1.400516	0.272301	0.428156
H35	H	0.841032	0.393178	0.000104
H36	H	1.129302	-0.019610	0.000100
H37	H	1.509003	-0.205238	0.227758
C38	C	1.748141	-0.271962	-0.259615
C39	C	1.692396	-0.215207	-0.141627
H40	H	1.832929	-0.251731	-0.266230
H41	H	1.746749	-0.361784	-0.254117
H42	H	1.702559	-0.240840	-0.338520
H43	H	1.737973	-0.246335	-0.062721
H44	H	1.693796	-0.125365	-0.147115
C45	C	1.710040	-0.530988	-0.250484
C46	C	1.689857	-0.458709	-0.130398
H47	H	1.794060	-0.570372	-0.251215
H48	H	1.652748	-0.594653	-0.253339
H49	H	1.697018	-0.476949	-0.328339
H50	H	1.702870	-0.512749	-0.052543
H51	H	1.747166	-0.395036	-0.127530
H52	H	0.891593	-0.025970	0.000141
H53	H	1.638698	0.031632	0.369578
H54	H	1.331628	0.341938	0.630625
C55	C	1.231008	-0.262960	-0.203046
C56	C	1.277568	-0.165372	-0.126225
H57	H	1.186941	-0.227428	-0.281016
H58	H	1.299211	-0.321289	-0.232414
H59	H	1.175279	-0.306330	-0.147808
H60	H	1.333304	-0.122007	-0.181460
H61	H	1.209356	-0.107021	-0.096858
C62	C	1.442471	-0.291163	-0.336837
C63	C	1.488808	-0.192637	-0.261304
H64	H	1.401575	-0.257020	-0.417319
H65	H	1.510410	-0.351631	-0.362075
H66	H	1.383986	-0.331645	-0.282345
H67	H	1.547301	-0.152162	-0.315793
H68	H	1.420861	-0.132147	-0.236069
C69	C	1.233208	0.441384	0.442602
C70	C	1.307479	0.366309	0.349077
H71	H	1.175779	0.499419	0.393779
H72	H	1.187571	0.388121	0.498732
H73	H	1.285909	0.487543	0.498710
H74	H	1.254779	0.320142	0.292976
H75	H	1.353119	0.419579	0.292924
H76	H	1.078715	0.399556	0.000064
C77	C	1.163953	-0.466086	0.080937
C78	C	1.270994	-0.410292	0.125218
H79	H	1.118192	-0.491252	0.158512
H80	H	1.112013	-0.406162	0.028139
H81	H	1.189063	-0.538697	0.026147
H82	H	1.245883	-0.337675	0.180001
H83	H	1.322943	-0.470221	0.178039
C84	C	1.151725	-0.195745	0.120959
C85	C	1.277087	-0.166531	0.126616
H86	H	1.107380	-0.160937	0.199088
H87	H	1.113103	-0.160472	0.039781
H88	H	1.149674	-0.285643	0.120196
H89	H	1.279138	-0.076632	0.127369
H90	H	1.315719	-0.201799	0.207816
C91	C	1.448367	-0.323290	0.340504
C92	C	1.483868	-0.432451	0.262438
H93	H	1.406971	-0.346782	0.421808
H94	H	1.521258	-0.282843	0.364352
H95	H	1.392778	-0.266225	0.288297
H96	H	1.539465	-0.489513	0.314641
H97	H	1.410967	-0.472918	0.238593
H98	H	1.290002	-0.398121	-0.094042
H99	H	1.651289	-0.442400	0.136663
H100	H	1.638716	0.031634	0.630595
H101	H	1.658172	-0.225535	0.135484
H102	H	1.508590	-0.426442	-0.228141
