data_functionalizedCrystal
_audit_creation_method	'MofGen! by Chris Wilmer'
_symmetry_space_group_name_H-M	'P1'
_symmetry_Int_Tables_number	1
_symmetry_cell_setting	triclinic
loop_
_symmetry_equiv_pos_as_xyz
  x,y,z
_cell_length_a	14.853569
_cell_length_b	14.853567
_cell_length_c	9.130313
_cell_angle_alpha	90.002541
_cell_angle_beta	90.001735
_cell_angle_gamma	83.635248
loop_
_atom_site_label
_atom_site_type_symbol
_atom_site_fract_x
_atom_site_fract_y
_atom_site_fract_z
O1	O	1.196359	0.117707	-0.121720
O2	O	1.696359	0.617707	0.378280
O3	O	0.933899	0.131727	-0.121736
O4	O	1.433899	0.631727	0.378264
O5	O	1.072140	-0.006513	-0.121732
O6	O	1.572140	0.493487	0.378268
O7	O	1.058118	0.255947	-0.121724
O8	O	1.558118	0.755947	0.378276
O9	O	1.072138	-0.006509	0.121867
O10	O	1.572138	0.493491	0.621867
O11	O	0.933898	0.131730	0.121863
O12	O	1.433898	0.631730	0.621863
O13	O	1.196357	0.117711	0.121879
O14	O	1.696357	0.617711	0.621879
Cu15	Cu	1.065127	0.124721	0.144114
Cu16	Cu	1.565127	0.624721	0.644114
Cu17	Cu	1.065129	0.124716	-0.143970
Cu18	Cu	1.565129	0.624716	0.356030
O19	O	1.058117	0.255950	0.121875
O20	O	1.558117	0.755950	0.621875
C21	C	0.900310	0.131093	0.000061
C22	C	1.400310	0.631093	0.500061
C23	C	0.800226	0.129189	0.000055
C24	C	1.300226	0.629189	0.500055
C25	C	0.763850	0.046178	0.000047
C26	C	1.263850	0.546178	0.500047
C27	C	0.742560	0.210410	0.000068
C28	C	1.242560	0.710410	0.500068
C29	C	0.648526	0.208624	0.000070
C30	C	1.148526	0.708624	0.500070
C31	C	0.612150	0.125613	0.000062
C32	C	1.112150	0.625613	0.500062
C33	C	0.669807	0.044389	0.000053
C34	C	1.169807	0.544389	0.500053
C35	C	0.590862	0.289847	0.000094
C36	C	1.090862	0.789847	0.500094
C37	C	0.496821	0.288064	0.000097
C38	C	0.996821	0.788064	0.500097
C39	C	0.460443	0.205052	0.000079
C40	C	0.960443	0.705052	0.500079
C41	C	0.518107	0.123824	0.000068
C42	C	1.018107	0.623824	0.500068
C43	C	0.481730	0.040813	0.000061
C44	C	0.981730	0.540813	0.500061
C45	C	0.539393	-0.040415	0.000039
C46	C	1.039393	0.459585	0.500039
C47	C	0.633429	-0.038623	0.000035
C48	C	1.133429	0.461377	0.500035
C49	C	0.366407	0.203259	0.000084
C50	C	0.866407	0.703259	0.500084
C51	C	0.387688	0.039024	0.000067
C52	C	0.887688	0.539024	0.500067
C53	C	1.071504	-0.040100	0.000063
C54	C	1.571504	0.459900	0.500063
C55	C	1.069600	-0.140183	0.000051
C56	C	1.569600	0.359817	0.500051
C57	C	0.979434	-0.552718	0.000073
C58	C	1.479434	-0.052718	0.500073
C59	C	1.143667	-0.573998	0.000083
C60	C	1.643667	-0.073998	0.500083
C61	C	1.145457	-0.479964	0.000074
C62	C	1.645457	0.020036	0.500074
C63	C	1.064234	-0.422303	0.000067
C64	C	1.564234	0.077697	0.500067
C65	C	0.981222	-0.458675	0.000069
C66	C	1.481222	0.041325	0.500069
C67	C	1.228468	-0.443585	0.000088
C68	C	1.728468	0.056415	0.500088
C69	C	1.230262	-0.349545	0.000081
C70	C	1.730262	0.150455	0.500081
C71	C	1.149038	-0.291882	0.000063
C72	C	1.649038	0.208118	0.500063
C73	C	1.066022	-0.328260	0.000063
C74	C	1.566022	0.171740	0.500063
C75	C	0.984800	-0.270599	0.000056
C76	C	1.484800	0.229401	0.500056
C77	C	0.901783	-0.306974	0.000046
C78	C	1.401783	0.193026	0.500046
C79	C	0.899998	-0.401012	0.000051
C80	C	1.399998	0.098988	0.500051
C81	C	1.150822	-0.197845	0.000058
C82	C	1.650822	0.302155	0.500058
C83	C	0.986587	-0.176556	0.000052
C84	C	1.486587	0.323444	0.500052
C85	C	1.229947	0.118344	0.000079
C86	C	1.729947	0.618344	0.500079
C87	C	1.330030	0.120249	0.000076
C88	C	1.830030	0.620249	0.500076
C89	C	1.058753	0.289537	0.000077
C90	C	1.558753	0.789537	0.500077
C91	C	1.060657	0.389621	0.000080
C92	C	1.560657	0.889621	0.500080
N93	N	1.065132	0.124723	0.346736
N94	N	1.565132	0.624723	0.846736
N95	N	1.065131	0.124707	-0.346593
N96	N	1.565131	0.624707	0.153407
C97	C	1.126361	0.063532	0.423390
C98	C	1.626361	0.563532	0.923390
C99	C	1.126358	0.063521	0.576727
C100	C	1.626358	0.563521	1.076727
C101	C	1.003896	0.185902	0.576743
C102	C	1.503896	0.685902	1.076743
C103	C	1.003895	0.185907	0.423409
C104	C	1.503895	0.685907	0.923409
C105	C	1.197066	-0.007121	0.423382
C106	C	1.697066	0.492879	0.923382
C107	C	1.197064	-0.007132	0.576719
C108	C	1.697064	0.492868	1.076719
H109	H	0.620487	0.357430	0.000110
H110	H	1.120487	0.857430	0.500110
H111	H	1.262361	0.014349	0.375829
H112	H	1.762361	0.514349	0.875829
F113	F	0.815343	-0.245597	0.000049
F114	F	1.315343	0.254403	0.500049
F115	F	1.287471	0.012377	0.631129
F116	F	1.787471	0.512377	1.131129
F117	F	1.177621	-0.097548	0.368970
F118	F	1.677621	0.402452	0.868970
F119	F	0.435461	0.374513	0.000112
F120	F	0.935461	0.874513	0.500112
H121	H	1.175647	-0.072456	0.624262
H122	H	1.675647	0.427544	1.124262
F123	F	0.891086	-0.591431	0.000049
F124	F	1.391086	-0.091431	0.500049
F125	F	0.694802	-0.125064	0.000024
F126	F	1.194802	0.374936	0.500024
F127	F	1.230104	-0.635367	0.000112
F128	F	1.730104	-0.135367	0.500112
F129	F	0.811654	-0.439732	0.000035
F130	F	1.311654	0.060268	0.500035
H131	H	1.297859	-0.319937	0.000088
H132	H	1.797859	0.180063	0.500088
F133	F	0.348981	-0.049329	0.000048
F134	F	0.848981	0.450671	0.500048
F135	F	0.938726	0.251014	0.658355
F136	F	1.438726	0.751014	1.158355
F137	F	0.305043	0.289702	0.000122
F138	F	0.805043	0.789702	0.500122
F139	F	1.239168	-0.159134	0.000092
F140	F	1.739168	0.340866	0.500092
F141	F	0.500667	-0.128759	0.000043
F142	F	1.000667	0.371241	0.500043
F143	F	0.938718	0.251024	0.341829
F144	F	1.438718	0.751024	0.841829
F145	F	0.825217	-0.040267	0.000021
F146	F	1.325217	0.459733	0.500021
F147	F	0.900137	-0.115195	0.000034
F148	F	1.400137	0.384805	0.500034
F149	F	0.781278	0.298751	0.000081
F150	F	1.281278	0.798751	0.500081
H151	H	1.294595	-0.490539	0.000107
H152	H	1.794595	0.009461	0.500107
