data_functionalizedCrystal
_audit_creation_method	'MofGen! by Chris Wilmer'
_symmetry_space_group_name_H-M	'P1'
_symmetry_Int_Tables_number	1
_symmetry_cell_setting	triclinic
loop_
_symmetry_equiv_pos_as_xyz
  x,y,z
_cell_length_a	12.759401
_cell_length_b	11.169416
_cell_length_c	12.759393
_cell_angle_alpha	89.971305
_cell_angle_beta	89.980163
_cell_angle_gamma	90.011865
loop_
_atom_site_label
_atom_site_type_symbol
_atom_site_fract_x
_atom_site_fract_y
_atom_site_fract_z
Zn1	Zn	1.606287	-0.477687	-0.594041
Zn2	Zn	1.606195	-0.678420	-0.418371
Zn3	Zn	1.430589	-0.477755	-0.418377
Zn4	Zn	1.430591	-0.678332	-0.594008
O5	O	1.518415	-0.578048	-0.506199
O6	O	1.753296	-0.504323	-0.570750
O7	O	1.582861	-0.651866	-0.271350
O8	O	1.453933	-0.309796	-0.441696
O9	O	1.753228	-0.651801	-0.441685
O10	O	1.583018	-0.309746	-0.570756
O11	O	1.453844	-0.504438	-0.271355
O12	O	1.283568	-0.504353	-0.441663
O13	O	1.453937	-0.651651	-0.741033
O14	O	1.283570	-0.651717	-0.570698
O15	O	1.583020	-0.504238	-0.741058
O16	O	1.582863	-0.846358	-0.441653
O17	O	1.453847	-0.846293	-0.570692
C18	C	1.245448	-0.578034	-0.506178
C19	C	1.128671	-0.578056	-0.506194
C20	C	1.073838	-0.654905	-0.573277
C21	C	0.964114	-0.654910	-0.573298
C22	C	0.964067	-0.501213	-0.439144
C23	C	1.073789	-0.501204	-0.439129
C24	C	1.518374	-0.889873	-0.506191
C25	C	1.518452	-1.023273	-0.506223
C26	C	1.792449	-0.578064	-0.506221
C27	C	1.909225	-0.578071	-0.506230
C28	C	1.518489	-0.577927	-0.780233
C29	C	1.518520	-0.577875	-0.897009
C30	C	1.518486	-0.265006	-0.506230
C31	C	1.518516	-0.131606	-0.506243
C32	C	1.451365	-0.501096	-0.951873
C33	C	1.451389	-0.501059	-1.061597
C34	C	1.585733	-0.654584	-1.061584
C35	C	1.585702	-0.654626	-0.951862
C36	C	1.518403	-0.578083	-0.233232
C37	C	1.518575	-0.577796	-0.116456
H38	H	0.919368	-0.438644	-0.384540
O39	O	1.127314	-0.729509	-0.638331
C40	C	1.296365	-0.797557	-0.697818
C41	C	1.235939	-0.713030	-0.624069
H42	H	1.384199	-0.784245	-0.686329
H43	H	1.274850	-0.894337	-0.679231
H44	H	1.274770	-0.776604	-0.782555
H45	H	1.257501	-0.733874	-0.539308
H46	H	1.257459	-0.616275	-0.642746
O47	O	0.911011	-0.729676	-0.638494
C48	C	0.922644	-0.882073	-0.771596
C49	C	0.982912	-0.797480	-0.697793
H50	H	0.980750	-0.936896	-0.819575
H51	H	0.871270	-0.944846	-0.723327
H52	H	0.871283	-0.827032	-0.826579
H53	H	1.034330	-0.852424	-0.642796
H54	H	1.034220	-0.734704	-0.746128
O55	O	1.126899	-0.426511	-0.373860
C56	C	1.115283	-0.274014	-0.240844
C57	C	1.055005	-0.358560	-0.314681
H58	H	1.057183	-0.219036	-0.192994
H59	H	1.166592	-0.328980	-0.185752
H60	H	1.166710	-0.211374	-0.289186
H61	H	1.003521	-0.421217	-0.266423
H62	H	1.003762	-0.303520	-0.369776
H63	H	1.396661	-0.438600	-0.907215
O64	O	1.386185	-0.426592	-1.115054
C65	C	1.326715	-0.358451	-1.284090
C66	C	1.400604	-0.442862	-1.223682
H67	H	1.338363	-0.371559	-1.371927
H68	H	1.241968	-0.379536	-1.262577
H69	H	1.345167	-0.261696	-1.262476
H70	H	1.382246	-0.539646	-1.245264
H71	H	1.485329	-0.421675	-1.245201
O72	O	1.650961	-0.729018	-1.115033
C73	C	1.710505	-0.797045	-1.284059
C74	C	1.636595	-0.712669	-1.223663
H75	H	1.698900	-0.783875	-1.371897
H76	H	1.795244	-0.775985	-1.262572
H77	H	1.692035	-0.893814	-1.262408
H78	H	1.654970	-0.615872	-1.245282
H79	H	1.551878	-0.733833	-1.245156
O80	O	1.650842	-0.729176	-0.898398
C81	C	1.710369	-0.797227	-0.729354
C82	C	1.636537	-0.712760	-0.789771
H83	H	1.698844	-0.783967	-0.641519
H84	H	1.691899	-0.894020	-0.750833
H85	H	1.795086	-0.776166	-0.750994
H86	H	1.551794	-0.733713	-0.768163
H87	H	1.655097	-0.615993	-0.768288
