data_functionalizedCrystal
_audit_creation_method	'MofGen! by Chris Wilmer'
_symmetry_space_group_name_H-M	'P1'
_symmetry_Int_Tables_number	1
_symmetry_cell_setting	triclinic
loop_
_symmetry_equiv_pos_as_xyz
  x,y,z
_cell_length_a	14.519731
_cell_length_b	17.038272
_cell_length_c	12.996460
_cell_angle_alpha	89.993697
_cell_angle_beta	89.994327
_cell_angle_gamma	87.400204
loop_
_atom_site_label
_atom_site_type_symbol
_atom_site_fract_x
_atom_site_fract_y
_atom_site_fract_z
O1	O	1.231705	0.102582	-0.085570
O2	O	0.964153	0.114636	-0.085572
O3	O	1.096339	-0.005209	-0.085563
O4	O	1.099519	0.222427	-0.085579
O5	O	1.096324	-0.005216	0.085571
O6	O	0.964138	0.114629	0.085562
O7	O	1.231690	0.102576	0.085564
Cu8	Cu	1.097913	0.108602	0.101189
Cu9	Cu	1.097931	0.108610	-0.101197
O10	O	1.099504	0.222421	0.085555
C11	C	0.929743	0.114068	-0.000005
C12	C	0.827233	0.112375	-0.000006
C13	C	0.743984	0.111000	-0.000010
C14	C	0.639544	0.109282	-0.000010
C15	C	0.556300	0.107918	-0.000010
C16	C	0.451854	0.106200	-0.000012
C17	C	1.093439	-0.034345	0.000004
C18	C	1.084809	-0.121153	0.000003
C19	C	1.164041	-0.171133	0.000005
C20	C	1.155927	-0.252698	-0.000005
C21	C	1.068580	-0.284280	-0.000009
C22	C	0.989342	-0.234293	-0.000013
C23	C	0.997457	-0.152730	-0.000011
C24	C	1.039911	-0.530086	-0.000023
C25	C	1.031802	-0.611655	-0.000022
C26	C	1.198388	-0.630054	-0.000016
C27	C	1.206496	-0.548489	-0.000007
C28	C	1.127257	-0.498509	-0.000017
C29	C	1.060284	-0.367651	-0.000016
C30	C	1.135554	-0.415140	-0.000018
C31	C	1.266100	0.103144	-0.000005
C32	C	1.368610	0.104836	-0.000012
C33	C	1.102404	0.251557	-0.000014
C34	C	1.111034	0.338364	-0.000021
N35	N	1.097907	0.108596	0.243536
N36	N	1.097944	0.108610	-0.243544
C37	C	1.097930	0.108611	0.663350
C38	C	1.097921	0.108609	0.546545
C39	C	1.097919	0.108604	0.453447
C40	C	1.097909	0.108601	0.336634
H41	H	1.235169	-0.145426	0.000015
C42	C	1.231634	-0.380397	-0.000008
N43	N	1.304001	-0.354221	0.000006
C44	C	0.964204	-0.402400	0.000001
N45	N	0.891836	-0.428575	0.000019
C46	C	1.285544	-0.685038	-0.000014
N47	N	1.351194	-0.726453	-0.000018
C48	C	0.910295	-0.097751	-0.000010
N49	N	0.844641	-0.056341	-0.000012
H50	H	1.277623	-0.522782	-0.000004
C51	C	0.893258	-0.269036	-0.000009
N52	N	0.820886	-0.295203	0.000001
C53	C	0.935709	-0.646392	-0.000035
N54	N	0.863336	-0.672557	-0.000044
H55	H	1.220447	-0.293389	-0.000001
H56	H	0.975389	-0.489401	-0.000031
