data_functionalizedCrystal
_audit_creation_method	'MofGen! by Chris Wilmer'
_symmetry_space_group_name_H-M	'P1'
_symmetry_Int_Tables_number	1
_symmetry_cell_setting	triclinic
loop_
_symmetry_equiv_pos_as_xyz
  x,y,z
_cell_length_a	18.215407
_cell_length_b	13.031981
_cell_length_c	18.215399
_cell_angle_alpha	97.211043
_cell_angle_beta	90.017368
_cell_angle_gamma	97.189335
loop_
_atom_site_label
_atom_site_type_symbol
_atom_site_fract_x
_atom_site_fract_y
_atom_site_fract_z
Zn1	Zn	1.087911	-0.416191	0.378823
Zn2	Zn	1.072212	-0.590982	0.240115
Zn3	Zn	0.964841	-0.416216	0.255774
Zn4	Zn	0.949208	-0.590914	0.363151
O5	O	1.018543	-0.503576	0.309466
O6	O	1.188811	-0.439395	0.360429
O7	O	1.057942	-0.567837	0.139204
O8	O	0.994279	-0.269950	0.285208
O9	O	1.177277	-0.567813	0.258521
O10	O	1.084698	-0.269931	0.375612
O11	O	0.979057	-0.439437	0.150709
O12	O	0.859785	-0.439372	0.270012
O13	O	0.967635	-0.567698	0.468218
O14	O	0.848299	-0.567722	0.348902
O15	O	1.069539	-0.439329	0.479732
O16	O	1.042783	-0.737235	0.243324
O17	O	0.952413	-0.737186	0.333718
C18	C	0.827340	-0.503543	0.309456
C19	C	0.745540	-0.503555	0.309467
C20	C	0.563338	-0.436825	0.362592
C21	C	0.486479	-0.436834	0.362594
C22	C	0.474498	-0.570355	0.256350
C23	C	0.551356	-0.570340	0.256345
C24	C	0.595774	-0.503577	0.309471
C25	C	0.442056	-0.503601	0.309477
C26	C	0.358722	-0.503611	0.309478
C27	C	0.679114	-0.503565	0.309469
C28	C	0.994218	-0.775135	0.285138
C29	C	0.983879	-0.891309	0.274755
C30	C	1.023978	-0.943011	0.314900
C31	C	1.013293	-1.063083	0.304169
C32	C	1.210493	-0.503609	0.309476
C33	C	1.292291	-0.503623	0.309481
C34	C	1.018594	-0.503503	0.501425
C35	C	1.018616	-0.503473	0.583227
C36	C	1.042983	-0.230956	0.333905
C37	C	1.053398	-0.114782	0.344320
C38	C	1.018541	-0.503572	0.118260
C39	C	1.018688	-0.503308	0.036485
C40	C	1.071700	-0.436569	0.777423
C41	C	1.071712	-0.436538	0.854285
C42	C	0.965599	-0.570215	0.842283
C43	C	0.965585	-0.570240	0.765424
C44	C	1.018639	-0.503418	0.732995
C45	C	1.018665	-0.503363	0.886717
C46	C	1.018677	-0.503331	0.970053
C47	C	1.018627	-0.503449	0.649654
H48	H	0.438323	-0.624713	0.213097
F49	F	1.128191	-0.365395	0.901564
F50	F	0.909140	-0.641331	0.876802
H51	H	0.922371	-0.624675	0.729249
H52	H	0.599502	-0.382459	0.405848
F53	F	0.451961	-0.365786	0.419133
H54	H	1.066216	-0.898384	0.357216
H55	H	1.095639	-1.070158	0.386639
H56	H	0.577766	-0.624698	0.213083
H57	H	1.114899	-0.382155	0.751023
F58	F	0.928663	-0.949637	0.219450
H59	H	0.971047	-1.107708	0.261856
