data_functionalizedCrystal
_audit_creation_method	'MofGen! by Chris Wilmer'
_symmetry_space_group_name_H-M	'P1'
_symmetry_Int_Tables_number	1
_symmetry_cell_setting	triclinic
loop_
_symmetry_equiv_pos_as_xyz
  x,y,z
_cell_length_a	17.038272
_cell_length_b	19.188925
_cell_length_c	15.500227
_cell_angle_alpha	92.818783
_cell_angle_beta	86.956295
_cell_angle_gamma	87.127053
loop_
_atom_site_label
_atom_site_type_symbol
_atom_site_fract_x
_atom_site_fract_y
_atom_site_fract_z
O1	O	1.040531	0.148565	-0.071835
O2	O	0.812910	0.146157	-0.071860
O3	O	0.933291	0.046114	-0.071842
O4	O	0.920150	0.248609	-0.071853
O5	O	0.925986	0.052159	0.072046
O6	O	0.805605	0.152203	0.072027
O7	O	1.033226	0.154611	0.072053
Cu8	Cu	0.918748	0.153959	0.085178
Cu9	Cu	0.927387	0.146809	-0.084985
O10	O	0.912845	0.254654	0.072035
C11	C	0.780136	0.146991	0.000080
C12	C	0.693364	0.140459	0.000071
C13	C	0.643061	0.200425	0.000068
C14	C	0.561529	0.194285	0.000080
C15	C	0.530302	0.128177	0.000089
C16	C	0.580611	0.068206	0.000094
C17	C	0.662141	0.074347	0.000088
C18	C	0.284611	0.106480	0.000114
C19	C	0.203075	0.100342	0.000117
C20	C	0.183999	0.226422	0.000105
C21	C	0.265531	0.232558	0.000093
C22	C	0.315833	0.172587	0.000103
C23	C	0.446964	0.121898	0.000099
C24	C	0.399169	0.178866	0.000100
C25	C	0.929214	0.023099	0.000101
C26	C	0.927939	-0.054485	0.000099
C27	C	0.990036	-0.612398	0.000085
C28	C	0.991240	-0.539500	0.000093
C29	C	0.920604	-0.498954	0.000084
C30	C	0.848757	-0.531311	0.000090
C31	C	0.847554	-0.604208	0.000091
N32	N	0.871953	-0.383508	-0.048897
N33	N	0.873101	-0.314260	-0.048899
C34	C	0.924225	-0.279320	0.000084
N35	N	0.974170	-0.316245	0.049060
N36	N	0.973025	-0.385501	0.049058
C37	C	0.921901	-0.419909	0.000084
C38	C	0.997374	-0.167926	0.000093
C39	C	0.998575	-0.095026	0.000106
C40	C	0.856090	-0.086839	0.000095
C41	C	0.854890	-0.159738	0.000091
C42	C	0.925535	-0.200277	0.000085
C43	C	1.066000	0.153777	0.000110
C44	C	1.152772	0.160309	0.000114
C45	C	0.916922	0.277669	0.000090
C46	C	0.918198	0.355253	0.000086
N47	N	0.912678	0.158987	0.204862
N48	N	0.933464	0.141776	-0.204669
C49	C	0.963706	0.116613	0.250147
C50	C	0.959122	0.120423	0.340719
C51	C	0.903513	0.166611	0.386005
C52	C	0.852481	0.208986	0.340714
C53	C	0.857061	0.205173	0.250144
C54	C	0.887012	0.180338	0.659469
C55	C	0.882437	0.184150	0.750046
C56	C	0.989077	0.095585	0.750045
C57	C	0.993656	0.091778	0.659472
C58	C	0.942621	0.134151	0.614189
C59	C	0.898828	0.170507	0.478584
C60	C	0.947303	0.130250	0.521612
H61	H	0.520575	0.243116	0.000077
O62	O	0.831976	0.226049	0.610638
H63	H	0.796166	0.192654	0.569391
H64	H	0.791244	-0.498294	0.000086
H65	H	0.421528	0.068074	0.000131
O66	O	0.779905	-0.043112	0.000091
H67	H	0.742544	-0.052675	0.058741
O68	O	0.777408	-0.194637	0.000083
H69	H	0.728492	-0.154198	0.000073
H70	H	1.008991	0.079005	0.213281
H71	H	0.789053	-0.630546	0.000094
H72	H	1.000672	0.085918	0.377589
O73	O	1.068725	-0.504595	0.000079
H74	H	1.117646	-0.545032	0.000068
O75	O	1.073562	-0.211658	0.000104
H76	H	1.123719	-0.176912	0.000121
H77	H	1.047560	-0.645401	0.000085
H78	H	0.807199	0.246591	0.377591
O79	O	0.838858	0.220327	0.527435
H80	H	0.804140	0.249155	0.480733
H81	H	0.290950	0.286389	0.000076
H82	H	0.815508	0.239677	0.213274
H83	H	0.668479	0.254257	0.000060
H84	H	0.837151	0.221764	0.786914
O85	O	0.169396	0.029035	0.000133
H86	H	0.129731	0.025696	0.058779
O87	O	1.076062	-0.060129	0.000094
H88	H	1.124979	-0.100569	0.000078
O89	O	1.053627	0.041955	0.610627
H90	H	1.088335	0.013123	0.657333
O91	O	1.044115	0.049877	0.798883
H92	H	1.031586	0.060282	0.869470
H93	H	0.992576	0.092641	0.484737
H94	H	0.325558	0.057647	0.000122
O95	O	0.129742	0.291101	0.000113
H96	H	0.095100	0.288857	-0.058524
O97	O	0.546936	-0.003098	0.000111
H98	H	0.513222	-0.011383	-0.058535
O99	O	0.716403	0.009670	0.000089
H100	H	0.680994	-0.037331	0.000088
H101	H	0.424598	0.232691	0.000097
