data_functionalizedCrystal
_audit_creation_method	'MofGen! by Chris Wilmer'
_symmetry_space_group_name_H-M	'P1'
_symmetry_Int_Tables_number	1
_symmetry_cell_setting	triclinic
loop_
_symmetry_equiv_pos_as_xyz
  x,y,z
_cell_length_a	12.594517
_cell_length_b	19.077068
_cell_length_c	19.076919
_cell_angle_alpha	94.470751
_cell_angle_beta	87.719340
_cell_angle_gamma	87.673140
loop_
_atom_site_label
_atom_site_type_symbol
_atom_site_fract_x
_atom_site_fract_y
_atom_site_fract_z
Zn1	Zn	1.584210	0.296687	0.409856
Zn2	Zn	1.584078	0.409840	0.296701
Zn3	Zn	1.413675	0.291971	0.291986
Zn4	Zn	1.398715	0.414536	0.414544
O5	O	1.495169	0.353258	0.353272
O6	O	1.733137	0.311705	0.394858
O7	O	1.567679	0.390265	0.197428
O8	O	1.442612	0.193947	0.303686
O9	O	1.733040	0.394838	0.311723
O10	O	1.567904	0.197412	0.390285
O11	O	1.442485	0.303667	0.193964
O12	O	1.262746	0.308221	0.308231
O13	O	1.417116	0.402843	0.512569
O14	O	1.251755	0.398269	0.398274
O15	O	1.553398	0.316259	0.509125
O16	O	1.553174	0.509112	0.316268
O17	O	1.416988	0.512563	0.402847
C18	C	1.218631	0.353244	0.353250
C19	C	1.100324	0.353255	0.353259
C20	C	1.483603	0.360601	0.537140
C21	C	1.478674	0.363729	0.615494
C22	C	1.483471	0.536417	0.360593
C23	C	1.478562	0.614774	0.363749
C24	C	1.037016	0.304217	0.304371
C25	C	0.963220	0.367822	0.289607
C26	C	0.963318	0.289681	0.368036
C27	C	1.028086	0.416893	0.338462
C28	C	1.028191	0.338709	0.416919
C29	C	0.954423	0.402360	0.402181
C30	C	1.772788	0.353274	0.353294
C31	C	1.891092	0.353281	0.353303
C32	C	1.506942	0.169386	0.345937
C33	C	1.511958	0.091030	0.342811
C34	C	1.547211	0.649768	0.320192
C35	C	1.542600	0.723392	0.323164
C36	C	1.469335	0.762022	0.369690
C37	C	1.400683	0.727023	0.413252
C38	C	1.405300	0.653400	0.410283
C39	C	1.447923	0.982408	0.383404
C40	C	1.443309	1.056036	0.386368
C41	C	1.585229	1.052400	0.296281
C42	C	1.589835	0.978776	0.293313
C43	C	1.521187	0.943783	0.336877
N44	N	1.464618	0.837278	0.372728
N45	N	1.525910	0.868528	0.333843
C46	C	1.506756	0.345894	0.170116
C47	C	1.511903	0.342567	0.091755
C48	C	1.547309	0.320122	0.650513
C49	C	1.542665	0.323059	0.724135
C50	C	1.469390	0.369608	0.762736
C51	C	1.400747	0.413217	0.727712
C52	C	1.405387	0.410276	0.654092
C53	C	1.447900	0.383235	0.983110
C54	C	1.443268	0.386174	1.056736
C55	C	1.585185	0.296015	1.053153
C56	C	1.589823	0.293081	0.979532
C57	C	1.521176	0.336687	0.944514
N58	N	1.464643	0.372613	0.837990
N59	N	1.525918	0.333678	0.869262
H60	H	1.073086	0.262784	0.262982
H61	H	0.934584	0.380141	0.235790
H62	H	1.598558	0.287551	0.752644
C63	C	1.627807	0.607282	0.269008
N64	N	1.688517	0.575283	0.230455
C65	C	1.066478	0.489556	0.321512
N66	N	1.095398	0.544284	0.308742
H67	H	1.392025	0.953923	0.418874
C68	C	1.670421	0.241867	0.937075
N69	N	1.731128	0.203290	0.905097
C70	C	1.362715	1.098527	0.437557
N71	N	1.302015	1.130532	0.476112
C72	C	1.660739	1.090898	0.248366
N73	N	1.717619	1.119895	0.212276
H74	H	1.341033	0.758481	0.451138
C75	C	0.905941	0.458461	0.458057
N76	N	0.869420	0.500717	0.500139
C77	C	1.329781	0.614907	0.458199
N78	N	1.272900	0.585915	0.494294
H79	H	1.606981	0.282219	0.619089
C80	C	1.618113	0.761882	0.275244
N81	N	1.674992	0.790872	0.239146
C82	C	1.660679	0.248042	1.091679
N83	N	1.717538	0.211904	1.120696
H84	H	1.056855	0.326370	0.470719
C85	C	1.320133	0.464414	0.770176
N86	N	1.259413	0.502977	0.802160
C87	C	1.329884	0.458249	0.615571
N88	N	1.273011	0.494382	0.586559
C89	C	1.362653	0.437381	1.099196
N90	N	1.301937	0.475949	1.131177
C91	C	0.924756	0.217034	0.384900
N92	N	0.895716	0.162315	0.397597
H93	H	1.649493	0.947325	0.255428
H94	H	1.392018	0.418753	0.954608
