data_functionalizedCrystal
_audit_creation_method	'MofGen! by Chris Wilmer'
_symmetry_space_group_name_H-M	'P1'
_symmetry_Int_Tables_number	1
_symmetry_cell_setting	triclinic
loop_
_symmetry_equiv_pos_as_xyz
  x,y,z
_cell_length_a	18.215407
_cell_length_b	12.759399
_cell_length_c	12.759393
_cell_angle_alpha	90.030906
_cell_angle_beta	89.977112
_cell_angle_gamma	89.984436
loop_
_atom_site_label
_atom_site_type_symbol
_atom_site_fract_x
_atom_site_fract_y
_atom_site_fract_z
Zn1	Zn	1.125144	0.418203	-0.594072
Zn2	Zn	1.125067	0.593918	-0.418391
Zn3	Zn	1.002070	0.418255	-0.418401
Zn4	Zn	1.002064	0.593842	-0.594022
O5	O	1.063586	0.506055	-0.506221
O6	O	1.228118	0.441522	-0.570784
O7	O	1.108722	0.570670	-0.271371
O8	O	1.018431	0.271227	-0.441729
O9	O	1.228061	0.570619	-0.441712
O10	O	1.108853	0.271189	-0.570794
O11	O	1.018356	0.441612	-0.271378
O12	O	0.899085	0.441537	-0.441681
O13	O	1.018420	0.570489	-0.741050
O14	O	0.899080	0.570540	-0.570709
O15	O	1.108847	0.441448	-0.741086
O16	O	1.108715	0.740929	-0.441663
O17	O	1.018345	0.740873	-0.570699
C18	C	1.063541	0.779022	-0.506197
C19	C	1.063589	0.895799	-0.506222
C20	C	0.872380	0.506037	-0.506191
C21	C	0.790581	0.506054	-0.506203
C22	C	1.063641	0.505954	-0.780255
C23	C	1.063665	0.505911	-0.897032
C24	C	0.602404	0.573331	-0.573304
C25	C	0.525545	0.573335	-0.573317
C26	C	0.525521	0.438797	-0.439162
C27	C	0.602378	0.438789	-0.439155
C28	C	0.640818	0.506062	-0.506224
C29	C	0.487101	0.506073	-0.506244
C30	C	0.403768	0.506076	-0.506258
C31	C	0.724156	0.506058	-0.506212
C32	C	1.255539	0.506073	-0.506252
C33	C	1.337338	0.506081	-0.506265
C34	C	1.063652	0.232021	-0.506268
C35	C	1.063679	0.115245	-0.506288
C36	C	1.110698	0.950655	-0.439110
C37	C	1.110746	1.060379	-0.439145
C38	C	1.016568	1.060381	-0.573408
C39	C	1.016525	0.950659	-0.573377
C40	C	1.110753	0.438708	-0.951914
C41	C	1.110766	0.438663	-1.061638
C42	C	1.016599	0.573032	-1.061587
C43	C	1.016583	0.573071	-0.951865
C44	C	1.063574	0.506079	-0.233254
C45	C	1.063693	0.505826	-0.116478
H46	H	0.494272	0.628111	-0.627941
H47	H	0.978163	0.905992	-0.628033
C48	C	0.483235	0.364799	-0.365388
C49	C	0.525491	0.290795	-0.291609
C50	C	0.483208	0.216795	-0.217835
C51	C	0.398668	0.216797	-0.217840
C52	C	0.356407	0.290804	-0.291622
C53	C	0.398690	0.364805	-0.365396
H54	H	0.588077	0.290791	-0.291603
H55	H	0.514493	0.162010	-0.163217
H56	H	0.367367	0.162018	-0.163228
H57	H	0.293821	0.290808	-0.291628
H58	H	0.367405	0.419589	-0.420014
C59	C	1.162567	0.364743	-1.122010
C60	C	1.162585	0.364689	-1.242700
C61	C	1.214388	0.290764	-1.303070
C62	C	1.266173	0.216894	-1.242751
C63	C	1.266157	0.216945	-1.122054
C64	C	1.214354	0.290870	-1.061683
H65	H	1.124249	0.419374	-1.287358
H66	H	1.214400	0.290726	-1.392418
H67	H	1.304521	0.162170	-1.287441
H68	H	1.304493	0.162260	-1.077396
H69	H	1.214342	0.290907	-0.972335
C70	C	0.964796	1.120729	-0.647272
C71	C	0.964840	1.241419	-0.647308
C72	C	0.913066	1.301765	-0.721173
C73	C	0.861250	1.241421	-0.795001
C74	C	0.861205	1.120724	-0.794968
C75	C	0.912978	1.060379	-0.721103
H76	H	1.003199	1.286096	-0.592654
H77	H	0.913100	1.391113	-0.721198
H78	H	0.822924	1.286093	-0.849680
H79	H	0.822845	1.076048	-0.849622
H80	H	0.912944	0.971031	-0.721078
H81	H	0.978268	0.627713	-1.106246
C82	C	0.644637	0.364791	-0.365357
C83	C	0.634090	0.245365	-0.374126
C84	C	0.676349	0.171369	-0.300334
C85	C	0.729155	0.216799	-0.217772
C86	C	0.739704	0.336231	-0.208999
C87	C	0.697445	0.410227	-0.282792
H88	H	0.594998	0.211730	-0.435246
H89	H	0.668539	0.082958	-0.306828
H90	H	0.760437	0.162022	-0.163146
H91	H	0.778796	0.369866	-0.147879
H92	H	0.705255	0.498638	-0.276298
H93	H	1.149022	0.905991	-0.384430
C94	C	1.162535	0.364826	-0.891595
C95	C	1.156558	0.245384	-0.906701
C96	C	1.208339	0.171497	-0.846385
C97	C	1.266098	0.217052	-0.770964
C98	C	1.272078	0.336500	-0.755855
C99	C	1.220297	0.410387	-0.816171
H100	H	1.113799	0.211656	-0.962535
H101	H	1.203912	0.083074	-0.857570
H102	H	1.304430	0.162357	-0.726315
H103	H	1.314837	0.370228	-0.700021
H104	H	1.224724	0.498811	-0.804986
H105	H	0.978233	0.627794	-0.907179
H106	H	0.633699	0.628107	-0.627919
H107	H	1.149108	1.105038	-0.384497
