data_functionalizedCrystal
_audit_creation_method	'MofGen! by Chris Wilmer'
_symmetry_space_group_name_H-M	'P1'
_symmetry_Int_Tables_number	1
_symmetry_cell_setting	triclinic
loop_
_symmetry_equiv_pos_as_xyz
  x,y,z
_cell_length_a	13.339070
_cell_length_b	13.330367
_cell_length_c	13.339070
_cell_angle_alpha	90.001004
_cell_angle_beta	115.629294
_cell_angle_gamma	90.007766
loop_
_atom_site_label
_atom_site_type_symbol
_atom_site_fract_x
_atom_site_fract_y
_atom_site_fract_z
O1	O	1.496812	0.083450	0.550527
O2	O	1.182002	0.083445	0.478267
O3	O	1.303277	0.083444	0.356992
O4	O	1.375537	0.083451	0.671802
O5	O	1.303252	-0.083403	0.356982
O6	O	1.181977	-0.083402	0.478257
O7	O	1.496786	-0.083397	0.550517
Cu8	Cu	1.339379	-0.098634	0.514386
Cu9	Cu	1.339409	0.098682	0.514398
O10	O	1.375512	-0.083396	0.671791
C11	C	1.140874	0.000021	0.466056
C12	C	1.018360	0.000019	0.429672
N13	N	1.339366	-0.237416	0.514378
C14	C	0.732973	0.000041	0.712571
C15	C	0.848081	0.000046	0.746759
C16	C	0.890657	0.000039	0.667490
C17	C	0.818112	0.000028	0.554028
C18	C	0.702992	0.000031	0.519837
C19	C	0.860676	0.000029	0.474756
C20	C	0.788132	0.000017	0.361294
C21	C	0.673023	0.000020	0.327109
C22	C	0.630448	0.000027	0.406377
C23	C	0.975796	0.000026	0.508947
C24	C	0.945816	0.000015	0.316213
C25	C	0.830707	0.000010	0.282025
C26	C	1.285698	-0.710038	0.568068
C27	C	1.393148	-0.710007	0.460728
C28	C	1.393135	-0.604989	0.460721
C29	C	1.339404	-0.552490	0.514390
C30	C	1.285685	-0.605010	0.568066
C31	C	1.446862	-0.552461	0.407055
C32	C	1.446852	-0.447436	0.407047
C33	C	1.393113	-0.394936	0.460710
C34	C	1.339391	-0.447462	0.514388
C35	C	1.285660	-0.394963	0.568057
C36	C	1.231931	-0.447488	0.621728
C37	C	1.231946	-0.552509	0.621729
C38	C	1.393097	-0.289914	0.460709
C39	C	1.285648	-0.289935	0.568054
C40	C	1.537914	0.000029	0.562728
C41	C	1.660428	0.000037	0.599111
C42	C	1.291058	0.000022	0.315872
C43	C	1.254675	0.000025	0.193358
N44	N	1.339429	0.237463	0.514399
C45	C	1.537574	0.000029	-0.092030
C46	C	1.571761	0.000020	0.023079
C47	C	1.492493	0.000021	0.065654
C48	C	1.379030	0.000031	-0.006890
C49	C	1.344839	0.000032	-0.122010
C50	C	1.299758	0.000025	0.035674
C51	C	1.186296	0.000035	-0.036871
C52	C	1.152111	0.000037	-0.151979
C53	C	1.231380	0.000035	-0.194555
C54	C	1.333949	0.000024	0.150794
C55	C	1.141215	0.000028	0.120813
C56	C	1.107028	0.000037	0.005705
C57	C	1.387730	0.000028	0.712912
C58	C	1.424114	0.000031	0.835426
H59	H	0.984385	0.000045	0.695333
H60	H	1.188188	-0.404731	0.665432
H61	H	0.613959	0.000022	0.234721
H62	H	0.907140	0.000063	0.839139
C63	C	1.173737	-0.609717	0.679992
C64	C	1.185281	-0.712927	0.668537
C65	C	1.131691	-0.765661	0.722210
H66	H	1.097060	-0.592652	0.647515
H67	H	1.206249	-0.592554	0.756661
H68	H	1.152765	-0.730083	0.591882
H69	H	1.261945	-0.730022	0.701018
H70	H	1.164203	-0.748498	0.798879
H71	H	1.055017	-0.748588	0.689728
H72	H	1.139525	-0.835694	0.714453
C73	C	0.983791	0.000094	-0.072883
C74	C	0.921679	0.000120	-0.010971
C75	C	0.808152	0.000188	-0.083328
H76	H	0.966284	-0.058071	-0.118449
H77	H	0.966415	0.058303	-0.118387
H78	H	0.939047	-0.058083	0.034513
H79	H	0.939151	0.058281	0.034591
H80	H	0.790776	0.058397	-0.128832
H81	H	0.790657	-0.057978	-0.128890
H82	H	0.765995	0.000215	-0.041332
C83	C	1.227295	-0.233122	0.626436
C84	C	1.180272	-0.301601	0.673457
C85	C	1.126522	-0.249302	0.727259
H86	H	1.170421	-0.192158	0.574176
H87	H	1.279617	-0.192166	0.683315
H88	H	1.127954	-0.342540	0.616585
H89	H	1.237122	-0.342567	0.725733
H90	H	1.178844	-0.208347	0.784139
H91	H	1.069654	-0.208340	0.674993
H92	H	1.094620	-0.295757	0.759178
H93	H	1.426331	0.000016	0.209849
H94	H	0.698296	0.000056	0.777099
C95	C	1.451367	-0.766880	0.402262
C96	C	1.403274	-0.741329	0.289347
C97	C	1.456880	-0.793697	0.235448
H98	H	1.443711	-0.836964	0.409822
H99	H	1.528015	-0.749636	0.434728
H100	H	1.326645	-0.758580	0.256890
H101	H	1.410929	-0.671255	0.281754
H102	H	1.533528	-0.776453	0.267913
H103	H	1.449220	-0.863779	0.243016
H104	H	1.424264	-0.776362	0.158831
H105	H	1.241948	-0.752806	0.611763
C106	C	1.505072	-0.609340	0.348586
C107	C	1.456983	-0.583781	0.235672
C108	C	1.510578	-0.636157	0.181768
H109	H	1.497403	-0.679423	0.356139
H110	H	1.581724	-0.592108	0.381052
H111	H	1.380351	-0.601020	0.203215
H112	H	1.464652	-0.513707	0.228086
H113	H	1.587229	-0.618925	0.214234
H114	H	1.502905	-0.706237	0.189330
H115	H	1.477964	-0.618816	0.105153
C116	C	1.504793	-0.390411	0.348392
C117	C	1.427236	-0.330272	0.264701
C118	C	1.480484	-0.277770	0.210527
H119	H	1.536673	-0.436705	0.316311
H120	H	1.561635	-0.349279	0.400499
H121	H	1.370414	-0.371400	0.212602
H122	H	1.395352	-0.283958	0.296752
H123	H	1.537326	-0.236638	0.262634
H124	H	1.512362	-0.324072	0.178453
H125	H	1.427872	-0.236953	0.153744
H126	H	1.034852	0.000031	0.601328
C127	C	1.694992	0.000060	0.101656
C128	C	1.757095	0.000085	0.039736
C129	C	1.870625	0.000134	0.112085
H130	H	1.712471	-0.058110	0.147202
H131	H	1.712401	0.058264	0.147180
H132	H	1.739693	-0.058113	-0.005769
H133	H	1.739650	0.058251	-0.005807
H134	H	1.888034	0.058338	0.157610
H135	H	1.888093	-0.058037	0.157628
H136	H	1.912776	0.000161	0.070084
H137	H	1.436849	-0.247154	0.417017
H138	H	1.602102	0.000019	-0.126707
H139	H	0.536718	0.000023	0.378547
H140	H	0.771625	0.000010	0.189642
H141	H	0.980479	0.000014	0.251665
H142	H	1.520335	0.000014	0.159382
H143	H	1.203550	0.000046	-0.288284
H144	H	1.059723	0.000037	-0.211043
H145	H	1.076667	0.000024	0.155477
