data_functionalizedCrystal
_audit_creation_method	'MofGen! by Chris Wilmer'
_symmetry_space_group_name_H-M	'P1'
_symmetry_Int_Tables_number	1
_symmetry_cell_setting	triclinic
loop_
_symmetry_equiv_pos_as_xyz
  x,y,z
_cell_length_a	15.944551
_cell_length_b	15.944480
_cell_length_c	9.130307
_cell_angle_alpha	90.001410
_cell_angle_beta	89.996269
_cell_angle_gamma	96.515708
loop_
_atom_site_label
_atom_site_type_symbol
_atom_site_fract_x
_atom_site_fract_y
_atom_site_fract_z
O1	O	1.114492	-0.108336	0.121627
O2	O	1.614492	0.391664	0.621627
O3	O	0.869939	-0.121693	0.121661
O4	O	1.369939	0.378307	0.621661
O5	O	0.998925	0.007264	0.121656
O6	O	1.498925	0.507264	0.621656
O7	O	0.985506	-0.237293	0.121631
O8	O	1.485506	0.262707	0.621631
O9	O	0.998923	0.007269	-0.121943
O10	O	1.498923	0.507269	0.378057
O11	O	0.869937	-0.121688	-0.121938
O12	O	1.369937	0.378312	0.378062
O13	O	1.114490	-0.108331	-0.121972
O14	O	1.614490	0.391669	0.378028
Cu15	Cu	0.992213	-0.115009	-0.144198
Cu16	Cu	1.492213	0.384991	0.355802
Cu17	Cu	0.992216	-0.115015	0.143886
Cu18	Cu	1.492216	0.384985	0.643886
O19	O	0.985504	-0.237288	-0.121968
O20	O	1.485504	0.262712	0.378032
C21	C	0.838644	-0.121136	-0.000134
C22	C	1.338644	0.378864	0.499866
C23	C	0.745399	-0.119473	-0.000120
C24	C	1.245399	0.380527	0.499880
C25	C	0.530563	-0.035566	-0.000140
C26	C	1.030563	0.464434	0.499860
C27	C	0.469534	-0.074532	0.119963
C28	C	0.969534	0.425468	0.619963
C29	C	0.574674	-0.116466	-0.000137
C30	C	1.074674	0.383534	0.499863
C31	C	0.469555	-0.074547	-0.120207
C32	C	0.969555	0.425453	0.379793
C33	C	0.409762	-0.113555	-0.000160
C34	C	0.909762	0.386445	0.499840
C35	C	0.514873	-0.155454	0.120065
C36	C	1.014873	0.344546	0.620065
C37	C	0.514899	-0.155457	-0.120212
C38	C	1.014899	0.344543	0.379788
C39	C	0.453888	-0.194482	-0.000080
C40	C	0.953888	0.305518	0.499920
C41	C	0.669675	-0.118141	-0.000123
C42	C	1.169675	0.381859	0.499877
C43	C	0.314761	-0.111887	-0.000164
C44	C	0.814761	0.388113	0.499836
C45	C	0.998377	0.038562	-0.000137
C46	C	1.498377	0.538562	0.499863
C47	C	0.996739	0.131811	-0.000118
C48	C	1.496739	0.631811	0.499882
C49	C	1.072670	0.367572	-0.000155
C50	C	1.572670	0.867572	0.499845
C51	C	1.031732	0.418138	0.119958
C52	C	1.531732	0.918138	0.619958
C53	C	0.993702	0.302533	-0.000134
C54	C	1.493702	0.802533	0.499866
C55	C	1.031712	0.418119	-0.120212
C56	C	1.531712	0.918119	0.379788
C57	C	0.990775	0.467444	-0.000156
C58	C	1.490775	0.967444	0.499844
C59	C	0.952786	0.351871	0.120077
C60	C	1.452786	0.851871	0.620077
C61	C	0.952777	0.351848	-0.120200
C62	C	1.452777	0.851848	0.379800
C63	C	0.911781	0.402381	-0.000059
C64	C	1.411781	0.902381	0.499941
C65	C	0.995391	0.207533	-0.000120
C66	C	1.495391	0.707533	0.499880
C67	C	0.989081	0.562441	-0.000160
C68	C	1.489081	1.062441	0.499840
C69	C	1.145785	-0.108888	-0.000174
C70	C	1.645785	0.391112	0.499826
C71	C	1.239031	-0.110550	-0.000179
C72	C	1.739031	0.389450	0.499821
C73	C	0.986063	0.731416	-0.000170
C74	C	1.486063	1.231416	0.499830
C75	C	0.987736	0.638171	-0.000174
C76	C	1.487736	1.138171	0.499826
N77	N	0.992218	-0.115013	0.346509
N78	N	1.492218	0.384987	0.846509
N79	N	0.992218	-0.115004	-0.346821
N80	N	1.492218	0.384996	0.153179
C81	C	1.106659	-0.001032	0.346495
C82	C	1.606659	0.498968	0.846495
C83	C	1.163876	0.055964	0.423154
C84	C	1.663876	0.555964	0.923154
C85	C	1.163876	0.055974	0.576488
C86	C	1.663876	0.555974	1.076488
C87	C	1.106653	-0.001021	0.653165
C88	C	1.606653	0.498979	1.153165
C89	C	1.049436	-0.058018	0.576505
C90	C	1.549436	0.441982	1.076505
C91	C	1.049441	-0.058019	0.423168
C92	C	1.549441	0.441981	0.923168
C93	C	0.935000	-0.172001	0.576520
C94	C	1.435000	0.327999	1.076520
C95	C	0.934995	-0.172008	0.423186
C96	C	1.434995	0.327992	0.923186
C97	C	0.877778	-0.228996	0.653197
C98	C	1.377778	0.271004	1.153197
C99	C	0.820555	-0.285989	0.576537
C100	C	1.320555	0.214011	1.076537
C101	C	0.820557	-0.285996	0.423195
C102	C	1.320557	0.214004	0.923195
C103	C	0.877778	-0.229004	0.346527
C104	C	1.377778	0.270996	0.846527
H105	H	1.140687	0.351944	-0.000043
H106	H	1.640687	0.851944	0.499957
Cl107	Cl	0.748627	-0.357658	0.326837
Cl108	Cl	1.248627	0.142342	0.826837
H109	H	0.843711	0.417847	0.000017
H110	H	1.343711	0.917847	0.500017
Cl111	Cl	0.901349	0.307115	-0.276975
Cl112	Cl	1.401349	0.807115	0.223025
H113	H	0.877782	-0.229001	0.221674
H114	H	1.377782	0.270999	0.721674
Cl115	Cl	0.877780	-0.228990	0.845960
Cl116	Cl	1.377780	0.271010	1.345960
H117	H	0.449433	-0.040317	0.221509
H118	H	0.949433	0.459683	0.721509
Cl119	Cl	0.748631	-0.357637	0.672935
Cl120	Cl	1.248631	0.142363	1.172935
Cl121	Cl	0.438557	-0.021695	-0.276971
Cl122	Cl	0.938557	0.478305	0.223029
Cl123	Cl	1.106654	-0.001027	0.153731
Cl124	Cl	1.606654	0.498973	0.653731
H125	H	1.210468	0.102367	0.360710
H126	H	1.710468	0.602367	0.860710
Cl127	Cl	1.235811	0.127623	0.672862
Cl128	Cl	1.735811	0.627623	1.172862
Cl129	Cl	0.582015	0.068107	0.000047
Cl130	Cl	1.082015	0.568107	0.500047
H131	H	0.534852	-0.189648	0.221714
H132	H	1.034852	0.310352	0.721714
Cl133	Cl	1.083220	0.462829	0.276722
Cl134	Cl	1.583220	0.962829	0.776722
H135	H	0.420712	-0.261692	-0.000019
H136	H	0.920712	0.238308	0.499981
Cl137	Cl	0.901331	0.307378	0.277029
Cl138	Cl	1.401331	0.807378	0.777029
H139	H	1.065077	0.447052	-0.221750
H140	H	1.565077	0.947052	0.278250
Cl141	Cl	1.106664	-0.001020	0.845928
Cl142	Cl	1.606664	0.498980	1.345928
Cl143	Cl	0.545971	-0.208240	-0.276999
Cl144	Cl	1.045971	0.291760	0.223001
