data_functionalizedCrystal
_audit_creation_method	'MofGen! by Chris Wilmer'
_symmetry_space_group_name_H-M	'P1'
_symmetry_Int_Tables_number	1
_symmetry_cell_setting	triclinic
loop_
_symmetry_equiv_pos_as_xyz
  x,y,z
_cell_length_a	25.639242
_cell_length_b	25.639240
_cell_length_c	19.805399
_cell_angle_alpha	89.969206
_cell_angle_beta	90.026812
_cell_angle_gamma	89.961937
loop_
_atom_site_label
_atom_site_type_symbol
_atom_site_fract_x
_atom_site_fract_y
_atom_site_fract_z
Zn1	Zn	0.799236	0.208234	0.382835
Zn2	Zn	0.799144	0.295668	0.269641
Zn3	Zn	0.711804	0.208241	0.269645
Zn4	Zn	0.711750	0.295632	0.382773
O5	O	0.755484	0.251944	0.326224
O6	O	0.872389	0.219844	0.367844
O7	O	0.787543	0.284088	0.174925
O8	O	0.723463	0.135075	0.284688
O9	O	0.872322	0.284082	0.284680
O10	O	0.787699	0.135070	0.367848
O11	O	0.723374	0.219856	0.174928
O12	O	0.638632	0.219821	0.284628
O13	O	0.723371	0.284021	0.477498
O14	O	0.638592	0.284028	0.367742
O15	O	0.787646	0.219810	0.477544
O16	O	0.787491	0.368829	0.284620
O17	O	0.723283	0.368802	0.367738
C18	C	0.619641	0.251922	0.326179
C19	C	0.561527	0.251925	0.326177
C20	C	0.310345	0.218456	0.283021
C21	C	0.364950	0.218451	0.283012
O22	O	0.393196	0.189963	0.246281
N23	N	0.392253	0.251931	0.326211
C24	C	0.364950	0.285415	0.369426
O25	O	0.393187	0.313892	0.406169
C26	C	0.310346	0.285417	0.369437
C27	C	0.283046	0.251938	0.326231
C28	C	0.283045	0.184979	0.239819
C29	C	0.228444	0.184985	0.239826
C30	C	0.201144	0.218467	0.283037
C31	C	0.228445	0.251944	0.326239
C32	C	0.283044	0.318898	0.412655
C33	C	0.228436	0.318896	0.412663
C34	C	0.201136	0.285417	0.369457
C35	C	0.146545	0.285431	0.369457
N36	N	0.119241	0.251951	0.326258
C37	C	0.146541	0.218469	0.283048
C38	C	0.479620	0.285408	0.369399
C39	C	0.534222	0.285409	0.369385
C40	C	0.534219	0.218444	0.282972
C41	C	0.479616	0.218446	0.282983
C42	C	0.452317	0.251928	0.326200
C43	C	0.031876	0.218484	0.283067
C44	C	-0.022729	0.218494	0.283077
C45	C	-0.022721	0.285457	0.369492
C46	C	0.031879	0.285449	0.369480
C47	C	0.059177	0.251958	0.326266
O48	O	0.118263	0.313903	0.406171
O49	O	0.118297	0.189992	0.246317
C50	C	0.755385	0.387786	0.326186
C51	C	0.755391	0.445900	0.326193
C52	C	0.788961	0.806264	0.282992
C53	C	0.788977	0.860869	0.282998
O54	O	0.817450	0.889106	0.246246
N55	N	0.755526	0.888183	0.326239
C56	C	0.722061	0.860890	0.369480
O57	O	0.693610	0.889136	0.406260
C58	C	0.722048	0.806286	0.369477
C59	C	0.755497	0.778975	0.326229
C60	C	0.822408	0.778953	0.239748
C61	C	0.822391	0.724353	0.239741
C62	C	0.788927	0.697063	0.282977
C63	C	0.755480	0.724375	0.326221
C64	C	0.688585	0.778994	0.412721
C65	C	0.688575	0.724387	0.412714
C66	C	0.722025	0.697076	0.369466
C67	C	0.721999	0.642485	0.369451
N68	N	0.755450	0.615171	0.326211
C69	C	0.788914	0.642460	0.282974
C70	C	0.722091	0.975560	0.369485
C71	C	0.722101	1.030163	0.369486
C72	C	0.789018	1.030138	0.283005
C73	C	0.789005	0.975535	0.283001
C74	C	0.755542	0.948246	0.326245
C75	C	0.788876	0.527795	0.282962
C76	C	0.788855	0.473190	0.282956
C77	C	0.721940	0.473219	0.369439
C78	C	0.721959	0.527820	0.369443
C79	C	0.755431	0.555106	0.326201
O80	O	0.693543	0.614213	0.406186
O81	O	0.817365	0.614207	0.246206
C82	C	0.891857	0.251966	0.326268
C83	C	0.949971	0.251976	0.326287
C84	C	0.755513	0.251911	0.502766
C85	C	0.755526	0.251897	0.577998
C86	C	0.755577	1.115571	0.326264
C87	C	0.755567	1.057457	0.326251
C88	C	0.755485	0.251939	0.150368
C89	C	0.755573	0.251806	0.075136
C90	C	0.788994	0.218460	0.613367
C91	C	0.789000	0.218445	0.684056
C92	C	0.755539	0.251870	0.719374
C93	C	0.722066	0.285307	0.684000
C94	C	0.722058	0.285320	0.613313
C95	C	0.722096	0.285259	0.969074
C96	C	0.722107	0.285245	1.039766
C97	C	0.789037	0.218384	1.039817
C98	C	0.789029	0.218396	0.969129
C99	C	0.755555	0.251832	0.933762
C100	C	0.755549	0.251848	0.857113
C101	C	0.755547	0.251857	0.796021
H102	H	0.556446	0.312677	0.404560
H103	H	0.816255	0.191219	0.712850
F104	F	0.450571	0.321050	0.415395
H105	H	0.694856	0.312464	1.068520
H106	H	0.694846	0.312492	0.940286
H107	H	0.816244	0.191244	0.584616
H108	H	0.694819	0.312520	0.712762
H109	H	-0.044955	0.191230	0.247891
F110	F	0.824645	0.182824	0.931545
F111	F	0.652988	0.808049	0.458758
H112	H	0.305262	0.346160	0.447838
H113	H	0.556456	0.191180	0.247789
F114	F	0.686435	0.320906	0.575671
H115	H	0.206221	0.157723	0.204644
H116	H	0.457391	0.191183	0.247803
H117	H	0.206213	0.346160	0.447859
F118	F	0.858029	0.807988	0.193727
F119	F	0.686328	0.444166	0.415454
H120	H	0.054095	0.191210	0.247881
F121	F	0.686469	0.946523	0.415510
H122	H	0.816133	0.550005	0.247752
H123	H	0.816291	0.191157	1.068622
F124	F	0.060936	0.321086	0.415458
F125	F	-0.051785	0.321095	0.415469
F126	F	0.312091	0.149338	0.193826
F127	F	0.824457	0.444126	0.236923
H128	H	0.849630	0.702119	0.204527
F129	F	0.824633	1.059191	0.236987
F130	F	0.824606	0.946473	0.236972
F131	F	0.686494	1.059223	0.415509
H132	H	0.661326	0.702172	0.447930
F133	F	0.686349	0.556887	0.415459
