data_functionalizedCrystal
_audit_creation_method	'MofGen! by Chris Wilmer'
_symmetry_space_group_name_H-M	'P1'
_symmetry_Int_Tables_number	1
_symmetry_cell_setting	triclinic
loop_
_symmetry_equiv_pos_as_xyz
  x,y,z
_cell_length_a	12.827893
_cell_length_b	16.120507
_cell_length_c	12.827885
_cell_angle_alpha	92.861764
_cell_angle_beta	90.019272
_cell_angle_gamma	87.066230
loop_
_atom_site_label
_atom_site_type_symbol
_atom_site_fract_x
_atom_site_fract_y
_atom_site_fract_z
Zn1	Zn	1.576443	0.331868	0.611880
Zn2	Zn	1.909776	0.665201	0.945213
Zn3	Zn	2.243110	0.998534	1.278546
Zn4	Zn	1.567419	0.471303	0.445976
Zn5	Zn	1.900752	0.804637	0.779310
Zn6	Zn	2.234085	1.137970	1.112643
Zn7	Zn	1.401682	0.331908	0.437156
Zn8	Zn	1.735015	0.665242	0.770489
Zn9	Zn	2.068348	0.998575	1.103822
Zn10	Zn	1.392755	0.471241	0.620672
Zn11	Zn	1.726088	0.804575	0.954006
Zn12	Zn	2.059422	1.137908	1.287339
O13	O	1.484575	0.401580	0.528921
O14	O	1.817908	0.734914	0.862254
O15	O	2.151241	1.068247	1.195588
O16	O	1.721481	0.350373	0.589884
O17	O	2.054815	0.683706	0.923217
O18	O	2.388148	1.017040	1.256550
O19	O	1.545392	0.452855	0.298573
O20	O	1.878726	0.786189	0.631906
O21	O	2.212059	1.119522	0.965239
O22	O	1.432377	0.215237	0.452962
O23	O	1.765710	0.548570	0.786296
O24	O	2.099043	0.881904	1.119629
O25	O	1.714851	0.452816	0.467995
O26	O	2.048184	0.786149	0.801329
O27	O	2.381518	1.119483	1.134662
O28	O	1.560773	0.215207	0.581331
O29	O	1.894106	0.548541	0.914664
O30	O	2.227440	0.881874	1.247998
O31	O	1.423626	0.350442	0.292092
O32	O	1.756960	0.683776	0.625426
O33	O	2.090293	1.017109	0.958759
O34	O	1.254262	0.350382	0.461488
O35	O	1.587595	0.683715	0.794821
O36	O	1.920929	1.017049	1.128155
O37	O	1.417163	0.452710	0.765739
O38	O	1.750496	0.786044	1.099073
O39	O	2.083829	1.119377	1.432406
O40	O	1.247704	0.452750	0.596317
O41	O	1.581037	0.786083	0.929650
O42	O	1.914370	1.119416	1.262983
O43	O	1.552117	0.350313	0.759279
O44	O	1.885451	0.683646	1.092613
O45	O	2.218784	1.016980	1.425946
O46	O	1.536736	0.587961	0.476521
O47	O	1.870070	0.921294	0.809854
O48	O	2.203403	1.254628	1.143188
O49	O	1.408412	0.587915	0.604870
O50	O	1.741745	0.921249	0.938203
O51	O	2.075079	1.254582	1.271536
C52	C	1.213066	0.401564	0.528900
C53	C	1.546399	0.734897	0.862233
C54	C	1.879732	1.068231	1.195567
C55	C	1.096912	0.401577	0.528917
C56	C	1.430245	0.734911	0.862250
C57	C	1.763578	1.068244	1.195584
C58	C	1.041904	0.452311	0.595542
C59	C	1.375238	0.785644	0.928875
C60	C	1.708571	1.118978	1.262208
C61	C	0.921853	0.452326	0.595561
C62	C	1.255186	0.785659	0.928894
C63	C	1.588520	1.118993	1.262228
C64	C	1.470655	0.618188	0.542629
C65	C	1.803988	0.951522	0.875963
C66	C	2.137321	1.284855	1.209296
C67	C	1.464795	0.710854	0.548529
C68	C	1.798129	1.044188	0.881862
C69	C	2.131462	1.377521	1.215195
C70	C	1.515066	0.921799	0.498479
C71	C	1.848399	1.255132	0.831812
C72	C	2.181732	1.588465	1.165145
C73	C	1.454117	0.880511	0.559311
C74	C	1.787450	1.213844	0.892644
C75	C	2.120783	1.547177	1.225977
C76	C	1.460060	0.786105	0.553310
C77	C	1.793393	1.119438	0.886643
C78	C	2.126727	1.452772	1.219976
C79	C	1.509124	1.016213	0.504478
C80	C	1.842457	1.349546	0.837812
C81	C	2.175791	1.682879	1.171145
C82	C	1.757144	0.401597	0.528943
C83	C	2.090477	0.734930	0.862276
C84	C	2.423810	1.068264	1.195609
C85	C	1.873296	0.401604	0.528952
C86	C	2.206630	0.734937	0.862285
C87	C	2.539963	1.068271	1.195619
C88	C	1.484651	0.401500	0.801486
C89	C	1.817984	0.734833	1.134820
C90	C	2.151317	1.068167	1.468153
C91	C	1.484683	0.401466	0.917637
C92	C	1.818017	0.734799	1.250971
C93	C	2.151350	1.068133	1.584304
C94	C	1.498537	1.184126	0.515166
C95	C	1.831870	1.517460	0.848499
C96	C	2.165204	1.850793	1.181833
C97	C	1.504384	1.091460	0.509264
C98	C	1.837717	1.424794	0.842597
C99	C	2.171051	1.758127	1.175930
C100	C	1.484563	0.401600	0.257412
C101	C	1.817896	0.734933	0.590746
C102	C	2.151229	1.068266	0.924079
C103	C	1.484748	0.401399	0.141247
C104	C	1.818081	0.734732	0.474580
C105	C	2.151414	1.068066	0.807914
C106	C	1.551471	0.350787	0.966225
C107	C	1.884804	0.684120	1.299558
C108	C	2.218137	1.017453	1.632891
C109	C	1.551506	0.350750	1.086273
C110	C	1.884839	0.684084	1.419606
C111	C	2.218172	1.017417	1.752940
H112	H	1.083688	0.495732	0.652571
H113	H	1.417021	0.829066	0.985904
H114	H	1.750355	1.162399	1.319237
H115	H	1.608620	0.307422	0.918947
H116	H	1.941954	0.640756	1.252280
H117	H	2.275287	0.974089	1.585614
H118	H	1.427569	0.444793	1.099458
H119	H	1.760902	0.778126	1.432791
H120	H	2.094236	1.111460	1.766124
H121	H	0.874560	0.495763	0.652598
H122	H	1.207893	0.829097	0.985931
H123	H	1.541227	1.162430	1.319265
H124	H	1.608688	0.307365	1.128070
H125	H	1.942022	0.640698	1.461403
H126	H	2.275355	0.974031	1.794736
H127	H	1.055128	0.358150	0.471896
H128	H	1.388462	0.691483	0.805229
H129	H	1.721795	1.024817	1.138562
Cl130	Cl	0.946300	0.334542	0.440873
Cl131	Cl	1.279633	0.667876	0.774207
Cl132	Cl	1.612967	1.001209	1.107540
Cl133	Cl	1.366658	0.935398	0.646673
Cl134	Cl	1.699991	1.268731	0.980006
Cl135	Cl	2.033325	1.602064	1.313339
Cl136	Cl	1.602512	0.866911	0.411115
Cl137	Cl	1.935845	1.200244	0.744449
Cl138	Cl	2.269178	1.533577	1.077782
H139	H	1.427524	0.444822	0.964914
H140	H	1.760857	0.778155	1.298248
H141	H	2.094190	1.111489	1.631581
