data_functionalizedCrystal
_audit_creation_method	'MofGen! by Chris Wilmer'
_symmetry_space_group_name_H-M	'P1'
_symmetry_Int_Tables_number	1
_symmetry_cell_setting	triclinic
loop_
_symmetry_equiv_pos_as_xyz
  x,y,z
_cell_length_a	10.540539
_cell_length_b	10.540510
_cell_length_c	12.503572
_cell_angle_alpha	93.560801
_cell_angle_beta	86.448196
_cell_angle_gamma	84.519401
loop_
_atom_site_label
_atom_site_type_symbol
_atom_site_fract_x
_atom_site_fract_y
_atom_site_fract_z
O1	O	1.693118	0.171630	-0.089264
O2	O	1.323704	0.188485	-0.089276
O3	O	1.516859	-0.004652	-0.089269
O4	O	1.499964	0.364766	-0.089271
O5	O	1.502333	0.009898	0.089372
O6	O	1.309178	0.203034	0.089365
O7	O	1.678592	0.186179	0.089378
Cu8	Cu	1.492559	0.195935	0.105683
Cu9	Cu	1.509738	0.178729	-0.105581
O10	O	1.485437	0.379315	0.089371
C11	C	1.269139	0.194495	0.000043
C12	C	1.128191	0.190713	0.000038
C13	C	0.944746	0.045828	0.000455
C14	C	1.091397	0.049628	0.000042
C15	C	1.074806	0.250301	-0.101971
C16	C	0.928268	0.245480	-0.102046
C17	C	0.911261	0.264895	0.101103
C18	C	1.058134	0.266304	0.102440
C19	C	1.508337	-0.044681	0.000049
C20	C	1.504571	-0.185631	0.000043
C21	C	1.638721	-0.403053	0.000456
C22	C	1.642772	-0.256491	0.000048
C23	C	1.442120	-0.238698	-0.101971
C24	C	1.439087	-0.385466	-0.102051
C25	C	1.419690	-0.368729	0.101098
C26	C	1.426136	-0.222278	0.102441
C27	C	1.733158	0.180168	0.000056
C28	C	1.874106	0.183950	0.000054
C29	C	1.493960	0.419344	0.000050
C30	C	1.497726	0.560294	0.000050
N31	N	1.480485	0.208036	0.254275
N32	N	1.521821	0.166618	-0.254173
C33	C	1.462725	0.225848	0.473389
C34	C	1.539577	0.148810	0.526719
C35	C	1.529695	0.158721	0.648642
C36	C	1.472605	0.215939	0.351455
H37	H	0.910218	-0.003951	0.073612
H38	H	1.704404	-0.234051	-0.073201
H39	H	1.389513	0.299242	0.519294
Br40	Br	1.156081	0.161389	-0.228510
H41	H	1.081848	0.369666	0.108599
H42	H	1.493636	-0.431891	-0.178304
Br43	Br	0.848218	0.199288	0.229980
H44	H	1.092965	0.222849	0.177906
Br45	Br	1.737812	-0.485437	-0.120781
Br46	Br	1.257125	-0.139666	0.112707
H47	H	0.863967	0.366856	0.101792
H48	H	1.315871	-0.390823	0.101782
Br49	Br	1.662153	0.027015	0.450207
Br50	Br	1.725083	-0.197642	0.121949
H51	H	1.128071	0.002160	0.073167
H52	H	1.686614	-0.439050	0.073616
Br53	Br	0.904260	-0.056566	-0.120787
Br54	Br	1.501694	-0.164336	0.228232
H55	H	1.336096	-0.408837	-0.106676
Br56	Br	0.848919	0.413962	-0.109763
Br57	Br	1.534294	-0.197583	-0.228505
Br58	Br	0.891585	0.151492	-0.229138
Br59	Br	1.170893	-0.049603	-0.122260
H60	H	1.097457	0.353601	-0.105767
H61	H	1.340686	-0.191619	-0.105767
Br62	Br	1.481914	-0.429080	0.229973
