data_functionalizedCrystal
_audit_creation_method	'MofGen! by Chris Wilmer'
_symmetry_space_group_name_H-M	'P1'
_symmetry_Int_Tables_number	1
_symmetry_cell_setting	triclinic
loop_
_symmetry_equiv_pos_as_xyz
  x,y,z
_cell_length_a	6.817900
_cell_length_b	15.300923
_cell_length_c	15.300912
_cell_angle_alpha	94.942361
_cell_angle_beta	75.826379
_cell_angle_gamma	75.826251
loop_
_atom_site_label
_atom_site_type_symbol
_atom_site_fract_x
_atom_site_fract_y
_atom_site_fract_z
V1	V	4.037840	-0.281419	-0.125371
O2	O	4.021581	-0.275781	0.005394
O3	O	3.992707	-0.279765	-0.247984
O4	O	3.992709	-0.404032	-0.123720
O5	O	4.021579	-0.150653	-0.119731
V6	V	4.520621	-0.265746	-0.109698
O7	O	4.300726	-0.315800	-0.159753
O8	O	4.707933	-0.231364	-0.075316
O9	O	4.342548	-0.267400	0.012915
O10	O	4.654277	-0.271384	-0.240463
O11	O	4.654279	-0.396512	-0.115338
O12	O	4.342546	-0.143133	-0.111350
C13	C	3.838396	-0.275395	-0.277866
C14	C	3.882803	-0.274860	-0.378105
C15	C	4.256523	-0.277067	-0.814475
C16	C	4.214780	-0.277563	-0.720288
C17	C	4.011548	-0.273308	-0.668599
C18	C	3.850045	-0.268546	-0.711099
C19	C	3.891786	-0.268042	-0.805283
C20	C	3.763057	-0.269597	-0.514790
C21	C	3.721312	-0.270102	-0.420600
C22	C	4.086050	-0.279118	-0.429795
C23	C	4.127791	-0.278614	-0.523979
C24	C	3.966286	-0.273854	-0.566474
C25	C	3.838398	-0.433909	-0.119353
C26	C	3.882803	-0.534148	-0.118814
C27	C	4.256525	-0.970517	-0.121018
C28	C	4.214788	-0.876332	-0.121527
C29	C	4.011552	-0.824642	-0.117265
C30	C	3.850050	-0.867143	-0.112503
C31	C	3.891792	-0.961327	-0.112001
C32	C	3.763057	-0.670833	-0.113549
C33	C	3.721310	-0.576642	-0.114049
C34	C	4.086052	-0.585839	-0.123075
C35	C	4.127795	-0.680023	-0.122572
C36	C	3.966288	-0.722516	-0.117809
C37	C	4.160201	-0.271767	0.042792
C38	C	4.095033	-0.272308	0.143030
C39	C	4.160199	-0.113251	-0.115719
C40	C	4.095033	-0.013011	-0.116254
H41	H	4.293281	-0.282087	-0.566064
C42	C	4.351356	-0.736879	-0.127250
N43	N	4.519746	-0.779703	-0.130773
C44	C	4.263716	-0.539095	-0.128323
N45	N	4.397524	-0.503884	-0.132275
C46	C	3.714134	-1.008069	-0.106757
N47	N	3.580316	-1.043274	-0.102809
C48	C	4.263705	-0.284348	-0.383049
N49	N	4.397508	-0.288290	-0.347836
H50	H	3.555828	-0.266640	-0.378517
C51	C	4.480092	-0.281748	-0.871325
N52	N	4.648487	-0.285270	-0.914142
H53	H	3.684564	-0.265075	-0.669005
H54	H	4.346287	-0.281442	-0.685694
H55	H	3.631542	-0.265729	-0.549387
H56	H	3.760285	-0.264175	-0.839882
H57	H	4.422016	-1.012597	-0.124486
H58	H	4.346295	-0.841739	-0.125407
H59	H	3.555793	-0.534549	-0.110524
H60	H	3.631539	-0.705428	-0.109672
H61	H	3.684572	-0.825050	-0.109039
