data_functionalizedCrystal
_audit_creation_method	'MofGen! by Chris Wilmer'
_symmetry_space_group_name_H-M	'P1'
_symmetry_Int_Tables_number	1
_symmetry_cell_setting	triclinic
loop_
_symmetry_equiv_pos_as_xyz
  x,y,z
_cell_length_a	11.792254
_cell_length_b	10.654541
_cell_length_c	9.130307
_cell_angle_alpha	90.003083
_cell_angle_beta	89.998530
_cell_angle_gamma	95.658737
loop_
_atom_site_label
_atom_site_type_symbol
_atom_site_fract_x
_atom_site_fract_y
_atom_site_fract_z
O1	O	1.507292	-0.172209	-0.121798
O2	O	1.176994	-0.189933	-0.121801
O3	O	1.349738	0.001689	-0.121790
O4	O	1.334547	-0.363832	-0.121808
O5	O	1.349733	0.001691	0.121809
O6	O	1.176988	-0.189931	0.121798
O7	O	1.507286	-0.172207	0.121801
Cu8	Cu	1.342137	-0.181069	0.144042
Cu9	Cu	1.342143	-0.181071	-0.144042
O10	O	1.334541	-0.363830	0.121791
C11	C	1.134697	-0.188816	-0.000001
C12	C	1.008677	-0.185474	-0.000003
N13	N	1.342140	-0.181067	0.346665
C14	C	1.348621	0.048485	0.000009
C15	C	1.345285	0.187919	0.000006
C16	C	0.906334	-0.182759	-0.000009
C17	C	0.777940	-0.179364	-0.000009
C18	C	1.549582	-0.173325	-0.000001
C19	C	1.675603	-0.176667	-0.000009
C20	C	1.335659	-0.410626	-0.000011
C21	C	1.338995	-0.550060	-0.000018
C22	C	1.551849	0.216464	0.000027
C23	C	1.653558	0.296241	0.000040
C24	C	1.650418	0.427250	0.000035
C25	C	1.545555	0.478484	0.000013
C26	C	1.443845	0.398707	-0.000000
C27	C	1.446998	0.267697	0.000009
C28	C	1.237285	0.370163	-0.000031
C29	C	1.240423	0.239153	-0.000016
C30	C	1.132423	0.421397	-0.000053
C31	C	1.030710	0.341620	-0.000056
C32	C	1.033856	0.210603	-0.000050
C33	C	1.138713	0.159377	-0.000029
N34	N	1.342149	-0.181064	-0.346664
C35	C	1.495169	-0.011435	0.346665
C36	C	1.571690	0.073378	0.423331
C37	C	1.571702	0.073379	0.576664
C38	C	1.495181	-0.011440	0.653335
C39	C	1.418659	-0.096252	0.576669
C40	C	1.418658	-0.096246	0.423332
C41	C	1.265627	-0.265876	0.576669
C42	C	1.265619	-0.265885	0.423336
C43	C	1.189106	-0.350695	0.653340
C44	C	1.112588	-0.435515	0.576673
C45	C	1.112580	-0.435513	0.423331
C46	C	1.189097	-0.350698	0.346669
H47	H	1.554416	0.109791	0.000050
C48	C	0.915378	0.397978	-0.000079
H49	H	0.928075	0.487428	-0.000079
H50	H	0.873459	0.370635	-0.085026
H51	H	0.873453	0.370659	0.084881
H52	H	1.733239	0.492206	0.000034
H53	H	1.543007	0.585160	-0.000009
C54	C	1.028428	-0.528803	0.661010
H55	H	1.039395	-0.516656	0.763309
H56	H	0.952573	-0.514595	0.635888
H57	H	1.041412	-0.612722	0.635882
H58	H	1.633991	0.142439	0.360893
H59	H	1.189102	-0.350693	0.221817
C60	C	1.655871	0.166671	0.661001
H61	H	1.701445	0.217182	0.593385
H62	H	1.614639	0.219257	0.720829
H63	H	1.703471	0.121121	0.720803
H64	H	1.129872	0.528073	-0.000066
H65	H	1.738935	0.254512	0.000071
C66	C	1.189119	-0.350697	0.822002
H67	H	1.245659	-0.288049	0.856684
H68	H	1.116451	-0.332957	0.856707
H69	H	1.205280	-0.431096	0.856670
H70	H	0.951030	0.145655	-0.000067
C71	C	1.142178	0.015272	-0.000032
H72	H	1.219194	-0.003811	-0.000031
H73	H	1.104734	-0.019643	0.084905
H74	H	1.104760	-0.019633	-0.085002
H75	H	1.495177	-0.011437	0.221812
C76	C	1.028407	-0.528811	0.339009
H77	H	0.982846	-0.579325	0.406636
H78	H	0.980811	-0.483277	0.279196
H79	H	1.069642	-0.581412	0.279192
C80	C	1.495175	-0.011426	0.821997
H81	H	1.438640	-0.074078	0.856678
H82	H	1.567845	-0.029158	0.856695
H83	H	1.479009	0.068971	0.856672
