data_functionalizedCrystal
_audit_creation_method	'MofGen! by Chris Wilmer'
_symmetry_space_group_name_H-M	'P1'
_symmetry_Int_Tables_number	1
_symmetry_cell_setting	triclinic
loop_
_symmetry_equiv_pos_as_xyz
  x,y,z
_cell_length_a	17.019311
_cell_length_b	23.532407
_cell_length_c	22.610064
_cell_angle_alpha	90.002995
_cell_angle_beta	93.893748
_cell_angle_gamma	83.123218
loop_
_atom_site_label
_atom_site_type_symbol
_atom_site_fract_x
_atom_site_fract_y
_atom_site_fract_z
O1	O	1.046135	0.072564	0.102472
O2	O	0.816394	0.081813	0.090773
O3	O	0.938192	-0.005720	0.096964
O4	O	0.924337	0.160097	0.096280
O5	O	0.938158	-0.005710	-0.001407
O6	O	0.816360	0.081823	-0.007598
O7	O	1.046100	0.072574	0.004101
Zn8	Zn	0.931225	0.077200	-0.017367
Zn9	Zn	0.931270	0.077187	0.112241
O10	O	0.924302	0.160107	-0.002091
C11	C	0.786991	0.081467	0.040091
C12	C	0.699428	0.080413	0.035631
C13	C	0.204184	0.074474	0.007721
C14	C	0.286459	0.075464	0.011912
C15	C	0.327616	0.075949	0.067631
C16	C	0.286493	0.075450	0.119161
C17	C	0.204219	0.074465	0.114969
C18	C	0.576031	0.078929	0.082970
C19	C	0.658311	0.079913	0.087158
C20	C	0.658271	0.079927	-0.020092
C21	C	0.575996	0.078938	-0.024279
C22	C	0.534879	0.078442	0.027252
C23	C	0.411714	0.076959	0.071916
C24	C	0.450782	0.077437	0.022966
C25	C	0.937822	-0.026933	0.047759
C26	C	0.936762	-0.090153	0.047701
C27	C	1.002185	-0.489041	0.051065
C28	C	1.001200	-0.548445	0.051019
O29	O	1.061849	-0.584990	0.054129
N30	N	0.928791	-0.571309	0.047331
C31	C	0.857363	-0.534766	0.043695
O32	O	0.795683	-0.559668	0.040555
C33	C	0.858349	-0.475363	0.043745
C34	C	0.930763	-0.452503	0.047427
C35	C	1.074593	-0.466180	0.054747
C36	C	1.075578	-0.406781	0.054791
C37	C	1.004156	-0.370243	0.051154
C38	C	0.931748	-0.393104	0.047471
C39	C	0.786922	-0.438822	0.040113
C40	C	0.787915	-0.379416	0.040164
C41	C	0.860328	-0.356555	0.043846
C42	C	0.861311	-0.297166	0.043878
N43	N	0.933719	-0.274302	0.047566
C44	C	1.005142	-0.310840	0.051204
C45	C	0.855297	-0.659515	0.043591
C46	C	0.854310	-0.718916	0.043537
C47	C	0.998147	-0.732591	0.050862
C48	C	0.999134	-0.673189	0.050912
C49	C	0.927706	-0.636651	0.047279
C50	C	1.007205	-0.186097	0.051297
C51	C	1.008184	-0.126691	0.051338
C52	C	0.864347	-0.113022	0.044016
C53	C	0.863368	-0.172422	0.043972
C54	C	0.934804	-0.208958	0.047614
O55	O	0.800694	-0.260586	0.040772
O56	O	1.066812	-0.285930	0.054351
C57	C	1.075504	0.072920	0.054784
C58	C	1.163067	0.073974	0.059247
C59	C	0.924672	0.181320	0.047116
C60	C	0.925733	0.244540	0.047178
N61	N	0.931200	0.077209	-0.105821
C62	C	0.883680	0.042660	-0.393087
C63	C	0.883672	0.042663	-0.331167
O64	O	0.843237	0.013290	-0.301206
N65	N	0.931233	0.077190	-0.297772
C66	C	0.978810	0.111713	-0.326298
O67	O	1.019263	0.141081	-0.292207
C68	C	0.978821	0.111707	-0.388216
C69	C	0.931251	0.077181	-0.421609
C70	C	0.836115	0.008137	-0.426480
C71	C	0.836122	0.008135	-0.488395
C72	C	0.883693	0.042657	-0.516917
C73	C	0.931258	0.077180	-0.483525
C74	C	1.026402	0.146226	-0.416742
C75	C	1.026409	0.146217	-0.478664
C76	C	0.978840	0.111691	-0.512057
C77	C	0.978836	0.111699	-0.573962
N78	N	0.931276	0.077172	-0.607358
C79	C	0.883704	0.042650	-0.578836
C80	C	0.978783	0.111723	-0.196266
C81	C	0.978768	0.111732	-0.134349
C82	C	0.883632	0.042681	-0.139222
C83	C	0.883643	0.042675	-0.201141
C84	C	0.931223	0.077195	-0.229662
C85	C	0.883721	0.042650	-0.708862
C86	C	0.883730	0.042653	-0.770783
C87	C	0.978869	0.111701	-0.765904
C88	C	0.978858	0.111701	-0.703989
C89	C	0.931282	0.077170	-0.675469
O90	O	1.019254	0.141055	-0.603964
O91	O	0.843265	0.013282	-0.612934
N92	N	0.931301	0.077174	0.200695
H93	H	0.445234	0.077352	0.117282
H94	H	1.067154	-0.108082	0.054335
H95	H	0.806197	-0.083262	0.041053
H96	H	0.170680	0.074082	-0.037651
O97	O	0.778251	-0.620109	0.039656
H98	H	0.743582	-0.628234	0.077979
O99	O	0.330884	0.075976	0.179258
H100	H	0.288467	0.075468	0.214383
O101	O	0.330791	0.076011	-0.043671
H102	H	0.375615	0.037670	-0.043969
H103	H	1.134545	-0.388174	0.057792
H104	H	1.132757	-0.495925	0.057712
H105	H	0.727956	-0.457424	0.037118
H106	H	0.691818	0.080312	0.132533
H107	H	0.542564	0.078523	0.124930
O108	O	0.832427	0.005413	-0.806806
H109	H	0.870496	-0.025204	-0.833072
O110	O	1.077724	0.183453	-0.509428
H111	H	1.110791	0.207462	-0.475801
O112	O	1.077235	-0.648533	0.054894
H113	H	1.126729	-0.683925	0.057420
H114	H	0.844897	0.014572	-0.115988
H115	H	1.065375	-0.215839	0.054265
H116	H	0.844980	0.014532	-0.685649
H117	H	0.797376	-0.019977	-0.403264
H118	H	1.017495	0.139853	-0.107166
H119	H	1.017581	0.139822	-0.676799
O120	O	0.832344	0.005435	-0.237160
H121	H	0.870413	-0.025186	-0.263420
H122	H	1.056304	-0.762352	0.053826
O123	O	0.710870	-0.340010	0.036238
H124	H	0.707885	-0.312618	0.076180
O125	O	0.159867	0.073912	0.170544
H126	H	0.202308	0.074406	0.209993
H127	H	0.417268	0.077045	-0.022400
H128	H	0.795344	-0.737524	0.040529
H129	H	1.017526	0.139838	-0.219484
H130	H	0.797389	-0.019981	-0.515578
O131	O	1.077709	0.183464	-0.380733
H132	H	1.110792	0.207459	-0.410979
O133	O	0.785268	-0.197085	0.039998
H134	H	0.735770	-0.161695	0.037479
O135	O	1.030187	0.148923	-0.796678
H136	H	0.992140	0.179541	-0.826844
O137	O	0.531603	0.078421	-0.084375
H138	H	0.574016	0.078941	-0.119502
O139	O	0.702613	0.080472	-0.075670
H140	H	0.766737	0.081245	-0.063397
