data_functionalizedCrystal
_audit_creation_method	'MofGen! by Chris Wilmer'
_symmetry_space_group_name_H-M	'P1'
_symmetry_Int_Tables_number	1
_symmetry_cell_setting	triclinic
loop_
_symmetry_equiv_pos_as_xyz
  x,y,z
_cell_length_a	14.853567
_cell_length_b	26.210047
_cell_length_c	14.853576
_cell_angle_alpha	90.003522
_cell_angle_beta	83.636707
_cell_angle_gamma	90.013466
loop_
_atom_site_label
_atom_site_type_symbol
_atom_site_fract_x
_atom_site_fract_y
_atom_site_fract_z
O1	O	1.196384	0.042393	0.117702
O2	O	0.933925	0.042401	0.131723
O3	O	1.072161	0.042395	-0.006517
O4	O	1.058148	0.042399	0.255942
O5	O	1.072118	-0.042463	-0.006517
O6	O	0.933882	-0.042457	0.131723
O7	O	1.196341	-0.042465	0.117701
Cu8	Cu	1.065107	-0.050209	0.124712
Cu9	Cu	1.065159	0.050145	0.124712
O10	O	1.058105	-0.042459	0.255941
C11	C	0.900315	-0.000027	0.131088
C12	C	0.800231	-0.000023	0.129184
C13	C	0.387694	-0.000036	0.039018
C14	C	0.366418	-0.000033	0.203251
C15	C	0.460452	-0.000031	0.205041
C16	C	0.518111	-0.000031	0.123818
C17	C	0.481737	-0.000033	0.040806
C18	C	0.496834	-0.000025	0.288052
C19	C	0.590873	-0.000022	0.289845
C20	C	0.648534	-0.000026	0.208622
C21	C	0.612154	-0.000028	0.125606
C22	C	0.669814	-0.000028	0.044384
C23	C	0.633436	-0.000034	-0.038633
C24	C	0.539398	-0.000037	-0.040417
C25	C	0.742572	-0.000023	0.210406
C26	C	0.763856	-0.000025	0.046171
N27	N	1.065077	-0.120793	0.124711
C28	C	1.119895	-0.473308	0.179482
C29	C	1.119922	-0.686967	0.179481
O30	O	1.166509	-0.714590	0.226039
N31	N	1.065180	-0.713687	0.124703
C32	C	1.010432	-0.686990	0.069918
O33	O	0.963879	-0.714619	0.023319
C34	C	1.010411	-0.473332	0.069914
C35	C	1.065149	-0.446614	0.124702
C36	C	1.174630	-0.446591	0.234264
C37	C	1.174619	-0.393179	0.234268
C38	C	1.119873	-0.366485	0.179488
C39	C	1.065139	-0.393203	0.124705
C40	C	0.955669	-0.446635	0.015124
C41	C	0.955670	-0.393218	0.015126
C42	C	1.010408	-0.366500	0.069914
C43	C	1.010382	-0.313098	0.069929
N44	N	1.065124	-0.286377	0.124707
C45	C	1.119869	-0.313071	0.179486
C46	C	1.010446	-0.799163	0.069925
C47	C	1.010450	-0.852577	0.069927
C48	C	1.119941	-0.852551	0.179489
C49	C	1.119931	-0.799136	0.179491
C50	C	1.065188	-0.772443	0.124702
C51	C	1.119842	-0.200903	0.179490
C52	C	1.119823	-0.147487	0.179491
C53	C	1.010336	-0.147518	0.069925
C54	C	1.010351	-0.200930	0.069927
C55	C	1.065111	-0.227621	0.124712
O56	O	0.963827	-0.285442	0.023388
O57	O	1.166431	-0.285432	0.226063
C58	C	1.119906	-0.526720	0.179478
C59	C	1.065171	-0.553437	0.124695
C60	C	1.010426	-0.526743	0.069916
C61	C	1.065175	-0.606852	0.124697
C62	C	1.119921	-0.633545	0.179477
C63	C	1.174662	-0.606825	0.234255
C64	C	1.174651	-0.553414	0.234258
C65	C	0.955684	-0.553464	0.015138
C66	C	0.955699	-0.606875	0.015140
C67	C	1.010444	-0.633569	0.069920
C68	C	1.229951	-0.000036	0.118337
C69	C	1.330035	-0.000036	0.120241
C70	C	1.071503	-0.000034	-0.040106
C71	C	1.069596	-0.000032	-0.140189
N72	N	1.065196	0.120729	0.124706
C73	C	1.068723	0.046226	-0.187204
C74	C	1.068685	-0.046289	-0.187217
C75	C	1.066899	-0.046289	-0.281251
C76	C	1.066025	-0.000031	-0.328266
C77	C	1.066938	0.046228	-0.281247
C78	C	1.065994	-0.092547	-0.328279
C79	C	1.064209	-0.092549	-0.422319
C80	C	1.063328	-0.046290	-0.469335
C81	C	1.064241	-0.000029	-0.422309
C82	C	1.063367	0.046229	-0.469324
C83	C	1.064273	0.092490	-0.422300
C84	C	1.066058	0.092487	-0.328262
C85	C	1.061543	-0.046286	-0.563372
C86	C	1.061583	0.046231	-0.563367
C87	C	1.058763	-0.000029	0.289530
C88	C	1.060670	-0.000028	0.389613
H89	H	0.319467	-0.000029	0.269378
C90	C	1.069643	-0.097170	-0.135497
N91	N	1.070359	-0.135496	-0.096538
H92	H	0.965767	-0.222684	0.025326
C93	C	1.063200	-0.143436	-0.474036
N94	N	1.062436	-0.181765	-0.512989
C95	C	1.067071	0.143369	-0.276531
N96	N	1.067841	0.181693	-0.237564
C97	C	1.234875	-0.524031	0.294523
N98	N	1.280242	-0.501904	0.339915
C99	C	1.180154	-0.769751	0.239755
N100	N	1.225519	-0.747622	0.285146
C101	C	1.180046	-0.118101	0.239760
N102	N	1.225407	-0.095969	0.285152
H103	H	0.965866	-0.874326	0.025323
H104	H	0.965864	-0.777434	0.025306
H105	H	0.509770	-0.000054	-0.108005
H106	H	1.060865	0.083900	-0.601639
C107	C	1.066949	-0.143427	-0.276557
N108	N	1.067662	-0.181753	-0.237594
C109	C	1.180167	-0.881924	0.239742
N110	N	1.225532	-0.904050	0.285116
H111	H	0.810797	-0.000027	-0.019971
H112	H	1.060809	-0.083951	-0.601655
C113	C	0.347678	-0.000043	-0.052296
N114	N	0.317537	-0.000047	-0.121074
H115	H	1.219196	-0.371431	0.278878
H116	H	0.911096	-0.468380	-0.029492
C117	C	0.433404	-0.000025	0.377390
N118	N	0.385624	-0.000028	0.444682
H119	H	0.680394	-0.000031	-0.104764
H120	H	0.911091	-0.371487	-0.029491
H121	H	0.620483	-0.000017	0.357442
H122	H	0.965761	-0.125774	0.025328
C123	C	0.782584	-0.000016	0.301718
N124	N	0.812719	-0.000012	0.370500
H125	H	1.164433	-0.222629	0.224100
H126	H	1.219215	-0.468319	0.278873
C127	C	1.069726	0.097111	-0.135478
N128	N	1.070485	0.135438	-0.096517
C129	C	1.234885	-0.636199	0.294511
N130	N	1.280246	-0.658326	0.339888
H131	H	0.911115	-0.628624	-0.029473
C132	C	1.063313	0.143373	-0.474028
N133	N	1.062589	0.181697	-0.512994
C134	C	0.895451	-0.524108	-0.045122
N135	N	0.850074	-0.501999	-0.090509
