data_functionalizedCrystal
_audit_creation_method	'MofGen! by Chris Wilmer'
_symmetry_space_group_name_H-M	'P1'
_symmetry_Int_Tables_number	1
_symmetry_cell_setting	triclinic
loop_
_symmetry_equiv_pos_as_xyz
  x,y,z
_cell_length_a	17.038278
_cell_length_b	17.019294
_cell_length_c	9.482900
_cell_angle_alpha	95.509088
_cell_angle_beta	80.029443
_cell_angle_gamma	87.243447
loop_
_atom_site_label
_atom_site_type_symbol
_atom_site_fract_x
_atom_site_fract_y
_atom_site_fract_z
O1	O	1.051414	0.157858	-0.140665
O2	O	0.823752	0.155173	-0.140329
O3	O	0.942504	0.043460	-0.126337
O4	O	0.932662	0.269571	-0.154657
O5	O	0.918384	0.066249	0.112601
O6	O	0.799632	0.177962	0.098609
O7	O	1.027294	0.180647	0.098273
Cu8	Cu	0.911260	0.181385	0.120258
Cu9	Cu	0.939785	0.154435	-0.162314
O10	O	0.908542	0.292361	0.084281
C11	C	0.782535	0.164123	-0.020554
C12	C	0.695656	0.156830	-0.019641
C13	C	0.204717	0.112029	-0.014035
C14	C	0.286348	0.118888	-0.014886
C15	C	0.318651	0.192706	-0.024138
C16	C	0.269318	0.259671	-0.032526
C17	C	0.187688	0.252812	-0.031665
C18	C	0.564693	0.216937	-0.027168
C19	C	0.646330	0.223790	-0.028033
C20	C	0.663354	0.083007	-0.010390
C21	C	0.581723	0.076154	-0.009539
C22	C	0.532396	0.143119	-0.017919
C23	C	0.402090	0.199718	-0.025012
C24	C	0.448957	0.136107	-0.017035
C25	C	0.929595	0.025780	-0.003229
C26	C	0.927057	-0.060853	0.007612
C27	C	0.939014	-0.113971	-0.117539
C28	C	0.936623	-0.195372	-0.107347
C29	C	0.922281	-0.223653	0.027996
C30	C	0.910320	-0.170528	0.153156
C31	C	0.912706	-0.089129	0.142964
C32	C	0.914416	-0.468804	0.065287
C33	C	0.912033	-0.550210	0.075470
C34	C	0.938335	-0.575048	-0.185035
C35	C	0.940723	-0.493646	-0.195215
C36	C	0.928759	-0.440528	-0.070055
C37	C	0.919839	-0.306857	0.038416
C38	C	0.931195	-0.357326	-0.080477
C39	C	1.068511	0.171697	-0.021505
C40	C	1.155391	0.178988	-0.022427
C41	C	0.921451	0.310040	-0.038830
C42	C	0.923990	0.396672	-0.049681
N43	N	0.891203	0.200341	0.319004
N44	N	0.959849	0.135473	-0.361059
C45	C	0.933864	0.160021	0.396253
C46	C	0.917182	0.175799	0.561695
H47	H	0.326506	0.064363	-0.008046
H48	H	0.898638	-0.193560	0.263356
H49	H	0.908164	-0.329893	0.148614
H50	H	0.942867	-0.334295	-0.190673
N51	N	0.548743	0.000742	-0.000101
N52	N	0.592794	-0.059039	0.007386
H53	H	0.569504	-0.112301	0.014043
N54	N	0.137287	0.321202	-0.040225
N55	N	0.079671	0.342686	0.059010
H56	H	0.044073	0.390989	0.052972
H57	H	0.422654	0.076003	-0.009518
H58	H	0.948074	-0.618304	-0.286933
N59	N	0.953655	-0.085073	-0.255780
N60	N	0.955781	-0.012395	-0.264868
H61	H	0.966119	0.008014	-0.362504
H62	H	0.703524	0.028487	-0.003565
H63	H	0.904689	-0.425565	0.167202
N64	N	0.900510	-0.034870	0.270804
N65	N	0.953944	0.009790	0.294625
H66	H	0.945329	0.048111	0.384917
H67	H	0.982735	0.113818	0.339912
H68	H	0.868302	0.221999	0.618032
H69	H	0.672625	0.283906	-0.035547
H70	H	0.178424	0.051918	-0.006510
H71	H	0.524541	0.271465	-0.034000
N72	N	0.302323	0.335070	-0.041960
N73	N	0.375207	0.341186	-0.042729
H74	H	0.398517	0.394438	-0.049394
N75	N	0.955386	-0.464765	-0.333470
N76	N	1.018962	-0.485707	-0.419095
H77	H	1.029321	-0.465312	-0.516741
H78	H	1.008723	0.089268	0.582604
N79	N	0.829878	0.258287	0.389675
N80	N	0.772520	0.238411	0.477140
H81	H	0.729206	0.279336	0.527049
N82	N	0.435089	0.275121	-0.034445
N83	N	0.468571	0.304259	0.063830
H84	H	0.491879	0.357513	0.057173
N85	N	0.948833	-0.249619	-0.235201
N86	N	0.961640	-0.224358	-0.356034
H87	H	0.970262	-0.262670	-0.446338
N88	N	0.897376	-0.579085	0.213740
N89	N	0.886691	-0.531651	0.325478
H90	H	0.876338	-0.552044	0.423127
