data_functionalizedCrystal
_audit_creation_method	'MofGen! by Chris Wilmer'
_symmetry_space_group_name_H-M	'P1'
_symmetry_Int_Tables_number	1
_symmetry_cell_setting	triclinic
loop_
_symmetry_equiv_pos_as_xyz
  x,y,z
_cell_length_a	19.805405
_cell_length_b	19.805407
_cell_length_c	19.805399
_cell_angle_alpha	89.982197
_cell_angle_beta	89.970699
_cell_angle_gamma	90.023727
loop_
_atom_site_label
_atom_site_type_symbol
_atom_site_fract_x
_atom_site_fract_y
_atom_site_fract_z
Zn1	Zn	-0.269527	1.034736	-0.382680
Zn2	Zn	-0.382716	1.034650	-0.269488
Zn3	Zn	-0.269541	0.921550	-0.269508
Zn4	Zn	-0.382674	0.921514	-0.382638
O5	O	-0.326115	0.978113	-0.326078
O6	O	-0.284554	1.129441	-0.367674
O7	O	-0.367726	1.019627	-0.174774
O8	O	-0.174822	0.936615	-0.284546
O9	O	-0.367713	1.129378	-0.284512
O10	O	-0.174813	1.019772	-0.367693
O11	O	-0.284576	0.936533	-0.174788
O12	O	-0.284536	0.826829	-0.284506
O13	O	-0.367642	0.936553	-0.477360
O14	O	-0.367655	0.826802	-0.367622
O15	O	-0.284514	1.019737	-0.477391
O16	O	-0.477427	1.019592	-0.284472
O17	O	-0.477397	0.936471	-0.367603
C18	C	-0.326093	0.802257	-0.326062
C19	C	-0.326101	0.727025	-0.326071
C20	C	-0.282876	0.691714	-0.369439
C21	C	-0.282880	0.621025	-0.369442
C22	C	-0.326112	0.585649	-0.326079
C23	C	-0.369338	0.620965	-0.282706
C24	C	-0.369330	0.691652	-0.282701
C25	C	-0.369368	0.335892	-0.282727
C26	C	-0.369374	0.265199	-0.282737
C27	C	-0.282918	0.265265	-0.369468
C28	C	-0.282910	0.335952	-0.369462
C29	C	-0.326134	0.371262	-0.326087
C30	C	-0.326128	0.447910	-0.326084
C31	C	-0.326121	0.509002	-0.326085
C32	C	-0.501971	0.978036	-0.326046
C33	C	-0.577203	0.978066	-0.326054
C34	C	-0.612540	1.021389	-0.282813
C35	C	-0.683228	1.021418	-0.282828
C36	C	-0.718578	0.978119	-0.326081
C37	C	-0.683236	0.934794	-0.369327
C38	C	-0.612549	0.934769	-0.369315
C39	C	-0.968309	0.934894	-0.369377
C40	C	-1.039001	0.934921	-0.369384
C41	C	-1.038989	1.021542	-0.282890
C42	C	-0.968302	1.021517	-0.282878
C43	C	-0.932965	0.978195	-0.326126
C44	C	-0.856317	0.978165	-0.326110
C45	C	-0.795225	0.978145	-0.326094
C46	C	-0.149572	0.978207	-0.326126
C47	C	-0.074340	0.978248	-0.326146
C48	C	-0.326072	0.978151	-0.502621
C49	C	-0.326054	0.978167	-0.577853
C50	C	-0.326136	1.154655	-0.326095
C51	C	-0.326146	1.229887	-0.326102
C52	C	-0.282767	1.021481	-0.613214
C53	C	-0.282747	1.021488	-0.683903
C54	C	-0.326018	0.978184	-0.719229
C55	C	-0.369308	0.934864	-0.683863
C56	C	-0.369323	0.934854	-0.613176
C57	C	-0.369244	0.934902	-0.968936
C58	C	-0.369227	0.934917	-1.039628
C59	C	-0.282668	1.021536	-1.039663
C60	C	-0.282684	1.021527	-0.968976
C61	C	-0.325970	0.978205	-0.933616
C62	C	-0.325990	0.978197	-0.856968
C63	C	-0.326002	0.978194	-0.795876
C64	C	-0.326108	0.978114	-0.150222
C65	C	-0.325936	0.978229	-0.074991
H66	H	-0.247721	0.236507	-0.404783
C67	C	-0.946591	1.054554	-0.168292
C68	C	-0.929448	1.069114	-0.235334
H69	H	-0.922607	1.083944	-0.138943
H70	H	-0.935044	1.009086	-0.158346
H71	H	-0.993748	1.060771	-0.162119
H72	H	-0.882291	1.062893	-0.241508
H73	H	-0.940991	1.114594	-0.245283
C74	C	-0.454869	0.849238	-0.676723
C75	C	-0.416873	0.887261	-0.722691
H76	H	-0.484232	0.819847	-0.700694
H77	H	-0.480767	0.878709	-0.649150
H78	H	-0.425373	0.823360	-0.649156
H79	H	-0.446368	0.913142	-0.750254
H80	H	-0.390972	0.857786	-0.750275
C81	C	-0.859962	0.896393	-0.407776
C82	C	-0.929472	0.887272	-0.416911
H83	H	-0.835986	0.866994	-0.437126
H84	H	-0.848417	0.886508	-0.362294
H85	H	-0.848343	0.941862	-0.417723
H86	H	-0.941092	0.841804	-0.406959
H87	H	-0.941023	0.897153	-0.462403
H88	H	-0.404580	0.236398	-0.247424
C89	C	-0.168051	1.054580	-1.061455
C90	C	-0.235078	1.069153	-1.078531
H91	H	-0.138674	1.083980	-1.085446
H92	H	-0.158139	1.009117	-1.073038
H93	H	-0.161880	1.060773	-1.014299
H94	H	-0.241250	1.062956	-1.125686
H95	H	-0.244993	1.114627	-1.066951
C96	C	-1.118558	0.843896	-0.378729
C97	C	-1.077859	0.887327	-0.416936
H98	H	-1.142544	0.814514	-0.408085
H99	H	-1.149716	0.869700	-0.352980
H100	H	-1.091014	0.818011	-0.349219
H101	H	-1.105404	0.913216	-0.446443
H102	H	-1.046697	0.861521	-0.442697
C103	C	-0.273386	1.112524	-0.533739
C104	C	-0.235199	1.069082	-0.574386
H105	H	-0.244017	1.141911	-0.509774
H106	H	-0.299164	1.086727	-0.502565
H107	H	-0.302870	1.138402	-0.561318
H108	H	-0.205719	1.043200	-0.546807
H109	H	-0.209410	1.094882	-0.605565
C110	C	-0.244260	1.059957	-0.860634
C111	C	-0.235108	1.069117	-0.930146
H112	H	-0.214885	1.089337	-0.836663
H113	H	-0.234361	1.014485	-0.849055
H114	H	-0.289739	1.069850	-0.849039
H115	H	-0.189630	1.059220	-0.941741
H116	H	-0.245002	1.114600	-0.941729
C117	C	-0.460312	0.925419	-0.889427
C118	C	-0.416829	0.887283	-0.930081
H119	H	-0.489687	0.896017	-0.865437
H120	H	-0.486196	0.954897	-0.916997
H121	H	-0.434540	0.951200	-0.858266
H122	H	-0.442600	0.861506	-0.961245
H123	H	-0.390942	0.857793	-0.902508
H124	H	-0.583763	1.056644	-0.247589
C125	C	-0.250082	0.357770	-0.484133
C126	C	-0.235387	0.374835	-0.417127
H127	H	-0.220738	0.381772	-0.513557
H128	H	-0.295564	0.369349	-0.493952
H129	H	-0.243899	0.310617	-0.490334
H130	H	-0.241575	0.421988	-0.410924
H131	H	-0.189894	0.363261	-0.407305
C132	C	-0.619656	0.849148	-0.454815
C133	C	-0.573703	0.887148	-0.416848
H134	H	-0.595673	0.819748	-0.484160
H135	H	-0.647187	0.878633	-0.480731
H136	H	-0.647265	0.823282	-0.425300
H137	H	-0.546097	0.913018	-0.446363
H138	H	-0.546160	0.857659	-0.390930
C139	C	-0.197426	0.628190	-0.455179
C140	C	-0.235368	0.582211	-0.417115
H141	H	-0.168095	0.604226	-0.484613
H142	H	-0.171495	0.655757	-0.425736
H143	H	-0.226957	0.655761	-0.481010
H144	H	-0.205837	0.554644	-0.391279
H145	H	-0.261301	0.554633	-0.446562
H146	H	-0.404565	0.899576	-0.584385
H147	H	-1.067768	1.056820	-0.247678
C148	C	-0.483830	0.901870	-1.061352
C149	C	-0.416792	0.887308	-1.078458
H150	H	-0.513192	0.872477	-1.085321
H151	H	-0.493738	0.947337	-1.072942
H152	H	-0.490024	0.895661	-1.014191
H153	H	-0.410596	0.893522	-1.125618
H154	H	-0.406881	0.841830	-1.066872
C155	C	-0.273585	0.771242	-0.460500
C156	C	-0.235355	0.730596	-0.417107
H157	H	-0.244244	0.795241	-0.489930
H158	H	-0.299320	0.802387	-0.434672
H159	H	-0.303109	0.743659	-0.486336
H160	H	-0.205834	0.758180	-0.391267
H161	H	-0.209609	0.699447	-0.442938
H162	H	-0.404564	0.364632	-0.247409
H163	H	-0.247500	1.056761	-0.712691
C164	C	-0.460381	0.541443	-0.273144
C165	C	-0.416861	0.582081	-0.235042
H166	H	-0.489724	0.517443	-0.243717
H167	H	-0.434639	0.510299	-0.298967
H168	H	-0.486304	0.569032	-0.302582
H169	H	-0.390935	0.554492	-0.205608
H170	H	-0.442606	0.613230	-0.209208
C171	C	-0.454800	0.684492	-0.196977
C172	C	-0.416849	0.730469	-0.235034
H173	H	-0.484138	0.708457	-0.167551
H174	H	-0.425280	0.656923	-0.171143
H175	H	-0.480729	0.656923	-0.226430
H176	H	-0.390915	0.758034	-0.205581
H177	H	-0.446372	0.758049	-0.260870
H178	H	-0.711997	1.056695	-0.247617
H179	H	-0.712023	0.899543	-0.404547
