data_functionalizedCrystal
_audit_creation_method	'MofGen! by Chris Wilmer'
_symmetry_space_group_name_H-M	'P1'
_symmetry_Int_Tables_number	1
_symmetry_cell_setting	triclinic
loop_
_symmetry_equiv_pos_as_xyz
  x,y,z
_cell_length_a	10.686220
_cell_length_b	19.120786
_cell_length_c	10.685880
_cell_angle_alpha	92.083787
_cell_angle_beta	89.641569
_cell_angle_gamma	97.023231
loop_
_atom_site_label
_atom_site_type_symbol
_atom_site_fract_x
_atom_site_fract_y
_atom_site_fract_z
Zn1	Zn	1.954184	-0.219370	-0.546902
Zn2	Zn	2.454184	0.280630	-0.046902
Zn3	Zn	1.928964	-0.328648	-0.329442
Zn4	Zn	2.428964	0.171352	0.170558
Zn5	Zn	1.728195	-0.220802	-0.353123
Zn6	Zn	2.228195	0.279198	0.146877
Zn7	Zn	1.733910	-0.346511	-0.553954
Zn8	Zn	2.233910	0.153489	-0.053954
O9	O	1.836313	-0.278833	-0.445855
O10	O	2.336313	0.221167	0.054145
O11	O	2.127046	-0.225791	-0.505193
O12	O	2.627046	0.274209	-0.005193
O13	O	1.889386	-0.307466	-0.157527
O14	O	2.389386	0.192534	0.342473
O15	O	1.766336	-0.122269	-0.385787
O16	O	2.266336	0.377731	0.114213
O17	O	2.108517	-0.306077	-0.345426
O18	O	2.608517	0.193923	0.154574
O19	O	1.932369	-0.121217	-0.528155
O20	O	2.432369	0.378783	-0.028155
O21	O	1.741882	-0.228232	-0.174926
O22	O	2.241882	0.271768	0.325074
O23	O	1.552746	-0.245552	-0.392626
O24	O	2.052746	0.254448	0.107374
O25	O	1.776076	-0.336521	-0.728075
O26	O	2.276076	0.163479	-0.228075
O27	O	1.556944	-0.337910	-0.540176
O28	O	2.056944	0.162090	-0.040176
O29	O	1.937910	-0.243111	-0.722893
O30	O	2.437910	0.256889	-0.222893
O31	O	1.894927	-0.429361	-0.352265
O32	O	2.394927	0.070639	0.147735
O33	O	1.751621	-0.442484	-0.517213
O34	O	2.251621	0.057516	-0.017213
C35	C	1.509156	-0.293825	-0.469736
C36	C	2.009156	0.206175	0.030264
C37	C	1.369198	-0.300258	-0.479981
C38	C	1.869198	0.199742	0.020019
C39	C	1.821194	-0.461421	-0.432959
C40	C	2.321194	0.038579	0.067041
C41	C	1.814844	-0.539530	-0.427476
C42	C	2.314844	-0.039530	0.072524
C43	C	1.898250	-0.575622	-0.499093
C44	C	2.398250	-0.075622	0.000907
C45	C	1.892278	-0.649014	-0.493943
C46	C	2.392278	-0.149014	0.006057
C47	C	1.802906	-0.686311	-0.417169
C48	C	2.302906	-0.186311	0.082831
C49	C	1.719491	-0.650214	-0.345550
C50	C	2.219491	-0.150214	0.154450
C51	C	1.725458	-0.576824	-0.350707
C52	C	2.225458	-0.076824	0.149293
C53	C	1.780564	-0.907931	-0.397892
C54	C	2.280564	-0.407931	0.102108
C55	C	1.774606	-0.981326	-0.392737
C56	C	2.274606	-0.481326	0.107263
C57	C	1.947392	-0.980121	-0.541133
C58	C	2.447392	-0.480121	-0.041133
C59	C	1.953356	-0.906730	-0.546277
C60	C	2.453356	-0.406730	-0.046277
C61	C	1.869937	-0.870639	-0.474663
C62	C	2.369937	-0.370639	0.025337
C63	C	1.796803	-0.761329	-0.411900
C64	C	2.296803	-0.261329	0.088100
C65	C	1.876035	-0.795623	-0.479939
C66	C	2.376035	-0.295623	0.020061
C67	C	2.164748	-0.263782	-0.421881
C68	C	2.664748	0.236218	0.078119
C69	C	2.304707	-0.257368	-0.411665
C70	C	2.804707	0.242632	0.088335
C71	C	1.860444	-0.291649	-0.772143
C72	C	2.360444	0.208351	-0.272143
C73	C	1.870727	-0.297111	-0.911188
C74	C	2.370727	0.202889	-0.411188
C75	C	1.851528	-0.095531	-0.458826
C76	C	2.351528	0.404469	0.041174
C77	C	1.858012	-0.017418	-0.464354
C78	C	2.358012	0.482582	0.035646
C79	C	1.812354	-0.266012	-0.120835
C80	C	2.312354	0.233988	0.379165
C81	C	1.802331	-0.260341	0.018213
C82	C	2.302331	0.239659	0.518213
H83	H	1.960205	-0.678396	-0.552251
H84	H	2.460205	-0.178396	-0.052251
C85	C	1.676298	-1.022354	-0.308280
C86	C	2.176298	-0.522354	0.191720
H87	H	1.684708	-1.071230	-0.315455
H88	H	2.184708	-0.571230	0.184545
H89	H	1.593998	-1.014969	-0.333534
H90	H	2.093998	-0.514969	0.166466
H91	H	1.689566	-1.006182	-0.223734
H92	H	2.189566	-0.506182	0.276266
H93	H	1.971031	-0.545259	-0.561604
H94	H	2.471031	-0.045259	-0.061604
H95	H	1.937159	-0.332772	-0.957123
H96	H	2.437159	0.167228	-0.457123
H97	H	1.735897	-0.224685	-0.935858
H98	H	2.235897	0.275315	-0.435858
H99	H	1.356567	-0.215728	-0.345338
H100	H	1.856567	0.284272	0.154662
H101	H	1.317331	-0.341904	-0.546305
H102	H	1.817331	0.158096	-0.046305
C103	C	2.051659	-0.865705	-0.630732
C104	C	2.551659	-0.365705	-0.130732
H105	H	2.043273	-0.816827	-0.623537
H106	H	2.543273	-0.316827	-0.123537
H107	H	2.038403	-0.881873	-0.715274
H108	H	2.538403	-0.381873	-0.215274
H109	H	2.133959	-0.873097	-0.605464
H110	H	2.633959	-0.373097	-0.105464
C111	C	2.039134	-1.019823	-0.619913
C112	C	2.539134	-0.519823	-0.119913
H113	H	2.022777	-1.068874	-0.605857
H114	H	2.522777	-0.568874	-0.105857
H115	H	2.123387	-1.003161	-0.596351
H116	H	2.623387	-0.503161	-0.096351
H117	H	2.027816	-1.011936	-0.706149
H118	H	2.527816	-0.511936	-0.206149
H119	H	1.724039	-0.791704	-0.349387
H120	H	2.224039	-0.291704	0.150613
H121	H	1.712643	-0.878552	-0.339578
H122	H	2.212643	-0.378552	0.160422
C123	C	1.621178	-0.691235	-0.261102
C124	C	2.121178	-0.191235	0.238898
H125	H	1.572351	-0.659228	-0.219198
H126	H	2.072351	-0.159228	0.280802
H127	H	1.663032	-0.715502	-0.201103
H128	H	2.163032	-0.215502	0.298897
H129	H	1.567479	-0.724277	-0.310916
H130	H	2.067479	-0.224277	0.189084
H131	H	1.657538	-0.547438	-0.292391
H132	H	2.157538	-0.047438	0.207609
H133	H	1.948798	-0.765254	-0.542454
H134	H	2.448798	-0.265254	-0.042454
