data_functionalizedCrystal
_audit_creation_method	'MofGen! by Chris Wilmer'
_symmetry_space_group_name_H-M	'P1'
_symmetry_Int_Tables_number	1
_symmetry_cell_setting	triclinic
loop_
_symmetry_equiv_pos_as_xyz
  x,y,z
_cell_length_a	8.965430
_cell_length_b	19.288864
_cell_length_c	19.288865
_cell_angle_alpha	83.136245
_cell_angle_beta	89.995194
_cell_angle_gamma	89.982363
loop_
_atom_site_label
_atom_site_type_symbol
_atom_site_fract_x
_atom_site_fract_y
_atom_site_fract_z
O1	O	0.124535	-0.921348	-0.086642
O2	O	0.124435	-0.719088	-0.098331
O3	O	0.124458	-0.826062	0.008643
O4	O	0.124511	-0.814374	-0.193617
O5	O	-0.123621	-0.826053	0.008636
O6	O	-0.123644	-0.719079	-0.098338
O7	O	-0.123544	-0.921339	-0.086650
Cu8	Cu	-0.146246	-0.820208	-0.092495
Cu9	Cu	0.147136	-0.820219	-0.092486
O10	O	-0.123567	-0.814364	-0.193624
C11	C	0.000382	-0.693207	-0.097959
C12	C	0.000343	-0.616103	-0.096830
N13	N	-0.352595	-0.820206	-0.092500
C14	C	0.000414	-0.825682	0.034516
C15	C	0.000400	-0.824553	0.111620
C16	C	-0.449911	-0.770718	-0.141956
C17	C	-0.549289	-0.833443	-0.155238
C18	C	-0.549344	-0.757508	-0.079224
C19	C	-0.449784	-0.882962	-0.105813
C20	C	-0.449830	-0.806985	-0.029772
C21	C	-0.549163	-0.869755	-0.043027
N22	N	0.353485	-0.820227	-0.092475
C23	C	0.000512	-0.947220	-0.087022
C24	C	0.000561	-1.024324	-0.088151
C25	C	0.000383	-0.571407	-0.159598
C26	C	0.000399	-0.498960	-0.158537
C27	C	0.000405	-0.471212	-0.094705
C28	C	0.000357	-0.515918	-0.031929
C29	C	0.000326	-0.588364	-0.032991
C30	C	0.087355	-0.362953	-0.044523
C31	C	0.087396	-0.290509	-0.043463
C32	C	0.000495	-0.247767	-0.091425
C33	C	-0.086427	-0.277476	-0.140459
C34	C	-0.086458	-0.349922	-0.141521
C35	C	0.000438	-0.392658	-0.093546
C36	C	0.000550	-0.124514	-0.153047
C37	C	0.000557	-0.052066	-0.151984
C38	C	0.000530	-0.069026	-0.025374
C39	C	0.000508	-0.141473	-0.026439
C40	C	0.000525	-0.169212	-0.090278
C41	C	0.000480	-0.814745	-0.219497
C42	C	0.000503	-0.815874	-0.296601
C43	C	0.000424	-0.887321	0.156316
C44	C	0.000447	-0.886260	0.228763
C45	C	0.000417	-0.822428	0.256511
C46	C	0.000401	-0.759652	0.211805
C47	C	0.000393	-0.760714	0.139359
C48	C	-0.086505	-0.772245	0.364796
C49	C	-0.086506	-0.771185	0.437240
C50	C	0.000448	-0.819148	0.479956
C51	C	0.087384	-0.868183	0.450221
C52	C	0.087376	-0.869245	0.377775
C53	C	0.000426	-0.821269	0.335065
C54	C	0.000499	-0.880770	0.603209
C55	C	0.000531	-0.879707	0.675657
C56	C	0.000471	-0.753097	0.658697
C57	C	0.000453	-0.754162	0.586250
C58	C	0.000461	-0.818000	0.558511
H59	H	-0.406332	-0.728907	-0.183817
H60	H	-0.593079	-0.704476	-0.068006
Cl61	Cl	0.000446	-0.442760	-0.237451
Cl62	Cl	-0.616743	-0.850731	-0.237121
Cl63	Cl	0.000600	0.004125	-0.230900
Cl64	Cl	0.000478	-0.965174	0.284963
H65	H	0.000627	-0.046435	0.026600
Cl66	Cl	0.000398	-0.606275	-0.239852
H67	H	0.158179	-0.266325	-0.003540
H68	H	-0.406108	-0.795769	0.023248
H69	H	0.000380	-0.707679	0.234401
Cl70	Cl	0.000467	-0.197666	0.052474
Cl71	Cl	-0.382559	-0.964857	-0.123229
H72	H	-0.592469	-0.911659	-0.001190
H73	H	0.000382	-0.493322	0.020044
H74	H	-0.157238	-0.374108	-0.181444
H75	H	-0.157192	-0.242676	-0.179513
H76	H	0.000542	-0.147101	-0.205028
H77	H	-0.157286	-0.731255	0.461445
H78	H	0.000426	-0.703049	0.549857
H79	H	0.158129	-0.397749	-0.005465
H80	H	0.000294	-0.624756	0.018124
H81	H	0.000512	-0.932751	0.580622
H82	H	0.000435	-0.939303	0.133736
Cl83	Cl	0.196672	-0.930881	0.340395
H84	H	0.158192	-0.907238	0.484999
Cl85	Cl	-0.195834	-0.711944	0.311102
Cl86	Cl	0.000441	-0.672850	0.693572
Cl87	Cl	0.000363	-0.681799	0.083166
H88	H	0.000559	-0.930822	0.712049
