data_functionalizedCrystal
_audit_creation_method	'MofGen! by Chris Wilmer'
_symmetry_space_group_name_H-M	'P1'
_symmetry_Int_Tables_number	1
_symmetry_cell_setting	triclinic
loop_
_symmetry_equiv_pos_as_xyz
  x,y,z
_cell_length_a	14.044220
_cell_length_b	14.044220
_cell_length_c	13.101039
_cell_angle_alpha	93.667477
_cell_angle_beta	93.659868
_cell_angle_gamma	86.811122
loop_
_atom_site_label
_atom_site_type_symbol
_atom_site_fract_x
_atom_site_fract_y
_atom_site_fract_z
O1	O	1.281968	-0.225348	0.085109
O2	O	1.615302	0.107985	0.418442
O3	O	1.948635	0.441318	0.751776
O4	O	1.005298	-0.217041	0.085135
O5	O	1.338632	0.116292	0.418468
O6	O	1.671965	0.449626	0.751802
O7	O	1.139480	-0.082860	0.085112
O8	O	1.472813	0.250474	0.418446
O9	O	1.806147	0.583807	0.751779
O10	O	1.147787	-0.359530	0.085132
O11	O	1.481120	-0.026197	0.418465
O12	O	1.814454	0.307137	0.751798
O13	O	1.129854	-0.092504	-0.085316
O14	O	1.463188	0.240829	0.248017
O15	O	1.796521	0.574162	0.581351
O16	O	0.995673	-0.226686	-0.085293
O17	O	1.329006	0.106647	0.248040
O18	O	1.662339	0.439981	0.581373
O19	O	1.272343	-0.234993	-0.085319
O20	O	1.605676	0.098340	0.248014
O21	O	1.939009	0.431674	0.581348
Zn22	Zn	1.132479	-0.232371	-0.112365
Zn23	Zn	1.465813	0.100963	0.220968
Zn24	Zn	1.799146	0.434296	0.554301
Zn25	Zn	1.145162	-0.219663	0.112181
Zn26	Zn	1.478495	0.113670	0.445515
Zn27	Zn	1.811828	0.447003	0.778848
O28	O	1.138161	-0.369175	-0.085296
O29	O	1.471494	-0.035841	0.248037
O30	O	1.804828	0.297492	0.581370
C31	C	0.964864	-0.218228	-0.000076
C32	C	1.298197	0.115106	0.333257
C33	C	1.631531	0.448439	0.666591
C34	C	0.858722	-0.207383	-0.000066
C35	C	1.192055	0.125951	0.333267
C36	C	1.525388	0.459284	0.666600
C37	C	1.131031	-0.052060	-0.000102
C38	C	1.464365	0.281273	0.333231
C39	C	1.797698	0.614607	0.666565
C40	C	1.120187	0.054083	-0.000102
C41	C	1.453520	0.387416	0.333231
C42	C	1.786854	0.720749	0.666565
C43	C	0.664383	-0.187558	-0.000088
C44	C	0.997716	0.145776	0.333245
C45	C	1.331049	0.479109	0.666579
C46	C	0.613253	-0.264472	-0.000087
C47	C	0.946586	0.068861	0.333246
C48	C	1.279920	0.402195	0.666580
C49	C	0.505116	-0.253441	-0.000099
C50	C	0.838449	0.079892	0.333234
C51	C	1.171783	0.413226	0.666568
C52	C	0.772529	-0.198587	-0.000076
C53	C	1.105863	0.134746	0.333257
C54	C	1.439196	0.468080	0.666591
C55	C	1.312777	-0.233806	-0.000106
C56	C	1.646111	0.099527	0.333227
C57	C	1.979444	0.432860	0.666561
C58	C	1.418920	-0.244651	-0.000109
C59	C	1.752253	0.088682	0.333225
C60	C	2.085587	0.422016	0.666558
C61	C	1.146610	-0.399974	-0.000080
C62	C	1.479943	-0.066641	0.333253
C63	C	1.813276	0.266693	0.666587
C64	C	1.157455	-0.506116	-0.000073
C65	C	1.490788	-0.172783	0.333260
C66	C	1.824121	0.160550	0.666594
N67	N	1.123831	-0.241043	-0.265612
N68	N	1.457164	0.092290	0.067721
N69	N	1.790497	0.425623	0.401054
C70	C	1.100362	0.248421	-0.000086
C71	C	1.433695	0.581755	0.333248
C72	C	1.767028	0.915088	0.666581
C73	C	1.177276	0.299551	-0.000090
C74	C	1.510609	0.632884	0.333244
C75	C	1.843942	0.966218	0.666577
C76	C	1.166245	0.407688	-0.000080
C77	C	1.499578	0.741021	0.333253
C78	C	1.832911	1.074354	0.666586
C79	C	1.111391	0.140275	-0.000095
C80	C	1.444725	0.473608	0.333239
C81	C	1.778058	0.806941	0.666572
C82	C	1.112065	-0.252851	-0.474653
C83	C	1.445398	0.080482	-0.141320
C84	C	1.778731	0.413815	0.192014
C85	C	1.165580	-0.199179	-0.525538
C86	C	1.498914	0.134154	-0.192204
C87	C	1.832247	0.467488	0.141129
C88	C	1.159034	-0.205749	-0.641855
C89	C	1.492367	0.127584	-0.308522
C90	C	1.825700	0.460918	0.024812
C91	C	1.118610	-0.246282	-0.358325
C92	C	1.451944	0.087051	-0.024992
C93	C	1.785277	0.420384	0.308342
N94	N	1.153817	-0.210984	0.265428
N95	N	1.487151	0.122349	0.598762
N96	N	1.820484	0.455683	0.932095
H97	H	0.650693	-0.338605	-0.000077
H98	H	0.984026	-0.005271	0.333256
H99	H	1.317359	0.328062	0.666590
O100	O	0.619692	-0.099131	0.000090
O101	O	0.953026	0.234202	0.333424
O102	O	1.286359	0.567535	0.666757
C103	C	0.567186	-0.083209	0.088340
C104	C	0.900519	0.250124	0.421674
C105	C	1.233853	0.583458	0.755007
H106	H	0.598517	-0.131561	0.150033
H107	H	0.931850	0.201772	0.483366
H108	H	1.265183	0.535105	0.816699
H109	H	0.571157	-0.005336	0.117972
H110	H	0.904490	0.327997	0.451306
H111	H	1.237823	0.661330	0.784639
H112	H	0.489429	-0.099852	0.068378
H113	H	0.822762	0.233481	0.401712
H114	H	1.156095	0.566815	0.735045
O115	O	1.011858	0.292928	-0.000034
O116	O	1.345191	0.626262	0.333300
O117	O	1.678524	0.959595	0.666633
C118	C	0.942503	0.224096	-0.000063
C119	C	1.275836	0.557429	0.333271
C120	C	1.609169	0.890763	0.666604
H121	H	0.976688	0.155959	0.032198
H122	H	1.310021	0.489293	0.365532
H123	H	1.643354	0.822626	0.698865
H124	H	0.882232	0.252992	0.049419
H125	H	1.215565	0.586326	0.382752
H126	H	1.548898	0.919659	0.716086
H127	H	0.912506	0.207677	-0.081826
H128	H	1.245839	0.541010	0.251507
H129	H	1.579172	0.874343	0.584840
O130	O	1.225901	-0.138367	-0.473143
O131	O	1.559235	0.194966	-0.139809
O132	O	1.892568	0.528299	0.193524
C133	C	1.218941	-0.145105	-0.366987
C134	C	1.552274	0.188228	-0.033653
C135	C	1.885607	0.521562	0.299680
H136	H	1.190856	-0.217315	-0.352388
H137	H	1.524190	0.116018	-0.019055
H138	H	1.857523	0.449351	0.314279
H139	H	1.292507	-0.137923	-0.326018
H140	H	1.625841	0.195411	0.007315
H141	H	1.959174	0.528744	0.340649
H142	H	1.167832	-0.085527	-0.336714
H143	H	1.501165	0.247806	-0.003381
H144	H	1.834498	0.581140	0.329953
O145	O	1.051629	-0.313540	-0.527047
O146	O	1.384962	0.019793	-0.193714
O147	O	1.718296	0.353127	0.139620
C148	C	1.058460	-0.306661	-0.633201
C149	C	1.391793	0.026673	-0.299868
C150	C	1.725127	0.360006	0.033466
H151	H	1.130483	-0.278109	-0.647720
H152	H	1.463817	0.055224	-0.314386
H153	H	1.797150	0.388558	0.018947
H154	H	1.051820	-0.380343	-0.674064
H155	H	1.385154	-0.047010	-0.340731
H156	H	1.718487	0.286324	-0.007397
H157	H	0.998602	-0.255970	-0.663659
H158	H	1.331935	0.077364	-0.330326
H159	H	1.665268	0.410697	0.003008
H160	H	1.251413	0.262115	-0.000028
H161	H	1.584746	0.595449	0.333306
H162	H	1.918079	0.928782	0.666639
