data_functionalizedCrystal
_audit_creation_method	'MofGen! by Chris Wilmer'
_symmetry_space_group_name_H-M	'P1'
_symmetry_Int_Tables_number	1
_symmetry_cell_setting	triclinic
loop_
_symmetry_equiv_pos_as_xyz
  x,y,z
_cell_length_a	16.120484
_cell_length_b	12.759401
_cell_length_c	12.759393
_cell_angle_alpha	89.981425
_cell_angle_beta	92.862829
_cell_angle_gamma	92.925831
loop_
_atom_site_label
_atom_site_type_symbol
_atom_site_fract_x
_atom_site_fract_y
_atom_site_fract_z
Zn1	Zn	-0.331847	1.584972	-0.615149
Zn2	Zn	0.168153	2.084972	-0.115149
Zn3	Zn	-0.471285	1.575923	-0.448362
Zn4	Zn	0.028715	2.075923	0.051638
Zn5	Zn	-0.331891	1.409271	-0.439491
Zn6	Zn	0.168109	1.909271	0.060509
Zn7	Zn	-0.471221	1.400323	-0.623999
Zn8	Zn	0.028779	1.900323	-0.123999
O9	O	-0.401561	1.492622	-0.531750
O10	O	0.098439	1.992622	-0.031750
O11	O	-0.350352	1.730792	-0.593033
O12	O	0.149648	2.230792	-0.093033
O13	O	-0.452839	1.553774	-0.300167
O14	O	0.047161	2.053774	0.199833
O15	O	-0.215220	1.440109	-0.455376
O16	O	0.284780	1.940109	0.044624
O17	O	-0.452796	1.724144	-0.470495
O18	O	0.047204	2.224144	0.029505
O19	O	-0.215187	1.569196	-0.584431
O20	O	0.284813	2.069196	-0.084431
O21	O	-0.350427	1.431336	-0.293649
O22	O	0.149573	1.931336	0.206351
O23	O	-0.350365	1.261064	-0.463957
O24	O	0.149635	1.761064	0.036043
O25	O	-0.452687	1.424860	-0.769843
O26	O	0.047313	1.924860	-0.269843
O27	O	-0.452730	1.254490	-0.599514
O28	O	0.047270	1.754490	-0.099514
O29	O	-0.350290	1.560520	-0.763341
O30	O	0.149710	2.060520	-0.263341
O31	O	-0.587941	1.545098	-0.479077
O32	O	-0.087941	2.045098	0.020923
O33	O	-0.587895	1.416086	-0.608116
O34	O	-0.087895	1.916086	-0.108116
C35	C	-0.401547	1.219656	-0.531734
C36	C	0.098453	1.719656	-0.031734
C37	C	-0.401560	1.102878	-0.531754
C38	C	0.098440	1.602878	-0.031754
C39	C	-0.348314	1.051472	-0.595669
C40	C	0.151686	1.551472	-0.095669
C41	C	-0.348323	0.941748	-0.595676
C42	C	0.151677	1.441748	-0.095676
C43	C	-0.454831	0.934844	-0.467851
C44	C	0.045169	1.434844	0.032149
C45	C	-0.454818	1.044567	-0.467839
C46	C	0.045182	1.544567	0.032161
C47	C	-0.618168	1.478668	-0.545542
C48	C	-0.118168	1.978668	-0.045542
C49	C	-0.710833	1.472794	-0.551478
C50	C	-0.210833	1.972794	-0.051478
C51	C	-0.880494	1.462076	-0.562336
C52	C	-0.380494	1.962076	-0.062336
C53	C	-0.921787	1.523357	-0.501181
C54	C	-0.421787	2.023357	-0.001181
C55	C	-1.016192	1.517393	-0.507222
C56	C	-0.516192	2.017393	-0.007222
C57	C	-0.786081	1.468038	-0.556296
C58	C	-0.286081	1.968038	-0.056296
C59	C	-0.184108	1.506660	-0.517927
C60	C	0.315892	2.006660	-0.017927
C61	C	-0.091442	1.512642	-0.512036
C62	C	0.408558	2.012642	-0.012036
C63	C	-0.401477	1.492701	-0.805778
C64	C	0.098523	1.992701	-0.305778
C65	C	-0.401441	1.492735	-0.922552
C66	C	0.098559	1.992735	-0.422552
C67	C	-0.401576	1.766655	-0.531766
C68	C	0.098424	2.266655	-0.031766
C69	C	-0.401582	1.883431	-0.531773
C70	C	0.098418	2.383431	-0.031773
C71	C	-0.348105	1.429006	-0.974020
C72	C	0.151895	1.929006	-0.474020
C73	C	-0.348079	1.429032	-1.083742
C74	C	0.151921	1.929032	-0.583742
C75	C	-0.454727	1.556525	-1.090521
C76	C	0.045273	2.056525	-0.590521
C77	C	-0.454756	1.556492	-0.980800
C78	C	0.045244	2.056492	-0.480800
C79	C	-0.401585	1.492608	-0.258784
C80	C	0.098415	1.992608	0.241216
C81	C	-0.401386	1.492793	-0.141995
C82	C	0.098614	1.992793	0.358005
H83	H	-0.304946	1.098947	-0.647709
H84	H	0.195054	1.598947	-0.147709
Cl85	Cl	-0.281037	1.348897	-1.148440
Cl86	Cl	0.218963	1.848897	-0.648440
H87	H	-0.916041	1.405137	-0.619225
H88	H	-0.416041	1.905137	-0.119225
H89	H	-0.304692	1.377090	-0.926597
H90	H	0.195308	1.877090	-0.426597
Cl91	Cl	-0.521747	1.636676	-1.163754
Cl92	Cl	-0.021747	2.136676	-0.663754
Cl93	Cl	-0.281380	0.877128	-0.676029
Cl94	Cl	0.218620	1.377128	-0.176029
Cl95	Cl	-0.866906	1.611268	-0.413334
Cl96	Cl	-0.366906	2.111268	0.086666
H97	H	-0.498192	0.887354	-0.415815
H98	H	0.001808	1.387354	0.084185
Cl99	Cl	-0.521753	1.109197	-0.387470
Cl100	Cl	-0.021753	1.609197	0.112530
Cl101	Cl	-0.521816	1.636611	-0.916094
Cl102	Cl	-0.021816	2.136611	-0.416094
