data_functionalizedCrystal
_audit_creation_method	'MofGen! by Chris Wilmer'
_symmetry_space_group_name_H-M	'P1'
_symmetry_Int_Tables_number	1
_symmetry_cell_setting	triclinic
loop_
_symmetry_equiv_pos_as_xyz
  x,y,z
_cell_length_a	19.805407
_cell_length_b	12.594516
_cell_length_c	19.805399
_cell_angle_alpha	89.979203
_cell_angle_beta	89.982197
_cell_angle_gamma	90.013369
loop_
_atom_site_label
_atom_site_type_symbol
_atom_site_fract_x
_atom_site_fract_y
_atom_site_fract_z
Zn1	Zn	1.034784	-0.423843	-0.382720
Zn2	Zn	1.034720	-0.601836	-0.269545
Zn3	Zn	0.921599	-0.423864	-0.269548
Zn4	Zn	0.921583	-0.601772	-0.382695
O5	O	0.978172	-0.512829	-0.326127
O6	O	1.129492	-0.447473	-0.367716
O7	O	1.019694	-0.578264	-0.174829
O8	O	0.936647	-0.274915	-0.284572
O9	O	1.129445	-0.578244	-0.284567
O10	O	1.019804	-0.274900	-0.367719
O11	O	0.936584	-0.447508	-0.174831
O12	O	0.826880	-0.447445	-0.284548
O13	O	0.936620	-0.578133	-0.477415
O14	O	0.826869	-0.578153	-0.367677
O15	O	1.019788	-0.447410	-0.477433
O16	O	1.019678	-0.750774	-0.284543
O17	O	0.936557	-0.750726	-0.367674
C18	C	0.802316	-0.512795	-0.326110
C19	C	0.727084	-0.512807	-0.326119
C20	C	0.691765	-0.444835	-0.369481
C21	C	0.621076	-0.444840	-0.369484
C22	C	0.585708	-0.512824	-0.326127
C23	C	0.621032	-0.580799	-0.282761
C24	C	0.691719	-0.580787	-0.282756
C25	C	0.335958	-0.580847	-0.282782
C26	C	0.265266	-0.580856	-0.282792
C27	C	0.265316	-0.444900	-0.369510
C28	C	0.336003	-0.444888	-0.369504
C29	C	0.371321	-0.512859	-0.326136
C30	C	0.447969	-0.512850	-0.326132
C31	C	0.509061	-0.512839	-0.326134
C32	C	0.978127	-0.789370	-0.326120
C33	C	0.978170	-0.907675	-0.326140
C34	C	0.932956	-0.976941	-0.371323
C35	C	0.916467	-1.047796	-0.309562
C36	C	0.994721	-1.047619	-0.387912
C37	C	0.961649	-0.976972	-0.264346
C38	C	1.039931	-0.976789	-0.342738
C39	C	1.023465	-1.047612	-0.280934
C40	C	1.154714	-0.512863	-0.326144
C41	C	1.229946	-0.512878	-0.326151
C42	C	0.978209	-0.512762	-0.502670
C43	C	0.978226	-0.512733	-0.577902
C44	C	0.978234	-0.235208	-0.326148
C45	C	0.978261	-0.116902	-0.326157
C46	C	1.021532	-0.444662	-0.613256
C47	C	1.021539	-0.444631	-0.683945
C48	C	0.978242	-0.512678	-0.719277
C49	C	0.934931	-0.580752	-0.683918
C50	C	0.934921	-0.580776	-0.613230
C51	C	0.934969	-0.580652	-0.968991
C52	C	0.934984	-0.580625	-1.039683
C53	C	1.021587	-0.444507	-1.039705
C54	C	1.021578	-0.444532	-0.969018
C55	C	0.978264	-0.512602	-0.933665
C56	C	0.978256	-0.512633	-0.857016
C57	C	0.978253	-0.512652	-0.795924
C58	C	0.978173	-0.512819	-0.150271
C59	C	0.978288	-0.512547	-0.075039
H60	H	0.364705	-0.636194	-0.247469
H61	H	0.864280	-1.079009	-0.295537
C62	C	0.887287	-0.655665	-0.574340
C63	C	0.916592	-0.739252	-0.525743
C64	C	0.868955	-0.814143	-0.486855
C65	C	0.792013	-0.805447	-0.496564
C66	C	0.762704	-0.721857	-0.545163
C67	C	0.810341	-0.646966	-0.584051
H68	H	0.973552	-0.745693	-0.518554
H69	H	0.890651	-0.876022	-0.450878
H70	H	0.756749	-0.860886	-0.467777
H71	H	0.705743	-0.715417	-0.552352
H72	H	0.788644	-0.585087	-0.620028
H73	H	1.008682	-1.078652	-0.440145
H74	H	1.056806	-0.389204	-0.712727
C75	C	0.887308	-0.655620	-0.722776
C76	C	0.810363	-0.646941	-0.713047
C77	C	0.762743	-0.721822	-0.751901
C78	C	0.792070	-0.805383	-0.800483
C79	C	0.869020	-0.814066	-0.810213
C80	C	0.916639	-0.739185	-0.771360
H81	H	0.788650	-0.585081	-0.677082
H82	H	0.705780	-0.715394	-0.744697
H83	H	0.756820	-0.860814	-0.829244
H84	H	0.890733	-0.875926	-0.846178
H85	H	0.973603	-0.745613	-0.778563
C86	C	0.942708	-0.935238	-0.193759
C87	C	0.992511	-0.864504	-0.154511
C88	C	0.973571	-0.822770	-0.083926
C89	C	0.904827	-0.851772	-0.052589
C90	C	0.855019	-0.922511	-0.091837
C91	C	0.873959	-0.964244	-0.162422
H92	H	1.043404	-0.843031	-0.177709
H93	H	1.010443	-0.770405	-0.054872
H94	H	0.890806	-0.820879	-0.000337
H95	H	0.804127	-0.943983	-0.068639
H96	H	0.837088	-1.016609	-0.191476
C97	C	0.730667	-0.370050	-0.417174
C98	C	0.691813	-0.295277	-0.464868
C99	C	0.730713	-0.220487	-0.512561
C100	C	0.808466	-0.220470	-0.512560
C101	C	0.847324	-0.295246	-0.464865
C102	C	0.808424	-0.370036	-0.417172
H103	H	0.634252	-0.295287	-0.464870
H104	H	0.701948	-0.165134	-0.547868
H105	H	0.837262	-0.165106	-0.547865
H106	H	0.904885	-0.295236	-0.464862
H107	H	0.837190	-0.425389	-0.381864
H108	H	0.364797	-0.389532	-0.404811
C109	C	0.226466	-0.370119	-0.417212
C110	C	0.236200	-0.249107	-0.411820
C111	C	0.197353	-0.174330	-0.459522
C112	C	0.148772	-0.220565	-0.512616
C113	C	0.139036	-0.341583	-0.518009
C114	C	0.177883	-0.416360	-0.470307
H115	H	0.272165	-0.214876	-0.372515
H116	H	0.204561	-0.084745	-0.455529
H117	H	0.120015	-0.165211	-0.547928
H118	H	0.103071	-0.375815	-0.557314
H119	H	0.170675	-0.505945	-0.474300
C120	C	1.069204	-0.369679	-0.930153
C121	C	1.116840	-0.294795	-0.969042
C122	C	1.164465	-0.219938	-0.930178
C123	C	1.164456	-0.219964	-0.852425
C124	C	1.116819	-0.294851	-0.813531
C125	C	1.069193	-0.369708	-0.852396
H126	H	1.116848	-0.294773	-1.026604
H127	H	1.199729	-0.164502	-0.958970
H128	H	1.199711	-0.164550	-0.823655
H129	H	1.116810	-0.294873	-0.755970
H130	H	1.033929	-0.425145	-0.823604
C131	C	0.582129	-0.655585	-0.235069
C132	C	0.504376	-0.655608	-0.235076
C133	C	0.465474	-0.730399	-0.187385
C134	C	0.504326	-0.805167	-0.139687
C135	C	0.582084	-0.805147	-0.139679
C136	C	0.620985	-0.730356	-0.187370
H137	H	0.475611	-0.600258	-0.270387
H138	H	0.407913	-0.730414	-0.187392
H139	H	0.475529	-0.860532	-0.104384
H140	H	0.610848	-0.860497	-0.104368
H141	H	0.678546	-0.730341	-0.187363
H142	H	0.894652	-0.945909	-0.409477
C143	C	1.075166	-1.089295	-0.229268
C144	C	1.067569	-1.061167	-0.153987
C145	C	1.119263	-1.102860	-0.102320
C146	C	1.178554	-1.172681	-0.125932
C147	C	1.186154	-1.200813	-0.201217
C148	C	1.134460	-1.159120	-0.252885
H149	H	1.023675	-1.009478	-0.136504
H150	H	1.113636	-1.082034	-0.046589
H151	H	1.216821	-1.203544	-0.087685
H152	H	1.230047	-1.252502	-0.218700
H153	H	1.140086	-1.179945	-0.308615
C154	C	0.226359	-0.655636	-0.235093
C155	C	0.177769	-0.739273	-0.264335
C156	C	0.138862	-0.814049	-0.216640
C157	C	0.148544	-0.805188	-0.139703
C158	C	0.197135	-0.721548	-0.110457
C159	C	0.236043	-0.646772	-0.158152
H160	H	0.170600	-0.745835	-0.321292
H161	H	0.102891	-0.875965	-0.238290
H162	H	0.119742	-0.860542	-0.104396
H163	H	0.204305	-0.714986	-0.053500
H164	H	0.272014	-0.584856	-0.136502
C165	C	1.110415	-0.934615	-0.361722
C166	C	1.172115	-0.964045	-0.318285
C167	C	1.242600	-0.921870	-0.337279
C168	C	1.251385	-0.850265	-0.399709
C169	C	1.189683	-0.820832	-0.443150
C170	C	1.119198	-0.863007	-0.424157
H171	H	1.165614	-1.017055	-0.272067
H172	H	1.288276	-0.943659	-0.305120
H173	H	1.303562	-0.819045	-0.413769
H174	H	1.196184	-0.767822	-0.489369
H175	H	1.073522	-0.841218	-0.456315
H176	H	1.056853	-0.389078	-1.068499
C177	C	0.887348	-0.655472	-1.078551
C178	C	0.839701	-0.730342	-1.039666
C179	C	0.792069	-0.805184	-1.078534
C180	C	0.792084	-0.805156	-1.156287
C181	C	0.839733	-0.730284	-1.195176
C182	C	0.887366	-0.655442	-1.156308
H183	H	0.839688	-0.730364	-0.982104
H184	H	0.756796	-0.860609	-1.049745
H185	H	0.756824	-0.860559	-1.185059
H186	H	0.839746	-0.730261	-1.252738
H187	H	0.922639	-0.600016	-1.185097
H188	H	0.592323	-0.389493	-0.404794
H189	H	1.056792	-0.389254	-0.584494
H190	H	0.720474	-0.636137	-0.247446
H191	H	0.899710	-0.636094	-0.940215
