data_functionalizedCrystal
_audit_creation_method	'MofGen! by Chris Wilmer'
_symmetry_space_group_name_H-M	'P1'
_symmetry_Int_Tables_number	1
_symmetry_cell_setting	triclinic
loop_
_symmetry_equiv_pos_as_xyz
  x,y,z
_cell_length_a	23.532407
_cell_length_b	23.532361
_cell_length_c	22.010155
_cell_angle_alpha	89.997469
_cell_angle_beta	89.993714
_cell_angle_gamma	82.839173
loop_
_atom_site_label
_atom_site_type_symbol
_atom_site_fract_x
_atom_site_fract_y
_atom_site_fract_z
O1	O	0.068996	0.755276	0.050470
O2	O	0.079027	0.589409	0.050486
O3	O	-0.008921	0.677344	0.050466
O4	O	0.156944	0.667341	0.050490
O5	O	-0.008898	0.677338	-0.050584
O6	O	0.079050	0.589403	-0.050565
O7	O	0.069019	0.755270	-0.050580
Cu8	Cu	0.074036	0.672336	-0.059799
Cu9	Cu	0.074009	0.672343	0.059705
O10	O	0.156967	0.667335	-0.050561
C11	C	0.078787	0.568189	-0.000038
C12	C	0.078032	0.504971	-0.000032
C13	C	0.074716	0.231730	0.055046
C14	C	0.075431	0.291130	0.055048
O15	O	0.075770	0.321859	0.101892
N16	N	0.075804	0.320832	-0.000035
C17	C	0.075457	0.291133	-0.055123
O18	O	0.075840	0.321851	-0.101975
C19	C	0.074738	0.231735	-0.055124
C20	C	0.074370	0.202035	-0.000037
C21	C	0.074347	0.202030	0.110128
C22	C	0.073633	0.142635	0.110126
C23	C	0.073288	0.112939	0.055043
C24	C	0.073657	0.142639	-0.000039
C25	C	0.074387	0.202036	-0.110211
C26	C	0.073668	0.142634	-0.110207
C27	C	0.073300	0.112934	-0.055121
C28	C	0.072597	0.053547	-0.055125
N29	N	0.072224	0.023845	-0.000042
C30	C	0.072569	0.053541	0.055042
C31	C	0.076966	0.415873	-0.055117
C32	C	0.077689	0.475269	-0.055116
C33	C	0.077662	0.475263	0.055055
C34	C	0.076943	0.415865	0.055054
C35	C	0.076593	0.386171	-0.000034
C36	C	0.071070	-0.071195	0.055034
C37	C	0.070359	-0.130596	0.055027
C38	C	0.070384	-0.130584	-0.055144
C39	C	0.071098	-0.071188	-0.055137
C40	C	0.071440	-0.041495	-0.000044
O41	O	0.072255	0.022781	-0.101945
O42	O	0.072178	0.022816	0.101886
C43	C	-0.030126	0.677086	-0.000060
C44	C	-0.093343	0.676320	-0.000065
C45	C	-0.492454	0.723555	-0.000036
C46	C	-0.551854	0.722844	-0.000031
O47	O	-0.588606	0.766630	-0.000013
N48	N	-0.574471	0.670566	-0.000027
C49	C	-0.537685	0.618997	-0.000021
O50	O	-0.562377	0.574465	-0.000016
C51	C	-0.478286	0.619709	-0.000021
C52	C	-0.455672	0.671990	-0.000032
C53	C	-0.469839	0.775832	-0.000046
C54	C	-0.410443	0.776543	-0.000052
C55	C	-0.373662	0.724977	-0.000048
C56	C	-0.396276	0.672701	-0.000038
C57	C	-0.441501	0.568140	-0.000011
C58	C	-0.382099	0.568857	-0.000011
C59	C	-0.359485	0.621137	-0.000021
C60	C	-0.300099	0.621847	-0.000039
N61	N	-0.277481	0.674124	-0.000044
C62	C	-0.314263	0.725690	-0.000048
C63	C	-0.662427	0.617505	-0.000019
C64	C	-0.721825	0.616793	-0.000023
C65	C	-0.735990	0.720640	-0.000032
C66	C	-0.676591	0.721352	-0.000033
C67	C	-0.639810	0.669783	-0.000024
C68	C	-0.189526	0.727179	-0.000061
C69	C	-0.130124	0.727886	-0.000069
C70	C	-0.115965	0.624039	-0.000057
C71	C	-0.175361	0.623332	-0.000051
C72	C	-0.212141	0.674907	-0.000051
O73	O	-0.263312	0.578083	-0.000055
O74	O	-0.289562	0.770214	-0.000045
C75	C	0.178171	0.667592	-0.000033
C76	C	0.241388	0.668358	-0.000024
C77	C	0.069258	0.776489	-0.000055
C78	C	0.070014	0.839708	-0.000057
N79	N	0.074055	0.672335	-0.143851
C80	C	0.112953	0.633384	-0.436455
C81	C	0.112958	0.633382	-0.372847
O82	O	0.146054	0.600248	-0.339949
N83	N	0.074033	0.672330	-0.341036
C84	C	0.035097	0.711278	-0.372835
O85	O	0.001989	0.744406	-0.339936
C86	C	0.035090	0.711277	-0.436441
C87	C	0.074021	0.672330	-0.468250
C88	C	0.151881	0.594440	-0.468263
C89	C	0.151876	0.594442	-0.531866
C90	C	0.112944	0.633389	-0.563661
C91	C	0.074016	0.672332	-0.531853
C92	C	-0.003849	0.750222	-0.468239
C93	C	-0.003853	0.750216	-0.531850
C94	C	0.035078	0.711270	-0.563659
C95	C	0.035080	0.711281	-0.627251
N96	N	0.074004	0.672333	-0.659063
C97	C	0.112937	0.633387	-0.627268
C98	C	0.035115	0.711278	-0.239257
C99	C	0.035125	0.711283	-0.175652
C100	C	0.112985	0.633386	-0.175669
C101	C	0.112978	0.633385	-0.239275
C102	C	0.074040	0.672330	-0.271069
C103	C	0.112924	0.633395	-0.760839
C104	C	0.112918	0.633402	-0.824448
C105	C	0.035056	0.711297	-0.824426
C106	C	0.035064	0.711292	-0.760822
C107	C	0.074000	0.672336	-0.729031
O108	O	0.001999	0.744397	-0.660190
O109	O	0.146035	0.600260	-0.660174
N110	N	0.073986	0.672349	0.143757
H111	H	0.070061	-0.154776	0.099887
C112	C	0.120883	-0.011069	-0.119050
C113	C	0.071509	-0.038542	-0.115689
H114	H	0.121133	0.009079	-0.156435
H115	H	0.121183	0.015121	-0.086250
H116	H	0.153817	-0.038777	-0.116752
H117	H	0.038574	-0.010833	-0.117982
H118	H	0.071203	-0.064733	-0.148498
H119	H	0.070105	-0.154774	-0.099991
C120	C	-0.045363	0.775097	-0.000085
C121	C	-0.105268	0.785357	-0.000079
H122	H	-0.030021	0.810576	-0.000094
H123	H	-0.032722	0.753886	0.035152
H124	H	-0.032722	0.753878	-0.035325
H125	H	-0.117910	0.806572	0.035164
H126	H	-0.117914	0.806577	-0.035319
H127	H	0.074626	0.226203	0.154986
C128	C	-0.618021	0.782404	0.051908
C129	C	-0.651734	0.778819	-0.000038
H130	H	-0.602675	0.817882	0.051902
H131	H	-0.640904	0.779970	0.087139
H132	H	-0.587612	0.751795	0.051905
H133	H	-0.682145	0.809425	-0.000033
H134	H	-0.628850	0.781258	-0.035278
H135	H	-0.459902	0.525567	0.000001
C136	C	0.076990	0.421838	0.163950
C137	C	0.076533	0.383222	0.115606
H138	H	0.076733	0.401687	0.201333
H139	H	0.110485	0.440467	0.161661
H140	H	0.044053	0.449544	0.161647
H141	H	0.109472	0.355519	0.117906
H142	H	0.043035	0.364584	0.117896
C143	C	-0.063657	0.745247	-0.156163
C144	C	-0.007706	0.754097	-0.140740
H145	H	-0.090112	0.771676	-0.134623
H146	H	-0.069182	0.750791	-0.198600
H147	H	-0.069624	0.707273	-0.145716
H148	H	-0.001738	0.792070	-0.151191
H149	H	-0.002179	0.748558	-0.098293
C150	C	0.120825	-0.011090	0.118963
C151	C	0.071451	-0.038560	0.115591
H152	H	0.121060	0.009059	0.156346
H153	H	0.153755	-0.038796	0.116674
H154	H	0.121140	0.015103	0.086159
H155	H	0.071138	-0.064756	0.148393
H156	H	0.038512	-0.010851	0.117886
H157	H	-0.765949	0.762627	-0.000033
H158	H	-0.740232	0.574220	-0.000025
C159	C	-0.374068	0.466135	0.000005
C160	C	-0.341670	0.512168	-0.000003
H161	H	-0.349109	0.431140	0.000005
H162	H	-0.397531	0.468023	0.035243
H163	H	-0.397531	0.468020	-0.035234
H164	H	-0.318210	0.510286	0.035239
H165	H	-0.318197	0.510280	-0.035245
C166	C	0.189893	0.556404	-0.767262
C167	C	0.155728	0.590579	-0.725900
H168	H	0.216322	0.529977	-0.745691
H169	H	0.166290	0.536055	-0.792062
H170	H	0.210245	0.580005	-0.792078
H171	H	0.135373	0.566979	-0.701087
H172	H	0.179334	0.610929	-0.701090
H173	H	0.077942	0.499452	0.099907
C174	C	0.122344	0.117675	0.204047
C175	C	0.073219	0.109998	0.170681
H176	H	0.122083	0.097532	0.241435
H177	H	0.155443	0.103397	0.181427
H178	H	0.122816	0.157304	0.211917
H179	H	0.072749	0.070369	0.162808
H180	H	0.040111	0.124273	0.193306
H181	H	0.077998	0.499445	-0.099973
H182	H	0.144685	0.601673	-0.149770
H183	H	-0.193774	0.580761	-0.000060
C184	C	-0.654402	0.514784	-0.000020
C185	C	-0.622000	0.560815	-0.000021
H186	H	-0.629445	0.479787	-0.000024
H187	H	-0.677865	0.516669	0.035217
H188	H	-0.677864	0.516675	-0.035260
H189	H	-0.598540	0.558927	0.035221
H190	H	-0.598527	0.558929	-0.035262
H191	H	0.076689	0.391699	-0.099978
H192	H	-0.035550	0.781935	-0.442350
H193	H	-0.086007	0.582056	-0.000055
C194	C	-0.264534	0.786630	-0.052007
C195	C	-0.229950	0.783870	-0.000064
H196	H	-0.289492	0.821626	-0.052009
H197	H	-0.241065	0.784743	-0.087240
H198	H	-0.286508	0.755395	-0.051994
H199	H	-0.207974	0.815102	-0.000080
H200	H	-0.253422	0.785762	0.035178
H201	H	0.183576	0.562727	-0.557761
C202	C	0.228845	0.517452	-0.474686
C203	C	0.194684	0.551628	-0.433322
H204	H	0.255276	0.491026	-0.453116
H205	H	0.205240	0.497103	-0.499482
H206	H	0.249195	0.541053	-0.499505
H207	H	0.174330	0.528029	-0.408505
H208	H	0.218292	0.571979	-0.408515
H209	H	0.144622	0.601687	-0.850344
H210	H	0.074685	0.226208	-0.155068
H211	H	0.144679	0.601671	-0.265170
C212	C	-0.430429	0.879116	-0.000054
C213	C	-0.385591	0.834012	-0.000055
H214	H	-0.415088	0.914597	-0.000051
H215	H	-0.453296	0.876675	-0.035290
H216	H	-0.453305	0.876670	0.035187
H217	H	-0.362718	0.836456	-0.035299
H218	H	-0.362715	0.836455	0.035185
C219	C	-0.041919	0.788284	-0.818036
C220	C	-0.007745	0.754099	-0.859382
H221	H	-0.068343	0.814706	-0.839619
H222	H	-0.062271	0.764693	-0.793218
H223	H	-0.018317	0.808644	-0.793236
H224	H	-0.031346	0.733736	-0.884179
H225	H	0.012609	0.777693	-0.884210
H226	H	-0.499782	0.817825	-0.000047
H227	H	0.003408	0.742997	-0.265141
C228	C	0.073762	0.148612	-0.219108
C229	C	0.073286	0.109995	-0.170763
H230	H	0.073531	0.128461	-0.256491
H231	H	0.040827	0.176311	-0.216818
H232	H	0.107258	0.167248	-0.216805
H233	H	0.039788	0.091363	-0.173063
H234	H	0.106225	0.082286	-0.173054
C235	C	-0.080823	0.827207	-0.525440
C236	C	-0.046657	0.793027	-0.566797
H237	H	-0.107246	0.853638	-0.547015
H238	H	-0.101178	0.803615	-0.500626
H239	H	-0.057216	0.847558	-0.500637
H240	H	-0.070265	0.772674	-0.591597
H241	H	-0.026302	0.816623	-0.591621
H242	H	0.003368	0.743011	-0.734924
