data_functionalizedCrystal
_audit_creation_method	'MofGen! by Chris Wilmer'
_symmetry_space_group_name_H-M	'P1'
_symmetry_Int_Tables_number	1
_symmetry_cell_setting	triclinic
loop_
_symmetry_equiv_pos_as_xyz
  x,y,z
_cell_length_a	12.837943
_cell_length_b	8.559649
_cell_length_c	7.681481
_cell_angle_alpha	85.069100
_cell_angle_beta	96.334007
_cell_angle_gamma	82.303802
loop_
_atom_site_label
_atom_site_type_symbol
_atom_site_fract_x
_atom_site_fract_y
_atom_site_fract_z
O1	O	-1.331910	-0.423878	0.146382
O2	O	-1.031718	-0.403605	0.146393
O3	O	-1.208261	-0.185166	0.146385
O4	O	-1.155367	-0.642317	0.146391
O5	O	-1.229996	-0.158212	-0.146474
O6	O	-1.053453	-0.376652	-0.146465
O7	O	-1.353645	-0.396924	-0.146477
Zn8	Zn	-1.207000	-0.382508	-0.192969
Zn9	Zn	-1.178363	-0.418021	0.192885
O10	O	-1.177102	-0.615363	-0.146468
C11	C	-1.004510	-0.383280	-0.000035
C12	C	-0.891059	-0.362854	-0.000030
C13	C	-1.223137	-0.112770	-0.000041
C14	C	-1.235068	0.062793	-0.000032
C15	C	-1.380853	-0.417250	-0.000045
C16	C	-1.494303	-0.437677	-0.000038
C17	C	-0.630553	-0.608412	-0.000052
C18	C	-0.523954	-0.589227	-0.000049
C19	C	-0.571261	-0.305300	-0.000034
C20	C	-0.677860	-0.324485	-0.000037
C21	C	-0.707501	-0.476046	-0.000043
C22	C	-0.814101	-0.495230	-0.000034
C23	C	-0.861407	-0.211304	-0.000031
C24	C	-0.754808	-0.192119	-0.000028
C25	C	-1.162226	-0.687760	-0.000038
C26	C	-1.150294	-0.863323	-0.000036
N27	N	-1.226551	-0.358272	-0.456304
N28	N	-1.158821	-0.442246	0.456221
H29	H	-0.838232	-0.618638	-0.000042
C30	C	-1.312432	-0.088840	-0.513387
C31	C	-1.319897	-0.242558	-0.557817
H32	H	-1.370062	-0.017408	-0.576051
H33	H	-1.247641	-0.058638	-0.543543
H34	H	-1.314548	-0.086223	-0.390433
H35	H	-1.317772	-0.245178	-0.680770
H36	H	-1.384704	-0.272768	-0.527673
H37	H	-0.924070	-0.103522	-0.000012
C38	C	-0.734167	-0.780843	-0.150595
C39	C	-0.663144	-0.775000	-0.000050
H40	H	-0.754290	-0.883688	-0.150584
H41	H	-0.701141	-0.758071	-0.252701
H42	H	-0.795249	-0.704746	-0.150580
H43	H	-0.602059	-0.851089	-0.000072
H44	H	-0.696170	-0.797791	0.102082
C45	C	-0.487904	-0.871802	-0.000046
C46	C	-0.439370	-0.734729	-0.000045
H47	H	-0.435682	-0.961632	-0.000033
H48	H	-0.538041	-0.863978	-0.102169
H49	H	-0.522891	-0.882770	0.102084
H50	H	-0.404389	-0.723755	-0.102182
H51	H	-0.389215	-0.742555	0.102089
C52	C	-0.467635	-0.132880	0.150501
C53	C	-0.538664	-0.138716	-0.000039
H54	H	-0.447516	-0.030034	0.150497
H55	H	-0.406562	-0.208967	0.150482
H56	H	-0.500665	-0.155657	0.252621
H57	H	-0.505631	-0.115950	-0.102160
H58	H	-0.599746	-0.062605	-0.000036
H59	H	-0.730660	-0.068720	-0.000043
H60	H	-1.068587	0.065621	-0.000038
H61	H	-1.089683	-0.527957	-0.468579
H62	H	-1.316782	0.133858	-0.000049
