data_functionalizedCrystal
_audit_creation_method	'MofGen! by Chris Wilmer'
_symmetry_space_group_name_H-M	'P1'
_symmetry_Int_Tables_number	1
_symmetry_cell_setting	triclinic
loop_
_symmetry_equiv_pos_as_xyz
  x,y,z
_cell_length_a	10.489741
_cell_length_b	17.000371
_cell_length_c	8.965430
_cell_angle_alpha	89.999937
_cell_angle_beta	89.998843
_cell_angle_gamma	80.069211
loop_
_atom_site_label
_atom_site_type_symbol
_atom_site_fract_x
_atom_site_fract_y
_atom_site_fract_z
O1	O	1.679815	0.112217	-0.123949
O2	O	1.307282	0.122751	-0.123972
O3	O	1.516680	0.001750	-0.123948
O4	O	1.470417	0.233218	-0.123972
O5	O	1.516662	0.001758	0.124130
O6	O	1.307265	0.122759	0.124107
O7	O	1.679797	0.112225	0.124130
Cu8	Cu	1.493530	0.117493	0.146770
Cu9	Cu	1.493550	0.117483	-0.146612
O10	O	1.470400	0.233226	0.124106
C11	C	1.259843	0.121959	0.000064
C12	C	1.118516	0.119579	0.000056
C13	C	1.060144	0.042590	0.000078
C14	C	0.963411	0.078955	-0.122239
C15	C	0.963426	0.078981	0.122348
C16	C	1.023644	0.155976	-0.122362
C17	C	1.023669	0.155991	0.122335
C18	C	0.926957	0.192412	-0.000012
C19	C	1.519156	-0.027885	0.000091
C20	C	1.526545	-0.116201	0.000090
C21	C	1.412838	-0.148879	0.000076
C22	C	1.419789	-0.231862	0.000081
C23	C	1.540447	-0.282166	0.000088
C24	C	1.654162	-0.249484	0.000106
C25	C	1.647210	-0.166502	0.000112
C26	C	1.567298	-0.533158	0.000080
C27	C	1.574241	-0.616145	0.000069
C28	C	1.339867	-0.598517	0.000046
C29	C	1.332926	-0.515535	0.000043
C30	C	1.446641	-0.482860	0.000069
C31	C	1.547554	-0.366988	0.000088
C32	C	1.439533	-0.398039	0.000080
C33	C	1.727237	0.113017	0.000090
C34	C	1.868564	0.115397	0.000089
C35	C	1.467924	0.262861	0.000064
C36	C	1.460535	0.351178	0.000055
N37	N	1.493524	0.117499	0.353119
N38	N	1.493566	0.117471	-0.352961
C39	C	1.396660	0.173439	0.450414
C40	C	1.510114	0.189534	0.549833
C41	C	1.380118	0.101411	0.549827
C42	C	1.607033	0.133630	0.450349
C43	C	1.476965	0.045476	0.450335
C44	C	1.590506	0.061540	0.549709
H45	H	0.869494	0.255769	-0.000085
H46	H	0.936538	0.046376	-0.225644
H47	H	1.050578	0.188544	0.225744
H48	H	1.314585	-0.107926	0.000063
Cl49	Cl	0.921974	0.028673	0.282007
Cl50	Cl	1.699234	-0.430235	0.000103
Cl51	Cl	1.276836	-0.272938	0.000060
H52	H	1.050349	0.188523	-0.225888
H53	H	1.524149	0.250431	0.593537
H54	H	1.117864	-0.020700	-0.000069
H55	H	1.234674	-0.474582	0.000033
H56	H	1.247287	-0.625131	0.000027
H57	H	1.462891	-0.015402	0.406596
Cl58	Cl	1.725938	-0.679385	0.000069
Cl59	Cl	1.717129	-0.011519	0.616612
H60	H	1.659893	-0.506565	0.000097
Cl61	Cl	1.755154	0.154730	0.383179
H62	H	1.752404	-0.290448	0.000122
Cl63	Cl	1.790162	-0.125422	0.000145
H64	H	1.314809	0.220790	0.406816
Cl65	Cl	1.287854	-0.334798	0.000077
Cl66	Cl	1.232023	0.080419	0.617295
