data_functionalizedCrystal
_audit_creation_method	'MofGen! by Chris Wilmer'
_symmetry_space_group_name_H-M	'P1'
_symmetry_Int_Tables_number	1
_symmetry_cell_setting	triclinic
loop_
_symmetry_equiv_pos_as_xyz
  x,y,z
_cell_length_a	8.497374
_cell_length_b	8.497374
_cell_length_c	10.686220
_cell_angle_alpha	85.634072
_cell_angle_beta	94.375433
_cell_angle_gamma	90.000078
loop_
_atom_site_label
_atom_site_type_symbol
_atom_site_fract_x
_atom_site_fract_y
_atom_site_fract_z
Zn1	Zn	-0.443010	0.707296	1.929066
Zn2	Zn	0.056990	1.207296	2.429066
Zn3	Zn	-0.706754	0.443535	1.929081
Zn4	Zn	-0.206754	0.943535	2.429081
Zn5	Zn	-0.463249	0.463726	1.718120
Zn6	Zn	0.036751	0.963726	2.218120
Zn7	Zn	-0.727007	0.727472	1.718114
Zn8	Zn	-0.227007	1.227472	2.218114
O9	O	-0.585005	0.585507	1.823595
O10	O	-0.085005	1.085507	2.323595
O11	O	-0.461050	0.655414	2.105641
O12	O	0.038950	1.155414	2.605641
O13	O	-0.674447	0.225450	1.901105
O14	O	-0.174447	0.725450	2.401105
O15	O	-0.239802	0.496042	1.746098
O16	O	0.260198	0.996042	2.246098
O17	O	-0.654822	0.461630	2.105652
O18	O	-0.154822	0.961630	2.605652
O19	O	-0.224933	0.674991	1.901080
O20	O	0.275067	1.174991	2.401080
O21	O	-0.495544	0.240284	1.746113
O22	O	0.004456	0.740284	2.246113
O23	O	-0.515183	0.515606	1.541547
O24	O	-0.015183	1.015606	2.041547
O25	O	-0.689341	0.945558	1.746089
O26	O	-0.189341	1.445558	2.246089
O27	O	-0.708965	0.709379	1.541543
O28	O	-0.208965	1.209379	2.041543
O29	O	-0.480689	0.930735	1.901075
O30	O	0.019311	1.430735	2.401075
O31	O	-0.930203	0.481194	1.901100
O32	O	-0.430203	0.981194	2.401100
O33	O	-0.945083	0.689801	1.746104
O34	O	-0.445083	1.189801	2.246104
C35	C	-0.616469	0.616874	1.495762
C36	C	-0.116469	1.116874	1.995762
C37	C	-0.629967	0.630330	1.355513
C38	C	-0.129967	1.130330	1.855513
C39	C	0.005115	0.585502	1.823591
C40	C	0.505115	1.085502	2.323591
C41	C	-0.173529	0.585511	1.823597
C42	C	0.326471	1.085511	2.323597
C43	C	-0.585008	0.996988	1.823586
C44	C	-0.085008	1.496988	2.323586
C45	C	-0.585025	1.175632	1.823589
C46	C	-0.085025	1.675632	2.323589
C47	C	-0.553420	0.554019	2.152710
C48	C	-0.053420	1.054019	2.652710
C49	C	-0.539960	0.540601	2.292958
C50	C	-0.039960	1.040601	2.792958
H51	H	-0.717368	0.717442	1.301767
H52	H	-0.217368	1.217442	1.801767
H53	H	-0.452575	0.453484	1.346697
H54	H	0.047425	0.953484	1.846697
