data_functionalizedCrystal
_audit_creation_method	'MofGen! by Chris Wilmer'
_symmetry_space_group_name_H-M	'P1'
_symmetry_Int_Tables_number	1
_symmetry_cell_setting	triclinic
loop_
_symmetry_equiv_pos_as_xyz
  x,y,z
_cell_length_a	16.109301
_cell_length_b	16.109301
_cell_length_c	14.586319
_cell_angle_alpha	89.994786
_cell_angle_beta	89.998857
_cell_angle_gamma	83.461532
loop_
_atom_site_label
_atom_site_type_symbol
_atom_site_fract_x
_atom_site_fract_y
_atom_site_fract_z
O1	O	1.103131	0.106867	-0.076193
O2	O	1.603131	0.606867	0.423807
O3	O	0.861069	0.120166	-0.076206
O4	O	1.361069	0.620166	0.423794
O5	O	0.988749	-0.007514	-0.076190
O6	O	1.488749	0.492486	0.423810
O7	O	0.975450	0.234548	-0.076209
O8	O	1.475450	0.734548	0.423791
O9	O	0.988740	-0.007516	0.076291
O10	O	1.488740	0.492484	0.576291
O11	O	0.861060	0.120164	0.076275
O12	O	1.361060	0.620164	0.576275
O13	O	1.103122	0.106865	0.076288
O14	O	1.603122	0.606865	0.576288
Cu15	Cu	0.982090	0.113515	0.090204
Cu16	Cu	1.482090	0.613515	0.590204
Cu17	Cu	0.982100	0.113517	-0.090122
Cu18	Cu	1.482100	0.613517	0.409878
O19	O	0.975441	0.234546	0.076272
O20	O	1.475441	0.734546	0.576272
C21	C	0.830089	0.119627	0.000033
C22	C	1.330089	0.619627	0.500033
C23	C	0.737794	0.118011	0.000028
C24	C	1.237794	0.618011	0.500028
C25	C	0.988206	-0.038490	0.000051
C26	C	1.488206	0.461510	0.500051
C27	C	0.986591	-0.130785	0.000052
C28	C	1.486591	0.369215	0.500052
C29	C	0.428796	0.188494	0.000038
C30	C	0.928796	0.688494	0.500038
C31	C	0.515516	0.190020	0.000033
C32	C	1.015516	0.690020	0.500033
C33	C	0.535389	0.038531	0.000033
C34	C	1.035389	0.538531	0.500033
C35	C	0.448671	0.037007	0.000032
C36	C	0.948671	0.537007	0.500032
C37	C	0.395376	0.111991	0.000039
C38	C	0.895376	0.611991	0.500039
C39	C	0.568815	0.115041	0.000035
C40	C	1.068815	0.615041	0.500035
C41	C	0.662841	0.116694	0.000029
C42	C	1.162841	0.616694	0.500029
C43	C	0.301344	0.110338	0.000043
C44	C	0.801344	0.610338	0.500043
C45	C	1.058599	-0.353058	0.000042
C46	C	1.558599	0.146942	0.500042
C47	C	1.057075	-0.439778	0.000034
C48	C	1.557075	0.060222	0.500034
C49	C	0.905586	-0.419904	0.000029
C50	C	1.405586	0.080096	0.500029
C51	C	0.907111	-0.333185	0.000030
C52	C	1.407111	0.166815	0.500030
C53	C	0.983620	-0.299765	0.000041
C54	C	1.483620	0.200235	0.500041
C55	C	0.980571	-0.473204	0.000033
C56	C	1.480571	0.026796	0.500033
C57	C	0.978918	-0.567230	0.000024
C58	C	1.478918	-0.067230	0.500024
C59	C	0.985273	-0.205733	0.000048
C60	C	1.485273	0.294267	0.500048
C61	C	1.134101	0.107405	0.000047
C62	C	1.634101	0.607405	0.500047
C63	C	1.226396	0.109020	0.000046
C64	C	1.726396	0.609020	0.500046
C65	C	0.975984	0.265522	0.000029
C66	C	1.475984	0.765522	0.500029
C67	C	0.977599	0.357817	0.000021
C68	C	1.477599	0.857817	0.500021
N69	N	0.982089	0.113513	0.217036
N70	N	1.482089	0.613513	0.717036
N71	N	0.982108	0.113512	-0.216954
N72	N	1.482108	0.613512	0.283046
C73	C	1.038644	0.056994	0.452049
C74	C	1.538644	0.556994	0.952049
C75	C	1.038647	0.056992	0.548031
C76	C	1.538647	0.556992	1.048031
C77	C	0.925547	0.170033	0.548026
C78	C	1.425547	0.670033	1.048026
C79	C	0.925541	0.170030	0.452046
C80	C	1.425541	0.670030	0.952046
C81	C	0.982094	0.113512	0.404060
C82	C	1.482094	0.613512	0.904060
C83	C	0.982103	0.113513	0.596021
C84	C	1.482103	0.613513	1.096021
C85	C	0.982105	0.113511	0.700088
C86	C	1.482105	0.613511	1.200088
C87	C	0.982092	0.113513	0.299987
C88	C	1.482092	0.613513	0.799987
H89	H	0.385405	0.249551	0.000044
H90	H	0.885405	0.749551	0.500044
O91	O	0.587280	-0.034228	0.000075
O92	O	1.087280	0.465772	0.500075
C93	C	0.670987	-0.016479	0.000056
C94	C	1.170987	0.483521	0.500056
H95	H	0.674290	0.048822	0.028922
H96	H	1.174290	0.548822	0.528922
H97	H	0.710288	-0.064276	0.044328
H98	H	1.210288	0.435724	0.544328
H99	H	0.696071	-0.019633	-0.073096
H100	H	1.196071	0.480367	0.426904
O101	O	0.547842	0.264408	0.000076
O102	O	1.047842	0.764408	0.500076
C103	C	0.482204	0.330259	0.000057
C104	C	0.982204	0.830259	0.500057
H105	H	0.423302	0.306962	0.028927
H106	H	0.923302	0.806962	0.528927
H107	H	0.500310	0.383670	0.044327
H108	H	1.000310	0.883670	0.544327
H109	H	0.469923	0.353393	-0.073095
H110	H	0.969923	0.853393	0.426905
H111	H	0.421461	-0.025296	0.000029
H112	H	0.921461	0.474704	0.500029
O113	O	0.870503	0.224851	0.594602
O114	O	1.370503	0.724851	1.094602
C115	C	0.788208	0.211324	0.571144
C116	C	1.288208	0.711324	1.071144
H117	H	0.787820	0.144758	0.544767
H118	H	1.287820	0.644758	1.044767
H119	H	0.746487	0.220874	0.634268
H120	H	1.246487	0.720874	1.134268
H121	H	0.763770	0.257400	0.515430
H122	H	1.263770	0.757400	1.015430
H123	H	0.879487	0.216054	0.412971
H124	H	1.379487	0.716054	0.912971
H125	H	1.120897	-0.325850	0.000049
H126	H	1.620897	0.174150	0.500049
H127	H	1.084694	0.010970	0.587101
H128	H	1.584694	0.510970	1.087101
H129	H	1.118130	-0.483167	0.000032
H130	H	1.618130	0.016833	0.500032
H131	H	0.843295	-0.447126	0.000022
H132	H	1.343295	0.052874	0.500022
O133	O	0.834195	-0.281529	0.000071
O134	O	1.334195	0.218471	0.500071
C135	C	0.766339	-0.329620	0.000046
C136	C	1.266339	0.170380	0.500046
H137	H	0.787452	-0.394352	0.028916
H138	H	1.287452	0.105648	0.528916
H139	H	0.713805	-0.297614	0.044312
H140	H	1.213805	0.202386	0.544312
H141	H	0.742891	-0.335781	-0.073108
H142	H	1.242891	0.164219	0.426892
H143	H	1.084693	0.010973	0.412982
H144	H	1.584693	0.510973	0.912982
