data_functionalizedCrystal
_audit_creation_method	'MofGen! by Chris Wilmer'
_symmetry_space_group_name_H-M	'P1'
_symmetry_Int_Tables_number	1
_symmetry_cell_setting	triclinic
loop_
_symmetry_equiv_pos_as_xyz
  x,y,z
_cell_length_a	12.645331
_cell_length_b	25.639239
_cell_length_c	12.645323
_cell_angle_alpha	89.968126
_cell_angle_beta	89.984262
_cell_angle_gamma	90.037922
loop_
_atom_site_label
_atom_site_type_symbol
_atom_site_fract_x
_atom_site_fract_y
_atom_site_fract_z
Zn1	Zn	1.620577	-0.208157	-0.599198
Zn2	Zn	1.620393	-0.295596	-0.421917
Zn3	Zn	1.443291	-0.208175	-0.421964
Zn4	Zn	1.443208	-0.295562	-0.599154
O5	O	1.531867	-0.251873	-0.510558
O6	O	1.768899	-0.219763	-0.575680
O7	O	1.596858	-0.284021	-0.273576
O8	O	1.466920	-0.135008	-0.445513
O9	O	1.768765	-0.284004	-0.445432
O10	O	1.597171	-0.134995	-0.575726
O11	O	1.466742	-0.219794	-0.273611
O12	O	1.294933	-0.219761	-0.445470
O13	O	1.466778	-0.283946	-0.747507
O14	O	1.294872	-0.283964	-0.575650
O15	O	1.597090	-0.219730	-0.747540
O16	O	1.596778	-0.368757	-0.445389
O17	O	1.466600	-0.368732	-0.575604
C18	C	1.256437	-0.251861	-0.510561
C19	C	1.138607	-0.251869	-0.510587
C20	C	0.971040	-0.292480	-0.592057
C21	C	1.093600	-0.292349	-0.592397
C22	C	1.094170	-0.196800	-0.541122
C23	C	0.971572	-0.197048	-0.541696
C24	C	0.971351	-0.265882	-0.398324
C25	C	1.093956	-0.267086	-0.398930
C26	C	1.531689	-0.387715	-0.510510
C27	C	1.531710	-0.445829	-0.510524
C28	C	1.599827	-0.806193	-0.442871
C29	C	1.599868	-0.860797	-0.442885
O30	O	1.657600	-0.889034	-0.385310
N31	N	1.532053	-0.888112	-0.510629
C32	C	1.464201	-0.860819	-0.578370
O33	O	1.406523	-0.889067	-0.635993
C34	C	1.464166	-0.806216	-0.578360
C35	C	1.531977	-0.778904	-0.510605
C36	C	1.667634	-0.778881	-0.375122
C37	C	1.667592	-0.724280	-0.375106
C38	C	1.599742	-0.696992	-0.442840
C39	C	1.531935	-0.724304	-0.510589
C40	C	1.396319	-0.778925	-0.646106
C41	C	1.396290	-0.724318	-0.646091
C42	C	1.464102	-0.697006	-0.578336
C43	C	1.464042	-0.642415	-0.578308
N44	N	1.531857	-0.615100	-0.510564
C45	C	1.599707	-0.642388	-0.442831
C46	C	1.464281	-0.975490	-0.578386
C47	C	1.464309	-1.030092	-0.578391
C48	C	1.599979	-1.030066	-0.442907
C49	C	1.599944	-0.975463	-0.442898
C50	C	1.532095	-0.948175	-0.510643
C51	C	1.599611	-0.527723	-0.442803
C52	C	1.599559	-0.473118	-0.442790
C53	C	1.463894	-0.473149	-0.578278
C54	C	1.463942	-0.527750	-0.578287
C55	C	1.531809	-0.555035	-0.510546
O56	O	1.406343	-0.614143	-0.635857
O57	O	1.657384	-0.614135	-0.385227
C58	C	1.808372	-0.251885	-0.510556
C59	C	1.926202	-0.251890	-0.510555
C60	C	1.531945	-0.251832	-0.787064
C61	C	1.531979	-0.251815	-0.904894
C62	C	1.532075	-0.115500	-0.510630
C63	C	1.532164	-0.057386	-0.510661
C64	C	1.449747	-0.292023	-1.072437
C65	C	1.449962	-0.292222	-0.949877
C66	C	1.643667	-0.266769	-0.949396
C67	C	1.643216	-0.267021	-1.071995
C68	C	1.503578	-0.196429	-1.072109
C69	C	1.501086	-0.196760	-0.949503
C70	C	1.531850	-0.251875	-0.235129
C71	C	1.532023	-0.251745	-0.117299
H72	H	0.941914	-0.165722	-0.485057
H73	H	1.654780	-0.450882	-0.387612
H74	H	0.941518	-0.333452	-0.573129
F75	F	1.324077	-0.695280	-0.718199
F76	F	0.930882	-0.317469	-0.362042
H77	H	1.124594	-0.239667	-0.334946
H78	H	1.468736	-0.333231	-0.920551
F79	F	1.391750	-0.556818	-0.650380
H80	H	1.341094	-0.801153	-0.701275
F81	F	1.675731	-0.319070	-0.909269
F82	F	1.398981	-0.178612	-1.112516
H83	H	1.409021	-0.953275	-0.633549
H84	H	1.468338	-0.332776	-1.103244
F85	F	1.134338	-0.181004	-0.647201
F86	F	1.671843	-0.556755	-0.370705
H87	H	1.408648	-0.450922	-0.633423
H88	H	1.722813	-0.702046	-0.319937
H89	H	1.367140	-0.282864	-0.919788
F90	F	1.132280	-0.156195	-0.465962
H91	H	1.366679	-0.282755	-1.101923
H92	H	0.942356	-0.236317	-0.337599
F93	F	1.131914	-0.320056	-0.368833
F94	F	1.739858	-0.807915	-0.303025
F95	F	0.930785	-0.280542	-0.700116
H96	H	1.655230	-1.052295	-0.387758
F97	F	1.581905	-0.157205	-1.110030
H98	H	1.667331	-0.307459	-1.100593
H99	H	1.655163	-0.953229	-0.387726
H100	H	1.706594	-0.238958	-1.101672
H101	H	1.409080	-1.052325	-0.633555
H102	H	1.122956	-0.283089	-0.675556
F103	F	1.725942	-0.229638	-0.911317
F104	F	1.393649	-0.182021	-0.911497
F105	F	1.573703	-0.155462	-0.909493
H106	H	1.123642	-0.333185	-0.573259
F107	F	0.934231	-0.181537	-0.648936
