data_functionalizedCrystal
_audit_creation_method	'MofGen! by Chris Wilmer'
_symmetry_space_group_name_H-M	'P1'
_symmetry_Int_Tables_number	1
_symmetry_cell_setting	triclinic
loop_
_symmetry_equiv_pos_as_xyz
  x,y,z
_cell_length_a	10.967829
_cell_length_b	10.968094
_cell_length_c	10.065875
_cell_angle_alpha	93.118877
_cell_angle_beta	86.921207
_cell_angle_gamma	87.247546
loop_
_atom_site_label
_atom_site_type_symbol
_atom_site_fract_x
_atom_site_fract_y
_atom_site_fract_z
O1	O	0.210019	1.622257	0.218612
O2	O	0.213467	1.272372	0.135519
O3	O	0.036823	1.449060	0.218620
O4	O	0.386663	1.445568	0.135510
O5	O	0.070648	1.415375	0.429731
O6	O	0.247292	1.238686	0.346629
O7	O	0.243844	1.588571	0.429723
Zn8	Zn	0.250938	1.408280	0.421694
Zn9	Zn	0.206373	1.452663	0.143547
O10	O	0.420488	1.411882	0.346621
C11	C	0.227574	1.210611	0.231170
C12	C	0.219201	1.076768	0.201663
C13	C	0.224324	0.861307	0.267368
C14	C	0.232988	0.999638	0.297876
C15	C	0.008822	1.429418	0.334079
C16	C	-0.125005	1.421063	0.363584
C17	C	-0.202187	1.434789	0.267376
C18	C	-0.340505	1.426153	0.297868
C19	C	0.448488	1.431525	0.231160
C20	C	0.582315	1.439881	0.201646
C21	C	0.229737	1.650332	0.334068
C22	C	0.238108	1.784176	0.363567
N23	N	0.281353	1.377999	0.611525
N24	N	0.175949	1.482953	-0.046279
C25	C	0.216947	1.442119	0.709532
C26	C	0.240364	1.418823	0.855713
H27	H	0.251199	1.036008	0.402828
C28	C	0.119009	1.539560	0.676693
N29	N	0.045234	1.612949	0.651961
H30	H	-0.381368	1.458012	0.096693
H31	H	0.353826	1.305852	0.635837
C32	C	-0.174070	1.396548	0.505359
N33	N	-0.211024	1.378084	0.612148
C34	C	0.338281	1.321352	0.888544
N35	N	0.412030	1.247937	0.913276
H36	H	-0.165863	1.452927	0.162432
C37	C	0.078033	1.580426	0.920892
N38	N	0.004287	1.653846	0.896164
C39	C	0.262736	0.833309	0.505340
N40	N	0.281296	0.870314	0.612126
H41	H	0.200986	1.040400	0.096711
C42	C	0.199711	0.812173	0.125590
N43	N	0.181173	0.775167	0.018800
H44	H	-0.376822	1.408001	0.402815
