data_functionalizedCrystal
_audit_creation_method	'MofGen! by Chris Wilmer'
_symmetry_space_group_name_H-M	'P1'
_symmetry_Int_Tables_number	1
_symmetry_cell_setting	triclinic
loop_
_symmetry_equiv_pos_as_xyz
  x,y,z
_cell_length_a	9.065218
_cell_length_b	15.186229
_cell_length_c	9.065215
_cell_angle_alpha	89.997401
_cell_angle_beta	85.015325
_cell_angle_gamma	89.994468
loop_
_atom_site_label
_atom_site_type_symbol
_atom_site_fract_x
_atom_site_fract_y
_atom_site_fract_z
O1	O	-1.960397	0.073271	-0.216356
O2	O	-1.531112	0.073263	-0.234103
O3	O	-1.754630	0.073264	-0.010587
O4	O	-1.736879	0.073270	-0.439872
O5	O	-1.754615	-0.073193	-0.010583
O6	O	-1.531097	-0.073194	-0.234099
O7	O	-1.960382	-0.073186	-0.216353
Zn8	Zn	-1.745737	-0.096443	-0.225225
Zn9	Zn	-1.745757	0.096520	-0.225230
O10	O	-1.736864	-0.073187	-0.439869
C11	C	-1.476118	0.000033	-0.232395
C12	C	-1.312275	0.000030	-0.227296
N13	N	-1.745734	-0.228136	-0.225222
C14	C	-1.844742	-0.453858	-0.126283
C15	C	-1.844747	-0.546048	-0.126280
C16	C	-1.646752	-0.546058	-0.324165
C17	C	-1.646742	-0.453870	-0.324161
C18	C	-1.745745	-0.407773	-0.225221
C19	C	-1.745760	-0.592150	-0.225223
C20	C	-1.745764	-0.692106	-0.225220
C21	C	-1.745739	-0.307810	-0.225222
C22	C	-1.015376	0.000040	-0.218060
C23	C	-1.179219	0.000033	-0.223159
C24	C	-1.738576	0.000043	-0.494857
C25	C	-1.743674	0.000045	-0.658700
N26	N	-1.745771	0.228213	-0.225222
C27	C	-1.752917	0.000036	0.044402
C28	C	-1.747819	0.000039	0.208245
H29	H	-1.925355	-0.416328	-0.045719
C30	C	-1.539204	-0.596224	-0.431352
C31	C	-1.447868	-0.649182	-0.351497
C32	C	-1.348792	-0.695415	-0.450191
H33	H	-1.480095	-0.555675	-0.490317
H34	H	-1.593069	-0.632228	-0.493494
H35	H	-1.394007	-0.613181	-0.289381
H36	H	-1.506936	-0.689748	-0.292537
H37	H	-1.402657	-0.731419	-0.512333
H38	H	-1.289694	-0.654860	-0.509150
H39	H	-1.286818	-0.731358	-0.396024
C40	C	-1.952310	-0.596197	-0.019099
C41	C	-2.043657	-0.649130	-0.098959
C42	C	-2.142751	-0.695348	-0.000268
H43	H	-2.011409	-0.555638	0.039863
H44	H	-1.898458	-0.632216	0.043045
H45	H	-2.097505	-0.613114	-0.161078
H46	H	-1.984599	-0.689705	-0.157916
H47	H	-2.088898	-0.731367	0.061877
H48	H	-2.201839	-0.654783	0.058689
H49	H	-2.204732	-0.731274	-0.054438
C50	C	-1.539086	-0.403779	-0.431351
C51	C	-1.447687	-0.350883	-0.351487
C52	C	-1.348488	-0.304735	-0.450171
H53	H	-1.592810	-0.367735	-0.493543
H54	H	-1.480045	-0.444405	-0.490264
H55	H	-1.506720	-0.310261	-0.292599
H56	H	-1.393930	-0.386905	-0.289300
H57	H	-1.289448	-0.345361	-0.509084
H58	H	-1.402225	-0.268696	-0.512358
H59	H	-1.286454	-0.268846	-0.395998
