data_functionalizedCrystal
_audit_creation_method	'MofGen! by Chris Wilmer'
_symmetry_space_group_name_H-M	'P1'
_symmetry_Int_Tables_number	1
_symmetry_cell_setting	triclinic
loop_
_symmetry_equiv_pos_as_xyz
  x,y,z
_cell_length_a	14.044191
_cell_length_b	14.044220
_cell_length_c	13.101039
_cell_angle_alpha	86.332523
_cell_angle_beta	86.339405
_cell_angle_gamma	86.809673
loop_
_atom_site_label
_atom_site_type_symbol
_atom_site_fract_x
_atom_site_fract_y
_atom_site_fract_z
O1	O	1.281974	-0.225380	-0.085125
O2	O	1.615307	0.107953	0.248209
O3	O	1.948641	0.441287	0.581542
O4	O	1.005303	-0.217066	-0.085147
O5	O	1.338636	0.116267	0.248186
O6	O	1.671969	0.449601	0.581520
O7	O	1.139485	-0.082888	-0.085126
O8	O	1.472818	0.250446	0.248207
O9	O	1.806152	0.583779	0.581541
O10	O	1.147792	-0.359558	-0.085146
O11	O	1.481125	-0.026225	0.248188
O12	O	1.814458	0.307108	0.581521
O13	O	1.129859	-0.092532	0.085302
O14	O	1.463192	0.240801	0.418636
O15	O	1.796526	0.574135	0.751969
O16	O	0.995677	-0.226710	0.085281
O17	O	1.329010	0.106623	0.418615
O18	O	1.662343	0.439956	0.751948
O19	O	1.272348	-0.235024	0.085304
O20	O	1.605681	0.098309	0.418637
O21	O	1.939015	0.431642	0.751970
Zn22	Zn	1.132484	-0.232399	0.112352
Zn23	Zn	1.465817	0.100935	0.445685
Zn24	Zn	1.799151	0.434268	0.779018
Zn25	Zn	1.145167	-0.219692	-0.112195
Zn26	Zn	1.478500	0.113642	0.221138
Zn27	Zn	1.811833	0.446975	0.554472
O28	O	1.138166	-0.369203	0.085283
O29	O	1.471499	-0.035869	0.418616
O30	O	1.804832	0.297464	0.751949
C31	C	1.131036	-0.052088	0.000088
C32	C	1.464370	0.281245	0.333422
C33	C	1.797703	0.614579	0.666755
C34	C	1.120192	0.054055	0.000089
C35	C	1.453525	0.387388	0.333422
C36	C	1.786858	0.720722	0.666755
C37	C	0.964868	-0.218251	0.000064
C38	C	1.298201	0.115082	0.333398
C39	C	1.631535	0.448415	0.666731
C40	C	0.858725	-0.207404	0.000056
C41	C	1.192059	0.125930	0.333389
C42	C	1.525392	0.459263	0.666723
C43	C	1.312783	-0.233839	0.000090
C44	C	1.646116	0.099495	0.333423
C45	C	1.979450	0.432828	0.666757
C46	C	1.418926	-0.244686	0.000092
C47	C	1.752259	0.088647	0.333425
C48	C	2.085593	0.421981	0.666758
C49	C	1.664385	-0.187585	0.000075
C50	C	1.997719	0.145749	0.333408
C51	C	2.331052	0.479082	0.666741
C52	C	1.613260	-0.264501	0.000073
C53	C	1.946593	0.068832	0.333406
C54	C	2.279927	0.402166	0.666740
C55	C	1.505122	-0.253473	0.000083
C56	C	1.838456	0.079860	0.333417
C57	C	2.171789	0.413193	0.666750
C58	C	1.772533	-0.198611	0.000064
C59	C	2.105866	0.134723	0.333398
C60	C	2.439199	0.468056	0.666731
C61	C	1.146615	-0.400002	0.000066
C62	C	1.479948	-0.066669	0.333400
C63	C	1.813281	0.266664	0.666733
C64	C	1.157460	-0.506145	0.000059
C65	C	1.490793	-0.172812	0.333392
C66	C	1.824126	0.160522	0.666726
N67	N	1.123835	-0.241071	0.265599
N68	N	1.457169	0.092262	0.598932
N69	N	1.790502	0.425596	0.932266
C70	C	1.100366	0.248394	0.000072
C71	C	1.433700	0.581728	0.333406
C72	C	1.767033	0.915061	0.666739
C73	C	1.177281	0.299522	0.000075
C74	C	1.510614	0.632855	0.333409
C75	C	1.843947	0.966189	0.666742
C76	C	1.166250	0.407659	0.000066
C77	C	1.499583	0.740992	0.333400
C78	C	1.832916	1.074326	0.666733
C79	C	1.111396	0.140247	0.000081
C80	C	1.444729	0.473581	0.333415
C81	C	1.778063	0.806914	0.666748
N82	N	1.153822	-0.211012	-0.265442
N83	N	1.487156	0.122321	0.067891
N84	N	1.820489	0.455654	0.401225
C85	C	1.112069	-0.252879	0.474640
C86	C	1.445403	0.080455	0.807973
C87	C	1.778736	0.413788	1.141306
C88	C	1.165585	-0.199208	0.525524
C89	C	1.498919	0.134126	0.858857
C90	C	1.832252	0.467459	1.192190
C91	C	1.159039	-0.205778	0.641841
C92	C	1.492372	0.127556	0.975174
C93	C	1.825705	0.460889	1.308508
C94	C	1.118615	-0.246310	0.358312
C95	C	1.451948	0.087024	0.691645
C96	C	1.785282	0.420357	1.024978
H97	H	1.650704	-0.338633	0.000063
H98	H	1.984037	-0.005300	0.333397
H99	H	2.317371	0.328034	0.666730
O100	O	1.002172	0.297983	0.000082
O101	O	1.335505	0.631316	0.333415
O102	O	1.668839	0.964649	0.666748
H103	H	0.997404	0.347171	-0.069377
H104	H	1.330737	0.680505	0.263957
H105	H	1.664071	1.013838	0.597290
H106	H	1.216319	-0.148325	0.481729
H107	H	1.549653	0.185008	0.815063
H108	H	1.882986	0.518342	1.148396
O109	O	1.044880	-0.320289	0.532636
O110	O	1.378213	0.013044	0.865970
O111	O	1.711546	0.346377	1.199303
H112	H	1.050229	-0.314943	0.616218
H113	H	1.383563	0.018390	0.949552
H114	H	1.716896	0.351723	1.282885
O115	O	1.614794	-0.089393	0.000087
O116	O	1.948127	0.243941	0.333421
O117	O	2.281461	0.577274	0.666754
H118	H	1.639716	-0.046135	-0.069373
H119	H	1.973049	0.287199	0.263960
H120	H	2.306383	0.620532	0.597293
O121	O	1.275483	0.249938	0.000102
O122	O	1.608816	0.583271	0.333435
O123	O	1.942149	0.916604	0.666769
H124	H	1.268851	0.171551	0.000119
H125	H	1.602185	0.504885	0.333452
H126	H	1.935518	0.838218	0.666785
