data_functionalizedCrystal
_audit_creation_method	'MofGen! by Chris Wilmer'
_symmetry_space_group_name_H-M	'P1'
_symmetry_Int_Tables_number	1
_symmetry_cell_setting	triclinic
loop_
_symmetry_equiv_pos_as_xyz
  x,y,z
_cell_length_a	14.519709
_cell_length_b	9.565339
_cell_length_c	14.519709
_cell_angle_alpha	89.998241
_cell_angle_beta	96.319855
_cell_angle_gamma	89.991645
loop_
_atom_site_label
_atom_site_type_symbol
_atom_site_fract_x
_atom_site_fract_y
_atom_site_fract_z
O1	O	1.223858	0.116081	-0.120887
O2	O	0.955381	0.116124	-0.135124
O3	O	1.096738	0.116089	0.006233
O4	O	1.082502	0.116116	-0.262244
O5	O	1.096744	-0.116431	0.006229
O6	O	0.955388	-0.116396	-0.135128
O7	O	1.223864	-0.116439	-0.120891
Zn8	Zn	1.089627	-0.153335	-0.128010
Zn9	Zn	1.089619	0.153020	-0.128005
O10	O	1.082508	-0.116404	-0.262248
C11	C	0.921025	-0.000131	-0.134462
C12	C	0.818643	-0.000115	-0.132474
N13	N	1.089639	-0.362415	-0.128013
C14	C	0.443748	-0.000179	-0.125154
C15	C	0.548056	-0.000161	-0.127187
C16	C	0.631192	-0.000145	-0.128814
C17	C	0.735507	-0.000130	-0.130847
C18	C	1.155033	-0.453597	-0.062645
C19	C	1.071667	-0.546755	-0.044595
C20	C	1.172972	-0.546811	-0.146003
C21	C	1.006231	-0.453522	-0.109922
C22	C	1.107591	-0.453569	-0.211367
C23	C	1.024166	-0.546686	-0.193352
C24	C	1.258221	-0.000181	-0.121553
C25	C	1.360602	-0.000188	-0.123541
C26	C	1.096078	-0.000171	0.040591
C27	C	1.094090	-0.000172	0.142972
N28	N	1.089614	0.362099	-0.127994
C29	C	1.083168	-0.000141	-0.296606
C30	C	1.085156	-0.000131	-0.398987
C31	C	1.086770	-0.000134	0.517868
C32	C	1.088803	-0.000145	0.413560
C33	C	1.090430	-0.000154	0.330423
C34	C	1.092463	-0.000163	0.226109
H35	H	1.210281	-0.412721	-0.007336
H36	H	0.968793	-0.587302	-0.248627
H37	H	0.935731	-0.412716	-0.094618
N38	N	1.126701	-0.402191	-0.299779
N39	N	1.201573	-0.432039	-0.330100
H40	H	1.215080	-0.395753	-0.392542
H41	H	1.056465	-0.587689	0.025904
H42	H	1.243456	-0.587788	-0.161228
