data_functionalizedCrystal
_audit_creation_method	'MofGen! by Chris Wilmer'
_symmetry_space_group_name_H-M	'P1'
_symmetry_Int_Tables_number	1
_symmetry_cell_setting	triclinic
loop_
_symmetry_equiv_pos_as_xyz
  x,y,z
_cell_length_a	15.944480
_cell_length_b	10.268362
_cell_length_c	11.792241
_cell_angle_alpha	89.998512
_cell_angle_beta	83.831632
_cell_angle_gamma	89.996308
loop_
_atom_site_label
_atom_site_type_symbol
_atom_site_fract_x
_atom_site_fract_y
_atom_site_fract_z
O1	O	-1.115221	0.108273	-0.145992
O2	O	-0.870745	0.108282	-0.164123
O3	O	-0.998915	0.108268	0.010164
O4	O	-0.987050	0.108287	-0.320279
O5	O	-0.998903	-0.108333	0.010158
O6	O	-0.870732	-0.108319	-0.164129
O7	O	-1.115208	-0.108328	-0.145998
Cu8	Cu	-0.992969	-0.128101	-0.155064
Cu9	Cu	-0.992984	0.128055	-0.155057
O10	O	-0.987038	-0.108314	-0.320285
C11	C	-0.839440	-0.000018	-0.163387
C12	C	-0.746181	-0.000015	-0.161173
N13	N	-0.992965	-0.308267	-0.155068
C14	C	-0.510883	-0.000006	-0.263772
C15	C	-0.460068	-0.106809	-0.208458
C16	C	-0.575440	-0.000016	-0.157070
C17	C	-0.460085	0.106742	-0.208427
C18	C	-0.410512	-0.000011	-0.153115
C19	C	-0.525854	-0.106907	-0.101785
C20	C	-0.525874	0.106740	-0.101770
C21	C	-0.475093	-0.000090	-0.046378
C22	C	-0.670451	-0.000019	-0.159352
C23	C	-0.315504	-0.000017	-0.150826
C24	C	-0.992971	-0.426109	-0.155069
C25	C	-0.992982	-0.573947	-0.155058
C26	C	-0.146511	-0.000023	-0.146749
C27	C	-0.239766	-0.000011	-0.149009
C28	C	-0.998164	-0.000032	0.052446
C29	C	-0.995933	-0.000031	0.178440
N30	N	-0.992994	0.308220	-0.155043
C31	C	-0.987789	-0.000011	-0.362566
C32	C	-0.990020	-0.000004	-0.488561
C33	C	-0.991831	-0.000009	0.409117
C34	C	-0.994110	-0.000021	0.280752
H35	H	-0.526921	-0.000100	-0.355680
N36	N	-0.423991	-0.220069	-0.264972
N37	N	-0.384079	-0.300014	-0.211510
H38	H	-0.358599	-0.380000	-0.251428
N39	N	-0.424062	0.220009	-0.264983
N40	N	-0.470419	0.300366	-0.307819
H41	H	-0.444981	0.380357	-0.347769
N42	N	-0.561982	0.220022	-0.045347
N43	N	-0.639969	0.237594	-0.037367
H44	H	-0.665479	0.317617	0.002456
H45	H	-0.459212	-0.000157	0.045599
H46	H	-0.554474	-0.197292	-0.056753
