data_functionalizedCrystal
_audit_creation_method	'MofGen! by Chris Wilmer'
_symmetry_space_group_name_H-M	'P1'
_symmetry_Int_Tables_number	1
_symmetry_cell_setting	triclinic
loop_
_symmetry_equiv_pos_as_xyz
  x,y,z
_cell_length_a	12.759395
_cell_length_b	12.759400
_cell_length_c	12.759393
_cell_angle_alpha	89.968436
_cell_angle_beta	89.981779
_cell_angle_gamma	90.014530
loop_
_atom_site_label
_atom_site_type_symbol
_atom_site_fract_x
_atom_site_fract_y
_atom_site_fract_z
Zn1	Zn	1.606256	-0.418209	-0.593974
Zn2	Zn	1.606151	-0.593928	-0.418294
Zn3	Zn	1.430558	-0.418263	-0.418314
Zn4	Zn	1.430547	-0.593846	-0.593936
O5	O	1.518378	-0.506061	-0.506129
O6	O	1.753263	-0.441530	-0.570677
O7	O	1.582818	-0.570682	-0.271275
O8	O	1.453914	-0.271235	-0.441640
O9	O	1.753186	-0.570630	-0.441605
O10	O	1.582998	-0.271195	-0.570696
O11	O	1.453811	-0.441622	-0.271290
O12	O	1.283536	-0.441543	-0.441603
O13	O	1.453895	-0.570490	-0.740962
O14	O	1.283527	-0.570543	-0.570632
O15	O	1.582987	-0.441450	-0.740990
O16	O	1.582807	-0.740938	-0.441569
O17	O	1.453792	-0.740878	-0.570613
C18	C	1.245410	-0.506040	-0.506116
C19	C	1.128634	-0.506057	-0.506136
C20	C	1.518316	-0.779029	-0.506107
C21	C	1.518385	-0.895805	-0.506133
C22	C	1.585638	-0.950664	-0.439014
C23	C	1.585702	-1.060388	-0.439047
C24	C	1.451252	-1.060385	-0.573320
C25	C	1.451194	-0.950663	-0.573292
C26	C	1.652829	-0.895806	-0.371856
C27	C	1.720087	-0.950664	-0.304731
C28	C	1.720151	-1.060388	-0.304763
C29	C	1.652958	-1.115254	-0.371921
C30	C	1.128695	-0.371842	-0.640755
C31	C	1.073865	-0.304748	-0.708073
C32	C	0.964144	-0.304766	-0.708086
C33	C	0.909250	-0.371885	-0.640772
C34	C	0.964080	-0.438979	-0.573454
C35	C	1.073804	-0.438955	-0.573450
C36	C	0.964018	-0.573187	-0.438831
C37	C	1.073740	-0.573175	-0.438821
C38	C	0.909124	-0.640305	-0.371516
C39	C	0.963954	-0.707406	-0.304202
C40	C	1.073682	-0.707386	-0.304193
C41	C	1.128570	-0.640269	-0.371503
C42	C	1.792411	-0.506083	-0.506143
C43	C	1.909188	-0.506092	-0.506149
C44	C	1.518452	-0.505955	-0.780163
C45	C	1.518483	-0.505910	-0.896940
C46	C	1.518469	-0.232028	-0.506174
C47	C	1.518508	-0.115251	-0.506194
C48	C	1.585711	-0.438713	-0.951818
C49	C	1.585736	-0.438675	-1.061542
C50	C	1.451302	-0.573041	-1.061500
C51	C	1.451272	-0.573072	-0.951778
C52	C	1.652921	-0.371550	-0.896979
C53	C	1.720156	-0.304348	-0.951857
C54	C	1.720180	-0.304310	-1.061582
C55	C	1.652971	-0.371474	-1.116428
C56	C	1.518365	-0.506091	-0.233162
C57	C	1.518537	-0.505840	-0.116386
H58	H	1.652781	-0.806463	-0.371819
H59	H	1.774918	-0.249584	-1.106261
H60	H	1.774799	-0.905987	-0.250059
H61	H	1.774868	-0.249659	-0.907195
O62	O	1.386078	-0.638433	-1.114658
C63	C	1.409015	-0.743155	-1.087838
H64	H	1.449378	-0.745357	-1.008173
H65	H	1.463038	-0.778527	-1.149582
C66	C	1.256997	-0.804085	-1.180597
C67	C	1.306563	-0.806791	-1.082746
H68	H	1.193801	-0.843341	-1.177460
H69	H	1.241545	-0.733532	-1.198670
H70	H	1.302027	-0.833560	-1.232040
H71	H	1.261539	-0.777304	-1.031308
H72	H	1.322005	-0.877340	-1.064664
H73	H	1.652985	-0.371426	-1.205772
H74	H	1.774923	-1.105051	-0.250114
H75	H	0.919251	-0.762044	-0.249396
H76	H	1.396431	-0.905997	-0.627947
O77	O	1.386126	-0.638402	-0.898336
C78	C	1.445919	-0.706287	-0.834875
H79	H	1.525548	-0.669238	-0.818473
H80	H	1.457443	-0.784140	-0.877133
C81	C	1.290298	-0.770828	-0.750775
C82	C	1.388097	-0.725319	-0.730621
H83	H	1.254631	-0.782572	-0.686467
H84	H	1.250014	-0.725095	-0.793532
H85	H	1.299916	-0.835700	-0.785992
H86	H	1.378478	-0.660443	-0.695417
H87	H	1.428379	-0.771042	-0.687855
O88	O	1.653216	-1.221840	-0.371963
C89	C	1.753907	-1.258390	-0.399069
H90	H	1.814397	-1.195126	-0.381150
H91	H	1.756098	-1.277780	-0.486251
C92	C	1.704933	-1.435287	-0.357120
C93	C	1.779229	-1.357587	-0.335104
H94	H	1.720552	-1.496479	-0.317668
H95	H	1.637094	-1.410664	-0.338862
H96	H	1.706766	-1.451432	-0.429773
H97	H	1.777386	-1.341434	-0.262455
H98	H	1.847069	-1.382210	-0.353348
H99	H	1.396546	-1.105065	-0.627995
O100	O	1.127352	-0.239652	-0.773427
C101	C	1.235953	-0.254000	-0.758968
H102	H	1.250920	-0.335033	-0.724409
H103	H	1.267072	-0.191605	-0.703131
C104	C	1.273945	-0.144972	-0.907728
C105	C	1.292329	-0.244501	-0.865291
H106	H	1.308722	-0.139108	-0.973312
H107	H	1.200779	-0.135301	-0.917468
H108	H	1.299877	-0.092987	-0.861188
H109	H	1.266385	-0.296484	-0.911826
H110	H	1.365492	-0.254180	-0.855562
O111	O	0.911039	-0.239561	-0.773577
C112	C	0.983010	-0.180295	-0.832967
H113	H	1.061227	-0.223311	-0.836522
H114	H	0.994663	-0.100450	-0.794639
C115	C	0.844163	-0.112476	-0.940449
C116	C	0.940227	-0.165313	-0.944822
H117	H	0.817771	-0.103229	-1.009445
H118	H	0.795673	-0.152401	-0.900435
H119	H	0.853886	-0.045944	-0.908505
H120	H	0.930500	-0.231848	-0.976754
H121	H	0.988714	-0.125399	-0.984844
H122	H	0.819908	-0.371885	-0.640780
H123	H	0.819783	-0.640312	-0.371529
O124	O	1.126779	-0.772663	-0.238766
C125	C	1.054795	-0.831880	-0.179343
H126	H	0.976598	-0.835581	-0.222376
H127	H	1.043099	-0.793306	-0.099621
C128	C	1.193637	-0.939128	-0.111138
C129	C	1.097597	-0.943681	-0.163996
H130	H	1.220040	-1.008090	-0.101666
H131	H	1.242135	-0.899230	-0.151169
H132	H	1.183878	-0.906978	-0.044709
H133	H	1.107360	-0.975818	-0.230428
H134	H	1.049102	-0.983587	-0.123976
O135	O	1.235153	-0.640418	-0.371588
C136	C	1.271820	-0.741143	-0.398353
H137	H	1.208607	-0.784652	-0.444080
H138	H	1.291259	-0.786557	-0.323886
C139	C	1.448644	-0.677612	-0.410252
C140	C	1.371008	-0.731047	-0.466422
H141	H	1.509830	-0.671386	-0.452235
H142	H	1.423942	-0.609752	-0.392216
H143	H	1.464831	-0.715464	-0.348198
H144	H	1.354813	-0.693189	-0.528466
H145	H	1.395710	-0.798901	-0.484470
H146	H	1.218036	-0.371816	-0.640746
H147	H	1.652911	-0.371576	-0.807636
