data_functionalizedCrystal
_audit_creation_method	'MofGen! by Chris Wilmer'
_symmetry_space_group_name_H-M	'P1'
_symmetry_Int_Tables_number	1
_symmetry_cell_setting	triclinic
loop_
_symmetry_equiv_pos_as_xyz
  x,y,z
_cell_length_a	12.837943
_cell_length_b	15.944551
_cell_length_c	11.295483
_cell_angle_alpha	94.094426
_cell_angle_beta	85.461227
_cell_angle_gamma	89.163839
loop_
_atom_site_label
_atom_site_type_symbol
_atom_site_fract_x
_atom_site_fract_y
_atom_site_fract_z
O1	O	1.382450	0.213265	-0.099009
O2	O	1.080644	0.202478	-0.099016
O3	O	1.239788	0.086257	-0.099002
O4	O	1.223306	0.329487	-0.099023
O5	O	1.225810	0.096448	0.099048
O6	O	1.066666	0.212669	0.099034
O7	O	1.368472	0.223456	0.099040
Cu8	Cu	1.216293	0.218993	0.117121
Cu9	Cu	1.232823	0.206941	-0.117096
O10	O	1.209328	0.339677	0.099026
C11	C	1.035034	0.203930	0.000008
C12	C	0.919957	0.193062	0.000006
C13	C	0.679007	0.323714	0.000011
C14	C	0.570881	0.313507	0.000010
C15	C	0.595575	0.162440	0.000011
C16	C	0.703701	0.172648	0.000012
C17	C	0.745413	0.253287	0.000011
C18	C	0.853542	0.263494	0.000003
C19	C	0.878234	0.112428	0.000013
C20	C	0.770107	0.102221	0.000011
C21	C	1.232115	0.060004	0.000023
C22	C	1.230063	-0.033407	0.000024
C23	C	1.126515	-0.256548	0.000005
C24	C	1.167708	-0.308694	0.097657
C25	C	1.226352	-0.204430	0.000015
C26	C	1.181513	-0.318722	-0.097604
C27	C	1.222761	-0.369631	0.000001
C28	C	1.267567	-0.255341	0.097747
C29	C	1.281364	-0.265369	-0.097602
C30	C	1.322627	-0.317491	0.000073
C31	C	1.228418	-0.109262	0.000024
C32	C	1.220702	-0.464796	0.000000
C33	C	1.414082	0.222005	0.000014
C34	C	1.529160	0.232872	0.000008
C35	C	1.217002	0.365931	-0.000001
C36	C	1.219054	0.459340	-0.000010
N37	N	1.204674	0.227469	0.281856
N38	N	1.244451	0.198459	-0.281831
C39	C	1.328092	0.137394	0.531156
C40	C	1.319318	0.143806	0.655819
C41	C	1.178349	0.246701	0.655847
C42	C	1.187123	0.240289	0.531184
C43	C	1.261997	0.185634	0.468843
C44	C	1.270775	0.179227	0.344178
C45	C	1.129802	0.282117	0.344208
C46	C	1.121028	0.288530	0.468871
H47	H	1.043639	-0.229864	0.000101
H48	H	1.119654	-0.327932	0.180211
C49	C	1.205231	-0.409700	-0.276828
C50	C	1.132358	-0.356138	-0.209051
H51	H	1.174875	-0.432800	-0.345622
H52	H	1.265137	-0.378786	-0.300299
H53	H	1.225090	-0.453848	-0.230533
H54	H	1.112504	-0.311986	-0.255344
H55	H	1.072433	-0.387054	-0.185582
C56	C	0.750678	-0.024454	0.101815
C57	C	0.724252	0.013584	0.000009
H58	H	0.722365	-0.079173	0.101811
H59	H	0.824570	-0.028453	0.101805
H60	H	0.723005	0.008463	0.170874
H61	H	0.751932	-0.019329	-0.069051
H62	H	0.650345	0.017579	0.000008
C63	C	1.409225	0.078156	0.356677
C64	C	1.353071	0.119148	0.275649
H65	H	1.460025	0.041061	0.314370
H66	H	1.443094	0.118620	0.405285
H67	H	1.362636	0.046976	0.405315
H68	H	1.399659	0.150334	0.227017
H69	H	1.319200	0.078679	0.227021
C70	C	0.996196	0.283537	0.694288
C71	C	1.096042	0.306760	0.724395
H72	H	0.945382	0.320610	0.736617
H73	H	0.991963	0.286640	0.611139
H74	H	0.983523	0.227615	0.714711
H75	H	1.108717	0.362680	0.703964
H76	H	1.100277	0.303665	0.807564
C77	C	1.318071	-0.130322	0.208346
C78	C	1.316644	-0.218065	0.209325
H79	H	1.348361	-0.107310	0.277234
H80	H	1.358186	-0.115178	0.139100
H81	H	1.248630	-0.108971	0.208062
H82	H	1.386087	-0.239416	0.209600
H83	H	1.276531	-0.233216	0.278590
C84	C	1.054948	0.060992	0.000007
C85	C	0.951231	0.035007	0.000010
H86	H	1.100011	0.013196	0.000008
H87	H	1.072458	0.090145	-0.069052
H88	H	1.062715	0.097248	0.069077
H89	H	0.943462	-0.001244	-0.069065
H90	H	0.933715	0.005841	0.069076
H91	H	1.405566	-0.344011	0.000130
H92	H	1.329382	-0.246112	-0.180161
C93	C	0.576143	0.035774	0.101829
C94	C	0.549715	0.073806	0.000019
H95	H	0.547826	-0.018944	0.101834
H96	H	0.650035	0.031772	0.101815
H97	H	0.548474	0.068696	0.170885
H98	H	0.577390	0.040887	-0.069038
H99	H	0.475808	0.077803	0.000022
C100	C	1.071647	0.420664	0.305846
C101	C	1.057145	0.335152	0.275713
H102	H	1.026799	0.453406	0.263554
H103	H	1.055704	0.432293	0.389003
H104	H	1.142273	0.434288	0.285394
H105	H	0.986521	0.321527	0.296173
H106	H	1.073081	0.323519	0.192537
C107	C	1.459541	0.041457	0.643265
C108	C	1.391972	0.090780	0.724315
H109	H	1.504398	0.008722	0.685554
H110	H	1.419810	0.005273	0.594657
H111	H	1.500251	0.076928	0.594629
H112	H	1.351256	0.055307	0.772946
H113	H	1.431708	0.126967	0.772944
H114	H	1.389064	0.092898	0.480398
H115	H	1.060064	0.333026	0.519643
H116	H	0.887502	0.329155	0.000004
H117	H	0.516815	0.370856	0.000014
C118	C	0.643743	0.472012	-0.000001
C119	C	0.724865	0.412350	0.000004
H120	H	0.672054	0.526732	0.000002
H121	H	0.606960	0.461336	-0.069061
H122	H	0.597207	0.468438	0.069068
H123	H	0.771397	0.415919	-0.069069
H124	H	0.761665	0.423029	0.069072
