data_functionalizedCrystal
_audit_creation_method	'MofGen! by Chris Wilmer'
_symmetry_space_group_name_H-M	'P1'
_symmetry_Int_Tables_number	1
_symmetry_cell_setting	triclinic
loop_
_symmetry_equiv_pos_as_xyz
  x,y,z
_cell_length_a	12.759401
_cell_length_b	29.839125
_cell_length_c	12.759399
_cell_angle_alpha	90.011795
_cell_angle_beta	89.984458
_cell_angle_gamma	89.990815
loop_
_atom_site_label
_atom_site_type_symbol
_atom_site_fract_x
_atom_site_fract_y
_atom_site_fract_z
Zn1	Zn	1.606154	-0.253990	0.418402
Zn2	Zn	2.106154	0.246010	0.918402
Zn3	Zn	1.606076	-0.178868	0.594059
Zn4	Zn	2.106076	0.321132	1.094059
Zn5	Zn	1.430485	-0.178876	0.418396
Zn6	Zn	1.930485	0.321124	0.918396
Zn7	Zn	1.430444	-0.253973	0.594040
Zn8	Zn	1.930444	0.246027	1.094040
O9	O	1.518290	-0.216427	0.506224
O10	O	2.018290	0.283573	1.006224
O11	O	1.753165	-0.244029	0.441713
O12	O	2.253165	0.255971	0.941713
O13	O	1.582769	-0.116002	0.570762
O14	O	2.082769	0.383998	1.070762
O15	O	1.453838	-0.188851	0.271375
O16	O	1.953838	0.311149	0.771375
O17	O	1.753108	-0.188837	0.570768
O18	O	2.253108	0.311163	1.070768
O19	O	1.582902	-0.244037	0.271380
O20	O	2.082902	0.255963	0.771380
O21	O	1.453763	-0.116008	0.441703
O22	O	1.953763	0.383992	0.941703
O23	O	1.283459	-0.188835	0.441685
O24	O	1.783459	0.311165	0.941685
O25	O	1.453767	-0.316842	0.570737
O26	O	1.953767	0.183158	1.070737
O27	O	1.283428	-0.244008	0.570731
O28	O	1.783428	0.255992	1.070731
O29	O	1.582861	-0.316855	0.441695
O30	O	2.082861	0.183145	0.941695
O31	O	1.582728	-0.188820	0.741077
O32	O	2.082728	0.311180	1.241077
O33	O	1.453692	-0.243999	0.741064
O34	O	1.953692	0.256001	1.241064
C35	C	1.245323	-0.216421	0.506206
C36	C	1.745323	0.283579	1.006206
C37	C	1.128546	-0.216428	0.506224
C38	C	1.628546	0.283572	1.006224
C39	C	1.073715	-0.245211	0.439146
C40	C	1.573715	0.254789	0.939146
C41	C	0.963990	-0.245214	0.439157
C42	C	1.463990	0.254786	0.939157
C43	C	0.963939	-0.187650	0.573331
C44	C	1.463939	0.312350	1.073331
C45	C	1.073661	-0.187645	0.573314
C46	C	1.573661	0.312355	1.073314
C47	C	1.518318	-0.333605	0.506215
C48	C	2.018318	0.166395	1.006215
C49	C	1.518331	-0.383540	0.506211
C50	C	2.018331	0.116460	1.006211
C51	C	1.585620	-0.693193	0.438843
C52	C	2.085620	-0.193193	0.938843
C53	C	1.585673	-0.880866	0.438753
C54	C	2.085673	-0.380866	0.938753
O55	O	1.642807	-0.905139	0.381575
O56	O	2.142807	-0.405139	0.881575
N57	N	1.518470	-0.904325	0.505929
N58	N	2.018470	-0.404325	1.005929
C59	C	1.451244	-0.880863	0.573127
C60	C	1.951244	-0.380863	1.073127
O61	O	1.394078	-0.905123	0.630255
O62	O	1.894078	-0.405123	1.130255
C63	C	1.451188	-0.693191	0.573211
C64	C	1.951188	-0.193191	1.073211
C65	C	1.518402	-0.669734	0.506038
C66	C	2.018402	-0.169734	1.006038
C67	C	1.652829	-0.669736	0.371675
C68	C	2.152829	-0.169736	0.871675
C69	C	1.652819	-0.622821	0.371702
C70	C	2.152819	-0.122821	0.871702
C71	C	1.585601	-0.599362	0.438897
C72	C	2.085601	-0.099362	0.938897
C73	C	1.518393	-0.622819	0.506065
C74	C	2.018393	-0.122819	1.006065
C75	C	1.383958	-0.669729	0.640403
C76	C	1.883958	-0.169729	1.140403
C77	C	1.383948	-0.622808	0.640416
C78	C	1.883948	-0.122808	1.140416
C79	C	1.451163	-0.599352	0.573243
C80	C	1.951163	-0.099352	1.073243
C81	C	1.451165	-0.552444	0.573288
C82	C	1.951165	-0.052444	1.073288
N83	N	1.518368	-0.528985	0.506112
N84	N	2.018368	-0.028985	1.006112
C85	C	1.585586	-0.552444	0.438917
C86	C	2.085586	-0.052444	0.938917
C87	C	1.451280	-0.979394	0.573080
C88	C	1.951280	-0.479394	1.073080
C89	C	1.451296	-1.026311	0.573061
C90	C	1.951296	-0.526311	1.073061
C91	C	1.585723	-1.026311	0.438685
C92	C	2.085723	-0.526311	0.938685
C93	C	1.585712	-0.979392	0.438711
C94	C	2.085712	-0.479392	0.938711
C95	C	1.518483	-0.955935	0.505904
C96	C	2.018483	-0.455935	1.005904
C97	C	1.585561	-0.453918	0.438979
C98	C	2.085561	0.046082	0.938979
C99	C	1.585549	-0.406998	0.439015
C100	C	2.085549	0.093002	0.939015
C101	C	1.451118	-0.407003	0.573387
C102	C	1.951118	0.092997	1.073387
C103	C	1.451134	-0.453918	0.573355
C104	C	1.951134	0.046082	1.073355
C105	C	1.518359	-0.477375	0.506143
C106	C	2.018359	0.022625	1.006143
O107	O	1.394053	-0.528142	0.630428
O108	O	1.894053	-0.028142	1.130428
O109	O	1.642727	-0.528176	0.381781
O110	O	2.142727	-0.028176	0.881781
C111	C	1.585630	-0.740108	0.438816
C112	C	2.085630	-0.240108	0.938816
C113	C	1.518422	-0.763565	0.505984
C114	C	2.018422	-0.263565	1.005984
C115	C	1.451204	-0.740106	0.573179
C116	C	1.951204	-0.240106	1.073179
C117	C	1.518437	-0.810483	0.505965
C118	C	2.018437	-0.310483	1.005965
C119	C	1.585655	-0.833942	0.438769
C120	C	2.085655	-0.333942	0.938769
C121	C	1.652858	-0.810482	0.371594
C122	C	2.152858	-0.310482	0.871594
C123	C	1.652848	-0.763567	0.371621
C124	C	2.152848	-0.263567	0.871621
C125	C	1.384001	-0.763565	0.640355
C126	C	1.884001	-0.263565	1.140355
C127	C	1.384017	-0.810481	0.640323
C128	C	1.884017	-0.310481	1.140323
C129	C	1.451235	-0.833940	0.573128
C130	C	1.951235	-0.333940	1.073128
C131	C	1.792323	-0.216434	0.506243
C132	C	2.292323	0.283566	1.006243
C133	C	1.909100	-0.216436	0.506251
C134	C	2.409100	0.283564	1.006251
C135	C	1.518226	-0.216417	0.779191
C136	C	2.018226	0.283583	1.279191
C137	C	1.518294	-0.216427	0.895968
C138	C	2.018294	0.283573	1.395968
C139	C	1.518322	-0.099704	0.506158
C140	C	2.018322	0.400296	1.006158
C141	C	1.518514	-0.049770	0.505866
C142	C	2.018514	0.450230	1.005866
C143	C	1.518383	-0.216447	0.232191
C144	C	2.018383	0.283553	0.732191
C145	C	1.518423	-0.216456	0.115414
C146	C	2.018423	0.283544	0.615414
C147	C	1.585560	-0.187728	0.950802
C148	C	2.085560	0.312272	1.450802
C149	C	1.585628	-0.187743	1.060526
C150	C	2.085628	0.312257	1.560526
C151	C	1.451154	-0.245158	1.060572
C152	C	1.951154	0.254842	1.560572
C153	C	1.451093	-0.245145	0.950850
C154	C	1.951093	0.254855	1.450850
H155	H	0.919238	-0.164217	0.627955
H156	H	1.419238	0.335783	1.127955
H157	H	1.396440	-0.268538	1.105271
H158	H	1.896440	0.231462	1.605271
Cl159	Cl	1.142709	-0.281393	0.354799
Cl160	Cl	1.642709	0.218607	0.854799
H161	H	1.118306	-0.164205	0.627938
H162	H	1.618306	0.335795	1.127938
Cl163	Cl	1.366617	-0.377503	0.657853
Cl164	Cl	1.866617	0.122497	1.157853
H165	H	1.640287	-0.387902	0.384314
H166	H	2.140287	0.112098	0.884314
Cl167	Cl	1.366810	-1.055794	0.657527
Cl168	Cl	1.866810	-0.555794	1.157527
H169	H	1.640299	-0.473011	0.384245
H170	H	2.140299	0.026989	0.884245
H171	H	1.329190	-0.603711	0.695123
H172	H	1.829190	-0.103711	1.195123
H173	H	1.329264	-0.744470	0.695076
H174	H	1.829264	-0.244470	1.195076
Cl175	Cl	1.737315	-0.593339	0.287244
Cl176	Cl	2.237315	-0.093339	0.787244
Cl177	Cl	1.670197	-0.151663	1.129456
Cl178	Cl	2.170197	0.348337	1.629456
Cl179	Cl	1.366528	-0.281229	0.881911
Cl180	Cl	1.866528	0.218771	1.381911
H181	H	1.640281	-0.164345	0.906119
H182	H	2.140281	0.335655	1.406119
H183	H	0.919352	-0.268651	0.384535
H184	H	1.419352	0.231349	0.884535
Cl185	Cl	1.737357	-0.699219	0.287203
Cl186	Cl	2.237357	-0.199219	0.787203
H187	H	1.396535	-0.960298	0.627804
H188	H	1.896535	-0.460298	1.127804
Cl189	Cl	1.737349	-0.734086	0.287168
Cl190	Cl	2.237349	-0.234086	0.787168
Cl191	Cl	1.670223	-1.055811	0.354210
Cl192	Cl	2.170223	-0.555811	0.854210
Cl193	Cl	1.670211	-0.949909	0.354260
Cl194	Cl	2.170211	-0.449909	0.854260
Cl195	Cl	1.299457	-0.699206	0.724858
Cl196	Cl	1.799457	-0.199206	1.224858
Cl197	Cl	1.366641	-0.483408	0.657807
Cl198	Cl	1.866641	0.016592	1.157807
Cl199	Cl	1.299516	-0.839963	0.724785
Cl200	Cl	1.799516	-0.339963	1.224785
Cl201	Cl	1.737362	-0.839983	0.287123
Cl202	Cl	2.237362	-0.339983	0.787123
