data_functionalizedCrystal
_audit_creation_method	'MofGen! by Chris Wilmer'
_symmetry_space_group_name_H-M	'P1'
_symmetry_Int_Tables_number	1
_symmetry_cell_setting	triclinic
loop_
_symmetry_equiv_pos_as_xyz
  x,y,z
_cell_length_a	19.288864
_cell_length_b	8.559649
_cell_length_c	18.366186
_cell_angle_alpha	89.994914
_cell_angle_beta	89.977106
_cell_angle_gamma	76.457456
loop_
_atom_site_label
_atom_site_type_symbol
_atom_site_fract_x
_atom_site_fract_y
_atom_site_fract_z
O1	O	0.910987	0.199404	-0.060777
O2	O	0.707328	0.226304	-0.060726
O3	O	0.827100	-0.019877	-0.060756
O4	O	0.791215	0.445585	-0.060748
O5	O	0.827083	-0.019889	0.060344
O6	O	0.707311	0.226292	0.060373
O7	O	0.910970	0.199392	0.060322
Zn8	Zn	0.809137	0.212840	0.079575
Zn9	Zn	0.809160	0.212856	-0.079979
O10	O	0.791198	0.445573	0.060351
C11	C	0.681488	0.225432	-0.000170
C12	C	0.604519	0.222834	-0.000151
C13	C	0.829811	-0.079432	-0.000208
C14	C	0.837906	-0.256871	-0.000214
C15	C	0.552314	0.367282	-0.000161
C16	C	0.479994	0.364841	-0.000169
C17	C	0.459883	0.217944	-0.000182
C18	C	0.512099	0.073477	-0.000169
C19	C	0.584417	0.075922	-0.000154
C20	C	0.357630	0.102471	-0.042635
C21	C	0.285312	0.100032	-0.042655
C22	C	0.236829	0.210396	-0.000226
C23	C	0.260670	0.323227	0.042213
C24	C	0.332989	0.325672	0.042228
C25	C	0.381467	0.215276	-0.000198
C26	C	0.106205	0.352207	-0.000243
C27	C	0.033884	0.349760	-0.000247
C28	C	0.065991	0.058393	-0.000254
C29	C	0.138310	0.060844	-0.000244
C30	C	0.158412	0.207756	-0.000241
C31	C	0.936810	0.200264	-0.000235
C32	C	1.013778	0.202862	-0.000259
C33	C	0.788487	0.505129	-0.000198
C34	C	0.780392	0.682567	-0.000197
N35	N	0.809127	0.212828	0.188466
N36	N	0.809177	0.212855	-0.188870
C37	C	0.862174	0.103873	0.226553
C38	C	0.862179	0.103866	0.302781
C39	C	0.809141	0.212842	0.340919
C40	C	0.756084	0.321805	0.302822
C41	C	0.756077	0.321799	0.226596
C42	C	0.792272	0.358486	0.461683
C43	C	0.792284	0.358494	0.537908
C44	C	0.809160	0.212862	0.576026
C45	C	0.826039	0.067214	0.537910
C46	C	0.826032	0.067207	0.461684
C47	C	0.809143	0.212860	0.423573
C48	C	0.862216	0.103889	0.696769
C49	C	0.862216	0.103880	0.772998
C50	C	0.756124	0.321833	0.773037
C51	C	0.756121	0.321829	0.696809
C52	C	0.809171	0.212858	0.658680
H53	H	0.568676	0.486909	-0.000160
O54	O	0.492689	-0.069359	-0.000153
C55	C	0.554279	-0.196334	-0.000162
H56	H	0.601111	-0.151887	0.022780
H57	H	0.544589	-0.298932	0.034987
H58	H	0.566941	-0.240859	-0.058259
H59	H	0.724959	-0.233537	-0.000181
O60	O	0.635198	-0.064296	-0.000247
C61	C	0.678010	-0.071608	-0.062970
H62	H	0.674916	0.055245	-0.083875
H63	H	0.735651	-0.131543	-0.048859
H64	H	0.658082	-0.144437	-0.106893
H65	H	0.265906	0.008165	-0.077214
H66	H	0.893342	-0.340776	-0.000222
O67	O	0.913735	-0.002143	0.189629
C68	C	0.960568	-0.098287	0.239598
H69	H	0.932184	-0.099916	0.293951
H70	H	0.977978	-0.226010	0.217577
H71	H	1.009410	-0.046683	0.247673
H72	H	0.221197	0.413096	0.076763
O73	O	0.913775	-0.002125	0.659837
C74	C	0.960605	-0.098282	0.709804
H75	H	0.932220	-0.099920	0.764155
H76	H	0.978014	-0.226002	0.687778
H77	H	1.009449	-0.046685	0.717885
H78	H	0.905378	0.015138	0.333798
O79	O	0.842406	-0.074409	0.424771
C80	C	0.857322	-0.202955	0.474753
H81	H	0.830708	-0.161665	0.529104
H82	H	0.835878	-0.306958	0.452745
H83	H	0.917440	-0.244191	0.482827
H84	H	0.839781	-0.051375	0.568945
O85	O	0.913663	-0.002125	0.810030
C86	C	0.881727	-0.100510	0.854157
H87	H	0.827079	-0.102902	0.831213
H88	H	0.916859	-0.227725	0.855009
H89	H	0.875419	-0.050464	0.911928
O90	O	0.429206	0.505057	-0.000279
C91	C	0.386465	0.512357	-0.063018
H92	H	0.389586	0.385502	-0.083926
H93	H	0.328807	0.572285	-0.048928
H94	H	0.406439	0.585188	-0.106931
H95	H	0.712937	0.410557	0.804088
O96	O	0.704561	0.427837	0.659920
C97	C	0.657737	0.523996	0.709923
H98	H	0.686130	0.525640	0.764245
H99	H	0.640324	0.651713	0.687899
H100	H	0.608896	0.472396	0.718059
H101	H	0.712878	0.410525	0.195584
H102	H	0.122573	0.471832	-0.000231
H103	H	0.778545	0.477089	0.568936
H104	H	0.778517	0.477085	0.430653
O105	O	0.704477	0.427505	0.339833
C106	C	0.637085	0.401938	0.321233
H107	H	0.643576	0.273958	0.300284
H108	H	0.601243	0.420527	0.371382
H109	H	0.611943	0.490653	0.276995
O110	O	0.356135	0.435104	0.083567
C111	C	0.340729	0.413443	0.157420
H112	H	0.334886	0.285293	0.166163
H113	H	0.385983	0.435793	0.192805
H114	H	0.288861	0.501725	0.173011
O115	O	-0.016803	0.490130	-0.000384
C116	C	-0.008851	0.579361	-0.063093
H117	H	0.020443	0.494788	-0.106924
H118	H	-0.063680	0.643834	-0.084154
H119	H	0.023112	0.671613	-0.048909
O120	O	0.046430	-0.084266	-0.000397
C121	C	0.005578	-0.094376	-0.063115
H122	H	0.018285	-0.010962	-0.106945
H123	H	0.018968	-0.223245	-0.084172
H124	H	-0.053551	-0.057098	-0.048944
O125	O	0.188935	-0.079622	-0.000275
C126	C	0.155680	-0.209804	-0.000270
H127	H	0.099436	-0.168839	-0.023206
H128	H	0.187821	-0.310980	-0.035426
H129	H	0.152893	-0.254864	0.057825
H130	H	0.397100	0.012595	-0.077190
