data_functionalizedCrystal
_audit_creation_method	'MofGen! by Chris Wilmer'
_symmetry_space_group_name_H-M	'P1'
_symmetry_Int_Tables_number	1
_symmetry_cell_setting	triclinic
loop_
_symmetry_equiv_pos_as_xyz
  x,y,z
_cell_length_a	17.699083
_cell_length_b	14.044220
_cell_length_c	16.776229
_cell_angle_alpha	89.992645
_cell_angle_beta	89.998886
_cell_angle_gamma	88.235946
loop_
_atom_site_label
_atom_site_type_symbol
_atom_site_fract_x
_atom_site_fract_y
_atom_site_fract_z
O1	O	1.012346	0.119850	-0.066178
O2	O	1.512346	0.619850	0.433822
O3	O	0.793043	0.135443	-0.066204
O4	O	1.293043	0.635443	0.433796
O5	O	0.899403	-0.010330	-0.066183
O6	O	1.399403	0.489670	0.433817
O7	O	0.905986	0.265624	-0.066198
O8	O	1.405986	0.765624	0.433802
O9	O	0.899387	-0.010339	0.066393
O10	O	1.399387	0.489661	0.566393
O11	O	0.793027	0.135434	0.066372
O12	O	1.293027	0.635434	0.566372
O13	O	1.012330	0.119841	0.066399
O14	O	1.512330	0.619841	0.566399
Zn15	Zn	0.902676	0.127636	0.087435
Zn16	Zn	1.402676	0.627636	0.587435
Zn17	Zn	0.902697	0.127648	-0.087240
Zn18	Zn	1.402697	0.627648	0.412760
O19	O	0.905970	0.265615	0.066378
O20	O	1.405970	0.765615	0.566378
C21	C	0.764800	0.134880	0.000081
C22	C	1.264800	0.634880	0.500081
C23	C	0.680666	0.133204	0.000071
C24	C	1.180666	0.633204	0.500071
C25	C	0.637948	0.218769	0.000067
C26	C	1.137948	0.718769	0.500067
C27	C	0.558895	0.217189	0.000077
C28	C	1.058895	0.717189	0.500077
C29	C	0.522563	0.130041	0.000086
C30	C	1.022563	0.630041	0.500086
C31	C	0.565287	0.044469	0.000093
C32	C	1.065287	0.544469	0.500093
C33	C	0.644338	0.046050	0.000088
C34	C	1.144338	0.546050	0.500088
C35	C	0.246484	0.038089	0.000113
C36	C	0.746484	0.538089	0.500113
C37	C	0.167427	0.036514	0.000115
C38	C	0.667427	0.536514	0.500115
C39	C	0.161041	0.209227	0.000102
C40	C	0.661041	0.709227	0.500102
C41	C	0.240092	0.210809	0.000097
C42	C	0.740092	0.710809	0.500097
C43	C	0.282809	0.125237	0.000108
C44	C	0.782809	0.625237	0.500108
C45	C	0.368527	0.126952	0.000098
C46	C	0.868527	0.626952	0.500098
C47	C	0.436847	0.128325	0.000090
C48	C	0.936847	0.628325	0.500090
C49	C	0.896513	-0.045643	0.000105
C50	C	1.396513	0.454357	0.500105
C51	C	0.887917	-0.150849	0.000105
C52	C	1.387917	0.349151	0.500105
C53	C	0.872202	-0.343474	0.000091
C54	C	1.372202	0.156526	0.500091
C55	C	0.933168	-0.401248	0.000096
C56	C	1.433168	0.098752	0.500096
C57	C	0.924424	-0.508431	0.000089
C58	C	1.424424	-0.008431	0.500089
C59	C	0.880945	-0.236281	0.000099
C60	C	1.380945	0.263719	0.500099
C61	C	1.040574	0.120404	0.000112
C62	C	1.540574	0.620404	0.500112
C63	C	1.124707	0.122081	0.000117
C64	C	1.624707	0.622081	0.500117
C65	C	0.908860	0.300927	0.000088
C66	C	1.408860	0.800927	0.500088
C67	C	0.917456	0.406133	0.000083
C68	C	1.417456	0.906133	0.500083
N69	N	0.902667	0.127628	0.206646
N70	N	1.402667	0.627628	0.706646
N71	N	0.902712	0.127649	-0.206452
N72	N	1.402712	0.627649	0.293548
C73	C	0.949781	0.063106	0.248372
C74	C	1.449781	0.563106	0.748372
C75	C	0.949785	0.063105	0.331825
C76	C	1.449785	0.563105	0.831825
C77	C	0.902679	0.127631	0.373549
C78	C	1.402679	0.627631	0.873549
C79	C	0.855560	0.192156	0.331817
C80	C	1.355560	0.692156	0.831817
C81	C	0.855552	0.192152	0.248366
C82	C	1.355552	0.692152	0.748366
C83	C	0.855589	0.192175	0.668364
C84	C	1.355589	0.692175	1.168364
C85	C	0.855601	0.192176	0.751821
C86	C	1.355601	0.692176	1.251821
C87	C	0.949821	0.063128	0.751822
C88	C	1.449821	0.563128	1.251822
C89	C	0.949813	0.063123	0.668372
C90	C	1.449813	0.563123	1.168372
C91	C	0.902692	0.127645	0.626647
C92	C	1.402692	0.627645	1.126647
C93	C	0.902687	0.127644	0.536159
C94	C	1.402687	0.627644	1.036159
C95	C	0.902687	0.127638	0.464036
C96	C	1.402687	0.627638	0.964036
H97	H	0.667523	0.289735	0.000059
H98	H	1.167523	0.789735	0.500059
C99	C	0.784151	-0.441515	-0.068066
C100	C	1.284151	0.058485	0.431934
C101	C	0.792880	-0.385367	0.000086
C102	C	1.292880	0.114633	0.500086
H103	H	0.735183	-0.467391	-0.068063
H104	H	1.235183	0.032609	0.431937
H105	H	0.790081	-0.403404	-0.114289
H106	H	1.290081	0.096596	0.385711
H107	H	0.821262	-0.491841	-0.068059
H108	H	1.321262	0.008159	0.431941
H109	H	0.755772	-0.335037	0.000076
H110	H	1.255772	0.164963	0.500076
H111	H	0.786943	-0.423481	0.046321
H112	H	1.286943	0.076519	0.546321
H113	H	0.817239	0.244723	0.785791
H114	H	1.317239	0.744723	1.285791
C115	C	1.042910	-0.064464	0.256765
C116	C	1.542910	0.435536	0.756765
C117	C	1.001560	-0.007827	0.202513
C118	C	1.501560	0.492173	0.702513
H119	H	1.074873	-0.108260	0.228453
H120	H	1.574873	0.391740	0.728453
H121	H	1.072795	-0.025054	0.289302
H122	H	1.572795	0.474946	0.789302
H123	H	1.009104	-0.098499	0.289325
H124	H	1.509104	0.401501	0.789325
H125	H	1.035367	0.026213	0.169957
H126	H	1.535367	0.526213	0.669957
H127	H	0.971673	-0.047242	0.169962
H128	H	1.471673	0.452758	0.669962
H129	H	0.988174	0.010583	0.634402
H130	H	1.488174	0.510583	1.134402
C131	C	0.325302	0.312777	0.068222
C132	C	0.825302	0.812777	0.568222
C133	C	0.280035	0.306598	0.000078
C134	C	0.780035	0.806598	0.500078
H135	H	0.349965	0.371912	0.068205
H136	H	0.849965	0.871912	0.568205
H137	H	0.294599	0.308584	0.114450
H138	H	0.794599	0.808584	0.614450
H139	H	0.362050	0.262032	0.068217
H140	H	0.862050	0.762032	0.568217
H141	H	0.243283	0.357340	0.000086
H142	H	0.743283	0.857340	0.500086
H143	H	0.310740	0.310801	-0.046162
H144	H	0.810740	0.810801	0.453838
H145	H	0.137848	-0.034456	0.000124
H146	H	0.637848	0.465544	0.500124
C147	C	0.244845	-0.132793	0.000122
C148	C	0.744845	0.367207	0.500122
C149	C	0.293432	-0.055971	0.000119
C150	C	0.793432	0.444029	0.500119
H151	H	0.273833	-0.190863	0.000121
H152	H	0.773833	0.309137	0.500121
H153	H	0.213881	-0.129817	0.046351
H154	H	0.713881	0.370183	0.546351
H155	H	0.213878	-0.129805	-0.046114
H156	H	0.713878	0.370195	0.453886
H157	H	0.324395	-0.058955	0.046358
H158	H	0.824395	0.441045	0.546358
H159	H	0.324409	-0.058948	-0.046116
H160	H	0.824409	0.441052	0.453884
H161	H	0.679119	-0.023626	0.000091
H162	H	1.179119	0.476374	0.500091
C163	C	0.446945	-0.034648	0.000099
C164	C	0.946945	0.465352	0.500099
C165	C	0.525352	-0.051327	0.000101
C166	C	1.025352	0.448673	0.500101
H167	H	0.422294	-0.093791	0.000097
H168	H	0.922294	0.406209	0.500097
H169	H	0.432681	0.000566	0.046327
H170	H	0.932681	0.500566	0.546327
H171	H	0.432685	0.000581	-0.046138
H172	H	0.932685	0.500581	0.453862
H173	H	0.539613	-0.086549	0.046342
H174	H	1.039613	0.413451	0.546342
H175	H	0.539622	-0.086555	-0.046131
H176	H	1.039622	0.413445	0.453869
H177	H	0.991930	-0.370212	0.000050
H178	H	1.491930	0.129788	0.500050
C179	C	0.957529	-0.065912	0.425676
C180	C	1.457529	0.434088	0.925676
C181	C	1.001579	-0.007820	0.377684
C182	C	1.501579	0.492180	0.877684
H183	H	0.989508	-0.109704	0.453981
H184	H	1.489508	0.390296	0.953981
H185	H	0.929483	-0.027490	0.462469
H186	H	1.429483	0.472510	0.962469
H187	H	0.923730	-0.099953	0.393120
H188	H	1.423730	0.400047	0.893120
H189	H	1.035375	0.026227	0.410240
H190	H	1.535375	0.526227	0.910240
H191	H	1.029637	-0.046247	0.340887
H192	H	1.529637	0.453753	0.840887
H193	H	0.988187	0.010588	0.785804
H194	H	1.488187	0.510588	1.285804
H195	H	0.817222	0.244712	0.634398
H196	H	1.317222	0.744712	1.134398
H197	H	0.817201	0.244692	0.365794
H198	H	1.317201	0.744692	0.865794
H199	H	0.817187	0.244691	0.214394
H200	H	1.317187	0.744691	0.714394
C201	C	0.037025	0.283508	0.000113
C202	C	0.537025	0.783508	0.500113
C203	C	0.114084	0.303293	0.000101
C204	C	0.614084	0.803293	0.500101
H205	H	0.008039	0.341580	0.000115
H206	H	0.508039	0.841580	0.500115
H207	H	0.025382	0.247775	-0.046112
H208	H	0.525382	0.747775	0.453888
H209	H	0.025393	0.247766	0.046353
H210	H	0.525393	0.747766	0.546353
H211	H	0.125717	0.339030	-0.046143
H212	H	0.625717	0.839030	0.453857
H213	H	0.125731	0.339041	0.046330
H214	H	0.625731	0.839041	0.546330
H215	H	0.524117	0.286865	0.000073
H216	H	1.024117	0.786865	0.500073
