data_functionalizedCrystal
_audit_creation_method	'MofGen! by Chris Wilmer'
_symmetry_space_group_name_H-M	'P1'
_symmetry_Int_Tables_number	1
_symmetry_cell_setting	triclinic
loop_
_symmetry_equiv_pos_as_xyz
  x,y,z
_cell_length_a	17.019383
_cell_length_b	17.038272
_cell_length_c	9.130307
_cell_angle_alpha	89.996293
_cell_angle_beta	86.122508
_cell_angle_gamma	87.246883
loop_
_atom_site_label
_atom_site_type_symbol
_atom_site_fract_x
_atom_site_fract_y
_atom_site_fract_z
O1	O	1.053347	0.099656	-0.254527
O2	O	0.824537	0.112345	-0.225699
O3	O	0.937582	-0.007814	-0.239930
O4	O	0.940302	0.219815	-0.240296
O5	O	0.937578	-0.007815	0.003669
O6	O	0.824533	0.112344	0.017900
O7	O	1.053343	0.099655	-0.010927
Cu8	Cu	0.938938	0.105999	0.025729
Cu9	Cu	0.938943	0.106001	-0.262356
O10	O	0.940298	0.219814	0.003304
C11	C	0.795114	0.111861	-0.100193
C12	C	0.707448	0.110412	-0.089147
C13	C	0.666257	0.109734	-0.216733
C14	C	0.583885	0.108385	-0.206333
C15	C	0.542705	0.107708	-0.068346
C16	C	0.583902	0.108389	0.059250
C17	C	0.666272	0.109744	0.048848
C18	C	0.293999	0.103623	-0.030298
C19	C	0.211623	0.102266	-0.019906
C20	C	0.211612	0.102263	-0.285490
C21	C	0.293985	0.103613	-0.295879
C22	C	0.335173	0.104298	-0.168284
C23	C	0.458507	0.106327	-0.057712
C24	C	0.419369	0.105685	-0.178919
C25	C	0.935107	-0.036941	-0.117819
C26	C	0.927726	-0.123728	-0.116889
C27	C	0.995486	-0.173896	-0.125425
C28	C	0.988547	-0.255441	-0.124565
C29	C	0.913847	-0.286816	-0.115158
C30	C	0.846083	-0.236641	-0.106626
C31	C	0.853023	-0.155097	-0.107497
C32	C	0.889330	-0.532554	-0.112089
C33	C	0.882395	-0.614104	-0.111215
C34	C	1.024859	-0.632899	-0.129155
C35	C	1.031793	-0.551353	-0.130017
C36	C	0.964028	-0.501185	-0.121493
C37	C	0.906753	-0.370168	-0.114274
C38	C	0.971124	-0.417835	-0.122388
C39	C	1.082766	0.100139	-0.136437
C40	C	1.170432	0.101588	-0.147492
C41	C	0.942774	0.248941	-0.118811
C42	C	0.950154	0.335727	-0.119750
N43	N	0.938940	0.105998	0.228352
N44	N	0.938946	0.105996	-0.464979
C45	C	1.039087	-0.000372	0.215734
C46	C	1.089166	-0.053555	0.286092
C47	C	1.089174	-0.053555	0.439424
C48	C	1.039096	-0.000369	0.522404
C49	C	0.989017	0.052814	0.452046
C50	C	0.989016	0.052810	0.298709
C51	C	0.888867	0.159179	0.464664
C52	C	0.888862	0.159184	0.311331
C53	C	0.838789	0.212365	0.547643
C54	C	0.788713	0.265553	0.477285
C55	C	0.788708	0.265552	0.323943
C56	C	0.838783	0.212367	0.240974
H57	H	0.327526	0.104176	0.073600
C58	C	0.838799	0.212367	0.716304
H59	H	0.875801	0.173082	0.746324
H60	H	0.787673	0.201687	0.757451
H61	H	0.852944	0.262337	0.749188
C62	C	1.039085	-0.000364	0.047072
H63	H	1.002092	0.038930	0.017054
H64	H	1.024948	-0.050329	0.014164
H65	H	1.090216	0.010326	0.005944
H66	H	0.747925	0.308856	0.266667
C67	C	1.053289	-0.383329	-0.132731
H68	H	1.092656	-0.424884	-0.137696
H69	H	1.058949	-0.351910	-0.048496
H70	H	1.058959	-0.351907	-0.218405
C71	C	0.166306	0.101528	-0.425836
H72	H	0.202629	0.102123	-0.509504
H73	H	0.131222	0.146570	-0.426922
H74	H	0.137124	0.055428	-0.427681
C75	C	0.538608	0.107613	0.211032
H76	H	0.483653	0.106692	0.198956
H77	H	0.549145	0.153393	0.264297
H78	H	0.555079	0.062252	0.263477
C79	C	0.838780	0.212363	0.072312
H80	H	0.875771	0.173067	0.032976
H81	H	0.852916	0.262327	0.035825
H82	H	0.787647	0.201673	0.044081
C83	C	1.099393	-0.688084	-0.138552
H84	H	1.084564	-0.741142	-0.136700
H85	H	1.129800	-0.678587	-0.057439
H86	H	1.129793	-0.678575	-0.227345
C87	C	0.711586	0.110489	0.189188
H88	H	0.766539	0.111401	0.163232
H89	H	0.701045	0.064701	0.245093
H90	H	0.695134	0.155843	0.245813
H91	H	0.834151	-0.491716	-0.105148
H92	H	0.178095	0.101738	0.092465
H93	H	0.452901	0.106240	-0.291267
C94	C	0.733613	0.324032	0.568557
H95	H	0.703780	0.355700	0.504699
H96	H	0.764148	0.356569	0.624544
H97	H	0.698900	0.295894	0.632726
C98	C	1.077655	-0.139391	-0.135772
H99	H	1.117016	-0.180952	-0.140746
H100	H	1.083325	-0.107975	-0.051538
H101	H	1.083325	-0.107970	-0.221445
H102	H	1.129938	-0.096860	0.218517
C103	C	0.711548	0.110481	-0.368521
H104	H	0.675215	0.109892	-0.443015
H105	H	0.746635	0.065443	-0.378475
H106	H	0.740724	0.156584	-0.377725
C107	C	0.800224	-0.648618	-0.100867
H108	H	0.805799	-0.704368	-0.101551
H109	H	0.772094	-0.631395	-0.182273
H110	H	0.772092	-0.631394	-0.012366
H111	H	0.424970	0.105774	0.054637
H112	H	0.845932	-0.395722	-0.106612
H113	H	1.043724	-0.296286	-0.131512
C114	C	1.113962	-0.516846	-0.140383
H115	H	1.153324	-0.558405	-0.145359
H116	H	1.119632	-0.485428	-0.056152
H117	H	1.119626	-0.485426	-0.226059
C118	C	1.144257	-0.112056	0.516821
H119	H	1.174083	-0.143729	0.445448
H120	H	1.113705	-0.144586	0.580499
H121	H	1.178978	-0.083937	0.572248
C122	C	0.763916	-0.271151	-0.096275
H123	H	0.769486	-0.326901	-0.096963
H124	H	0.735785	-0.253923	-0.177678
H125	H	0.735787	-0.253926	-0.007771
C126	C	0.339277	0.104361	-0.447665
H127	H	0.302946	0.103770	-0.522164
H128	H	0.374363	0.059322	-0.457610
H129	H	0.368454	0.150464	-0.456873
C130	C	0.538580	0.107620	-0.346679
H131	H	0.574903	0.108202	-0.430347
H132	H	0.503489	0.152655	-0.347802
H133	H	0.509406	0.061513	-0.348484
C134	C	0.778488	-0.099912	-0.098105
H135	H	0.733005	-0.130275	-0.092365
H136	H	0.778236	-0.067707	-0.183021
H137	H	0.778232	-0.067715	-0.013113
C138	C	1.039091	-0.000377	0.691066
H139	H	1.002092	0.038909	0.730409
H140	H	1.090218	0.010298	0.719321
H141	H	1.024941	-0.050347	0.727526
