data_functionalizedCrystal
_audit_creation_method	'MofGen! by Chris Wilmer'
_symmetry_space_group_name_H-M	'P1'
_symmetry_Int_Tables_number	1
_symmetry_cell_setting	triclinic
loop_
_symmetry_equiv_pos_as_xyz
  x,y,z
_cell_length_a	19.851628
_cell_length_b	14.560438
_cell_length_c	14.560438
_cell_angle_alpha	60.000095
_cell_angle_beta	90.004573
_cell_angle_gamma	59.995478
loop_
_atom_site_label
_atom_site_type_symbol
_atom_site_fract_x
_atom_site_fract_y
_atom_site_fract_z
Zr1	Zr	0.648930	1.005223	-0.120437
O2	O	0.541352	1.196853	-0.267107
O3	O	0.681914	0.813607	-0.075472
O4	O	0.681902	1.005220	-0.267080
O5	O	0.541367	1.005237	0.075642
O6	O	0.792764	1.005203	-0.267062
O7	O	0.541364	1.005240	-0.075499
O8	O	0.792786	0.662441	0.075690
O9	O	0.541345	1.347999	-0.267110
O10	O	0.778710	0.892403	-0.056285
O11	O	0.695977	0.892414	0.056496
O12	O	0.695962	1.118015	-0.169097
O13	O	0.613230	1.118026	-0.056316
Zr14	Zr	0.825746	1.005191	0.120644
Zr15	Zr	0.825742	1.005195	-0.120408
Zr16	Zr	0.648934	1.005219	0.120615
Zr17	Zr	0.648919	1.246283	-0.120442
Zr18	Zr	0.825757	0.764131	0.120649
O19	O	0.792762	1.196807	0.075680
O20	O	0.792755	1.196813	-0.267065
O21	O	0.541358	1.196847	0.075638
O22	O	0.933324	0.813561	0.267314
O23	O	0.933318	0.813567	-0.075431
O24	O	0.681921	0.813601	0.267273
O25	O	0.933309	1.005177	-0.075434
O26	O	0.792774	1.005194	0.267287
O27	O	0.681912	1.005211	0.267269
O28	O	0.933312	1.005174	0.075706
O29	O	0.681887	1.347976	-0.267087
O30	O	0.792789	0.662438	0.267294
O31	O	0.933331	0.662415	0.267317
O32	O	0.933327	0.662419	0.075713
O33	O	0.541349	1.347996	-0.075506
O34	O	0.681890	1.347973	-0.075482
O35	O	0.778714	0.892399	0.169305
O36	O	0.861447	0.892388	0.056524
O37	O	0.778699	1.118000	-0.056289
O38	O	0.695967	1.118011	0.056492
C39	C	0.737352	0.703678	0.000109
C40	C	0.737356	0.601342	0.000111
C41	C	0.516174	1.005242	0.000067
C42	C	0.441112	1.005254	0.000055
C43	C	0.798410	0.373839	0.083378
C44	C	0.798430	0.469974	0.083384
C45	C	0.676263	0.636575	-0.083180
C46	C	0.676247	0.540440	-0.083189
C47	C	0.214650	1.128239	-0.061418
C48	C	0.192291	1.066749	-0.105985
C49	C	0.303706	1.005221	0.000087
C50	C	0.192324	1.066718	0.044633
C51	C	0.170974	1.005197	0.000117
C52	C	0.282335	0.943731	-0.044542
C53	C	0.282366	0.943717	0.106134
C54	C	0.260060	0.882138	0.061594
C55	C	0.380168	1.005238	0.000067
C56	C	0.094516	1.005171	0.000136
C57	C	0.958503	1.005172	0.000140
C58	C	1.033564	1.005160	0.000153
C59	C	0.737332	1.005212	-0.301416
C60	C	0.737331	1.005214	-0.403749
C61	C	0.737325	1.306736	0.000098
C62	C	0.737320	1.409072	0.000096
C63	C	0.694138	1.122979	-0.510712
C64	C	0.694148	1.122972	-0.606861
C65	C	0.780543	0.887426	-0.489069
C66	C	0.780538	0.887434	-0.392923
C67	C	0.737344	1.005202	0.301623
C68	C	0.737346	1.005200	0.403956
C69	C	0.958516	0.703643	0.000146
C70	C	1.033582	0.601295	0.000160
C71	C	0.737357	0.703673	0.301629
C72	C	0.737364	0.601335	0.403963
C73	C	0.958522	0.703638	0.301665
C74	C	1.033589	0.601288	0.404013
C75	C	0.516154	1.306776	-0.301458
C76	C	0.441087	1.409126	-0.403805
C77	C	0.516160	1.306771	0.000061
C78	C	0.441094	1.409120	0.000047
C79	C	0.737319	1.306741	-0.301421
C80	C	0.737313	1.409079	-0.403756
C81	C	1.025646	0.553239	-0.058728
C82	C	1.096171	0.457085	-0.058737
C83	C	1.174632	0.408982	0.000149
C84	C	1.182567	0.457048	0.059039
C85	C	1.112042	0.553206	0.059041
C86	C	1.112035	0.553217	0.393205
C87	C	1.182576	0.457062	0.489362
C88	C	1.174669	0.408973	0.596325
C89	C	1.096215	0.457053	0.607130
C90	C	1.025676	0.553213	0.510974
C91	C	0.362641	1.457209	-0.392998
C92	C	0.292100	1.553394	-0.489155
C93	C	0.300007	1.601488	-0.596118
C94	C	0.378461	1.553402	-0.606923
C95	C	0.449000	1.457225	-0.510767
C96	C	0.449030	1.457185	0.058925
C97	C	0.378505	1.553366	0.058908
C98	C	0.300044	1.601472	0.000018
C99	C	0.292109	1.553402	-0.058868
C100	C	0.362634	1.457230	-0.058856
C101	C	0.780554	0.553247	0.510925
C102	C	0.780550	0.457099	0.607076
C103	C	0.694166	0.457132	0.489289
C104	C	0.694165	0.553285	0.393141
H105	H	0.848140	0.266876	0.151193
H106	H	0.626538	0.743544	-0.150986
H107	H	0.626499	0.569140	-0.151014
H108	H	0.196193	1.232256	-0.113505
H109	H	1.118515	0.592321	0.107001
H110	H	0.321031	0.891777	-0.082306
Br111	Br	0.881344	0.422149	0.196412
Br112	Br	0.351849	1.392003	-0.138764
Br113	Br	0.351888	1.391955	-0.247846
H114	H	0.658996	0.417996	0.480491
Br115	Br	1.270337	0.278480	0.000135
H116	H	0.815714	0.791530	-0.305823
Br117	Br	0.635506	1.282822	-0.525406
Br118	Br	0.127648	1.153410	0.107403
Br119	Br	0.127597	1.153404	-0.255439
Br120	Br	0.635537	0.618565	0.247966
H121	H	0.815726	0.592371	0.519744
Br122	Br	0.389177	1.618684	-0.752096
H123	H	0.278672	0.778036	0.113608
H124	H	0.961765	0.592403	-0.106694
H125	H	1.118489	0.592358	0.306119
H126	H	0.815719	0.417951	0.694166
H127	H	0.321178	0.891769	0.195786
H128	H	0.658978	1.218868	-0.693952
H129	H	0.815720	0.791534	-0.480269
Br130	Br	0.919217	0.618434	0.525662
H131	H	1.089695	0.417962	-0.106692
H132	H	1.089790	0.417884	0.694232
H133	H	1.246459	0.417869	0.106982
H134	H	1.246450	0.417925	0.480545
H135	H	1.232114	0.330673	0.674612
Br136	Br	0.185638	1.618630	-0.474465
H137	H	0.242563	1.679801	-0.674405
Br138	Br	0.555459	1.391976	-0.525455
H139	H	0.512911	1.418025	0.106888
Br140	Br	0.204339	1.731992	0.000014
Br141	Br	0.389293	1.618580	0.138832
Br142	Br	0.185620	1.618699	-0.138781
