data_functionalizedCrystal
_audit_creation_method	'MofGen! by Chris Wilmer'
_symmetry_space_group_name_H-M	'P1'
_symmetry_Int_Tables_number	1
_symmetry_cell_setting	triclinic
loop_
_symmetry_equiv_pos_as_xyz
  x,y,z
_cell_length_a	11.892095
_cell_length_b	10.723024
_cell_length_c	10.723024
_cell_angle_alpha	95.532131
_cell_angle_beta	86.072546
_cell_angle_gamma	86.064166
loop_
_atom_site_label
_atom_site_type_symbol
_atom_site_fract_x
_atom_site_fract_y
_atom_site_fract_z
O1	O	0.093993	-1.665098	0.167118
O2	O	0.093997	-1.301946	0.183871
O3	O	0.093991	-1.491899	-0.006081
O4	O	0.093999	-1.475146	0.357071
O5	O	-0.094016	-1.476061	0.009732
O6	O	-0.094010	-1.286108	0.199685
O7	O	-0.094014	-1.649260	0.182932
Zn8	Zn	-0.123862	-1.465170	0.193819
Zn9	Zn	0.123845	-1.486037	0.172984
O10	O	-0.094008	-1.459308	0.372884
C11	C	-0.000006	-1.247528	0.190559
C12	C	-0.000005	-1.108974	0.186911
N13	N	-0.292916	-1.450937	0.208037
C14	C	-0.000012	-1.482761	-0.044674
C15	C	-0.000008	-1.479113	-0.183229
C16	C	-0.529569	-1.599313	0.059746
C17	C	-0.647910	-1.589374	0.069694
C18	C	-0.647943	-1.421115	0.237874
C19	C	-0.529601	-1.431054	0.227926
C20	C	-0.470418	-1.520157	0.138861
C21	C	-0.352075	-1.530102	0.128920
C22	C	-0.352109	-1.361837	0.297093
C23	C	-0.470451	-1.351898	0.307040
N24	N	0.292899	-1.500279	0.158756
C25	C	-0.000008	-1.703679	0.176244
C26	C	-0.000002	-1.842234	0.179891
C27	C	-0.000002	-1.033991	0.293198
C28	C	-0.000000	-0.890788	0.289431
C29	C	-0.000007	-1.585401	-0.258211
C30	C	-0.000003	-1.581634	-0.401415
C31	C	-0.000003	-1.468446	0.411477
C32	C	0.000000	-1.472094	0.550031
H33	H	-0.303889	-1.602657	0.056402
H34	H	0.000022	-1.067154	0.093123
H35	H	0.000001	-1.385328	-0.225051
H36	H	-0.481381	-1.671873	-0.012766
H37	H	-0.000015	-1.679186	-0.216388
H38	H	-0.696067	-1.653829	0.005270
H39	H	-0.696145	-1.348560	0.310380
H40	H	-0.000008	-1.672624	-0.465847
C41	C	-0.534916	-1.255286	0.403701
C42	C	-0.651216	-1.263541	0.395502
C43	C	-0.710633	-1.174576	0.484543
H44	H	-0.515674	-1.173448	0.387863
H45	H	-0.515585	-1.271194	0.485511
H46	H	-0.670539	-1.247625	0.313711
H47	H	-0.670492	-1.345360	0.411353
H48	H	-0.691302	-1.190483	0.566353
H49	H	-0.691382	-1.092743	0.468697
H50	H	-0.789548	-1.180172	0.478999
C51	C	0.000234	-1.350814	-0.364032
C52	C	0.096971	-1.354379	-0.296637
C53	C	0.097234	-1.242673	-0.217463
H54	H	-0.065253	-1.341857	-0.307051
H55	H	0.000299	-1.281572	-0.413033
H56	H	0.096896	-1.423601	-0.247639
H57	H	0.162474	-1.363317	-0.353586
H58	H	0.097298	-1.173431	-0.266464
H59	H	0.031742	-1.233725	-0.160490
H60	H	0.162873	-1.245072	-0.171735
H61	H	0.000002	-0.906659	0.088895
H62	H	-0.000006	-1.075813	0.386985
C63	C	-0.287747	-1.276104	0.383055
C64	C	-0.219783	-1.348949	0.454318
C65	C	-0.160468	-1.270025	0.533512
H66	H	-0.339821	-1.221598	0.437631
H67	H	-0.241521	-1.227670	0.333851
H68	H	-0.266006	-1.397361	0.503518
H69	H	-0.167689	-1.403452	0.399775
H70	H	-0.114241	-1.221591	0.484308
H71	H	-0.212550	-1.215522	0.588080
H72	H	-0.114340	-1.319438	0.581865
H73	H	0.000007	-0.826356	0.380421
