data_functionalizedCrystal
_audit_creation_method	'MofGen! by Chris Wilmer'
_symmetry_space_group_name_H-M	'P1'
_symmetry_Int_Tables_number	1
_symmetry_cell_setting	triclinic
loop_
_symmetry_equiv_pos_as_xyz
  x,y,z
_cell_length_a	11.792254
_cell_length_b	11.792241
_cell_length_c	14.048226
_cell_angle_alpha	90.001436
_cell_angle_beta	89.993605
_cell_angle_gamma	95.803993
loop_
_atom_site_label
_atom_site_type_symbol
_atom_site_fract_x
_atom_site_fract_y
_atom_site_fract_z
O1	O	1.506903	-0.155639	-0.079149
O2	O	1.176564	-0.171657	-0.079149
O3	O	1.349750	0.001522	-0.079155
O4	O	1.333717	-0.328818	-0.079143
O5	O	1.349729	0.001533	0.079167
O6	O	1.176543	-0.171646	0.079172
O7	O	1.506882	-0.155628	0.079173
Zn8	Zn	1.341709	-0.163636	0.104309
Zn9	Zn	1.341737	-0.163649	-0.104286
O10	O	1.333696	-0.328807	0.079178
C11	C	1.134263	-0.170642	0.000011
C12	C	1.008250	-0.167622	0.000010
C13	C	0.905913	-0.165168	0.000006
C14	C	0.777527	-0.162100	0.000005
C15	C	1.334714	-0.371104	0.000019
C16	C	1.337728	-0.497118	0.000023
C17	C	1.343271	-0.727830	-0.000001
C18	C	1.340191	-0.599445	0.000012
C19	C	1.549183	-0.156643	0.000010
C20	C	1.675196	-0.159663	0.000005
C21	C	1.348732	0.043819	0.000003
C22	C	1.345718	0.169832	-0.000008
N23	N	1.341699	-0.163626	0.246670
N24	N	1.341756	-0.163650	-0.246647
C25	C	1.418410	-0.086974	0.296486
C26	C	1.418417	-0.086973	0.396143
C27	C	1.341719	-0.163631	0.445983
C28	C	1.264999	-0.240286	0.396161
C29	C	1.264987	-0.240280	0.296505
C30	C	1.265032	-0.240295	0.603875
C31	C	1.265045	-0.240302	0.703538
C32	C	1.418462	-0.086988	0.703513
C33	C	1.418450	-0.086982	0.603858
C34	C	1.341732	-0.163639	0.554042
H35	H	1.480881	-0.024557	0.436703
C36	C	1.180610	-0.324597	0.241703
H37	H	1.191579	-0.313608	0.175214
H38	H	1.193395	-0.400435	0.258026
H39	H	1.104787	-0.311747	0.258051
H40	H	1.480929	-0.024571	0.744079
C41	C	1.180596	-0.324576	0.450978
H42	H	1.134890	-0.370209	0.407033
H43	H	1.221680	-0.372119	0.489858
H44	H	1.133117	-0.283386	0.489849
C45	C	1.502778	-0.002648	0.241670
H46	H	1.548457	0.043010	0.285616
H47	H	1.550269	-0.043792	0.202781
H48	H	1.461649	0.044884	0.202808
C49	C	1.502816	-0.002660	0.549035
H50	H	1.548501	0.043001	0.592974
H51	H	1.550301	-0.043809	0.510145
H52	H	1.461684	0.044869	0.510173
C53	C	1.180606	-0.324550	0.758361
H54	H	1.134883	-0.370173	0.714421
H55	H	1.221655	-0.372108	0.797256
H56	H	1.133150	-0.283318	0.797217
H57	H	1.202556	-0.302713	0.563318
