data_functionalizedCrystal
_audit_creation_method	'MofGen! by Chris Wilmer'
_symmetry_space_group_name_H-M	'P1'
_symmetry_Int_Tables_number	1
_symmetry_cell_setting	triclinic
loop_
_symmetry_equiv_pos_as_xyz
  x,y,z
_cell_length_a	13.897448
_cell_length_b	12.759401
_cell_length_c	12.759393
_cell_angle_alpha	90.019959
_cell_angle_beta	89.966313
_cell_angle_gamma	89.986338
loop_
_atom_site_label
_atom_site_type_symbol
_atom_site_fract_x
_atom_site_fract_y
_atom_site_fract_z
Zn1	Zn	-0.384058	-1.606232	-0.594014
Zn2	Zn	-0.545389	-1.606118	-0.418328
Zn3	Zn	-0.384098	-1.430534	-0.418348
Zn4	Zn	-0.545302	-1.430513	-0.593965
O5	O	-0.464712	-1.518349	-0.506164
O6	O	-0.405479	-1.753238	-0.570721
O7	O	-0.524046	-1.582787	-0.271310
O8	O	-0.249111	-1.453898	-0.441679
O9	O	-0.524008	-1.753154	-0.441646
O10	O	-0.249082	-1.582982	-0.570740
O11	O	-0.405547	-1.453787	-0.271324
O12	O	-0.405462	-1.283511	-0.441632
O13	O	-0.523860	-1.453862	-0.740993
O14	O	-0.523898	-1.283495	-0.570657
O15	O	-0.405395	-1.582961	-0.741028
O16	O	-0.680359	-1.582767	-0.441598
O17	O	-0.680295	-1.453751	-0.570638
C18	C	-0.464676	-1.245382	-0.506142
C19	C	-0.464684	-1.128605	-0.506157
C20	C	-0.403079	-1.073780	-0.573470
C21	C	-0.403092	-0.964056	-0.573473
C22	C	-0.526322	-0.963992	-0.438850
C23	C	-0.526303	-1.073714	-0.438841
C24	C	-0.331937	-1.073816	-0.651197
C25	C	-0.331950	-0.964092	-0.651200
C26	C	-0.715326	-1.518273	-0.506133
C27	C	-0.822540	-1.518336	-0.506156
C28	C	-1.018835	-1.518446	-0.506221
C29	C	-0.909603	-1.518382	-0.506188
C30	C	-0.213119	-1.518455	-0.506217
C31	C	-0.105905	-1.518500	-0.506240
C32	C	-0.464613	-1.518422	-0.780197
C33	C	-0.464571	-1.518453	-0.896974
C34	C	-0.464736	-0.792382	-0.506180
C35	C	-0.464715	-0.909159	-0.506169
C36	C	-0.402832	-1.451331	-1.061576
C37	C	-0.402860	-1.451305	-0.951852
C38	C	-0.526252	-1.585640	-0.951826
C39	C	-0.526220	-1.585670	-1.061548
C40	C	-0.331595	-1.373770	-1.061590
C41	C	-0.331623	-1.373744	-0.951866
C42	C	-0.464741	-1.518337	-0.233196
C43	C	-0.464511	-1.518510	-0.116420
H44	H	-0.257201	-1.103587	-0.629546
O45	O	-0.586162	-1.650796	-1.114948
C46	C	-0.648460	-1.590993	-1.178386
H47	H	-0.614445	-1.511381	-1.194821
H48	H	-0.719963	-1.579433	-1.136092
C49	C	-0.707645	-1.746609	-1.262426
C50	C	-0.665864	-1.648830	-1.282620
H51	H	-0.718385	-1.782286	-1.326721
H52	H	-0.665677	-1.786900	-1.219684
H53	H	-0.767227	-1.736961	-1.227179
H54	H	-0.606278	-1.658479	-1.317855
H55	H	-0.707822	-1.608542	-1.325370
H56	H	-0.576492	-1.640320	-0.907136
H57	H	-0.256881	-1.395594	-1.091389
H58	H	-0.260668	-1.402908	-0.917859
H59	H	-0.352050	-0.934346	-0.732535
H60	H	-0.358337	-1.296476	-1.095610
O61	O	-0.355676	-1.276693	-0.916360
C62	C	-0.448060	-1.249865	-0.953264
H63	H	-0.489713	-1.324312	-0.972764
H64	H	-0.441020	-1.199566	-1.026697
C65	C	-0.451060	-1.096506	-0.844089
C66	C	-0.502222	-1.187943	-0.868031
H67	H	-0.484469	-1.058305	-0.791516
H68	H	-0.388818	-1.114577	-0.819229
H69	H	-0.445197	-1.054602	-0.905290
H70	H	-0.508074	-1.229851	-0.806834
H71	H	-0.564467	-1.169878	-0.892879
H72	H	-0.576458	-1.118349	-0.384020
H73	H	-0.358776	-1.107880	-0.728435
O74	O	-0.247161	-0.923557	-0.616786
C75	C	-0.171839	-0.957870	-0.682452
H76	H	-0.202288	-0.980419	-0.762276
H77	H	-0.135209	-1.028849	-0.645692
C78	C	-0.060516	-0.841316	-0.597967
C79	C	-0.097912	-0.869003	-0.696012
H80	H	-0.014911	-0.786501	-0.606329
H81	H	-0.111260	-0.818201	-0.553724
H82	H	-0.029997	-0.900472	-0.567344
H83	H	-0.128440	-0.809850	-0.726628
H84	H	-0.047171	-0.892105	-0.740261
H85	H	-0.576491	-0.919286	-0.384044
