data_functionalizedCrystal
_audit_creation_method	'MofGen! by Chris Wilmer'
_symmetry_space_group_name_H-M	'P1'
_symmetry_Int_Tables_number	1
_symmetry_cell_setting	triclinic
loop_
_symmetry_equiv_pos_as_xyz
  x,y,z
_cell_length_a	12.759401
_cell_length_b	12.759399
_cell_length_c	12.759386
_cell_angle_alpha	89.937142
_cell_angle_beta	89.957763
_cell_angle_gamma	90.015347
loop_
_atom_site_label
_atom_site_type_symbol
_atom_site_fract_x
_atom_site_fract_y
_atom_site_fract_z
Zn1	Zn	1.606487	-0.417878	-0.594010
Zn2	Zn	1.606311	-0.593691	-0.418329
Zn3	Zn	1.430720	-0.418028	-0.418346
Zn4	Zn	1.430776	-0.593516	-0.593967
O5	O	1.518573	-0.505778	-0.506163
O6	O	1.753485	-0.441210	-0.570717
O7	O	1.582921	-0.570525	-0.271310
O8	O	1.454086	-0.270987	-0.441674
O9	O	1.753355	-0.570380	-0.441644
O10	O	1.583221	-0.270876	-0.570733
O11	O	1.453915	-0.441466	-0.271323
O12	O	1.283706	-0.441296	-0.441632
O13	O	1.454182	-0.570081	-0.740994
O14	O	1.283748	-0.570226	-0.570660
O15	O	1.583276	-0.441040	-0.741026
O16	O	1.582976	-0.740689	-0.441603
O17	O	1.454011	-0.740560	-0.570643
C18	C	1.245606	-0.505759	-0.506144
C19	C	1.128829	-0.505776	-0.506160
C20	C	1.073903	-0.572927	-0.438860
C21	C	0.964179	-0.572945	-0.438879
C22	C	0.964317	-0.438653	-0.573499
C23	C	1.074039	-0.438641	-0.573485
C24	C	1.128694	-0.640063	-0.371535
C25	C	1.073768	-0.707218	-0.304229
C26	C	0.964044	-0.707236	-0.304247
C27	C	0.909246	-0.640099	-0.371572
C28	C	1.518509	-0.778745	-0.506139
C29	C	1.518578	-0.895522	-0.506164
C30	C	1.585806	-0.950416	-0.439049
C31	C	1.585873	-1.060140	-0.439084
C32	C	1.451475	-1.060066	-0.573353
C33	C	1.451414	-0.950344	-0.573322
C34	C	1.709868	-1.210039	-0.401696
C35	C	1.777087	-1.264937	-0.334565
C36	C	1.793211	-1.229454	-0.232054
C37	C	1.742101	-1.139075	-0.196654
C38	C	1.674874	-1.084183	-0.263780
C39	C	1.658770	-1.119664	-0.366305
C40	C	1.327418	-0.800443	-0.610699
C41	C	1.260185	-0.745549	-0.677821
C42	C	1.244050	-0.781030	-0.780333
C43	C	1.295142	-0.871413	-0.815729
C44	C	1.362375	-0.926307	-0.748607
C45	C	1.378511	-0.890818	-0.646096
C46	C	1.792607	-0.505798	-0.506183
C47	C	1.909383	-0.505806	-0.506192
C48	C	1.518755	-0.505524	-0.780197
C49	C	1.518833	-0.505416	-0.896974
C50	C	1.518667	-0.231745	-0.506210
C51	C	1.518706	-0.114968	-0.506230
C52	C	1.518453	-0.505955	-0.233195
C53	C	1.518579	-0.505767	-0.116419
C54	C	1.450988	-0.438978	-0.061613
C55	C	1.451117	-0.438800	0.048110
C56	C	1.586431	-0.572208	0.048213
C57	C	1.586307	-0.572381	-0.061509
C58	C	1.412890	-0.314932	0.197802
C59	C	1.345283	-0.248153	0.252612
C60	C	1.242619	-0.232818	0.217152
C61	C	1.207541	-0.284277	0.126885
C62	C	1.275143	-0.351065	0.072081
C63	C	1.377822	-0.366380	0.107539
C64	C	1.624522	-0.696249	-0.211203
C65	C	1.692120	-0.763043	-0.266009
C66	C	1.794786	-0.778389	-0.230551
C67	C	1.829860	-0.726947	-0.140280
C68	C	1.762262	-0.660154	-0.085474
C69	C	1.659597	-0.644806	-0.120939
H70	H	1.640496	-0.905782	-0.384367
O71	O	1.377955	-0.367123	-0.120843
H72	H	1.330986	-0.320642	-0.064295
H73	H	1.496491	-0.327402	0.226675
H74	H	0.819901	-0.640126	-0.371588
O75	O	1.171488	-0.721985	-0.852819
H76	H	1.200704	-0.640694	-0.863264
O77	O	1.205131	-0.648037	-0.639632
H78	H	1.228300	-0.580415	-0.689308
O79	O	1.692492	-1.248331	-0.512261
H80	H	1.717321	-1.186722	-0.568526
H81	H	1.118392	-0.761886	-0.249423
H82	H	1.818702	-1.338524	-0.363397
H83	H	1.340558	-0.771540	-0.527228
H84	H	1.849821	-0.832784	-0.275181
O85	O	1.865713	-1.288666	-0.159651
H86	H	1.868333	-1.248816	-0.082415
H87	H	1.187572	-0.178443	0.261786
H88	H	1.633263	-1.010597	-0.234959
H89	H	1.913458	-0.739445	-0.111408
H90	H	0.919692	-0.383991	-0.628310
H91	H	1.396791	-1.104716	-0.628029
H92	H	1.118761	-0.383958	-0.628284
O93	O	1.759487	-1.100803	-0.086084
H94	H	1.814828	-1.154150	-0.045358
O95	O	1.237331	-0.406561	-0.025279
H96	H	1.154581	-0.384677	-0.040734
O97	O	1.383100	-0.192697	0.349999
H98	H	1.318829	-0.143712	0.382172
O99	O	1.417495	-1.023787	-0.786781
H100	H	1.394990	-1.039237	-0.869344
H101	H	1.790828	-0.618268	-0.011971
H102	H	0.919326	-0.761925	-0.249451
H103	H	1.218037	-0.640053	-0.371511
O104	O	1.277752	-0.909690	-0.926299
H105	H	1.222428	-0.856329	-0.967029
O106	O	1.096804	-0.267744	0.088639
H107	H	1.055692	-0.212650	0.141907
H108	H	1.641571	-0.626444	0.092934
O109	O	1.654298	-0.818529	-0.363377
H110	H	1.571555	-0.796626	-0.378839
H111	H	1.540926	-0.683750	-0.240088
