data_functionalizedCrystal
_audit_creation_method	'MofGen! by Chris Wilmer'
_symmetry_space_group_name_H-M	'P1'
_symmetry_Int_Tables_number	1
_symmetry_cell_setting	triclinic
loop_
_symmetry_equiv_pos_as_xyz
  x,y,z
_cell_length_a	19.077115
_cell_length_b	12.759394
_cell_length_c	19.077174
_cell_angle_alpha	92.276241
_cell_angle_beta	85.484425
_cell_angle_gamma	87.710368
loop_
_atom_site_label
_atom_site_type_symbol
_atom_site_fract_x
_atom_site_fract_y
_atom_site_fract_z
Zn1	Zn	1.093769	-0.510483	-0.441856
Zn2	Zn	1.088976	-0.678821	-0.323976
Zn3	Zn	0.971153	-0.495796	-0.319254
Zn4	Zn	0.975870	-0.678753	-0.437096
O5	O	1.032442	-0.590963	-0.380545
O6	O	1.191784	-0.538988	-0.430187
O7	O	1.069366	-0.648425	-0.224700
O8	O	0.987450	-0.350726	-0.335533
O9	O	1.188262	-0.662666	-0.343582
O10	O	1.077536	-0.361516	-0.425608
O11	O	0.982802	-0.513957	-0.221231
O12	O	0.873128	-0.513891	-0.330918
O13	O	0.995490	-0.662549	-0.536377
O14	O	0.876593	-0.648308	-0.417495
O15	O	1.082110	-0.538922	-0.539874
O16	O	1.073940	-0.825830	-0.338966
O17	O	0.990842	-0.825780	-0.422074
C18	C	0.849281	-0.579499	-0.373178
C19	C	0.770925	-0.574621	-0.370043
C20	C	0.329667	-0.539589	-0.347563
C21	C	0.403292	-0.544178	-0.350513
C22	C	0.441921	-0.616563	-0.396991
C23	C	0.406923	-0.684355	-0.440527
C24	C	0.333300	-0.679760	-0.437580
C25	C	0.662305	-0.637817	-0.410632
C26	C	0.735932	-0.642410	-0.413574
C27	C	0.732296	-0.502231	-0.323560
C28	C	0.658672	-0.497647	-0.320615
C29	C	0.623680	-0.565435	-0.364154
N30	N	0.517177	-0.621258	-0.400005
N31	N	0.548426	-0.560734	-0.361142
C32	C	1.032402	-0.863927	-0.380532
C33	C	1.032451	-0.980708	-0.380553
C34	C	1.126192	-0.991786	-0.474413
C35	C	1.173086	-1.052187	-0.521349
C36	C	1.173128	-1.161912	-0.521366
C37	C	1.126271	-1.211238	-0.474443
C38	C	1.079378	-1.150837	-0.427507
C39	C	1.079342	-1.041110	-0.427494
C40	C	0.985634	-1.139759	-0.333651
C41	C	0.985593	-1.030034	-0.333630
C42	C	0.938776	-1.189085	-0.286728
C43	C	0.891885	-1.128684	-0.239788
C44	C	0.891845	-1.018952	-0.239772
C45	C	0.938700	-0.969633	-0.286694
C46	C	1.216318	-0.602473	-0.387942
C47	C	1.294674	-0.607378	-0.391095
C48	C	1.039861	-0.602366	-0.564420
C49	C	1.043022	-0.607225	-0.642776
C50	C	1.032501	-0.316935	-0.380575
C51	C	1.032527	-0.200161	-0.380587
C52	C	0.999440	-0.539499	-0.677781
C53	C	1.002408	-0.544073	-0.751405
C54	C	1.048962	-0.616369	-0.790023
C55	C	1.092546	-0.684102	-0.755013
C56	C	1.089574	-0.679532	-0.681390
C57	C	1.062680	-0.637548	-1.010405
C58	C	1.065650	-0.642111	-1.084033
C59	C	0.975511	-0.502083	-1.080420
C60	C	0.972546	-0.497515	-1.006796
C61	C	1.016127	-0.565252	-0.971792
N62	N	1.051998	-0.621044	-0.865278
N63	N	1.013087	-0.560581	-0.896538
C64	C	1.025092	-0.579532	-0.197388
C65	C	1.022068	-0.574385	-0.119038
H66	H	0.633823	-0.693019	-0.446082
H67	H	0.304810	-0.734958	-0.473030
H68	H	1.211306	-1.211091	-0.559593
N69	N	1.109687	-0.710587	-0.972649
H70	H	1.079794	-0.755586	-0.940946
H71	H	1.139627	-0.757010	-1.008325
N72	N	1.223628	-0.998984	-0.571950
H73	H	1.253340	-1.053898	-0.601686
H74	H	1.196210	-0.953700	-0.603393
N75	N	0.441044	-0.471075	-0.303562
H76	H	0.472759	-0.426144	-0.333494
H77	H	0.405365	-0.424589	-0.273672
N78	N	1.142750	-0.762092	-0.796660
H79	H	1.138021	-0.754711	-0.848612
H80	H	1.192584	-0.748101	-0.785819
N81	N	1.126319	-1.329583	-0.474455
H82	H	1.163137	-1.360362	-0.511307
H83	H	1.137353	-1.353734	-0.426604
N84	N	0.617008	-0.419578	-0.270483
H85	H	0.650348	-0.377329	-0.243352
H86	H	0.587633	-0.370904	-0.298012
N87	N	1.136578	-0.752585	-0.643633
H88	H	1.166520	-0.799075	-0.679269
H89	H	1.167979	-0.709971	-0.614402
N90	N	0.928499	-0.429044	-1.118176
H91	H	0.898555	-0.382554	-1.082539
H92	H	0.958435	-0.384113	-1.149884
H93	H	0.853735	-1.168854	-0.201590
H94	H	0.938812	-1.278430	-0.286748
H95	H	0.298220	-0.480646	-0.309715
N96	N	1.126156	-0.873440	-0.474385
H97	H	1.162955	-0.851358	-0.511228
H98	H	1.078275	-0.844911	-0.485337
N99	N	0.841264	-0.953807	-0.189151
H100	H	0.811589	-1.001708	-0.159432
H101	H	0.868649	-0.908039	-0.157693
H102	H	0.767383	-0.701355	-0.451426
N103	N	0.770036	-0.429118	-0.276604
H104	H	0.822537	-0.443009	-0.285522
H105	H	0.757624	-0.353995	-0.287152
H106	H	0.438381	-0.743288	-0.478373
N107	N	0.949227	-0.461528	-0.636128
H108	H	0.976654	-0.412738	-0.606741
H109	H	0.922077	-0.419391	-0.669519
H110	H	0.938675	-0.880290	-0.286683
H111	H	1.103563	-0.700984	-1.115474
N112	N	0.955400	-0.471030	-0.789161
H113	H	0.925460	-0.424534	-0.753526
H114	H	0.985339	-0.426106	-0.820871
H115	H	0.934635	-0.438647	-0.975358
