data_functionalizedCrystal
_audit_creation_method	'MofGen! by Chris Wilmer'
_symmetry_space_group_name_H-M	'P1'
_symmetry_Int_Tables_number	1
_symmetry_cell_setting	triclinic
loop_
_symmetry_equiv_pos_as_xyz
  x,y,z
_cell_length_a	14.908993
_cell_length_b	12.645323
_cell_length_c	14.908520
_cell_angle_alpha	93.267688
_cell_angle_beta	96.420918
_cell_angle_gamma	93.272088
loop_
_atom_site_label
_atom_site_type_symbol
_atom_site_fract_x
_atom_site_fract_y
_atom_site_fract_z
Zn1	Zn	1.363012	-0.526109	-0.280429
Zn2	Zn	1.354163	-0.359695	-0.431814
Zn3	Zn	1.211637	-0.359701	-0.289205
Zn4	Zn	1.202880	-0.547745	-0.440495
O5	O	1.282923	-0.448313	-0.360486
O6	O	1.488501	-0.494978	-0.293205
O7	O	1.335219	-0.211354	-0.412936
O8	O	1.239086	-0.372723	-0.161371
O9	O	1.482000	-0.372714	-0.404427
O10	O	1.350300	-0.494983	-0.154923
O11	O	1.230506	-0.211358	-0.308162
O12	O	1.083813	-0.393702	-0.316580
O13	O	1.224160	-0.693217	-0.419223
O14	O	1.077378	-0.531857	-0.427732
O15	O	1.341808	-0.677322	-0.301623
O16	O	1.326727	-0.393693	-0.559636
O17	O	1.215580	-0.531852	-0.566014
C18	C	1.047753	-0.465128	-0.374051
C19	C	0.947145	-0.472349	-0.379876
C20	C	0.764750	-0.342233	-0.274906
C21	C	0.670220	-0.349013	-0.280376
C22	C	0.663553	-0.492685	-0.396291
C23	C	0.758083	-0.485905	-0.390821
C24	C	0.808678	-0.410677	-0.330125
C25	C	0.903210	-0.403902	-0.324651
C26	C	0.896541	-0.547568	-0.440570
C27	C	0.802011	-0.554349	-0.446040
C28	C	1.282994	-0.724808	-0.360412
C29	C	1.283024	-0.842634	-0.360381
C30	C	1.208815	-1.020190	-0.434046
C31	C	1.208978	-0.897642	-0.434380
C32	C	1.376901	-0.882175	-0.380760
C33	C	1.376491	-1.004832	-0.381219
C34	C	1.264281	-1.004706	-0.265895
C35	C	1.262119	-0.882293	-0.266593
C36	C	1.519011	-0.431432	-0.346869
C37	C	1.619618	-0.424238	-0.341066
C38	C	1.269267	-0.465141	-0.595668
C39	C	1.263508	-0.472370	-0.696275
C40	C	1.282908	-0.172884	-0.360491
C41	C	1.283068	-0.055028	-0.360258
C42	C	1.368543	-0.342189	-0.878617
C43	C	1.363135	-0.348978	-0.973146
C44	C	1.247289	-0.492740	-0.979863
C45	C	1.252697	-0.485951	-0.885334
C46	C	1.313325	-0.410673	-0.834714
C47	C	1.318728	-0.403880	-0.740184
C48	C	1.202888	-0.547646	-0.746903
C49	C	1.197479	-0.554434	-0.841432
C50	C	1.296657	-0.431440	-0.124385
C51	C	1.302509	-0.424250	-0.023772
H52	H	1.138810	-1.053596	-0.422098
H53	H	1.368092	-0.342581	-0.698970
H54	H	0.932318	-0.603306	-0.485529
H55	H	1.220637	-1.054922	-0.503680
H56	H	1.193062	-0.856824	-0.251123
H57	H	1.220932	-0.872261	-0.504449
H58	H	1.197935	-0.554034	-1.021094
H59	H	1.148120	-0.615727	-0.882660
O60	O	1.116551	-0.862926	-0.418303
H61	H	1.071330	-0.933720	-0.410227
H62	H	1.393061	-1.036979	-0.450036
H63	H	1.433395	-1.027156	-0.329510
O64	O	1.433942	-0.261017	-0.824007
H65	H	1.395925	-0.206843	-0.783339
O66	O	0.747459	-0.635485	-0.511517
H67	H	0.706758	-0.689707	-0.473566
H68	H	1.312692	-0.844359	-0.209153
H69	H	1.433468	-0.845669	-0.328474
H70	H	0.634457	-0.293280	-0.235409
H71	H	0.944404	-0.342654	-0.275224
O72	O	0.819330	-0.261098	-0.209449
H73	H	0.772901	-0.214637	-0.171973
O74	O	0.608977	-0.573818	-0.461753
H75	H	0.535865	-0.567032	-0.456274
O76	O	1.399381	-0.846122	-0.470920
H77	H	1.343843	-0.800054	-0.501353
H78	H	1.197309	-1.038816	-0.246245
O79	O	1.335999	-1.033357	-0.193156
H80	H	1.384795	-1.083191	-0.224003
H81	H	1.408101	-0.293214	-1.008887
O82	O	1.143327	-0.621522	-0.699554
H83	H	1.157274	-0.604161	-0.625317
