data_functionalizedCrystal
_audit_creation_method	'MofGen! by Chris Wilmer'
_symmetry_space_group_name_H-M	'P1'
_symmetry_Int_Tables_number	1
_symmetry_cell_setting	triclinic
loop_
_symmetry_equiv_pos_as_xyz
  x,y,z
_cell_length_a	18.101398
_cell_length_b	19.077391
_cell_length_c	19.076919
_cell_angle_alpha	90.062674
_cell_angle_beta	87.724166
_cell_angle_gamma	92.272687
loop_
_atom_site_label
_atom_site_type_symbol
_atom_site_fract_x
_atom_site_fract_y
_atom_site_fract_z
Zn1	Zn	1.128281	0.295814	0.386160
Zn2	Zn	1.138116	0.408602	0.263934
Zn3	Zn	1.009213	0.291104	0.268658
Zn4	Zn	1.009556	0.413273	0.381390
O5	O	1.071292	0.352198	0.325036
O6	O	1.233218	0.310792	0.369966
O7	O	1.124989	0.389090	0.166230
O8	O	1.020749	0.193399	0.288219
O9	O	1.240444	0.393657	0.280167
O10	O	1.108227	0.196859	0.374547
O11	O	1.030285	0.302764	0.169701
O12	O	0.905626	0.307294	0.283593
O13	O	1.021333	0.401618	0.480354
O14	O	0.905878	0.397051	0.366417
O15	O	1.108560	0.315322	0.483858
O16	O	1.125321	0.507552	0.275541
O17	O	1.030869	0.510984	0.361836
C18	C	0.878881	0.352168	0.325000
C19	C	0.796567	0.352173	0.325001
C20	C	1.079219	0.534764	0.317673
C21	C	1.082678	0.612868	0.314547
C22	C	1.063888	0.359516	0.508315
C23	C	1.060733	0.362635	0.586418
C24	C	0.497476	0.352219	0.325058
C25	C	0.528595	0.295486	0.273224
C26	C	0.614229	0.295623	0.272987
C27	C	0.645859	0.352196	0.325030
C28	C	0.618816	0.425403	0.301822
C29	C	0.533173	0.425085	0.301459
C30	C	0.525242	0.336394	0.400202
C31	C	0.610837	0.334729	0.399862
C32	C	0.729718	0.352187	0.325015
C33	C	0.413616	0.352233	0.325071
C34	C	1.264453	0.352229	0.325072
C35	C	1.346767	0.352242	0.325087
C36	C	1.035095	0.651371	0.357971
C37	C	1.038348	0.724758	0.355030
C38	C	1.089187	0.759639	0.308670
C39	C	1.136771	0.721130	0.265242
C40	C	1.133515	0.647745	0.268179
C41	C	1.104201	0.978922	0.295069
C42	C	1.107456	1.052313	0.292137
C43	C	1.009031	1.055936	0.381924
C44	C	1.005782	0.982549	0.384860
C45	C	1.053364	0.944046	0.341430
N46	N	1.092515	0.834651	0.305665
N47	N	1.050032	0.869035	0.344432
C48	C	1.063329	1.168920	0.332432
C49	C	1.059874	1.090817	0.335560
C50	C	1.078707	0.344858	0.142471
C51	C	1.081997	0.341542	0.064377
C52	C	1.104662	0.319172	0.624936
C53	C	1.101689	0.322099	0.698322
C54	C	1.054789	0.368493	0.733188
C55	C	1.010855	0.411958	0.694664
C56	C	1.013825	0.409027	0.621280
C57	C	1.041032	0.382075	0.952469
C58	C	1.038067	0.385005	1.025858
C59	C	1.128901	0.295145	1.029511
C60	C	1.131870	0.292220	0.956125
C61	C	1.087933	0.335682	0.917608
N62	N	1.051750	0.371488	0.808200
N63	N	1.090968	0.332683	0.842597
H64	H	0.505095	0.240933	0.287979
C65	C	0.503220	0.309115	0.198524
C66	C	0.454411	0.371483	0.184438
C67	C	0.429035	0.385115	0.109738
C68	C	0.452469	0.336379	0.049125
C69	C	0.501281	0.274007	0.063210
C70	C	0.526656	0.260375	0.137909
H71	H	0.437061	0.407563	0.229308
H72	H	0.392901	0.431286	0.099312
H73	H	0.433684	0.346470	-0.006171
H74	H	0.518630	0.237926	0.018339
H75	H	0.562790	0.214203	0.148335
C76	C	0.949859	0.944188	0.435863
C77	C	0.866360	0.954115	0.429650
C78	C	0.810440	0.915757	0.480659
C79	C	0.838020	0.867470	0.537881
C80	C	0.921524	0.857541	0.544097
C81	C	0.977443	0.895899	0.493087
H82	H	0.845940	0.989862	0.387289
H83	H	0.748625	0.923108	0.476058
H84	H	0.796625	0.839075	0.575642
H85	H	0.941944	0.821794	0.586458
H86	H	1.039258	0.888549	0.497689
H87	H	0.999873	0.422786	1.054244
H88	H	0.999595	0.756104	0.390384
C89	C	0.956690	1.098290	0.429692
C90	C	0.960266	1.179011	0.426465
C91	C	0.907921	1.221364	0.474233
C92	C	0.851999	1.182996	0.525228
C93	C	0.848421	1.102271	0.528456
C94	C	0.900766	1.059918	0.480688
H95	H	1.001665	1.207417	0.388714
H96	H	0.910570	1.281122	0.471843
H97	H	0.813250	1.214349	0.560589
H98	H	0.807022	1.073865	0.566207
H99	H	0.898117	1.000159	0.483079
H100	H	1.005267	0.417475	0.921116
H101	H	0.500591	0.284097	0.420729
H102	H	0.632139	0.373278	0.440793
H103	H	0.993700	0.622976	0.395725
H104	H	1.170063	0.254443	0.927742
C105	C	0.634238	0.261969	0.423433
C106	C	0.684908	0.218596	0.374982
C107	C	0.708311	0.145834	0.398549
C108	C	0.681045	0.116443	0.470566
C109	C	0.630372	0.159816	0.519021
C110	C	0.606969	0.232579	0.495455
H111	H	0.705095	0.240352	0.321666
H112	H	0.745823	0.113726	0.362678
H113	H	0.698369	0.062580	0.488012
H114	H	0.610185	0.138060	0.572337
H115	H	0.569457	0.264686	0.531325
H116	H	0.972665	0.449731	0.723058
C117	C	0.498033	0.392266	0.452429
C118	C	0.450856	0.451959	0.427064
C119	C	0.423647	0.507834	0.479284
C120	C	0.443614	0.504017	0.556869
C121	C	0.490794	0.444322	0.582238
C122	C	0.518003	0.388446	0.530018
H123	H	0.436073	0.454786	0.369628
H124	H	0.388721	0.552024	0.460504
H125	H	0.423472	0.545379	0.595525
H126	H	0.505577	0.441494	0.639674
H127	H	0.552929	0.344256	0.548798
H128	H	1.148860	1.080711	0.254385
H129	H	0.978045	0.444412	0.589919
H130	H	0.639468	0.468677	0.338264
C131	C	0.638695	0.222151	0.293075
C132	C	0.687870	0.180645	0.241517
C133	C	0.712327	0.107165	0.261593
C134	C	0.687610	0.075191	0.333228
C135	C	0.638432	0.116697	0.384791
C136	C	0.613975	0.190177	0.364714
H137	H	0.706170	0.204314	0.188484
H138	H	0.748732	0.076440	0.223423
H139	H	0.705714	0.020797	0.348090
H140	H	0.620132	0.093029	0.437823
H141	H	0.577570	0.220903	0.402884
C142	C	1.156547	0.936580	0.247299
C143	C	1.154251	0.943529	0.167008
C144	C	1.206601	0.901185	0.119235
C145	C	1.261248	0.851893	0.151754
C146	C	1.263546	0.844942	0.232050
C147	C	1.211195	0.887286	0.279823
H148	H	1.113797	0.980020	0.142932
H149	H	1.204900	0.906331	0.059795
H150	H	1.300000	0.820547	0.116390
H151	H	1.304000	0.808451	0.256126
H152	H	1.212897	0.882140	0.339263
C153	C	0.651653	0.444415	0.228267
C154	C	0.702971	0.393646	0.189194
C155	C	0.735806	0.412653	0.115637
C156	C	0.717322	0.482429	0.081153
C157	C	0.666001	0.533203	0.120226
C158	C	0.633167	0.514196	0.193783
H159	H	0.716656	0.341989	0.214720
H160	H	0.773797	0.375066	0.086712
H161	H	0.741628	0.496499	0.026702
H162	H	0.652316	0.584860	0.094699
H163	H	0.595175	0.551782	0.222707
H164	H	1.178163	0.749535	0.227492
C165	C	1.185858	0.605386	0.220416
C166	C	1.153807	0.552781	0.167234
C167	C	1.206149	0.510423	0.119467
C168	C	1.290543	0.520671	0.124882
C169	C	1.322598	0.573278	0.178066
C170	C	1.270256	0.615636	0.225833
H171	H	1.091329	0.545193	0.163224
H172	H	1.182419	0.471480	0.080097
H173	H	1.329290	0.489315	0.089522
H174	H	1.385076	0.580866	0.182076
H175	H	1.293986	0.654580	0.265203
C176	C	0.510064	0.443682	0.227128
C177	C	0.532490	0.397100	0.164462
C178	C	0.509386	0.415696	0.090129
C179	C	0.463855	0.480874	0.078461
C180	C	0.441426	0.527461	0.141128
C181	C	0.464530	0.508865	0.215461
H182	H	0.566197	0.348847	0.173098
H183	H	0.525990	0.381209	0.043739
H184	H	0.446752	0.494640	0.023435
H185	H	0.407719	0.575713	0.132492
H186	H	0.447927	0.543351	0.261851
H187	H	0.512770	0.468627	0.337405
H188	H	1.142856	0.281395	0.596554
H189	H	1.137463	0.286709	0.729681
C190	C	1.177223	0.247333	1.071881
C191	C	1.173959	0.250550	1.152602
C192	C	1.222281	0.202734	1.194971
C193	C	1.273867	0.151700	1.156621
C194	C	1.277134	0.148480	1.075896
C195	C	1.228812	0.196297	1.033526
H196	H	1.135769	0.288331	1.180995
H197	H	1.219862	0.205117	1.254729
H198	H	1.309638	0.116303	1.187985
H199	H	1.315323	0.110700	1.047503
H200	H	1.231230	0.193914	0.973768
H201	H	0.637468	0.305846	0.217367
