data_functionalizedCrystal
_audit_creation_method	'MofGen! by Chris Wilmer'
_symmetry_space_group_name_H-M	'P1'
_symmetry_Int_Tables_number	1
_symmetry_cell_setting	triclinic
loop_
_symmetry_equiv_pos_as_xyz
  x,y,z
_cell_length_a	10.540539
_cell_length_b	10.723024
_cell_length_c	9.198806
_cell_angle_alpha	90.002012
_cell_angle_beta	90.001893
_cell_angle_gamma	84.496681
loop_
_atom_site_label
_atom_site_type_symbol
_atom_site_fract_x
_atom_site_fract_y
_atom_site_fract_z
O1	O	-1.685796	-0.175862	-0.120820
O2	O	-1.316375	-0.192432	-0.120837
O3	O	-1.509607	-0.002575	-0.120823
O4	O	-1.492564	-0.365719	-0.120834
O5	O	-1.509591	-0.002574	0.120962
O6	O	-1.316359	-0.192431	0.120948
O7	O	-1.685781	-0.175861	0.120965
Cu8	Cu	-1.501069	-0.184146	0.143033
Cu9	Cu	-1.501087	-0.184147	-0.142906
O10	O	-1.492549	-0.365718	0.120951
C11	C	-1.269065	-0.191189	0.000053
C12	C	-1.128118	-0.187471	0.000046
C13	C	-1.508359	0.043926	0.000068
C14	C	-1.504648	0.182482	0.000063
C15	C	-1.733091	-0.177104	0.000072
C16	C	-1.874037	-0.180822	0.000069
C17	C	-0.944765	-0.045013	0.000615
C18	C	-1.091381	-0.048782	0.000055
C19	C	-1.066420	-0.254214	-0.138022
C20	C	-0.919878	-0.249481	-0.138122
C21	C	-0.919371	-0.252302	0.136832
C22	C	-1.066352	-0.253579	0.138642
C23	C	-1.493797	-0.412218	0.000057
C24	C	-1.497507	-0.550775	0.000052
N25	N	-1.501065	-0.184145	0.344147
C26	C	-1.612771	0.257411	0.000066
C27	C	-1.608938	0.400616	0.000060
N28	N	-1.501100	-0.184138	-0.344020
C29	C	-1.582198	-0.104078	0.416350
C30	C	-1.582217	-0.104073	0.583763
H31	H	-1.134016	0.003735	0.099028
F32	F	-1.410285	-0.273736	0.425341
F33	F	-0.883043	-0.185004	-0.273016
H34	H	-0.871858	-0.349224	-0.144392
F35	F	-1.379942	0.237201	0.000043
F36	F	-1.729927	0.484770	0.000074
F37	F	-0.878166	-0.193633	0.273625
H38	H	-1.404941	0.384846	0.000060
F39	F	-1.673017	-0.014478	0.664917
F40	F	-1.410309	-0.273749	0.574835
H41	H	-0.916201	0.009777	0.099632
F42	F	-0.905321	0.026306	-0.128073
F43	F	-1.672744	-0.014259	0.335157
H44	H	-1.088721	-0.356064	-0.143162
F45	F	-1.145960	0.020064	-0.129734
H46	H	-1.109039	-0.207851	-0.240772
H47	H	-1.107333	-0.204821	0.240785
H48	H	-1.090526	-0.354693	0.146975
H49	H	-1.708175	0.215541	0.000079
F50	F	-0.857577	-0.383236	0.138049
