data_functionalizedCrystal
_audit_creation_method	'MofGen! by Chris Wilmer'
_symmetry_space_group_name_H-M	'P1'
_symmetry_Int_Tables_number	1
_symmetry_cell_setting	triclinic
loop_
_symmetry_equiv_pos_as_xyz
  x,y,z
_cell_length_a	19.288859
_cell_length_b	15.944551
_cell_length_c	18.366186
_cell_angle_alpha	89.992809
_cell_angle_beta	89.990083
_cell_angle_gamma	83.316232
loop_
_atom_site_label
_atom_site_type_symbol
_atom_site_fract_x
_atom_site_fract_y
_atom_site_fract_z
O1	O	0.921631	0.104759	-0.060566
O2	O	0.719407	0.118899	-0.060564
O3	O	0.826042	-0.010467	-0.060558
O4	O	0.814997	0.234125	-0.060571
O5	O	0.826023	-0.010473	0.060541
O6	O	0.719389	0.118893	0.060535
O7	O	0.921613	0.104753	0.060534
Zn8	Zn	0.820498	0.111822	0.079762
Zn9	Zn	0.820522	0.111830	-0.079792
O10	O	0.814979	0.234119	0.060528
C11	C	0.693521	0.118442	-0.000014
C12	C	0.616413	0.117079	-0.000013
C13	C	0.052548	0.183763	-0.000018
C14	C	0.124998	0.185051	-0.000022
C15	C	0.169505	0.109145	-0.000016
C16	C	0.141556	0.031945	-0.000026
C17	C	0.069108	0.030659	-0.000029
C18	C	0.290620	0.052532	0.042416
C19	C	0.363067	0.053821	0.042424
C20	C	0.392961	0.113109	-0.000009
C21	C	0.350398	0.171121	-0.042441
C22	C	0.277949	0.169834	-0.042444
C23	C	0.248064	0.110531	-0.000013
C24	C	0.499460	0.191701	-0.000009
C25	C	0.571911	0.192986	-0.000018
C26	C	0.588469	0.039877	-0.000014
C27	C	0.516018	0.038594	-0.000013
C28	C	0.471518	0.114509	-0.000007
C29	C	0.825574	-0.041762	-0.000008
C30	C	0.824199	-0.135003	-0.000008
C31	C	0.754817	-0.349591	-0.000018
C32	C	0.787027	-0.410736	0.059692
C33	C	0.821713	-0.305719	-0.000014
C34	C	0.787061	-0.410713	-0.059703
C35	C	0.819306	-0.470623	-0.000022
C36	C	0.853941	-0.365637	0.059745
C37	C	0.853965	-0.365608	-0.059703
C38	C	0.886224	-0.426735	0.000020
C39	C	0.823097	-0.210723	-0.000008
C40	C	0.817926	-0.565619	-0.000022
C41	C	0.947500	0.105210	-0.000018
C42	C	1.024607	0.106573	-0.000023
C43	C	0.815447	0.265414	-0.000023
C44	C	0.816821	0.358655	-0.000029
N45	N	0.820487	0.111816	0.188653
N46	N	0.820539	0.111830	-0.188683
C47	C	0.867720	0.054560	0.226756
C48	C	0.867725	0.054556	0.302984
C49	C	0.820503	0.111822	0.341106
C50	C	0.773260	0.169082	0.302993
C51	C	0.773253	0.169079	0.226767
C52	C	0.811406	0.188356	0.461862
C53	C	0.811418	0.188361	0.538087
C54	C	0.820522	0.111833	0.576213
C55	C	0.829628	0.035297	0.538105
C56	C	0.829621	0.035294	0.461879
C57	C	0.820505	0.111832	0.423760
C58	C	0.867763	0.054569	0.696971
C59	C	0.867762	0.054564	0.773200
C60	C	0.773302	0.169097	0.773209
C61	C	0.773299	0.169095	0.696981
C62	C	0.820533	0.111831	0.658867
H63	H	0.243297	0.217068	-0.076994
H64	H	0.882243	-0.345584	-0.110186
O65	O	0.041880	-0.044275	0.000066
C66	C	-0.030284	-0.134610	0.062825
C67	C	0.000493	-0.049710	0.062798
H68	H	-0.063741	-0.139040	0.113547
H69	H	-0.063827	-0.139044	0.012180
H70	H	0.013979	-0.188630	0.062790
H71	H	-0.043726	0.004359	0.062860
H72	H	0.034054	-0.045350	0.113439
H73	H	0.594658	0.255846	-0.000019
O74	O	0.727395	0.224801	0.660076
C75	C	0.633678	0.338367	0.668131
C76	C	0.685641	0.275338	0.710016
H77	H	0.599896	0.379231	0.708489
H78	H	0.663626	0.380293	0.632449
H79	H	0.599009	0.302192	0.632439
H80	H	0.720323	0.311445	0.745747
H81	H	0.655650	0.233413	0.745652
O82	O	0.753313	-0.434403	-0.119979
C83	C	0.692065	-0.389379	-0.230125
C84	C	0.730286	-0.362442	-0.161907
H85	H	0.673424	-0.331212	-0.264035
H86	H	0.729192	-0.434686	-0.263929
H87	H	0.645236	-0.422186	-0.212883
H88	H	0.777113	-0.329600	-0.179084
H89	H	0.693113	-0.317174	-0.128120
H90	H	0.803980	0.250678	0.430826
H91	H	0.699290	-0.316068	0.000042
O92	O	0.184858	-0.041735	-0.000116
C93	C	0.276250	-0.129152	-0.062871
C94	C	0.227264	-0.045668	-0.062845
H95	H	0.310538	-0.132367	-0.113589
H96	H	0.310620	-0.132396	-0.012222
H97	H	0.243818	-0.184533	-0.062840
H98	H	0.259641	0.009760	-0.062902
H99	H	0.192892	-0.042498	-0.113489
O100	O	0.753155	-0.434547	0.119859
C101	C	0.645628	-0.421865	0.187916
C102	C	0.683904	-0.394852	0.119741
H103	H	0.589637	-0.389771	0.187851
H104	H	0.645301	-0.493317	0.187612
H105	H	0.673634	-0.402461	0.238788
H106	H	0.655929	-0.414199	0.068834
H107	H	0.684238	-0.323402	0.120109
O108	O	0.887612	-0.341781	0.120012
C109	C	0.926716	-0.226595	0.187606
C110	C	0.888559	-0.253495	0.119332
H111	H	0.927507	-0.155217	0.187071
H112	H	0.898385	-0.245499	0.238453
H113	H	0.982554	-0.259174	0.187813
H114	H	0.832719	-0.220930	0.119054
H115	H	0.916944	-0.234607	0.068516
H116	H	0.941799	-0.460110	0.000054
O117	O	0.727345	0.224784	0.189863
C118	C	0.633626	0.338348	0.197915
C119	C	0.685588	0.275319	0.239801
H120	H	0.599842	0.379210	0.238272
H121	H	0.663575	0.380276	0.162236
H122	H	0.598959	0.302173	0.162221
H123	H	0.720268	0.311426	0.275535
H124	H	0.655596	0.233392	0.275435
H125	H	0.906180	0.007931	0.195725
O126	O	0.913673	-0.001100	0.339895
C127	C	1.007333	-0.114736	0.331847
C128	C	0.955349	-0.051736	0.289959
H129	H	1.041031	-0.155704	0.291493
H130	H	1.042080	-0.078621	0.367502
H131	H	0.977332	-0.156563	0.367568
H132	H	0.985293	-0.009892	0.254199
H133	H	0.920602	-0.087904	0.254351
H134	H	0.837033	-0.027024	0.430854
H135	H	0.804008	0.250681	0.569109
H136	H	0.837041	-0.027019	0.569146
O137	O	0.631763	-0.033805	-0.000108
C138	C	0.723148	-0.121227	-0.062870
C139	C	0.674164	-0.037740	-0.062841
H140	H	0.757431	-0.124444	-0.113591
H141	H	0.757521	-0.124473	-0.012224
H142	H	0.690713	-0.176605	-0.062835
H143	H	0.706544	0.017685	-0.062901
H144	H	0.639788	-0.034568	-0.113481
H145	H	0.266287	0.004249	0.076971
O146	O	0.913664	-0.001141	0.660054
C147	C	1.007381	-0.114710	0.668089
C148	C	0.955425	-0.051677	0.709985
H149	H	1.041168	-0.155572	0.708440
H150	H	0.977427	-0.156636	0.632435
H151	H	1.042045	-0.078537	0.632369
H152	H	0.920748	-0.087781	0.745745
H153	H	0.985423	-0.009751	0.745594
H154	H	0.397716	0.006589	0.076978
H155	H	0.734810	0.215708	0.334036
O156	O	0.488988	-0.036463	0.000023
C157	C	0.513058	-0.188188	-0.000015
C158	C	0.543762	-0.103241	-0.000036
H159	H	0.557328	-0.242200	-0.000078
H160	H	0.479570	-0.192679	0.050676
H161	H	0.479539	-0.192567	-0.050683
H162	H	0.577313	-0.098804	0.050598
H163	H	0.577210	-0.098787	-0.050761
H164	H	0.734850	0.215721	0.804247
O165	O	0.009421	0.257581	-0.000051
C166	C	0.000648	0.409577	-0.000005
C167	C	0.049570	0.326042	0.000017
H168	H	0.033089	0.464949	0.000065
H169	H	-0.033661	0.412869	-0.050699
H170	H	-0.033709	0.412750	0.050661
H171	H	0.083972	0.322813	-0.050615
H172	H	0.083832	0.322784	0.050744
H173	H	0.374736	0.219400	-0.076992
H174	H	0.147752	0.247911	-0.000011
H175	H	0.463225	0.253515	-0.000006
H176	H	0.906223	0.007935	0.804224
