data_functionalizedCrystal
_audit_creation_method	'MofGen! by Chris Wilmer'
_symmetry_space_group_name_H-M	'P1'
_symmetry_Int_Tables_number	1
_symmetry_cell_setting	triclinic
loop_
_symmetry_equiv_pos_as_xyz
  x,y,z
_cell_length_a	13.897449
_cell_length_b	12.645329
_cell_length_c	13.897441
_cell_angle_alpha	90.028679
_cell_angle_beta	90.023394
_cell_angle_gamma	90.018804
loop_
_atom_site_label
_atom_site_type_symbol
_atom_site_fract_x
_atom_site_fract_y
_atom_site_fract_z
Zn1	Zn	1.474701	-0.421982	0.545463
Zn2	Zn	1.974701	0.078018	1.045463
Zn3	Zn	1.474594	-0.599278	0.384169
Zn4	Zn	1.974594	-0.099278	0.884169
Zn5	Zn	1.313390	-0.422031	0.384173
Zn6	Zn	1.813390	0.077969	0.884173
Zn7	Zn	1.313371	-0.599207	0.545414
Zn8	Zn	1.813371	-0.099207	1.045414
O9	O	1.394014	-0.510624	0.464805
O10	O	1.894014	-0.010624	0.964805
O11	O	1.609668	-0.445510	0.524085
O12	O	2.109668	0.054490	1.024085
O13	O	1.453173	-0.575816	0.249188
O14	O	1.953173	-0.075816	0.749188
O15	O	1.334841	-0.273677	0.405591
O16	O	1.834841	0.226323	0.905591
O17	O	1.609590	-0.575768	0.405584
O18	O	2.109590	-0.075768	0.905584
O19	O	1.453355	-0.273641	0.524089
O20	O	1.953355	0.226359	1.024089
O21	O	1.334737	-0.445594	0.249191
O22	O	1.834737	0.054406	0.749191
O23	O	1.178406	-0.445525	0.405544
O24	O	1.678406	0.054475	0.905544
O25	O	1.334808	-0.575647	0.680403
O26	O	1.834808	-0.075647	1.180403
O27	O	1.178392	-0.575695	0.524007
O28	O	1.678392	-0.075695	1.024007
O29	O	1.453337	-0.445441	0.680438
O30	O	1.953337	0.054559	1.180438
O31	O	1.453155	-0.747615	0.405537
O32	O	1.953155	-0.247615	0.905537
O33	O	1.334705	-0.747563	0.524003
O34	O	1.834705	-0.247563	1.024003
C35	C	1.143399	-0.510608	0.464771
C36	C	1.643399	-0.010608	0.964771
C37	C	1.036186	-0.510627	0.464780
C38	C	1.536186	-0.010627	0.964780
C39	C	0.949116	-0.510630	0.464796
C40	C	1.449116	-0.010630	0.964796
C41	C	0.839883	-0.510638	0.464825
C42	C	1.339883	-0.010638	0.964825
C43	C	1.393942	-0.786054	0.464785
C44	C	1.893942	-0.286054	0.964785
C45	C	1.394000	-0.903884	0.464809
C46	C	1.894000	-0.403884	0.964809
C47	C	1.319448	-0.948778	0.539293
C48	C	1.819448	-0.448778	1.039293
C49	C	1.319757	-1.071337	0.539616
C50	C	1.819757	-0.571337	1.039616
C51	C	1.495839	-1.071648	0.492206
C52	C	1.995839	-0.571648	0.992206
C53	C	1.495318	-0.949050	0.492716
C54	C	1.995318	-0.449050	0.992716
C55	C	1.367789	-0.949180	0.362807
C56	C	1.867789	-0.449180	0.862807
C57	C	1.365635	-1.071788	0.363381
C58	C	1.865635	-0.571788	0.863381
C59	C	1.645607	-0.510642	0.464839
C60	C	2.145607	-0.010642	0.964839
C61	C	1.752821	-0.510649	0.464854
C62	C	2.252821	-0.010649	0.964854
C63	C	1.394082	-0.510531	0.716398
C64	C	1.894082	-0.010531	1.216398
C65	C	1.394111	-0.510491	0.823612
C66	C	1.894111	-0.010491	1.323612
C67	C	1.394112	-0.234119	0.464846
C68	C	1.894112	0.265881	0.964846
C69	C	1.394154	-0.116289	0.464863
C70	C	1.894154	0.383711	0.964863
C71	C	1.394001	-0.510641	0.214191
C72	C	1.894001	-0.010641	0.714191
C73	C	1.394159	-0.510383	0.106977
C74	C	1.894159	-0.010383	0.606977
C75	C	1.394138	-0.510419	1.019907
C76	C	1.894138	-0.010419	1.519907
C77	C	1.394120	-0.510462	0.910675
C78	C	1.894120	-0.010462	1.410675
H79	H	1.244364	-1.101527	0.522526
H80	H	1.744364	-0.601527	1.022526
N81	N	1.342831	-1.110078	0.639751
N82	N	1.842831	-0.610078	1.139751
H83	H	1.403376	-1.154193	0.637991
H84	H	1.903376	-0.654193	1.137991
H85	H	1.287683	-1.154435	0.664456
H86	H	1.787683	-0.654435	1.164456
N87	N	1.524705	-0.911051	0.591471
N88	N	2.024705	-0.411051	1.091471
H89	H	1.537874	-0.973941	0.634264
H90	H	2.037874	-0.473941	1.134264
H91	H	1.471106	-0.867251	0.620082
H92	H	1.971106	-0.367251	1.120082
N93	N	1.571314	-0.909689	0.423846
N94	N	2.071314	-0.409689	0.923846
H95	H	1.605019	-0.971982	0.393307
H96	H	2.105019	-0.471982	0.893307
H97	H	1.619712	-0.865274	0.460037
H98	H	2.119712	-0.365274	0.960037
N99	N	1.219212	-0.909834	0.516936
N100	N	1.719212	-0.409834	1.016936
H101	H	1.172501	-0.939550	0.565582
H102	H	1.672501	-0.439550	1.065582
H103	H	1.200116	-0.933814	0.450278
H104	H	1.700116	-0.433814	0.950278
N105	N	1.571493	-1.110195	0.422579
N106	N	2.071493	-0.610195	0.922579
H107	H	1.540504	-1.157080	0.372522
H108	H	2.040504	-0.657080	0.872522
H109	H	1.621986	-1.151668	0.458724
H110	H	2.121986	-0.651668	0.958724
H111	H	1.415990	-1.102403	0.304949
H112	H	1.915990	-0.602403	0.804949
N113	N	1.525808	-1.112205	0.589896
N114	N	2.025808	-0.612205	1.089896
H115	H	1.477465	-1.088749	0.639771
H116	H	1.977465	-0.588749	1.139771
H117	H	1.591341	-1.083027	0.606756
H118	H	2.091341	-0.583027	1.106756
H119	H	1.336609	-0.917896	0.614444
H120	H	1.836609	-0.417896	1.114444
H121	H	1.294859	-0.918361	0.337855
H122	H	1.794859	-0.418361	0.837855
N123	N	1.439706	-0.910700	0.289304
N124	N	1.939706	-0.410700	0.789304
H125	H	1.405255	-0.868826	0.237906
H126	H	1.905255	-0.368826	0.737906
H127	H	1.473002	-0.973375	0.258970
H128	H	1.973002	-0.473375	0.758970
N129	N	1.266577	-1.110596	0.335979
N130	N	1.766577	-0.610596	0.835979
H131	H	1.240268	-1.156796	0.389080
H132	H	1.740268	-0.656796	0.889080
H133	H	1.270779	-1.152867	0.274446
H134	H	1.770779	-0.652867	0.774446
