data_functionalizedCrystal
_audit_creation_method	'MofGen! by Chris Wilmer'
_symmetry_space_group_name_H-M	'P1'
_symmetry_Int_Tables_number	1
_symmetry_cell_setting	triclinic
loop_
_symmetry_equiv_pos_as_xyz
  x,y,z
_cell_length_a	21.295417
_cell_length_b	18.215407
_cell_length_c	18.215399
_cell_angle_alpha	89.980167
_cell_angle_beta	90.032152
_cell_angle_gamma	89.969045
loop_
_atom_site_label
_atom_site_type_symbol
_atom_site_fract_x
_atom_site_fract_y
_atom_site_fract_z
Zn1	Zn	-0.250608	-1.125043	0.416094
Zn2	Zn	-0.355879	-1.124940	0.293019
Zn3	Zn	-0.250629	-1.001976	0.293042
Zn4	Zn	-0.355844	-1.001930	0.416044
O5	O	-0.303240	-1.063472	0.354550
O6	O	-0.264579	-1.228014	0.399780
O7	O	-0.341941	-1.108604	0.190038
O8	O	-0.162537	-1.018364	0.309396
O9	O	-0.341921	-1.227938	0.309357
O10	O	-0.162521	-1.108781	0.399802
O11	O	-0.264614	-1.018263	0.190054
O12	O	-0.264580	-0.898985	0.309347
O13	O	-0.341861	-1.018285	0.519035
O14	O	-0.341881	-0.898951	0.399716
O15	O	-0.264545	-1.108736	0.519072
O16	O	-0.443964	-1.108559	0.309308
O17	O	-0.443938	-1.018184	0.399694
C18	C	-0.303229	-0.872266	0.354529
C19	C	-0.303240	-0.790467	0.354537
C20	C	-0.466792	-1.063376	0.354509
C21	C	-0.536760	-1.063402	0.354516
C22	C	-0.303197	-1.063517	0.546503
C23	C	-0.303178	-1.063536	0.628302
C24	C	-0.569619	-1.110502	0.307500
C25	C	-0.635361	-1.110536	0.307517
C26	C	-0.668242	-1.063457	0.354542
C27	C	-0.635375	-1.016354	0.401566
C28	C	-0.569634	-1.016326	0.401554
N29	N	-0.771508	-0.999079	0.360145
N30	N	-0.833960	-0.999107	0.360153
C31	C	-0.866317	-1.063540	0.354584
N32	N	-0.833863	-1.127944	0.348993
N33	N	-0.771406	-1.127915	0.348981
C34	C	-0.739528	-1.063483	0.354561
C35	C	-0.970462	-1.110681	0.307584
C36	C	-1.036205	-1.110717	0.307605
C37	C	-1.036218	-1.016528	0.401651
C38	C	-0.970475	-1.016499	0.401633
C39	C	-0.937601	-1.063575	0.354595
C40	C	-0.139050	-1.063589	0.354607
C41	C	-0.069082	-1.063639	0.354631
C42	C	-0.303251	-1.255425	0.354571
C43	C	-0.303256	-1.337224	0.354581
C44	C	-0.343554	-0.602275	0.401533
C45	C	-0.343556	-0.525416	0.401542
C46	C	-0.262938	-0.525422	0.307582
C47	C	-0.262933	-0.602279	0.307577
C48	C	-0.303245	-0.640703	0.354552
C49	C	-0.303251	-0.486987	0.354566
C50	C	-0.303253	-0.403654	0.354575
C51	C	-0.303242	-0.724042	0.354543
C52	C	-0.303238	-1.063470	0.163344
C53	C	-0.303079	-1.063593	0.081545
C54	C	-0.262882	-1.110651	0.816516
C55	C	-0.262863	-1.110660	0.893375
C56	C	-0.343377	-1.016473	0.893325
C57	C	-0.343392	-1.016461	0.816468
C58	C	-0.303145	-1.063554	0.778065
C59	C	-0.303112	-1.063575	0.931781
C60	C	-0.303093	-1.063584	1.015115
C61	C	-0.303164	-1.063544	0.694726
H62	H	-0.542855	-1.148835	0.269202
O63	O	-0.223726	-0.488208	0.261925
C64	C	-0.188158	-0.538611	0.220444
H65	H	-0.186005	-0.593410	0.250590
H66	H	-0.211151	-0.546751	0.164503
C67	C	-0.123797	-0.441340	0.172951
C68	C	-0.121148	-0.508644	0.209980
H69	H	-0.082463	-0.422855	0.166492
H70	H	-0.147761	-0.407382	0.200895
H71	H	-0.142961	-0.448133	0.126337
H72	H	-0.101992	-0.501848	0.256595
H73	H	-0.097179	-0.542600	0.182043
O74	O	-0.938483	-0.970704	0.447195
C75	C	-0.900530	-0.923168	0.405242
H76	H	-0.890698	-0.949153	0.349493
H77	H	-0.925914	-0.868646	0.397111
C78	C	-0.850143	-0.877879	0.514179
C79	C	-0.838062	-0.909796	0.445709
H80	H	-0.811611	-0.869627	0.539141
H81	H	-0.875714	-0.909902	0.542444
H82	H	-0.871297	-0.832447	0.507393
H83	H	-0.816916	-0.955231	0.452496
H84	H	-0.812487	-0.877781	0.417445
H85	H	-0.230104	-0.633569	0.269319
O86	O	-0.537780	-0.970604	0.447326
C87	C	-0.553771	-0.986666	0.520694
H88	H	-0.601480	-1.014977	0.522258
H89	H	-0.516724	-1.024472	0.545506
C90	C	-0.498237	-0.880126	0.563287
C91	C	-0.556837	-0.914892	0.565208
H92	H	-0.500126	-0.835854	0.590747
H93	H	-0.487462	-0.869306	0.513858
H94	H	-0.467371	-0.911639	0.583962
H95	H	-0.587700	-0.883384	0.544525
H96	H	-0.567617	-0.925705	0.614635
H97	H	-0.376146	-0.978133	0.924602
H98	H	-0.662121	-1.148893	0.269231
H99	H	-0.230076	-1.149009	0.924678
O100	O	-0.223724	-1.156413	0.779325
C101	C	-0.188194	-1.197995	0.829748
H102	H	-0.186005	-1.167861	0.884530
H103	H	-0.211244	-1.253875	0.837924
C104	C	-0.123891	-1.245652	0.732499
C105	C	-0.121198	-1.208637	0.799781
H106	H	-0.082565	-1.252219	0.714013
H107	H	-0.147830	-1.217640	0.698527
H108	H	-0.143102	-1.292214	0.739322
H109	H	-0.101994	-1.162072	0.792956
H110	H	-0.097254	-1.236641	0.833751
H111	H	-0.662151	-0.978024	0.439855
O112	O	-0.382567	-0.970687	0.779225
C113	C	-0.418080	-0.929116	0.829599
H114	H	-0.420252	-0.959264	0.884392
H115	H	-0.395025	-0.873240	0.837771
C116	C	-0.482412	-0.881432	0.732273
C117	C	-0.485085	-0.918463	0.799569
H118	H	-0.523743	-0.874857	0.713749
H119	H	-0.458485	-0.909436	0.698335
H120	H	-0.463197	-0.834872	0.739092
H121	H	-0.504292	-0.965025	0.792748
H122	H	-0.509017	-0.890466	0.833506
H123	H	-0.943694	-1.149015	0.269285
O124	O	-1.068029	-1.156604	0.261970
C125	C	-1.051866	-1.229917	0.278159
H126	H	-1.004123	-1.231355	0.306463
H127	H	-1.088819	-1.254721	0.316017
C128	C	-1.107426	-1.272789	0.171707
C129	C	-1.048785	-1.274555	0.206465
H130	H	-1.105528	-1.300325	0.127484
H131	H	-1.118318	-1.223397	0.160802
H132	H	-1.138214	-1.293457	0.203263
H133	H	-1.018000	-1.253879	0.174913
H134	H	-1.037888	-1.323945	0.217363
O135	O	-1.068218	-0.970899	0.447370
C136	C	-1.106169	-1.012790	0.494962
H137	H	-1.115991	-1.068580	0.469058
H138	H	-1.080789	-1.020836	0.549499
C139	C	-1.156575	-0.903797	0.540083
C140	C	-1.168644	-0.972317	0.508265
H141	H	-1.195111	-0.878831	0.548292
H142	H	-1.131006	-0.875574	0.508022
H143	H	-1.135424	-0.910512	0.585528
H144	H	-1.189787	-0.965602	0.462817
H145	H	-1.194218	-1.000539	0.540319
O146	O	-0.382727	-0.639487	0.447237
C147	C	-0.418314	-0.589083	0.488694
H148	H	-0.392536	-0.534312	0.491297
H149	H	-0.466096	-0.580872	0.461646
C150	C	-0.459127	-0.686375	0.563802
C151	C	-0.427463	-0.619106	0.567004
H152	H	-0.464773	-0.704895	0.612106
H153	H	-0.435153	-0.720334	0.535870
H154	H	-0.498942	-0.679523	0.541259
H155	H	-0.387646	-0.625960	0.589538
H156	H	-0.451431	-0.585149	0.594942
H157	H	-0.376379	-0.494130	0.439801
