data_functionalizedCrystal
_audit_creation_method	'MofGen! by Chris Wilmer'
_symmetry_space_group_name_H-M	'P1'
_symmetry_Int_Tables_number	1
_symmetry_cell_setting	triclinic
loop_
_symmetry_equiv_pos_as_xyz
  x,y,z
_cell_length_a	12.759401
_cell_length_b	12.759400
_cell_length_c	12.759393
_cell_angle_alpha	90.030448
_cell_angle_beta	90.023641
_cell_angle_gamma	90.013778
loop_
_atom_site_label
_atom_site_type_symbol
_atom_site_fract_x
_atom_site_fract_y
_atom_site_fract_z
Zn1	Zn	-1.606253	0.418241	-0.594131
Zn2	Zn	-1.606148	0.593957	-0.418451
Zn3	Zn	-1.430556	0.418290	-0.418454
Zn4	Zn	-1.430544	0.593876	-0.594076
O5	O	-1.518376	0.506091	-0.506278
O6	O	-1.753261	0.441564	-0.570849
O7	O	-1.582817	0.570708	-0.271431
O8	O	-1.453912	0.271262	-0.441782
O9	O	-1.753183	0.570661	-0.441777
O10	O	-1.582996	0.271227	-0.570851
O11	O	-1.453810	0.441646	-0.271433
O12	O	-1.283533	0.441568	-0.441729
O13	O	-1.453891	0.570524	-0.741105
O14	O	-1.283525	0.570570	-0.570758
O15	O	-1.582984	0.441486	-0.741145
O16	O	-1.582805	0.740967	-0.441724
O17	O	-1.453789	0.740908	-0.570755
C18	C	-1.245408	0.506066	-0.506239
C19	C	-1.128631	0.506081	-0.506247
C20	C	-0.963995	0.573216	-0.438977
C21	C	-1.073719	0.573198	-0.438953
C22	C	-1.073814	0.438970	-0.573562
C23	C	-0.964092	0.438983	-0.573580
C24	C	-0.963942	0.650714	-0.361265
C25	C	-1.073666	0.650697	-0.361240
C26	C	-1.518313	0.779058	-0.506256
C27	C	-1.518383	0.895835	-0.506282
C28	C	-1.518448	0.505990	-0.780312
C29	C	-1.518479	0.505947	-0.897089
C30	C	-0.792409	0.506112	-0.506307
C31	C	-0.909185	0.506112	-0.506290
C32	C	-1.518467	0.232058	-0.506323
C33	C	-1.518506	0.115281	-0.506343
C34	C	-1.585636	0.950693	-0.439170
C35	C	-1.585700	1.060417	-0.439202
C36	C	-1.451250	1.060415	-0.573462
C37	C	-1.451191	0.950693	-0.573434
C38	C	-1.663257	0.950695	-0.361653
C39	C	-1.663321	1.060419	-0.361685
C40	C	-1.585656	0.573124	-0.951947
C41	C	-1.585688	0.573079	-1.061671
C42	C	-1.451356	0.438678	-1.061669
C43	C	-1.451331	0.438718	-0.951947
C44	C	-1.663209	0.650723	-0.951949
C45	C	-1.663240	0.650678	-1.061673
C46	C	-1.518364	0.506115	-0.233311
C47	C	-1.518536	0.505862	-0.116535
H48	H	-1.107654	0.621459	-0.283985
O49	O	-1.109157	0.747758	-0.387261
C50	C	-1.072281	0.774690	-0.487859
H51	H	-1.052816	0.700291	-0.533363
H52	H	-0.998832	0.825007	-0.480144
C53	C	-1.181416	0.928017	-0.490812
C54	C	-1.157518	0.836639	-0.546704
H55	H	-1.233991	0.966234	-0.527109
H56	H	-1.206258	0.909875	-0.423035
H57	H	-1.120202	0.969935	-0.484386
H58	H	-1.218728	0.794716	-0.553117
H59	H	-1.132688	0.854775	-0.614483
O60	O	-1.385766	0.897566	-0.638663
C61	C	-1.326494	0.969517	-0.697952
H62	H	-1.322920	1.047768	-0.654936
H63	H	-1.364936	0.981092	-0.777782
C64	C	-1.219035	0.830663	-0.765817
C65	C	-1.214638	0.926770	-0.712980
H66	H	-1.150038	0.804294	-0.775092
H67	H	-1.258970	0.782187	-0.725877
H68	H	-1.251075	0.840322	-0.832336
H69	H	-1.182610	0.917108	-0.646458
H70	H	-1.174694	0.975243	-0.752910
H71	H	-1.740558	0.621533	-1.095721
O72	O	-1.628544	0.743023	-0.911379
C73	C	-1.693995	0.825185	-0.945621
H74	H	-1.773919	0.792173	-0.968166
H75	H	-1.657150	0.865000	-1.016586
C76	C	-1.609130	0.946291	-0.829018
C77	C	-1.707298	0.905746	-0.856700
H78	H	-1.617334	0.995988	-0.774171
H79	H	-1.565032	0.890938	-0.805951
H80	H	-1.578437	0.979463	-0.888164
H81	H	-1.737984	0.872564	-0.797559
H82	H	-1.751402	0.961095	-0.879755
H83	H	-1.641423	0.732035	-1.091435
H84	H	-1.634132	0.916745	-0.284324
O85	O	-1.637201	1.096003	-0.264634
C86	C	-1.536558	1.059172	-0.237717
H87	H	-1.491132	1.039649	-0.312123
H88	H	-1.544188	0.985768	-0.187389
C89	C	-1.533472	1.168447	-0.084406
C90	C	-1.477675	1.144477	-0.175792
H91	H	-1.497151	1.221064	-0.046203
H92	H	-1.601279	1.193259	-0.102537
H93	H	-1.539826	1.107270	-0.042478
H94	H	-1.471333	1.205650	-0.217724
H95	H	-1.409866	1.119677	-0.157666
H96	H	-1.740625	1.094365	-0.390904
O97	O	-1.760371	0.915192	-0.387611
C98	C	-1.833953	0.952094	-0.313911
H99	H	-1.802085	1.025541	-0.274190
H100	H	-1.848695	0.889013	-0.252411
C101	C	-1.976605	0.888193	-0.418924
C102	C	-1.937468	0.978407	-0.370144
H103	H	-2.040460	0.904419	-0.453609
H104	H	-1.927032	0.863327	-0.468576
H105	H	-1.988882	0.835633	-0.367665
H106	H	-1.925180	1.030959	-0.421405
H107	H	-1.987042	1.003281	-0.320502
O108	O	-1.386014	1.113869	-0.638588
C109	C	-1.400508	1.222477	-0.624246
H110	H	-1.434966	1.237502	-0.543203
H111	H	-1.456442	1.253516	-0.686625
C112	C	-1.251911	1.260434	-0.733333
C113	C	-1.294225	1.278889	-0.633790
H114	H	-1.186352	1.295233	-0.739224
H115	H	-1.242148	1.187263	-0.742999
H116	H	-1.298533	1.286300	-0.785304
H117	H	-1.247609	1.253011	-0.581822
H118	H	-1.303977	1.352057	-0.624115
O119	O	-1.760309	0.624934	-0.916389
C120	C	-1.800213	0.707711	-0.855004
H121	H	-1.759472	0.783927	-0.877645
H122	H	-1.785349	0.690591	-0.768583
C123	C	-1.968954	0.624691	-0.846299
C124	C	-1.918921	0.718303	-0.874114
H125	H	-2.042179	0.631224	-0.858082
H126	H	-1.942070	0.568921	-0.887652
H127	H	-1.956556	0.610436	-0.774283
H128	H	-1.931308	0.732551	-0.946132
H129	H	-1.945810	0.774077	-0.832773
O130	O	-1.385981	0.373431	-1.114844
C131	C	-1.281252	0.396408	-1.088033
H132	H	-1.279040	0.436828	-1.008362
H133	H	-1.245862	0.450394	-1.149774
C134	C	-1.220365	0.244335	-1.180819
C135	C	-1.217647	0.293972	-1.082961
H136	H	-1.181128	0.181150	-1.177694
H137	H	-1.290922	0.228857	-1.198885
H138	H	-1.190875	0.289334	-1.232259
H139	H	-1.247148	0.248979	-1.031526
H140	H	-1.147093	0.309441	-1.064886
O141	O	-0.910898	0.373903	-0.639111
C142	C	-0.937789	0.396954	-0.743781
H143	H	-0.967940	0.480890	-0.748947
H144	H	-1.001504	0.340651	-0.771319
C145	C	-0.803332	0.281717	-0.807591
C146	C	-0.840356	0.384811	-0.813937
H147	H	-0.743233	0.274223	-0.850869
H148	H	-0.785217	0.266184	-0.737073
H149	H	-0.856437	0.234810	-0.830538
H150	H	-0.787256	0.431716	-0.790978
H151	H	-0.858460	0.400353	-0.884453
O152	O	-0.928484	0.624728	-0.264167
C153	C	-0.965334	0.698416	-0.190513
H154	H	-1.038738	0.738155	-0.222363
H155	H	-0.902200	0.759904	-0.175673
C156	C	-0.901562	0.593361	-0.047960
C157	C	-0.991722	0.642163	-0.087075
H158	H	-0.917835	0.558663	0.015848
H159	H	-0.876731	0.543717	-0.097581
H160	H	-0.848958	0.644609	-0.035602
H161	H	-1.044319	0.590913	-0.099444
H162	H	-1.016563	0.691797	-0.037453
H163	H	-1.118532	0.384315	-0.628346
H164	H	-0.929917	0.728045	-0.390286
H165	H	-1.396637	0.384008	-0.907285
