data_functionalizedCrystal
_audit_creation_method	'MofGen! by Chris Wilmer'
_symmetry_space_group_name_H-M	'P1'
_symmetry_Int_Tables_number	1
_symmetry_cell_setting	triclinic
loop_
_symmetry_equiv_pos_as_xyz
  x,y,z
_cell_length_a	18.101389
_cell_length_b	19.077105
_cell_length_c	19.077068
_cell_angle_alpha	89.884684
_cell_angle_beta	92.277715
_cell_angle_gamma	92.315730
loop_
_atom_site_label
_atom_site_type_symbol
_atom_site_fract_x
_atom_site_fract_y
_atom_site_fract_z
Zn1	Zn	-0.477251	-1.062984	-0.323060
Zn2	Zn	0.022749	-0.562984	0.176940
Zn3	Zn	-0.358165	-1.058173	-0.440549
Zn4	Zn	0.141835	-0.558173	0.059451
Zn5	Zn	-0.348262	-0.945478	-0.318333
Zn6	Zn	0.151738	-0.445478	0.181667
Zn7	Zn	-0.476806	-0.940719	-0.435801
Zn8	Zn	0.023194	-0.440719	0.064199
O9	O	-0.415121	-1.001839	-0.379436
O10	O	0.084879	-0.501839	0.120564
O11	O	-0.465784	-1.160677	-0.342610
O12	O	0.034216	-0.660677	0.157390
O13	O	-0.253218	-1.043201	-0.424345
O14	O	0.246782	-0.543201	0.075655
O15	O	-0.361415	-0.965071	-0.220629
O16	O	0.138585	-0.465071	0.279371
O17	O	-0.378292	-1.157142	-0.428929
O18	O	0.121708	-0.657142	0.071071
O19	O	-0.456182	-1.051402	-0.224102
O20	O	0.043818	-0.551402	0.275898
O21	O	-0.245943	-0.960405	-0.334554
O22	O	0.254057	-0.460405	0.165446
O23	O	-0.360983	-0.846515	-0.329950
O24	O	0.139017	-0.346515	0.170050
O25	O	-0.580498	-0.956960	-0.420837
O26	O	-0.080498	-0.456960	0.079163
O27	O	-0.455424	-0.843019	-0.416254
O28	O	0.044576	-0.343019	0.083746
O29	O	-0.580825	-1.046788	-0.338006
O30	O	-0.080825	-0.546788	0.161994
O31	O	-0.377861	-1.038587	-0.538250
O32	O	0.122139	-0.538587	-0.038250
O33	O	-0.465026	-0.952294	-0.534762
O34	O	0.034974	-0.452294	-0.034762
C35	C	-0.422487	-0.994421	-0.562002
C36	C	0.077513	-0.494421	-0.062002
C37	C	-0.425665	-0.991312	-0.640108
C38	C	0.074335	-0.491312	-0.140108
C39	C	-0.608284	-1.001880	-0.379419
C40	C	-0.108284	-0.501880	0.120581
C41	C	-0.690599	-1.001897	-0.379413
C42	C	-0.190599	-0.501897	0.120587
C43	C	-0.407081	-0.819271	-0.372074
C44	C	0.092919	-0.319271	0.127926
C45	C	-0.403660	-0.741167	-0.368942
C46	C	0.096340	-0.241167	0.131058
C47	C	-0.989686	-1.001944	-0.379283
C48	C	-0.489686	-0.501944	0.120717
C49	C	-0.958140	-0.945246	-0.431217
C50	C	-0.458140	-0.445246	0.068783
C51	C	-0.872538	-0.945384	-0.431474
C52	C	-0.372538	-0.445384	0.068526
C53	C	-0.841305	-1.001920	-0.379347
C54	C	-0.341305	-0.501920	0.120653
C55	C	-0.876470	-1.075148	-0.402427
C56	C	-0.376470	-0.575148	0.097573
C57	C	-0.962116	-1.074830	-0.402771
C58	C	-0.462116	-0.574830	0.097229
C59	C	-0.954271	-0.986062	-0.304173
C60	C	-0.454271	-0.486062	0.195827
C61	C	-0.868566	-0.984397	-0.304536
C62	C	-0.368566	-0.484397	0.195464
C63	C	-0.757447	-1.001911	-0.379382
C64	C	-0.257447	-0.501911	0.120618
C65	C	-1.073545	-1.001957	-0.379249
C66	C	-0.573545	-0.501957	0.120751
C67	C	-0.222709	-1.001840	-0.379403
C68	C	0.277291	-0.501840	0.120597
C69	C	-0.140393	-1.001966	-0.379217
C70	C	0.359607	-0.501966	0.120783
C71	C	-0.423193	-1.185119	-0.386826
C72	C	0.076807	-0.685119	0.113174
C73	C	-0.426632	-1.263222	-0.389976
C74	C	0.073368	-0.763222	0.110024
C75	C	-0.451151	-0.702669	-0.412472
C76	C	0.048849	-0.202669	0.087528
C77	C	-0.447940	-0.629283	-0.409519
C78	C	0.052060	-0.129283	0.090481
C79	C	-0.397233	-0.594395	-0.363040
C80	C	0.102767	-0.094395	0.136960
C81	C	-0.349740	-0.632899	-0.319506
C82	C	0.150260	-0.132899	0.180494
C83	C	-0.352956	-0.706284	-0.322455
C84	C	0.147044	-0.206284	0.177545
C85	C	-0.382355	-0.375111	-0.349390
C86	C	0.117645	0.124889	0.150610
C87	C	-0.379141	-0.301720	-0.346446
C88	C	0.120859	0.198280	0.153554
C89	C	-0.477342	-0.298109	-0.436459
C90	C	0.022658	0.201891	0.063541
C91	C	-0.480550	-0.371496	-0.439407
C92	C	0.019450	0.128504	0.060593
C93	C	-0.433060	-0.409993	-0.395870
C94	C	0.066940	0.090007	0.104130
N95	N	-0.393948	-0.519383	-0.360023
N96	N	0.106052	-0.019383	0.139977
N97	N	-0.436349	-0.485004	-0.398884
N98	N	0.063651	0.014996	0.101116
C99	C	-0.381818	-1.034814	-0.678596
C100	C	0.118182	-0.534814	-0.178596
C101	C	-0.384812	-1.031895	-0.751984
C102	C	0.115188	-0.531895	-0.251984
C103	C	-0.431651	-0.985468	-0.786883
C104	C	0.068349	-0.485468	-0.286883
C105	C	-0.475503	-0.941964	-0.748390
C106	C	0.024497	-0.441964	-0.248390
C107	C	-0.472512	-0.944888	-0.675003
C108	C	0.027488	-0.444888	-0.175003
C109	C	-0.445461	-0.971905	-1.006174
C110	C	0.054539	-0.471905	-0.506174
C111	C	-0.448447	-0.968983	-1.079566
C112	C	0.051553	-0.468983	-0.579566
C113	C	-0.357757	-1.058915	-1.083156
C114	C	0.142243	-0.558915	-0.583156
C115	C	-0.354767	-1.061831	-1.009767
C116	C	0.145233	-0.561831	-0.509767
C117	C	-0.398622	-1.018330	-0.971280
C118	C	0.101378	-0.518330	-0.471280
N119	N	-0.434711	-0.982481	-0.861898
N120	N	0.065289	-0.482481	-0.361898
N121	N	-0.395565	-1.021321	-0.896267
N122	N	0.104435	-0.521321	-0.396267
C123	C	-0.407743	-1.009304	-0.196157
C124	C	0.092257	-0.509304	0.303843
C125	C	-0.404600	-1.012485	-0.118054
C126	C	0.095400	-0.512485	0.381946
H127	H	-0.975808	-0.890681	-0.416551
H128	H	-0.475808	-0.390681	0.083449
H129	H	-0.316627	-1.099635	-0.981354
H130	H	0.183373	-0.599635	-0.481354
N131	N	-0.840106	-1.035419	-0.250237
N132	N	-0.340106	-0.535419	0.249763
H133	H	-0.784221	-1.033028	-0.248417
H134	H	-0.284221	-0.533028	0.251583
H135	H	-0.858581	-1.084537	-0.263196
H136	H	-0.358581	-0.584537	0.236804
H137	H	-0.314287	-0.737628	-0.287005
H138	H	0.185713	-0.237628	0.212995
H139	H	-0.516007	-0.266757	-0.471903
H140	H	-0.016007	0.233243	0.028097
N141	N	-0.295042	-0.595277	-0.269378
N142	N	0.204958	-0.095277	0.230622
H143	H	-0.243110	-0.607596	-0.280737
H144	H	0.256890	-0.107596	0.219263
H145	H	-0.305226	-0.610105	-0.219721
H146	H	0.194774	-0.110105	0.280279
H147	H	-0.343679	-0.406446	-0.313945
H148	H	0.156321	0.093554	0.186055
N149	N	-0.990281	-0.958679	-0.504437
N150	N	-0.490281	-0.458679	-0.004437
H151	H	-1.025190	-1.001329	-0.504111
H152	H	-0.525190	-0.501329	-0.004111
H153	H	-0.948953	-0.967086	-0.537069
H154	H	-0.448953	-0.467086	-0.037069
N155	N	-0.324434	-0.264080	-0.296333
N156	N	0.175566	0.235920	0.203667
H157	H	-0.351927	-0.234948	-0.262592
H158	H	0.148073	0.265052	0.237408
H159	H	-0.289909	-0.232512	-0.323698
H160	H	0.210091	0.267488	0.176302
H161	H	-0.854835	-0.955627	-0.487086
H162	H	-0.354835	-0.455627	0.012914
H163	H	-0.974654	-1.027394	-0.265442
H164	H	-0.474654	-0.527394	0.234558
N165	N	-0.526020	-0.891885	-0.786024
N166	N	-0.026020	-0.391885	-0.286024
H167	H	-0.578901	-0.903279	-0.773658
H168	H	-0.078901	-0.403279	-0.273658
H169	H	-0.521198	-0.896652	-0.838343
H170	H	-0.021198	-0.396652	-0.338343
H171	H	-0.322053	-1.094332	-1.114500
H172	H	0.177947	-0.594332	-0.614500
N173	N	-0.498968	-0.918907	-1.117209
N174	N	0.001032	-0.418907	-0.617209
H175	H	-0.526298	-0.891793	-1.081693
H176	H	-0.026298	-0.391793	-0.581693
H177	H	-0.535757	-0.946282	-1.148771
H178	H	-0.035757	-0.446282	-0.648771
H179	H	-0.343673	-1.072616	-0.650186
H180	H	0.156327	-0.572616	-0.150186
N181	N	-0.505839	-0.740291	-0.462609
N182	N	-0.005839	-0.240291	0.037391
H183	H	-0.557775	-0.727983	-0.451256
H184	H	-0.057775	-0.227983	0.048744
H185	H	-0.500606	-0.792611	-0.457853
H186	H	-0.000606	-0.292611	0.042147
N187	N	-0.992430	-1.093116	-0.475619
N188	N	-0.492430	-0.593116	0.024381
H189	H	-1.022165	-1.053210	-0.494845
H190	H	-0.522165	-0.553210	0.005155
H191	H	-1.025257	-1.137096	-0.473564
H192	H	-0.525257	-0.637096	0.026436
H193	H	-0.983169	-1.118346	-0.366747
H194	H	-0.483169	-0.618346	0.133253
H195	H	-0.972791	-0.933749	-0.283725
H196	H	-0.472791	-0.433749	0.216275
H197	H	-0.481169	-0.936484	-0.974844
H198	H	0.018831	-0.436484	-0.474844
N199	N	-0.519808	-0.897971	-0.633487
N200	N	-0.019808	-0.397971	-0.133487
H201	H	-0.549933	-0.868116	-0.666729
H202	H	-0.049933	-0.368116	-0.166729
H203	H	-0.486966	-0.866681	-0.601770
H204	H	0.013034	-0.366681	-0.101770
H205	H	-0.856405	-1.118397	-0.365920
H206	H	-0.356405	-0.618397	0.134080
H207	H	-0.349106	-1.067318	-0.783318
H208	H	0.150894	-0.567318	-0.283318
N209	N	-0.499151	-0.587759	-0.456479
N210	N	0.000849	-0.087759	0.043521
H211	H	-0.531754	-0.620995	-0.486377
H212	H	-0.031754	-0.120995	0.013623
H213	H	-0.468913	-0.555985	-0.487725
H214	H	0.031087	-0.055985	0.012275
N215	N	-0.535244	-0.409113	-0.489542
N216	N	-0.035244	0.090887	0.010458
H217	H	-0.587179	-0.396803	-0.478189
H218	H	-0.087179	0.103197	0.021811
H219	H	-0.530013	-0.461434	-0.484789
H220	H	-0.030013	0.038566	0.015211
N221	N	-0.840808	-0.873343	-0.411856
N222	N	-0.340808	-0.373343	0.088144
H223	H	-0.882431	-0.841210	-0.402967
H224	H	-0.382431	-0.341210	0.097033
H225	H	-0.810735	-0.853915	-0.451468
H226	H	-0.310735	-0.353915	0.048532
H227	H	-0.857919	-1.089260	-0.456855
H228	H	-0.357919	-0.589260	0.043145
H229	H	-0.845232	-0.930523	-0.287185
H230	H	-0.345232	-0.430523	0.212815
