data_functionalizedCrystal
_audit_creation_method	'MofGen! by Chris Wilmer'
_symmetry_space_group_name_H-M	'P1'
_symmetry_Int_Tables_number	1
_symmetry_cell_setting	triclinic
loop_
_symmetry_equiv_pos_as_xyz
  x,y,z
_cell_length_a	25.639242
_cell_length_b	25.639240
_cell_length_c	25.639233
_cell_angle_alpha	90.025929
_cell_angle_beta	90.014348
_cell_angle_gamma	90.025061
loop_
_atom_site_label
_atom_site_type_symbol
_atom_site_fract_x
_atom_site_fract_y
_atom_site_fract_z
Zn1	Zn	0.799247	-0.208322	0.295607
Zn2	Zn	1.049247	0.041678	0.545607
Zn3	Zn	1.299247	0.291678	0.795607
Zn4	Zn	1.549247	0.541678	1.045607
Zn5	Zn	0.799179	-0.295741	0.208160
Zn6	Zn	1.049179	-0.045741	0.458160
Zn7	Zn	1.299179	0.204259	0.708160
Zn8	Zn	1.549179	0.454259	0.958160
Zn9	Zn	0.711823	-0.208309	0.208183
Zn10	Zn	0.961823	0.041691	0.458183
Zn11	Zn	1.211823	0.291691	0.708183
Zn12	Zn	1.461823	0.541691	0.958183
Zn13	Zn	0.711777	-0.295716	0.295562
Zn14	Zn	0.961777	-0.045716	0.545562
Zn15	Zn	1.211777	0.204284	0.795562
Zn16	Zn	1.461777	0.454284	1.045562
O17	O	0.755506	-0.252022	0.251878
O18	O	1.005506	-0.002022	0.501878
O19	O	1.255506	0.247978	0.751878
O20	O	1.505506	0.497978	1.001878
O21	O	0.872403	-0.219933	0.284016
O22	O	1.122403	0.030067	0.534016
O23	O	1.372403	0.280067	0.784016
O24	O	1.622403	0.530067	1.034016
O25	O	0.787582	-0.284148	0.134998
O26	O	1.037582	-0.034148	0.384998
O27	O	1.287582	0.215852	0.634998
O28	O	1.537582	0.465852	0.884998
O29	O	0.723467	-0.135146	0.219808
O30	O	0.973467	0.114854	0.469808
O31	O	1.223467	0.364854	0.719808
O32	O	1.473467	0.614854	0.969808
O33	O	0.872353	-0.284160	0.219770
O34	O	1.122353	-0.034160	0.469770
O35	O	1.372353	0.215840	0.719770
O36	O	1.622353	0.465840	0.969770
O37	O	0.787697	-0.135155	0.284038
O38	O	1.037697	0.114845	0.534038
O39	O	1.287697	0.364845	0.784038
O40	O	1.537697	0.614845	1.034038
O41	O	0.723402	-0.219912	0.135015
O42	O	0.973402	0.030088	0.385015
O43	O	1.223402	0.280088	0.635015
O44	O	1.473402	0.530088	0.885015
O45	O	0.638652	-0.219889	0.219765
O46	O	0.888652	0.030111	0.469765
O47	O	1.138652	0.280111	0.719765
O48	O	1.388652	0.530111	0.969765
O49	O	0.723389	-0.284118	0.368733
O50	O	0.973389	-0.034118	0.618733
O51	O	1.223389	0.215882	0.868733
O52	O	1.473389	0.465882	1.118733
O53	O	0.638618	-0.284106	0.283962
O54	O	0.888618	-0.034106	0.533962
O55	O	1.138618	0.215894	0.783962
O56	O	1.388618	0.465894	1.033962
O57	O	0.787653	-0.219910	0.368766
O58	O	1.037653	0.030090	0.618766
O59	O	1.287653	0.280090	0.868766
O60	O	1.537653	0.530090	1.118766
O61	O	0.787538	-0.368903	0.219726
O62	O	1.037538	-0.118903	0.469726
O63	O	1.287538	0.131097	0.719726
O64	O	1.537538	0.381097	0.969726
O65	O	0.723324	-0.368885	0.283940
O66	O	0.973324	-0.118885	0.533940
O67	O	1.223324	0.131115	0.783940
O68	O	1.473324	0.381115	1.033940
C69	C	0.619664	-0.251994	0.251861
C70	C	0.869664	-0.001994	0.501861
C71	C	1.119664	0.248006	0.751861
C72	C	1.369664	0.498006	1.001861
C73	C	0.561550	-0.251994	0.251866
C74	C	0.811550	-0.001994	0.501866
C75	C	1.061550	0.248006	0.751866
C76	C	1.311550	0.498006	1.001866
C77	C	0.310390	-0.218639	0.285392
C78	C	0.560390	0.031361	0.535392
C79	C	0.810390	0.281361	0.785392
C80	C	1.060390	0.531361	1.035392
C81	C	0.364994	-0.218634	0.285389
C82	C	0.614994	0.031366	0.535389
C83	C	0.864994	0.281366	0.785389
C84	C	1.114994	0.531366	1.035389
O85	O	0.393260	-0.190251	0.313891
O86	O	0.643260	0.059749	0.563891
O87	O	0.893260	0.309749	0.813891
O88	O	1.143260	0.559749	1.063891
N89	N	0.392276	-0.252016	0.251884
N90	N	0.642276	-0.002016	0.501884
N91	N	0.892276	0.247984	0.751884
N92	N	1.142276	0.497984	1.001884
C93	C	0.364950	-0.285409	0.218383
C94	C	0.614950	-0.035409	0.468383
C95	C	0.864950	0.214591	0.718383
C96	C	1.114950	0.464591	0.968383
O97	O	0.393169	-0.313803	0.189885
O98	O	0.643169	-0.063803	0.439885
O99	O	0.893169	0.186197	0.689885
O100	O	1.143169	0.436197	0.939885
C101	C	0.310347	-0.285417	0.218389
C102	C	0.560347	-0.035417	0.468389
C103	C	0.810347	0.214583	0.718389
C104	C	1.060347	0.464583	0.968389
C105	C	0.283068	-0.252028	0.251893
C106	C	0.533068	-0.002028	0.501893
C107	C	0.783068	0.247972	0.751893
C108	C	1.033068	0.497972	1.001893
C109	C	0.283112	-0.185254	0.318894
C110	C	0.533112	0.064746	0.568894
C111	C	0.783112	0.314746	0.818894
C112	C	1.033112	0.564746	1.068894
C113	C	0.228511	-0.185258	0.318896
C114	C	0.478511	0.064742	0.568896
C115	C	0.728511	0.314742	0.818896
C116	C	0.978511	0.564742	1.068896
C117	C	0.201189	-0.218648	0.285397
C118	C	0.451189	0.031352	0.535397
C119	C	0.701189	0.281352	0.785397
C120	C	0.951189	0.531352	1.035397
C121	C	0.228468	-0.252033	0.251895
C122	C	0.478468	-0.002033	0.501895
C123	C	0.728468	0.247967	0.751895
C124	C	0.978468	0.497967	1.001895
C125	C	0.283022	-0.318812	0.184892
C126	C	0.533022	-0.068812	0.434892
C127	C	0.783022	0.181188	0.684892
C128	C	1.033022	0.431188	0.934892
C129	C	0.228415	-0.318817	0.184901
C130	C	0.478415	-0.068817	0.434901
C131	C	0.728415	0.181183	0.684901
C132	C	0.978415	0.431183	0.934901
C133	C	0.201136	-0.285429	0.218405
C134	C	0.451136	-0.035429	0.468405
C135	C	0.701136	0.214571	0.718405
C136	C	0.951136	0.464571	0.968405
C137	C	0.146545	-0.285427	0.218398
C138	C	0.396545	-0.035427	0.468398
C139	C	0.646545	0.214573	0.718398
C140	C	0.896545	0.464573	0.968398
N141	N	0.119264	-0.252045	0.251904
N142	N	0.369264	-0.002045	0.501904
N143	N	0.619264	0.247955	0.751904
N144	N	0.869264	0.497955	1.001904
C145	C	0.146586	-0.218655	0.285403
C146	C	0.396586	0.031345	0.535403
C147	C	0.646586	0.281345	0.785403
C148	C	0.896586	0.531345	1.035403
C149	C	0.479621	-0.285392	0.218374
C150	C	0.729621	-0.035392	0.468374
C151	C	0.979621	0.214608	0.718374
C152	C	1.229621	0.464608	0.968374
C153	C	0.534223	-0.285382	0.218365
C154	C	0.784223	-0.035382	0.468365
C155	C	1.034223	0.214618	0.718365
C156	C	1.284223	0.464618	0.968365
C157	C	0.534264	-0.218607	0.285372
C158	C	0.784264	0.031393	0.535372
C159	C	1.034264	0.281393	0.785372
C160	C	1.284264	0.531393	1.035372
C161	C	0.479660	-0.218614	0.285378
C162	C	0.729660	0.031386	0.535378
C163	C	0.979660	0.281386	0.785378
C164	C	1.229660	0.531386	1.035378
C165	C	0.452339	-0.252010	0.251879
C166	C	0.702339	-0.002010	0.501879
C167	C	0.952339	0.247990	0.751879
C168	C	1.202339	0.497990	1.001879
C169	C	0.031921	-0.218667	0.285404
C170	C	0.281921	0.031333	0.535404
C171	C	0.531921	0.281333	0.785404
C172	C	0.781921	0.531333	1.035404
C173	C	-0.022685	-0.218673	0.285402
C174	C	0.227315	0.031327	0.535402
C175	C	0.477315	0.281327	0.785402
C176	C	0.727315	0.531327	1.035402
C177	C	-0.022721	-0.285450	0.218397
C178	C	0.227279	-0.035450	0.468397
C179	C	0.477279	0.214550	0.718397
C180	C	0.727279	0.464550	0.968397
C181	C	0.031880	-0.285442	0.218398
C182	C	0.281880	-0.035442	0.468398
C183	C	0.531880	0.214558	0.718398
C184	C	0.781880	0.464558	0.968398
C185	C	0.059199	-0.252049	0.251905
C186	C	0.309199	-0.002049	0.501905
C187	C	0.559199	0.247951	0.751905
C188	C	0.809199	0.497951	1.001905
O189	O	0.118245	-0.313797	0.189913
O190	O	0.368245	-0.063797	0.439913
O191	O	0.618245	0.186203	0.689913
O192	O	0.868245	0.436203	0.939913
O193	O	0.118360	-0.190271	0.313902
O194	O	0.368360	0.059729	0.563902
O195	O	0.618360	0.309729	0.813902
O196	O	0.868360	0.559729	1.063902
C197	C	0.755432	-0.387865	0.251837
C198	C	1.005432	-0.137865	0.501837
C199	C	1.255432	0.112135	0.751837
C200	C	1.505432	0.362135	1.001837
C201	C	0.755449	-0.445979	0.251837
C202	C	1.005449	-0.195979	0.501837
C203	C	1.255449	0.054021	0.751837
C204	C	1.505449	0.304021	1.001837
C205	C	0.788967	-0.806308	0.285383
C206	C	1.038967	-0.556308	0.535383
C207	C	1.288967	-0.306308	0.785383
C208	C	1.538967	-0.056308	1.035383
C209	C	0.788983	-0.860912	0.285394
C210	C	1.038983	-0.610912	0.535394
C211	C	1.288983	-0.360912	0.785394
C212	C	1.538983	-0.110912	1.035394
O213	O	0.817394	-0.889120	0.313874
O214	O	1.067394	-0.639120	0.563874
O215	O	1.317394	-0.389120	0.813874
O216	O	1.567394	-0.139120	1.063874
N217	N	0.755579	-0.888261	0.251929
N218	N	1.005579	-0.638261	0.501929
N219	N	1.255579	-0.388261	0.751929
N220	N	1.505579	-0.138261	1.001929
C221	C	0.722154	-0.861003	0.218455
C222	C	0.972154	-0.611003	0.468455
C223	C	1.222154	-0.361003	0.718455
C224	C	1.472154	-0.111003	0.968455
O225	O	0.693742	-0.889279	0.189991
O226	O	0.943742	-0.639279	0.439991
O227	O	1.193742	-0.389279	0.689991
O228	O	1.443742	-0.139279	0.939991
C229	C	0.722136	-0.806399	0.218447
C230	C	0.972136	-0.556399	0.468447
C231	C	1.222136	-0.306399	0.718447
C232	C	1.472136	-0.056399	0.968447
C233	C	0.755546	-0.779053	0.251911
C234	C	1.005546	-0.529053	0.501911
C235	C	1.255546	-0.279053	0.751911
C236	C	1.505546	-0.029053	1.001911
C237	C	0.822374	-0.778962	0.318844
C238	C	1.072374	-0.528962	0.568844
C239	C	1.322374	-0.278962	0.818844
C240	C	1.572374	-0.028962	1.068844
C241	C	0.822359	-0.724361	0.318833
C242	C	1.072359	-0.474361	0.568833
C243	C	1.322359	-0.224361	0.818833
C244	C	1.572359	0.025639	1.068833
C245	C	0.788938	-0.697107	0.285360
C246	C	1.038938	-0.447107	0.535360
C247	C	1.288938	-0.197107	0.785360
C248	C	1.538938	0.052893	1.035360
C249	C	0.755531	-0.724453	0.251899
C250	C	1.005531	-0.474453	0.501899
C251	C	1.255531	-0.224453	0.751899
C252	C	1.505531	0.025547	1.001899
C253	C	0.688708	-0.779142	0.184976
C254	C	0.938708	-0.529142	0.434976
C255	C	1.188708	-0.279142	0.684976
C256	C	1.438708	-0.029142	0.934976
C257	C	0.688693	-0.724535	0.184972
C258	C	0.938693	-0.474535	0.434972
C259	C	1.188693	-0.224535	0.684972
C260	C	1.438693	0.025465	0.934972
C261	C	0.722103	-0.697189	0.218435
C262	C	0.972103	-0.447189	0.468435
C263	C	1.222103	-0.197189	0.718435
C264	C	1.472103	0.052811	0.968435
C265	C	0.722094	-0.642598	0.218415
C266	C	0.972094	-0.392598	0.468415
C267	C	1.222094	-0.142598	0.718415
C268	C	1.472094	0.107402	0.968415
N269	N	0.755498	-0.615249	0.251880
N270	N	1.005498	-0.365249	0.501880
N271	N	1.255498	-0.115249	0.751880
N272	N	1.505498	0.134751	1.001880
C273	C	0.788920	-0.642504	0.285353
C274	C	1.038920	-0.392504	0.535353
C275	C	1.288920	-0.142504	0.785353
C276	C	1.538920	0.107496	1.035353
C277	C	0.722193	-0.975673	0.218474
C278	C	0.972193	-0.725673	0.468474
C279	C	1.222193	-0.475673	0.718474
C280	C	1.472193	-0.225673	0.968474
C281	C	0.722213	-1.030276	0.218478
C282	C	0.972213	-0.780276	0.468478
C283	C	1.222213	-0.530276	0.718478
C284	C	1.472213	-0.280276	0.968478
C285	C	0.789041	-1.030181	0.285418
C286	C	1.039041	-0.780181	0.535418
C287	C	1.289041	-0.530181	0.785418
C288	C	1.539041	-0.280181	1.035418
C289	C	0.789024	-0.975578	0.285411
C290	C	1.039024	-0.725578	0.535411
C291	C	1.289024	-0.475578	0.785411
C292	C	1.539024	-0.225578	1.035411
C293	C	0.755597	-0.948324	0.251939
C294	C	1.005597	-0.698324	0.501939
C295	C	1.255597	-0.448324	0.751939
C296	C	1.505597	-0.198324	1.001939
C297	C	0.788887	-0.527838	0.285326
C298	C	1.038887	-0.277838	0.535326
C299	C	1.288887	-0.027838	0.785326
C300	C	1.538887	0.222162	1.035326
C301	C	0.788870	-0.473233	0.285310
C302	C	1.038870	-0.223233	0.535310
C303	C	1.288870	0.026767	0.785310
C304	C	1.538870	0.276767	1.035310
C305	C	0.722040	-0.473332	0.218372
C306	C	0.972040	-0.223332	0.468372
C307	C	1.222040	0.026668	0.718372
C308	C	1.472040	0.276668	0.968372
C309	C	0.722058	-0.527933	0.218386
C310	C	0.972058	-0.277933	0.468386
C311	C	1.222058	-0.027933	0.718386
C312	C	1.472058	0.222067	0.968386
C313	C	0.755483	-0.555185	0.251867
C314	C	1.005483	-0.305185	0.501867
C315	C	1.255483	-0.055185	0.751867
C316	C	1.505483	0.194815	1.001867
O317	O	0.693697	-0.614355	0.189951
O318	O	0.943697	-0.364355	0.439951
O319	O	1.193697	-0.114355	0.689951
O320	O	1.443697	0.135645	0.939951
O321	O	0.817322	-0.614221	0.313816
O322	O	1.067322	-0.364221	0.563816
O323	O	1.317322	-0.114221	0.813816
O324	O	1.567322	0.135779	1.063816
C325	C	0.891879	-0.252051	0.251895
C326	C	1.141879	-0.002051	0.501895
C327	C	1.391879	0.247949	0.751895
C328	C	1.641879	0.497949	1.001895
C329	C	0.949993	-0.252063	0.251903
C330	C	1.199993	-0.002063	0.501903
C331	C	1.449993	0.247937	0.751903
C332	C	1.699993	0.497937	1.001903
C333	C	0.755523	-0.252013	0.388251
C334	C	1.005523	-0.002013	0.638251
C335	C	1.255523	0.247987	0.888251
C336	C	1.505523	0.497987	1.138251
C337	C	0.755530	-0.252009	0.446365
C338	C	1.005530	-0.002009	0.696365
C339	C	1.255530	0.247991	0.946365
C340	C	1.505530	0.497991	1.196365
C341	C	0.755595	-0.115649	0.251931
C342	C	1.005595	0.134351	0.501931
C343	C	1.255595	0.384351	0.751931
C344	C	1.505595	0.634351	1.001931
C345	C	0.755632	-0.057535	0.251953
C346	C	1.005632	0.192465	0.501953
C347	C	1.255632	0.442465	0.751953
C348	C	1.505632	0.692465	1.001953
C349	C	0.755520	-0.251993	0.116036
C350	C	1.005520	-0.001993	0.366036
C351	C	1.255520	0.248007	0.616036
C352	C	1.505520	0.498007	0.866036
C353	C	0.755614	-0.251850	0.057922
C354	C	1.005614	-0.001850	0.307922
C355	C	1.255614	0.248150	0.557922
C356	C	1.505614	0.498150	0.807922
C357	C	0.789035	-0.218476	0.806751
C358	C	1.039035	0.031524	1.056751
C359	C	1.289035	0.281524	1.306751
C360	C	1.539035	0.531524	1.556751
C361	C	0.789041	-0.218462	0.861356
C362	C	1.039041	0.031538	1.111356
C363	C	1.289041	0.281538	1.361356
C364	C	1.539041	0.531538	1.611356
O365	O	0.817486	-0.190013	0.889612
O366	O	1.067486	0.059987	1.139612
O367	O	1.317486	0.309987	1.389612
O368	O	1.567486	0.559987	1.639612
N369	N	0.755588	-0.251886	0.888648
N370	N	1.005588	-0.001886	1.138648
N371	N	1.255588	0.248114	1.388648
N372	N	1.505588	0.498114	1.638648
C373	C	0.722122	-0.285324	0.861333
C374	C	0.972122	-0.035324	1.111333
C375	C	1.222122	0.214676	1.361333
C376	C	1.472122	0.464676	1.611333
O377	O	0.693668	-0.313752	0.889561
O378	O	0.943668	-0.063752	1.139561
O379	O	1.193668	0.186248	1.389561
O380	O	1.443668	0.436248	1.639561
C381	C	0.722114	-0.285335	0.806730
C382	C	0.972114	-0.035335	1.056730
C383	C	1.222114	0.214665	1.306730
C384	C	1.472114	0.464665	1.556730
C385	C	0.755573	-0.251912	0.779440
C386	C	1.005573	-0.001912	1.029440
C387	C	1.255573	0.248088	1.279440
C388	C	1.505573	0.498088	1.529440
C389	C	0.822491	-0.185056	0.779462
C390	C	1.072491	0.064944	1.029462
C391	C	1.322491	0.314944	1.279462
C392	C	1.572491	0.564944	1.529462
C393	C	0.822485	-0.185071	0.724861
C394	C	1.072485	0.064929	0.974861
C395	C	1.322485	0.314929	1.224861
C396	C	1.572485	0.564929	1.474861
C397	C	0.789023	-0.218507	0.697550
C398	C	1.039023	0.031493	0.947550
C399	C	1.289023	0.281493	1.197550
C400	C	1.539023	0.531493	1.447550
C401	C	0.755567	-0.251927	0.724840
C402	C	1.005567	-0.001927	0.974840
C403	C	1.255567	0.248073	1.224840
C404	C	1.505567	0.498073	1.474840
C405	C	0.688646	-0.318770	0.779416
C406	C	0.938646	-0.068770	1.029416
C407	C	1.188646	0.181230	1.279416
C408	C	1.438646	0.431230	1.529416
C409	C	0.688640	-0.318778	0.724809
C410	C	0.938640	-0.068778	0.974809
C411	C	1.188640	0.181222	1.224809
C412	C	1.438640	0.431222	1.474809
C413	C	0.722099	-0.285355	0.697519
C414	C	0.972099	-0.035355	0.947519
C415	C	1.222099	0.214645	1.197519
C416	C	1.472099	0.464645	1.447519
C417	C	0.722099	-0.285379	0.642928
C418	C	0.972099	-0.035379	0.892928
C419	C	1.222099	0.214621	1.142928
C420	C	1.472099	0.464621	1.392928
N421	N	0.755552	-0.251954	0.615636
N422	N	1.005552	-0.001954	0.865636
N423	N	1.255552	0.248046	1.115636
N424	N	1.505552	0.498046	1.365636
C425	C	0.789014	-0.218518	0.642947
C426	C	1.039014	0.031482	0.892947
C427	C	1.289014	0.281482	1.142947
C428	C	1.539014	0.531482	1.392947
C429	C	0.722143	-0.285296	0.976004
C430	C	0.972143	-0.035296	1.226004
C431	C	1.222143	0.214704	1.476004
C432	C	1.472143	0.464704	1.726004
C433	C	0.722154	-0.285288	1.030606
C434	C	0.972154	-0.035288	1.280606
C435	C	1.222154	0.214712	1.530606
C436	C	1.472154	0.464712	1.780606
C437	C	0.789072	-0.218425	1.030625
C438	C	1.039072	0.031575	1.280625
C439	C	1.289072	0.281575	1.530625
C440	C	1.539072	0.531575	1.780625
C441	C	0.789063	-0.218437	0.976022
C442	C	1.039063	0.031563	1.226022
C443	C	1.289063	0.281563	1.476022
C444	C	1.539063	0.531563	1.726022
C445	C	0.755596	-0.251872	0.948712
C446	C	1.005596	-0.001872	1.198712
C447	C	1.255596	0.248128	1.448712
C448	C	1.505596	0.498128	1.698712
C449	C	0.789000	-0.218553	0.528282
C450	C	1.039000	0.031447	0.778282
C451	C	1.289000	0.281447	1.028282
C452	C	1.539000	0.531447	1.278282
C453	C	0.788992	-0.218573	0.473676
C454	C	1.038992	0.031427	0.723676
C455	C	1.288992	0.281427	0.973676
C456	C	1.538992	0.531427	1.223676
C457	C	0.722072	-0.285434	0.473662
C458	C	0.972072	-0.035434	0.723662
C459	C	1.222072	0.214566	0.973662
C460	C	1.472072	0.464566	1.223662
C461	C	0.722081	-0.285416	0.528263
C462	C	0.972081	-0.035416	0.778263
C463	C	1.222081	0.214584	1.028263
C464	C	1.472081	0.464584	1.278263
C465	C	0.755547	-0.251971	0.555571
C466	C	1.005547	-0.001971	0.805571
C467	C	1.255547	0.248029	1.055571
C468	C	1.505547	0.498029	1.305571
O469	O	0.693668	-0.313812	0.614637
O470	O	0.943668	-0.063812	0.864637
O471	O	1.193668	0.186188	1.114637
O472	O	1.443668	0.436188	1.364637
O473	O	0.817459	-0.190090	0.614712
O474	O	1.067459	0.059910	0.864712
O475	O	1.317459	0.309910	1.114712
O476	O	1.567459	0.559910	1.364712
H477	H	0.054091	-0.312625	0.191112
H478	H	0.304091	-0.062625	0.441112
H479	H	0.554091	0.187375	0.691112
H480	H	0.804091	0.437375	0.941112
H481	H	0.816249	-0.191318	0.550510
H482	H	1.066249	0.058682	0.800510
H483	H	1.316249	0.308682	1.050510
H484	H	1.566249	0.558682	1.300510
H485	H	0.816308	-0.191220	0.953806
H486	H	1.066308	0.058780	1.203806
H487	H	1.316308	0.308780	1.453806
H488	H	1.566308	0.558780	1.703806
H489	H	0.816228	-0.953316	0.312660
H490	H	1.066228	-0.703316	0.562660
H491	H	1.316228	-0.453316	0.812660
H492	H	1.566228	-0.203316	1.062660
H493	H	0.849730	-0.157853	0.702647
H494	H	1.099730	0.092147	0.952647
H495	H	1.349730	0.342147	1.202647
H496	H	1.599730	0.592147	1.452647
H497	H	0.457454	-0.191426	0.312659
H498	H	0.707454	0.058574	0.562659
H499	H	0.957454	0.308574	0.812659
H500	H	1.207454	0.558574	1.062659
H501	H	0.305223	-0.346001	0.157609
H502	H	0.555223	-0.096001	0.407609
H503	H	0.805223	0.153999	0.657609
H504	H	1.055223	0.403999	0.907609
H505	H	0.695012	-1.052536	0.191223
H506	H	0.945012	-0.802536	0.441223
H507	H	1.195012	-0.552536	0.691223
H508	H	1.445012	-0.302536	0.941223
H509	H	0.556519	-0.191420	0.312649
H510	H	0.806519	0.058580	0.562649
H511	H	1.056519	0.308580	0.812649
H512	H	1.306519	0.558580	1.062649
H513	H	0.694974	-0.953486	0.191213
H514	H	0.944974	-0.703486	0.441213
H515	H	1.194974	-0.453486	0.691213
H516	H	1.444974	-0.203486	0.941213
H517	H	0.849740	-0.157825	0.801693
H518	H	1.099740	0.092175	1.051693
H519	H	1.349740	0.342175	1.301693
H520	H	1.599740	0.592175	1.551693
O521	O	0.685992	-0.321462	0.557700
O522	O	0.935992	-0.071462	0.807700
O523	O	1.185992	0.178538	1.057700
O524	O	1.435992	0.428538	1.307700
H525	H	0.709372	-0.348064	0.582579
H526	H	0.959372	-0.098064	0.832579
H527	H	1.209372	0.151936	1.082579
H528	H	1.459372	0.401936	1.332579
O529	O	0.450155	-0.321408	0.182235
O530	O	0.700155	-0.071408	0.432235
O531	O	0.950155	0.178592	0.682235
O532	O	1.200155	0.428592	0.932235
H533	H	0.425274	-0.297969	0.155685
H534	H	0.675274	-0.047969	0.405685
H535	H	0.925274	0.202031	0.655685
H536	H	1.175274	0.452031	0.905685
H537	H	0.816078	-0.450970	0.312560
H538	H	1.066078	-0.200970	0.562560
H539	H	1.316078	0.049030	0.812560
H540	H	1.566078	0.299030	1.062560
H541	H	0.661503	-0.801398	0.157726
H542	H	0.911503	-0.551398	0.407726
H543	H	1.161503	-0.301398	0.657726
H544	H	1.411503	-0.051398	0.907726
H545	H	0.816317	-0.191199	1.052871
H546	H	1.066317	0.058801	1.302871
H547	H	1.316317	0.308801	1.552871
H548	H	1.566317	0.558801	1.802871
H549	H	0.206306	-0.158072	0.346181
H550	H	0.456306	0.091928	0.596181
H551	H	0.706306	0.341928	0.846181
H552	H	0.956306	0.591928	1.096181
H553	H	-0.044976	-0.312633	0.191121
H554	H	0.205024	-0.062633	0.441121
H555	H	0.455024	0.187367	0.691121
H556	H	0.705024	0.437367	0.941121
H557	H	0.816254	-1.052382	0.312674
H558	H	1.066254	-0.802382	0.562674
H559	H	1.316254	-0.552382	0.812674
H560	H	1.566254	-0.302382	1.062674
H561	H	0.661471	-0.702348	0.157715
H562	H	0.911471	-0.452348	0.407715
H563	H	1.161471	-0.202348	0.657715
H564	H	1.411471	0.047652	0.907715
H565	H	0.661380	-0.346000	0.702576
H566	H	0.911380	-0.096000	0.952576
H567	H	1.161380	0.154000	1.202576
H568	H	1.411380	0.404000	1.452576
O569	O	0.824940	-0.557228	0.321433
O570	O	1.074940	-0.307228	0.571433
O571	O	1.324940	-0.057228	0.821433
O572	O	1.574940	0.192772	1.071433
H573	H	0.848168	-0.529032	0.344692
H574	H	1.098168	-0.279032	0.594692
H575	H	1.348168	-0.029032	0.844692
H576	H	1.598168	0.220968	1.094692
O577	O	0.652554	-0.354819	0.808838
O578	O	0.902554	-0.104819	1.058838
O579	O	1.152554	0.145181	1.308838
O580	O	1.402554	0.395181	1.558838
H581	H	0.658177	-0.349203	0.851398
H582	H	0.908177	-0.099203	1.101398
H583	H	1.158177	0.150797	1.351398
H584	H	1.408177	0.400797	1.601398
H585	H	0.694889	-0.312526	0.953771
H586	H	0.944889	-0.062526	1.203771
H587	H	1.194889	0.187474	1.453771
H588	H	1.444889	0.437474	1.703771
O589	O	-0.052108	-0.182662	0.321541
O590	O	0.197892	0.067338	0.571541
O591	O	0.447892	0.317338	0.821541
O592	O	0.697892	0.567338	1.071541
H593	H	-0.023932	-0.159448	0.344837
H594	H	0.226068	0.090552	0.594837
H595	H	0.476068	0.340552	0.844837
H596	H	0.726068	0.590552	1.094837
O597	O	0.061383	-0.182646	0.321538
O598	O	0.311383	0.067354	0.571538
O599	O	0.561383	0.317354	0.821538
O600	O	0.811383	0.567354	1.071538
H601	H	0.033234	-0.159430	0.344826
H602	H	0.283234	0.090570	0.594826
H603	H	0.533234	0.340570	0.844826
H604	H	0.783234	0.590570	1.094826
O605	O	0.312576	-0.149232	0.355022
O606	O	0.562576	0.100768	0.605022
O607	O	0.812576	0.350768	0.855022
O608	O	1.062576	0.600768	1.105022
H609	H	0.284426	-0.126018	0.378311
H610	H	0.534426	0.123982	0.628311
H611	H	0.784426	0.373982	0.878311
H612	H	1.034426	0.623982	1.128311
O613	O	0.686067	-0.321338	1.060039
O614	O	0.936067	-0.071338	1.310039
O615	O	1.186067	0.178662	1.560039
O616	O	1.436067	0.428662	1.810039
H617	H	0.662797	-0.344585	1.031868
H618	H	0.912797	-0.094585	1.281868
H619	H	1.162797	0.155415	1.531868
H620	H	1.412797	0.405415	1.781868
H621	H	0.556429	-0.312565	0.191077
H622	H	0.806429	-0.062565	0.441077
H623	H	1.056429	0.187435	0.691077
H624	H	1.306429	0.437435	0.941077
O625	O	0.686026	-0.557433	0.182294
O626	O	0.936026	-0.307433	0.432294
O627	O	1.186026	-0.057433	0.682294
O628	O	1.436026	0.192567	0.932294
H629	H	0.662782	-0.529305	0.159018
H630	H	0.912782	-0.279305	0.409018
H631	H	1.162782	-0.029305	0.659018
H632	H	1.412782	0.220695	0.909018
H633	H	0.694830	-0.312658	0.451416
H634	H	0.944830	-0.062658	0.701416
H635	H	1.194830	0.187342	0.951416
H636	H	1.444830	0.437342	1.201416
H637	H	0.206173	-0.346013	0.157623
H638	H	0.456173	-0.096013	0.407623
H639	H	0.706173	0.153987	0.657623
H640	H	0.956173	0.403987	0.907623
O641	O	0.858402	-0.694869	0.354918
O642	O	1.108402	-0.444869	0.604918
O643	O	1.358402	-0.194869	0.854918
O644	O	1.608402	0.055131	1.104918
H645	H	0.881642	-0.723002	0.378191
H646	H	1.131642	-0.473002	0.628191
H647	H	1.381642	-0.223002	0.878191
H648	H	1.631642	0.026998	1.128191
H649	H	0.694830	-0.451133	0.191117
H650	H	0.944830	-0.201133	0.441117
H651	H	1.194830	0.048867	0.691117
H652	H	1.444830	0.298867	0.941117
H653	H	0.849590	-0.801147	0.346105
H654	H	1.099590	-0.551147	0.596105
H655	H	1.349590	-0.301147	0.846105
H656	H	1.599590	-0.051147	1.096105
H657	H	0.816241	-0.191355	0.451460
H658	H	1.066241	0.058645	0.701460
H659	H	1.316241	0.308645	0.951460
H660	H	1.566241	0.558645	1.201460
