data_functionalizedCrystal
_audit_creation_method	'MofGen! by Chris Wilmer'
_symmetry_space_group_name_H-M	'P1'
_symmetry_Int_Tables_number	1
_symmetry_cell_setting	triclinic
loop_
_symmetry_equiv_pos_as_xyz
  x,y,z
_cell_length_a	18.101398
_cell_length_b	18.101389
_cell_length_c	13.897448
_cell_angle_alpha	90.016741
_cell_angle_beta	89.987041
_cell_angle_gamma	89.975673
loop_
_atom_site_label
_atom_site_type_symbol
_atom_site_fract_x
_atom_site_fract_y
_atom_site_fract_z
Zn1	Zn	1.132190	-0.418847	0.384238
Zn2	Zn	1.632190	0.081153	0.884238
Zn3	Zn	1.132115	-0.295009	0.545520
Zn4	Zn	1.632115	0.204991	1.045520
Zn5	Zn	1.008349	-0.295009	0.384228
Zn6	Zn	1.508349	0.204991	0.884228
Zn7	Zn	1.008329	-0.418798	0.545479
Zn8	Zn	1.508329	0.081202	1.045479
O9	O	1.070246	-0.356916	0.464866
O10	O	1.570246	0.143084	0.964866
O11	O	1.235813	-0.402441	0.405654
O12	O	1.735813	0.097559	0.905654
O13	O	1.115674	-0.191376	0.524138
O14	O	1.615674	0.308624	1.024138
O15	O	1.024817	-0.311456	0.249248
O16	O	1.524817	0.188544	0.749248
O17	O	1.235758	-0.311458	0.524147
O18	O	1.735758	0.188542	1.024147
O19	O	1.115802	-0.402440	0.249255
O20	O	1.615802	0.097560	0.749255
O21	O	1.024744	-0.191376	0.405637
O22	O	1.524744	0.308624	0.905637
O23	O	0.904713	-0.311408	0.405597
O24	O	1.404713	0.188592	0.905597
O25	O	1.024782	-0.522438	0.524077
O26	O	1.524782	-0.022438	1.024077
O27	O	0.904699	-0.402356	0.524067
O28	O	1.404699	0.097644	1.024067
O29	O	1.115783	-0.522474	0.405614
O30	O	1.615783	-0.022474	0.905614
O31	O	1.115654	-0.311410	0.680497
O32	O	1.615654	0.188590	1.180497
O33	O	1.024709	-0.402357	0.680466
O34	O	1.524709	0.097643	1.180466
C35	C	0.877835	-0.356877	0.464827
C36	C	1.377835	0.143123	0.964827
C37	C	0.795521	-0.356878	0.464834
C38	C	1.295521	0.143122	0.964834
C39	C	1.070288	-0.550078	0.464842
C40	C	1.570288	-0.050078	0.964842
C41	C	1.070307	-0.632392	0.464832
C42	C	1.570307	-0.132392	0.964832
C43	C	0.496430	-0.356940	0.464894
C44	C	0.996430	0.143060	0.964894
C45	C	0.527740	-0.299998	0.389983
C46	C	1.027740	0.200002	0.889983
C47	C	0.613358	-0.299755	0.390184
C48	C	1.113358	0.200245	0.890184
C49	C	0.644813	-0.356910	0.464863
C50	C	1.144813	0.143090	0.964863
C51	C	0.613713	-0.335587	0.566468
C52	C	1.113713	0.164413	1.066468
C53	C	0.528068	-0.335191	0.566052
C54	C	1.028068	0.164809	1.066052
C55	C	0.528040	-0.435339	0.439083
C56	C	1.028040	0.064661	0.939083
C57	C	0.613690	-0.434911	0.436820
C58	C	1.113690	0.065089	0.936820
C59	C	0.728672	-0.356893	0.464852
C60	C	1.228672	0.143107	0.964852
C61	C	0.412571	-0.356955	0.464912
C62	C	0.912571	0.143045	0.964912
C63	C	1.070350	-0.931483	0.464651
C64	C	1.570350	-0.431483	0.964651
C65	C	1.012898	-0.900135	0.538948
C66	C	1.512898	-0.400135	1.038948
C67	C	1.013053	-0.814517	0.539292
C68	C	1.513053	-0.314517	1.039292
C69	C	1.070328	-0.783101	0.464741
C70	C	1.570328	-0.283101	0.964741
C71	C	1.148358	-0.814207	0.492341
C72	C	1.648358	-0.314207	0.992341
C73	C	1.148038	-0.899852	0.492829
C74	C	1.648038	-0.399852	0.992829
C75	C	1.050450	-0.899905	0.362588
C76	C	1.550450	-0.399905	0.862588
C77	C	1.048714	-0.814254	0.363178
C78	C	1.548714	-0.314254	0.863178
C79	C	1.070320	-0.699241	0.464790
C80	C	1.570320	-0.199241	0.964790
C81	C	1.070363	-1.015343	0.464604
C82	C	1.570363	-0.515343	0.964604
C83	C	1.263408	-0.356955	0.464906
C84	C	1.763408	0.143045	0.964906
C85	C	1.345722	-0.356972	0.464923
C86	C	1.845722	0.143028	0.964923
C87	C	1.070192	-0.356894	0.715481
C88	C	1.570192	0.143106	1.215481
C89	C	1.070236	-0.356910	0.822695
C90	C	1.570236	0.143090	1.322695
C91	C	1.070246	-0.164505	0.464821
C92	C	1.570246	0.335495	0.964821
C93	C	1.070371	-0.082192	0.464560
C94	C	1.570371	0.417808	0.964560
C95	C	1.070320	-0.356954	0.213273
C96	C	1.570320	0.143046	0.713273
C97	C	1.070352	-0.356970	0.106059
C98	C	1.570352	0.143030	0.606059
C99	C	1.070314	-0.356956	1.018990
C100	C	1.570314	0.143044	1.518990
C101	C	1.070269	-0.356933	0.909757
C102	C	1.570269	0.143067	1.409757
H103	H	0.634385	-0.313120	0.314839
H104	H	1.134385	0.186880	0.814839
H105	H	0.507793	-0.477767	0.493646
H106	H	1.007793	0.022233	0.993646
H107	H	0.954861	-0.920721	0.521852
H108	H	1.454861	-0.420721	1.021852
O109	O	0.500623	-0.387735	0.642477
O110	O	1.000623	0.112265	1.142477
H111	H	0.548525	-0.413309	0.679576
H112	H	1.048525	0.086691	1.179576
O113	O	0.640698	-0.388798	0.642392
O114	O	1.140698	0.111202	1.142392
H115	H	0.676652	-0.431104	0.608432
H116	H	1.176652	0.068896	1.108432
O117	O	0.642050	-0.494115	0.503844
O118	O	1.142050	0.005885	1.003844
H119	H	0.673329	-0.535897	0.461876
H120	H	1.173329	-0.035897	0.961876
O121	O	1.030457	-0.787328	0.639476
O122	O	1.530457	-0.287328	1.139476
H123	H	0.983800	-0.753280	0.666361
H124	H	1.483800	-0.253280	1.166361
H125	H	0.634021	-0.450989	0.362050
H126	H	1.134021	0.049011	0.862050
H127	H	1.192296	-0.920591	0.441064
H128	H	1.692296	-0.420591	0.941064
H129	H	0.506194	-0.242243	0.406852
H130	H	1.006194	0.257757	0.906852
O131	O	1.206594	-0.787248	0.422933
O132	O	1.706594	-0.287248	0.922933
H133	H	1.180477	-0.751304	0.367898
H134	H	1.680477	-0.251304	0.867898
H135	H	0.635131	-0.278893	0.588739
H136	H	1.135131	0.221107	1.088739
O137	O	0.640446	-0.222798	0.412773
O138	O	1.140446	0.277202	0.912773
H139	H	0.674360	-0.224139	0.479279
H140	H	1.174360	0.275861	0.979279
O141	O	0.936408	-0.786661	0.516399
O142	O	1.436408	-0.286661	1.016399
H143	H	0.915805	-0.752706	0.577275
H144	H	1.415805	-0.252706	1.077275
H145	H	1.164906	-0.919837	0.567438
H146	H	1.664906	-0.419837	1.067438
O147	O	0.500429	-0.317460	0.289881
O148	O	1.000429	0.182540	0.789881
H149	H	0.464249	-0.366913	0.292445
H150	H	0.964249	0.133087	0.792445
O151	O	1.100102	-0.785936	0.285959
O152	O	1.600102	-0.285936	0.785959
H153	H	1.157500	-0.803356	0.302554
H154	H	1.657500	-0.303356	0.802554
O155	O	0.501560	-0.259271	0.595031
O156	O	1.001560	0.240729	1.095031
H157	H	0.467417	-0.263621	0.661136
H158	H	0.967417	0.236379	1.161136
O159	O	1.171093	-0.785818	0.590123
O160	O	1.671093	-0.285818	1.090123
H161	H	1.126948	-0.749564	0.619220
H162	H	1.626948	-0.249564	1.119220
H163	H	0.994538	-0.921490	0.337443
H164	H	1.494538	-0.421490	0.837443
O165	O	0.499461	-0.461022	0.342646
O166	O	0.999461	0.038978	0.842646
H167	H	0.438254	-0.464233	0.344972
H168	H	0.938254	0.035767	0.844972
H169	H	1.025907	-0.921662	0.614138
H170	H	1.525907	-0.421662	1.114138
O171	O	0.972658	-0.787313	0.335585
O172	O	1.472658	-0.287313	0.835585
H173	H	0.950337	-0.751879	0.393954
H174	H	1.450337	-0.251879	0.893954
H175	H	1.092295	-0.920180	0.307233
H176	H	1.592295	-0.420180	0.807233
