data_functionalizedCrystal
_audit_creation_method	'MofGen! by Chris Wilmer'
_symmetry_space_group_name_H-M	'P1'
_symmetry_Int_Tables_number	1
_symmetry_cell_setting	triclinic
loop_
_symmetry_equiv_pos_as_xyz
  x,y,z
_cell_length_a	15.944551
_cell_length_b	14.044220
_cell_length_c	13.101039
_cell_angle_alpha	86.332523
_cell_angle_beta	93.353409
_cell_angle_gamma	88.343808
loop_
_atom_site_label
_atom_site_type_symbol
_atom_site_fract_x
_atom_site_fract_y
_atom_site_fract_z
O1	O	-1.127901	-0.117026	-0.085109
O2	O	-0.627901	0.382974	0.414891
O3	O	-0.884482	-0.132096	-0.085135
O4	O	-0.384482	0.367904	0.414865
O5	O	-1.002537	0.013423	-0.085112
O6	O	-0.502537	0.513423	0.414888
O7	O	-1.009846	-0.262545	-0.085132
O8	O	-0.509846	0.237455	0.414868
O9	O	-0.994068	0.002965	0.085316
O10	O	-0.494068	0.502965	0.585316
O11	O	-0.876013	-0.142555	0.085293
O12	O	-0.376013	0.357445	0.585293
O13	O	-1.119432	-0.127484	0.085319
O14	O	-0.619432	0.372516	0.585319
Zn15	Zn	-0.996378	-0.136680	0.112365
Zn16	Zn	-0.496378	0.363320	0.612365
Zn17	Zn	-1.007536	-0.122901	-0.112181
Zn18	Zn	-0.507536	0.377099	0.387819
O19	O	-1.001377	-0.273003	0.085296
O20	O	-0.501377	0.226997	0.585296
C21	C	-0.995104	0.043509	0.000102
C22	C	-0.495104	0.543509	0.500102
C23	C	-0.985563	0.148735	0.000102
C24	C	-0.485563	0.648735	0.500102
C25	C	-0.848906	-0.136700	0.000076
C26	C	-0.348906	0.363300	0.500076
C27	C	-0.755520	-0.134823	0.000066
C28	C	-0.255520	0.365177	0.500066
C29	C	-1.155008	-0.122881	0.000106
C30	C	-0.655008	0.377119	0.500106
C31	C	-1.248394	-0.124757	0.000109
C32	C	-0.748394	0.375243	0.500109
C33	C	-0.533573	-0.040140	0.000093
C34	C	-0.033573	0.459860	0.500093
C35	C	-0.480021	-0.078952	-0.083940
C36	C	0.019979	0.421048	0.416060
C37	C	-0.584540	-0.131430	0.000079
C38	C	-0.084540	0.368570	0.500079
C39	C	-0.471695	-0.089285	0.084089
C40	C	0.028305	0.410715	0.584089
C41	C	-0.419380	-0.128147	0.000095
C42	C	0.080620	0.371853	0.500095
C43	C	-0.532221	-0.170263	-0.084024
C44	C	-0.032221	0.329737	0.415976
C45	C	-0.523897	-0.180587	0.084080
C46	C	-0.023897	0.319413	0.584080
C47	C	-0.470369	-0.219464	0.000027
C48	C	0.029631	0.280536	0.500027
C49	C	-0.679684	-0.133319	0.000068
C50	C	-0.179684	0.366681	0.500068
C51	C	-0.324238	-0.126264	0.000098
C52	C	0.175762	0.373736	0.500098
C53	C	-1.008810	-0.303089	0.000080
C54	C	-0.508810	0.196911	0.500080
C55	C	-1.018352	-0.408315	0.000073
C56	C	-0.518352	0.091685	0.500073
N57	N	-0.988769	-0.146083	0.265612
N58	N	-0.488769	0.353917	0.765612
C59	C	-0.968120	0.341399	0.000085
C60	C	-0.468120	0.841399	0.500085
C61	C	-1.035791	0.399027	0.000090
C62	C	-0.535791	0.899027	0.500090
C63	C	-1.026085	0.506232	0.000080
C64	C	-0.526085	1.006232	0.500080
C65	C	-0.977824	0.234184	0.000095
C66	C	-0.477824	0.734184	0.500095
N67	N	-1.015152	-0.113490	-0.265428
N68	N	-0.515152	0.386510	0.234572
C69	C	-0.978417	-0.158885	0.474653
C70	C	-0.478417	0.341115	0.974653
C71	C	-1.025501	-0.100691	0.525538
C72	C	-0.525501	0.399309	1.025538
C73	C	-1.019741	-0.107814	0.641855
C74	C	-0.519741	0.392186	1.141855
C75	C	-0.984176	-0.151763	0.358325
C76	C	-0.484176	0.348237	0.858325
H77	H	-0.460550	-0.035980	-0.154979
H78	H	0.039450	0.464020	0.345021
C79	C	-0.880013	0.383503	0.000074
C80	C	-0.380013	0.883503	0.500074
H81	H	-0.838827	0.333250	0.000067
H82	H	-0.338827	0.833250	0.500067
H83	H	-0.870473	0.417979	0.059502
H84	H	-0.370473	0.917979	0.559502
H85	H	-0.876379	0.425255	-0.059370
H86	H	-0.376379	0.925255	0.440630
C87	C	-0.550235	-0.238597	0.180046
C88	C	-0.050235	0.261403	0.680046
H89	H	-0.581808	-0.291316	0.159860
H90	H	-0.081808	0.208684	0.659860
H91	H	-0.583654	-0.199074	0.218929
H92	H	-0.083654	0.300926	0.718929
H93	H	-0.501485	-0.261203	0.220551
H94	H	-0.001485	0.238797	0.720551
C95	C	-0.567892	-0.216510	-0.180091
C96	C	-0.067892	0.283490	0.319909
H97	H	-0.627419	-0.217394	-0.179523
H98	H	-0.127419	0.282606	0.320477
H99	H	-0.545721	-0.280003	-0.180312
H100	H	-0.045721	0.219997	0.319688
H101	H	-0.552552	-0.180653	-0.239703
H102	H	-0.052552	0.319347	0.260297
C103	C	-0.918102	-0.233395	0.533802
C104	C	-0.418102	0.266605	1.033802
H105	H	-0.889305	-0.268964	0.486582
H106	H	-0.389305	0.231036	0.986582
H107	H	-0.949278	-0.275335	0.575667
H108	H	-0.449278	0.224665	1.075667
H109	H	-0.878494	-0.201838	0.575645
H110	H	-0.378494	0.298162	1.075645
H111	H	-0.561238	0.035630	-0.000006
H112	H	-0.061238	0.535630	0.499994
H113	H	-0.445186	-0.055015	0.155130
H114	H	0.054814	0.444985	0.655130
H115	H	-1.101018	0.367856	0.000028
H116	H	-0.601018	0.867856	0.500028
C117	C	-0.433240	-0.321909	-0.000042
C118	C	0.066760	0.178091	0.499958
H119	H	-0.454136	-0.350515	-0.059790
H120	H	0.045864	0.149485	0.440210
H121	H	-0.448975	-0.358206	0.059081
H122	H	0.051025	0.141794	0.559081
H123	H	-0.373696	-0.320204	0.000517
H124	H	0.126304	0.179796	0.500517
H125	H	-1.070137	-0.045520	0.481744
H126	H	-0.570137	0.454480	0.981744
