data_functionalizedCrystal
_audit_creation_method	'MofGen! by Chris Wilmer'
_symmetry_space_group_name_H-M	'P1'
_symmetry_Int_Tables_number	1
_symmetry_cell_setting	triclinic
loop_
_symmetry_equiv_pos_as_xyz
  x,y,z
_cell_length_a	15.298068
_cell_length_b	15.297327
_cell_length_c	12.759401
_cell_angle_alpha	80.337164
_cell_angle_beta	99.701840
_cell_angle_gamma	110.796215
loop_
_atom_site_label
_atom_site_type_symbol
_atom_site_fract_x
_atom_site_fract_y
_atom_site_fract_z
Zn1	Zn	1.357607	-0.124747	0.893292
Zn2	Zn	1.330601	-0.280249	0.743473
Zn3	Zn	1.202110	-0.151601	0.691634
Zn4	Zn	1.175116	-0.307110	0.893120
O5	O	1.266359	-0.215927	0.805380
O6	O	1.484172	-0.122895	0.895185
O7	O	1.313552	-0.263181	0.589574
O8	O	1.245336	-0.017880	0.696762
O9	O	1.464331	-0.237142	0.785113
O10	O	1.359580	0.001850	0.844919
O11	O	1.219150	-0.168664	0.551488
O12	O	1.068382	-0.194710	0.696596
O13	O	1.199328	-0.282921	1.040166
O14	O	1.048549	-0.308961	0.844626
O15	O	1.333404	-0.148940	1.040292
O16	O	1.287376	-0.413971	0.784946
O17	O	1.173142	-0.433706	0.894892
C18	C	1.024719	-0.257665	0.764968
C19	C	0.921341	-0.275543	0.747708
C20	C	0.671195	-0.088382	0.928779
C21	C	0.768323	-0.071587	0.945002
C22	C	0.806583	-0.122574	0.895680
C23	C	0.747704	-0.190360	0.830132
C24	C	0.650565	-0.207162	0.813914
C25	C	0.785953	-0.241354	0.780815
C26	C	0.727074	-0.309140	0.715268
C27	C	0.629945	-0.325938	0.699052
C28	C	0.591685	-0.274950	0.748374
C29	C	0.883092	-0.224552	0.797033
C30	C	0.862462	-0.343332	0.682168
C31	C	0.765333	-0.360127	0.665945
C32	C	1.224424	-0.457583	0.845553
C33	C	1.206570	-0.560950	0.862788
C34	C	1.394351	-0.811065	0.682617
C35	C	1.411125	-0.713946	0.666418
C36	C	1.359988	-0.675692	0.715510
C37	C	1.292073	-0.734566	0.780802
C38	C	1.275291	-0.831695	0.796996
C39	C	1.240929	-0.696323	0.829889
C40	C	1.173014	-0.755197	0.895181
C41	C	1.156236	-0.852315	0.911373
C42	C	1.207373	-0.890569	0.862282
C43	C	1.257711	-0.599194	0.813695
C44	C	1.138651	-0.619824	0.928074
C45	C	1.121877	-0.716943	0.944273
C46	C	1.508941	-0.174026	0.845950
C47	C	1.612315	-0.156171	0.863239
C48	C	1.266368	-0.215931	1.079416
C49	C	1.266372	-0.215933	1.196194
C50	C	1.308482	0.026677	0.765077
C51	C	1.326432	0.130061	0.747903
C52	C	1.336176	-0.146180	1.251123
C53	C	1.336168	-0.146180	1.360846
C54	C	1.196548	-0.285694	1.360700
C55	C	1.196553	-0.285690	1.250978
C56	C	1.266345	-0.215943	1.532413
C57	C	1.266359	-0.215937	1.415638
H58	H	0.582006	-0.381140	0.645688
H59	H	0.512595	-0.288627	0.735177
O60	O	1.121251	-0.360929	1.419797
H61	H	1.072706	-0.409426	1.363162
H62	H	0.717381	-0.415319	0.612577
H63	H	1.139703	-0.342491	1.206252
O64	O	1.083477	-0.578584	0.981018
H65	H	1.096144	-0.594447	1.069250
H66	H	0.640033	-0.046881	0.968937
H67	H	0.893611	-0.384854	0.642012
H68	H	0.931022	-0.169360	0.850401
O69	O	1.484371	-0.650454	0.595998
H70	H	1.487442	-0.576494	0.592974
H71	H	1.313008	-0.551267	0.760532
H72	H	1.393009	-0.089379	1.405564
O73	O	0.911345	-0.104448	0.913150
H74	H	0.945862	-0.048737	0.967001
O75	O	0.831822	0.001533	1.015679
H76	H	0.810407	-0.017748	1.097666
O77	O	1.378085	-0.570942	0.698054
H78	H	1.433908	-0.536429	0.644415
H79	H	1.435974	-0.842222	0.642647
H80	H	1.193721	-0.969650	0.875470
H81	H	1.100924	-0.900251	0.964525
H82	H	1.066579	-0.764891	0.997434
H83	H	1.393025	-0.089378	1.206520
