data_functionalizedCrystal
_audit_creation_method	'MofGen! by Chris Wilmer'
_symmetry_space_group_name_H-M	'P1'
_symmetry_Int_Tables_number	1
_symmetry_cell_setting	triclinic
loop_
_symmetry_equiv_pos_as_xyz
  x,y,z
_cell_length_a	23.532407
_cell_length_b	23.532355
_cell_length_c	16.776229
_cell_angle_alpha	89.998710
_cell_angle_beta	89.993145
_cell_angle_gamma	97.161913
loop_
_atom_site_label
_atom_site_type_symbol
_atom_site_fract_x
_atom_site_fract_y
_atom_site_fract_z
O1	O	-0.068990	0.755281	-0.066167
O2	O	-0.079025	0.589414	-0.066191
O3	O	0.008925	0.677349	-0.066188
O4	O	-0.156940	0.667346	-0.066170
O5	O	0.008920	0.677336	0.066388
O6	O	-0.079029	0.589401	0.066386
O7	O	-0.068995	0.755269	0.066409
Zn8	Zn	-0.074013	0.672333	0.087447
Zn9	Zn	-0.074007	0.672350	-0.087228
O10	O	-0.156945	0.667333	0.066407
C11	C	-0.078776	0.568191	0.000094
C12	C	-0.078022	0.504972	0.000085
C13	C	-0.073286	0.112951	0.072385
C14	C	-0.072569	0.053552	0.072388
O15	O	-0.072181	0.022827	0.133848
N16	N	-0.072211	0.023850	0.000121
C17	C	-0.072564	0.053552	-0.072154
O18	O	-0.072193	0.022834	-0.133623
C19	C	-0.073277	0.112951	-0.072156
C20	C	-0.073641	0.142649	0.000115
C21	C	-0.073650	0.142649	0.144651
C22	C	-0.074368	0.202044	0.144648
C23	C	-0.074723	0.231742	0.072378
C24	C	-0.074360	0.202044	0.000112
C25	C	-0.073627	0.142652	-0.144431
C26	C	-0.074340	0.202055	-0.144427
C27	C	-0.074704	0.231753	-0.072155
C28	C	-0.075433	0.291136	-0.072161
N29	N	-0.075792	0.320838	0.000107
C30	C	-0.075437	0.291141	0.072376
C31	C	-0.071065	-0.071189	-0.072144
C32	C	-0.070356	-0.130588	-0.072143
C33	C	-0.070360	-0.130584	0.072400
C34	C	-0.071073	-0.071185	0.072397
C35	C	-0.071423	-0.041488	0.000123
C36	C	-0.076946	0.415875	0.072364
C37	C	-0.077667	0.475275	0.072354
C38	C	-0.077660	0.475266	-0.072188
C39	C	-0.076942	0.415871	-0.072179
C40	C	-0.076583	0.386177	0.000104
O41	O	-0.075820	0.321899	-0.133589
O42	O	-0.075800	0.321866	0.133834
C43	C	-0.178158	0.667594	0.000121
C44	C	-0.241375	0.668360	0.000129
C45	C	-0.640487	0.621125	0.000081
C46	C	-0.699887	0.621837	0.000076
O47	O	-0.736640	0.578050	0.000040
N48	N	-0.722504	0.674114	0.000084
C49	C	-0.685717	0.725684	0.000090
O50	O	-0.710408	0.770216	0.000096
C51	C	-0.626318	0.724972	0.000090
C52	C	-0.603705	0.672691	0.000090
C53	C	-0.617874	0.568849	0.000080
C54	C	-0.558478	0.568137	0.000087
C55	C	-0.521695	0.619703	0.000095
C56	C	-0.544309	0.671980	0.000097
C57	C	-0.589532	0.776541	0.000090
C58	C	-0.530129	0.775824	0.000089
C59	C	-0.507516	0.723543	0.000089
C60	C	-0.448130	0.722834	0.000112
N61	N	-0.425514	0.670556	0.000103
C62	C	-0.462296	0.618991	0.000095
C63	C	-0.810459	0.727175	0.000089
C64	C	-0.869857	0.727888	0.000095
C65	C	-0.884023	0.624041	0.000079
C66	C	-0.824624	0.623329	0.000079
C67	C	-0.787842	0.674898	0.000081
C68	C	-0.337560	0.617501	0.000110
C69	C	-0.278158	0.616794	0.000121
C70	C	-0.263996	0.720642	0.000132
C71	C	-0.323393	0.721349	0.000126
C72	C	-0.360174	0.669774	0.000112
O73	O	-0.411343	0.766598	0.000144
O74	O	-0.437597	0.574467	0.000079
C75	C	0.030139	0.677088	0.000096
C76	C	0.093356	0.676322	0.000083
C77	C	-0.069244	0.776491	0.000123
C78	C	-0.069998	0.839710	0.000127
N79	N	-0.074017	0.672325	0.206658
N80	N	-0.073998	0.672361	-0.206440
C81	C	-0.035068	0.711304	0.751824
C82	C	-0.035072	0.711301	0.668372
C83	C	-0.074004	0.672353	0.626658
C84	C	-0.112938	0.633408	0.668400
C85	C	-0.112937	0.633414	0.751851
C86	C	-0.112947	0.633384	0.331853
C87	C	-0.112945	0.633380	0.248396
C88	C	-0.035083	0.711271	0.248374
C89	C	-0.035081	0.711277	0.331825
C90	C	-0.074017	0.672335	0.373560
C91	C	-0.074013	0.672339	0.464048
C92	C	-0.074006	0.672345	0.536171
H93	H	-0.071356	-0.047014	-0.131002
C94	C	-0.155770	0.590547	0.377755
H95	H	-0.150200	0.596130	0.433429
H96	H	-0.149784	0.552573	0.364082
H97	H	-0.193749	0.596517	0.364081
H98	H	-0.607932	0.819114	0.000090
C99	C	-0.078046	0.507941	-0.151678
H100	H	-0.078518	0.547570	-0.141323
H101	H	-0.111139	0.493677	-0.181380
H102	H	-0.044704	0.502743	-0.181367
H103	H	-0.259750	0.574219	0.000124
H104	H	-0.341805	0.763920	0.000138
H105	H	-0.070070	-0.154774	0.131245
H106	H	-0.073330	0.118483	-0.203282
C107	C	0.007744	0.754118	0.377710
H108	H	0.002172	0.748540	0.433388
H109	H	0.001760	0.792090	0.364030
H110	H	0.045723	0.748145	0.364028
C111	C	-0.074730	0.234718	-0.223931
H112	H	-0.074415	0.208520	-0.266967
H113	H	-0.041795	0.262426	-0.226943
H114	H	-0.108231	0.253350	-0.226934
C115	C	-0.076560	0.383199	-0.151675
H116	H	-0.076877	0.409395	-0.194716
H117	H	-0.109497	0.355493	-0.154665
H118	H	-0.043062	0.364564	-0.154694
H119	H	-0.367500	0.575504	0.000099
H120	H	-0.806217	0.580757	0.000082
H121	H	-0.540072	0.525565	0.000080
C122	C	-0.073264	0.109990	0.224154
H123	H	-0.073587	0.136192	0.267186
H124	H	-0.039773	0.091349	0.227171
H125	H	-0.106209	0.082289	0.227163
C126	C	-0.071459	-0.038521	0.151895
H127	H	-0.071140	-0.064719	0.194933
H128	H	-0.104949	-0.019876	0.154915
H129	H	-0.038513	-0.010821	0.154890
C130	C	-0.155761	0.590564	0.622517
H131	H	-0.150183	0.596133	0.566838
H132	H	-0.193740	0.596530	0.636196
H133	H	-0.149770	0.552591	0.636201
C134	C	0.007738	0.754116	0.202463
H135	H	0.002158	0.748542	0.146789
H136	H	0.045718	0.748152	0.216130
H137	H	0.001746	0.792090	0.216141
H138	H	-0.077965	0.499452	0.131209
H139	H	-0.144638	0.601704	0.785832
C140	C	-0.658326	0.512121	0.000077
H141	H	-0.636342	0.480890	0.000083
H142	H	-0.681792	0.510235	-0.046152
H143	H	-0.681793	0.510236	0.046319
C144	C	-0.924492	0.567319	0.000057
H145	H	-0.963105	0.575235	0.000047
H146	H	-0.917680	0.545857	0.046283
H147	H	-0.917662	0.545878	-0.046188
C148	C	-0.894724	0.785397	0.000103
H149	H	-0.864306	0.816003	0.000104
H150	H	-0.917609	0.787833	0.046332
H151	H	-0.917592	0.787839	-0.046138
H152	H	-0.234038	0.762625	0.000143
H153	H	-0.144650	0.601662	0.214434
C154	C	0.007757	0.754146	0.797706
H155	H	0.002188	0.748569	0.853385
H156	H	0.001773	0.792118	0.784025
H157	H	0.045736	0.748172	0.784022
H158	H	-0.074661	0.226219	0.203499
C159	C	-0.076557	0.383219	0.151872
H160	H	-0.076882	0.409419	0.194905
H161	H	-0.043063	0.364581	0.154886
H162	H	-0.109499	0.355514	0.154881
C163	C	-0.770003	0.783905	0.000106
H164	H	-0.791984	0.815138	0.000119
H165	H	-0.746530	0.785798	-0.046123
H166	H	-0.746545	0.785782	0.046347
H167	H	-0.500183	0.817819	0.000086
H168	H	-0.003373	0.743011	0.634390
H169	H	-0.070068	-0.154764	-0.130994
