data_functionalizedCrystal
_audit_creation_method	'MofGen! by Chris Wilmer'
_symmetry_space_group_name_H-M	'P1'
_symmetry_Int_Tables_number	1
_symmetry_cell_setting	triclinic
loop_
_symmetry_equiv_pos_as_xyz
  x,y,z
_cell_length_a	15.995363
_cell_length_b	14.472310
_cell_length_c	11.026607
_cell_angle_alpha	90.003014
_cell_angle_beta	96.041706
_cell_angle_gamma	89.990121
loop_
_atom_site_label
_atom_site_type_symbol
_atom_site_fract_x
_atom_site_fract_y
_atom_site_fract_z
O1	O	-1.134576	0.076769	-0.156483
O2	O	-0.634576	0.576769	0.343517
O3	O	-0.893711	0.076786	-0.175784
O4	O	-0.393711	0.576786	0.324216
O5	O	-0.994181	0.076775	0.010521
O6	O	-0.494181	0.576775	0.510521
O7	O	-1.034106	0.076779	-0.342788
O8	O	-0.534106	0.576779	0.157212
O9	O	-0.994150	-0.076907	0.010510
O10	O	-0.494150	0.423093	0.510510
O11	O	-0.893680	-0.076896	-0.175795
O12	O	-0.393680	0.423104	0.324205
O13	O	-1.134545	-0.076913	-0.156494
O14	O	-0.634545	0.423087	0.343506
Cu15	Cu	-1.014109	-0.090937	-0.166145
Cu16	Cu	-0.514109	0.409063	0.333855
Cu17	Cu	-1.014147	0.090810	-0.166133
Cu18	Cu	-0.514147	0.590810	0.333867
O19	O	-1.034075	-0.076903	-0.342799
O20	O	-0.534075	0.423097	0.157201
C21	C	-0.862380	-0.000053	-0.174989
C22	C	-0.362380	0.499947	0.325011
C23	C	-0.769069	-0.000047	-0.172589
C24	C	-0.269069	0.499953	0.327411
C25	C	-0.430024	-0.000070	-0.163969
C26	C	0.069976	0.499930	0.336031
C27	C	-0.457459	-0.000414	-0.031284
C28	C	0.042541	0.499586	0.468716
C29	C	-0.554510	-0.000060	-0.033685
C30	C	-0.054510	0.499940	0.466315
C31	C	-0.598228	-0.000059	-0.168245
C32	C	-0.098228	0.499941	0.331755
C33	C	-0.567023	0.087698	-0.233682
C34	C	-0.067023	0.587698	0.266318
C35	C	-0.469885	0.087764	-0.230343
C36	C	0.030115	0.587764	0.269657
C37	C	-0.469923	-0.087001	-0.233097
C38	C	0.030077	0.412999	0.266903
C39	C	-0.566864	-0.088154	-0.233071
C40	C	-0.066864	0.411846	0.266929
C41	C	-0.693290	-0.000050	-0.170668
C42	C	-0.193290	0.499950	0.329332
C43	C	-0.334962	-0.000073	-0.161550
C44	C	0.165038	0.499927	0.338450
N45	N	-1.014089	-0.218768	-0.166154
N46	N	-0.514089	0.281232	0.333846
C47	C	-1.014145	-0.592859	-0.166128
C48	C	-0.514145	-0.092859	0.333872
C49	C	-0.960104	-0.553688	-0.265481
C50	C	-0.460104	-0.053688	0.234519
C51	C	-0.960318	-0.446600	-0.265844
C52	C	-0.460318	0.053400	0.234156
C53	C	-1.014117	-0.407268	-0.166141
C54	C	-0.514117	0.092732	0.333859
C55	C	-1.105650	-0.446111	-0.193802
C56	C	-0.605650	0.053889	0.306198
C57	C	-1.105369	-0.553232	-0.194508
C58	C	-0.605369	-0.053232	0.305492
C59	C	-0.977387	-0.553388	-0.038818
C60	C	-0.477387	-0.053388	0.461182
C61	C	-0.975511	-0.446261	-0.039667
C62	C	-0.475511	0.053739	0.460333
C63	C	-1.014106	-0.302380	-0.166145
C64	C	-0.514106	0.197620	0.333855
C65	C	-1.014162	-0.697747	-0.166125
C66	C	-0.514162	-0.197747	0.333875
C67	C	-0.165875	-0.000074	-0.157273
C68	C	0.334125	0.499926	0.342727
C69	C	-0.259183	-0.000082	-0.159625
C70	C	0.240817	0.499918	0.340375
C71	C	-0.986800	-0.000064	0.055727
C72	C	-0.486800	0.499936	0.555727
C73	C	-0.964843	-0.000059	0.190442
C74	C	-0.464843	0.499941	0.690442
N75	N	-1.014172	0.218641	-0.166115
N76	N	-0.514172	0.718641	0.333885
C77	C	-1.041456	-0.000061	-0.388005
C78	C	-0.541456	0.499939	0.111995
C79	C	-1.063413	-0.000060	-0.522720
C80	C	-0.563413	0.499940	-0.022720
C81	C	-1.025470	-0.000062	0.264244
C82	C	-0.525470	0.499938	0.764244
C83	C	-1.002778	-0.000057	0.403480
C84	C	-0.502778	0.499943	0.903480
H85	H	-0.575172	-0.062968	0.017754
H86	H	-0.075172	0.437032	0.517754
H87	H	-0.444396	0.153364	-0.182611
H88	H	0.055604	0.653364	0.317389
H89	H	-0.934069	-0.000046	0.443370
H90	H	-0.434069	0.499954	0.943370
H91	H	-0.911056	-0.580452	-0.012221
H92	H	-0.411056	-0.080452	0.487779
H93	H	-0.429920	0.062172	0.021516
H94	H	0.070080	0.562172	0.521516
H95	H	-1.134845	-0.578208	-0.287354
H96	H	-0.634845	-0.078208	0.212646
H97	H	-0.430929	-0.063348	0.021752
H98	H	0.069071	0.436652	0.521752
H99	H	-1.132122	0.000005	0.437391
H100	H	-0.632122	0.500005	0.937391
H101	H	-0.588560	0.153008	-0.188223
H102	H	-0.088560	0.653008	0.311777
H103	H	-0.985328	-0.580597	-0.359423
H104	H	-0.485328	-0.080597	0.140577
H105	H	-0.896139	-0.000049	0.230338
H106	H	-0.396139	0.499951	0.730338
H107	H	-1.010848	-0.419491	0.037731
H108	H	-0.510848	0.080509	0.537731
H109	H	-1.016573	-0.578719	0.035117
H110	H	-0.516573	-0.078719	0.535117
H111	H	-0.574575	0.062957	0.018110
H112	H	-0.074575	0.562957	0.518110
H113	H	-0.452320	0.091747	-0.327758
H114	H	0.047680	0.591747	0.172242
H115	H	-0.586966	-0.153076	-0.185302
H116	H	-0.086966	0.346924	0.314698
H117	H	-0.892895	-0.420340	-0.249362
H118	H	-0.392895	0.079660	0.250638
H119	H	-0.596049	0.090961	-0.332540
H120	H	-0.096049	0.590961	0.167460
H121	H	-0.908081	-0.420874	-0.018675
H122	H	-0.408081	0.079126	0.481325
H123	H	-1.094174	-0.000072	0.224348
H124	H	-0.594174	0.499928	0.724348
H125	H	-0.597018	-0.093454	-0.331197
H126	H	-0.097018	0.406546	0.168803
H127	H	-0.442836	-0.153519	-0.189721
H128	H	0.057164	0.346481	0.310279
H129	H	-0.892511	-0.579471	-0.249271
H130	H	-0.392511	-0.079471	0.250729
H131	H	-0.452907	-0.087595	-0.330925
H132	H	0.047093	0.412405	0.169075
H133	H	-0.985777	-0.420965	-0.360317
H134	H	-0.485777	0.079035	0.139683
H135	H	-1.147852	-0.579142	-0.124997
H136	H	-0.647852	-0.079142	0.375003
H137	H	-1.147617	-0.420631	-0.123363
H138	H	-0.647617	0.079369	0.376637
H139	H	-1.135337	-0.419273	-0.285589
H140	H	-0.635337	0.080727	0.214411
