data_functionalizedCrystal
_audit_creation_method	'MofGen! by Chris Wilmer'
_symmetry_space_group_name_H-M	'P1'
_symmetry_Int_Tables_number	1
_symmetry_cell_setting	triclinic
loop_
_symmetry_equiv_pos_as_xyz
  x,y,z
_cell_length_a	19.288840
_cell_length_b	10.654559
_cell_length_c	18.366186
_cell_angle_alpha	89.995322
_cell_angle_beta	89.983729
_cell_angle_gamma	83.807337
loop_
_atom_site_label
_atom_site_type_symbol
_atom_site_fract_x
_atom_site_fract_y
_atom_site_fract_z
O1	O	0.922391	0.156506	-0.060669
O2	O	0.720267	0.177671	-0.060644
O3	O	0.825973	-0.015750	-0.060655
O4	O	0.816685	0.349927	-0.060658
O5	O	0.825955	-0.015759	0.060445
O6	O	0.720249	0.177662	0.060456
O7	O	0.922373	0.156496	0.060430
Zn8	Zn	0.821308	0.167078	0.079670
Zn9	Zn	0.821332	0.167090	-0.079883
O10	O	0.816667	0.349918	0.060442
C11	C	0.694377	0.176991	-0.000091
C12	C	0.617259	0.174962	-0.000081
C13	C	0.581059	0.173993	-0.066094
C14	C	0.508600	0.172073	-0.066103
C15	C	0.472345	0.171097	-0.000095
C16	C	0.508553	0.172073	0.065927
C17	C	0.581010	0.174006	0.065934
C18	C	0.362506	0.094476	0.050467
C19	C	0.290051	0.092536	0.050457
C20	C	0.248862	0.165141	-0.000114
C21	C	0.280138	0.239671	-0.050687
C22	C	0.352596	0.241604	-0.050680
C23	C	0.393777	0.169002	-0.000095
C24	C	0.134093	0.162092	-0.066141
C25	C	0.061632	0.160179	-0.066147
C26	C	0.061587	0.160167	0.065884
C27	C	0.134046	0.162092	0.065889
C28	C	0.170295	0.163048	-0.000126
C29	C	0.825281	-0.062538	-0.000106
C30	C	0.823237	-0.201936	-0.000109
C31	C	0.759077	-0.252092	-0.000104
C32	C	0.757160	-0.383073	-0.000102
C33	C	0.883569	-0.413732	-0.000113
C34	C	0.885484	-0.282753	-0.000110
C35	C	0.678603	-0.543665	0.042328
C36	C	0.614440	-0.593824	0.042320
C37	C	0.559267	-0.537772	-0.000108
C38	C	0.568255	-0.431562	-0.042547
C39	C	0.632419	-0.381410	-0.042545
C40	C	0.687589	-0.437459	-0.000100
C41	C	0.964037	-0.122158	-0.042546
C42	C	1.028202	-0.072003	-0.042550
C43	C	1.083381	-0.128054	-0.000126
C44	C	1.074400	-0.234270	0.042301
C45	C	1.010235	-0.284425	0.042305
C46	C	0.955056	-0.228365	-0.000117
C47	C	0.948264	0.157177	-0.000124
C48	C	1.025381	0.159206	-0.000139
C49	C	0.817360	0.396706	-0.000109
C50	C	0.819404	0.536104	-0.000111
N51	N	0.821297	0.167068	0.188561
N52	N	0.821349	0.167089	-0.188775
C53	C	0.868119	0.081463	0.226657
C54	C	0.868124	0.081458	0.302885
C55	C	0.821313	0.167079	0.341014
C56	C	0.774481	0.252690	0.302910
C57	C	0.774474	0.252685	0.226683
C58	C	0.812766	0.281501	0.461774
C59	C	0.812778	0.281508	0.537999
C60	C	0.821332	0.167094	0.576122
C61	C	0.829889	0.052669	0.538010
C62	C	0.829881	0.052664	0.461783
C63	C	0.821315	0.167093	0.423669
C64	C	0.868162	0.081476	0.696872
C65	C	0.868161	0.081469	0.773101
C66	C	0.774523	0.252712	0.773125
C67	C	0.774520	0.252709	0.696897
C68	C	0.821343	0.167092	0.658775
H69	H	0.479029	0.171282	0.119671
C70	C	0.620832	0.175062	0.138557
N71	N	0.650827	0.175853	0.193258
C72	C	0.723061	0.346973	0.654990
N73	N	0.684316	0.418005	0.623427
H74	H	0.805815	0.374679	0.569024
H75	H	0.607127	-0.680302	0.076878
H76	H	1.135627	-0.087207	-0.000134
C77	C	0.919620	-0.012730	0.184727
N78	N	0.958408	-0.083681	0.153145
H79	H	0.396037	0.035349	0.091651
H80	H	0.163608	0.162883	-0.119894
H81	H	0.708391	-0.186294	-0.000101
H82	H	0.736366	0.322402	0.333958
H83	H	0.836854	-0.040497	0.569047
H84	H	1.002927	-0.370914	0.076855
C85	C	0.386993	0.323652	-0.106277
N86	N	0.412898	0.385477	-0.148142
C87	C	0.021812	0.159108	-0.138771
N88	N	-0.008180	0.158295	-0.193473
C89	C	0.952037	-0.502642	-0.000121
N90	N	1.003609	-0.569608	-0.000129
C91	C	0.234835	0.319553	-0.106316
N92	N	0.200709	0.379718	-0.148214
C93	C	1.135099	-0.295930	0.088972
N94	N	1.180820	-0.342370	0.124123
C95	C	0.723030	0.346898	0.815063
N96	N	0.684244	0.417841	0.846654
H97	H	0.723523	-0.589304	0.076888
H98	H	0.805788	0.374676	0.430741
H99	H	0.639736	-0.294935	-0.077098
C100	C	0.722994	0.346916	0.184777
N101	N	0.684230	0.417913	0.153212
H102	H	0.906288	0.011752	0.804119
C103	C	0.903336	-0.060484	-0.089213
N104	N	0.857619	-0.014029	-0.124363
C105	C	0.919641	-0.012706	0.344798
N106	N	0.958447	-0.083625	0.376365
H107	H	0.523327	-0.385940	-0.077101
C108	C	0.620929	0.175042	-0.138713
N109	N	0.650960	0.175830	-0.193409
C110	C	0.488687	-0.592947	-0.000110
N111	N	0.435525	-0.634506	-0.000106
H112	H	0.032068	0.159381	0.119629
C113	C	0.468772	0.170998	-0.138725
N114	N	0.438776	0.170184	-0.193425
C115	C	0.919662	-0.012715	0.654935
N116	N	0.958451	-0.083662	0.623351
C117	C	0.173869	0.163141	0.138509
N118	N	0.203863	0.163932	0.193211
H119	H	0.264592	0.031843	0.091634
C120	C	0.839284	-0.073201	0.419863
N121	N	0.846362	-0.168005	0.388289
H122	H	1.035510	0.014486	-0.077099
