data_functionalizedCrystal
_audit_creation_method	'MofGen! by Chris Wilmer'
_symmetry_space_group_name_H-M	'P1'
_symmetry_Int_Tables_number	1
_symmetry_cell_setting	triclinic
loop_
_symmetry_equiv_pos_as_xyz
  x,y,z
_cell_length_a	10.686285
_cell_length_b	11.169417
_cell_length_c	10.686551
_cell_angle_alpha	85.606327
_cell_angle_beta	80.915481
_cell_angle_gamma	85.632710
loop_
_atom_site_label
_atom_site_type_symbol
_atom_site_fract_x
_atom_site_fract_y
_atom_site_fract_z
Zn1	Zn	-0.450141	1.917381	-0.678937
Zn2	Zn	-0.678721	1.917284	-0.450435
Zn3	Zn	-0.466497	1.702372	-0.466707
Zn4	Zn	-0.662340	1.730979	-0.662645
O5	O	-0.564425	1.817004	-0.564681
O6	O	-0.480473	2.085319	-0.648634
O7	O	-0.664270	1.876762	-0.274963
O8	O	-0.286705	1.718961	-0.508488
O9	O	-0.648410	2.085247	-0.480754
O10	O	-0.274688	1.876928	-0.664413
O11	O	-0.508350	1.718867	-0.286918
O12	O	-0.492466	1.538216	-0.492690
O13	O	-0.620491	1.767719	-0.842436
O14	O	-0.636351	1.559233	-0.636645
O15	O	-0.464589	1.904667	-0.854406
O16	O	-0.854171	1.904502	-0.464957
O17	O	-0.842136	1.767624	-0.620867
C18	C	-0.564407	1.505177	-0.564666
C19	C	-0.564428	1.371780	-0.564688
C20	C	-0.894207	1.839191	-0.539406
C21	C	-1.035285	1.848796	-0.528635
C22	C	-0.233354	1.794764	-0.590083
C23	C	-0.092271	1.785287	-0.600907
C24	C	-0.564444	2.130049	-0.564697
C25	C	-0.564452	2.263450	-0.564703
C26	C	-0.538889	1.839395	-0.895766
C27	C	-0.528006	1.848936	-1.036855
C28	C	-0.589771	1.794763	-0.234891
C29	C	-0.600295	1.785430	-0.093830
H30	H	-1.033130	1.723568	-0.671024
H31	H	-1.094435	1.910510	-0.458506
C32	C	-0.695148	1.702113	-1.013920
H33	H	-0.690257	1.706406	-0.926396
H34	H	-0.778781	1.726849	-1.029041
H35	H	-0.674903	1.621669	-1.037007
H36	H	-0.457793	1.910616	-1.096020
