data_functionalizedCrystal
_audit_creation_method	'MofGen! by Chris Wilmer'
_symmetry_space_group_name_H-M	'P1'
_symmetry_Int_Tables_number	1
_symmetry_cell_setting	triclinic
loop_
_symmetry_equiv_pos_as_xyz
  x,y,z
_cell_length_a	10.723024
_cell_length_b	14.750779
_cell_length_c	10.723024
_cell_angle_alpha	102.763658
_cell_angle_beta	95.532131
_cell_angle_gamma	102.763895
loop_
_atom_site_label
_atom_site_type_symbol
_atom_site_fract_x
_atom_site_fract_y
_atom_site_fract_z
O1	O	-1.630330	0.079831	0.201872
O2	O	-1.267177	0.079831	0.218625
O3	O	-1.457131	0.079827	0.028671
O4	O	-1.440376	0.079834	0.391826
O5	O	-1.510829	-0.079824	-0.025021
O6	O	-1.320875	-0.079821	0.164933
O7	O	-1.684027	-0.079821	0.148180
Zn8	Zn	-1.510977	-0.105169	0.148032
Zn9	Zn	-1.440228	0.105179	0.218773
O10	O	-1.494073	-0.079817	0.338134
C11	C	-1.247527	0.000005	0.190560
C12	C	-1.108972	0.000005	0.186912
N13	N	-1.559270	-0.248725	0.099752
C14	C	-1.033989	0.000007	0.293201
C15	C	-0.890786	0.000007	0.289433
C16	C	-1.257067	-0.600538	0.401826
C17	C	-1.290917	-0.701038	0.368003
C18	C	-1.459157	-0.701003	0.199862
C19	C	-1.425316	-0.600502	0.233667
C20	C	-1.324271	-0.550277	0.334651
C21	C	-1.492521	-0.550241	0.166491
C22	C	-1.458688	-0.449748	0.200298
C23	C	-1.357649	-0.399516	0.301280
C24	C	-1.290438	-0.449784	0.368458
C25	C	-1.593572	-0.600467	0.065513
C26	C	-1.660777	-0.550206	-0.001662
C27	C	-1.626937	-0.449711	0.032138
C28	C	-1.525899	-0.399479	0.133121
C29	C	-1.694149	-0.399443	-0.035039
C30	C	-1.660315	-0.298950	-0.001232
C31	C	-1.492066	-0.298986	0.166928
C32	C	-0.703678	0.000005	0.176245
C33	C	-0.842232	0.000005	0.179893
C34	C	-1.482761	0.000003	-0.044674
C35	C	-1.479112	0.000006	-0.183227
N36	N	-1.391944	0.248735	0.267043
C37	C	-1.585399	0.000007	-0.258209
C38	C	-1.581630	0.000011	-0.401412
C39	C	-1.468443	0.000010	0.411480
C40	C	-1.472090	0.000012	0.550035
H41	H	-1.075812	0.000004	0.386985
H42	H	-1.409776	-0.258091	0.249150
Cl43	Cl	-1.130022	-0.537394	0.528768
Cl44	Cl	-1.331598	0.000003	-0.350503
Cl45	Cl	-1.334303	0.000016	-0.247783
H46	H	-1.672622	0.000008	-0.465845
H47	H	-0.906656	0.000009	0.088899
H48	H	-0.826351	0.000013	0.380425
Cl49	Cl	-1.044417	-0.000005	0.042103
Cl50	Cl	-1.315120	-0.273180	0.343787
H51	H	-1.208148	-0.408889	0.450680
Cl52	Cl	-1.206418	-0.764216	0.452472
H53	H	-1.541432	-0.741908	0.117642
H54	H	-1.621119	-0.682295	0.037996
H55	H	-1.776429	-0.440349	-0.117253
Cl56	Cl	-1.787803	-0.613353	-0.128607
H57	H	-1.679187	0.000001	-0.216389
Cl58	Cl	-1.744808	-0.235763	-0.085681
