data_functionalizedCrystal
_audit_creation_method	'MofGen! by Chris Wilmer'
_symmetry_space_group_name_H-M	'P1'
_symmetry_Int_Tables_number	1
_symmetry_cell_setting	triclinic
loop_
_symmetry_equiv_pos_as_xyz
  x,y,z
_cell_length_a	12.837943
_cell_length_b	14.853567
_cell_length_c	11.892095
_cell_angle_alpha	93.898435
_cell_angle_beta	85.689438
_cell_angle_gamma	89.231935
loop_
_atom_site_label
_atom_site_type_symbol
_atom_site_fract_x
_atom_site_fract_y
_atom_site_fract_z
O1	O	1.382409	0.229205	-0.093964
O2	O	1.080587	0.217625	-0.093972
O3	O	1.239561	0.092869	-0.093971
O4	O	1.223436	0.353961	-0.093965
O5	O	1.226306	0.103253	0.094036
O6	O	1.067332	0.228009	0.094035
O7	O	1.369154	0.239589	0.094043
Zn8	Zn	1.216139	0.235448	0.123889
Zn9	Zn	1.233603	0.221766	-0.123818
O10	O	1.210181	0.364345	0.094042
C11	C	1.035334	0.218906	0.000031
C12	C	0.920240	0.207240	0.000027
C13	C	0.679482	0.347487	0.000047
C14	C	0.571341	0.336530	0.000045
C15	C	0.595813	0.174369	0.000029
C16	C	0.703955	0.185327	0.000031
C17	C	0.745785	0.271888	0.000038
C18	C	0.853929	0.282844	0.000032
C19	C	0.878399	0.120685	0.000024
C20	C	0.770257	0.109727	0.000022
C21	C	1.232203	0.064410	0.000029
C22	C	1.230014	-0.035860	0.000019
C23	C	1.126324	-0.457187	0.000038
C24	C	1.315188	-0.462449	0.000043
C25	C	1.317247	-0.368241	0.000036
C26	C	1.223843	-0.318502	0.000032
C27	C	1.128380	-0.362970	0.000035
C28	C	1.412707	-0.323765	0.000045
C29	C	1.414770	-0.229551	0.000040
C30	C	1.321366	-0.179810	0.000028
C31	C	1.225899	-0.224285	0.000029
C32	C	1.132495	-0.174546	0.000025
C33	C	1.037028	-0.219019	0.000018
C34	C	1.034976	-0.313230	0.000023
C35	C	1.323418	-0.085599	0.000023
C36	C	1.134551	-0.080329	0.000022
C37	C	1.414408	0.238308	0.000038
C38	C	1.529502	0.249974	0.000034
C39	C	1.217539	0.392804	0.000040
C40	C	1.219728	0.493073	0.000042
N41	N	1.204228	0.244785	0.292943
N42	N	1.245522	0.212422	-0.292873
C43	C	1.328405	0.147396	0.529592
C44	C	1.320087	0.153930	0.647934
C45	C	1.179269	0.264382	0.647971
C46	C	1.187587	0.257848	0.529629
C47	C	1.262159	0.199354	0.470444
C48	C	1.270481	0.192826	0.352100
C49	C	1.129659	0.303272	0.352140
C50	C	1.121341	0.309806	0.470481
H51	H	0.713541	0.417969	0.000051
C52	C	0.498412	0.419688	0.000044
H53	H	0.538817	0.472807	0.000040
H54	H	0.451092	0.422406	0.065603
H55	H	0.460345	0.415163	-0.065530
H56	H	1.118548	0.312000	0.696175
C57	C	0.549785	0.079163	0.000032
H58	H	0.475884	0.083469	0.000031
H59	H	0.567917	0.051265	0.065592
H60	H	0.577148	0.044022	-0.065541
H61	H	1.075720	0.345582	0.303968
H62	H	1.058490	-0.039837	0.000014
C63	C	1.519778	-0.180639	0.000032
H64	H	1.575110	-0.223757	0.000026
H65	H	1.519891	-0.140367	0.065587
H66	H	1.529124	-0.147628	-0.065546
H67	H	0.932395	0.059126	0.000010
C68	C	1.039323	0.374147	0.535591
H69	H	1.043860	0.370603	0.614543
H70	H	0.971480	0.357317	0.516211
H71	H	1.052046	0.434228	0.516198
H72	H	1.374030	0.111620	0.696089
C73	C	0.899942	0.378056	0.000044
H74	H	0.844961	0.421511	0.000060
H75	H	0.946241	0.382088	-0.065516
H76	H	0.936996	0.389317	0.065616
H77	H	0.960979	-0.178508	0.000023
H78	H	0.736183	0.039252	0.000029
C79	C	0.929972	-0.362147	0.000017
H80	H	0.874638	-0.319035	0.000001
H81	H	0.920620	-0.395167	0.065580
H82	H	0.929874	-0.402413	-0.065553
C83	C	1.021318	-0.506102	0.000036
H84	H	1.033465	-0.569335	0.000044
H85	H	0.987475	-0.493200	-0.065526
H86	H	0.978237	-0.485956	0.065607
C87	C	1.428417	-0.036682	0.000033
H88	H	1.483750	-0.079798	0.000034
H89	H	1.428518	0.003587	0.065592
H90	H	1.437772	-0.003667	-0.065541
H91	H	1.391232	-0.502952	0.000055
H92	H	1.488751	-0.364268	0.000059
C93	C	1.352501	0.128483	0.286997
H94	H	1.390755	0.098468	0.339177
H95	H	1.398952	0.162091	0.240822
H96	H	1.318388	0.085177	0.240841
H97	H	1.389131	0.099775	0.481402
