data_functionalizedCrystal
_audit_creation_method	'MofGen! by Chris Wilmer'
_symmetry_space_group_name_H-M	'P1'
_symmetry_Int_Tables_number	1
_symmetry_cell_setting	triclinic
loop_
_symmetry_equiv_pos_as_xyz
  x,y,z
_cell_length_a	16.109295
_cell_length_b	10.654550
_cell_length_c	9.130313
_cell_angle_alpha	89.995631
_cell_angle_beta	90.000594
_cell_angle_gamma	96.027942
loop_
_atom_site_label
_atom_site_type_symbol
_atom_site_fract_x
_atom_site_fract_y
_atom_site_fract_z
O1	O	-1.104093	0.161387	-0.121699
O2	O	-0.862150	0.181482	-0.121724
O3	O	-0.988684	-0.011380	-0.121702
O4	O	-0.977559	0.354249	-0.121721
O5	O	-0.988676	-0.011386	0.121897
O6	O	-0.862141	0.181477	0.121875
O7	O	-1.104084	0.161381	0.121900
Cu8	Cu	-0.983112	0.171428	0.144130
Cu9	Cu	-0.983122	0.171435	-0.143954
O10	O	-0.977550	0.354244	0.121878
C11	C	-0.831166	0.180667	0.000072
C12	C	-0.738856	0.178230	0.000063
C13	C	-0.987863	-0.058170	0.000097
C14	C	-0.985419	-0.197580	0.000094
C15	C	-0.517230	0.287003	0.000073
C16	C	-0.430495	0.284703	0.000082
C17	C	-0.449009	0.055882	0.000088
C18	C	-0.535742	0.058183	0.000090
C19	C	-0.569849	0.173747	0.000075
C20	C	-0.396383	0.169147	0.000082
C21	C	-0.302341	0.166653	0.000092
C22	C	-0.663897	0.176242	0.000068
C23	C	-0.135068	0.162204	0.000099
C24	C	-0.227376	0.164664	0.000093
C25	C	-1.059920	-0.278079	0.000101
C26	C	-1.057619	-0.409068	0.000083
C27	C	-0.906308	-0.379048	0.000057
C28	C	-0.908611	-0.248061	0.000065
C29	C	-0.978371	0.401033	0.000076
C30	C	-0.980815	0.540444	0.000069
N31	N	-0.983111	0.171423	0.346753
N32	N	-0.983130	0.171430	-0.346577
C33	C	-1.039159	0.086059	0.423414
C34	C	-1.039167	0.086059	0.576751
C35	C	-0.927076	0.256798	0.576751
C36	C	-0.927064	0.256791	0.423417
H37	H	-0.544997	0.381102	0.000072
O38	O	-0.866609	0.348860	0.340706
H39	H	-0.877764	0.446772	0.370092
O40	O	-0.412216	-0.068753	0.000098
H41	H	-0.463380	-0.147121	0.000116
H42	H	-1.118286	-0.474606	0.000086
H43	H	-0.387655	0.376928	0.000083
H44	H	-0.578587	-0.034049	0.000095
H45	H	-1.122463	-0.236982	0.000122
H46	H	-0.847939	-0.182515	0.000055
O47	O	-0.823466	-0.433493	0.000057
H48	H	-0.834380	-0.538101	0.000074
O49	O	-1.099583	-0.006043	0.340714
H50	H	-1.140296	0.046815	0.270828
H51	H	-1.084806	0.016547	0.639165
O52	O	-0.866636	0.348887	0.659436
H53	H	-0.876066	0.334563	0.778940
