data_functionalizedCrystal
_audit_creation_method	'MofGen! by Chris Wilmer'
_symmetry_space_group_name_H-M	'P1'
_symmetry_Int_Tables_number	1
_symmetry_cell_setting	triclinic
loop_
_symmetry_equiv_pos_as_xyz
  x,y,z
_cell_length_a	21.295417
_cell_length_b	21.295420
_cell_length_c	18.050583
_cell_angle_alpha	89.983938
_cell_angle_beta	89.959541
_cell_angle_gamma	90.026289
loop_
_atom_site_label
_atom_site_type_symbol
_atom_site_fract_x
_atom_site_fract_y
_atom_site_fract_z
Zn1	Zn	-0.250635	0.962302	-0.419892
Zn2	Zn	0.249365	1.462302	0.080108
Zn3	Zn	-0.355921	0.962220	-0.295693
Zn4	Zn	0.144079	1.462220	0.204307
Zn5	Zn	-0.250662	0.857041	-0.295716
Zn6	Zn	0.249338	1.357041	0.204284
Zn7	Zn	-0.355862	0.856995	-0.419841
Zn8	Zn	0.144138	1.356995	0.080159
O9	O	-0.303270	0.909640	-0.357785
O10	O	0.196730	1.409640	0.142215
O11	O	-0.264615	1.050381	-0.403428
O12	O	0.235385	1.550381	0.096572
O13	O	-0.341995	0.948253	-0.191771
O14	O	0.158005	1.448253	0.308229
O15	O	-0.162569	0.871058	-0.312219
O16	O	0.337431	1.371058	0.187781
O17	O	-0.341968	1.050321	-0.312179
O18	O	0.158032	1.550321	0.187821
O19	O	-0.162549	0.948393	-0.403450
O20	O	0.337451	1.448393	0.096550
O21	O	-0.264661	0.870979	-0.191788
O22	O	0.235339	1.370979	0.308212
O23	O	-0.264604	0.768946	-0.312170
O24	O	0.235396	1.268946	0.187830
O25	O	-0.341868	0.870979	-0.523772
O26	O	0.158132	1.370979	-0.023772
O27	O	-0.341894	0.768912	-0.403364
O28	O	0.158106	1.268912	0.096636
O29	O	-0.264558	0.948348	-0.523810
O30	O	0.235442	1.448348	-0.023810
O31	O	-0.444003	0.948208	-0.312130
O32	O	0.055997	1.448208	0.187870
O33	O	-0.443960	0.870900	-0.403342
O34	O	0.056040	1.370900	0.096658
C35	C	-0.303246	0.746088	-0.357764
C36	C	0.196754	1.246088	0.142236
C37	C	-0.303251	0.676120	-0.357773
C38	C	0.196749	1.176120	0.142227
C39	C	-0.263087	0.176693	-0.405387
C40	C	0.236913	0.676693	0.094613
C41	C	-0.263083	0.242435	-0.405387
C42	C	0.236917	0.742435	0.094613
C43	C	-0.303289	0.275281	-0.357803
C44	C	0.196711	0.775281	0.142197
C45	C	-0.343515	0.242378	-0.310229
C46	C	0.156485	0.742378	0.189771
C47	C	-0.343523	0.176637	-0.310235
C48	C	0.156477	0.676637	0.189765
N49	N	-0.308043	0.378479	-0.292774
N50	N	0.191957	0.878479	0.207226
N51	N	-0.308032	0.440930	-0.292770
N52	N	0.191968	0.940930	0.207230
C53	C	-0.303269	0.473355	-0.357781
C54	C	0.196731	0.973355	0.142219
N55	N	-0.298505	0.440970	-0.422797
N56	N	0.201495	0.940970	0.077203
N57	N	-0.298513	0.378513	-0.422801
N58	N	0.201487	0.878513	0.077199
C59	C	-0.303285	0.346566	-0.357790
C60	C	0.196715	0.846566	0.142210
C61	C	-0.263043	0.577536	-0.405355
C62	C	0.236957	1.077536	0.094645
C63	C	-0.263043	0.643279	-0.405357
C64	C	0.236957	1.143279	0.094643
C65	C	-0.343473	0.643221	-0.310192
C66	C	0.156527	1.143221	0.189808
C67	C	-0.343476	0.577478	-0.310197
C68	C	0.156524	1.077478	0.189803
C69	C	-0.303258	0.544640	-0.357778
C70	C	0.196742	1.044640	0.142222
C71	C	-0.466822	0.909557	-0.357744
C72	C	0.033178	1.409557	0.142256
C73	C	-0.536790	0.909580	-0.357751
C74	C	-0.036790	1.409580	0.142249
C75	C	-0.569658	0.949870	-0.310306
C76	C	-0.069658	1.449870	0.189694
C77	C	-0.635401	0.949899	-0.310323
C78	C	-0.135401	1.449899	0.189677
C79	C	-0.668272	0.909627	-0.357777
C80	C	-0.168272	1.409627	0.142223
C81	C	-0.635396	0.869334	-0.405231
C82	C	-0.135396	1.369334	0.094769
C83	C	-0.569655	0.869310	-0.405219
C84	C	-0.069655	1.369310	0.094781
N85	N	-0.771533	0.854560	-0.363432
N86	N	-0.271533	1.354560	0.136568
N87	N	-0.833985	0.854584	-0.363439
N88	N	-0.333985	1.354584	0.136561
C89	C	-0.866347	0.909698	-0.357820
C90	C	-0.366347	1.409698	0.142180
N91	N	-0.833899	0.964787	-0.352177
N92	N	-0.333899	1.464787	0.147823
N93	N	-0.771442	0.964762	-0.352166
N94	N	-0.271442	1.464762	0.147834
C95	C	-0.739558	0.909649	-0.357797
C96	C	-0.239558	1.409649	0.142203
C97	C	-0.970501	0.950024	-0.310390
C98	C	-0.470501	1.450024	0.189610
C99	C	-1.036245	0.950054	-0.310412
C100	C	-0.536245	1.450054	0.189588
C101	C	-1.036239	0.869483	-0.405316
C102	C	-0.536239	1.369483	0.094684
C103	C	-0.970496	0.869458	-0.405298
C104	C	-0.470496	1.369458	0.094702
C105	C	-0.937631	0.909728	-0.357831
C106	C	-0.437631	1.409728	0.142169
C107	C	-0.139080	0.909740	-0.357843
C108	C	0.360920	1.409740	0.142157
C109	C	-0.069112	0.909782	-0.357867
C110	C	0.430888	1.409782	0.142133
C111	C	-0.303295	1.073830	-0.357807
C112	C	0.196705	1.573830	0.142193
C113	C	-0.303305	1.143798	-0.357816
C114	C	0.196695	1.643798	0.142184
C115	C	-0.303203	0.909668	-0.551491
C116	C	0.196797	1.409668	-0.051491
C117	C	-0.303174	0.909679	-0.634037
C118	C	0.196826	1.409679	-0.134037
C119	C	-0.261113	0.951795	-0.833508
C120	C	0.238887	1.451795	-0.333508
C121	C	-0.245702	0.894382	-0.882904
C122	C	0.254298	1.394382	-0.382904
C123	C	-0.303164	0.909705	-0.785167
C124	C	0.196836	1.409705	-0.285167
C125	C	-0.318535	0.967140	-0.882853
C126	C	0.181465	1.467140	-0.382853
C127	C	-0.303152	0.909734	-0.931152
C128	C	0.196848	1.409734	-0.431152
C129	C	-0.287723	0.852262	-0.833476
C130	C	0.212277	1.352262	-0.333476
C131	C	-0.360582	0.925058	-0.833421
C132	C	0.139418	1.425058	-0.333421
C133	C	-0.345193	0.867606	-0.882795
C134	C	0.154807	1.367606	-0.382795
C135	C	-0.303169	0.909689	-0.701069
C136	C	0.196831	1.409689	-0.201069
C137	C	-0.303147	0.909744	-1.015249
C138	C	0.196853	1.409744	-0.515249
C139	C	-0.303292	0.909648	-0.164833
C140	C	0.196708	1.409648	0.335167
C141	C	-0.303143	0.909758	-0.082288
C142	C	0.196857	1.409758	0.417712
H143	H	-0.376215	0.669963	-0.271454
H144	H	0.123785	1.169963	0.228546
C145	C	-0.213048	0.999805	-0.804272
C146	C	0.286952	1.499805	-0.304272
H147	H	-0.172266	0.988802	-0.821219
H148	H	0.327734	1.488802	-0.321219
H149	H	-0.223576	1.040489	-0.821909
H150	H	0.276424	1.540489	-0.321909
H151	H	-0.213643	0.999731	-0.751646
H152	H	0.286357	1.499731	-0.251646
C153	C	-0.336111	1.032737	-0.912154
C154	C	0.163889	1.532737	-0.412154
H155	H	-0.373251	1.029872	-0.941087
H156	H	0.126749	1.529872	-0.441087
H157	H	-0.343092	1.060273	-0.871585
H158	H	0.156908	1.560273	-0.371585
H159	H	-0.302829	1.048531	-0.941881
H160	H	0.197171	1.548531	-0.441881
C161	C	-0.393217	0.819487	-0.911871
C162	C	0.106783	1.319487	-0.411871
H163	H	-0.423992	0.840451	-0.940826
H164	H	0.076008	1.340451	-0.440826
H165	H	-0.372294	0.789152	-0.941518
H166	H	0.127706	1.289152	-0.441518
H167	H	-0.412999	0.799178	-0.871207
H168	H	0.087001	1.299178	-0.371207
H169	H	-0.409132	0.938053	-0.811671
H170	H	0.090868	1.438053	-0.311671
C171	C	-0.533507	0.994150	-0.258081
C172	C	-0.033507	1.494150	0.241919
H173	H	-0.489646	0.988358	-0.264857
H174	H	0.010354	1.488358	0.235143
H175	H	-0.544231	1.036449	-0.268975
H176	H	-0.044231	1.536449	0.231025
H177	H	-0.544335	0.984946	-0.208179
H178	H	-0.044335	1.484946	0.291821
H179	H	-0.662165	0.836545	-0.443870
H180	H	-0.162165	1.336545	0.056130
C181	C	-0.671564	0.994216	-0.258126
C182	C	-0.171564	1.494216	0.241874
H183	H	-0.642574	1.018191	-0.229851
H184	H	-0.142574	1.518191	0.270149
H185	H	-0.697169	1.021638	-0.286563
H186	H	-0.197169	1.521638	0.213437
H187	H	-0.697249	0.970151	-0.225748
H188	H	-0.197249	1.470151	0.274252
H189	H	-0.197139	0.881405	-0.904639
H190	H	0.302861	1.381405	-0.404639
H191	H	-0.230294	0.670061	-0.444100
H192	H	0.269706	1.170061	0.055900
H193	H	-0.274661	0.803688	-0.811878
H194	H	0.225339	1.303688	-0.311878
H195	H	-0.230295	0.550797	-0.444099
H196	H	0.269705	1.050797	0.055901
C197	C	-0.934344	0.994324	-0.258191
C198	C	-0.434344	1.494324	0.241809
H199	H	-0.890483	0.988534	-0.264972
H200	H	-0.390483	1.488534	0.235028
H201	H	-0.945074	1.036616	-0.269111
H202	H	-0.445074	1.536616	0.230889
H203	H	-0.945163	0.985142	-0.208281
H204	H	-0.445163	1.485142	0.291719
H205	H	-0.542893	0.836500	-0.443855
H206	H	-0.042893	1.336500	0.056145
H207	H	-0.376223	0.550695	-0.271457
H208	H	0.123777	1.050695	0.228543
C209	C	-0.218858	0.140571	-0.457730
C210	C	0.281142	0.640571	0.042270
H211	H	-0.224619	0.096706	-0.450920
H212	H	0.275381	0.596706	0.049080
H213	H	-0.228115	0.151360	-0.507607
H214	H	0.271885	0.651360	-0.007607
H215	H	-0.176548	0.151354	-0.446946
H216	H	0.323452	0.651354	0.053054
H217	H	-0.230329	0.269223	-0.444124
H218	H	0.269671	0.769223	0.055876
H219	H	-0.376254	0.269125	-0.271487
H220	H	0.123746	0.769125	0.228513
C221	C	-1.072400	0.994375	-0.258219
C222	C	-0.572400	1.494375	0.241781
H223	H	-1.043409	1.018349	-0.229945
H224	H	-0.543409	1.518349	0.270055
H225	H	-1.098001	1.021800	-0.286659
H226	H	-0.598001	1.521800	0.213341
H227	H	-1.098090	0.970316	-0.225841
H228	H	-0.598090	1.470316	0.274159
C229	C	-1.072387	0.825185	-0.457519
C230	C	-0.572387	1.325185	0.042481
H231	H	-1.043393	0.801187	-0.485776
H232	H	-0.543393	1.301187	0.014224
H233	H	-1.098079	0.797783	-0.429088
H234	H	-0.598079	1.297783	0.070912
H235	H	-1.097986	0.849263	-0.489912
H236	H	-0.597986	1.349263	0.010088
C237	C	-0.387761	0.140451	-0.257900
C238	C	0.112239	0.640451	0.242100
H239	H	-0.411705	0.169426	-0.229557
H240	H	0.088295	0.669426	0.270443
H241	H	-0.415216	0.114801	-0.286251
H242	H	0.084784	0.614801	0.213749
H243	H	-0.363647	0.114808	-0.225592
H244	H	0.136353	0.614808	0.274408
C245	C	-0.934340	0.825130	-0.457479
C246	C	-0.434340	1.325130	0.042521
H247	H	-0.963331	0.801145	-0.485740
H248	H	-0.463331	1.301145	0.014260
H249	H	-0.908648	0.849180	-0.489859
H250	H	-0.408648	1.349180	0.010141
H251	H	-0.908740	0.797707	-0.429027
H252	H	-0.408740	1.297707	0.070973
