data_functionalizedCrystal
_audit_creation_method	'MofGen! by Chris Wilmer'
_symmetry_space_group_name_H-M	'P1'
_symmetry_Int_Tables_number	1
_symmetry_cell_setting	triclinic
loop_
_symmetry_equiv_pos_as_xyz
  x,y,z
_cell_length_a	29.839134
_cell_length_b	29.839131
_cell_length_c	21.295411
_cell_angle_alpha	90.020364
_cell_angle_beta	90.036602
_cell_angle_gamma	90.034165
loop_
_atom_site_label
_atom_site_type_symbol
_atom_site_fract_x
_atom_site_fract_y
_atom_site_fract_z
Zn1	Zn	0.686774	-0.178991	0.356119
Zn2	Zn	1.186774	0.321009	0.856119
Zn3	Zn	0.686690	-0.254107	0.250847
Zn4	Zn	1.186690	0.245893	0.750847
Zn5	Zn	0.611641	-0.178982	0.250842
Zn6	Zn	1.111641	0.321018	0.750842
Zn7	Zn	0.611605	-0.254086	0.356057
Zn8	Zn	1.111605	0.245914	0.856057
O9	O	0.649177	-0.216542	0.303466
O10	O	1.149177	0.283458	0.803466
O11	O	0.749630	-0.188968	0.342183
O12	O	1.249630	0.311032	0.842183
O13	O	0.676715	-0.244147	0.162757
O14	O	1.176715	0.255853	0.662757
O15	O	0.621658	-0.116116	0.264832
O16	O	1.121658	0.383884	0.764832
O17	O	0.749568	-0.244155	0.264840
O18	O	1.249568	0.255845	0.764840
O19	O	0.676858	-0.116123	0.342178
O20	O	1.176858	0.383877	0.842178
O21	O	0.621576	-0.188953	0.162753
O22	O	1.121576	0.311047	0.662753
O23	O	0.548769	-0.188932	0.264771
O24	O	1.048769	0.311068	0.764771
O25	O	0.621596	-0.244119	0.444154
O26	O	1.121596	0.255881	0.944154
O27	O	0.548742	-0.244110	0.342071
O28	O	1.048742	0.255890	0.842071
O29	O	0.676823	-0.188948	0.444200
O30	O	1.176823	0.311052	0.944200
O31	O	0.676680	-0.316971	0.264779
O32	O	1.176680	0.183029	0.764779
O33	O	0.621515	-0.316956	0.342076
O34	O	1.121515	0.183044	0.842076
C35	C	0.532455	-0.216518	0.303414
C36	C	1.032455	0.283482	0.803414
C37	C	0.482520	-0.216519	0.303407
C38	C	0.982520	0.283481	0.803407
C39	C	0.125935	-0.187768	0.263298
C40	C	0.625935	0.312232	0.763298
C41	C	0.313608	-0.187755	0.263260
C42	C	0.813608	0.312245	0.763260
O43	O	0.337873	-0.163272	0.229099
O44	O	0.837873	0.336728	0.729099
N45	N	0.337075	-0.216526	0.303438
N46	N	0.837075	0.283474	0.803438
C47	C	0.313622	-0.245301	0.343632
C48	C	0.813622	0.254699	0.843632
O49	O	0.337889	-0.269769	0.377811
O50	O	0.837889	0.230231	0.877811
C51	C	0.125950	-0.245311	0.343673
C52	C	0.625950	0.254689	0.843673
C53	C	0.102484	-0.216541	0.303488
C54	C	0.602484	0.283459	0.803488
C55	C	0.102469	-0.159000	0.223116
C56	C	0.602469	0.341000	0.723116
C57	C	0.055554	-0.159005	0.223123
C58	C	0.555554	0.340995	0.723123
C59	C	0.032104	-0.187778	0.263313
C60	C	0.532104	0.312222	0.763313
C61	C	0.055569	-0.216546	0.303495
C62	C	0.555569	0.283454	0.803495
C63	C	0.102497	-0.274082	0.383870
C64	C	0.602497	0.225918	0.883870
C65	C	0.055576	-0.274081	0.383878
C66	C	0.555576	0.225919	0.883878
C67	C	0.032111	-0.245312	0.343692
C68	C	0.532111	0.254688	0.843692
C69	C	-0.014797	-0.245324	0.343692
C70	C	0.485203	0.254676	0.843692
N71	N	-0.038264	-0.216553	0.303514
N72	N	0.461736	0.283447	0.803514
C73	C	-0.014814	-0.187780	0.263324
C74	C	0.485186	0.312220	0.763324
C75	C	0.412152	-0.245294	0.343607
C76	C	0.912152	0.254706	0.843607
C77	C	0.459070	-0.245292	0.343596
C78	C	0.959070	0.254708	0.843596
C79	C	0.459053	-0.187746	0.263224
C80	C	0.959053	0.312254	0.763224
C81	C	0.412134	-0.187750	0.263232
C82	C	0.912134	0.312250	0.763232
C83	C	0.388685	-0.216523	0.303429
C84	C	0.888685	0.283477	0.803429
C85	C	-0.113340	-0.187793	0.263342
C86	C	0.386660	0.312207	0.763342
C87	C	-0.160260	-0.187803	0.263352
C88	C	0.339740	0.312197	0.763352
C89	C	-0.160238	-0.245347	0.343726
C90	C	0.339762	0.254653	0.843726
C91	C	-0.113323	-0.245340	0.343714
C92	C	0.386677	0.254660	0.843714
C93	C	-0.089875	-0.216559	0.303521
C94	C	0.410125	0.283441	0.803521
O95	O	-0.039091	-0.269791	0.377840
O96	O	0.460909	0.230209	0.877840
O97	O	-0.039089	-0.163309	0.229161
O98	O	0.460911	0.336691	0.729161
C99	C	0.172850	-0.187763	0.263290
C100	C	0.672850	0.312237	0.763290
C101	C	0.196315	-0.216530	0.303472
C102	C	0.696315	0.283470	0.803472
C103	C	0.172865	-0.245303	0.343662
C104	C	0.672865	0.254697	0.843662
C105	C	0.243233	-0.216529	0.303462
C106	C	0.743233	0.283471	0.803462
C107	C	0.266683	-0.187756	0.263272
C108	C	0.766683	0.312244	0.763272
C109	C	0.243216	-0.158985	0.223093
C110	C	0.743216	0.341015	0.723093
C111	C	0.196300	-0.158990	0.223101
C112	C	0.696300	0.341010	0.723101
C113	C	0.196333	-0.274075	0.383841
C114	C	0.696333	0.225925	0.883841
C115	C	0.243248	-0.274067	0.383829
C116	C	0.743248	0.225933	0.883829
C117	C	0.266698	-0.245294	0.343640
C118	C	0.766698	0.254706	0.843640
C119	C	0.649096	-0.333264	0.303435
C120	C	1.149096	0.166736	0.803435
C121	C	0.649103	-0.383199	0.303443
C122	C	1.149103	0.116801	0.803443
C123	C	0.677954	-0.692837	0.263276
C124	C	1.177954	-0.192837	0.763276
C125	C	0.678010	-0.880511	0.263301
C126	C	1.178010	-0.380511	0.763301
O127	O	0.702476	-0.904772	0.229126
O128	O	1.202476	-0.404772	0.729126
N129	N	0.649271	-0.903984	0.303514
N130	N	1.149271	-0.403984	0.803514
C131	C	0.620518	-0.880536	0.343726
C132	C	1.120518	-0.380536	0.843726
O133	O	0.596078	-0.904807	0.377935
O134	O	1.096078	-0.404807	0.877935
C135	C	0.620465	-0.692863	0.343704
C136	C	1.120465	-0.192863	0.843704
C137	C	0.649203	-0.669393	0.303484
C138	C	1.149203	-0.169393	0.803484
C139	C	0.706690	-0.669367	0.223060
C140	C	1.206690	-0.169367	0.723060
C141	C	0.706674	-0.622451	0.223052
C142	C	1.206674	-0.122451	0.723052
C143	C	0.677922	-0.599007	0.263260
C144	C	1.177922	-0.099007	0.763260
C145	C	0.649187	-0.622477	0.303476
C146	C	1.149187	-0.122477	0.803476
C147	C	0.591715	-0.669416	0.383920
C148	C	1.091715	-0.169416	0.883920
C149	C	0.591705	-0.622495	0.383912
C150	C	1.091705	-0.122495	0.883912
C151	C	0.620443	-0.599025	0.343692
C152	C	1.120443	-0.099025	0.843692
C153	C	0.620419	-0.552117	0.343676
C154	C	1.120419	-0.052117	0.843676
N155	N	0.649158	-0.528644	0.303463
N156	N	1.149158	-0.028644	0.803463
C157	C	0.677910	-0.552089	0.263255
C158	C	1.177910	-0.052089	0.763255
C159	C	0.620547	-0.979066	0.343734
C160	C	1.120547	-0.479066	0.843734
C161	C	0.620560	-1.025984	0.343739
C162	C	1.120560	-0.525984	0.843739
C163	C	0.678052	-1.025956	0.263314
C164	C	1.178052	-0.525956	0.763314
C165	C	0.678037	-0.979037	0.263307
C166	C	1.178037	-0.479037	0.763307
C167	C	0.649286	-0.955593	0.303521
C168	C	1.149286	-0.455593	0.803521
C169	C	0.677874	-0.453563	0.263241
C170	C	1.177874	0.046437	0.763241
C171	C	0.677854	-0.406643	0.263235
C172	C	1.177854	0.093357	0.763235
C173	C	0.620364	-0.406676	0.343661
C174	C	1.120364	0.093324	0.843661
C175	C	0.620382	-0.453591	0.343666
C176	C	1.120382	0.046409	0.843666
C177	C	0.649140	-0.477034	0.303453
C178	C	1.149140	0.022966	0.803453
O179	O	0.595970	-0.527827	0.377838
O180	O	1.095970	-0.027827	0.877838
O181	O	0.702353	-0.527809	0.229062
O182	O	1.202353	-0.027809	0.729062
C183	C	0.677970	-0.739753	0.263285
C184	C	1.177970	-0.239753	0.763285
C185	C	0.649234	-0.763224	0.303501
C186	C	1.149234	-0.263224	0.803501
C187	C	0.620483	-0.739779	0.343709
C188	C	1.120483	-0.239779	0.843709
C189	C	0.649247	-0.810141	0.303505
C190	C	1.149247	-0.310141	0.803505
C191	C	0.677998	-0.833586	0.263297
C192	C	1.177998	-0.333586	0.763297
C193	C	0.706737	-0.810113	0.223085
C194	C	1.206737	-0.310113	0.723085
C195	C	0.706721	-0.763198	0.223077
C196	C	1.206721	-0.263198	0.723077
C197	C	0.591744	-0.763252	0.383922
C198	C	1.091744	-0.263252	0.883922
C199	C	0.591762	-0.810167	0.383926
C200	C	1.091762	-0.310167	0.883926
C201	C	0.620513	-0.833612	0.343718
C202	C	1.120513	-0.333612	0.843718
C203	C	0.766356	-0.216565	0.303519
C204	C	1.266356	0.283435	0.803519
C205	C	0.816290	-0.216575	0.303541
C206	C	1.316290	0.283425	0.803541
C207	C	0.649215	-0.216532	0.467656
C208	C	1.149215	0.283468	0.967656
C209	C	0.649231	-0.216528	0.537625
C210	C	1.149231	0.283472	1.037625
C211	C	0.649271	-0.099363	0.303511
C212	C	1.149271	0.400637	0.803511
C213	C	0.649311	-0.049429	0.303531
C214	C	1.149311	0.450571	0.803531
C215	C	0.649166	-0.216519	0.139915
C216	C	1.149166	0.283481	0.639915
C217	C	0.649237	-0.216396	0.069947
C218	C	1.149237	0.283604	0.569947
C219	C	0.677986	-0.187799	0.570516
C220	C	1.177986	0.312201	1.070516
C221	C	0.677985	-0.187780	0.636259
C222	C	1.177985	0.312220	1.136259
C223	C	0.649234	-0.216497	0.669107
C224	C	1.149234	0.283503	1.169107
C225	C	0.620473	-0.245228	0.636208
C226	C	1.120473	0.254772	1.136208
C227	C	0.620471	-0.245244	0.570466
C228	C	1.120471	0.254756	1.070466
N229	N	0.645761	-0.255797	0.772323
N230	N	1.145761	0.244203	1.272323
N231	N	0.645765	-0.255781	0.834774
N232	N	1.145765	0.244219	1.334774
C233	C	0.649237	-0.216452	0.867182
C234	C	1.149237	0.283548	1.367182
N235	N	0.652713	-0.177138	0.834779
N236	N	1.152713	0.322862	1.334779
N237	N	0.652711	-0.177154	0.772322
N238	N	1.152711	0.322846	1.272322
C239	C	0.649233	-0.216483	0.740393
C240	C	1.149233	0.283517	1.240393
C241	C	0.677993	-0.187699	0.971359
C242	C	1.177993	0.312301	1.471359
C243	C	0.677989	-0.187679	1.037103
C244	C	1.177989	0.312321	1.537103
C245	C	0.620480	-0.245131	1.037051
C246	C	1.120480	0.254869	1.537051
C247	C	0.620481	-0.245148	0.971308
C248	C	1.120481	0.254852	1.471308
C249	C	0.649240	-0.216432	0.938466
C250	C	1.149240	0.283568	1.438466
H251	H	0.036453	-0.135578	0.190400
H252	H	0.536453	0.364422	0.690400
F253	F	0.737266	-0.597478	0.180251
F254	F	1.237266	-0.097478	0.680251
H255	H	0.730147	-0.829210	0.190344
H256	H	1.230147	-0.329210	0.690344
H257	H	-0.094216	-0.268770	0.376432
H258	H	0.405784	0.231230	0.876432
H259	H	0.177199	-0.135562	0.190378
H260	H	0.677199	0.364438	0.690378
H261	H	0.568293	-0.603409	0.416661
H262	H	1.068293	-0.103409	0.916661
H263	H	0.596953	-0.387580	0.376396
H264	H	1.096953	0.112420	0.876396
F265	F	0.561132	-0.694385	0.426733
F266	F	1.061132	-0.194385	0.926733
H267	H	0.596982	-0.472702	0.376418
H268	H	1.096982	0.027298	0.876418
F269	F	0.708592	-0.157235	0.535567
F270	F	1.208592	0.342765	1.035567
F271	F	0.589865	-0.275822	0.535460
F272	F	1.089865	0.224178	1.035460
F273	F	0.708442	-0.381667	0.220425
F274	F	1.208442	0.118333	0.720425
H275	H	0.262317	-0.135558	0.190367
H276	H	0.762317	0.364442	0.690367
H277	H	0.701405	-0.164282	1.063882
H278	H	1.201405	0.335718	1.563882
F279	F	0.561172	-0.835142	0.426735
F280	F	1.061172	-0.335142	0.926735
F281	F	0.708584	-0.157194	0.671272
F282	F	1.208584	0.342806	1.171272
H283	H	0.597062	-0.268609	0.662957
H284	H	1.097062	0.231391	1.162957
H285	H	0.730122	-0.744091	0.190326
H286	H	1.230122	-0.244091	0.690326
H287	H	0.701438	-0.959930	0.230556
H288	H	1.201438	-0.459930	0.730556
F289	F	0.589877	-0.275692	1.072006
F290	F	1.089877	0.224308	1.572006
F291	F	0.708482	-0.478506	0.220443
F292	F	1.208482	0.021494	0.720443
H293	H	0.568331	-0.744167	0.416665
H294	H	1.068331	-0.244167	0.916665
F295	F	0.708599	-0.157136	0.936404
F296	F	1.208599	0.342864	1.436404
F297	F	-0.185230	-0.157181	0.220578
F298	F	0.314770	0.342819	0.720578
F299	F	0.268216	-0.304693	0.426601
F300	F	0.768216	0.195307	0.926601
H301	H	0.597068	-0.268545	0.944527
H302	H	1.097068	0.231455	1.444527
H303	H	-0.094254	-0.164356	0.230616
H304	H	0.405746	0.335644	0.730616
F305	F	0.484018	-0.157124	0.220451
F306	F	0.984018	0.342876	0.720451
H307	H	0.121558	-0.135567	0.190389
H308	H	0.621558	0.364433	0.690389
H309	H	-0.179340	-0.268775	0.376445
H310	H	0.320660	0.231225	0.876445
H311	H	0.393032	-0.164322	0.230512
H312	H	0.893032	0.335678	0.730512
H313	H	0.478172	-0.268724	0.376313
H314	H	0.978172	0.231276	0.876313
H315	H	0.121594	-0.297510	0.416593
H316	H	0.621594	0.202490	0.916593
F317	F	0.387201	-0.275921	0.386391
F318	F	0.887201	0.224079	0.886391
H319	H	0.701463	-1.045052	0.230575
H320	H	1.201463	-0.545052	0.730575
F321	F	0.737294	-0.694311	0.180263
F322	F	1.237294	-0.194311	0.680263
F323	F	0.030622	-0.304705	0.426663
F324	F	0.530622	0.195295	0.926663
F325	F	0.589968	-1.050958	0.386539
F326	F	1.089968	-0.550958	0.886539
F327	F	0.589944	-0.954121	0.386538
F328	F	1.089944	-0.454121	0.886538
F329	F	0.171381	-0.304701	0.426618
F330	F	0.671381	0.195299	0.926618
