data_functionalizedCrystal
_audit_creation_method	'MofGen! by Chris Wilmer'
_symmetry_space_group_name_H-M	'P1'
_symmetry_Int_Tables_number	1
_symmetry_cell_setting	triclinic
loop_
_symmetry_equiv_pos_as_xyz
  x,y,z
_cell_length_a	18.215407
_cell_length_b	29.839131
_cell_length_c	18.215399
_cell_angle_alpha	89.961473
_cell_angle_beta	89.983101
_cell_angle_gamma	90.032688
loop_
_atom_site_label
_atom_site_type_symbol
_atom_site_fract_x
_atom_site_fract_y
_atom_site_fract_z
Zn1	Zn	1.125019	-0.178888	-0.416004
Zn2	Zn	1.625019	0.321112	0.083996
Zn3	Zn	1.124905	-0.254018	-0.292915
Zn4	Zn	1.624905	0.245982	0.207085
Zn5	Zn	1.001952	-0.178899	-0.292958
Zn6	Zn	1.501952	0.321101	0.207042
Zn7	Zn	1.001895	-0.253989	-0.415946
Zn8	Zn	1.501895	0.246011	0.084054
O9	O	1.063443	-0.216449	-0.354456
O10	O	1.563443	0.283551	0.145544
O11	O	1.227988	-0.188862	-0.399682
O12	O	1.727988	0.311138	0.100318
O13	O	1.108571	-0.244070	-0.189936
O14	O	1.608571	0.255930	0.310064
O15	O	1.018348	-0.116031	-0.309322
O16	O	1.518348	0.383969	0.190678
O17	O	1.227905	-0.244059	-0.309249
O18	O	1.727905	0.255941	0.190751
O19	O	1.108765	-0.116023	-0.399724
O20	O	1.608765	0.383977	0.100276
O21	O	1.018238	-0.188880	-0.189968
O22	O	1.518238	0.311120	0.310032
O23	O	0.898960	-0.188852	-0.309266
O24	O	1.398960	0.311148	0.190734
O25	O	1.018252	-0.244010	-0.518938
O26	O	1.518252	0.255990	-0.018938
O27	O	0.898918	-0.244020	-0.399625
O28	O	1.398918	0.255980	0.100375
O29	O	1.108710	-0.188834	-0.518981
O30	O	1.608710	0.311166	-0.018981
O31	O	1.108516	-0.316881	-0.309193
O32	O	1.608516	0.183119	0.190807
O33	O	1.018142	-0.316860	-0.399584
O34	O	1.518142	0.183140	0.100416
C35	C	0.872236	-0.216435	-0.354445
C36	C	1.372236	0.283565	0.145555
C37	C	0.790438	-0.216440	-0.354457
C38	C	1.290438	0.283560	0.145543
C39	C	0.525378	-0.245222	-0.401441
C40	C	1.025378	0.254778	0.098559
C41	C	0.602236	-0.245218	-0.401438
C42	C	1.102236	0.254782	0.098562
C43	C	0.602249	-0.187685	-0.307483
C44	C	1.102249	0.312315	0.192517
C45	C	0.525392	-0.187692	-0.307484
C46	C	1.025392	0.312308	0.192516
C47	C	0.486958	-0.216459	-0.354467
C48	C	0.986958	0.283541	0.145533
C49	C	0.640674	-0.216449	-0.354463
C50	C	1.140674	0.283551	0.145537
C51	C	0.724008	-0.216445	-0.354459
C52	C	1.224008	0.283555	0.145541
C53	C	0.403619	-0.216464	-0.354470
C54	C	0.903619	0.283536	0.145530
C55	C	1.063330	-0.333171	-0.354394
C56	C	1.563330	0.166829	0.145606
C57	C	1.063350	-0.383106	-0.354392
C58	C	1.563350	0.116894	0.145608
C59	C	1.110513	-0.692710	-0.401595
C60	C	1.610513	-0.192710	0.098405
C61	C	1.110593	-0.880383	-0.401639
C62	C	1.610593	-0.380383	0.098361
O63	O	1.150582	-0.904615	-0.441727
O64	O	1.650582	-0.404615	0.058273
N65	N	1.063568	-0.903891	-0.354537
N66	N	1.563568	-0.403891	0.145463
C67	C	1.016516	-0.880477	-0.307425
C68	C	1.516516	-0.380477	0.192575
O69	O	0.976515	-0.904778	-0.267368
O70	O	1.476515	-0.404778	0.232632
C71	C	1.016433	-0.692805	-0.307385
C72	C	1.516433	-0.192805	0.192615
C73	C	1.063466	-0.669300	-0.354484
C74	C	1.563466	-0.169300	0.145516
C75	C	1.157541	-0.669205	-0.448691
C76	C	1.657541	-0.169205	0.051309
C77	C	1.157524	-0.622289	-0.448677
C78	C	1.657524	-0.122289	0.051323
C79	C	1.110477	-0.598879	-0.401566
C80	C	1.610477	-0.098879	0.098434
C81	C	1.063449	-0.622384	-0.354470
C82	C	1.563449	-0.122384	0.145530
C83	C	0.969378	-0.669392	-0.260276
C84	C	1.469378	-0.169392	0.239724
C85	C	0.969360	-0.622471	-0.260272
C86	C	1.469360	-0.122471	0.239728
C87	C	1.016394	-0.598966	-0.307371
C88	C	1.516394	-0.098966	0.192629
C89	C	1.016385	-0.552059	-0.307345
C90	C	1.516385	-0.052059	0.192655
N91	N	1.063410	-0.528551	-0.354447
N92	N	1.563410	-0.028551	0.145553
C93	C	1.110456	-0.551961	-0.401557
C94	C	1.610456	-0.051961	0.098443
C95	C	1.016564	-0.979008	-0.307448
C96	C	1.516564	-0.479008	0.192552
C97	C	1.016586	-1.025926	-0.307457
C98	C	1.516586	-0.525926	0.192543
C99	C	1.110661	-1.025828	-0.401673
C100	C	1.610661	-0.525828	0.098327
C101	C	1.110643	-0.978909	-0.401659
C102	C	1.610643	-0.478909	0.098341
C103	C	1.063589	-0.955500	-0.354550
C104	C	1.563589	-0.455500	0.145450
C105	C	1.110416	-0.453435	-0.401523
C106	C	1.610416	0.046565	0.098477
C107	C	1.110396	-0.406516	-0.401503
C108	C	1.610396	0.093484	0.098497
C109	C	1.016318	-0.406617	-0.307290
C110	C	1.516318	0.093383	0.192710
C111	C	1.016340	-0.453533	-0.307308
C112	C	1.516340	0.046467	0.192692
C113	C	1.063391	-0.476941	-0.354430
C114	C	1.563391	0.023059	0.145570
O115	O	0.976410	-0.527798	-0.267284
O116	O	1.476410	-0.027798	0.232716
O117	O	1.150439	-0.527652	-0.441619
O118	O	1.650439	-0.027652	0.058381
C119	C	1.110530	-0.739625	-0.401609
C120	C	1.610530	-0.239625	0.098391
C121	C	1.063502	-0.763131	-0.354513
C122	C	1.563502	-0.263131	0.145487
C123	C	1.016455	-0.739720	-0.307402
C124	C	1.516455	-0.239720	0.192598
C125	C	1.063523	-0.810048	-0.354522
C126	C	1.563523	-0.310048	0.145478
C127	C	1.110569	-0.833459	-0.401633
C128	C	1.610569	-0.333459	0.098367
C129	C	1.157594	-0.809951	-0.448734
C130	C	1.657594	-0.309951	0.051266
C131	C	1.157577	-0.763036	-0.448720
C132	C	1.657577	-0.263036	0.051280
C133	C	0.969430	-0.763228	-0.260301
C134	C	1.469430	-0.263228	0.239699
C135	C	0.969452	-0.810144	-0.260318
C136	C	1.469452	-0.310144	0.239682
C137	C	1.016499	-0.833554	-0.307429
C138	C	1.516499	-0.333554	0.192571
C139	C	1.255396	-0.216463	-0.354468
C140	C	1.755396	0.283537	0.145532
C141	C	1.337194	-0.216469	-0.354473
C142	C	1.837194	0.283531	0.145527
C143	C	1.063488	-0.216418	-0.546409
C144	C	1.563488	0.283582	-0.046409
C145	C	1.063507	-0.216404	-0.628208
C146	C	1.563507	0.283596	-0.128208
C147	C	1.063575	-0.099270	-0.354534
C148	C	1.563575	0.400730	0.145466
C149	C	1.063632	-0.049336	-0.354568
C150	C	1.563632	0.450664	0.145432
C151	C	1.110625	-0.187647	-0.816425
C152	C	1.610625	0.312353	-0.316425
C153	C	1.110634	-0.187634	-0.893284
C154	C	1.610634	0.312366	-0.393284
C155	C	1.016440	-0.245092	-0.893228
C156	C	1.516440	0.254908	-0.393228
C157	C	1.016428	-0.245102	-0.816371
C158	C	1.516428	0.254898	-0.316371
C159	C	1.063525	-0.216381	-0.777971
C160	C	1.563525	0.283619	-0.277971
C161	C	1.063546	-0.216357	-0.931688
C162	C	1.563546	0.283643	-0.431688
C163	C	1.063555	-0.216343	-1.015021
C164	C	1.563555	0.283657	-0.515021
C165	C	1.063515	-0.216394	-0.694632
C166	C	1.563515	0.283606	-0.194632
C167	C	1.063440	-0.216447	-0.163250
C168	C	1.563440	0.283553	0.336750
C169	C	1.063564	-0.216334	-0.081451
C170	C	1.563564	0.283666	0.418549
H171	H	0.633551	-0.164263	-0.269232
H172	H	1.133551	0.335737	0.230768
Br173	Br	1.174564	-0.148640	-0.945469
Br174	Br	1.674564	0.351360	-0.445469
H175	H	0.978016	-0.387549	-0.268931
H176	H	1.478016	0.112451	0.231069
H177	H	1.148973	-0.164259	-0.785162
H178	H	1.648973	0.335741	-0.285162
H179	H	0.978097	-0.268477	-0.924503
H180	H	1.478097	0.231523	-0.424503
Br181	Br	0.952495	-0.284097	-0.764179
Br182	Br	1.452495	0.215903	-0.264179
Br183	Br	1.221411	-0.731143	-0.512644
Br184	Br	1.721411	-0.231143	-0.012644
Br185	Br	0.473220	-0.284264	-0.465202
Br186	Br	0.973220	0.215736	0.034798
H187	H	0.494110	-0.164269	-0.269228
H188	H	0.994110	0.335731	0.230772
Br189	Br	0.654375	-0.284257	-0.465188
Br190	Br	1.154375	0.215743	0.034812
H191	H	1.148699	-0.387379	-0.439857
H192	H	1.648699	0.112621	0.060143
H193	H	0.931118	-0.744171	-0.221938
H194	H	1.431118	-0.244171	0.278062
Br195	Br	1.174273	-0.485196	-0.465475
Br196	Br	1.674273	0.014804	0.034525
Br197	Br	1.221446	-0.841731	-0.512666
Br198	Br	1.721446	-0.341731	-0.012666
H199	H	1.195820	-0.603154	-0.487032
H200	H	1.695820	-0.103154	0.012968
Br201	Br	1.174476	-0.947014	-0.465582
Br202	Br	1.674476	-0.447014	0.034418
Br203	Br	1.174510	-1.057608	-0.465608
Br204	Br	1.674510	-0.557608	0.034392
Br205	Br	0.952765	-1.057820	-0.243521
Br206	Br	1.452765	-0.557820	0.256479
H207	H	0.931153	-0.829277	-0.221957
H208	H	1.431153	-0.329277	0.278043
Br209	Br	0.952695	-0.947245	-0.243511
Br210	Br	1.452695	-0.447245	0.256489
Br211	Br	0.905542	-0.701280	-0.196353
Br212	Br	1.405542	-0.201280	0.303647
H213	H	1.195852	-0.688260	-0.487059
H214	H	1.695852	-0.188260	0.012941
H215	H	0.931041	-0.603414	-0.221910
H216	H	1.431041	-0.103414	0.278090
H217	H	0.978048	-0.472672	-0.268949
H218	H	1.478048	0.027328	0.231051
