data_functionalizedCrystal
_audit_creation_method	'MofGen! by Chris Wilmer'
_symmetry_space_group_name_H-M	'P1'
_symmetry_Int_Tables_number	1
_symmetry_cell_setting	triclinic
loop_
_symmetry_equiv_pos_as_xyz
  x,y,z
_cell_length_a	16.959455
_cell_length_b	16.959454
_cell_length_c	19.805399
_cell_angle_alpha	89.977613
_cell_angle_beta	89.980097
_cell_angle_gamma	90.019023
loop_
_atom_site_label
_atom_site_type_symbol
_atom_site_fract_x
_atom_site_fract_y
_atom_site_fract_z
Zn1	Zn	1.208409	-0.314722	-0.382750
Zn2	Zn	1.208324	-0.446904	-0.269572
Zn3	Zn	1.076230	-0.314741	-0.269574
Zn4	Zn	1.076202	-0.446860	-0.382718
O5	O	1.142291	-0.380807	-0.326154
O6	O	1.319008	-0.332267	-0.367749
O7	O	1.190777	-0.429399	-0.174856
O8	O	1.093811	-0.204128	-0.284601
O9	O	1.318946	-0.429381	-0.284598
O10	O	1.190922	-0.204114	-0.367751
O11	O	1.093728	-0.332300	-0.174857
O12	O	0.965615	-0.332257	-0.284570
O13	O	1.093763	-0.429305	-0.477439
O14	O	0.965595	-0.429324	-0.367697
O15	O	1.190895	-0.332224	-0.477462
O16	O	1.190750	-0.557509	-0.284567
O17	O	1.093681	-0.557477	-0.367695
C18	C	0.936925	-0.380788	-0.326131
C19	C	0.849068	-0.380799	-0.326137
C20	C	0.807781	-0.330189	-0.282926
C21	C	0.807801	-0.431415	-0.369358
C22	C	0.725255	-0.431424	-0.369368
C23	C	0.683969	-0.380814	-0.326157
C24	C	0.725228	-0.330194	-0.282936
C25	C	0.683990	-0.482037	-0.412592
C26	C	0.601439	-0.482048	-0.412605
C27	C	0.560151	-0.431441	-0.369390
C28	C	0.601415	-0.380820	-0.326167
C29	C	0.560128	-0.330209	-0.282956
C30	C	0.601391	-0.279592	-0.239729
C31	C	0.683940	-0.279587	-0.239721
C32	C	0.477602	-0.431445	-0.369398
C33	C	0.477575	-0.330215	-0.282966
C34	C	1.142225	-0.586173	-0.326142
C35	C	1.142269	-0.674030	-0.326160
C36	C	1.091820	-1.045518	-0.369434
C37	C	1.192982	-1.045492	-0.282942
C38	C	1.192954	-0.962947	-0.282936
C39	C	1.142358	-0.921683	-0.326179
C40	C	1.091789	-0.962965	-0.369427
C41	C	1.243516	-0.921658	-0.239683
C42	C	1.243490	-0.839107	-0.239675
C43	C	1.192897	-0.797842	-0.282921
C44	C	1.142327	-0.839129	-0.326172
C45	C	1.091731	-0.797865	-0.369415
C46	C	1.041164	-0.839151	-0.412670
C47	C	1.041196	-0.921700	-0.412674
C48	C	1.192865	-0.715294	-0.282917
C49	C	1.091700	-0.715312	-0.369408
C50	C	1.348459	-0.380827	-0.326177
C51	C	1.436316	-0.380835	-0.326187
C52	C	1.142335	-0.380757	-0.502696
C53	C	1.142354	-0.380736	-0.577928
C54	C	1.142379	-0.174639	-0.326180
C55	C	1.142416	-0.086782	-0.326191
C56	C	1.192932	-0.330183	-0.613286
C57	C	1.192940	-0.330160	-0.683974
C58	C	1.142374	-0.380695	-0.719304
C59	C	1.091791	-0.431250	-0.683942
C60	C	1.091779	-0.431268	-0.613254
C61	C	1.091835	-0.431176	-0.969015
C62	C	1.091852	-0.431155	-1.039707
C63	C	1.192996	-0.330068	-1.039735
C64	C	1.192985	-0.330087	-0.969048
C65	C	1.142399	-0.380638	-0.933692
C66	C	1.142389	-0.380661	-0.857043
C67	C	1.142386	-0.380676	-0.795951
C68	C	1.142292	-0.380800	-0.150298
C69	C	1.142427	-0.380598	-0.075066
H70	H	0.841422	-0.472617	-0.404541
C71	C	0.351071	-0.476395	-0.407793
C72	C	0.432246	-0.487076	-0.416909
H73	H	0.323072	-0.510739	-0.437130
H74	H	0.337520	-0.487906	-0.362308
H75	H	0.337569	-0.423299	-0.417772
H76	H	0.445749	-0.540171	-0.406926
H77	H	0.445802	-0.475571	-0.462405
C78	C	1.046899	-0.476112	-0.792286
C79	C	1.036206	-0.486799	-0.722775
H80	H	1.012587	-0.510412	-0.816258
H81	H	1.035355	-0.423006	-0.803874
H82	H	1.100007	-0.487685	-0.803870
H83	H	0.983100	-0.475220	-0.711190
H84	H	1.047745	-0.539917	-0.711183
C85	C	1.030181	-1.014501	-0.503708
C86	C	0.985612	-0.967085	-0.460209
H87	H	0.995863	-1.042526	-0.533049
H88	H	1.064579	-0.982262	-0.529628
H89	H	1.060317	-1.050883	-0.477946
H90	H	0.955480	-0.930700	-0.485972
H91	H	0.951201	-0.999328	-0.434287
C92	C	0.991822	-0.531211	-0.620323
C93	C	1.036196	-0.486851	-0.574387
H94	H	0.957512	-0.565530	-0.596326
H95	H	0.961598	-0.496766	-0.647887
H96	H	1.026264	-0.561431	-0.647900
H97	H	1.001754	-0.456626	-0.546812
H98	H	1.066422	-0.521300	-0.546811
H99	H	0.717543	-0.238377	-0.204529
C100	C	0.985493	-0.442154	-0.889509
C101	C	1.036237	-0.486739	-0.930150
H102	H	0.951166	-0.476458	-0.865515
H103	H	1.015609	-0.412065	-0.858359
H104	H	0.955281	-0.407710	-0.917095
H105	H	1.066453	-0.521179	-0.902563
H106	H	1.006118	-0.516842	-0.961303
H107	H	0.567765	-0.238381	-0.204550
C108	C	0.985546	-0.442101	-1.119195
C109	C	1.036266	-0.486704	-1.078547
H110	H	0.951237	-0.476395	-1.143176
H111	H	0.955319	-0.407675	-1.091621
H112	H	1.015685	-0.411993	-1.150363
H113	H	1.006127	-0.516807	-1.047376
H114	H	1.066495	-0.521144	-1.106124
C115	C	1.343499	-0.913347	-0.154182
C116	C	1.299127	-0.967014	-0.192151
H117	H	1.377829	-0.941353	-0.124835
H118	H	1.373702	-0.881112	-0.183691
H119	H	1.309057	-0.881189	-0.128262
H120	H	1.333569	-0.999168	-0.218075
H121	H	1.268922	-0.999263	-0.162639
C122	C	1.254510	-0.746322	-0.148628
C123	C	1.299076	-0.793732	-0.192133
H124	H	1.288829	-0.718313	-0.119276
H125	H	1.224384	-0.709934	-0.174380
H126	H	1.220103	-0.778570	-0.122713
H127	H	1.333480	-0.761484	-0.218051
H128	H	1.329216	-0.830124	-0.166378
C129	C	0.934308	-0.285227	-0.244526
C130	C	0.853133	-0.274549	-0.235415
H131	H	0.962304	-0.250873	-0.215197
H132	H	0.947812	-0.338314	-0.234542
H133	H	0.947861	-0.273724	-0.290019
H134	H	0.839579	-0.286058	-0.189923
H135	H	0.839623	-0.221450	-0.245395
C136	C	1.237892	-1.172022	-0.244507
C137	C	1.248561	-1.090848	-0.235383
H138	H	1.272201	-1.200023	-0.215138
H139	H	1.184790	-1.185567	-0.234584
H140	H	1.249465	-1.185528	-0.289987
H141	H	1.236982	-1.077341	-0.189904
H142	H	1.301675	-1.077297	-0.245301
C143	C	1.231528	-0.196249	-0.947317
C144	C	1.248565	-0.274530	-0.930218
H145	H	1.265837	-0.161948	-0.923344
H146	H	1.238775	-0.189014	-0.994471
H147	H	1.178420	-0.184694	-0.935721
H148	H	1.301672	-0.286087	-0.941819
H149	H	1.241325	-0.281769	-0.883054
C150	C	0.485847	-0.230154	-0.197529
C151	C	0.432195	-0.274580	-0.235468
H152	H	0.457831	-0.195804	-0.168209
H153	H	0.518015	-0.264555	-0.171587
H154	H	0.518074	-0.199962	-0.227063
H155	H	0.399972	-0.304776	-0.205933
H156	H	0.400014	-0.240174	-0.261411
H157	H	1.234111	-0.289035	-0.584525
H158	H	1.050501	-0.681720	-0.404624
H159	H	0.717612	-0.523239	-0.447774
C160	C	1.237924	-0.285135	-1.148106
C161	C	1.248593	-0.274490	-1.078601
H162	H	1.272244	-0.250821	-1.172097
H163	H	1.249473	-0.338234	-1.159685
H164	H	1.184820	-0.273556	-1.159675
H165	H	1.301696	-0.286074	-1.067031
H166	H	1.237050	-0.221378	-1.067017
C167	C	1.203864	-0.622504	-0.191875
C168	C	1.248439	-0.669912	-0.235375
H169	H	1.238176	-0.594491	-0.162521
H170	H	1.173738	-0.586119	-0.217631
H171	H	1.169455	-0.654753	-0.165963
H172	H	1.282844	-0.637661	-0.261290
H173	H	1.278578	-0.706300	-0.209616
C174	C	0.609760	-0.582116	-0.498033
C175	C	0.556087	-0.537694	-0.460110
H176	H	0.581759	-0.616474	-0.527355
H177	H	0.641973	-0.547713	-0.523971
H178	H	0.641939	-0.612298	-0.468488
H179	H	0.523912	-0.507508	-0.489655
H180	H	0.523860	-0.572102	-0.434170
C181	C	0.996205	-0.712615	-0.451055
C182	C	0.985550	-0.793788	-0.460202
H183	H	0.961875	-0.684610	-0.480402
H184	H	0.984660	-0.699133	-0.405572
H185	H	1.049305	-0.699053	-0.461001
H186	H	0.932451	-0.807352	-0.450252
H187	H	0.997090	-0.807276	-0.505696
H188	H	1.050652	-1.079137	-0.404653
H189	H	1.234127	-0.288997	-0.712759
