data_functionalizedCrystal
_audit_creation_method	'MofGen! by Chris Wilmer'
_symmetry_space_group_name_H-M	'P1'
_symmetry_Int_Tables_number	1
_symmetry_cell_setting	triclinic
loop_
_symmetry_equiv_pos_as_xyz
  x,y,z
_cell_length_a	19.805407
_cell_length_b	15.297327
_cell_length_c	19.805399
_cell_angle_alpha	80.350583
_cell_angle_beta	90.019573
_cell_angle_gamma	99.707092
loop_
_atom_site_label
_atom_site_type_symbol
_atom_site_fract_x
_atom_site_fract_y
_atom_site_fract_z
Zn1	Zn	0.988098	-0.359189	0.429336
Zn2	Zn	1.488098	0.140811	0.929336
Zn3	Zn	0.968423	-0.510058	0.335728
Zn4	Zn	1.468423	-0.010058	0.835728
Zn5	Zn	0.874909	-0.359214	0.316164
Zn6	Zn	1.374909	0.140786	0.816164
Zn7	Zn	0.855293	-0.510010	0.448869
Zn8	Zn	1.355293	-0.010010	0.948869
O9	O	0.921681	-0.434618	0.382524
O10	O	1.421681	0.065382	0.882524
O11	O	1.080203	-0.379212	0.416932
O12	O	1.580203	0.120788	0.916932
O13	O	0.955994	-0.490079	0.238420
O14	O	1.455994	0.009921	0.738420
O15	O	0.906367	-0.232963	0.314814
O16	O	1.406367	0.267037	0.814814
O17	O	1.065749	-0.490055	0.348159
O18	O	1.565749	0.009945	0.848159
O19	O	0.989526	-0.232945	0.397962
O20	O	1.489526	0.267055	0.897962
O21	O	0.887290	-0.379254	0.224047
O22	O	1.387290	0.120746	0.724047
O23	O	0.777592	-0.379208	0.333754
O24	O	1.277592	0.120792	0.833754
O25	O	0.872934	-0.489973	0.540990
O26	O	1.372934	0.010027	1.040990
O27	O	0.763180	-0.489997	0.431252
O28	O	1.263180	0.010003	0.931252
O29	O	0.970505	-0.379166	0.526640
O30	O	1.470505	0.120834	1.026640
O31	O	0.936973	-0.636300	0.367099
O32	O	1.436973	-0.136300	0.867099
O33	O	0.853857	-0.636265	0.450222
O34	O	1.353857	-0.136265	0.950222
C35	C	0.745827	-0.434601	0.382500
C36	C	1.245827	0.065399	0.882500
C37	C	0.670593	-0.434615	0.382509
C38	C	1.170593	0.065385	0.882509
C39	C	0.627751	-0.492390	0.433217
C40	C	1.127751	0.007610	0.933217
C41	C	0.557063	-0.492392	0.433227
C42	C	1.057063	0.007608	0.933227
C43	C	0.529217	-0.434622	0.382525
C44	C	1.029217	0.065378	0.882525
C45	C	0.572065	-0.376841	0.331814
C46	C	1.072065	0.123159	0.831814
C47	C	0.642752	-0.376835	0.331808
C48	C	1.142752	0.123165	0.831808
C49	C	0.286989	-0.376861	0.331839
C50	C	0.786989	0.123139	0.831839
C51	C	0.216295	-0.376873	0.331848
C52	C	0.716295	0.123127	0.831848
C53	C	0.201299	-0.492417	0.433258
C54	C	0.701299	0.007583	0.933258
C55	C	0.271987	-0.492412	0.433252
C56	C	0.771987	0.007588	0.933252
C57	C	0.314829	-0.434627	0.382543
C58	C	0.814829	0.065373	0.882543
C59	C	0.391477	-0.434625	0.382534
C60	C	0.891477	0.065375	0.882534
C61	C	0.452569	-0.434628	0.382531
C62	C	0.952569	0.065372	0.882531
C63	C	0.891170	-0.669017	0.412918
C64	C	1.391170	-0.169017	0.912918
C65	C	0.878179	-0.769294	0.425943
C66	C	1.378179	-0.269294	0.925943
C67	C	1.014807	-1.051906	0.289663
C68	C	1.514807	-0.551906	0.789663
C69	C	1.027012	-0.957691	0.277422
C70	C	1.527012	-0.457691	0.777422
C71	C	0.989805	-0.910587	0.314551
C72	C	1.489805	-0.410587	0.814551
C73	C	0.940391	-0.957708	0.363923
C74	C	1.440391	-0.457708	0.863923
C75	C	0.928180	-1.051932	0.376162
C76	C	1.428180	-0.551932	0.876162
C77	C	0.903178	-0.910613	0.401050
C78	C	1.403178	-0.410613	0.901050
C79	C	0.853764	-0.957734	0.450423
C80	C	1.353764	-0.457734	0.950423
C81	C	0.841556	-1.051949	0.462659
C82	C	1.341556	-0.551949	0.962659
C83	C	0.878763	-1.099053	0.425530
C84	C	1.378763	-0.599053	0.925530
C85	C	0.915389	-0.816389	0.388812
C86	C	1.415389	-0.316389	0.888812
C87	C	0.828762	-0.816415	0.475311
C88	C	1.328762	-0.316415	0.975311
C89	C	0.816557	-0.910630	0.487552
C90	C	1.316557	-0.410630	0.987552
C91	C	1.098221	-0.434636	0.382549
C92	C	1.598221	0.065364	0.882549
C93	C	1.173452	-0.434644	0.382559
C94	C	1.673452	0.065356	0.882559
C95	C	0.921726	-0.434561	0.559060
C96	C	1.421726	0.065439	1.059060
C97	C	0.921746	-0.434537	0.634289
C98	C	1.421746	0.065463	1.134289
C99	C	0.952329	-0.199304	0.352027
C100	C	1.452329	0.300696	0.852027
C101	C	0.965390	-0.099027	0.339031
C102	C	1.465390	0.400973	0.839031
C103	C	0.921683	-0.434610	0.206667
C104	C	1.421683	0.065390	0.706667
C105	C	0.921828	-0.434380	0.131406
C106	C	1.421828	0.065620	0.631406
C107	C	0.972552	-0.376837	0.662161
C108	C	1.472552	0.123163	1.162161
C109	C	0.972562	-0.376810	0.732846
C110	C	1.472562	0.123190	1.232846
C111	C	0.921768	-0.434490	0.775658
C112	C	1.421768	0.065510	1.275658
C113	C	0.870957	-0.492193	0.747781
C114	C	1.370957	0.007807	1.247781
C115	C	0.870944	-0.492214	0.677096
C116	C	1.370944	0.007786	1.177096
C117	C	0.871006	-0.492109	1.032843
C118	C	1.371006	0.007891	1.532843
C119	C	0.871024	-0.492085	1.103533
C120	C	1.371024	0.007915	1.603533
C121	C	0.972624	-0.376705	1.088593
C122	C	1.472624	0.123295	1.588593
C123	C	0.972612	-0.376726	1.017909
C124	C	1.472612	0.123274	1.517909
C125	C	0.921798	-0.434426	0.990037
C126	C	1.421798	0.065574	1.490037
C127	C	0.921787	-0.434452	0.913392
C128	C	1.421787	0.065548	1.413392
C129	C	0.921782	-0.434469	0.852303
C130	C	1.421782	0.065531	1.352303
H131	H	0.166408	-0.539464	0.474549
H132	H	0.666408	-0.039464	0.974549
H133	H	0.829658	-0.539057	1.138389
H134	H	1.329658	-0.039057	1.638389
N135	N	0.510855	-0.554716	0.487915
N136	N	1.010855	-0.054716	0.987915
H137	H	0.461849	-0.545953	0.480229
H138	H	0.961849	-0.045953	0.980229
H139	H	0.525049	-0.540764	0.534462
H140	H	1.025049	-0.040764	1.034462
H141	H	0.801311	-1.090312	0.502854
H142	H	1.301311	-0.590312	1.002854
H143	H	1.013936	-0.329827	0.755537
H144	H	1.513936	0.170173	1.255537
H145	H	0.776322	-0.949009	0.527751
H146	H	1.276322	-0.449009	1.027751
N147	N	1.027399	-0.314520	0.971734
N148	N	1.527399	0.185480	1.471734
H149	H	1.059587	-0.277961	1.000117
H150	H	1.559587	0.222039	1.500117
H151	H	1.005279	-0.272777	0.936990
H152	H	1.505279	0.227223	1.436990
H153	H	1.013916	-0.329870	0.627308
H154	H	1.513916	0.170130	1.127308
N155	N	0.968689	-0.765579	0.335568
N156	N	1.468689	-0.265579	0.835568
H157	H	1.005113	-0.726432	0.358020
H158	H	1.505113	-0.226432	0.858020
H159	H	0.946208	-0.726593	0.299119
H160	H	1.446208	-0.226593	0.799119
N161	N	0.542031	-0.314538	0.277124
N162	N	1.042031	0.185462	0.777124
H163	H	0.579900	-0.277936	0.245000
H164	H	1.079900	0.222064	0.745000
H165	H	0.518139	-0.272838	0.299320
H166	H	1.018139	0.227162	0.799320
N167	N	0.302020	-0.554725	0.487933
N168	N	0.802020	-0.054725	0.987933
H169	H	0.264153	-0.591326	0.520059
H170	H	0.764153	-0.091326	1.020059
H171	H	0.336135	-0.518054	0.514543
H172	H	0.836135	-0.018054	1.014543
N173	N	1.054920	-1.102719	0.249616
N174	N	1.554920	-0.602719	0.749616
H175	H	1.081210	-1.141760	0.282219
H176	H	1.581210	-0.641760	0.782219
H177	H	1.088041	-1.058525	0.216482
H178	H	1.588041	-0.558525	0.716482
H179	H	0.193626	-0.329824	0.290560
H180	H	0.693626	0.170176	0.790560
H181	H	0.677635	-0.329784	0.290519
H182	H	1.177635	0.170216	0.790519
N183	N	0.816141	-0.554439	0.647029
N184	N	1.316141	-0.054439	1.147029
H185	H	0.783964	-0.590975	0.684875
H186	H	1.283964	-0.090975	1.184875
H187	H	0.838242	-0.596204	0.623114
H188	H	1.338242	-0.096204	1.123114
H189	H	0.321862	-0.329816	0.290545
H190	H	0.821862	0.170184	0.790545
N191	N	0.657784	-0.554698	0.487903
N192	N	1.157784	-0.054698	0.987903
H193	H	0.681664	-0.596457	0.465757
H194	H	1.181664	-0.096457	0.965757
H195	H	0.619881	-0.591236	0.520011
H196	H	1.119881	-0.091236	1.020011
H197	H	0.999745	-0.833873	0.304581
H198	H	1.499745	-0.333873	0.804581
H199	H	1.013997	-0.329721	1.111294
H200	H	1.513997	0.170279	1.611294
N201	N	1.080312	-0.906870	0.224182
N202	N	1.580312	-0.406870	0.724182
H203	H	1.102034	-0.951004	0.202521
H204	H	1.602034	-0.451004	0.702521
H205	H	1.116689	-0.867726	0.246685
H206	H	1.616689	-0.367726	0.746685
H207	H	0.868830	-1.175770	0.435496
H208	H	1.368830	-0.675770	0.935496
H209	H	0.829639	-0.539104	1.010161
H210	H	1.329639	-0.039104	1.510161
N211	N	0.788623	-0.765623	0.515358
N212	N	1.288623	-0.265623	1.015358
H213	H	0.803857	-0.698785	0.500115
H214	H	1.303857	-0.198785	1.000115
H215	H	0.797000	-0.782039	0.565841
H216	H	1.297000	-0.282039	1.065841
H217	H	0.829597	-0.539153	0.782644
H218	H	1.329597	-0.039153	1.282644
