data_functionalizedCrystal
_audit_creation_method	'MofGen! by Chris Wilmer'
_symmetry_space_group_name_H-M	'P1'
_symmetry_Int_Tables_number	1
_symmetry_cell_setting	triclinic
loop_
_symmetry_equiv_pos_as_xyz
  x,y,z
_cell_length_a	19.288864
_cell_length_b	17.699083
_cell_length_c	17.766277
_cell_angle_alpha	89.992740
_cell_angle_beta	89.976791
_cell_angle_gamma	83.209630
loop_
_atom_site_label
_atom_site_type_symbol
_atom_site_fract_x
_atom_site_fract_y
_atom_site_fract_z
O1	O	0.921465	0.094417	-0.062837
O2	O	1.421465	0.594417	0.437163
O3	O	0.719219	0.107154	-0.062786
O4	O	1.219219	0.607154	0.437214
O5	O	0.826056	-0.009412	-0.062806
O6	O	1.326056	0.490588	0.437194
O7	O	0.814628	0.210983	-0.062817
O8	O	1.314628	0.710983	0.437183
O9	O	0.826037	-0.009417	0.062382
O10	O	1.326037	0.490583	0.562382
O11	O	0.719201	0.107148	0.062403
O12	O	1.219201	0.607148	0.562403
O13	O	0.921446	0.094411	0.062351
O14	O	1.421446	0.594411	0.562351
Cu15	Cu	0.820322	0.100779	0.073808
Cu16	Cu	1.320322	0.600779	0.573808
Cu17	Cu	0.820344	0.100786	-0.074242
Cu18	Cu	1.320344	0.600786	0.425758
O19	O	0.814609	0.210977	0.062372
O20	O	1.314609	0.710977	0.562372
C21	C	0.693333	0.106741	-0.000185
C22	C	1.193333	0.606741	0.499815
C23	C	0.616228	0.105511	-0.000165
C24	C	1.116228	0.605511	0.499835
C25	C	0.571613	0.173906	-0.000180
C26	C	1.071613	0.673906	0.499820
C27	C	0.499164	0.172751	-0.000188
C28	C	0.999164	0.672751	0.499812
C29	C	0.471334	0.103196	-0.000197
C30	C	0.971334	0.603196	0.499803
C31	C	0.515959	0.034791	-0.000177
C32	C	1.015959	0.534791	0.499823
C33	C	0.588406	0.035949	-0.000162
C34	C	1.088406	0.535949	0.499838
C35	C	0.363014	0.048520	-0.044079
C36	C	0.863014	0.548520	0.455921
C37	C	0.290568	0.047365	-0.044099
C38	C	0.790568	0.547365	0.455901
C39	C	0.247884	0.099622	-0.000242
C40	C	0.747884	0.599622	0.499758
C41	C	0.277654	0.153047	0.043625
C42	C	0.777654	0.653047	0.543625
C43	C	0.350101	0.154204	0.043641
C44	C	0.850101	0.654204	0.543641
C45	C	0.392779	0.101932	-0.000213
C46	C	0.892779	0.601932	0.499787
C47	C	0.124712	0.166769	-0.000265
C48	C	0.624712	0.666769	0.499735
C49	C	0.052262	0.165610	-0.000269
C50	C	0.552262	0.665610	0.499731
C51	C	0.069059	0.027649	-0.000265
C52	C	0.569059	0.527649	0.499735
C53	C	0.141507	0.028809	-0.000254
C54	C	0.641507	0.528809	0.499746
C55	C	0.169329	0.098371	-0.000258
C56	C	0.669329	0.598371	0.499742
C57	C	0.825637	-0.037611	-0.000212
C58	C	1.325637	0.462389	0.499788
C59	C	0.824409	-0.121627	-0.000211
C60	C	1.324409	0.378373	0.499789
C61	C	0.887120	-0.170336	-0.000226
C62	C	1.387120	0.329664	0.499774
C63	C	0.885961	-0.249278	-0.000232
C64	C	1.385961	0.250722	0.499768
C65	C	0.822091	-0.279509	-0.000219
C66	C	1.322091	0.220491	0.499781
C67	C	0.759375	-0.230794	-0.000206
C68	C	1.259375	0.269206	0.499794
C69	C	0.760535	-0.151854	-0.000205
C70	C	1.260535	0.348146	0.499795
C71	C	0.754699	-0.549150	-0.000211
C72	C	1.254699	-0.049150	0.499789
C73	C	0.753545	-0.628097	-0.000210
C74	C	1.253545	-0.128097	0.499790
C75	C	0.880126	-0.646575	-0.000238
C76	C	1.380126	-0.146575	0.499762
C77	C	0.881285	-0.567635	-0.000237
C78	C	1.381285	-0.067635	0.499763
C79	C	0.818570	-0.518926	-0.000229
C80	C	1.318570	-0.018926	0.499771
C81	C	0.819827	-0.433329	-0.000223
C82	C	1.319827	0.066671	0.499777
C83	C	0.820834	-0.365105	-0.000219
C84	C	1.320834	0.134895	0.499781
C85	C	0.947332	0.094824	-0.000251
C86	C	1.447332	0.594824	0.499749
C87	C	1.024437	0.096054	-0.000276
C88	C	1.524437	0.596054	0.499724
C89	C	0.815028	0.239176	-0.000224
C90	C	1.315028	0.739176	0.499776
C91	C	0.816257	0.323193	-0.000230
C92	C	1.316257	0.823193	0.499770
N93	N	0.820311	0.100774	0.177938
N94	N	1.320311	0.600774	0.677938
N95	N	0.820360	0.100786	-0.178372
N96	N	1.320360	0.600786	0.321628
C97	C	0.867634	0.049184	0.217316
C98	C	1.367634	0.549184	0.717316
C99	C	0.867638	0.049180	0.296118
C100	C	1.367638	0.549180	0.796118
C101	C	0.820326	0.100780	0.335539
C102	C	1.320326	0.600780	0.835539
C103	C	0.772994	0.152374	0.296151
C104	C	1.272994	0.652374	0.796151
C105	C	0.772987	0.152371	0.217351
C106	C	1.272987	0.652371	0.717351
C107	C	0.811109	0.169742	0.460375
C108	C	1.311109	0.669742	0.960375
C109	C	0.811121	0.169746	0.539174
C110	C	1.311121	0.669746	1.039174
C111	C	0.820344	0.100789	0.578585
C112	C	1.320344	0.600789	1.078585
C113	C	0.829570	0.031825	0.539188
C114	C	1.329570	0.531825	1.039188
C115	C	0.829563	0.031822	0.460388
C116	C	1.329563	0.531822	0.960388
C117	C	0.820328	0.100789	0.420984
C118	C	1.320328	0.600789	0.920984
C119	C	0.867674	0.049191	0.703409
C120	C	1.367674	0.549191	1.203409
C121	C	0.867673	0.049186	0.782212
C122	C	1.367673	0.549186	1.282212
C123	C	0.773033	0.152386	0.782244
C124	C	1.273033	0.652386	1.282244
C125	C	0.773030	0.152384	0.703442
C126	C	1.273030	0.652384	1.203442
C127	C	0.820355	0.100787	0.664029
C128	C	1.320355	0.600787	1.164029
H129	H	0.462831	0.228448	-0.000199
H130	H	0.962831	0.728448	0.499801
H131	H	0.906206	0.007175	0.671318
H132	H	1.406206	0.507175	1.171318
H133	H	0.242902	0.195599	0.079339
H134	H	0.742902	0.695599	0.579339
Cl135	Cl	0.967418	-0.132340	-0.000236
Cl136	Cl	1.467418	0.367660	0.499764
H137	H	0.734508	0.194397	0.814340
H138	H	1.234508	0.694397	1.314340
H139	H	0.374336	0.197702	0.079362
H140	H	0.874336	0.697702	0.579362
Cl141	Cl	0.416667	-0.017182	-0.099218
Cl142	Cl	0.916667	0.482818	0.400782
H143	H	0.734499	0.194397	0.671379
H144	H	1.234499	0.694397	1.171379
Cl145	Cl	0.253150	-0.019790	-0.099254
Cl146	Cl	0.753150	0.480210	0.400746
Cl147	Cl	0.799577	0.256441	0.410837
Cl148	Cl	1.299577	0.756441	0.910837
Cl149	Cl	0.841153	-0.054870	0.410862
Cl150	Cl	1.341153	0.445130	0.910862
H151	H	0.937027	-0.288934	-0.000243
H152	H	1.437027	0.211066	0.499757
H153	H	0.906207	0.007171	0.814274
H154	H	1.406207	0.507171	1.314274
H155	H	0.734471	0.194386	0.328252
H156	H	1.234471	0.694386	0.828252
H157	H	0.701531	-0.652707	-0.000197
H158	H	1.201531	-0.152707	0.499803
Cl159	Cl	0.799527	0.256441	0.588693
Cl160	Cl	1.299527	0.756441	1.088693
H161	H	0.624733	-0.019749	-0.000150
H162	H	1.124733	0.480251	0.499850
H163	H	0.709469	-0.112195	-0.000193
H164	H	1.209469	0.387805	0.499807
Cl165	Cl	0.713492	0.217233	0.167844
Cl166	Cl	1.213492	0.717233	0.667844
Cl167	Cl	0.679081	-0.268799	-0.000198
Cl168	Cl	1.179081	0.231201	0.499802
H169	H	0.933295	-0.543025	-0.000245
H170	H	1.433295	-0.043025	0.499755
H171	H	0.931192	-0.686243	-0.000249
H172	H	1.431192	-0.186243	0.499751
H173	H	0.493296	-0.021841	-0.000195
H174	H	0.993296	0.478159	0.499805
H175	H	0.703632	-0.509501	-0.000204
H176	H	1.203632	-0.009501	0.499796
Cl177	Cl	0.927122	-0.015683	0.167769
Cl178	Cl	1.427122	0.484317	0.667769
Cl179	Cl	0.927135	-0.015681	0.345630
Cl180	Cl	1.427135	0.484319	0.845630
H181	H	0.594260	0.230549	-0.000184
H182	H	1.094260	0.730549	0.499816
Cl183	Cl	0.841172	-0.054869	0.588724
Cl184	Cl	1.341172	0.445131	1.088724
H185	H	0.015936	0.221308	-0.000277
H186	H	0.515936	0.721308	0.499723
Cl187	Cl	0.034080	-0.059793	-0.000267
Cl188	Cl	0.534080	0.440207	0.499733
Cl189	Cl	0.159691	0.254216	-0.000262
Cl190	Cl	0.659691	0.754216	0.499738
H191	H	0.177834	-0.026886	-0.000246
H192	H	0.677834	0.473114	0.499754
