data_functionalizedCrystal
_audit_creation_method	'MofGen! by Chris Wilmer'
_symmetry_space_group_name_H-M	'P1'
_symmetry_Int_Tables_number	1
_symmetry_cell_setting	triclinic
loop_
_symmetry_equiv_pos_as_xyz
  x,y,z
_cell_length_a	19.288864
_cell_length_b	14.853567
_cell_length_c	17.766277
_cell_angle_alpha	89.997439
_cell_angle_beta	89.976791
_cell_angle_gamma	83.385589
loop_
_atom_site_label
_atom_site_type_symbol
_atom_site_fract_x
_atom_site_fract_y
_atom_site_fract_z
O1	O	0.921733	0.112464	-0.062829
O2	O	1.255066	0.445798	0.270504
O3	O	1.588399	0.779131	0.603837
O4	O	0.719523	0.127636	-0.062777
O5	O	1.052857	0.460969	0.270556
O6	O	1.386190	0.794302	0.603889
O7	O	0.826029	-0.011211	-0.062807
O8	O	1.159363	0.322123	0.270526
O9	O	1.492696	0.655456	0.603860
O10	O	0.815227	0.251310	-0.062800
O11	O	1.148560	0.584644	0.270534
O12	O	1.481893	0.917977	0.603867
O13	O	0.826011	-0.011218	0.062382
O14	O	1.159344	0.322116	0.395715
O15	O	1.492677	0.655449	0.729048
O16	O	0.719504	0.127629	0.062411
O17	O	1.052838	0.460962	0.395745
O18	O	1.386171	0.794295	0.729078
O19	O	0.921714	0.112457	0.062359
O20	O	1.255047	0.445791	0.395692
O21	O	1.588381	0.779124	0.729026
Cu22	Cu	0.820607	0.120042	0.073816
Cu23	Cu	1.153941	0.453376	0.407149
Cu24	Cu	1.487274	0.786709	0.740483
Cu25	Cu	0.820630	0.120051	-0.074234
Cu26	Cu	1.153963	0.453384	0.259099
Cu27	Cu	1.487296	0.786717	0.592433
O28	O	0.815208	0.251303	0.062389
O29	O	1.148541	0.584637	0.395722
O30	O	1.481875	0.917970	0.729056
C31	C	0.693636	0.127144	-0.000176
C32	C	1.026969	0.460477	0.333157
C33	C	1.360302	0.793811	0.666490
C34	C	0.616527	0.125679	-0.000157
C35	C	0.949861	0.459012	0.333177
C36	C	1.283194	0.792345	0.666510
C37	C	0.572106	0.207147	-0.000166
C38	C	0.905439	0.540480	0.333167
C39	C	1.238773	0.873814	0.666500
C40	C	0.499654	0.205770	-0.000175
C41	C	0.832988	0.539104	0.333159
C42	C	1.166321	0.872437	0.666492
C43	C	0.471627	0.122920	-0.000188
C44	C	0.804960	0.456254	0.333145
C45	C	1.138294	0.789587	0.666478
C46	C	0.516058	0.041441	-0.000175
C47	C	0.849391	0.374775	0.333159
C48	C	1.182725	0.708108	0.666492
C49	C	0.588508	0.042820	-0.000159
C50	C	0.921842	0.376154	0.333175
C51	C	1.255175	0.709487	0.666508
C52	C	0.363152	0.057794	-0.044075
C53	C	0.696485	0.391127	0.289259
C54	C	1.029818	0.724460	0.622592
C55	C	0.290703	0.056418	-0.044095
C56	C	0.624036	0.389751	0.289238
C57	C	0.957369	0.723085	0.622571
C58	C	0.248167	0.118664	-0.000234
C59	C	0.581500	0.451997	0.333099
C60	C	0.914834	0.785330	0.666433
C61	C	0.278088	0.182300	0.043638
C62	C	0.611421	0.515634	0.376971
C63	C	0.944755	0.848967	0.710304
C64	C	0.350538	0.183679	0.043654
C65	C	0.683871	0.517013	0.376987
C66	C	1.017205	0.850346	0.710320
C67	C	0.393068	0.121416	-0.000205
C68	C	0.726401	0.454749	0.333128
C69	C	1.059735	0.788083	0.666461
C70	C	0.125185	0.198645	-0.000252
C71	C	0.458518	0.531978	0.333082
C72	C	0.791851	0.865312	0.666415
C73	C	0.052732	0.197265	-0.000255
C74	C	0.386065	0.530598	0.333078
C75	C	0.719399	0.863932	0.666411
C76	C	0.069138	0.032933	-0.000263
C77	C	0.402471	0.366267	0.333070
C78	C	0.735804	0.699600	0.666404
C79	C	0.141589	0.034316	-0.000252
C80	C	0.474922	0.367649	0.333082
C81	C	0.808255	0.700983	0.666415
C82	C	0.169608	0.117174	-0.000250
C83	C	0.502941	0.450508	0.333084
C84	C	0.836274	0.783841	0.666417
C85	C	0.825530	-0.044800	-0.000215
C86	C	1.158864	0.288533	0.333119
C87	C	1.492197	0.621867	0.666452
C88	C	0.824064	-0.144875	-0.000221
C89	C	1.157397	0.188458	0.333112
C90	C	1.490730	0.521791	0.666446
C91	C	0.754596	-0.557014	-0.000189
C92	C	1.087930	-0.223681	0.333145
C93	C	1.421263	0.109653	0.666478
C94	C	0.881128	-0.579015	-0.000221
C95	C	1.214461	-0.245681	0.333112
C96	C	1.547795	0.087652	0.666445
C97	C	0.882507	-0.484989	-0.000226
C98	C	1.215840	-0.151655	0.333107
C99	C	1.549174	0.181678	0.666440
C100	C	0.819930	-0.426971	-0.000211
C101	C	1.153263	-0.093638	0.333122
C102	C	1.486597	0.239696	0.666456
C103	C	0.755974	-0.462979	-0.000191
C104	C	1.089307	-0.129646	0.333142
C105	C	1.422640	0.203687	0.666475
C106	C	0.946462	-0.448973	-0.000239
C107	C	1.279796	-0.115640	0.333095
C108	C	1.613129	0.217693	0.666428
C109	C	0.947844	-0.354942	-0.000242
C110	C	1.281177	-0.021609	0.333091
C111	C	1.614511	0.311725	0.666424
C112	C	0.885266	-0.296923	-0.000233
C113	C	1.218599	0.036411	0.333101
C114	C	1.551933	0.369744	0.666434
C115	C	0.821307	-0.332936	-0.000214
C116	C	1.154641	0.000397	0.333120
C117	C	1.487974	0.333731	0.666453
C118	C	0.758730	-0.274918	-0.000199
C119	C	1.092063	0.058415	0.333135
C120	C	1.425397	0.391748	0.666468
C121	C	0.694770	-0.310930	-0.000185
C122	C	1.028104	0.022403	0.333149
C123	C	1.361437	0.355737	0.666482
C124	C	0.693396	-0.404960	-0.000181
C125	C	1.026729	-0.071626	0.333152
C126	C	1.360062	0.261707	0.666485
C127	C	0.886641	-0.202893	-0.000236
C128	C	1.219974	0.130440	0.333097
C129	C	1.553307	0.463774	0.666431
C130	C	0.760107	-0.180883	-0.000201
C131	C	1.093441	0.152450	0.333132
C132	C	1.426774	0.485783	0.666466
C133	C	0.947601	0.112949	-0.000243
C134	C	1.280935	0.446282	0.333090
C135	C	1.614268	0.779616	0.666423
C136	C	1.024710	0.114414	-0.000268
C137	C	1.358043	0.447748	0.333065
C138	C	1.691377	0.781081	0.666399
C139	C	0.815707	0.284893	-0.000205
C140	C	1.149040	0.618226	0.333128
C141	C	1.482373	0.951559	0.666462
C142	C	0.817174	0.384968	-0.000204
C143	C	1.150507	0.718302	0.333130
C144	C	1.483840	1.051635	0.666463
N145	N	0.820597	0.120036	0.177946
N146	N	1.153930	0.453369	0.511280
N147	N	1.487264	0.786703	0.844613
N148	N	0.820646	0.120050	-0.178364
N149	N	1.153979	0.453383	0.154969
N150	N	1.487312	0.786716	0.488302
C151	C	0.867773	0.058585	0.217320
C152	C	1.201107	0.391918	0.550653
C153	C	1.534440	0.725252	0.883987
C154	C	0.867777	0.058581	0.296122
C155	C	1.201111	0.391914	0.629455
C156	C	1.534444	0.725247	0.962788
C157	C	0.820612	0.120043	0.335547
C158	C	1.153945	0.453376	0.668880
C159	C	1.487278	0.786710	1.002213
C160	C	0.773427	0.181499	0.296164
C161	C	1.106760	0.514832	0.629497
C162	C	1.440093	0.848165	0.962830
C163	C	0.773419	0.181495	0.217363
C164	C	1.106753	0.514828	0.550697
C165	C	1.440086	0.848162	0.884030
C166	C	0.811590	0.202186	0.460389
C167	C	1.144923	0.535520	0.793722
C168	C	1.478257	0.868853	1.127055
C169	C	0.811602	0.202191	0.539187
C170	C	1.144936	0.535524	0.872521
C171	C	1.478269	0.868858	1.205854
C172	C	0.820630	0.120054	0.578593
C173	C	1.153964	0.453387	0.911926
C174	C	1.487297	0.786721	1.245260
C175	C	0.829661	0.037908	0.539190
C176	C	1.162994	0.371242	0.872524
C177	C	1.496327	0.704575	1.205857
C178	C	0.829653	0.037905	0.460390
C179	C	1.162987	0.371238	0.793723
C180	C	1.496320	0.704571	1.127057
C181	C	0.820614	0.120053	0.420992
C182	C	1.153947	0.453387	0.754326
C183	C	1.487281	0.786720	1.087659
C184	C	0.867813	0.058593	0.703413
C185	C	1.201147	0.391927	1.036746
C186	C	1.534480	0.725260	1.370079
C187	C	0.867813	0.058588	0.782216
C188	C	1.201146	0.391921	1.115549
C189	C	1.534479	0.725255	1.448883
C190	C	0.773465	0.181514	0.782256
C191	C	1.106799	0.514847	1.115590
C192	C	1.440132	0.848180	1.448923
C193	C	0.773463	0.181511	0.703455
C194	C	1.106796	0.514845	1.036788
C195	C	1.440129	0.848178	1.370121
C196	C	0.820640	0.120052	0.664038
C197	C	1.153974	0.453385	0.997371
C198	C	1.487307	0.786719	1.330704
H199	H	0.624677	-0.023524	-0.000151
H200	H	0.958010	0.309810	0.333182
H201	H	1.291344	0.643143	0.666515
Cl202	Cl	1.025125	-0.521912	-0.000241
Cl203	Cl	1.358458	-0.188579	0.333092
Cl204	Cl	1.691792	0.144755	0.666425
Cl205	Cl	0.927118	-0.018674	0.653859
Cl206	Cl	1.260452	0.314659	0.987192
Cl207	Cl	1.593785	0.647993	1.320525
Cl208	Cl	0.927090	-0.018678	0.345628
Cl209	Cl	1.260424	0.314655	0.678962
Cl210	Cl	1.593757	0.647988	1.012295
H211	H	0.999924	-0.325630	-0.000255
H212	H	1.333257	0.007703	0.333079
H213	H	1.666590	0.341037	0.666412
H214	H	0.493234	-0.026016	-0.000196
H215	H	0.826567	0.307317	0.333137
H216	H	1.159900	0.640651	0.666470
Cl217	Cl	0.841016	-0.065357	0.588720
Cl218	Cl	1.174350	0.267976	0.922053
Cl219	Cl	1.507683	0.601310	1.255387
H220	H	0.709148	-0.133651	-0.000192
H221	H	1.042482	0.199683	0.333141
H222	H	1.375815	0.533016	0.666475
H223	H	0.735002	0.231537	0.185305
H224	H	1.068335	0.564870	0.518638
H225	H	1.401668	0.898203	0.851971
Cl226	Cl	0.253094	-0.023573	-0.099256
Cl227	Cl	0.586428	0.309761	0.234078
Cl228	Cl	0.919761	0.643094	0.567411
H229	H	0.804226	0.269077	0.428311
H230	H	1.137560	0.602410	0.761644
H231	H	1.470893	0.935743	1.094978
H232	H	0.938716	-0.173576	-0.000242
H233	H	1.272049	0.159757	0.333091
H234	H	1.605382	0.493090	0.666424
H235	H	0.906227	0.008542	0.814275
H236	H	1.239560	0.341876	1.147608
H237	H	1.572894	0.675209	1.480941
Cl238	Cl	0.416618	-0.020466	-0.099220
Cl239	Cl	0.749952	0.312867	0.234114
Cl240	Cl	1.083285	0.646200	0.567447
Cl241	Cl	0.927077	-0.018681	0.167768
Cl242	Cl	1.260411	0.314652	0.501101
Cl243	Cl	1.593744	0.647986	0.834434
Cl244	Cl	0.033910	-0.071222	-0.000272
Cl245	Cl	0.367244	0.262111	0.333062
Cl246	Cl	0.700577	0.595445	0.666395
H247	H	0.837004	-0.028981	0.428312
H248	H	1.170338	0.304353	0.761645
H249	H	1.503671	0.637686	1.094978
Cl250	Cl	0.616105	-0.237983	-0.000159
Cl251	Cl	0.949439	0.095350	0.333174
Cl252	Cl	1.282772	0.428684	0.666507
H253	H	0.735059	0.231554	0.814356
H254	H	1.068393	0.564887	1.147689
H255	H	1.401726	0.898221	1.481022
H256	H	0.735050	0.231554	0.671394
H257	H	1.068383	0.564887	1.004728
H258	H	1.401717	0.898221	1.338061
H259	H	0.804254	0.269079	0.571263
H260	H	1.137587	0.602412	0.904596
H261	H	1.470920	0.935745	1.237930
Cl262	Cl	0.714130	0.258762	0.345725
Cl263	Cl	1.047463	0.592096	0.679058
Cl264	Cl	1.380796	0.925429	1.012391
Cl265	Cl	0.674194	-0.602283	-0.000179
Cl266	Cl	1.007527	-0.268950	0.333155
Cl267	Cl	1.340861	0.064383	0.666488
Cl268	Cl	0.607326	0.311312	-0.000160
Cl269	Cl	0.940659	0.644645	0.333173
Cl270	Cl	1.273993	0.977978	0.666507
Cl271	Cl	0.197436	-0.068108	-0.000244
Cl272	Cl	0.530769	0.265225	0.333089
Cl273	Cl	0.864102	0.598559	0.666422
H274	H	0.641323	-0.434289	-0.000169
H275	H	0.974656	-0.100956	0.333164
H276	H	1.307990	0.232377	0.666497
H277	H	0.463479	0.272114	-0.000180
H278	H	0.796813	0.605447	0.333153
H279	H	1.130146	0.938781	0.666486
H280	H	0.374897	0.235492	0.079378
H281	H	0.708230	0.568825	0.412711
H282	H	1.041564	0.902158	0.746045
Cl283	Cl	0.160412	0.302807	-0.000242
Cl284	Cl	0.493746	0.636141	0.333092
Cl285	Cl	0.827079	0.969474	0.666425
Cl286	Cl	0.224623	0.260558	0.098781
Cl287	Cl	0.557956	0.593892	0.432114
Cl288	Cl	0.891289	0.927225	0.765448
Cl289	Cl	0.959792	-0.651951	-0.000228
Cl290	Cl	1.293125	-0.318618	0.333105
Cl291	Cl	1.626458	0.014716	0.666439
H292	H	0.016564	0.263609	-0.000259
H293	H	0.349898	0.596943	0.333074
H294	H	0.683231	0.930276	0.666408
