data_functionalizedCrystal
_audit_creation_method	'MofGen! by Chris Wilmer'
_symmetry_space_group_name_H-M	'P1'
_symmetry_Int_Tables_number	1
_symmetry_cell_setting	triclinic
loop_
_symmetry_equiv_pos_as_xyz
  x,y,z
_cell_length_a	15.944493
_cell_length_b	15.021413
_cell_length_c	16.109301
_cell_angle_alpha	90.000024
_cell_angle_beta	83.468262
_cell_angle_gamma	89.992625
loop_
_atom_site_label
_atom_site_type_symbol
_atom_site_fract_x
_atom_site_fract_y
_atom_site_fract_z
O1	O	1.114506	0.074023	0.106993
O2	O	0.869945	0.074028	0.120263
O3	O	0.998944	0.074016	-0.007402
O4	O	0.985507	0.074035	0.234658
O5	O	0.998959	-0.074048	-0.007394
O6	O	0.869960	-0.074036	0.120271
O7	O	1.114521	-0.074041	0.107001
Zn8	Zn	0.992243	-0.097547	0.113637
Zn9	Zn	0.992223	0.097534	0.113627
O10	O	0.985522	-0.074030	0.234666
C11	C	0.838658	-0.000004	0.119725
C12	C	0.745410	-0.000002	0.118099
C13	C	0.509625	0.000004	0.193245
C14	C	0.459088	-0.073006	0.152726
C15	C	0.574690	-0.000004	0.115086
C16	C	0.459078	0.072973	0.152699
C17	C	0.409781	-0.000002	0.112181
C18	C	0.525381	-0.073075	0.074587
C19	C	0.525374	0.072971	0.074572
C20	C	0.474869	-0.000058	0.033995
C21	C	0.669689	-0.000006	0.116761
C22	C	0.314785	-0.000007	0.110499
N23	N	0.992263	-0.230685	0.113644
C24	C	1.051923	-0.470350	0.054598
C25	C	0.976027	-0.529678	0.038462
C26	C	0.992243	-0.412292	0.113633
C27	C	1.068121	-0.529704	0.129720
C28	C	0.992231	-0.587716	0.113621
C29	C	0.916308	-0.470314	0.097461
C30	C	1.008452	-0.470335	0.188751
C31	C	0.932501	-0.529637	0.172647
C32	C	0.992251	-0.311234	0.113638
C33	C	0.992214	-0.688771	0.113617
C34	C	1.145808	-0.000008	0.107539
C35	C	1.239056	-0.000003	0.109165
C36	C	0.998407	-0.000016	-0.038373
C37	C	0.996775	-0.000018	-0.130669
N38	N	0.992210	0.230671	0.113613
C39	C	1.069526	-0.000005	-0.352933
C40	C	1.067987	0.000003	-0.439653
C41	C	0.914934	0.000002	-0.419797
C42	C	0.916475	0.000001	-0.333078
C43	C	0.993773	-0.000007	-0.299648
C44	C	0.990693	0.000001	-0.473088
C45	C	0.989023	0.000009	-0.567114
C46	C	0.995444	-0.000013	-0.205616
C47	C	0.986059	0.000005	0.265637
C48	C	0.987691	0.000012	0.357932
H49	H	0.459426	-0.000105	-0.033382
O50	O	0.559875	0.146692	0.035347
C51	C	0.525912	0.223516	0.076772
H52	H	0.501284	0.206027	0.144006
H53	H	0.471861	0.250150	0.043274
C54	C	0.625343	0.316559	-0.006129
C55	C	0.595101	0.295081	0.076451
H56	H	0.668020	0.360706	-0.006329
H57	H	0.648223	0.264802	-0.034040
H58	H	0.580293	0.338749	-0.034034
H59	H	0.640148	0.272881	0.104352
H60	H	0.572230	0.346836	0.104367
O61	O	0.528359	-0.000188	0.273524
C62	C	0.576380	-0.076498	0.287301
H63	H	0.609170	-0.101580	0.225117
H64	H	0.533013	-0.130679	0.317416
C65	C	0.602854	-0.021978	0.422047
C66	C	0.643132	-0.052780	0.345672
H67	H	0.644027	-0.007350	0.458055
H68	H	0.570498	0.029432	0.412767
H69	H	0.566715	-0.067134	0.447131
H70	H	0.679261	-0.007620	0.320584
H71	H	0.675495	-0.104182	0.354949
H72	H	0.852000	0.000007	-0.447026
O73	O	1.024896	-0.439356	0.264553
C74	C	1.037154	-0.511793	0.317512
H75	H	1.056853	-0.572938	0.278118
H76	H	0.975822	-0.526426	0.358834
C77	C	1.082591	-0.413458	0.421143
C78	C	1.106792	-0.488555	0.372759
H79	H	1.125544	-0.399123	0.455225
H80	H	1.074329	-0.364655	0.385466
H81	H	1.031479	-0.425662	0.455571
H82	H	1.157897	-0.476346	0.338325
H83	H	1.115064	-0.537356	0.408432
O84	O	0.842806	-0.000041	-0.281430
C85	C	0.774250	-0.000019	-0.329529
H86	H	0.795585	-0.028052	-0.394257
H87	H	0.750548	0.071015	-0.335698
C88	C	0.676356	-0.023652	-0.206801
C89	C	0.702559	-0.058090	-0.286299
H90	H	0.632132	-0.059469	-0.180134
H91	H	0.722543	-0.023664	-0.174395
H92	H	0.656610	0.035542	-0.211953
H93	H	0.722314	-0.117279	-0.281145
H94	H	0.656373	-0.058090	-0.318703
H95	H	0.554226	-0.134860	0.041602
O96	O	0.424575	-0.146569	0.192239
C97	C	0.441930	-0.146316	0.276128
H98	H	0.454984	-0.075272	0.295969
H99	H	0.499592	-0.189579	0.282534
C100	C	0.349329	-0.270825	0.307938
C101	C	0.365355	-0.183566	0.332309
H102	H	0.302097	-0.293806	0.342594
H103	H	0.337639	-0.270999	0.251420
H104	H	0.397386	-0.306867	0.313277
H105	H	0.317302	-0.147524	0.326960
H106	H	0.377035	-0.183387	0.388828
H107	H	0.430122	0.134689	0.185720
H108	H	0.881971	-0.555505	0.222570
O109	O	1.141495	0.000043	-0.491532
C110	C	1.123566	0.000028	-0.575242
H111	H	1.057585	0.028060	-0.578553
H112	H	1.126766	-0.071004	-0.600328
C113	C	1.269825	0.023668	-0.624256
C114	C	1.188789	0.058104	-0.628323
H115	H	1.310059	0.059489	-0.657000
H116	H	1.281905	0.023675	-0.567859
H117	H	1.272479	-0.035525	-0.645159
H118	H	1.186132	0.117291	-0.607411
H119	H	1.176709	0.058109	-0.684718
O120	O	1.111981	-0.439325	-0.005098
C121	C	1.094569	-0.469583	-0.084199
H122	H	1.024582	-0.486216	-0.081846
H123	H	1.133613	-0.531694	-0.102025
C124	C	1.203307	-0.375832	-0.152595
C125	C	1.117346	-0.396255	-0.149707
H126	H	1.217360	-0.330603	-0.193005
H127	H	1.215040	-0.355450	-0.099304
H128	H	1.235833	-0.427598	-0.167447
H129	H	1.084821	-0.344492	-0.134845
H130	H	1.105607	-0.416627	-0.202998
H131	H	1.132295	-0.555792	0.143331
O132	O	0.959683	-0.560635	-0.037385
C133	C	0.948943	-0.488178	-0.090803
H134	H	0.982068	-0.427053	-0.068118
H135	H	0.878750	-0.473516	-0.090465
C136	C	0.946604	-0.586479	-0.208113
C137	C	0.987293	-0.511406	-0.180256
H138	H	0.970256	-0.600807	-0.263293
H139	H	0.953836	-0.635295	-0.172125
H140	H	0.888111	-0.574251	-0.207825
H141	H	1.045782	-0.523638	-0.180535
H142	H	0.980072	-0.462592	-0.216247
H143	H	0.852120	-0.444336	0.083777
O144	O	1.144684	0.000038	-0.320596
C145	C	1.211214	0.000022	-0.386227
H146	H	1.187674	0.028051	-0.445131
H147	H	1.234595	-0.071009	-0.398504
C148	C	1.313016	0.023670	-0.289415
C149	C	1.284105	0.058103	-0.361761
H150	H	1.357980	0.059493	-0.274324
H151	H	1.268194	0.023677	-0.245198
H152	H	1.332494	-0.035522	-0.299656
H153	H	1.264618	0.117289	-0.351517
H154	H	1.328926	0.058107	-0.405976
