data_functionalizedCrystal
_audit_creation_method	'MofGen! by Chris Wilmer'
_symmetry_space_group_name_H-M	'P1'
_symmetry_Int_Tables_number	1
_symmetry_cell_setting	triclinic
loop_
_symmetry_equiv_pos_as_xyz
  x,y,z
_cell_length_a	17.699104
_cell_length_b	17.699083
_cell_length_c	8.140239
_cell_angle_alpha	89.995596
_cell_angle_beta	89.996394
_cell_angle_gamma	83.287266
loop_
_atom_site_label
_atom_site_type_symbol
_atom_site_fract_x
_atom_site_fract_y
_atom_site_fract_z
O1	O	1.004064	0.095785	-0.136650
O2	O	1.504064	0.595785	0.363350
O3	O	0.783688	0.108221	-0.136646
O4	O	1.283688	0.608221	0.363354
O5	O	0.900102	-0.008186	-0.136634
O6	O	1.400102	0.491814	0.363366
O7	O	0.887650	0.212192	-0.136662
O8	O	1.387650	0.712192	0.363338
O9	O	0.900096	-0.008187	0.136593
O10	O	1.400096	0.491813	0.636593
O11	O	0.783681	0.108220	0.136581
O12	O	1.283681	0.608220	0.636581
O13	O	1.004058	0.095784	0.136577
O14	O	1.504058	0.595784	0.636577
Zn15	Zn	0.893869	0.102002	0.179960
Zn16	Zn	1.393869	0.602002	0.679960
Zn17	Zn	0.893877	0.102003	-0.180029
Zn18	Zn	1.393877	0.602003	0.319971
O19	O	0.887643	0.212191	0.136565
O20	O	1.387643	0.712191	0.636565
C21	C	0.755488	0.107772	-0.000032
C22	C	1.255488	0.607772	0.499968
C23	C	0.671471	0.106427	-0.000030
C24	C	1.171471	0.606427	0.499970
C25	C	0.899653	-0.036383	-0.000020
C26	C	1.399653	0.463617	0.499980
C27	C	0.898314	-0.120402	-0.000019
C28	C	1.398314	0.379598	0.499981
C29	C	0.146600	0.167171	-0.000056
C30	C	0.646600	0.667171	0.499944
C31	C	0.225543	0.168430	-0.000060
C32	C	0.725543	0.668430	0.499940
C33	C	0.274161	0.100095	-0.000051
C34	C	0.774161	0.600095	0.499949
C35	C	0.243831	0.030496	-0.000054
C36	C	0.743831	0.530496	0.499946
C37	C	0.164889	0.029238	-0.000061
C38	C	0.664889	0.529238	0.499939
C39	C	0.562197	0.035569	-0.000028
C40	C	1.062197	0.535569	0.499972
C41	C	0.641144	0.036833	-0.000016
C42	C	1.141144	0.536833	0.499984
C43	C	0.622852	0.174762	-0.000028
C44	C	1.122852	0.674762	0.499972
C45	C	0.543909	0.173503	-0.000035
C46	C	1.043909	0.673503	0.499965
C47	C	0.513587	0.103905	-0.000046
C48	C	1.013587	0.603905	0.499954
C49	C	0.427987	0.102541	-0.000044
C50	C	0.927987	0.602541	0.499956
C51	C	0.359759	0.101459	-0.000042
C52	C	0.859759	0.601459	0.499958
C53	C	0.966647	-0.169017	-0.000018
C54	C	1.466647	0.330983	0.499982
C55	C	0.965385	-0.247961	-0.000033
C56	C	1.465385	0.252039	0.499967
C57	C	0.895789	-0.278287	-0.000037
C58	C	1.395789	0.221713	0.499963
C59	C	0.827451	-0.229665	-0.000043
C60	C	1.327451	0.270335	0.499957
C61	C	0.828714	-0.150723	-0.000040
C62	C	1.328714	0.349277	0.499960
C63	C	0.822356	-0.548028	-0.000056
C64	C	1.322356	-0.048028	0.499944
C65	C	0.821098	-0.626976	-0.000054
C66	C	1.321098	-0.126976	0.499946
C67	C	0.959026	-0.645266	-0.000049
C68	C	1.459026	-0.145266	0.499951
C69	C	0.960289	-0.566324	-0.000046
C70	C	1.460289	-0.066324	0.499954
C71	C	0.891952	-0.517709	-0.000061
C72	C	1.391952	-0.017709	0.499939
C73	C	0.893321	-0.432110	-0.000048
C74	C	1.393321	0.067890	0.499952
C75	C	0.894419	-0.363885	-0.000037
C76	C	1.394419	0.136115	0.499963
C77	C	1.032258	0.096233	-0.000041
C78	C	1.532258	0.596233	0.499959
C79	C	1.116275	0.097578	-0.000053
C80	C	1.616275	0.597578	0.499947
C81	C	0.888093	0.240388	-0.000053
C82	C	1.388093	0.740388	0.499947
C83	C	0.889431	0.324406	-0.000064
C84	C	1.389431	0.824406	0.499936
N85	N	0.893868	0.102000	0.425642
N86	N	1.393868	0.602000	0.925642
N87	N	0.893883	0.101999	-0.425711
N88	N	1.393883	0.601999	0.074289
H89	H	0.107020	0.222818	-0.000051
H90	H	0.607020	0.722818	0.499949
H91	H	0.773070	-0.111140	-0.000041
H92	H	1.273070	0.388860	0.499959
C93	C	1.040551	-0.301435	-0.000014
C94	C	1.540551	0.198565	0.499986
H95	H	1.082180	-0.272068	0.000012
H96	H	1.582180	0.227932	0.500012
H97	H	1.042935	-0.332609	-0.095294
H98	H	1.542935	0.167391	0.404706
H99	H	1.042917	-0.332612	0.095279
H100	H	1.542917	0.167388	0.595279
C101	C	0.258898	0.244983	-0.000042
C102	C	0.758898	0.744983	0.499958
H103	H	0.218637	0.285500	-0.000024
H104	H	0.718637	0.785500	0.499976
H105	H	0.289318	0.248350	-0.095317
H106	H	0.789318	0.748350	0.404683
H107	H	0.289307	0.248333	0.095255
H108	H	0.789307	0.748333	0.595255
C109	C	0.490434	0.248672	-0.000053
C110	C	0.990434	0.748672	0.499947
H111	H	0.519802	0.290301	-0.000072
H112	H	1.019802	0.790301	0.499928
H113	H	0.459251	0.251050	0.095220
H114	H	0.959251	0.751050	0.595220
H115	H	0.459267	0.251043	-0.095353
H116	H	0.959267	0.751043	0.404647
C117	C	1.043201	-0.135662	-0.000008
C118	C	1.543201	0.364338	0.499992
H119	H	1.034169	-0.081684	0.000009
H120	H	1.534169	0.418316	0.500009
H121	H	1.071335	-0.152354	-0.095287
H122	H	1.571335	0.347646	0.404713
H123	H	1.071326	-0.152363	0.095286
H124	H	1.571326	0.347637	0.595286
C125	C	1.036844	-0.532969	-0.000049
C126	C	1.536844	-0.032969	0.499951
H127	H	1.077361	-0.573231	-0.000066
H128	H	1.577361	-0.073231	0.499934
H129	H	1.040204	-0.502556	0.095229
H130	H	1.540204	-0.002556	0.595229
H131	H	1.040202	-0.502553	-0.095344
H132	H	1.540202	-0.002553	0.404656
C133	C	0.528851	-0.040985	-0.000012
C134	C	1.028851	0.459015	0.499988
H135	H	0.569114	-0.081500	0.000017
H136	H	1.069114	0.418500	0.500017
H137	H	0.498440	-0.044350	-0.095292
H138	H	0.998440	0.455650	0.404708
H139	H	0.498434	-0.044341	0.095281
H140	H	0.998434	0.455659	0.595281
H141	H	1.014670	-0.684858	-0.000045
H142	H	1.514670	-0.184858	0.499955
C143	C	0.297305	-0.044673	-0.000058
C144	C	0.797305	0.455327	0.499942
H145	H	0.267936	-0.086301	-0.000076
H146	H	0.767936	0.413699	0.499924
H147	H	0.328479	-0.047055	0.095222
H148	H	0.828479	0.452945	0.595222
H149	H	0.328482	-0.047044	-0.095351
H150	H	0.828482	0.452956	0.404649
C151	C	0.131531	-0.047315	-0.000053
C152	C	0.631531	0.452685	0.499947
H153	H	0.171791	-0.087833	-0.000032
H154	H	0.671791	0.412167	0.499968
H155	H	0.101121	-0.050671	-0.095336
H156	H	0.601121	0.449329	0.404664
H157	H	0.101112	-0.050673	0.095236
H158	H	0.601112	0.449327	0.595236
C159	C	0.744539	-0.660333	-0.000080
C160	C	1.244539	-0.160333	0.499920
H161	H	0.704020	-0.620074	-0.000107
H162	H	1.204020	-0.120074	0.499893
H163	H	0.741172	-0.690752	0.095197
H164	H	1.241172	-0.190752	0.595197
H165	H	0.741193	-0.690745	-0.095375
H166	H	1.241193	-0.190745	0.404625
C167	C	0.747188	-0.494562	-0.000043
C168	C	1.247188	0.005438	0.499957
H169	H	0.705560	-0.523931	-0.000023
H170	H	1.205560	-0.023931	0.499977
H171	H	0.744808	-0.463380	-0.095319
H172	H	1.244808	0.036620	0.404681
H173	H	0.744814	-0.463393	0.095254
H174	H	1.244814	0.036607	0.595254
C175	C	0.750897	-0.263021	-0.000042
C176	C	1.250897	0.236979	0.499958
H177	H	0.759930	-0.316999	-0.000026
H178	H	1.259930	0.183001	0.499974
H179	H	0.722767	-0.246323	-0.095320
H180	H	1.222767	0.253677	0.404680
H181	H	0.722768	-0.246327	0.095252
H182	H	1.222768	0.253673	0.595252
H183	H	0.647550	0.231432	-0.000026
H184	H	1.147550	0.731432	0.499974
H185	H	0.680728	-0.018817	-0.000013
H186	H	1.180728	0.481183	0.499987
