data_functionalizedCrystal
_audit_creation_method	'MofGen! by Chris Wilmer'
_symmetry_space_group_name_H-M	'P1'
_symmetry_Int_Tables_number	1
_symmetry_cell_setting	triclinic
loop_
_symmetry_equiv_pos_as_xyz
  x,y,z
_cell_length_a	19.188933
_cell_length_b	19.188930
_cell_length_c	14.421503
_cell_angle_alpha	89.999163
_cell_angle_beta	89.993814
_cell_angle_gamma	83.145175
loop_
_atom_site_label
_atom_site_type_symbol
_atom_site_fract_x
_atom_site_fract_y
_atom_site_fract_z
O1	O	0.926148	0.087164	-0.077091
O2	O	0.722837	0.098897	-0.077101
O3	O	0.830360	-0.008625	-0.077078
O4	O	0.818626	0.194686	-0.077115
O5	O	0.830342	-0.008609	0.077146
O6	O	0.722819	0.098913	0.077122
O7	O	0.926130	0.087180	0.077132
Cu8	Cu	0.824473	0.093048	0.091209
Cu9	Cu	0.824494	0.093029	-0.091178
O10	O	0.818608	0.194702	0.077109
C11	C	0.696817	0.098525	0.000010
C12	C	0.619313	0.097384	0.000007
C13	C	0.066067	0.089230	-0.084049
C14	C	0.138891	0.090298	-0.084053
C15	C	0.175299	0.090844	0.000014
C16	C	0.138878	0.090304	0.084091
C17	C	0.066056	0.089229	0.084092
N18	N	0.284311	0.132269	0.062581
N19	N	0.353489	0.133292	0.062574
C20	C	0.394707	0.094082	0.000015
N21	N	0.364133	0.053819	-0.062551
N22	N	0.294949	0.052799	-0.062547
C23	C	0.254262	0.092009	0.000022
C24	C	0.510084	0.095775	-0.084061
C25	C	0.582910	0.096839	-0.084061
C26	C	0.582895	0.096852	0.084085
C27	C	0.510071	0.095781	0.084083
C28	C	0.473669	0.095246	0.000007
C29	C	0.829971	-0.034628	0.000037
C30	C	0.828830	-0.112132	0.000045
C31	C	0.891921	-0.157056	0.000052
C32	C	0.890849	-0.229880	0.000037
C33	C	0.826683	-0.257777	0.000033
C34	C	0.763584	-0.212843	0.000021
C35	C	0.764658	-0.140021	0.000026
N36	N	0.777630	-0.365777	0.052516
N37	N	0.776614	-0.434955	0.052513
C38	C	0.823445	-0.477185	0.000014
N39	N	0.871340	-0.447625	-0.052469
N40	N	0.872358	-0.378440	-0.052461
C41	C	0.825512	-0.336739	0.000027
C42	C	0.885378	-0.601073	0.000004
C43	C	0.884304	-0.673898	-0.000016
C44	C	0.757037	-0.656860	-0.000023
C45	C	0.758113	-0.584037	-0.000012
C46	C	0.822286	-0.556148	0.000006
C47	C	0.952150	0.087553	0.000020
C48	C	1.029655	0.088694	0.000016
C49	C	0.818997	0.220705	-0.000008
C50	C	0.820137	0.298210	-0.000022
N51	N	0.824463	0.093061	0.219490
N52	N	0.824510	0.093011	-0.219459
C53	C	0.774736	0.142757	0.469133
C54	C	0.837784	0.156116	0.530936
C55	C	0.824481	0.093044	0.408652
C56	C	0.761449	0.079701	0.530943
C57	C	0.824491	0.093030	0.591373
C58	C	0.887560	0.106435	0.469094
C59	C	0.811183	0.029993	0.469095
C60	C	0.874277	0.043325	0.530870
C61	C	0.824473	0.093055	0.303391
C62	C	0.824506	0.093019	0.696632
H63	H	0.612557	0.097270	-0.152520
Br64	Br	0.632299	0.097578	0.198178
H65	H	0.711340	-0.235562	0.000015
H66	H	0.708139	0.068422	0.558113
H67	H	0.704792	-0.679573	-0.000031
Br68	Br	0.979012	-0.119210	0.000051
Br69	Br	0.672485	-0.523065	-0.000021
H70	H	0.937631	-0.578365	0.000015
H71	H	0.942227	-0.266463	0.000040
Br72	Br	0.016669	0.088500	-0.198151
H73	H	0.799906	-0.023305	0.441910
Br74	Br	0.460649	0.095063	0.198179
Br75	Br	0.188319	0.091025	-0.198150
Br76	Br	0.016635	0.088503	0.198190
Br77	Br	0.679028	-0.079049	0.000013
H78	H	0.935682	-0.710475	-0.000015
H79	H	0.732712	0.184831	0.442026
H80	H	0.916394	0.001276	0.557807
H81	H	0.940881	0.117778	0.442040
Br82	Br	0.188286	0.091039	0.198182
Br83	Br	0.460678	0.095046	-0.198160
H84	H	0.849042	0.209431	0.558099
