data_functionalizedCrystal
_audit_creation_method	'MofGen! by Chris Wilmer'
_symmetry_space_group_name_H-M	'P1'
_symmetry_Int_Tables_number	1
_symmetry_cell_setting	triclinic
loop_
_symmetry_equiv_pos_as_xyz
  x,y,z
_cell_length_a	10.654550
_cell_length_b	14.048226
_cell_length_c	10.654551
_cell_angle_alpha	89.995355
_cell_angle_beta	95.514820
_cell_angle_gamma	90.003199
loop_
_atom_site_label
_atom_site_type_symbol
_atom_site_fract_x
_atom_site_fract_y
_atom_site_fract_z
O1	O	1.667845	0.079086	-0.176402
O2	O	1.302367	0.079103	-0.193208
O3	O	1.493508	0.079092	-0.002066
O4	O	1.476704	0.079097	-0.367544
O5	O	1.493485	-0.079230	-0.002054
O6	O	1.302344	-0.079219	-0.193196
O7	O	1.667822	-0.079236	-0.176390
Zn8	Zn	1.485079	-0.104364	-0.184791
Zn9	Zn	1.485110	0.104231	-0.184807
O10	O	1.476681	-0.079225	-0.367532
C11	C	1.255557	-0.000056	-0.191968
C12	C	1.116114	-0.000049	-0.188276
N13	N	1.485067	-0.246725	-0.184780
C14	C	1.036629	-0.000050	-0.300818
C15	C	0.905608	-0.000067	-0.297341
C16	C	0.933570	-0.000077	-0.068772
C17	C	1.064589	-0.000067	-0.072249
C18	C	1.569732	-0.296548	-0.100178
C19	C	1.569740	-0.396205	-0.100177
C20	C	1.485089	-0.446038	-0.184786
C21	C	1.400416	-0.396208	-0.269392
C22	C	1.400402	-0.296553	-0.269386
C23	C	1.400452	-0.603923	-0.269402
C24	C	1.400467	-0.703585	-0.269410
C25	C	1.569790	-0.703576	-0.100193
C26	C	1.569777	-0.603920	-0.100187
C27	C	1.485104	-0.554097	-0.184795
C28	C	1.714632	-0.000075	-0.177630
C29	C	1.854075	-0.000076	-0.181322
C30	C	1.492262	-0.000068	0.044738
C31	C	1.488570	-0.000063	0.184181
N32	N	1.485131	0.246592	-0.184808
C33	C	1.477926	-0.000064	-0.414336
C34	C	1.481619	-0.000062	-0.553779
C35	C	1.486850	0.086239	0.249679
C36	C	1.483370	0.086240	0.380699
C37	C	1.483336	-0.086371	0.380714
C38	C	1.486807	-0.086371	0.249695
H39	H	1.078576	-0.000043	-0.395294
F40	F	1.488626	-0.178230	0.179982
H41	H	1.129309	-0.000069	0.019401
F42	F	1.481458	-0.178220	0.450448
H43	H	0.840896	-0.000070	-0.388984
F44	F	0.878721	-0.000093	0.054705
H45	H	1.331499	-0.563360	-0.338295
H46	H	1.638670	-0.255980	-0.031285
H47	H	1.638680	-0.436771	-0.031287
F48	F	1.659877	-0.550883	-0.010145
H49	H	1.331485	-0.436788	-0.338278
F50	F	1.310367	-0.756614	-0.359461
F51	F	1.659905	-0.756605	-0.010149
H52	H	1.488282	0.156516	0.196341
F53	F	1.310286	-0.243529	-0.359428
F54	F	1.481536	0.178095	0.450401
