data_functionalizedCrystal
_audit_creation_method	'MofGen! by Chris Wilmer'
_symmetry_space_group_name_H-M	'P1'
_symmetry_Int_Tables_number	1
_symmetry_cell_setting	triclinic
loop_
_symmetry_equiv_pos_as_xyz
  x,y,z
_cell_length_a	10.686220
_cell_length_b	13.032127
_cell_length_c	13.032268
_cell_angle_alpha	89.069017
_cell_angle_beta	100.919293
_cell_angle_gamma	102.073360
loop_
_atom_site_label
_atom_site_type_symbol
_atom_site_fract_x
_atom_site_fract_y
_atom_site_fract_z
Zn1	Zn	1.808472	-0.355741	-0.430893
Zn2	Zn	1.815193	-0.505452	-0.236700
Zn3	Zn	1.623640	-0.346985	-0.269009
Zn4	Zn	1.569873	-0.544522	-0.421987
O5	O	1.704294	-0.438175	-0.339647
O6	O	1.989384	-0.362914	-0.395339
O7	O	1.815098	-0.464416	-0.095693
O8	O	1.667847	-0.202822	-0.307733
O9	O	1.994322	-0.472906	-0.252665
O10	O	1.803642	-0.209255	-0.426668
O11	O	1.674364	-0.347991	-0.119431
O12	O	1.436487	-0.385876	-0.299097
O13	O	1.576209	-0.539495	-0.568461
O14	O	1.396985	-0.531005	-0.411489
O15	O	1.751507	-0.400798	-0.575004
O16	O	1.762962	-0.655959	-0.244030
O17	O	1.582726	-0.684664	-0.380160
C18	C	1.370058	-0.461731	-0.357833
C19	C	1.227063	-0.471836	-0.365635
C20	C	1.667770	-0.707993	-0.307643
C21	C	1.652257	-0.823419	-0.293980
C22	C	1.696426	-0.997295	-0.332681
C23	C	1.712470	-0.877996	-0.346805
C24	C	2.039836	-0.414529	-0.321391
C25	C	2.182823	-0.404452	-0.313612
C26	C	1.657111	-0.475481	-0.610459
C27	C	1.637004	-0.491379	-0.725863
C28	C	1.740992	-0.167304	-0.371798
C29	C	1.756631	-0.051875	-0.385498
C30	C	1.714773	-0.429842	-0.780551
C31	C	1.693994	-0.446272	-0.899827
C32	C	1.751379	-0.400934	-0.069894
C33	C	1.771774	-0.384726	0.045488
H34	H	1.155535	-0.537267	-0.416140
Br35	Br	1.590694	-1.066612	-0.239896
Br36	Br	1.851359	-0.321726	-0.711427
H37	H	1.612016	-0.511117	-0.941307
Br38	Br	1.862330	-0.982564	-0.478308
Br39	Br	1.908416	-0.276646	-0.885388
H40	H	1.775891	-0.836410	-0.402488
Br41	Br	1.302025	-0.295410	-0.229420
H42	H	1.555031	-0.556220	-0.767347
H43	H	1.588821	-0.865008	-0.238307
