data_functionalizedCrystal
_audit_creation_method	'MofGen! by Chris Wilmer'
_symmetry_space_group_name_H-M	'P1'
_symmetry_Int_Tables_number	1
_symmetry_cell_setting	triclinic
loop_
_symmetry_equiv_pos_as_xyz
  x,y,z
_cell_length_a	25.639239
_cell_length_b	16.120566
_cell_length_c	16.120256
_cell_angle_alpha	89.874858
_cell_angle_beta	92.870449
_cell_angle_gamma	92.865350
loop_
_atom_site_label
_atom_site_type_symbol
_atom_site_fract_x
_atom_site_fract_y
_atom_site_fract_z
Zn1	Zn	-0.264887	-1.247326	-0.534606
Zn2	Zn	-0.348116	-1.254242	-0.395539
Zn3	Zn	-0.256050	-1.115321	-0.388517
Zn4	Zn	-0.347638	-1.108199	-0.527501
O5	O	-0.304173	-1.181272	-0.461540
O6	O	-0.279826	-1.364608	-0.522070
O7	O	-0.332405	-1.241689	-0.278242
O8	O	-0.184061	-1.132917	-0.407931
O9	O	-0.340974	-1.369689	-0.419898
O10	O	-0.190553	-1.229901	-0.515261
O11	O	-0.264764	-1.139624	-0.273083
O12	O	-0.264301	-0.998012	-0.401041
O13	O	-0.340159	-1.120780	-0.644808
O14	O	-0.331590	-0.992779	-0.503152
O15	O	-0.279362	-1.222996	-0.650028
O16	O	-0.421214	-1.234783	-0.413009
O17	O	-0.420863	-1.127486	-0.509961
C18	C	-0.296935	-0.965224	-0.450564
C19	C	-0.293852	-0.872796	-0.445888
C20	C	-0.288211	-0.703569	-0.437358
C21	C	-0.320180	-0.659815	-0.485729
C22	C	-0.317041	-0.565651	-0.480983
C23	C	-0.291349	-0.797741	-0.442103
C24	C	-0.440009	-1.181134	-0.461495
C25	C	-0.498124	-1.181150	-0.461508
C26	C	-0.858670	-1.237276	-0.411155
C27	C	-0.913276	-1.237307	-0.411168
O28	O	-0.941662	-1.284885	-0.368307
N29	N	-0.940418	-1.181415	-0.461603
C30	C	-0.912953	-1.125494	-0.512035
O31	O	-0.941053	-1.077956	-0.554935
C32	C	-0.858348	-1.125467	-0.512026
C33	C	-0.831208	-1.181357	-0.461581
C34	C	-0.831530	-1.293162	-0.360716
C35	C	-0.776928	-1.293129	-0.360702
C36	C	-0.749466	-1.237210	-0.411128
C37	C	-0.776606	-1.181324	-0.461568
C38	C	-0.830884	-1.069549	-0.562461
C39	C	-0.776275	-1.069528	-0.562449
C40	C	-0.749135	-1.125418	-0.512004
C41	C	-0.694542	-1.125372	-0.511980
N42	N	-0.667400	-1.181264	-0.461545
C43	C	-0.694862	-1.237183	-0.411119
C44	C	-1.027626	-1.125556	-0.512051
C45	C	-1.082229	-1.125578	-0.512056
C46	C	-1.082548	-1.237393	-0.411190
C47	C	-1.027944	-1.237366	-0.411181
C48	C	-1.000483	-1.181448	-0.461616
C49	C	-0.580193	-1.237109	-0.411093
C50	C	-0.525586	-1.237069	-0.411082
C51	C	-0.525272	-1.125257	-0.511950
C52	C	-0.579874	-1.125294	-0.511959
C53	C	-0.607333	-1.181227	-0.461528
O54	O	-0.666122	-1.077821	-0.554821
O55	O	-0.666754	-1.284719	-0.368234
C56	C	-0.167807	-1.181432	-0.461605
C57	C	-0.109696	-1.181500	-0.461633
C58	C	-0.310693	-1.170322	-0.678434
C59	C	-0.313472	-1.165656	-0.770861
C60	C	-0.311440	-0.398165	-0.472546
C61	C	-0.314541	-0.490593	-0.477202
C62	C	-0.289669	-1.205604	-0.983850
C63	C	-0.318522	-1.157109	-0.940081
C64	C	-0.315711	-1.161866	-0.845918
C65	C	-0.292479	-1.200848	-1.078021
C66	C	-0.297642	-1.192227	-0.245493
C67	C	-0.294721	-1.197055	-0.153074
H68	H	-0.258486	-0.670312	-0.392385
H69	H	-0.262859	-1.250693	-0.950606
O70	O	-0.857221	-1.015343	-0.611593
C71	C	-0.846924	-1.029259	-0.695395
H72	H	-0.834225	-1.095468	-0.703004
H73	H	-0.814405	-0.983557	-0.714818
C74	C	-0.912356	-0.935438	-0.741073
C75	C	-0.896763	-1.016760	-0.750420
H76	H	-0.943098	-0.927725	-0.775016
H77	H	-0.919292	-0.926060	-0.684614
H78	H	-0.885253	-0.897363	-0.757258
H79	H	-0.923863	-1.054833	-0.734225
H80	H	-0.889833	-1.026145	-0.806877
H81	H	-0.349906	-0.693074	-0.530707
O82	O	-0.350508	-1.103398	-0.979868
C83	C	-0.346230	-1.110543	-1.066390
H84	H	-0.331589	-1.174147	-1.081418
H85	H	-0.317467	-1.060022	-1.088541
C86	C	-0.418168	-1.022558	-1.092222
C87	C	-0.400190	-1.100681	-1.110680
H88	H	-0.451452	-1.016471	-1.119544
H89	H	-0.421049	-1.017741	-1.033931
H90	H	-0.394194	-0.980465	-1.110681
H91	H	-0.424160	-1.142772	-1.092212
H92	H	-0.397314	-1.105505	-1.168970
H93	H	-0.503491	-1.282581	-0.370001
H94	H	-0.602545	-1.282657	-0.370030
H95	H	-0.754834	-1.338642	-0.319628
O96	O	-0.858119	-1.347515	-0.311648
C97	C	-0.822446	-1.396842	-0.267151
H98	H	-0.782319	-1.362904	-0.262522
H99	H	-0.819620	-1.458431	-0.300856
C100	C	-0.890783	-1.455058	-0.184951
C101	C	-0.841500	-1.413371	-0.179261
H102	H	-0.902537	-1.465257	-0.130738
H103	H	-0.914818	-1.421828	-0.214932
H104	H	-0.888422	-1.506377	-0.213043
H105	H	-0.843863	-1.362048	-0.151179
H106	H	-0.817466	-1.446593	-0.149273
H107	H	-1.005850	-1.282877	-0.370105
H108	H	-1.104918	-1.282928	-0.370133
H109	H	-1.005269	-1.080013	-0.553118
O110	O	-1.108510	-1.071249	-0.561128
C111	C	-1.072554	-1.021876	-0.605611
H112	H	-1.034835	-1.055770	-0.610234
H113	H	-1.063765	-0.960284	-0.571898
C114	C	-1.142429	-0.963732	-0.687821
C115	C	-1.096103	-1.005363	-0.693505
H116	H	-1.156956	-0.953542	-0.742037
H117	H	-1.166654	-0.996993	-0.657850
H118	H	-1.135099	-0.912410	-0.659724
H119	H	-1.103435	-1.056689	-0.721593
H120	H	-1.071881	-0.972110	-0.723483
H121	H	-0.502904	-1.079726	-0.553004
H122	H	-0.753920	-1.023993	-0.603521
O123	O	-0.606161	-1.070971	-0.561034
C124	C	-0.570209	-1.021592	-0.605519
H125	H	-0.532486	-1.055476	-0.610137
H126	H	-0.561427	-0.959996	-0.571811
C127	C	-0.640089	-0.963471	-0.687738
C128	C	-0.593759	-1.005091	-0.693415
H129	H	-0.654616	-0.953289	-0.741955
H130	H	-0.664311	-0.996736	-0.657765
H131	H	-0.632765	-0.912146	-0.659644
H132	H	-0.601085	-1.056420	-0.721499
H133	H	-0.569539	-0.971835	-0.723395
