data_functionalizedCrystal
_audit_creation_method	'MofGen! by Chris Wilmer'
_symmetry_space_group_name_H-M	'P1'
_symmetry_Int_Tables_number	1
_symmetry_cell_setting	triclinic
loop_
_symmetry_equiv_pos_as_xyz
  x,y,z
_cell_length_a	19.188933
_cell_length_b	19.188930
_cell_length_c	15.455313
_cell_angle_alpha	92.650876
_cell_angle_beta	87.329187
_cell_angle_gamma	83.145175
loop_
_atom_site_label
_atom_site_type_symbol
_atom_site_fract_x
_atom_site_fract_y
_atom_site_fract_z
O1	O	0.929213	0.084112	-0.072111
O2	O	1.429213	0.584112	0.427889
O3	O	0.725902	0.095844	-0.072121
O4	O	1.225902	0.595844	0.427879
O5	O	0.833424	-0.011677	-0.072099
O6	O	1.333424	0.488323	0.427901
O7	O	0.821691	0.191633	-0.072133
O8	O	1.321691	0.691633	0.427867
O9	O	0.827275	-0.005554	0.072162
O10	O	1.327275	0.494446	0.572162
O11	O	0.719754	0.101967	0.072140
O12	O	1.219754	0.601967	0.572140
O13	O	0.923064	0.090235	0.072150
O14	O	1.423064	0.590235	0.572150
Cu15	Cu	0.820847	0.096660	0.085317
Cu16	Cu	1.320847	0.596660	0.585317
Cu17	Cu	0.828119	0.089419	-0.085288
Cu18	Cu	1.328119	0.589419	0.414712
O19	O	0.815542	0.197756	0.072128
O20	O	1.315542	0.697756	0.572128
C21	C	0.696817	0.098525	0.000009
C22	C	1.196817	0.598525	0.500009
C23	C	0.619312	0.097384	0.000006
C24	C	1.119312	0.597384	0.500006
C25	C	0.069408	0.085901	-0.078620
C26	C	0.569408	0.585901	0.421380
C27	C	0.142233	0.086969	-0.078623
C28	C	0.642233	0.586969	0.421377
C29	C	0.175298	0.090845	0.000013
C30	C	0.675298	0.590845	0.500013
C31	C	0.135535	0.093634	0.078659
C32	C	0.635535	0.593634	0.578659
C33	C	0.062713	0.092559	0.078660
C34	C	0.562713	0.592559	0.578660
N35	N	0.281824	0.134747	0.058538
N36	N	0.781824	0.634747	0.558538
N37	N	0.351002	0.135770	0.058532
N38	N	0.851002	0.635770	0.558532
C39	C	0.394707	0.094082	0.000014
C40	C	0.894707	0.594082	0.500014
N41	N	0.366620	0.051342	-0.058511
N42	N	0.866620	0.551342	0.441489
N43	N	0.297435	0.050323	-0.058507
N44	N	0.797435	0.550323	0.441493
C45	C	0.254261	0.092010	0.000020
C46	C	0.754261	0.592010	0.500020
C47	C	0.513426	0.092446	-0.078631
C48	C	1.013426	0.592446	0.421369
C49	C	0.586252	0.093510	-0.078631
C50	C	1.086252	0.593510	0.421369
C51	C	0.579552	0.100182	0.078653
C52	C	1.079552	0.600182	0.578653
C53	C	0.506728	0.099111	0.078651
C54	C	1.006728	0.599111	0.578651
C55	C	0.473669	0.095246	0.000007
C56	C	0.973669	0.595246	0.500007
C57	C	0.829969	-0.034626	0.000034
C58	C	1.329969	0.465374	0.500034
C59	C	0.828828	-0.112131	0.000042
C60	C	1.328828	0.387869	0.500042
C61	C	0.891919	-0.157054	0.000049
C62	C	1.391919	0.342946	0.500049
C63	C	0.890848	-0.229878	0.000035
C64	C	1.390848	0.270122	0.500035
C65	C	0.826682	-0.257775	0.000031
C66	C	1.326682	0.242225	0.500031
C67	C	0.763583	-0.212842	0.000019
C68	C	1.263583	0.287158	0.500019
C69	C	0.764657	-0.140020	0.000024
C70	C	1.264657	0.359980	0.500024
N71	N	0.775542	-0.363697	0.049124
N72	N	1.275542	0.136303	0.549124
N73	N	0.774527	-0.432876	0.049121
N74	N	1.274527	0.067124	0.549121
C75	C	0.823445	-0.477185	0.000013
C76	C	1.323445	0.022815	0.500013
N77	N	0.873426	-0.449703	-0.049079
N78	N	1.373426	0.050297	0.450921
N79	N	0.874443	-0.380518	-0.049072
N80	N	1.374443	0.119482	0.450928
C81	C	0.825511	-0.336738	0.000025
C82	C	1.325511	0.163262	0.500025
C83	C	0.885378	-0.601073	0.000004
C84	C	1.385378	-0.101073	0.500004
C85	C	0.884305	-0.673899	-0.000015
C86	C	1.384305	-0.173899	0.499985
C87	C	0.757038	-0.656861	-0.000022
C88	C	1.257038	-0.156861	0.499978
C89	C	0.758114	-0.584037	-0.000011
C90	C	1.258114	-0.084037	0.499989
C91	C	0.822285	-0.556148	0.000006
C92	C	1.322285	-0.056148	0.500006
C93	C	0.952149	0.087553	0.000018
C94	C	1.452149	0.587553	0.500018
C95	C	1.029654	0.088694	0.000015
C96	C	1.529654	0.588694	0.500015
C97	C	0.818997	0.220705	-0.000007
C98	C	1.318997	0.720705	0.499993
C99	C	0.820138	0.298209	-0.000020
C100	C	1.320138	0.798209	0.499980
N101	N	0.815738	0.101753	0.205312
N102	N	1.315738	0.601753	0.705312
N103	N	0.833233	0.084320	-0.205283
N104	N	1.333233	0.584320	0.294717
C105	C	0.861433	0.056091	0.250715
C106	C	1.361433	0.556091	0.750715
C107	C	0.857576	0.059949	0.341522
C108	C	1.357576	0.559949	0.841522
C109	C	0.808026	0.109473	0.386924
C110	C	1.308026	0.609473	0.886924
C111	C	0.762327	0.155137	0.341514
C112	C	1.262327	0.655137	0.841514
C113	C	0.766181	0.151275	0.250709
C114	C	1.266181	0.651275	0.750709
C115	C	0.791388	0.126123	0.658502
C116	C	1.291388	0.626123	1.158502
C117	C	0.787539	0.129982	0.749314
C118	C	1.287539	0.629982	1.249314
C119	C	0.882787	0.034793	0.749316
C120	C	1.382787	0.534793	1.249316
C121	C	0.886640	0.030939	0.658508
C122	C	1.386640	0.530939	1.158508
C123	C	0.840938	0.076600	0.613107
C124	C	1.340938	0.576600	1.113107
N125	N	0.804084	0.113419	0.479744
N126	N	1.304084	0.613419	0.979744
N127	N	0.844878	0.072650	0.520289
N128	N	1.344878	0.572650	1.020289
H129	H	0.030345	0.094836	0.142696
H130	H	0.530345	0.594836	0.642696
C131	C	0.615921	0.104437	0.165155
C132	C	1.115921	0.604437	0.665155
N133	N	0.643318	0.107639	0.230310
N134	N	1.143318	0.607639	0.730310
H135	H	0.901784	0.015766	0.213755
H136	H	1.401784	0.515766	0.713755
H137	H	0.711339	-0.235561	0.000014
H138	H	1.211339	0.264439	0.500014
H139	H	0.944173	-0.134351	0.000060
H140	H	1.444173	0.365649	0.500060
H141	H	0.942225	-0.266462	0.000037
H142	H	1.442225	0.233538	0.500037
C143	C	0.033049	0.081636	-0.165131
C144	C	0.533049	0.581636	0.334869
N145	N	0.005663	0.078419	-0.230292
N146	N	0.505663	0.578419	0.269708
H147	H	0.894783	0.022767	0.378489
H148	H	1.394783	0.522767	0.878489
C149	C	0.707815	0.209607	0.391460
C150	C	1.207815	0.709607	0.891460
N151	N	0.666756	0.250635	0.429078
N152	N	1.166756	0.750635	0.929078
H153	H	0.728971	0.188457	0.213742
H154	H	1.228971	0.688457	0.713742
C155	C	0.941145	-0.023545	0.608573
C156	C	1.441145	0.476455	1.108573
N157	N	0.982199	-0.064582	0.570961
N158	N	1.482199	0.435418	1.070961
C159	C	0.477059	0.088187	-0.165140
C160	C	0.977059	0.588187	0.334860
N161	N	0.449670	0.084977	-0.230300
N162	N	0.949670	0.584977	0.269700
H163	H	0.618620	0.091230	-0.142668
H164	H	1.118620	0.591230	0.357332
H165	H	0.474359	0.101388	0.142685
H166	H	0.974359	0.601388	0.642685
H167	H	0.713279	-0.103443	0.000019
H168	H	1.213279	0.396557	0.500019
C169	C	0.733026	0.184463	0.799254
C170	C	1.233026	0.684463	1.299254
N171	N	0.691970	0.225495	0.836870
N172	N	1.191970	0.725495	1.336870
H173	H	0.937631	-0.578365	0.000014
H174	H	1.437631	-0.078365	0.500014
C175	C	0.171906	0.097916	0.165159
C176	C	0.671906	0.597916	0.665159
N177	N	0.199300	0.101147	0.230313
N178	N	0.699300	0.601147	0.730313
H179	H	0.935683	-0.710475	-0.000014
H180	H	1.435683	-0.210475	0.499986
H181	H	0.704793	-0.679574	-0.000029
H182	H	1.204793	-0.179574	0.499971
H183	H	0.706738	-0.547459	-0.000012
H184	H	1.206738	-0.047459	0.499988
C185	C	0.933050	-0.015437	0.799265
C186	C	1.433050	0.484563	1.299265
N187	N	0.970908	-0.053274	0.836887
N188	N	1.470908	0.446726	1.336887
C189	C	0.741205	0.176443	0.608572
C190	C	1.241205	0.676443	1.108572
N191	N	0.703436	0.214378	0.570962
N192	N	1.203436	0.714378	1.070962
H193	H	0.174606	0.084699	-0.142660
H194	H	0.674606	0.584699	0.357340
