data_functionalizedCrystal
_audit_creation_method	'MofGen! by Chris Wilmer'
_symmetry_space_group_name_H-M	'P1'
_symmetry_Int_Tables_number	1
_symmetry_cell_setting	triclinic
loop_
_symmetry_equiv_pos_as_xyz
  x,y,z
_cell_length_a	19.077269
_cell_length_b	16.120444
_cell_length_c	19.076919
_cell_angle_alpha	95.047308
_cell_angle_beta	94.669058
_cell_angle_gamma	90.514064
loop_
_atom_site_label
_atom_site_type_symbol
_atom_site_fract_x
_atom_site_fract_y
_atom_site_fract_z
Zn1	Zn	1.043833	-0.399339	-0.373069
Zn2	Zn	1.543833	0.100661	0.126931
Zn3	Zn	1.042506	-0.533369	-0.261162
Zn4	Zn	1.542506	-0.033369	0.238838
Zn5	Zn	0.931170	-0.388596	-0.259457
Zn6	Zn	1.431170	0.111404	0.240543
Zn7	Zn	0.919939	-0.533328	-0.383743
Zn8	Zn	1.419939	-0.033328	0.116257
O9	O	0.984362	-0.463658	-0.319358
O10	O	1.484362	0.036342	0.180642
O11	O	1.142102	-0.421632	-0.354470
O12	O	1.642102	0.078368	0.145530
O13	O	1.031882	-0.509686	-0.162088
O14	O	1.531882	-0.009686	0.337912
O15	O	0.951370	-0.273358	-0.269348
O16	O	1.451370	0.226642	0.230652
O17	O	1.141127	-0.520103	-0.272252
O18	O	1.641127	-0.020103	0.227748
O19	O	1.034143	-0.281251	-0.352817
O20	O	1.534143	0.218749	0.147183
O21	O	0.950083	-0.403322	-0.160836
O22	O	1.450083	0.096678	0.339164
O23	O	0.831235	-0.403281	-0.279698
O24	O	1.331235	0.096719	0.220302
O25	O	0.932229	-0.520032	-0.481174
O26	O	1.432229	-0.020032	0.018826
O27	O	0.822984	-0.509615	-0.371010
O28	O	1.322984	-0.009615	0.128990
O29	O	1.023253	-0.421591	-0.473332
O30	O	1.523253	0.078409	0.026668
O31	O	1.020992	-0.650027	-0.282603
O32	O	1.520992	-0.150027	0.217397
O33	O	0.930942	-0.649996	-0.372662
O34	O	1.430942	-0.149996	0.127338
C35	C	0.801584	-0.455279	-0.326328
C36	C	1.301584	0.044721	0.173672
C37	C	0.723389	-0.451715	-0.329327
C38	C	1.223389	0.048285	0.170673
C39	C	0.686149	-0.501220	-0.287859
C40	C	1.186149	-0.001220	0.212141
C41	C	0.612676	-0.497872	-0.290687
C42	C	1.112676	0.002128	0.209313
C43	C	0.576445	-0.445014	-0.334979
C44	C	1.076445	0.054986	0.165021
C45	C	0.613690	-0.395507	-0.376452
C46	C	1.113690	0.104493	0.123548
C47	C	0.687161	-0.398860	-0.373628
C48	C	1.187161	0.101140	0.126372
C49	C	0.356763	-0.429502	-0.348028
C50	C	0.856763	0.070498	0.151972
C51	C	0.283287	-0.426151	-0.350847
C52	C	0.783287	0.073849	0.149153
C53	C	0.282278	-0.528517	-0.265082
C54	C	0.782278	-0.028517	0.234918
C55	C	0.355751	-0.531861	-0.262259
C56	C	0.855751	-0.031861	0.237741
C57	C	0.392990	-0.482358	-0.303734
C58	C	0.892990	0.017642	0.196266
N59	N	0.501344	-0.441588	-0.337869
N60	N	1.001344	0.058412	0.162131
N61	N	0.468089	-0.485788	-0.300848
N62	N	0.968089	0.014212	0.199152
C63	C	0.974623	-0.680263	-0.328990
C64	C	1.474623	-0.180263	0.171010
C65	C	0.970520	-0.772931	-0.333132
C66	C	1.470520	-0.272931	0.166868
C67	C	1.005812	-0.983878	-0.298016
C68	C	1.505812	-0.483878	0.201984
C69	C	0.963042	-0.942593	-0.340702
C70	C	1.463042	-0.442593	0.159298
C71	C	0.967204	-0.848184	-0.336489
C72	C	1.467204	-0.348184	0.163511
C73	C	1.001651	-1.078295	-0.302227
C74	C	1.501651	-0.578295	0.197773
C75	C	1.167854	-0.472071	-0.312361
C76	C	1.667854	0.027929	0.187639
C77	C	1.246047	-0.475656	-0.309379
C78	C	1.746047	0.024344	0.190621
C79	C	0.976637	-0.472005	-0.503599
C80	C	1.476637	0.027995	-0.003599
C81	C	0.973344	-0.475562	-0.582112
C82	C	1.473344	0.024438	-0.082112
C83	C	0.994157	-0.246209	-0.309702
C84	C	1.494157	0.253791	0.190298
C85	C	0.998332	-0.153545	-0.305587
C86	C	1.498332	0.346455	0.194413
C87	C	1.019187	-0.425983	-0.614916
C88	C	1.519187	0.074017	-0.114916
C89	C	1.016085	-0.429322	-0.688688
C90	C	1.516085	0.070678	-0.188688
C91	C	0.967144	-0.482245	-0.729654
C92	C	1.467144	0.017755	-0.229654
C93	C	0.921296	-0.531826	-0.696845
C94	C	1.421296	-0.031826	-0.196845
C95	C	0.924395	-0.528483	-0.623075
C96	C	1.424395	-0.028483	-0.123075
C97	C	0.952791	-0.497737	-0.950721
C98	C	1.452791	0.002263	-0.450721
C99	C	0.949697	-0.501078	-1.024496
C100	C	1.449697	-0.001078	-0.524496
C101	C	1.044485	-0.398572	-1.016333
C102	C	1.544485	0.101428	-0.516333
C103	C	1.047582	-0.395237	-0.942562
C104	C	1.547582	0.104763	-0.442562
C105	C	1.001733	-0.444815	-0.909760
C106	C	1.501733	0.055185	-0.409760
N107	N	0.963974	-0.485661	-0.805060
N108	N	1.463974	0.014339	-0.305060
N109	N	1.004900	-0.441394	-0.834355
N110	N	1.504900	0.058606	-0.334355
C111	C	0.992100	-0.455285	-0.135828
C112	C	1.492100	0.044715	0.364172
C113	C	0.995539	-0.451499	-0.057300
C114	C	1.495539	0.048501	0.442700
H115	H	0.387074	-0.389193	-0.381801
H116	H	0.887074	0.110807	0.118199
H117	H	0.915466	-0.538119	-0.924023
H118	H	1.415466	-0.038119	-0.424023
O119	O	1.053123	-0.941419	-0.250568
O120	O	1.553123	-0.441419	0.249432
C121	C	1.017185	-0.887203	-0.204257
C122	C	1.517185	-0.387203	0.295743
H123	H	0.960828	-0.910849	-0.203121
H124	H	1.460828	-0.410849	0.296879
H125	H	1.044992	-0.884805	-0.148894
H126	H	1.544992	-0.384805	0.351106
H127	H	1.016674	-0.822118	-0.223306
H128	H	1.516674	-0.322118	0.276694
O129	O	0.721452	-0.552494	-0.244848
O130	O	1.221452	-0.052494	0.255152
C131	C	0.794285	-0.544856	-0.251258
C132	C	1.294285	-0.044856	0.248742
H133	H	0.806242	-0.482070	-0.271234
H134	H	1.306242	0.017930	0.228766
H135	H	0.824160	-0.549293	-0.197514
H136	H	1.324160	-0.049293	0.302486
H137	H	0.811347	-0.597028	-0.290206
H138	H	1.311347	-0.097028	0.209794
H139	H	1.059042	-0.382890	-0.581566
H140	H	1.559042	0.117110	-0.081566
O141	O	1.060691	-0.381135	-0.720440
O142	O	1.560691	0.118865	-0.220440
C143	C	1.104544	-0.333697	-0.668463
C144	C	1.604544	0.166303	-0.168463
H145	H	1.107648	-0.365575	-0.617302
H146	H	1.607648	0.134425	-0.117302
H147	H	1.159478	-0.328317	-0.687274
H148	H	1.659478	0.171683	-0.187274
H149	H	1.081970	-0.268841	-0.658785
H150	H	1.581970	0.231159	-0.158785
O151	O	0.915695	-0.984975	-0.388169
O152	O	1.415695	-0.484975	0.111831
C153	C	0.928959	-0.967595	-0.457070
C154	C	1.428959	-0.467595	0.042930
H155	H	0.986046	-0.946263	-0.457494
H156	H	1.486046	-0.446263	0.042506
H157	H	0.918925	-1.026201	-0.494701
H158	H	1.418925	-0.526201	0.005299
H159	H	0.892633	-0.916268	-0.474732
H160	H	1.392633	-0.416268	0.025268
H161	H	1.087438	-0.352144	-0.909212
H162	H	1.587438	0.147856	-0.409212
O163	O	0.576612	-0.545985	-0.250331
O164	O	1.076612	-0.045985	0.249669
C165	C	0.624345	-0.593367	-0.210640
C166	C	1.124345	-0.093367	0.289360
H167	H	0.678350	-0.561494	-0.204714
H168	H	1.178350	-0.061494	0.295286
H169	H	0.605040	-0.598660	-0.156180
H170	H	1.105040	-0.098660	0.343820
H171	H	0.628241	-0.658259	-0.238931
H172	H	1.128241	-0.158259	0.261069
H173	H	0.881445	-0.574914	-0.730206
H174	H	1.381445	-0.074914	-0.230206
O175	O	1.088944	-0.350438	-1.048311
O176	O	1.588944	0.149562	-0.548311
C177	C	1.075729	-0.364749	-1.122207
C178	C	1.575729	0.135251	-0.622207
H179	H	1.019786	-0.390023	-1.135563
H180	H	1.519786	0.109977	-0.635563
H181	H	1.082134	-0.303791	-1.147288
H182	H	1.582134	0.196209	-0.647288
H183	H	1.114580	-0.412004	-1.143525
H184	H	1.614580	0.087996	-0.643525
O185	O	0.902088	-0.552508	-1.064187
O186	O	1.402088	-0.052508	-0.564187
C187	C	0.862295	-0.595566	-1.019417
C188	C	1.362295	-0.095566	-0.519417
H189	H	0.863602	-0.558924	-0.965408
H190	H	1.363602	-0.058924	-0.465408
H191	H	0.805574	-0.602881	-1.043242
H192	H	1.305574	-0.102881	-0.543242
H193	H	0.885531	-0.659709	-1.013399
H194	H	1.385531	-0.159709	-0.513399
O195	O	0.723362	-0.350894	-0.413987
O196	O	1.223362	0.149106	0.086013
C197	C	0.761841	-0.402450	-0.460011
C198	C	1.261841	0.097550	0.039989
H199	H	0.736570	-0.467301	-0.468053
H200	H	1.236570	0.032699	0.031947
H201	H	0.761760	-0.374903	-0.513046
H202	H	1.261760	0.125097	-0.013046
H203	H	0.818305	-0.406834	-0.436153
H204	H	1.318305	0.093166	0.063847
H205	H	0.887059	-0.568847	-0.596367
H206	H	1.387059	-0.068847	-0.096367
H207	H	0.385246	-0.574903	-0.226190
H208	H	0.885246	-0.074903	0.273810
O209	O	0.248197	-0.374789	-0.393942
O210	O	0.748197	0.125211	0.106058
C211	C	0.296820	-0.331802	-0.429934
C212	C	0.796820	0.168198	0.070066
H213	H	0.347560	-0.368450	-0.431837
H214	H	0.847560	0.131550	0.068163
H215	H	0.273664	-0.324575	-0.486025
H216	H	0.773664	0.175425	0.013975
H217	H	0.308551	-0.267621	-0.401045
H218	H	0.808551	0.232379	0.098955
O219	O	0.246174	-0.576729	-0.224838
O220	O	0.746174	-0.076729	0.275162
C221	C	0.259746	-0.661361	-0.243182
C222	C	0.759746	-0.161361	0.256818
H223	H	0.311880	-0.666800	-0.268362
H224	H	0.811880	-0.166800	0.231638
H225	H	0.262710	-0.696456	-0.193715
H226	H	0.762710	-0.196456	0.306285
H227	H	0.215621	-0.689264	-0.282301
H228	H	0.715621	-0.189264	0.217699
O229	O	0.578390	-0.344179	-0.419417
O230	O	1.078390	0.155821	0.080583
C231	C	0.505555	-0.351847	-0.413030
C232	C	1.005555	0.148153	0.086970
H233	H	0.496570	-0.376121	-0.360076
H234	H	0.996570	0.123879	0.139924
H235	H	0.480235	-0.288355	-0.416204
H236	H	0.980235	0.211645	0.083796
H237	H	0.480965	-0.397263	-0.457646
H238	H	0.980965	0.102737	0.042354
