data_functionalizedCrystal
_audit_creation_method	'MofGen! by Chris Wilmer'
_symmetry_space_group_name_H-M	'P1'
_symmetry_Int_Tables_number	1
_symmetry_cell_setting	triclinic
loop_
_symmetry_equiv_pos_as_xyz
  x,y,z
_cell_length_a	18.215407
_cell_length_b	12.594516
_cell_length_c	18.215399
_cell_angle_alpha	89.975485
_cell_angle_beta	89.983176
_cell_angle_gamma	90.016501
loop_
_atom_site_label
_atom_site_type_symbol
_atom_site_fract_x
_atom_site_fract_y
_atom_site_fract_z
Zn1	Zn	1.125095	-0.423715	-0.416146
Zn2	Zn	1.125029	-0.601720	-0.293092
Zn3	Zn	1.002034	-0.423757	-0.293093
Zn4	Zn	1.002013	-0.601653	-0.416117
O5	O	1.063543	-0.512711	-0.354612
O6	O	1.228071	-0.447338	-0.399834
O7	O	1.108695	-0.578158	-0.190108
O8	O	1.018395	-0.274806	-0.309429
O9	O	1.228022	-0.578117	-0.309427
O10	O	1.108808	-0.274775	-0.399835
O11	O	1.018331	-0.447410	-0.190109
O12	O	0.899047	-0.447345	-0.309401
O13	O	1.018359	-0.578004	-0.519105
O14	O	0.899031	-0.578045	-0.399786
O15	O	1.108787	-0.447273	-0.519126
O16	O	1.108674	-0.750657	-0.309399
O17	O	1.018294	-0.750608	-0.399785
C18	C	0.872337	-0.512693	-0.354591
C19	C	0.790538	-0.512711	-0.354599
C20	C	0.602355	-0.580873	-0.401604
C21	C	0.525496	-0.580877	-0.401613
C22	C	0.525483	-0.444569	-0.307636
C23	C	0.602340	-0.444561	-0.307631
C24	C	0.640774	-0.512719	-0.354614
C25	C	0.487058	-0.512730	-0.354628
C26	C	0.403724	-0.512734	-0.354638
C27	C	0.724113	-0.512715	-0.354606
C28	C	1.063495	-0.789252	-0.354605
C29	C	1.063541	-0.907558	-0.354626
C30	C	1.014379	-0.976823	-0.403753
C31	C	0.996453	-1.047686	-0.336600
C32	C	1.081534	-1.047494	-0.421791
C33	C	1.045580	-0.976862	-0.287438
C34	C	1.130692	-0.976664	-0.372674
C35	C	1.112792	-1.047495	-0.305475
C36	C	1.255496	-0.512730	-0.354634
C37	C	1.337295	-0.512739	-0.354643
C38	C	1.063578	-0.512626	-0.546565
C39	C	1.063592	-0.512590	-0.628364
C40	C	1.063611	-0.235091	-0.354635
C41	C	1.063640	-0.116785	-0.354645
C42	C	1.016580	-0.444463	-0.816559
C43	C	1.016593	-0.444442	-0.893418
C44	C	1.110693	-0.580590	-0.893406
C45	C	1.110676	-0.580616	-0.816549
C46	C	1.063620	-0.512547	-0.778127
C47	C	1.063650	-0.512499	-0.931844
C48	C	1.063664	-0.512476	-1.015177
C49	C	1.063605	-0.512571	-0.694788
C50	C	1.063551	-0.512719	-0.163406
C51	C	1.063678	-0.512456	-0.081607
H52	H	0.494181	-0.389079	-0.269384
H53	H	1.030336	-0.945965	-0.230630
H54	H	0.939711	-1.078905	-0.321350
H55	H	0.633645	-0.636369	-0.439862
H56	H	0.494218	-0.636373	-0.439878
H57	H	0.633622	-0.389055	-0.269367
H58	H	1.154409	-1.078331	-0.263891
H59	H	0.972730	-0.945791	-0.445237
H60	H	1.187421	-0.945448	-0.387956
H61	H	1.096713	-1.078520	-0.478583
H62	H	0.978264	-0.389037	-0.785279
H63	H	0.978287	-0.389003	-0.924706
H64	H	1.149005	-0.636009	-0.924699
H65	H	1.148984	-0.636061	-0.785257
