data_functionalizedCrystal
_audit_creation_method	'MofGen! by Chris Wilmer'
_symmetry_space_group_name_H-M	'P1'
_symmetry_Int_Tables_number	1
_symmetry_cell_setting	triclinic
loop_
_symmetry_equiv_pos_as_xyz
  x,y,z
_cell_length_a	27.731993
_cell_length_b	27.732048
_cell_length_c	14.185569
_cell_angle_alpha	76.951782
_cell_angle_beta	103.051260
_cell_angle_gamma	82.631525
loop_
_atom_site_label
_atom_site_type_symbol
_atom_site_fract_x
_atom_site_fract_y
_atom_site_fract_z
O1	O	0.629931	0.068402	-0.083166
O2	O	1.129931	0.568402	0.416834
O3	O	0.489125	0.077183	-0.083229
O4	O	0.989125	0.577183	0.416771
O5	O	0.563903	0.002392	-0.083176
O6	O	1.063903	0.502392	0.416824
O7	O	0.555152	0.143193	-0.083218
O8	O	1.055152	0.643193	0.416782
O9	O	0.585994	-0.019699	0.083674
O10	O	1.085994	0.480301	0.583674
O11	O	0.511215	0.055092	0.083622
O12	O	1.011215	0.555092	0.583622
O13	O	0.652021	0.046310	0.083684
O14	O	1.152021	0.546310	0.583684
Cu15	Cu	0.583635	0.048684	0.098888
Cu16	Cu	1.083635	0.548684	0.598888
Cu17	Cu	0.557511	0.074810	-0.098432
Cu18	Cu	1.057511	0.574810	0.401568
O19	O	0.577242	0.121101	0.083632
O20	O	1.077242	0.621101	0.583632
C21	C	0.482162	0.065958	0.000189
C22	C	0.982162	0.565958	0.500189
C23	C	0.428502	0.065419	0.000166
C24	C	0.928502	0.565419	0.500166
C25	C	0.574765	-0.026661	0.000252
C26	C	1.074765	0.473339	0.500252
C27	C	0.574214	-0.080317	0.000260
C28	C	1.074214	0.419683	0.500260
C29	C	0.033307	0.073524	-0.090734
C30	C	0.533307	0.573524	0.409266
C31	C	0.234961	0.075595	-0.090762
C32	C	0.734961	0.575595	0.409238
O33	O	0.250793	0.086084	-0.168114
O34	O	0.750793	0.586084	0.331886
N35	N	0.272222	0.063811	0.000186
N36	N	0.772222	0.563811	0.500186
C37	C	0.259069	0.051507	0.091147
C38	C	0.759069	0.551507	0.591147
O39	O	0.295389	0.041527	0.168503
O40	O	0.795389	0.541527	0.668503
C41	C	0.057416	0.049432	0.091174
C42	C	0.557416	0.549432	0.591174
C43	C	0.020156	0.061221	0.000220
C44	C	0.520156	0.561221	0.500220
C45	C	-0.003952	0.085311	-0.181681
C46	C	0.496048	0.585311	0.318319
C47	C	-0.054363	0.084796	-0.181673
C48	C	0.445637	0.584796	0.318327
C49	C	-0.067514	0.072494	-0.090719
C50	C	0.432486	0.572494	0.409281
C51	C	-0.030255	0.060706	0.000228
C52	C	0.469745	0.560706	0.500228
C53	C	0.044263	0.037124	0.182134
C54	C	0.544263	0.537124	0.682134
C55	C	-0.006154	0.036605	0.182132
C56	C	0.493846	0.536605	0.682132
C57	C	-0.043414	0.048394	0.091179
C58	C	0.456586	0.548394	0.591179
C59	C	-0.093817	0.047889	0.091190
C60	C	0.406183	0.547889	0.591190
N61	N	-0.131078	0.059672	0.000242
N62	N	0.368922	0.559672	0.500242
C63	C	-0.117927	0.071974	-0.090712
C64	C	0.382073	0.571974	0.409288
C65	C	0.364938	0.052597	0.091126
C66	C	0.864938	0.552597	0.591126
C67	C	0.415351	0.053117	0.091120
C68	C	0.915351	0.553117	0.591120
C69	C	0.391240	0.077204	-0.090790
C70	C	0.891240	0.577204	0.409210
C71	C	0.340826	0.076688	-0.090782
C72	C	0.840826	0.576688	0.409218
C73	C	0.327677	0.064380	0.000179
C74	C	0.827677	0.564380	0.500179
C75	C	-0.223792	0.070892	-0.090689
C76	C	0.276208	0.570892	0.409311
C77	C	-0.274206	0.070378	-0.090673
C78	C	0.225794	0.570378	0.409327
C79	C	-0.250091	0.046288	0.091236
C80	C	0.249909	0.546288	0.591236
C81	C	-0.199681	0.046805	0.091221
C82	C	0.300319	0.546805	0.591221
C83	C	-0.186534	0.059106	0.000250
C84	C	0.313466	0.559106	0.500250
O85	O	-0.109685	0.037399	0.168501
O86	O	0.390315	0.537399	0.668501
O87	O	-0.154253	0.081942	-0.168057
O88	O	0.345747	0.581942	0.331943
C89	C	0.083718	0.074039	-0.090742
C90	C	0.583718	0.574039	0.409258
C91	C	0.120977	0.062252	0.000204
C92	C	0.620977	0.562252	0.500204
C93	C	0.107826	0.049949	0.091158
C94	C	0.607826	0.549949	0.591158
C95	C	0.171390	0.062771	0.000198
C96	C	0.671390	0.562771	0.500198
C97	C	0.184541	0.075074	-0.090757
C98	C	0.684541	0.575074	0.409243
C99	C	0.147280	0.086857	-0.181704
C100	C	0.647280	0.586857	0.318296
C101	C	0.096869	0.086342	-0.181697
C102	C	0.596869	0.586342	0.318303
C103	C	0.145087	0.038166	0.182106
C104	C	0.645087	0.538166	0.682106
C105	C	0.195497	0.038683	0.182091
C106	C	0.695497	0.538683	0.682091
C107	C	0.208648	0.050985	0.091137
C108	C	0.708648	0.550985	0.591137
C109	C	0.614914	-0.419135	0.000226
C110	C	1.114914	0.080865	0.500226
C111	C	0.612861	-0.620793	0.000211
C112	C	1.112861	-0.120793	0.500211
O113	O	0.650079	-0.652052	0.000184
O114	O	1.150079	-0.152052	0.500184
N115	N	0.568522	-0.639905	0.000193
N116	N	1.068522	-0.139905	0.500193
C117	C	0.524692	-0.608599	0.000171
C118	C	1.024692	-0.108599	0.500171
O119	O	0.486931	-0.629481	0.000144
O120	O	0.986931	-0.129481	0.500144
C121	C	0.526745	-0.406942	0.000179
C122	C	1.026745	0.093058	0.500179
C123	C	0.571088	-0.387834	0.000208
C124	C	1.071088	0.112166	0.500208
C125	C	0.659253	-0.400027	0.000254
C126	C	1.159253	0.099973	0.500254
C127	C	0.659767	-0.349616	0.000263
C128	C	1.159767	0.150384	0.500263
C129	C	0.615941	-0.318314	0.000245
C130	C	1.115941	0.181686	0.500245
C131	C	0.571602	-0.337423	0.000217
C132	C	1.071602	0.162577	0.500217
C133	C	0.482915	-0.375636	0.000150
C134	C	0.982915	0.124364	0.500150
C135	C	0.483432	-0.325219	0.000149
C136	C	0.983432	0.174781	0.500149
C137	C	0.527775	-0.306110	0.000178
C138	C	1.027775	0.193890	0.500178
C139	C	0.528289	-0.255711	0.000207
C140	C	1.028289	0.244289	0.500207
N141	N	0.572628	-0.236598	0.000226
N142	N	1.072628	0.263402	0.500226
C143	C	0.616454	-0.267900	0.000245
C144	C	1.116454	0.232100	0.500245
C145	C	0.523618	-0.714473	0.000169
C146	C	1.023618	-0.214473	0.500169
C147	C	0.523105	-0.764887	0.000169
C148	C	1.023105	-0.264887	0.500169
C149	C	0.611274	-0.777077	0.000207
C150	C	1.111274	-0.277077	0.500207
C151	C	0.611787	-0.726663	0.000215
C152	C	1.111787	-0.226663	0.500215
C153	C	0.567957	-0.695360	0.000188
C154	C	1.067957	-0.195360	0.500188
C155	C	0.617529	-0.162034	0.000265
C156	C	1.117529	0.337966	0.500265
C157	C	0.618039	-0.111619	0.000278
C158	C	1.118039	0.388381	0.500278
C159	C	0.529870	-0.099432	0.000234
C160	C	1.029870	0.400568	0.500234
C161	C	0.529361	-0.149844	0.000226
C162	C	1.029361	0.350156	0.500226
C163	C	0.573194	-0.181143	0.000238
C164	C	1.073194	0.318857	0.500238
O165	O	0.491090	-0.224422	0.000223
O166	O	0.991090	0.275578	0.500223
O167	O	0.654207	-0.247005	0.000249
O168	O	1.154207	0.252995	0.500249
C169	C	0.614400	-0.469546	0.000217
C170	C	1.114400	0.030454	0.500217
C171	C	0.570061	-0.488655	0.000189
C172	C	1.070061	0.011345	0.500189
C173	C	0.526235	-0.457353	0.000171
C174	C	1.026235	0.042647	0.500171
C175	C	0.569548	-0.539069	0.000189
C176	C	1.069548	-0.039069	0.500189
C177	C	0.613374	-0.570371	0.000208
C178	C	1.113374	-0.070371	0.500208
C179	C	0.657713	-0.551258	0.000227
C180	C	1.157713	-0.051258	0.500227
C181	C	0.658226	-0.500848	0.000236
C182	C	1.158226	-0.000848	0.500236
C183	C	0.481896	-0.476466	0.000152
C184	C	0.981896	0.023534	0.500152
C185	C	0.481387	-0.526877	0.000144
C186	C	0.981387	-0.026877	0.500144
C187	C	0.525212	-0.558179	0.000162
C188	C	1.025212	-0.058179	0.500162
C189	C	0.658984	0.057535	0.000265
C190	C	1.158984	0.557535	0.500265
C191	C	0.712642	0.058075	0.000281
C192	C	1.212642	0.558075	0.500281
C193	C	0.566380	0.150155	0.000202
C194	C	1.066380	0.650155	0.500202
C195	C	0.566931	0.203811	0.000187
C196	C	1.066931	0.703811	0.500187
N197	N	0.602013	0.030308	0.237672
N198	N	1.102013	0.530308	0.737672
N199	N	0.539137	0.093182	-0.237216
N200	N	1.039137	0.593182	0.262784
C201	C	0.485143	0.147149	0.605240
C202	C	0.985143	0.647149	1.105240
C203	C	0.499067	0.133233	0.710271
C204	C	0.999067	0.633233	1.210271
C205	C	0.565296	0.067029	0.710278
C206	C	1.065296	0.567029	1.210278
C207	C	0.551376	0.080938	0.605245
C208	C	1.051376	0.580938	1.105245
C209	C	0.511299	0.120999	0.552734
C210	C	1.011299	0.620999	1.052734
C211	C	0.577533	0.054789	0.552739
C212	C	1.077533	0.554789	1.052739
C213	C	0.563615	0.068698	0.447715
C214	C	1.063615	0.568698	0.947715
C215	C	0.523541	0.108758	0.395196
C216	C	1.023541	0.608758	0.895196
C217	C	0.497381	0.134909	0.447709
C218	C	0.997381	0.634909	0.947709
C219	C	0.617612	0.014731	0.605252
C220	C	1.117612	0.514731	1.105252
C221	C	0.643768	-0.011419	0.552746
C222	C	1.143768	0.488581	1.052746
C223	C	0.629848	0.002488	0.447720
C224	C	1.129848	0.502488	0.947720
C225	C	0.589774	0.042548	0.395202
C226	C	1.089774	0.542548	0.895202
C227	C	0.656007	-0.023662	0.395207
C228	C	1.156007	0.476338	0.895207
C229	C	0.642090	-0.009752	0.290183
C230	C	1.142090	0.490248	0.790183
C231	C	0.575856	0.056458	0.290177
C232	C	1.075856	0.556458	0.790177
H233	H	-0.304543	0.079980	-0.164742
H234	H	0.195457	0.579980	0.335258
F235	F	0.436780	-0.291906	0.000118
F236	F	0.936780	0.208094	0.500118
F237	F	0.705422	-0.480517	0.000261
F238	F	1.205422	0.019483	0.500261
H239	H	0.006749	0.095329	-0.255751
H240	H	0.506749	0.595329	0.244249
H241	H	0.464743	0.167526	0.404953
H242	H	0.964743	0.667526	0.904953
F243	F	0.482169	-0.170183	0.000214
F244	F	0.982169	0.329817	0.500214
F245	F	0.483230	-0.066110	0.000215
F246	F	0.983230	0.433890	0.500215
F247	F	0.705903	-0.433334	0.000273
F248	F	1.205903	0.066666	0.500273
H249	H	0.512211	0.120085	0.309679
H250	H	1.012211	0.620085	0.809679
F251	F	0.083909	0.024577	0.278941
F252	F	0.583909	0.524577	0.778941
H253	H	0.693398	-0.576754	0.000246
H254	H	1.193398	-0.076754	0.500246
F255	F	0.665237	-0.091286	0.000309
F256	F	1.165237	0.408714	0.500309
H257	H	0.445276	-0.542431	0.000129
H258	H	0.945276	-0.042431	0.500129
H259	H	0.445684	0.043525	0.165184
H260	H	0.945684	0.543525	0.665184
H261	H	0.597929	0.034413	0.753045
H262	H	1.097929	0.534413	1.253045
H263	H	0.676400	-0.044036	0.595513
H264	H	1.176400	0.455964	1.095513
F265	F	0.533197	0.099091	0.234289
F266	F	1.033197	0.599091	0.734289
F267	F	0.706960	-0.329283	0.000273
F268	F	1.206960	0.170717	0.500273
H269	H	0.134386	0.028145	0.256174
H270	H	0.634386	0.528145	0.756174
F271	F	0.442483	0.189782	0.549351
F272	F	0.942483	0.689782	1.049351
F273	F	0.435248	-0.443158	0.000129
F274	F	0.935248	0.056842	0.500129
H275	H	0.446805	-0.391184	0.000120
H276	H	0.946805	0.108816	0.500120
H277	H	0.477764	0.154531	0.753016
H278	H	0.977764	0.654531	1.253016
H279	H	0.647895	-0.711108	0.000237
H280	H	1.147895	-0.211108	0.500237
F281	F	0.632424	-0.000069	0.717030
F282	F	1.132424	0.499931	1.217030
F283	F	0.698663	-0.066292	0.451104
F284	F	1.198663	0.433708	0.951104
H285	H	0.646958	-0.802572	0.000223
H286	H	1.146958	-0.302572	0.500223
F287	F	0.669930	-0.037584	0.234302
F288	F	1.169930	0.462416	0.734302
F289	F	0.161285	0.099952	-0.278505
F290	F	0.661285	0.599952	0.221495
F291	F	-0.209807	0.083985	-0.187510
F292	F	0.290193	0.583985	0.312490
H293	H	0.310491	0.086287	-0.164845
H294	H	0.810491	0.586287	0.335155
F295	F	-0.094012	0.097340	-0.278479
F296	F	0.405988	0.597340	0.221521
H297	H	0.401956	0.087223	-0.164848
H298	H	0.901956	0.587223	0.335152
H299	H	0.354239	0.042573	0.165202
H300	H	0.854239	0.542573	0.665202
F301	F	0.475912	-0.785220	0.000156
F302	F	0.975912	-0.285220	0.500156
F303	F	0.476965	-0.681164	0.000140
F304	F	0.976965	-0.181164	0.500140
F305	F	-0.020144	0.023503	0.278948
F306	F	0.479856	0.523503	0.778948
F307	F	0.664181	-0.195338	0.000277
F308	F	1.164181	0.304662	0.500277
H309	H	-0.169343	0.037215	0.165283
H310	H	0.330657	0.537215	0.665283
F311	F	0.235147	0.026138	0.278904
F312	F	0.735147	0.526138	0.778904
H313	H	0.066535	0.095941	-0.255761
H314	H	0.566535	0.595941	0.244239
F315	F	-0.264097	0.033197	0.188031
F316	F	0.235903	0.533197	0.688031
