data_functionalizedCrystal
_audit_creation_method	'MofGen! by Chris Wilmer'
_symmetry_space_group_name_H-M	'P1'
_symmetry_Int_Tables_number	1
_symmetry_cell_setting	triclinic
loop_
_symmetry_equiv_pos_as_xyz
  x,y,z
_cell_length_a	12.594517
_cell_length_b	12.594516
_cell_length_c	12.759393
_cell_angle_alpha	89.970672
_cell_angle_beta	89.978231
_cell_angle_gamma	90.015485
loop_
_atom_site_label
_atom_site_type_symbol
_atom_site_fract_x
_atom_site_fract_y
_atom_site_fract_z
Zn1	Zn	1.627262	-0.423693	-0.594122
Zn2	Zn	1.627155	-0.601713	-0.418450
Zn3	Zn	1.449268	-0.423747	-0.418448
Zn4	Zn	1.449248	-0.601628	-0.594078
O5	O	1.538233	-0.512696	-0.506274
O6	O	1.776194	-0.447321	-0.570838
O7	O	1.603520	-0.578164	-0.271428
O8	O	1.472932	-0.274794	-0.441770
O9	O	1.776115	-0.578111	-0.441772
O10	O	1.603704	-0.274755	-0.570837
O11	O	1.472828	-0.447413	-0.271427
O12	O	1.300319	-0.447331	-0.441727
O13	O	1.472899	-0.577967	-0.741105
O14	O	1.300305	-0.578019	-0.570761
O15	O	1.603685	-0.447239	-0.741137
O16	O	1.603502	-0.750648	-0.441729
O17	O	1.472795	-0.750585	-0.570762
C18	C	1.261692	-0.512672	-0.506239
C19	C	1.143387	-0.512688	-0.506249
C20	C	1.003347	-0.441529	-0.436228
C21	C	1.074205	-0.415590	-0.532098
C22	C	1.074101	-0.538579	-0.410390
C23	C	1.003459	-0.486741	-0.602247
C24	C	1.003349	-0.609775	-0.480474
C25	C	1.074175	-0.583874	-0.576410
C26	C	1.538163	-0.789237	-0.506264
C27	C	1.538231	-0.907542	-0.506295
C28	C	1.467133	-0.976800	-0.576427
C29	C	1.441200	-1.047670	-0.480558
C30	C	1.564261	-1.047471	-0.602180
C31	C	1.512247	-0.976854	-0.410376
C32	C	1.635353	-0.976648	-0.532062
C33	C	1.609457	-1.047487	-0.436127
C34	C	1.815854	-0.512720	-0.506310
C35	C	1.934159	-0.512730	-0.506326
C36	C	1.538302	-0.512587	-0.780308
C37	C	1.538332	-0.512541	-0.897085
C38	C	1.538332	-0.235075	-0.506308
C39	C	1.538374	-0.116769	-0.506322
C40	C	1.470309	-0.444446	-0.951952
C41	C	1.470341	-0.444415	-1.061676
C42	C	1.606428	-0.580575	-1.061656
C43	C	1.606390	-0.580611	-0.951934
C44	C	1.402251	-0.376376	-0.897103
C45	C	1.334223	-0.308275	-0.951971
C46	C	1.334255	-0.308244	-1.061695
C47	C	1.402315	-0.376313	-1.116551
C48	C	1.538226	-0.512727	-0.233307
C49	C	1.538402	-0.512473	-0.116531
H50	H	1.406900	-0.945761	-0.635649
H51	H	1.105134	-0.560459	-0.329290
H52	H	1.105075	-0.644069	-0.635725
C53	C	1.291112	-1.152515	-0.532989
C54	C	1.330411	-1.089791	-0.451142
H55	H	1.222717	-1.178520	-0.514828
H56	H	1.286224	-1.110983	-0.594955
H57	H	1.337738	-1.210593	-0.544678
H58	H	1.283789	-1.031709	-0.439458
H59	H	1.335292	-1.131326	-0.389158
H60	H	0.972557	-0.464765	-0.683370
C61	C	0.996880	-0.747491	-0.350447
C62	C	0.961288	-0.720554	-0.450954
H63	H	0.970905	-0.815878	-0.332214
H64	H	1.072287	-0.748126	-0.349578
H65	H	0.971569	-0.696742	-0.301385
H66	H	0.986605	-0.771299	-0.500018
H67	H	0.885865	-0.719927	-0.451831
H68	H	1.278806	-0.252862	-0.907299
C69	C	1.482613	-0.823988	-0.301884
C70	C	1.482466	-0.935162	-0.300893
H71	H	1.464219	-0.798250	-0.234298
H72	H	1.551333	-0.799086	-0.320282
H73	H	1.432373	-0.799232	-0.351736
H74	H	1.532713	-0.959918	-0.251047
H75	H	1.413737	-0.960074	-0.282483
H76	H	1.661794	-0.636046	-0.907260
C77	C	1.080489	-0.230362	-0.488114
C78	C	1.116234	-0.304781	-0.561580
H79	H	1.106440	-0.161954	-0.506309
H80	H	1.005080	-0.229412	-0.487736
H81	H	1.105721	-0.249241	-0.420475
H82	H	1.090995	-0.285906	-0.629219
H83	H	1.191658	-0.305727	-0.561970
C84	C	1.663270	-1.053297	-0.255712
C85	C	1.690705	-1.089136	-0.355993
H86	H	1.713423	-1.079018	-0.206240
H87	H	1.663250	-0.977887	-0.254872
H88	H	1.594535	-1.078697	-0.238008
H89	H	1.759438	-1.063730	-0.373699
H90	H	1.690737	-1.164562	-0.356835
H91	H	1.661842	-0.635991	-1.106329
H92	H	1.717401	-0.945431	-0.553880
H93	H	1.586219	-1.078490	-0.683258
H94	H	1.278857	-0.252800	-1.106365
H95	H	1.402219	-0.376392	-0.807760
C96	C	1.328269	-0.302137	-1.273742
C97	C	1.402351	-0.376279	-1.237163
H98	H	1.328300	-0.302111	-1.348201
H99	H	1.259579	-0.320549	-1.248916
H100	H	1.346701	-0.233465	-1.248929
H101	H	1.383915	-0.444953	-1.261970
H102	H	1.471056	-0.357873	-1.262000
H103	H	0.972251	-0.381289	-0.377054
