data_functionalizedCrystal
_audit_creation_method	'MofGen! by Chris Wilmer'
_symmetry_space_group_name_H-M	'P1'
_symmetry_Int_Tables_number	1
_symmetry_cell_setting	triclinic
loop_
_symmetry_equiv_pos_as_xyz
  x,y,z
_cell_length_a	25.639242
_cell_length_b	25.639240
_cell_length_c	18.215399
_cell_angle_alpha	89.962783
_cell_angle_beta	89.972127
_cell_angle_gamma	90.027658
loop_
_atom_site_label
_atom_site_type_symbol
_atom_site_fract_x
_atom_site_fract_y
_atom_site_fract_z
Zn1	Zn	0.799279	-0.208227	-0.416226
Zn2	Zn	0.799202	-0.295663	-0.293140
Zn3	Zn	0.711846	-0.208236	-0.293156
Zn4	Zn	0.711810	-0.295626	-0.416148
O5	O	0.755534	-0.251938	-0.354668
O6	O	0.872434	-0.219838	-0.399925
O7	O	0.787597	-0.284085	-0.190158
O8	O	0.723491	-0.135070	-0.309522
O9	O	0.872377	-0.284077	-0.309494
O10	O	0.787728	-0.135063	-0.399940
O11	O	0.723417	-0.219853	-0.190170
O12	O	0.638676	-0.219816	-0.309445
O13	O	0.723430	-0.284013	-0.519142
O14	O	0.638649	-0.284021	-0.399807
O15	O	0.787693	-0.219801	-0.519200
O16	O	0.787562	-0.368823	-0.309418
O17	O	0.723355	-0.368796	-0.399791
C18	C	0.755460	-0.387781	-0.354610
C19	C	0.755476	-0.445895	-0.354610
C20	C	0.619692	-0.251916	-0.354620
C21	C	0.561578	-0.251919	-0.354617
C22	C	0.310389	-0.218451	-0.307698
C23	C	0.364993	-0.218446	-0.307689
O24	O	0.393234	-0.189959	-0.267755
N25	N	0.392304	-0.251926	-0.354654
C26	C	0.365007	-0.285409	-0.401636
O27	O	0.393250	-0.313885	-0.441584
C28	C	0.310403	-0.285410	-0.401649
C29	C	0.283096	-0.251932	-0.354676
C30	C	0.283082	-0.184975	-0.260729
C31	C	0.228481	-0.184981	-0.260737
C32	C	0.201188	-0.218462	-0.307715
C33	C	0.228495	-0.251938	-0.354684
C34	C	0.283107	-0.318890	-0.448635
C35	C	0.228500	-0.318889	-0.448644
C36	C	0.201193	-0.285411	-0.401670
C37	C	0.146602	-0.285425	-0.401670
N38	N	0.119292	-0.251945	-0.354705
C39	C	0.146585	-0.218464	-0.307728
C40	C	0.479677	-0.285402	-0.401608
C41	C	0.534280	-0.285403	-0.401592
C42	C	0.534263	-0.218439	-0.307645
C43	C	0.479659	-0.218441	-0.307657
C44	C	0.452367	-0.251922	-0.354642
C45	C	0.031920	-0.218479	-0.307749
C46	C	-0.022686	-0.218489	-0.307759
C47	C	-0.022664	-0.285450	-0.401709
C48	C	0.031937	-0.285442	-0.401696
C49	C	0.059227	-0.251952	-0.354713
O50	O	0.118326	-0.313896	-0.441585
O51	O	0.118335	-0.189987	-0.267794
C52	C	0.788999	-0.806216	-0.401834
C53	C	0.789014	-0.860820	-0.401849
O54	O	0.817428	-0.889021	-0.441941
N55	N	0.755607	-0.888177	-0.354739
C56	C	0.722178	-0.860927	-0.307616
O57	O	0.693763	-0.889210	-0.267547
C58	C	0.722160	-0.806323	-0.307605
C59	C	0.755574	-0.778969	-0.354713
C60	C	0.822409	-0.778862	-0.448938
C61	C	0.822394	-0.724261	-0.448922
C62	C	0.788969	-0.697015	-0.401801
C63	C	0.755559	-0.724369	-0.354697
C64	C	0.688729	-0.779074	-0.260487
C65	C	0.688714	-0.724467	-0.260481
C66	C	0.722127	-0.697113	-0.307588
C67	C	0.722119	-0.642522	-0.307560
N68	N	0.755526	-0.615165	-0.354670
C69	C	0.788951	-0.642411	-0.401791
C70	C	0.722217	-0.975597	-0.307643
C71	C	0.722237	-1.030200	-0.307650
C72	C	0.789073	-1.030089	-0.401883
C73	C	0.789055	-0.975486	-0.401872
C74	C	0.755624	-0.948241	-0.354753
C75	C	0.788918	-0.527746	-0.401753
C76	C	0.788902	-0.473141	-0.401730
C77	C	0.722064	-0.473256	-0.307500
C78	C	0.722082	-0.527857	-0.307519
C79	C	0.755511	-0.555101	-0.354652
O80	O	0.693717	-0.614286	-0.267491
O81	O	0.817357	-0.614122	-0.441860
C82	C	0.891907	-0.251961	-0.354716
C83	C	0.950021	-0.251970	-0.354737
C84	C	0.755566	-0.251902	-0.546621
C85	C	0.755580	-0.251887	-0.628420
C86	C	0.755623	-0.115565	-0.354742
C87	C	0.755660	-0.057451	-0.354773
C88	C	0.789054	-0.218421	-0.816645
C89	C	0.789060	-0.218405	-0.893504
C90	C	0.722142	-0.285272	-0.893432
C91	C	0.722134	-0.285284	-0.816575
C92	C	0.755593	-0.251859	-0.778183
C93	C	0.755607	-0.251832	-0.931899
C94	C	0.755614	-0.251815	-1.015233
C95	C	0.755585	-0.251875	-0.694844
C96	C	0.755532	-0.251936	-0.163461
C97	C	0.755620	-0.251804	-0.081663
H98	H	-0.044917	-0.191226	-0.269506
H99	H	0.694851	-0.451064	-0.269132
H100	H	0.556495	-0.191176	-0.269394
C101	C	0.825838	-1.060071	-0.453723
N102	N	0.853527	-1.082655	-0.492766
H103	H	0.694882	-0.312513	-0.785259
H104	H	0.661489	-0.702287	-0.222111
C105	C	0.685483	-1.060283	-0.255822
N106	N	0.657797	-1.082940	-0.216786
C107	C	0.564311	-0.322237	-0.453259
N108	N	0.586930	-0.349980	-0.492179
C109	C	0.198450	-0.148144	-0.209073
N110	N	0.175834	-0.120394	-0.170161
C111	C	0.825854	-0.181648	-0.774417
N112	N	0.853572	-0.153947	-0.742612
C113	C	0.825810	-0.945402	-0.453697
N114	N	0.853495	-0.922745	-0.492735
C115	C	0.825695	-0.557707	-0.453596
N116	N	0.853398	-0.580272	-0.492640
C117	C	0.449661	-0.322244	-0.453286
N118	N	0.427055	-0.349996	-0.492208
H119	H	0.305298	-0.157707	-0.222474
H120	H	0.816306	-0.191175	-0.924816
H121	H	0.305332	-0.346152	-0.486886
C122	C	0.198482	-0.355724	-0.500330
N123	N	0.175874	-0.383469	-0.539257
C124	C	0.859154	-0.694179	-0.500742
N125	N	0.886844	-0.671524	-0.539775
H126	H	0.054133	-0.191205	-0.269494
C127	C	0.061975	-0.322271	-0.453367
N128	N	0.084597	-0.350007	-0.492292
H129	H	0.694903	-0.312486	-0.924700
C130	C	0.685440	-0.945632	-0.255802
N131	N	0.657738	-0.923065	-0.216756
H132	H	0.457429	-0.191178	-0.269410
H133	H	0.816113	-0.450871	-0.440091
C134	C	-0.052697	-0.322277	-0.453384
N135	N	-0.075319	-0.350012	-0.492310
H136	H	0.849628	-0.801040	-0.487314
C137	C	0.651967	-0.809152	-0.208669
N138	N	0.624274	-0.831805	-0.169638
H139	H	0.694878	-0.550130	-0.269154
