data_functionalizedCrystal
_audit_creation_method	'MofGen! by Chris Wilmer'
_symmetry_space_group_name_H-M	'P1'
_symmetry_Int_Tables_number	1
_symmetry_cell_setting	triclinic
loop_
_symmetry_equiv_pos_as_xyz
  x,y,z
_cell_length_a	19.902436
_cell_length_b	23.096457
_cell_length_c	19.902436
_cell_angle_alpha	60.007505
_cell_angle_beta	90.004623
_cell_angle_gamma	59.997401
loop_
_atom_site_label
_atom_site_type_symbol
_atom_site_fract_x
_atom_site_fract_y
_atom_site_fract_z
Zr1	Zr	0.647339	0.633654	-0.088086
O2	O	0.540051	0.754440	-0.195369
O3	O	0.680226	0.512869	-0.055203
O4	O	0.680230	0.633640	-0.195363
O5	O	0.540047	0.633680	0.055358
O6	O	0.790809	0.633629	-0.195354
O7	O	0.540047	0.633669	-0.055208
O8	O	0.790802	0.417591	0.055368
O9	O	0.540053	0.849718	-0.195364
O10	O	0.776779	0.562541	-0.041166
O11	O	0.694255	0.562558	0.041341
O12	O	0.694260	0.704751	-0.123680
O13	O	0.611736	0.704768	-0.041173
Zr14	Zr	0.823700	0.633654	0.088268
Zr15	Zr	0.823700	0.633637	-0.088072
Zr16	Zr	0.647339	0.633672	0.088253
Zr17	Zr	0.647344	0.785612	-0.088079
Zr18	Zr	0.823695	0.481697	0.088260
O19	O	0.790812	0.754440	0.055384
O20	O	0.790812	0.754415	-0.195348
O21	O	0.540050	0.754466	0.055364
O22	O	0.930988	0.512869	0.195550
O23	O	0.930988	0.512843	-0.055182
O24	O	0.680226	0.512894	0.195530
O25	O	0.930992	0.633629	-0.055176
O26	O	0.790809	0.633669	0.195545
O27	O	0.680230	0.633680	0.195536
O28	O	0.930992	0.633640	0.055390
O29	O	0.680236	0.849704	-0.195353
O30	O	0.790802	0.417605	0.195534
O31	O	0.930985	0.417591	0.195545
O32	O	0.930985	0.417576	0.055379
O33	O	0.540053	0.849733	-0.055197
O34	O	0.680236	0.849718	-0.055186
O35	O	0.776779	0.562558	0.123862
O36	O	0.859303	0.562541	0.041354
O37	O	0.776783	0.704751	-0.041159
O38	O	0.694260	0.704768	0.041348
C39	C	0.514919	0.633677	0.000073
C40	C	0.440050	0.633684	0.000067
C41	C	0.735514	0.443579	0.000081
C42	C	0.735512	0.379069	0.000078
C43	C	0.168048	0.633644	0.000099
C44	C	0.144483	0.723353	-0.051703
C45	C	0.222321	0.723409	-0.051991
C46	C	0.302991	0.633665	0.000083
C47	C	0.300578	0.589107	-0.037877
C48	C	0.222351	0.589681	-0.038260
C49	C	0.223338	0.587851	0.089884
C50	C	0.300259	0.589537	0.089746
C51	C	0.379258	0.633672	0.000075
C52	C	0.091783	0.633635	0.000104
C53	C	0.778583	0.348759	-0.042993
C54	C	0.778591	0.288137	-0.042986
C55	C	0.735512	0.257838	0.000081
C56	C	0.692439	0.288152	0.043161
C57	C	0.692439	0.348768	0.043160
N58	N	0.665409	0.195449	-0.005898
N59	N	0.665411	0.137869	-0.005901
C60	C	0.735511	0.075207	0.000088
N61	N	0.805609	0.072308	0.006065
N62	N	0.805606	0.129896	0.006064
C63	C	0.735508	0.192111	0.000087
C64	C	0.778595	-0.020838	-0.042978
C65	C	0.778605	-0.081465	-0.042965
C66	C	0.692445	-0.081443	0.043177
C67	C	0.692443	-0.020823	0.043170
C68	C	0.735516	0.009479	0.000088
C69	C	0.956119	0.633632	0.000109
C70	C	1.030989	0.633624	0.000115
C71	C	0.735520	0.633632	-0.220483
C72	C	0.735520	0.633624	-0.295344
C73	C	0.735525	0.823730	0.000100
C74	C	0.735527	0.888240	0.000103
C75	C	0.735519	0.633665	-0.567393
C76	C	0.787822	0.543956	-0.486851
C77	C	0.787595	0.543900	-0.408948
C78	C	0.735520	0.633644	-0.432426
C79	C	0.645853	0.678202	-0.486550
C80	C	0.646139	0.677628	-0.564112
C81	C	0.772160	0.679458	-0.565242
C82	C	0.773975	0.677772	-0.486364
C83	C	0.735515	0.633637	-0.356151
C84	C	0.735517	0.633674	-0.643669
C85	C	0.735519	0.633677	0.220665
C86	C	0.735519	0.633684	0.295526
C87	C	0.956114	0.443557	0.000099
C88	C	1.030982	0.379039	0.000102
C89	C	0.735514	0.443601	0.220655
C90	C	0.735512	0.379099	0.295513
C91	C	0.956114	0.443579	0.220673
C92	C	1.030981	0.379069	0.295537
C93	C	0.514925	0.823730	-0.220492
C94	C	0.440057	0.888240	-0.295356
C95	C	0.514925	0.823752	0.000082
C96	C	0.440057	0.888270	0.000079
C97	C	0.735525	0.823708	-0.220474
C98	C	0.735527	0.888210	-0.295332
C99	C	1.023064	0.348741	-0.042979
C100	C	1.093403	0.288128	-0.042992
C101	C	1.171660	0.257811	0.000080
C102	C	1.179576	0.288115	0.043162
C103	C	1.109237	0.348731	0.043171
C104	C	0.778587	0.348808	0.373749
C105	C	0.778582	0.288210	0.444093
C106	C	0.735506	0.257900	0.436198
C107	C	0.692425	0.288196	0.357954
C108	C	0.692426	0.348798	0.287612
C109	C	1.109224	0.348766	0.287626
C110	C	1.179577	0.288160	0.357962
C111	C	1.171685	0.257855	0.436208
C112	C	1.093434	0.288164	0.444117
C113	C	1.023083	0.348773	0.373782
C114	C	0.361815	0.918550	-0.287444
C115	C	0.291462	0.979175	-0.357780
C116	C	0.299353	1.009483	-0.436026
C117	C	0.377604	0.979170	-0.443936
C118	C	0.447955	0.918551	-0.373601
C119	C	0.447975	0.918574	0.043153
C120	C	0.377636	0.979204	0.043147
C121	C	0.299379	1.009523	0.000072
C122	C	0.291463	0.979216	-0.043007
C123	C	0.361802	0.918592	-0.043005
C124	C	0.778612	0.918501	-0.287411
C125	C	0.778630	0.979100	-0.357741
C126	C	0.735558	1.009410	-0.435991
C127	C	0.692472	0.979113	-0.443910
C128	C	0.692459	0.918511	-0.373581
H129	H	0.221044	0.758546	-0.026726
H130	H	0.104573	0.758385	-0.117535
H131	H	1.115696	0.373392	0.078257
H132	H	0.657366	0.003859	0.078239
H133	H	0.357390	0.523121	-0.001962
C134	C	0.645059	-0.114769	0.090552
N135	N	0.609368	-0.139874	0.126237
H136	H	0.735574	1.058756	-0.493251
H137	H	0.355343	0.893920	-0.078079
C138	C	0.727837	0.766236	-0.511417
N139	N	0.693073	0.832874	-0.530299
H140	H	1.087021	0.263481	0.507835
C141	C	1.249082	0.191178	0.513571
N142	N	1.307381	0.140953	0.571838
C143	C	0.645129	1.012435	-0.529993
N144	N	0.609481	1.037527	-0.594833
C145	C	0.937018	0.382098	0.382499
N146	N	0.872194	0.407197	0.389070
C147	C	0.590655	0.766546	-0.641168
N148	N	0.548870	0.833519	-0.699203
H149	H	0.854021	0.508740	-0.485149
H150	H	0.813667	0.263549	0.507796
C151	C	0.825973	0.382080	-0.090375
N152	N	0.861670	0.407176	-0.126062
C153	C	0.091581	0.770927	-0.017475
N154	N	0.051736	0.806758	0.008312
H155	H	0.511689	0.893893	0.078235
H156	H	0.220547	0.758570	-0.118221
H157	H	1.243286	0.263489	0.351507
H158	H	0.657365	0.263479	0.078227
C159	C	0.205394	1.012507	-0.349061
N160	N	0.140570	1.037610	-0.342492
C161	C	0.222012	1.076208	0.000083
N162	N	0.163742	1.126433	0.000097
H163	H	0.302130	0.620043	-0.103318
H164	H	0.241696	0.523862	-0.002970
H165	H	0.959350	0.373425	-0.078064
C166	C	0.221957	1.076160	-0.513389
N167	N	0.163658	1.126377	-0.571656
H168	H	0.853623	0.508941	-0.369550
H169	H	0.384020	1.003855	-0.507652
C170	C	0.645049	0.254842	0.349283
N171	N	0.609370	0.229713	0.342755
H172	H	0.813666	0.263454	-0.078061
C173	C	0.534021	0.885206	-0.382317
N174	N	0.598845	0.860093	-0.388888
H175	H	0.187026	0.616563	0.121593
H176	H	0.384097	1.003869	0.078230
H177	H	0.813670	0.003832	-0.078054
C178	C	0.353114	0.885228	-0.201380
N179	N	0.346554	0.860137	-0.136558
C180	C	0.735522	0.191228	0.513585
N181	N	0.735542	0.141008	0.571875
H182	H	0.762640	0.508927	-0.486105
H183	H	0.227737	1.003912	-0.078077
H184	H	0.185809	0.621335	-0.104330
C185	C	0.826003	0.885166	-0.201342
N186	N	0.861705	0.860058	-0.136516
H187	H	0.616311	0.647266	-0.449100
H188	H	0.657371	0.893855	-0.380042
H189	H	0.762183	0.508726	-0.369913
H190	H	0.813714	1.003761	-0.351276
H191	H	1.243302	0.263421	0.078230
H192	H	1.115665	0.373431	0.223920
C193	C	0.720943	0.768736	-0.641938
N194	N	0.682363	0.835977	-0.699708
H195	H	0.299883	0.622026	0.118104
C196	C	0.606516	0.634859	-0.563854
N197	N	0.576674	0.602641	-0.563653
H198	H	0.357717	0.524064	0.131591
C199	C	0.250248	0.498573	0.142272
N200	N	0.270510	0.431332	0.181724
C201	C	0.645062	0.382104	0.090550
N202	N	0.609378	0.407212	0.126246
H203	H	0.813684	-0.106147	-0.078035
H204	H	0.837192	0.650742	-0.568225
C205	C	0.590916	0.767346	-0.513251
N206	N	0.549539	0.834490	-0.533360
C207	C	1.084677	0.254798	-0.090380
N208	N	1.078102	0.229693	-0.126069
C209	C	0.863220	0.633881	-0.435936
N210	N	0.930440	0.600820	-0.397949
H211	H	1.228927	0.208453	0.000067
H212	H	0.813665	0.373480	0.380193
H213	H	0.657351	0.373453	0.223911
