data_functionalizedCrystal
_audit_creation_method	'MofGen! by Chris Wilmer'
_symmetry_space_group_name_H-M	'P1'
_symmetry_Int_Tables_number	1
_symmetry_cell_setting	triclinic
loop_
_symmetry_equiv_pos_as_xyz
  x,y,z
_cell_length_a	10.654550
_cell_length_b	10.654550
_cell_length_c	9.730223
_cell_angle_alpha	89.995747
_cell_angle_beta	89.993189
_cell_angle_gamma	84.484916
loop_
_atom_site_label
_atom_site_type_symbol
_atom_site_fract_x
_atom_site_fract_y
_atom_site_fract_z
O1	O	1.667839	0.176398	-0.114403
O2	O	1.302361	0.193204	-0.114381
O3	O	1.493503	0.002062	-0.114383
O4	O	1.476697	0.367541	-0.114400
O5	O	1.493491	0.002057	0.114196
O6	O	1.302348	0.193199	0.114199
O7	O	1.667827	0.176393	0.114177
Zn8	Zn	1.485086	0.184795	0.150480
Zn9	Zn	1.485102	0.184802	-0.150684
O10	O	1.476684	0.367535	0.114180
C11	C	1.492263	-0.044739	-0.000094
C12	C	1.488571	-0.184182	-0.000096
C13	C	1.255556	0.191968	-0.000088
C14	C	1.116113	0.188276	-0.000079
C15	C	1.601112	-0.263667	-0.000103
C16	C	1.597636	-0.394688	-0.000120
C17	C	1.369066	-0.366725	-0.000116
C18	C	1.372544	-0.235707	-0.000109
C19	C	1.036628	0.300817	-0.000104
C20	C	0.905607	0.297341	-0.000128
C21	C	0.933570	0.068771	-0.000107
C22	C	1.064588	0.072249	-0.000074
C23	C	1.088152	0.416844	-0.000110
C24	C	1.008665	0.529395	-0.000136
C25	C	0.877645	0.525918	-0.000160
C26	C	0.826111	0.409891	-0.000157
C27	C	1.714631	0.177630	-0.000119
C28	C	1.854074	0.181321	-0.000136
C29	C	1.477925	0.414336	-0.000112
C30	C	1.481617	0.553779	-0.000119
N31	N	1.485084	0.184790	0.356017
N32	N	1.485114	0.184798	-0.356220
C33	C	1.569750	0.100188	0.427941
C34	C	1.569763	0.100188	0.571824
C35	C	1.400438	0.269404	0.571845
C36	C	1.400420	0.269396	0.427965
H37	H	1.695588	-0.221721	-0.000095
Cl38	Cl	1.676180	-0.006179	0.337498
H39	H	1.129308	-0.019392	-0.000057
H40	H	1.280893	-0.170986	-0.000108
H41	H	1.638705	0.031297	0.630381
Cl42	Cl	1.293967	0.375755	0.337536
Cl43	Cl	0.868782	-0.077081	-0.000111
Cl44	Cl	1.073449	0.675249	-0.000125
Cl45	Cl	1.252863	0.421222	-0.000087
H46	H	1.689279	-0.459401	-0.000129
H47	H	1.274601	-0.408693	-0.000124
Cl48	Cl	0.661396	0.405525	-0.000167
Cl49	Cl	0.777722	0.667407	-0.000180
Cl50	Cl	1.294013	0.375766	0.662301
