data_functionalizedCrystal
_audit_creation_method	'MofGen! by Chris Wilmer'
_symmetry_space_group_name_H-M	'P1'
_symmetry_Int_Tables_number	1
_symmetry_cell_setting	triclinic
loop_
_symmetry_equiv_pos_as_xyz
  x,y,z
_cell_length_a	13.262390
_cell_length_b	11.792254
_cell_length_c	12.376457
_cell_angle_alpha	101.355083
_cell_angle_beta	63.168449
_cell_angle_gamma	84.320360
loop_
_atom_site_label
_atom_site_type_symbol
_atom_site_fract_x
_atom_site_fract_y
_atom_site_fract_z
O1	O	1.512549	0.024069	-0.559053
O2	O	1.185667	0.063847	-0.458552
O3	O	1.357031	-0.121785	-0.511230
O4	O	1.341185	0.209701	-0.506374
O5	O	1.314205	-0.075437	-0.310053
O6	O	1.142841	0.110195	-0.257375
O7	O	1.469723	0.070417	-0.357875
Zn8	Zn	1.299482	0.097665	-0.275684
Zn9	Zn	1.355908	0.036599	-0.540743
O10	O	1.298359	0.256049	-0.305197
C11	C	1.122406	0.089054	-0.345097
C12	C	0.997711	0.095098	-0.306759
C13	C	0.739608	0.011057	-0.637356
C14	C	0.856766	0.005373	-0.673379
C15	C	0.892008	0.027804	-0.581727
C16	C	0.810080	0.055920	-0.454047
C17	C	0.692912	0.061595	-0.418021
C18	C	0.845312	0.078342	-0.362391
C19	C	0.763385	0.106458	-0.234711
C20	C	0.646228	0.112133	-0.198692
C21	C	0.610986	0.089702	-0.290343
C22	C	0.962481	0.072666	-0.398417
C23	C	0.915785	0.123204	-0.179082
C24	C	0.798627	0.128889	-0.143059
C25	C	1.334620	-0.140830	-0.410335
C26	C	1.331632	-0.266626	-0.409417
C27	C	1.329204	-0.368787	-0.408675
C28	C	1.326170	-0.496955	-0.407753
C29	C	1.532985	0.045210	-0.471333
C30	C	1.657682	0.039164	-0.509679
C31	C	1.320771	0.275093	-0.406095
C32	C	1.323761	0.400887	-0.407021
N33	N	1.260982	0.139339	-0.094790
N34	N	1.394417	-0.005084	-0.721640
C35	C	1.483789	-0.101846	0.191703
C36	C	1.510729	-0.131013	0.065081
C37	C	1.448295	-0.063428	0.025107
C38	C	1.358915	0.033330	0.111767
C39	C	1.331978	0.062506	0.238399
C40	C	1.296484	0.100924	0.071803
C41	C	1.207105	0.197682	0.158463
C42	C	1.180171	0.226853	0.285082
C43	C	1.242606	0.159268	0.325057
C44	C	1.323421	0.071748	-0.054829
C45	C	1.171610	0.236100	-0.008133
C46	C	1.144670	0.265268	0.118489
H47	H	0.710902	-0.007214	-0.711966
N48	N	0.953771	0.147414	-0.080211
H49	H	0.931853	0.088562	-0.028659
H50	H	1.040419	0.139582	-0.122493
H51	H	1.534621	-0.156859	0.224258
H52	H	1.120772	0.291136	-0.040678
N53	N	1.018371	0.021663	-0.620573
H54	H	1.064924	0.000446	-0.715364
H55	H	1.028661	0.101121	-0.583457
N56	N	0.484620	0.095820	-0.251489
H57	H	0.456889	0.158152	-0.283207
H58	H	0.474339	0.016331	-0.288542
H59	H	1.029175	0.049777	-0.502375
H60	H	0.923464	-0.017525	-0.777336
N61	N	1.419806	-0.032608	-0.148299
H62	H	1.494912	-0.019719	-0.150815
H63	H	1.401590	-0.107150	-0.122070
N64	N	0.557862	0.142437	-0.060984
H65	H	0.598056	0.154981	-0.008417
H66	H	0.500022	0.217237	-0.038397
N67	N	1.607124	-0.235363	-0.028384
H68	H	1.642588	-0.273754	0.016151
H69	H	1.575000	-0.294792	-0.067598
N70	N	0.710252	0.159208	-0.005353
H71	H	0.668163	0.092507	0.011476
H72	H	0.750608	0.170973	0.047098
H73	H	1.470233	-0.087181	-0.077995
H74	H	1.220669	0.183012	0.428162
H75	H	1.071895	0.344051	0.189063
H76	H	1.107402	0.305647	0.355640
