data_functionalizedCrystal
_audit_creation_method	'MofGen! by Chris Wilmer'
_symmetry_space_group_name_H-M	'P1'
_symmetry_Int_Tables_number	1
_symmetry_cell_setting	triclinic
loop_
_symmetry_equiv_pos_as_xyz
  x,y,z
_cell_length_a	17.019383
_cell_length_b	17.019294
_cell_length_c	8.965430
_cell_angle_alpha	86.121451
_cell_angle_beta	86.120223
_cell_angle_gamma	83.133350
loop_
_atom_site_label
_atom_site_type_symbol
_atom_site_fract_x
_atom_site_fract_y
_atom_site_fract_z
O1	O	1.046553	0.100544	-0.271246
O2	O	0.816876	0.113348	-0.243421
O3	O	0.938122	-0.007893	-0.243398
O4	O	0.925307	0.221785	-0.271269
O5	O	0.938112	-0.007885	0.004681
O6	O	0.816866	0.113356	0.004658
O7	O	1.046543	0.100552	-0.023167
Cu8	Cu	0.931703	0.106955	0.013397
Cu9	Cu	0.931716	0.106945	-0.279985
O10	O	0.925297	0.221793	-0.023190
C11	C	0.787483	0.112864	-0.115548
C12	C	0.699916	0.111403	-0.104124
C13	C	0.658774	0.110714	-0.233975
C14	C	0.576494	0.109353	-0.223221
C15	C	0.535357	0.108676	-0.082614
C16	C	0.576503	0.109367	0.047245
C17	C	0.658782	0.110734	0.036489
C18	C	0.286928	0.104555	-0.043373
C19	C	0.204645	0.103186	-0.032626
C20	C	0.204641	0.103173	-0.303094
C21	C	0.286921	0.104535	-0.313837
C22	C	0.328060	0.105231	-0.183978
C23	C	0.451253	0.107282	-0.071618
C24	C	0.412162	0.106630	-0.194976
C25	C	0.937631	-0.037278	-0.115523
C26	C	0.936173	-0.124846	-0.104092
C27	C	0.935496	-0.165986	-0.233949
C28	C	0.934121	-0.248265	-0.223204
C29	C	0.933429	-0.289403	-0.082601
C30	C	0.934104	-0.248258	0.047266
C31	C	0.935473	-0.165979	0.036520
C32	C	0.929290	-0.537830	-0.043388
C33	C	0.927923	-0.620115	-0.032652
C34	C	0.927939	-0.620116	-0.303123
C35	C	0.929312	-0.537837	-0.313858
C36	C	0.929983	-0.496697	-0.183990
C37	C	0.932027	-0.373506	-0.071614
C38	C	0.931380	-0.412595	-0.194978
C39	C	1.075936	0.101035	-0.151043
C40	C	1.163503	0.102497	-0.162477
C41	C	0.925788	0.251177	-0.151068
C42	C	0.927246	0.338746	-0.162509
N43	N	0.931701	0.106961	0.219746
N44	N	0.931725	0.106933	-0.486334
C45	C	0.875612	0.163013	0.317046
C46	C	0.946877	0.178242	0.405358
C47	C	0.860466	0.091738	0.427556
C48	C	1.003002	0.122226	0.305860
C49	C	0.916544	0.035691	0.328059
C50	C	0.987860	0.050890	0.416324
H51	H	0.543002	0.108821	0.161730
H52	H	0.543000	0.108792	-0.328959
H53	H	0.692277	0.111298	0.142227
H54	H	0.692263	0.111263	-0.348472
H55	H	0.171150	0.102657	0.081876
H56	H	0.445658	0.107186	-0.309458
H57	H	0.929852	-0.504347	0.062358
H58	H	0.320414	0.105116	0.062369
H59	H	1.035355	0.003474	0.459638
H60	H	0.933573	-0.281757	-0.328948
H61	H	0.959713	0.238502	0.439676
H62	H	0.933536	-0.281759	0.161749
H63	H	0.927391	-0.653620	-0.408853
H64	H	0.320410	0.105081	-0.428333
H65	H	0.931466	-0.407011	0.042866
H66	H	0.417750	0.106728	0.042864
H67	H	0.903685	-0.024549	0.293707
H68	H	0.171136	0.102609	-0.408818
H69	H	0.936063	-0.132497	-0.348444
H70	H	0.800214	0.078874	0.480645
H71	H	0.929877	-0.504347	-0.428352
H72	H	0.927356	-0.653607	0.081851
H73	H	1.063267	0.135162	0.252948
H74	H	0.936014	-0.132483	0.142265
H75	H	0.931938	-0.379096	-0.309455
H76	H	0.828222	0.210457	0.273441
