data_functionalizedCrystal
_audit_creation_method	'MofGen! by Chris Wilmer'
_symmetry_space_group_name_H-M	'P1'
_symmetry_Int_Tables_number	1
_symmetry_cell_setting	triclinic
loop_
_symmetry_equiv_pos_as_xyz
  x,y,z
_cell_length_a	12.645331
_cell_length_b	29.839131
_cell_length_c	12.645324
_cell_angle_alpha	89.952738
_cell_angle_beta	89.983975
_cell_angle_gamma	90.034465
loop_
_atom_site_label
_atom_site_type_symbol
_atom_site_fract_x
_atom_site_fract_y
_atom_site_fract_z
Zn1	Zn	1.620605	-0.178828	-0.599136
Zn2	Zn	1.620431	-0.253969	-0.421828
Zn3	Zn	1.443319	-0.178853	-0.421902
Zn4	Zn	1.443247	-0.253931	-0.599065
O5	O	1.531901	-0.216395	-0.510483
O6	O	1.768929	-0.188802	-0.575614
O7	O	1.596894	-0.244031	-0.273490
O8	O	1.466939	-0.115983	-0.445473
O9	O	1.768802	-0.244007	-0.445347
O10	O	1.597190	-0.115965	-0.575686
O11	O	1.466770	-0.188844	-0.273545
O12	O	1.294962	-0.188807	-0.445404
O13	O	1.466817	-0.243942	-0.747422
O14	O	1.294909	-0.243966	-0.575565
O15	O	1.597121	-0.188765	-0.747474
O16	O	1.596825	-0.316831	-0.445278
O17	O	1.466648	-0.316803	-0.575493
C18	C	1.256471	-0.216385	-0.510485
C19	C	1.138641	-0.216392	-0.510512
C20	C	0.971079	-0.251283	-0.591969
C21	C	1.093639	-0.251170	-0.592310
C22	C	1.094197	-0.169073	-0.541063
C23	C	0.971599	-0.169286	-0.541637
C24	C	0.971386	-0.228439	-0.398245
C25	C	1.093991	-0.229473	-0.398850
C26	C	1.531739	-0.333118	-0.510393
C27	C	1.531767	-0.383052	-0.510390
C28	C	1.599708	-0.692652	-0.578381
C29	C	1.599823	-0.880325	-0.578445
O30	O	1.657430	-0.904552	-0.636187
N31	N	1.532081	-0.903837	-0.510600
C32	C	1.464300	-0.880429	-0.442740
O33	O	1.406676	-0.904735	-0.385043
C34	C	1.464180	-0.692757	-0.442682
C35	C	1.531934	-0.669247	-0.510524
C36	C	1.667456	-0.669141	-0.646218
C37	C	1.667430	-0.622226	-0.646197
C38	C	1.599657	-0.598821	-0.578340
C39	C	1.531909	-0.622331	-0.510503
C40	C	1.396395	-0.669350	-0.374828
C41	C	1.396369	-0.622429	-0.374821
C42	C	1.464123	-0.598918	-0.442663
C43	C	1.464111	-0.552011	-0.442625
N44	N	1.531853	-0.528498	-0.510469
C45	C	1.599626	-0.551903	-0.578327
C46	C	1.464369	-0.978960	-0.442773
C47	C	1.464400	-1.025878	-0.442786
C48	C	1.599922	-1.025770	-0.578493
C49	C	1.599895	-0.978851	-0.578474
C50	C	1.532111	-0.955447	-0.510618
C51	C	1.599568	-0.453377	-0.578278
C52	C	1.599540	-0.406457	-0.578248
C53	C	1.464015	-0.406569	-0.442546
C54	C	1.464046	-0.453485	-0.442571
C55	C	1.531827	-0.476888	-0.510446
O56	O	1.406525	-0.527755	-0.384922
O57	O	1.657225	-0.527589	-0.636032
C58	C	1.599733	-0.739567	-0.578402
C59	C	1.531985	-0.763077	-0.510565
C60	C	1.464212	-0.739673	-0.442708
C61	C	1.532016	-0.809995	-0.510578
C62	C	1.599790	-0.833400	-0.578435
C63	C	1.667532	-0.809887	-0.646280
C64	C	1.667506	-0.762972	-0.646259
C65	C	1.396470	-0.763185	-0.374863
C66	C	1.396502	-0.810101	-0.374888
C67	C	1.464275	-0.833506	-0.442746
C68	C	1.808406	-0.216406	-0.510480
C69	C	1.926236	-0.216410	-0.510480
C70	C	1.531980	-0.216347	-0.786988
C71	C	1.532014	-0.216326	-0.904818
C72	C	1.532092	-0.099217	-0.510595
C73	C	1.532173	-0.049283	-0.510644
C74	C	1.614307	-0.181714	-1.072415
C75	C	1.614044	-0.181589	-0.949855
C76	C	1.420341	-0.203460	-0.949318
C77	C	1.420841	-0.203197	-1.071917
C78	C	1.560487	-0.263854	-1.071982
C79	C	1.562931	-0.263615	-0.949377
C80	C	1.531882	-0.216412	-0.235053
C81	C	1.532054	-0.216306	-0.117223
H82	H	1.122994	-0.243210	-0.675471
N83	N	1.671787	-0.276470	-0.910853
H84	H	1.700962	-0.251769	-0.864727
H85	H	1.667113	-0.305138	-0.868589
H86	H	1.409170	-0.959907	-0.387514
N87	N	1.723737	-0.192249	-0.909996
H88	H	1.723776	-0.192185	-0.830126
H89	H	1.745752	-0.222775	-0.936471
N90	N	1.724366	-0.192249	-1.111454
H91	H	1.721979	-0.219546	-1.158569
H92	H	1.752657	-0.165866	-1.152803
H93	H	1.124625	-0.205917	-0.334874
N94	N	1.133451	-0.297648	-0.566941
H95	H	1.071358	-0.318395	-0.555436
H96	H	1.177710	-0.309032	-0.627734
H97	H	0.943032	-0.159084	-0.623687
N98	N	1.589700	-0.135313	-1.113259
H99	H	1.593407	-0.135221	-1.193045
H100	H	1.516309	-0.126359	-1.089927
H101	H	1.408884	-0.472628	-0.387320
H102	H	1.341168	-0.603375	-0.319566
N103	N	1.740533	-0.694380	-0.719441
H104	H	1.783430	-0.672361	-0.762415
H105	H	1.789642	-0.713850	-0.676362
H106	H	1.722598	-0.603086	-0.701443
N107	N	1.589137	-0.134932	-0.911046
H108	H	1.578276	-0.114367	-0.973581
H109	H	1.522640	-0.135721	-0.866824
H110	H	1.507373	-0.290775	-0.918714
N111	N	1.388906	-0.157160	-1.109858
H112	H	1.374639	-0.137227	-1.046942
H113	H	1.447896	-0.143888	-1.153725
N114	N	1.390925	-0.381321	-0.369352
H115	H	1.401194	-0.348032	-0.379642
H116	H	1.315209	-0.389540	-0.385796
H117	H	1.640494	-0.275567	-1.102951
H118	H	1.500583	-0.289629	-1.100966
H119	H	1.395793	-0.169091	-0.918648
H120	H	0.940439	-0.262355	-0.370481
N121	N	1.134893	-0.155316	-0.648575
H122	H	1.073272	-0.150506	-0.698090
H123	H	1.176579	-0.126575	-0.641936
N124	N	0.932969	-0.194799	-0.317806
H125	H	0.995626	-0.179245	-0.284550
H126	H	0.886530	-0.171904	-0.353900
N127	N	1.672970	-0.953495	-0.651646
H128	H	1.715907	-0.975446	-0.694630
H129	H	1.629782	-0.934026	-0.700670
H130	H	1.123049	-0.264293	-0.375808
N131	N	1.672617	-0.381104	-0.651433
H132	H	1.629499	-0.361632	-0.700517
H133	H	1.721749	-0.361664	-0.608315
H134	H	1.409239	-1.045016	-0.387531
N135	N	1.672660	-0.478614	-0.651495
H136	H	1.715567	-0.456596	-0.694463
H137	H	1.721760	-0.498084	-0.608404
N138	N	1.336907	-0.235118	-1.111189
H139	H	1.299744	-0.249296	-1.048857
H140	H	1.283894	-0.218137	-1.155486
N141	N	1.673023	-1.051018	-0.651683
H142	H	1.662755	-1.084307	-0.641390
H143	H	1.656471	-1.042794	-0.727378
H144	H	0.941937	-0.142371	-0.485007
N145	N	0.930328	-0.240870	-0.701491
H146	H	0.959512	-0.263425	-0.753352
H147	H	0.850543	-0.242434	-0.701579
N148	N	0.931986	-0.297919	-0.566891
H149	H	0.884824	-0.296896	-0.502466
H150	H	0.890675	-0.309920	-0.629079
N151	N	1.336946	-0.235805	-0.910679
H152	H	1.370834	-0.259165	-0.863842
H153	H	1.281623	-0.218917	-0.869131
H154	H	1.123349	-0.142384	-0.483566
H155	H	1.722678	-0.743833	-0.701503
N156	N	1.323318	-0.694700	-0.301653
H157	H	1.280383	-0.672747	-0.258675
H158	H	1.274245	-0.714166	-0.344771
N159	N	1.740636	-0.835136	-0.719466
H160	H	1.730364	-0.868425	-0.709176
H161	H	1.724091	-0.826912	-0.795162
H162	H	1.341330	-0.829239	-0.319633
H163	H	1.341279	-0.744133	-0.319606
