data_functionalizedCrystal
_audit_creation_method	'MofGen! by Chris Wilmer'
_symmetry_space_group_name_H-M	'P1'
_symmetry_Int_Tables_number	1
_symmetry_cell_setting	triclinic
loop_
_symmetry_equiv_pos_as_xyz
  x,y,z
_cell_length_a	17.699077
_cell_length_b	14.519709
_cell_length_c	16.176319
_cell_angle_alpha	89.992256
_cell_angle_beta	89.993140
_cell_angle_gamma	83.480361
loop_
_atom_site_label
_atom_site_type_symbol
_atom_site_fract_x
_atom_site_fract_y
_atom_site_fract_z
O1	O	1.004415	0.116598	-0.068737
O2	O	1.254415	0.366598	0.181263
O3	O	1.504415	0.616598	0.431263
O4	O	1.754415	0.866598	0.681263
O5	O	0.784080	0.131777	-0.068742
O6	O	1.034080	0.381777	0.181258
O7	O	1.284080	0.631777	0.431258
O8	O	1.534080	0.881777	0.681258
O9	O	0.900090	-0.010076	-0.068732
O10	O	1.150090	0.239924	0.181268
O11	O	1.400090	0.489924	0.431268
O12	O	1.650090	0.739924	0.681268
O13	O	0.888406	0.258451	-0.068747
O14	O	1.138406	0.508451	0.181253
O15	O	1.388406	0.758451	0.431253
O16	O	1.638406	1.008451	0.681253
O17	O	0.900074	-0.010085	0.068761
O18	O	1.150074	0.239915	0.318761
O19	O	1.400074	0.489915	0.568761
O20	O	1.650074	0.739915	0.818761
O21	O	0.784064	0.131768	0.068752
O22	O	1.034064	0.381768	0.318752
O23	O	1.284064	0.631768	0.568752
O24	O	1.534064	0.881768	0.818752
O25	O	1.004399	0.116589	0.068756
O26	O	1.254399	0.366589	0.318756
O27	O	1.504399	0.616589	0.568756
O28	O	1.754399	0.866589	0.818756
Cu29	Cu	0.894230	0.124178	0.081308
Cu30	Cu	1.144230	0.374178	0.331308
Cu31	Cu	1.394230	0.624178	0.581308
Cu32	Cu	1.644230	0.874178	0.831308
Cu33	Cu	0.894249	0.124188	-0.081294
Cu34	Cu	1.144249	0.374188	0.168706
Cu35	Cu	1.394249	0.624188	0.418706
Cu36	Cu	1.644249	0.874188	0.668706
O37	O	0.888390	0.258442	0.068746
O38	O	1.138390	0.508442	0.318746
O39	O	1.388390	0.758442	0.568746
O40	O	1.638390	1.008442	0.818746
C41	C	0.755873	0.131230	0.000005
C42	C	1.005873	0.381230	0.250005
C43	C	1.255873	0.631230	0.500005
C44	C	1.505873	0.881230	0.750005
C45	C	0.671850	0.129601	0.000003
C46	C	0.921850	0.379601	0.250003
C47	C	1.171850	0.629601	0.500003
C48	C	1.421850	0.879601	0.750003
C49	C	0.632372	0.128828	0.074952
C50	C	0.882372	0.378828	0.324952
C51	C	1.132372	0.628828	0.574952
C52	C	1.382372	0.878828	0.824952
C53	C	0.553425	0.127283	0.074953
C54	C	0.803425	0.377283	0.324953
C55	C	1.053425	0.627283	0.574953
C56	C	1.303425	0.877283	0.824953
C57	C	0.513957	0.126517	0.000004
C58	C	0.763957	0.376517	0.250004
C59	C	1.013957	0.626517	0.500004
C60	C	1.263957	0.876517	0.750004
C61	C	0.553441	0.127287	-0.074950
C62	C	0.803441	0.377287	0.175050
C63	C	1.053441	0.627287	0.425050
C64	C	1.303441	0.877287	0.675050
C65	C	0.632387	0.128825	-0.074950
C66	C	0.882387	0.378825	0.175050
C67	C	1.132387	0.628825	0.425050
C68	C	1.382387	0.878825	0.675050
C69	C	0.235060	0.121081	-0.074951
C70	C	0.485060	0.371081	0.175049
C71	C	0.735060	0.621081	0.425049
C72	C	0.985060	0.871081	0.675049
C73	C	0.156108	0.119545	-0.074945
C74	C	0.406108	0.369545	0.175055
C75	C	0.656108	0.619545	0.425055
C76	C	0.906108	0.869545	0.675055
C77	C	0.156098	0.119538	0.074951
C78	C	0.406098	0.369538	0.324951
C79	C	0.656098	0.619538	0.574951
C80	C	0.906098	0.869538	0.824951
C81	C	0.235044	0.121077	0.074951
C82	C	0.485044	0.371077	0.324951
C83	C	0.735044	0.621077	0.574951
C84	C	0.985044	0.871077	0.824951
C85	C	0.274522	0.121842	-0.000002
C86	C	0.524522	0.371842	0.249998
C87	C	0.774522	0.621842	0.499998
C88	C	1.024522	0.871842	0.749998
C89	C	0.360125	0.123515	-0.000003
C90	C	0.610125	0.373515	0.249997
C91	C	0.860125	0.623515	0.499997
C92	C	1.110125	0.873515	0.749997
C93	C	0.428354	0.124850	0.000003
C94	C	0.678354	0.374850	0.250003
C95	C	0.928354	0.624850	0.500003
C96	C	1.178354	0.874850	0.750003
C97	C	0.899537	-0.044438	0.000015
C98	C	1.149537	0.205562	0.250015
C99	C	1.399537	0.455562	0.500015
C100	C	1.649537	0.705562	0.750015
C101	C	0.897905	-0.146812	0.000015
C102	C	1.147905	0.103188	0.250015
C103	C	1.397905	0.353188	0.500015
C104	C	1.647905	0.603188	0.750015
C105	C	0.891898	-0.521682	-0.000006
C106	C	1.141898	-0.271682	0.249994
C107	C	1.391898	-0.021682	0.499994
C108	C	1.641898	0.228318	0.749994
C109	C	0.893566	-0.417381	-0.000000
C110	C	1.143566	-0.167381	0.250000
C111	C	1.393566	0.082619	0.500000
C112	C	1.643566	0.332619	0.750000
C113	C	0.894902	-0.334250	0.000005
C114	C	1.144902	-0.084250	0.250005
C115	C	1.394902	0.165750	0.500005
C116	C	1.644902	0.415750	0.750005
C117	C	0.896570	-0.229943	0.000010
C118	C	1.146570	0.020057	0.250010
C119	C	1.396570	0.270057	0.500010
C120	C	1.646570	0.520057	0.750010
C121	C	1.032606	0.117137	0.000008
C122	C	1.282606	0.367137	0.250008
C123	C	1.532606	0.617137	0.500008
C124	C	1.782606	0.867137	0.750008
C125	C	1.116629	0.118766	0.000004
C126	C	1.366629	0.368766	0.250004
C127	C	1.616629	0.618766	0.500004
C128	C	1.866629	0.868766	0.750004
C129	C	0.888942	0.292804	-0.000002
C130	C	1.138942	0.542804	0.249998
C131	C	1.388942	0.792804	0.499998
C132	C	1.638942	1.042804	0.749998
C133	C	0.890574	0.395178	-0.000008
C134	C	1.140574	0.645178	0.249992
C135	C	1.390574	0.895178	0.499992
C136	C	1.640574	1.145178	0.749992
N137	N	0.894222	0.124170	0.195673
N138	N	1.144222	0.374170	0.445673
N139	N	1.394222	0.624170	0.695673
N140	N	1.644222	0.874170	0.945673
N141	N	0.894263	0.124189	-0.195659
N142	N	1.144263	0.374189	0.054341
N143	N	1.394263	0.624189	0.304341
N144	N	1.644263	0.874189	0.554341
C145	C	0.945607	0.061383	0.238942
C146	C	1.195607	0.311383	0.488942
C147	C	1.445607	0.561383	0.738942
C148	C	1.695607	0.811383	0.988942
C149	C	0.945611	0.061382	0.325489
C150	C	1.195611	0.311382	0.575489
C151	C	1.445611	0.561382	0.825489
C152	C	1.695611	0.811382	1.075489
C153	C	0.894233	0.124173	0.368766
C154	C	1.144233	0.374173	0.618766
C155	C	1.394233	0.624173	0.868766
C156	C	1.644233	0.874173	1.118766
C157	C	0.842843	0.186963	0.325491
C158	C	1.092843	0.436963	0.575491
C159	C	1.342843	0.686963	0.825491
C160	C	1.592843	0.936963	1.075491
C161	C	0.842836	0.186959	0.238946
C162	C	1.092836	0.436959	0.488946
C163	C	1.342836	0.686959	0.738946
C164	C	1.592836	0.936959	0.988946
C165	C	0.842869	0.186980	0.674519
C166	C	1.092869	0.436980	0.924519
C167	C	1.342869	0.686980	1.174519
C168	C	1.592869	0.936980	1.424519
C169	C	0.842881	0.186981	0.761071
C170	C	1.092881	0.436981	1.011071
C171	C	1.342881	0.686981	1.261071
C172	C	1.592881	0.936981	1.511071
C173	C	0.945644	0.061403	0.761062
C174	C	1.195644	0.311403	1.011062
C175	C	1.445644	0.561403	1.261062
C176	C	1.695644	0.811403	1.511062
C177	C	0.945637	0.061399	0.674517
C178	C	1.195637	0.311399	0.924517
C179	C	1.445637	0.561399	1.174517
C180	C	1.695637	0.811399	1.424517
C181	C	0.894244	0.124185	0.631250
C182	C	1.144244	0.374185	0.881250
C183	C	1.394244	0.624185	1.131250
C184	C	1.644244	0.874185	1.381250
C185	C	0.894240	0.124184	0.537406
C186	C	1.144240	0.374184	0.787406
C187	C	1.394240	0.624184	1.037406
C188	C	1.644240	0.874184	1.287406
C189	C	0.894241	0.124179	0.462608
C190	C	1.144241	0.374179	0.712608
C191	C	1.394241	0.624179	0.962608
C192	C	1.644241	0.874179	1.212608
H193	H	0.123946	0.118911	0.135982
H194	H	0.373946	0.368911	0.385982
H195	H	0.623946	0.618911	0.635982
H196	H	0.873946	0.868911	0.885982
H197	H	0.521287	0.126639	0.135983
H198	H	0.771287	0.376639	0.385983
H199	H	1.021287	0.626639	0.635983
H200	H	1.271287	0.876639	0.885983
Cl201	Cl	0.778232	0.265891	0.184552
Cl202	Cl	1.028232	0.515891	0.434552
Cl203	Cl	1.278232	0.765891	0.684552
Cl204	Cl	1.528232	1.015891	0.934552
Cl205	Cl	0.681980	0.129797	0.169178
Cl206	Cl	0.931980	0.379797	0.419178
Cl207	Cl	1.181980	0.629797	0.669178
Cl208	Cl	1.431980	0.879797	0.919178
H209	H	0.987476	0.010272	0.639284
H210	H	1.237476	0.260272	0.889284
H211	H	1.487476	0.510272	1.139284
H212	H	1.737476	0.760272	1.389284
H213	H	0.267174	0.121705	0.135982
H214	H	0.517174	0.371705	0.385982
H215	H	0.767174	0.621705	0.635982
H216	H	1.017174	0.871705	0.885982
H217	H	0.267194	0.121700	-0.135983
H218	H	0.517194	0.371700	0.114017
H219	H	0.767194	0.621700	0.364017
H220	H	1.017194	0.871700	0.614017
H221	H	0.521301	0.126656	-0.135974
H222	H	0.771301	0.376656	0.114026
H223	H	1.021301	0.626656	0.364026
H224	H	1.271301	0.876656	0.614026
Cl225	Cl	0.106492	0.118580	-0.169174
Cl226	Cl	0.356492	0.368580	0.080826
Cl227	Cl	0.606492	0.618580	0.330826
Cl228	Cl	0.856492	0.868580	0.580826
H229	H	0.801006	0.238085	0.360732
H230	H	1.051006	0.488085	0.610732
H231	H	1.301006	0.738085	0.860732
H232	H	1.551006	0.988085	1.110732
Cl233	Cl	1.010209	-0.017552	0.379885
Cl234	Cl	1.260209	0.232448	0.629885
Cl235	Cl	1.510209	0.482448	0.879885
Cl236	Cl	1.760209	0.732448	1.129885
H237	H	0.801025	0.238104	0.639298
H238	H	1.051025	0.488104	0.889298
H239	H	1.301025	0.738104	1.139298
H240	H	1.551025	0.988104	1.389298
H241	H	0.664529	0.129456	-0.135981
H242	H	0.914529	0.379456	0.114019
H243	H	1.164529	0.629456	0.364019
H244	H	1.414529	0.879456	0.614019
Cl245	Cl	1.010204	-0.017555	0.184545
Cl246	Cl	1.260204	0.232445	0.434545
Cl247	Cl	1.510204	0.482445	0.684545
Cl248	Cl	1.760204	0.732445	0.934545
H249	H	0.987488	0.010276	0.796300
H250	H	1.237488	0.260276	1.046300
H251	H	1.487488	0.510276	1.296300
H252	H	1.737488	0.760276	1.546300
H253	H	0.801040	0.238115	0.796306
H254	H	1.051040	0.488115	1.046306
H255	H	1.301040	0.738115	1.296306
H256	H	1.551040	0.988115	1.546306
