data_functionalizedCrystal
_audit_creation_method	'MofGen! by Chris Wilmer'
_symmetry_space_group_name_H-M	'P1'
_symmetry_Int_Tables_number	1
_symmetry_cell_setting	triclinic
loop_
_symmetry_equiv_pos_as_xyz
  x,y,z
_cell_length_a	12.594517
_cell_length_b	12.759400
_cell_length_c	12.759393
_cell_angle_alpha	89.970739
_cell_angle_beta	89.972452
_cell_angle_gamma	90.008967
loop_
_atom_site_label
_atom_site_type_symbol
_atom_site_fract_x
_atom_site_fract_y
_atom_site_fract_z
Zn1	Zn	-1.627300	0.418357	0.594214
Zn2	Zn	-1.627192	0.594073	0.418538
Zn3	Zn	-1.449299	0.418393	0.418529
Zn4	Zn	-1.449293	0.593979	0.594155
O5	O	-1.538271	0.506201	0.506359
O6	O	-1.776232	0.441691	0.570939
O7	O	-1.603551	0.570823	0.271516
O8	O	-1.472959	0.271367	0.441855
O9	O	-1.776152	0.570788	0.441871
O10	O	-1.603736	0.271341	0.570930
O11	O	-1.472854	0.441751	0.271509
O12	O	-1.300352	0.441661	0.441798
O13	O	-1.472948	0.570628	0.741184
O14	O	-1.300348	0.570663	0.570830
O15	O	-1.603730	0.441600	0.741228
O16	O	-1.603545	0.741081	0.441813
O17	O	-1.472843	0.741013	0.570838
C18	C	-1.261730	0.506156	0.506307
C19	C	-1.143424	0.506163	0.506309
C20	C	-1.538211	0.779168	0.506343
C21	C	-1.538283	0.895945	0.506371
C22	C	-1.538350	0.506100	0.780393
C23	C	-1.538384	0.506057	0.897169
C24	C	-1.074143	0.435897	0.436258
C25	C	-1.003334	0.531726	0.410412
C26	C	-1.003434	0.410363	0.532157
C27	C	-1.074174	0.602042	0.480414
C28	C	-1.074280	0.480615	0.602203
C29	C	-1.003503	0.576510	0.576394
C30	C	-0.815892	0.506225	0.506393
C31	C	-0.934197	0.506181	0.506358
C32	C	-1.538360	0.232167	0.506398
C33	C	-1.538398	0.115391	0.506415
C34	C	-1.606401	1.060440	0.573661
C35	C	-1.606346	0.950716	0.573637
C36	C	-1.470277	0.950903	0.439118
C37	C	-1.470338	1.060625	0.439138
C38	C	-1.538253	0.506225	0.233392
C39	C	-1.538425	0.505972	0.116616
C40	C	-1.606487	0.438861	0.952056
C41	C	-1.606505	0.438815	1.061780
C42	C	-1.470314	0.573171	1.061722
C43	C	-1.470292	0.573210	0.952000
H44	H	-1.105160	0.376541	0.376951
H45	H	-1.105118	0.683091	0.458482
Cl46	Cl	-0.955221	0.565112	0.285241
H47	H	-0.972305	0.329349	0.553962
Cl48	Cl	-1.384846	1.129711	0.354588
Cl49	Cl	-1.692085	0.354435	0.883130
H50	H	-0.972682	0.636008	0.635655
H51	H	-1.661816	1.105027	0.628447
Cl52	Cl	-1.122429	0.447187	0.727343
Cl53	Cl	-1.691841	0.881639	0.658177
H54	H	-1.414827	0.627929	0.907310
H55	H	-1.661960	0.384096	1.106463
Cl56	Cl	-1.384714	0.882048	0.354551
H57	H	-1.414878	0.627848	1.106378
