data_functionalizedCrystal
_audit_creation_method	'MofGen! by Chris Wilmer'
_symmetry_space_group_name_H-M	'P1'
_symmetry_Int_Tables_number	1
_symmetry_cell_setting	triclinic
loop_
_symmetry_equiv_pos_as_xyz
  x,y,z
_cell_length_a	10.685976
_cell_length_b	16.625545
_cell_length_c	10.686551
_cell_angle_alpha	85.592661
_cell_angle_beta	89.651515
_cell_angle_gamma	85.662406
loop_
_atom_site_label
_atom_site_type_symbol
_atom_site_fract_x
_atom_site_fract_y
_atom_site_fract_z
Zn1	Zn	1.972091	-0.389889	-0.561864
Zn2	Zn	2.472091	0.110111	-0.061864
Zn3	Zn	1.955820	-0.534236	-0.352104
Zn4	Zn	2.455820	-0.034236	0.147896
Zn5	Zn	1.746220	-0.388375	-0.368240
Zn6	Zn	2.246220	0.111625	0.131760
Zn7	Zn	1.762265	-0.513629	-0.577932
Zn8	Zn	2.262265	-0.013629	-0.077932
O9	O	1.859099	-0.456532	-0.465035
O10	O	2.359099	0.043468	0.034965
O11	O	2.145465	-0.418295	-0.520562
O12	O	2.645465	0.081705	-0.020562
O13	O	1.914492	-0.522878	-0.178702
O14	O	2.414492	-0.022878	0.321298
O15	O	1.776276	-0.275746	-0.393953
O16	O	2.276276	0.224254	0.106047
O17	O	2.133511	-0.524346	-0.366452
O18	O	2.633511	-0.024346	0.133548
O19	O	1.942223	-0.276859	-0.536209
O20	O	2.442223	0.223141	-0.036209
O21	O	1.760499	-0.415714	-0.190557
O22	O	2.260499	0.084286	0.309443
O23	O	1.572816	-0.395732	-0.409533
O24	O	2.072816	0.104268	0.090467
O25	O	1.803623	-0.489224	-0.751343
O26	O	2.303623	0.010776	-0.251343
O27	O	1.584604	-0.487756	-0.563593
O28	O	2.084604	0.012244	-0.063593
O29	O	1.957782	-0.398313	-0.739538
O30	O	2.457782	0.101687	-0.239538
O31	O	1.930050	-0.644332	-0.382031
O32	O	2.430050	-0.144332	0.117969
O33	O	1.787846	-0.629192	-0.547946
O34	O	2.287846	-0.129192	-0.047946
C35	C	1.533197	-0.439344	-0.490058
C36	C	2.033197	0.060656	0.009942
C37	C	1.393777	-0.432009	-0.500793
C38	C	1.893777	0.067991	-0.000793
C39	C	1.858960	-0.666018	-0.465006
C40	C	2.358960	-0.166018	0.034994
C41	C	1.859018	-0.755641	-0.465027
C42	C	2.359018	-0.255641	0.034973
C43	C	1.859069	-0.828424	-0.465048
C44	C	2.359069	-0.328424	0.034952
C45	C	1.859144	-0.919735	-0.465070
C46	C	2.359144	-0.419735	0.034930
C47	C	1.859210	-0.992515	-0.465081
C48	C	2.359210	-0.492515	0.034919
C49	C	1.859284	-1.083831	-0.465101
C50	C	2.359284	-0.583831	0.034899
C51	C	2.186274	-0.473788	-0.439915
C52	C	2.686274	0.026212	0.060085
C53	C	2.325696	-0.481141	-0.429210
C54	C	2.825696	0.018859	0.070790
C55	C	1.884307	-0.441639	-0.792229
C56	C	2.384307	0.058361	-0.292229
C57	C	1.895049	-0.435292	-0.931660
C58	C	2.395049	0.064708	-0.431660
C59	C	1.859275	-0.246229	-0.465089
C60	C	2.359275	0.253771	0.034911
C61	C	1.859350	-0.156611	-0.465112
C62	C	2.359350	0.343389	0.034888
C63	C	1.834061	-0.471313	-0.139108
C64	C	2.334061	0.028687	0.360892
C65	C	1.823562	-0.477445	0.000341
C66	C	2.323562	0.022555	0.500341
H67	H	1.374076	-0.528825	-0.359711
H68	H	1.874076	-0.028825	0.140289
C69	C	2.052751	-0.342296	-0.906623
C70	C	2.552751	0.157704	-0.406623
C71	C	1.988779	-0.380015	-0.997062
C72	C	2.488779	0.119985	-0.497062
H73	H	2.110619	-0.308176	-0.947002
H74	H	2.610619	0.191824	-0.447002
H75	H	1.994232	-0.310873	-0.859727
H76	H	2.494232	0.189127	-0.359727
H77	H	2.096805	-0.382264	-0.851818
H78	H	2.596805	0.117736	-0.351818
H79	H	1.944717	-0.340047	-1.051862
H80	H	2.444717	0.159953	-0.551862
H81	H	2.047307	-0.411440	-1.043980
H82	H	2.547307	0.088560	-0.543980
C83	C	1.259339	-0.405626	-0.680783
C84	C	1.759339	0.094374	-0.180783
C85	C	1.328481	-0.367645	-0.594621
C86	C	1.828481	0.132355	-0.094621
H87	H	1.219018	-0.365889	-0.738704
H88	H	1.719018	0.134111	-0.238704
H89	H	1.314139	-0.441274	-0.724777
H90	H	1.814139	0.058726	-0.224777
H91	H	1.197955	-0.435465	-0.637300
H92	H	1.697955	0.064535	-0.137300
H93	H	1.389872	-0.337811	-0.638104
H94	H	1.889872	0.162189	-0.138104
H95	H	1.273677	-0.331984	-0.550623
H96	H	1.773677	0.168016	-0.050623
C97	C	1.794821	-0.591613	-0.853464
C98	C	2.294821	-0.091613	-0.353464
C99	C	1.729844	-0.532721	-0.934252
C100	C	2.229844	-0.032721	-0.434252
H101	H	1.736960	-0.625734	-0.813073
H102	H	2.236960	-0.125734	-0.313073
H103	H	1.853323	-0.623035	-0.900381
H104	H	2.353323	-0.123035	-0.400381
H105	H	1.838228	-0.566007	-0.792135
H106	H	2.338228	-0.066007	-0.292135
H107	H	1.686444	-0.558327	-0.995588
H108	H	2.186444	-0.058327	-0.495588
H109	H	1.671319	-0.501295	-0.887332
H110	H	2.171319	-0.001295	-0.387332
