data_functionalizedCrystal
_audit_creation_method	'MofGen! by Chris Wilmer'
_symmetry_space_group_name_H-M	'P1'
_symmetry_Int_Tables_number	1
_symmetry_cell_setting	triclinic
loop_
_symmetry_equiv_pos_as_xyz
  x,y,z
_cell_length_a	10.654550
_cell_length_b	15.500227
_cell_length_c	10.654551
_cell_angle_alpha	87.142580
_cell_angle_beta	84.485180
_cell_angle_gamma	92.868690
loop_
_atom_site_label
_atom_site_type_symbol
_atom_site_fract_x
_atom_site_fract_y
_atom_site_fract_z
O1	O	1.673628	0.071876	0.170625
O2	O	1.308151	0.071891	0.187430
O3	O	1.499291	0.071881	-0.003712
O4	O	1.482487	0.071886	0.361766
O5	O	1.487692	-0.072007	0.007841
O6	O	1.296551	-0.071997	0.198983
O7	O	1.662028	-0.072012	0.182178
Cu8	Cu	1.478231	-0.085143	0.191635
Cu9	Cu	1.491948	0.085022	0.177972
O10	O	1.470888	-0.072002	0.373319
C11	C	1.255553	-0.000051	0.191972
C12	C	1.116110	-0.000045	0.188280
N13	N	1.468592	-0.204827	0.201244
C14	C	1.036625	-0.000046	0.300821
C15	C	0.905603	-0.000061	0.297346
C16	C	0.933565	-0.000070	0.068777
C17	C	1.064584	-0.000061	0.072254
C18	C	1.549613	-0.250108	0.120281
C19	C	1.542335	-0.340680	0.127560
C20	C	1.454041	-0.385970	0.215809
C21	C	1.373010	-0.340683	0.296775
C22	C	1.380283	-0.250112	0.289489
C23	C	1.427840	-0.659436	0.242034
C24	C	1.420576	-0.750013	0.249317
C25	C	1.589900	-0.750004	0.080099
C26	C	1.597170	-0.659432	0.072826
C27	C	1.516135	-0.614152	0.153788
C28	C	1.446602	-0.478550	0.223254
C29	C	1.523569	-0.521574	0.146336
C30	C	1.714626	-0.000068	0.177635
C31	C	1.854069	-0.000069	0.181327
C32	C	1.492258	-0.000061	-0.044733
C33	C	1.488565	-0.000057	-0.184177
N34	N	1.501597	0.204706	0.168354
C35	C	1.493155	0.078377	-0.255978
C36	C	1.489675	0.078378	-0.386999
C37	C	1.477021	-0.078497	-0.374405
C38	C	1.480491	-0.078497	-0.243386
C39	C	1.477922	-0.000058	0.414341
C40	C	1.481614	-0.000056	0.553784
H41	H	0.840891	-0.000064	0.388989
H42	H	1.361860	-0.622577	0.307959
H43	H	0.891595	-0.000089	-0.025686
N44	N	1.475553	-0.163096	-0.165929
H45	H	1.398995	-0.166587	-0.101786
H46	H	1.469973	-0.212739	-0.223404
N47	N	1.150325	-0.000070	-0.049134
H48	H	1.097805	-0.000077	-0.123164
H49	H	1.209589	0.053272	-0.056958
N50	N	1.092193	-0.000030	0.425962
H51	H	1.058993	-0.053370	0.479602
H52	H	1.187248	0.000012	0.410989
N53	N	1.644854	-0.201263	0.025105
H54	H	1.695073	-0.243695	-0.025080
H55	H	1.599313	-0.163694	-0.033888
H56	H	1.608308	-0.377548	0.061633
N57	N	1.351390	-0.527409	0.318443
H58	H	1.367898	-0.511642	0.406447
H59	H	1.263431	-0.511648	0.301786
N60	N	1.692403	-0.610585	-0.022355
H61	H	1.742627	-0.653014	-0.072543
H62	H	1.646860	-0.573016	-0.081347
N63	N	1.677284	-0.798843	-0.007228
H64	H	1.734321	-0.756408	-0.064238
H65	H	1.730205	-0.836410	0.044393
N66	N	1.325348	-0.798874	0.344502
H67	H	1.341846	-0.783101	0.432507
H68	H	1.237390	-0.783118	0.327835
N69	N	1.277768	-0.389527	0.391951
H70	H	1.285455	-0.453774	0.384285
H71	H	1.294315	-0.373684	0.479909
N72	N	1.292890	-0.201269	0.376806
H73	H	1.235852	-0.243702	0.433818
H74	H	1.344462	-0.163677	0.429755
H75	H	1.595454	-0.484697	0.074479
N76	N	1.494693	0.162984	-0.464428
H77	H	1.420374	0.197308	-0.434883
H78	H	1.575849	0.197163	-0.453815
N79	N	1.501861	0.162975	-0.192114
H80	H	1.504238	0.212662	-0.257486
H81	H	1.425859	0.166397	-0.128522
H82	H	1.470449	-0.142359	-0.422629
