data_functionalizedCrystal
_audit_creation_method	'MofGen! by Chris Wilmer'
_symmetry_space_group_name_H-M	'P1'
_symmetry_Int_Tables_number	1
_symmetry_cell_setting	triclinic
loop_
_symmetry_equiv_pos_as_xyz
  x,y,z
_cell_length_a	16.109301
_cell_length_b	9.616153
_cell_length_c	16.109304
_cell_angle_alpha	89.999451
_cell_angle_beta	83.462059
_cell_angle_gamma	90.004145
loop_
_atom_site_label
_atom_site_type_symbol
_atom_site_fract_x
_atom_site_fract_y
_atom_site_fract_z
O1	O	1.103136	0.115549	0.106864
O2	O	1.603136	0.615549	0.606864
O3	O	0.861074	0.115570	0.120163
O4	O	1.361074	0.615570	0.620163
O5	O	0.988754	0.115560	-0.007518
O6	O	1.488754	0.615560	0.492482
O7	O	0.975457	0.115559	0.234544
O8	O	1.475457	0.615559	0.734544
O9	O	0.988736	-0.115732	-0.007515
O10	O	1.488736	0.384268	0.492485
O11	O	0.861057	-0.115722	0.120166
O12	O	1.361057	0.384278	0.620166
O13	O	1.103119	-0.115743	0.106866
O14	O	1.603119	0.384257	0.606866
Zn15	Zn	0.982085	-0.152454	0.113517
Zn16	Zn	1.482085	0.347546	0.613517
Zn17	Zn	0.982108	0.152282	0.113513
Zn18	Zn	1.482108	0.652282	0.613513
O19	O	0.975439	-0.115732	0.234547
O20	O	1.475439	0.384268	0.734547
C21	C	0.830091	-0.000073	0.119626
C22	C	1.330091	0.499927	0.619626
C23	C	0.737795	-0.000065	0.118010
C24	C	1.237795	0.499935	0.618010
N25	N	0.982075	-0.360429	0.113518
N26	N	1.482075	0.139571	0.613518
C27	C	0.515524	-0.000081	0.190018
C28	C	1.015524	0.499919	0.690018
C29	C	0.428803	-0.000090	0.188494
C30	C	0.928803	0.499910	0.688494
C31	C	0.448676	-0.000084	0.037005
C32	C	0.948676	0.499916	0.537005
C33	C	0.535395	-0.000085	0.038530
C34	C	1.035395	0.499915	0.538530
C35	C	0.568816	-0.000076	0.115039
C36	C	1.068816	0.499924	0.615039
C37	C	0.395377	-0.000084	0.111990
C38	C	0.895377	0.499916	0.611990
C39	C	0.301351	-0.000094	0.110337
C40	C	0.801351	0.499906	0.610337
C41	C	0.662848	-0.000069	0.116693
C42	C	1.162848	0.499931	0.616693
C43	C	0.913571	-0.580793	0.181594
C44	C	1.413571	-0.080793	0.681594
C45	C	0.913718	-0.419626	0.181845
C46	C	1.413718	0.080374	0.681845
C47	C	1.068823	-0.418886	0.132444
C48	C	1.568823	0.081114	0.632444
C49	C	1.068449	-0.580104	0.132925
C50	C	1.568449	-0.080104	0.632925
C51	C	0.964700	-0.580338	0.026288
C52	C	1.464700	-0.080338	0.526288
C53	C	0.962700	-0.419112	0.026874
C54	C	1.462700	0.080888	0.526874
C55	C	1.134102	-0.000097	0.107404
C56	C	1.634102	0.499903	0.607404
C57	C	1.226398	-0.000096	0.109019
C58	C	1.726398	0.499904	0.609019
C59	C	0.988206	-0.000083	-0.038491
C60	C	1.488206	0.499917	0.461509
C61	C	0.986590	-0.000073	-0.130786
C62	C	1.486590	0.499927	0.369214
N63	N	0.982124	0.360256	0.113504
N64	N	1.482124	0.860256	0.613504
C65	C	0.982866	0.125999	-0.343125
C66	C	1.482866	0.625999	0.156875
C67	C	0.981340	0.125998	-0.429845
C68	C	1.481340	0.625998	0.070155
C69	C	0.981325	-0.126169	-0.429839
C70	C	1.481325	0.373831	0.070161
C71	C	0.982845	-0.126166	-0.343120
C72	C	1.482845	0.373834	0.156880
C73	C	0.983620	-0.000078	-0.299766
C74	C	1.483620	0.499922	0.200234
C75	C	0.980573	-0.000082	-0.473205
C76	C	1.480573	0.499918	0.026795
C77	C	0.978919	-0.000084	-0.567231
C78	C	1.478919	0.499916	-0.067231
C79	C	0.985273	-0.000076	-0.205734
C80	C	1.485273	0.499924	0.294266
C81	C	0.975987	-0.000087	0.265520
C82	C	1.475987	0.499913	0.765520
C83	C	0.977603	-0.000087	0.357816
C84	C	1.477603	0.499913	0.857816
H85	H	0.542732	-0.000084	0.252316
H86	H	1.042732	0.499916	0.752316
F87	F	0.983687	0.260193	-0.296987
F88	F	1.483687	0.760193	0.203013
H89	H	1.014693	-0.618458	-0.024381
H90	H	1.514693	-0.118458	0.475619
F91	F	0.980536	0.260186	-0.475988
F92	F	1.480536	0.760186	0.024012
H93	H	0.980696	-0.228825	-0.465149
H94	H	1.480696	0.271175	0.034851
H95	H	0.385416	-0.000096	0.249550
H96	H	0.885416	0.499904	0.749550
H97	H	1.084542	-0.378497	0.195325
H98	H	1.584542	0.121503	0.695325
F99	F	0.983639	-0.260362	-0.296970
F100	F	1.483639	0.239638	0.203030
H101	H	0.421454	-0.000099	-0.025285
H102	H	0.921454	0.499901	0.474715
H103	H	0.578788	-0.000085	-0.022530
H104	H	1.078788	0.499915	0.477470
H105	H	0.849236	-0.380105	0.170573
H106	H	1.349236	0.119895	0.670573
F107	F	0.829018	-0.631487	0.167092
F108	F	1.329018	-0.131487	0.667092
H109	H	0.924541	-0.621293	0.245951
H110	H	1.424541	-0.121293	0.745951
F111	F	1.088521	-0.629241	0.216061
F112	F	1.588521	-0.129241	0.716061
H113	H	0.924837	-0.381048	0.246568
H114	H	1.424837	0.118952	0.746568
H115	H	1.121053	-0.619097	0.085286
H116	H	1.621053	-0.119097	0.585286
H117	H	1.121048	-0.380538	0.084171
H118	H	1.621048	0.119462	0.584171
F119	F	0.883810	-0.633537	0.002506
F120	F	1.383810	-0.133537	0.502506
H121	H	0.898888	-0.380906	0.012511
H122	H	1.398888	0.119094	0.512511
F123	F	1.023725	-0.366463	-0.042455
F124	F	1.523725	0.133537	0.457545
