data_functionalizedCrystal
_audit_creation_method	'MofGen! by Chris Wilmer'
_symmetry_space_group_name_H-M	'P1'
_symmetry_Int_Tables_number	1
_symmetry_cell_setting	triclinic
loop_
_symmetry_equiv_pos_as_xyz
  x,y,z
_cell_length_a	21.295417
_cell_length_b	21.295420
_cell_length_c	19.120904
_cell_angle_alpha	87.578187
_cell_angle_beta	92.408338
_cell_angle_gamma	89.975452
loop_
_atom_site_label
_atom_site_type_symbol
_atom_site_fract_x
_atom_site_fract_y
_atom_site_fract_z
Zn1	Zn	-0.265905	-0.947122	-0.397115
Zn2	Zn	0.234095	-0.447122	0.102885
Zn3	Zn	-0.366684	-0.951530	-0.279660
Zn4	Zn	0.133316	-0.451530	0.220340
Zn5	Zn	-0.261422	-0.846350	-0.279679
Zn6	Zn	0.238578	-0.346350	0.220321
Zn7	Zn	-0.371128	-0.841816	-0.397065
Zn8	Zn	0.128872	-0.341816	0.102935
O9	O	-0.316285	-0.896704	-0.338380
O10	O	0.183715	-0.396704	0.161620
O11	O	-0.279290	-1.035795	-0.381548
O12	O	0.220710	-0.535795	0.118452
O13	O	-0.348985	-0.941320	-0.181380
O14	O	0.151015	-0.441320	0.318620
O15	O	-0.173929	-0.859770	-0.295287
O16	O	0.326071	-0.359770	0.204713
O17	O	-0.353332	-1.039034	-0.295253
O18	O	0.146668	-0.539034	0.204747
O19	O	-0.177222	-0.933807	-0.381566
O20	O	0.322778	-0.433807	0.118434
O21	O	-0.271649	-0.864044	-0.181395
O22	O	0.228351	-0.364044	0.318605
O23	O	-0.275958	-0.757660	-0.295238
O24	O	0.224042	-0.257660	0.204762
O25	O	-0.360906	-0.852043	-0.495354
O26	O	0.139094	-0.352043	0.004646
O27	O	-0.356559	-0.754329	-0.381481
O28	O	0.143441	-0.254329	0.118519
O29	O	-0.283599	-0.929411	-0.495391
O30	O	0.216401	-0.429411	0.004609
O31	O	-0.455362	-0.936924	-0.295205
O32	O	0.044638	-0.436924	0.204795
O33	O	-0.458626	-0.856318	-0.381462
O34	O	0.041374	-0.356318	0.118538
C35	C	-0.316255	-0.733154	-0.338356
C36	C	0.183745	-0.233154	0.161644
C37	C	-0.316258	-0.663185	-0.338363
C38	C	0.183742	-0.163185	0.161637
C39	C	-0.277806	-0.162037	-0.383380
C40	C	0.222194	0.337963	0.116620
C41	C	-0.277804	-0.227780	-0.383382
C42	C	0.222196	0.272220	0.116618
C43	C	-0.316285	-0.262345	-0.338382
C44	C	0.183715	0.237655	0.161618
C45	C	-0.354783	-0.231163	-0.293390
C46	C	0.145217	0.268837	0.206610
C47	C	-0.354789	-0.165421	-0.293395
C48	C	0.145211	0.334579	0.206605
N49	N	-0.318681	-0.367894	-0.276887
N50	N	0.181319	0.132106	0.223113
N51	N	-0.318672	-0.430346	-0.276884
N52	N	0.181328	0.069654	0.223116
C53	C	-0.316269	-0.460421	-0.338366
C54	C	0.183731	0.039579	0.161634
N55	N	-0.313864	-0.425685	-0.399851
N56	N	0.186136	0.074315	0.100149
N57	N	-0.313871	-0.363227	-0.399853
N58	N	0.186129	0.136773	0.100147
C59	C	-0.316283	-0.333631	-0.338372
C60	C	0.183717	0.166369	0.161628
C61	C	-0.277774	-0.562881	-0.383360
C62	C	0.222226	-0.062881	0.116640
C63	C	-0.277776	-0.628624	-0.383362
C64	C	0.222224	-0.128624	0.116638
C65	C	-0.354751	-0.632006	-0.293364
C66	C	0.145249	-0.132006	0.206636
C67	C	-0.354753	-0.566264	-0.293368
C68	C	0.145247	-0.066264	0.206632
C69	C	-0.316261	-0.531705	-0.338365
C70	C	0.183739	-0.031705	0.161635
C71	C	-0.479835	-0.896623	-0.338341
C72	C	0.020165	-0.396623	0.161659
C73	C	-0.549803	-0.896645	-0.338348
C74	C	-0.049803	-0.396645	0.161652
C75	C	-0.580951	-0.938651	-0.293480
C76	C	-0.080951	-0.438651	0.206520
C77	C	-0.646694	-0.938680	-0.293496
C78	C	-0.146694	-0.438680	0.206504
C79	C	-0.681287	-0.896692	-0.338372
C80	C	-0.181287	-0.396692	0.161628
C81	C	-0.650132	-0.854684	-0.383249
C82	C	-0.150132	-0.354684	0.116751
C83	C	-0.584390	-0.854660	-0.383237
C84	C	-0.084390	-0.354660	0.116763
N85	N	-0.784751	-0.841420	-0.343718
N86	N	-0.284751	-0.341420	0.156282
N87	N	-0.847203	-0.841444	-0.343726
N88	N	-0.347203	-0.341444	0.156274
C89	C	-0.879363	-0.896761	-0.338412
C90	C	-0.379363	-0.396761	0.161588
N91	N	-0.846711	-0.952055	-0.333078
N92	N	-0.346711	-0.452055	0.166922
N93	N	-0.784254	-0.952030	-0.333067
N94	N	-0.284254	-0.452030	0.166933
C95	C	-0.752573	-0.896713	-0.338391
C96	C	-0.252573	-0.396713	0.161609
C97	C	-0.981796	-0.938802	-0.293559
C98	C	-0.481796	-0.438802	0.206441
C99	C	-1.047541	-0.938831	-0.293580
C100	C	-0.547541	-0.438831	0.206420
C101	C	-1.050977	-0.854830	-0.383329
C102	C	-0.550977	-0.354830	0.116671
C103	C	-0.985234	-0.854805	-0.383312
C104	C	-0.485234	-0.354805	0.116688
C105	C	-0.950648	-0.896791	-0.338423
C106	C	-0.450648	-0.396791	0.161577
C107	C	-0.152096	-0.896802	-0.338434
C108	C	0.347904	-0.396802	0.161566
C109	C	-0.082129	-0.896844	-0.338458
C110	C	0.417871	-0.396844	0.161542
C111	C	-0.323248	-0.889730	-0.521568
C112	C	0.176752	-0.389730	-0.021568
C113	C	-0.326216	-0.886757	-0.599632
C114	C	0.173784	-0.386757	-0.099632
C115	C	-0.316307	-0.060894	-0.338398
C116	C	0.183693	0.439106	0.161602
C117	C	-0.316297	-0.130862	-0.338392
C118	C	0.183703	0.369138	0.161608
C119	C	-0.287362	-0.925640	-0.636327
C120	C	0.212638	-0.425640	-0.136327
C121	C	-0.290148	-0.922839	-0.709677
C122	C	0.209852	-0.422839	-0.209677
C123	C	-0.331791	-0.881159	-0.746330
C124	C	0.168209	-0.381159	-0.246330
C125	C	-0.370646	-0.842272	-0.709630
C126	C	0.129354	-0.342272	-0.209630
C127	C	-0.367856	-0.845070	-0.636282
C128	C	0.132144	-0.345070	-0.136282
C129	C	-0.342224	-0.870694	-0.967792
C130	C	0.157776	-0.370694	-0.467792
C131	C	-0.345012	-0.867900	-1.041146
C132	C	0.154988	-0.367900	-0.541146
C133	C	-0.264513	-0.948467	-1.041188
C134	C	0.235487	-0.448467	-0.541188
C135	C	-0.261730	-0.951264	-0.967838
C136	C	0.238270	-0.451264	-0.467838
C137	C	-0.300582	-0.912374	-0.931144
C138	C	0.199418	-0.412374	-0.431144
C139	C	-0.334641	-0.878297	-0.821305
C140	C	0.165359	-0.378297	-0.321305
C141	C	-0.297729	-0.915234	-0.856171
C142	C	0.202271	-0.415234	-0.356171
C143	C	-0.309303	-0.903688	-0.155904
C144	C	0.190697	-0.403688	0.344096
C145	C	-0.306158	-0.906783	-0.077841
C146	C	0.193842	-0.406783	0.422159
H147	H	-0.552792	-0.972839	-0.256930
H148	H	-0.052792	-0.472839	0.243070
Br149	Br	-0.688975	-0.995692	-0.232599
Br150	Br	-0.188975	-0.495692	0.267401
Br151	Br	-0.225537	-0.515976	-0.444426
Br152	Br	0.274463	-0.015976	0.055574
Br153	Br	-0.407028	-0.123109	-0.232332
Br154	Br	0.092972	0.376891	0.267668
H155	H	-0.678301	-0.820498	-0.419789
H156	H	-0.178301	-0.320498	0.080211
H157	H	-0.386093	-0.540881	-0.256730
H158	H	0.113907	-0.040881	0.243270
H159	H	-0.232880	-0.980127	-1.071072
H160	H	0.267120	-0.480127	-0.571072
Br161	Br	-0.225572	-0.115139	-0.444451
Br162	Br	0.274428	0.384861	0.055549
H163	H	-0.386088	-0.660149	-0.256730
H164	H	0.113912	-0.160149	0.243270
H165	H	-0.373870	-0.839036	-0.937925
H166	H	0.126130	-0.339036	-0.437925
Br167	Br	-0.542115	-0.797649	-0.444135
Br168	Br	-0.042115	-0.297649	0.055865
Br169	Br	-0.934853	-0.995778	-0.232638
Br170	Br	-0.434853	-0.495778	0.267362
H171	H	-0.399489	-0.813401	-0.606405
H172	H	0.100511	-0.313401	-0.106405
Br173	Br	-0.230849	-0.982214	-0.586591
Br174	Br	0.269151	-0.482214	-0.086591
H175	H	-1.072900	-0.973041	-0.257044
H176	H	-0.572900	-0.473041	0.242956
H177	H	-1.079142	-0.820645	-0.419872
H178	H	-0.579142	-0.320645	0.080128
Br179	Br	-0.225541	-0.670934	-0.444432
Br180	Br	0.274459	-0.170934	0.055568
Br181	Br	-0.401528	-0.811328	-1.090889
Br182	Br	0.098472	-0.311328	-0.590889
Br183	Br	-0.407012	-0.278071	-0.232323
Br184	Br	0.092988	0.221929	0.267677
H185	H	-0.404550	-0.808333	-0.739478
H186	H	0.095450	-0.308333	-0.239478
Br187	Br	-0.942959	-0.797793	-0.444207
Br188	Br	-0.442959	-0.297793	0.055793
H189	H	-0.258511	-0.954503	-0.739551
H190	H	0.241489	-0.454503	-0.239551
Br191	Br	-0.205214	-1.007834	-0.918100
Br192	Br	0.294786	-0.507834	-0.418100
H193	H	-0.263821	-0.949167	-0.826325
H194	H	0.236179	-0.449167	-0.326325
H195	H	-0.368549	-0.844364	-0.851156
H196	H	0.131451	-0.344364	-0.351156
H197	H	-0.246457	-0.253167	-0.420016
H198	H	0.253543	0.246833	0.079984
