data_functionalizedCrystal
_audit_creation_method	'MofGen! by Chris Wilmer'
_symmetry_space_group_name_H-M	'P1'
_symmetry_Int_Tables_number	1
_symmetry_cell_setting	triclinic
loop_
_symmetry_equiv_pos_as_xyz
  x,y,z
_cell_length_a	10.654541
_cell_length_b	11.026607
_cell_length_c	10.065875
_cell_angle_alpha	79.268236
_cell_angle_beta	81.167505
_cell_angle_gamma	83.465027
loop_
_atom_site_label
_atom_site_type_symbol
_atom_site_fract_x
_atom_site_fract_y
_atom_site_fract_z
O1	O	1.719277	-0.153038	-0.113481
O2	O	1.357331	-0.169310	-0.113486
O3	O	1.508306	0.015730	-0.113479
O4	O	1.568302	-0.338079	-0.113488
O5	O	1.479549	-0.019697	0.113509
O6	O	1.328574	-0.204738	0.113502
O7	O	1.690521	-0.188466	0.113506
Zn8	Zn	1.504982	-0.202227	0.149543
Zn9	Zn	1.542870	-0.155550	-0.149523
O10	O	1.539546	-0.373507	0.113499
C11	C	1.482859	0.043321	0.000013
C12	C	1.449866	0.178313	0.000008
C13	C	1.295895	-0.185830	0.000008
C14	C	1.155676	-0.182257	0.000006
C15	C	1.751956	-0.171946	0.000010
C16	C	1.892176	-0.175518	0.000002
C17	C	1.872118	0.045751	-0.000008
C18	C	1.927964	0.154703	-0.000021
C19	C	2.059713	0.151340	-0.000026
C20	C	2.135620	0.039011	-0.000014
C21	C	2.079774	-0.069941	-0.000002
C22	C	1.948021	-0.066565	-0.000001
C23	C	2.099830	-0.291209	0.000019
C24	C	1.968083	-0.287846	0.000014
C25	C	2.175737	-0.403537	0.000030
C26	C	2.119892	-0.512491	0.000033
C27	C	1.988135	-0.509122	0.000037
C28	C	1.912237	-0.396798	0.000027
C29	C	1.564992	-0.401096	0.000004
C30	C	1.597987	-0.536087	0.000001
N31	N	1.479133	-0.234082	0.353648
C32	C	1.540969	0.251353	0.000007
C33	C	1.506870	0.390874	0.000002
N34	N	1.568726	-0.123685	-0.353627
C35	C	1.533867	-0.166625	0.421429
C36	C	1.513985	-0.191151	0.578595
H37	H	1.866144	0.246156	-0.000011
N38	N	1.677726	0.197376	0.000025
H39	H	1.682699	0.105356	0.000035
H40	H	1.710296	0.212270	0.084180
N41	N	1.397555	-0.334628	0.430894
H42	H	1.450482	-0.397948	0.490173
H43	H	1.363772	-0.376179	0.363982
N44	N	1.734755	0.409951	0.000015
H45	H	1.788744	0.451012	-0.084128
H46	H	1.739623	0.317933	0.000071
H47	H	1.403624	0.431630	-0.000009
N48	N	2.119946	0.268851	-0.000029
H49	H	2.103295	0.330934	-0.084175
H50	H	2.214906	0.249562	0.000023
N51	N	2.277716	0.035374	0.000009
H52	H	2.301575	0.121437	0.000009
H53	H	2.323964	0.004200	-0.084133
N54	N	2.317839	-0.407179	0.000017
H55	H	2.342855	-0.464552	0.084164
H56	H	2.341610	-0.321075	-0.000050
H57	H	1.346625	0.219074	-0.000002
H58	H	2.181704	-0.603941	0.000052
H59	H	1.942673	-0.597846	0.000057
H60	H	1.764842	0.048504	-0.000019
N61	N	1.432412	-0.291711	0.655835
H62	H	1.398615	-0.333357	0.589009
H63	H	1.358688	-0.254026	0.715131
N64	N	1.770138	-0.393164	0.000021
H65	H	1.730531	-0.305476	0.000012
H66	H	1.731785	-0.448972	0.084175
N67	N	1.650292	-0.023117	0.569141
H68	H	1.652933	-0.019847	0.467815
H69	H	1.739614	-0.041580	0.594026
N70	N	1.615399	-0.066040	0.344189
H71	H	1.618028	-0.062764	0.242863
H72	H	1.704729	-0.084473	0.369056
