data_functionalizedCrystal
_audit_creation_method	'MofGen! by Chris Wilmer'
_symmetry_space_group_name_H-M	'P1'
_symmetry_Int_Tables_number	1
_symmetry_cell_setting	triclinic
loop_
_symmetry_equiv_pos_as_xyz
  x,y,z
_cell_length_a	16.109301
_cell_length_b	15.186229
_cell_length_c	9.065215
_cell_angle_alpha	90.002790
_cell_angle_beta	84.238089
_cell_angle_gamma	90.000638
loop_
_atom_site_label
_atom_site_type_symbol
_atom_site_fract_x
_atom_site_fract_y
_atom_site_fract_z
O1	O	1.104586	0.073171	0.189629
O2	O	1.604586	0.573171	0.689629
O3	O	0.862706	0.073185	0.213228
O4	O	1.362706	0.573185	0.713228
O5	O	0.988647	0.073174	-0.013335
O6	O	1.488647	0.573174	0.486665
O7	O	0.978645	0.073182	0.416192
O8	O	1.478645	0.573182	0.916192
O9	O	0.988638	-0.073283	-0.013339
O10	O	1.488638	0.426717	0.486661
O11	O	0.862697	-0.073272	0.213224
O12	O	1.362697	0.426728	0.713224
O13	O	1.104578	-0.073286	0.189625
O14	O	1.604578	0.426714	0.689625
Zn15	Zn	0.983636	-0.096533	0.201424
Zn16	Zn	1.483636	0.403467	0.701424
Zn17	Zn	0.983647	0.096431	0.201429
Zn18	Zn	1.483647	0.596431	0.701429
O19	O	0.978637	-0.073275	0.416189
O20	O	1.478637	0.426725	0.916189
C21	C	0.831719	-0.000042	0.212270
C22	C	1.331719	0.499958	0.712270
C23	C	0.739402	-0.000037	0.209404
C24	C	1.239402	0.499963	0.709404
C25	C	0.518110	-0.000045	0.337178
C26	C	1.018110	0.499955	0.837178
C27	C	0.431369	-0.000050	0.334474
C28	C	0.931369	0.499950	0.834474
C29	C	0.449180	-0.000052	0.065665
C30	C	0.949180	0.499948	0.565665
C31	C	0.535919	-0.000052	0.068370
C32	C	1.035919	0.499948	0.568370
C33	C	0.570382	-0.000044	0.204132
C34	C	1.070382	0.499956	0.704132
C35	C	0.396901	-0.000049	0.198721
C36	C	0.896901	0.499951	0.698721
C37	C	0.302853	-0.000056	0.195788
C38	C	0.802853	0.499944	0.695788
C39	C	0.664437	-0.000040	0.207066
C40	C	1.164437	0.499960	0.707066
N41	N	0.983635	-0.228225	0.201421
N42	N	1.483635	0.271775	0.701421
C43	C	1.039421	-0.453953	0.101132
C44	C	1.539421	0.046047	0.601132
C45	C	1.039423	-0.546143	0.101129
C46	C	1.539423	-0.046143	0.601129
C47	C	0.927863	-0.546142	0.301714
C48	C	1.427863	-0.046142	0.801714
C49	C	0.927857	-0.453954	0.301709
C50	C	1.427857	0.046046	0.801709
C51	C	0.983641	-0.407862	0.201420
C52	C	1.483641	0.092138	0.701420
C53	C	0.983649	-0.592240	0.201421
C54	C	1.483649	-0.092240	0.701421
C55	C	0.983652	-0.692196	0.201418
C56	C	1.483652	-0.192196	0.701418
C57	C	0.983638	-0.307899	0.201421
C58	C	1.483638	0.192101	0.701421
C59	C	1.135564	-0.000057	0.190583
C60	C	1.635564	0.499943	0.690583
C61	C	1.227882	-0.000057	0.193449
C62	C	1.727882	0.499943	0.693449
C63	C	0.987682	-0.000054	-0.068301
C64	C	1.487682	0.499946	0.431699
C65	C	0.984810	-0.000051	-0.232074
C66	C	1.484810	0.499949	0.267926
N67	N	0.983656	0.228124	0.201421
N68	N	1.483656	0.728124	0.701421
C69	C	0.979602	-0.000046	0.471154
C70	C	1.479602	0.499954	0.971154
C71	C	0.982474	-0.000043	0.634927
C72	C	1.482474	0.499957	1.134927
H73	H	0.421109	-0.000064	-0.044868
H74	H	0.921109	0.499936	0.455132
H75	H	0.882430	-0.416424	0.383376
H76	H	1.382430	0.083576	0.883376
H77	H	0.578481	-0.000055	-0.039979
H78	H	1.078481	0.499945	0.460021
H79	H	1.084842	-0.416427	0.019469
H80	H	1.584842	0.083573	0.519469
H81	H	0.546167	-0.000045	0.447724
H82	H	1.046167	0.499955	0.947724
H83	H	1.084844	-0.583667	0.019464
H84	H	1.584844	-0.083667	0.519464
H85	H	0.882447	-0.583679	0.383369
H86	H	1.382447	-0.083679	0.883369
Cl87	Cl	0.365659	-0.000052	0.501741
Cl88	Cl	0.865659	0.499948	1.001741
