data_functionalizedCrystal
_audit_creation_method	'MofGen! by Chris Wilmer'
_symmetry_space_group_name_H-M	'P1'
_symmetry_Int_Tables_number	1
_symmetry_cell_setting	triclinic
loop_
_symmetry_equiv_pos_as_xyz
  x,y,z
_cell_length_a	10.908937
_cell_length_b	10.967829
_cell_length_c	9.798715
_cell_angle_alpha	77.868973
_cell_angle_beta	89.994671
_cell_angle_gamma	72.684843
loop_
_atom_site_label
_atom_site_type_symbol
_atom_site_fract_x
_atom_site_fract_y
_atom_site_fract_z
O1	O	1.702141	-0.192362	-0.068293
O2	O	2.202141	0.307638	0.431707
O3	O	1.329138	-0.095100	-0.091160
O4	O	1.829138	0.404900	0.408840
O5	O	1.524241	-0.327166	-0.036581
O6	O	2.024241	0.172834	0.463419
O7	O	1.507038	0.039703	-0.122872
O8	O	2.007038	0.539703	0.377128
O9	O	1.524227	-0.327163	0.190401
O10	O	2.024227	0.172837	0.690401
O11	O	1.329124	-0.095098	0.135822
O12	O	1.829124	0.404902	0.635822
O13	O	1.702127	-0.192360	0.158689
O14	O	2.202127	0.307640	0.658689
Zn15	Zn	1.515623	-0.143728	0.183293
Zn16	Zn	2.015623	0.356272	0.683293
Zn17	Zn	1.515642	-0.143732	-0.115765
Zn18	Zn	2.015642	0.356268	0.384235
O19	O	1.507024	0.039706	0.104110
O20	O	2.007024	0.539706	0.604110
C21	C	1.281370	-0.086010	0.020194
C22	C	1.781370	0.413990	0.520194
C23	C	1.139058	-0.058941	0.013831
C24	C	1.639058	0.441059	0.513831
C25	C	0.942091	-0.129747	0.030461
C26	C	1.442091	0.370253	0.530461
C27	C	1.089179	-0.157727	0.037059
C28	C	1.589179	0.342273	0.537059
C29	C	1.522981	-0.373394	0.087781
C30	C	2.022981	0.126606	0.587781
C31	C	1.519233	-0.511141	0.120172
C32	C	2.019233	-0.011141	0.620172
C33	C	1.517569	-0.572548	0.017028
C34	C	2.017569	-0.072548	0.517028
C35	C	1.513695	-0.714916	0.050503
C36	C	2.013695	-0.214916	0.550503
C37	C	1.749895	-0.201451	0.047332
C38	C	2.249895	0.298549	0.547332
C39	C	1.892207	-0.228519	0.053686
C40	C	2.392207	0.271481	0.553686
C41	C	1.508284	0.085934	-0.020255
C42	C	2.008284	0.585934	0.479745
C43	C	1.512032	0.223680	-0.052655
C44	C	2.012032	0.723680	0.447345
N45	N	1.515619	-0.143729	0.387393
N46	N	2.015619	0.356271	0.887393
N47	N	1.515656	-0.143743	-0.319861
N48	N	2.015656	0.356257	0.180139
C49	C	1.597537	-0.241518	0.478169
C50	C	2.097537	0.258482	0.978169
C51	C	1.597558	-0.241527	0.635334
C52	C	2.097558	0.258473	1.135334
H53	H	1.072877	0.046344	-0.010942
H54	H	1.572877	0.546344	0.489058
H55	H	1.445523	-0.060014	0.602170
H56	H	1.945523	0.439986	1.102170
H57	H	1.155361	-0.263011	0.061820
H58	H	1.655361	0.236989	0.561820
C59	C	0.981616	-0.370748	0.087151
C60	C	1.481616	0.129252	0.587151
N61	N	1.048958	-0.477877	0.112362
N62	N	1.548958	0.022123	0.612362
H63	H	1.513461	-0.723494	-0.165752
H64	H	2.013461	-0.223494	0.334248
C65	C	0.852682	0.012481	-0.002998
C66	C	1.352682	0.512481	0.497002
N67	N	0.785340	0.119610	-0.028198
N68	N	1.285340	0.619610	0.471802
C69	C	1.692246	-0.354634	0.425983
C70	C	2.192246	0.145366	0.925983
N71	N	1.763576	-0.439840	0.386681
N72	N	2.263576	0.060160	0.886681
H73	H	1.667697	-0.325245	0.713308
H74	H	2.167697	0.174755	1.213308
C75	C	1.420884	-0.030633	0.439584
C76	C	1.920884	0.469367	0.939584
N77	N	1.349527	0.054554	0.478891
N78	N	1.849527	0.554554	0.978891
H79	H	1.519008	-0.519719	-0.096060
H80	H	2.019008	-0.019719	0.403940
C81	C	1.511741	-0.786270	0.203291
C82	C	2.011741	-0.286270	0.703291
N83	N	1.510271	-0.840017	0.318369
N84	N	2.010271	-0.340017	0.818369
H85	H	1.517781	-0.563964	0.233259
H86	H	2.017781	-0.063964	0.733259
