data_functionalizedCrystal
_audit_creation_method	'MofGen! by Chris Wilmer'
_symmetry_space_group_name_H-M	'P1'
_symmetry_Int_Tables_number	1
_symmetry_cell_setting	triclinic
loop_
_symmetry_equiv_pos_as_xyz
  x,y,z
_cell_length_a	16.109318
_cell_length_b	17.038272
_cell_length_c	15.500369
_cell_angle_alpha	93.041946
_cell_angle_beta	87.169167
_cell_angle_gamma	87.290060
loop_
_atom_site_label
_atom_site_type_symbol
_atom_site_fract_x
_atom_site_fract_y
_atom_site_fract_z
O1	O	1.106667	0.104186	0.071872
O2	O	0.865493	0.116679	0.071889
O3	O	0.984647	-0.003383	0.071874
O4	O	0.987513	0.224248	0.071887
O5	O	0.991838	-0.010644	-0.072013
O6	O	0.872684	0.109418	-0.071997
O7	O	1.113858	0.096925	-0.072015
Cu8	Cu	0.993928	0.102509	-0.085144
Cu9	Cu	0.985423	0.111095	0.085018
O10	O	0.994704	0.216987	-0.071999
C11	C	0.838078	0.112540	-0.000052
C12	C	0.745675	0.111016	-0.000045
C13	C	0.985635	-0.036142	-0.000069
C14	C	0.977856	-0.122935	-0.000068
C15	C	0.442332	0.110051	0.078372
C16	C	0.529155	0.111478	0.078377
C17	C	0.537013	0.103551	-0.078496
C18	C	0.450193	0.102118	-0.078500
C19	C	0.402854	0.105372	-0.000064
C20	C	0.576497	0.108232	-0.000054
C21	C	0.670633	0.109780	-0.000049
C22	C	0.308711	0.103823	-0.000069
C23	C	1.049277	-0.173046	-0.000075
C24	C	1.041962	-0.254597	-0.000066
C25	C	0.963227	-0.286035	-0.000057
C26	C	0.891800	-0.235918	-0.000048
C27	C	0.899115	-0.154368	-0.000051
C28	C	0.937384	-0.531794	-0.000043
C29	C	0.930074	-0.613349	-0.000043
C30	C	1.080237	-0.632023	-0.000059
C31	C	1.087545	-0.550471	-0.000067
C32	C	1.016119	-0.500361	-0.000054
C33	C	0.955748	-0.369393	-0.000051
C34	C	1.023597	-0.417005	-0.000054
C35	C	1.141273	0.101064	-0.000072
C36	C	1.233676	0.102588	-0.000073
C37	C	0.993716	0.249746	-0.000054
C38	C	1.001495	0.336540	-0.000050
N39	N	0.999916	0.096469	-0.204827
C40	C	1.029942	0.066274	-0.750006
C41	C	1.025396	0.070852	-0.659435
C42	C	0.970343	0.126281	-0.614157
C43	C	0.919841	0.177141	-0.659456
C44	C	0.924392	0.172567	-0.750026
C45	C	0.953964	0.142754	-0.340696
C46	C	0.949415	0.147323	-0.250120
C47	C	1.054972	0.041035	-0.250104
C48	C	1.059515	0.036462	-0.340676
C49	C	1.009015	0.087325	-0.385967
C50	C	0.965693	0.130960	-0.521579
C51	C	1.013670	0.082650	-0.478543
N52	N	0.979442	0.117129	0.204701
H53	H	0.403792	0.112699	0.142240
C54	C	0.406764	0.096978	-0.164790
N55	N	0.374053	0.093107	-0.229781
H56	H	0.920867	0.176090	-0.484707
C57	C	1.080947	0.014904	-0.609617
N58	N	1.122790	-0.027240	-0.572095
C59	C	0.859282	0.238113	-0.609648
N60	N	0.813665	0.284037	-0.572133
H61	H	0.883270	0.213979	-0.786902
H62	H	0.827692	-0.261521	-0.000036
C63	C	0.572576	0.116622	0.164663
N64	N	0.605281	0.120495	0.229657
C65	C	1.110513	-0.014914	-0.200277
N66	N	1.152349	-0.057057	-0.162746
H67	H	0.904581	0.192463	-0.213259
H68	H	1.113392	-0.147456	-0.000087
H69	H	1.100121	-0.295394	-0.000073
C70	C	0.589090	0.100014	-0.164771
N71	N	0.628313	0.097365	-0.229755
C72	C	1.174160	-0.515896	-0.000077
N73	N	1.239401	-0.489855	-0.000089
C74	C	0.820547	-0.099246	-0.000046
N75	N	0.761366	-0.057729	-0.000041
C76	C	1.158800	-0.687150	-0.000066
N77	N	1.217976	-0.728672	-0.000067
C78	C	0.843455	-0.647928	-0.000027
N79	N	0.778216	-0.673974	-0.000015
H80	H	1.058497	0.037522	-0.515411
C81	C	0.858811	-0.476682	-0.000024
N82	N	0.799626	-0.435169	-0.000007
H83	H	1.104342	-0.008672	-0.377538
C84	C	1.110205	-0.382420	-0.000068
N85	N	1.175438	-0.356364	-0.000084
C86	C	0.898404	0.198698	-0.390504
N87	N	0.856551	0.240836	-0.428023
C88	C	1.090502	0.005296	-0.799803
N89	N	1.136120	-0.040634	-0.837307
H90	H	0.891641	-0.394999	-0.000046
