data_functionalizedCrystal
_audit_creation_method	'MofGen! by Chris Wilmer'
_symmetry_space_group_name_H-M	'P1'
_symmetry_Int_Tables_number	1
_symmetry_cell_setting	triclinic
loop_
_symmetry_equiv_pos_as_xyz
  x,y,z
_cell_length_a	16.625548
_cell_length_b	16.625546
_cell_length_c	16.625539
_cell_angle_alpha	89.969603
_cell_angle_beta	90.020568
_cell_angle_gamma	89.976464
loop_
_atom_site_label
_atom_site_type_symbol
_atom_site_fract_x
_atom_site_fract_y
_atom_site_fract_z
Zn1	Zn	1.232680	0.320977	0.455898
Zn2	Zn	1.482680	0.570977	0.705898
Zn3	Zn	1.732680	0.820977	0.955898
Zn4	Zn	1.982680	1.070977	1.205898
Zn5	Zn	1.232584	0.455820	0.321060
Zn6	Zn	1.482584	0.705820	0.571060
Zn7	Zn	1.732584	0.955820	0.821060
Zn8	Zn	1.982584	1.205820	1.071060
Zn9	Zn	1.097842	0.321008	0.321078
Zn10	Zn	1.347842	0.571008	0.571078
Zn11	Zn	1.597842	0.821008	0.821078
Zn12	Zn	1.847842	1.071008	1.071078
Zn13	Zn	1.097813	0.455774	0.455850
Zn14	Zn	1.347813	0.705774	0.705850
Zn15	Zn	1.597813	0.955774	0.955850
Zn16	Zn	1.847813	1.205774	1.205850
O17	O	1.165230	0.388395	0.388471
O18	O	1.415230	0.638395	0.638471
O19	O	1.665230	0.888395	0.888471
O20	O	1.915230	1.138395	1.138471
O21	O	1.345500	0.338871	0.438024
O22	O	1.595500	0.588871	0.688024
O23	O	1.845500	0.838871	0.938024
O24	O	2.095500	1.088871	1.188024
O25	O	1.214682	0.437969	0.208230
O26	O	1.464682	0.687969	0.458230
O27	O	1.714682	0.937969	0.708230
O28	O	1.964682	1.187969	0.958230
O29	O	1.115782	0.208171	0.338990
O30	O	1.365782	0.458171	0.588990
O31	O	1.615782	0.708171	0.838990
O32	O	1.865782	0.958171	1.088990
O33	O	1.345429	0.437940	0.338959
O34	O	1.595429	0.687940	0.588959
O35	O	1.845429	0.937940	0.838959
O36	O	2.095429	1.187940	1.088959
O37	O	1.214847	0.208149	0.438041
O38	O	1.464847	0.458149	0.688041
O39	O	1.714847	0.708149	0.938041
O40	O	1.964847	0.958149	1.188041
O41	O	1.115688	0.338923	0.208243
O42	O	1.365688	0.588923	0.458243
O43	O	1.615688	0.838923	0.708243
O44	O	1.865688	1.088923	0.958243
O45	O	0.985006	0.338878	0.338944
O46	O	1.235006	0.588878	0.588944
O47	O	1.485006	0.838878	0.838944
O48	O	1.735006	1.088878	1.088944
O49	O	1.115731	0.437861	0.568689
O50	O	1.365731	0.687861	0.818689
O51	O	1.615731	0.937861	1.068689
O52	O	1.865731	1.187861	1.318689
O53	O	0.984984	0.437890	0.437960
O54	O	1.234984	0.687890	0.687960
O55	O	1.484984	0.937890	0.937960
O56	O	1.734984	1.187890	1.187960
O57	O	1.214818	0.338826	0.568724
O58	O	1.464818	0.588826	0.818724
O59	O	1.714818	0.838826	1.068724
O60	O	1.964818	1.088826	1.318724
O61	O	1.214653	0.568647	0.338912
O62	O	1.464653	0.818647	0.588912
O63	O	1.714653	1.068647	0.838912
O64	O	1.964653	1.318647	1.088912
O65	O	1.115637	0.568613	0.437942
O66	O	1.365637	0.818613	0.687942
O67	O	1.615637	1.068613	0.937942
O68	O	1.865637	1.318613	1.187942
C69	C	1.165153	0.597886	0.388438
C70	C	1.415153	0.847886	0.638438
C71	C	1.665153	1.097886	0.888438
C72	C	1.915153	1.347886	1.138438
C73	C	1.165195	0.687507	0.388450
C74	C	1.415195	0.937507	0.638450
C75	C	1.665195	1.187507	0.888450
C76	C	1.915195	1.437507	1.138450
C77	C	0.955739	0.388383	0.388449
C78	C	1.205739	0.638383	0.638449
C79	C	1.455739	0.888383	0.888449
C80	C	1.705739	1.138383	1.138449
C81	C	0.866118	0.388398	0.388458
C82	C	1.116118	0.638398	0.638458
C83	C	1.366118	0.888398	0.888458
C84	C	1.616118	1.138398	1.138458
C85	C	1.165282	0.388335	0.598780
C86	C	1.415282	0.638335	0.848780
C87	C	1.665282	0.888335	1.098780
C88	C	1.915282	1.138335	1.348780
C89	C	1.165305	0.388309	0.688402
C90	C	1.415305	0.638309	0.938402
C91	C	1.665305	0.888309	1.188402
C92	C	1.915305	1.138309	1.438402
C93	C	0.537942	0.388403	0.388493
C94	C	0.787942	0.638403	0.638493
C95	C	1.037942	0.888403	0.888493
C96	C	1.287942	1.138403	1.138493
C97	C	0.629251	0.388399	0.388481
C98	C	0.879251	0.638399	0.638481
C99	C	1.129251	0.888399	0.888481
C100	C	1.379251	1.138399	1.138481
C101	C	0.702027	0.388401	0.388475
C102	C	0.952027	0.638401	0.638475
C103	C	1.202027	0.888401	0.888475
C104	C	1.452027	1.138401	1.138475
C105	C	0.793341	0.388396	0.388464
C106	C	1.043341	0.638396	0.638464
C107	C	1.293341	0.888396	0.888464
C108	C	1.543341	1.138396	1.138464
C109	C	1.375539	0.388407	0.388494
C110	C	1.625539	0.638407	0.638494
C111	C	1.875539	0.888407	0.888494
C112	C	2.125539	1.138407	1.138494
C113	C	1.465160	0.388412	0.388504
C114	C	1.715160	0.638412	0.638504
C115	C	1.965160	0.888412	0.888504
C116	C	2.215160	1.138412	1.138504
C117	C	1.165328	0.178086	0.388523
C118	C	1.415328	0.428086	0.638523
C119	C	1.665328	0.678086	0.888523
C120	C	1.915328	0.928086	1.138523
C121	C	1.165370	0.088465	0.388545
C122	C	1.415370	0.338465	0.638545
C123	C	1.665370	0.588465	0.888545
C124	C	1.915370	0.838465	1.138545
C125	C	1.165335	1.015682	0.388534
C126	C	1.415335	1.265682	0.638534
C127	C	1.665335	1.515682	0.888534
C128	C	1.915335	1.765682	1.138534
C129	C	1.165294	0.924374	0.388513
C130	C	1.415294	1.174374	0.638513
C131	C	1.665294	1.424374	0.888513
C132	C	1.915294	1.674374	1.138513
C133	C	1.165264	0.851598	0.388492
C134	C	1.415264	1.101598	0.638492
C135	C	1.665264	1.351598	0.888492
C136	C	1.915264	1.601598	1.138492
C137	C	1.165224	0.760283	0.388471
C138	C	1.415224	1.010283	0.638471
C139	C	1.665224	1.260283	0.888471
C140	C	1.915224	1.510283	1.138471
C141	C	1.165224	0.388397	0.178981
C142	C	1.415224	0.638397	0.428981
C143	C	1.665224	0.888397	0.678981
C144	C	1.915224	1.138397	0.928981
C145	C	1.165358	0.388195	0.089360
C146	C	1.415358	0.638195	0.339360
C147	C	1.665358	0.888195	0.589360
C148	C	1.915358	1.138195	0.839360
C149	C	1.165342	0.388219	1.016577
C150	C	1.415342	0.638219	1.266577
C151	C	1.665342	0.888219	1.516577
C152	C	1.915342	1.138219	1.766577
C153	C	1.165329	0.388247	0.925269
C154	C	1.415329	0.638247	1.175269
C155	C	1.665329	0.888247	1.425269
C156	C	1.915329	1.138247	1.675269
C157	C	1.165324	0.388265	0.852492
C158	C	1.415324	0.638265	1.102492
C159	C	1.665324	0.888265	1.352492
C160	C	1.915324	1.138265	1.602492
C161	C	1.165310	0.388291	0.761178
C162	C	1.415310	0.638291	1.011178
C163	C	1.665310	0.888291	1.261178
C164	C	1.915310	1.138291	1.511178
