data_functionalizedCrystal
_audit_creation_method	'MofGen! by Chris Wilmer'
_symmetry_space_group_name_H-M	'P1'
_symmetry_Int_Tables_number	1
_symmetry_cell_setting	triclinic
loop_
_symmetry_equiv_pos_as_xyz
  x,y,z
_cell_length_a	19.077236
_cell_length_b	16.625546
_cell_length_c	19.077174
_cell_angle_alpha	92.270997
_cell_angle_beta	85.294282
_cell_angle_gamma	92.315185
loop_
_atom_site_label
_atom_site_type_symbol
_atom_site_fract_x
_atom_site_fract_y
_atom_site_fract_z
Zn1	Zn	1.093747	-0.291122	-0.441966
Zn2	Zn	1.088936	-0.420756	-0.324074
Zn3	Zn	0.971129	-0.291134	-0.319349
Zn4	Zn	0.975827	-0.431112	-0.437178
O5	O	1.032410	-0.358531	-0.380641
O6	O	1.191762	-0.303979	-0.430308
O7	O	1.069329	-0.399233	-0.224797
O8	O	0.987441	-0.178299	-0.335640
O9	O	1.188227	-0.399221	-0.343694
O10	O	1.077529	-0.178290	-0.425726
O11	O	0.982776	-0.304000	-0.221325
O12	O	0.873099	-0.314042	-0.330998
O13	O	0.995449	-0.416871	-0.536463
O14	O	0.876551	-0.416883	-0.417566
O15	O	1.082085	-0.314021	-0.539981
O16	O	1.073885	-0.534963	-0.339051
O17	O	0.990784	-0.542572	-0.422148
C18	C	0.849245	-0.366588	-0.373250
C19	C	0.770887	-0.370055	-0.370105
C20	C	0.735918	-0.322181	-0.413792
C21	C	0.662293	-0.325434	-0.410830
C22	C	0.623637	-0.376566	-0.364185
C23	C	0.658611	-0.424441	-0.320494
C24	C	0.732236	-0.421183	-0.323452
C25	C	0.403246	-0.391614	-0.350491
C26	C	0.329617	-0.394871	-0.347537
C27	C	0.333303	-0.295862	-0.437873
C28	C	0.406929	-0.292612	-0.440831
C29	C	0.441896	-0.340484	-0.397137
N30	N	0.548380	-0.379895	-0.361159
N31	N	0.517152	-0.337151	-0.400160
C32	C	1.032342	-0.568024	-0.380609
C33	C	1.032378	-0.657644	-0.380622
C34	C	1.032504	-0.985817	-0.380700
C35	C	1.032467	-0.894509	-0.380680
C36	C	1.032441	-0.821733	-0.380660
C37	C	1.032405	-0.730420	-0.380641
C38	C	1.216289	-0.350444	-0.388062
C39	C	1.294648	-0.346997	-0.391224
C40	C	1.039828	-0.366599	-0.564516
C41	C	1.042989	-0.370038	-0.642872
C42	C	1.032498	-0.148220	-0.380690
C43	C	1.032535	-0.058598	-0.380711
C44	C	0.999412	-0.322071	-0.677876
C45	C	1.002380	-0.325309	-0.751500
C46	C	1.048928	-0.376509	-0.790119
C47	C	1.092506	-0.424480	-0.755110
C48	C	1.089534	-0.421247	-0.681487
C49	C	1.062643	-0.391501	-1.010502
C50	C	1.065613	-0.394729	-1.084130
C51	C	0.975486	-0.295558	-1.080515
C52	C	0.972522	-0.292325	-1.006891
C53	C	1.016097	-0.340300	-0.971888
N54	N	1.051964	-0.379817	-0.865375
N55	N	1.013057	-0.336995	-0.896633
C56	C	1.025061	-0.350434	-0.197484
C57	C	1.022037	-0.346763	-0.119134
H58	H	0.633824	-0.286452	-0.446406
H59	H	0.304825	-0.256886	-0.473446
H60	H	1.098118	-0.430574	-0.982011
C61	C	0.287097	-0.451117	-0.296224
H62	H	0.318466	-0.479157	-0.270621
H63	H	0.259461	-0.488749	-0.321983
H64	H	0.257138	-0.420136	-0.264405
C65	C	0.927552	-0.242795	-1.119016
H66	H	0.899408	-0.211836	-1.085471
H67	H	0.897981	-0.276250	-1.146489
H68	H	0.955696	-0.207733	-1.148832
H69	H	1.103521	-0.436423	-1.115571
H70	H	1.130402	-0.466173	-0.786559
C71	C	0.954450	-0.272541	-0.790002
H72	H	0.926310	-0.241577	-0.756458
H73	H	0.924876	-0.305992	-0.817475
H74	H	0.982599	-0.237484	-0.819819
H75	H	0.767387	-0.280546	-0.451777
C76	C	0.449445	-0.236360	-0.492134
H77	H	0.418073	-0.208307	-0.517723
H78	H	0.479404	-0.267328	-0.523955
H79	H	0.477079	-0.198727	-0.466367
C80	C	0.441701	-0.444275	-0.302432
H81	H	0.408133	-0.475198	-0.274235
H82	H	0.469184	-0.410760	-0.272917
H83	H	0.471506	-0.479369	-0.330498
C84	C	1.137468	-0.474010	-0.642983
H85	H	1.165620	-0.504962	-0.676526
H86	H	1.109324	-0.509065	-0.613166
H87	H	1.167042	-0.440551	-0.615509
C88	C	0.948204	-0.265758	-0.635402
H89	H	0.922670	-0.237662	-0.666796
H90	H	0.974019	-0.228175	-0.607774
H91	H	0.916314	-0.296703	-0.605439
C92	C	0.616096	-0.480687	-0.269184
H93	H	0.647468	-0.508727	-0.243586
H94	H	0.588458	-0.518319	-0.294942
H95	H	0.586138	-0.449710	-0.237361
C96	C	0.770702	-0.473851	-0.275403
H97	H	0.737137	-0.504777	-0.247204
H98	H	0.798188	-0.440340	-0.245889
H99	H	0.800503	-0.508943	-0.303475
C100	C	0.921324	-0.235999	-0.964415
H101	H	0.895795	-0.207897	-0.995807
H102	H	0.947155	-0.198424	-0.936796
H103	H	0.889430	-0.266930	-0.934445
