data_functionalizedCrystal
_audit_creation_method	'MofGen! by Chris Wilmer'
_symmetry_space_group_name_H-M	'P1'
_symmetry_Int_Tables_number	1
_symmetry_cell_setting	triclinic
loop_
_symmetry_equiv_pos_as_xyz
  x,y,z
_cell_length_a	23.532407
_cell_length_b	8.559649
_cell_length_c	7.088929
_cell_angle_alpha	95.344185
_cell_angle_beta	83.830310
_cell_angle_gamma	76.313671
loop_
_atom_site_label
_atom_site_type_symbol
_atom_site_fract_x
_atom_site_fract_y
_atom_site_fract_z
O1	O	-0.740602	-0.210604	-0.158745
O2	O	-0.573565	-0.238695	-0.158801
O3	O	-0.671800	0.008187	-0.158766
O4	O	-0.642367	-0.457486	-0.158780
O5	O	-0.684931	0.041254	0.159214
O6	O	-0.586696	-0.205627	0.159179
O7	O	-0.753733	-0.177537	0.159234
Cu8	Cu	-0.671414	-0.188563	0.188241
Cu9	Cu	-0.655884	-0.227669	-0.187807
O10	O	-0.655499	-0.424418	0.159200
C11	C	-0.558944	-0.221447	0.000182
C12	C	-0.495816	-0.219299	0.000161
C13	C	-0.680596	0.084285	0.000221
C14	C	-0.687234	0.261770	0.000212
C15	C	-0.768354	-0.194786	0.000247
C16	C	-0.831482	-0.196935	0.000256
C17	C	-0.091183	-0.351901	0.000244
C18	C	-0.031867	-0.349902	0.000255
O19	O	0.010004	-0.472827	0.000321
N20	N	-0.015364	-0.203133	0.000256
C21	C	-0.058183	-0.058351	0.000265
O22	O	-0.038699	0.066671	0.000269
C23	C	-0.117498	-0.060350	0.000267
C24	C	-0.133996	-0.207131	0.000247
C25	C	-0.107682	-0.498669	0.000225
C26	C	-0.166995	-0.500667	0.000210
C27	C	-0.209808	-0.355897	0.000213
C28	C	-0.193309	-0.209129	0.000231
C29	C	-0.160316	0.084431	0.000290
C30	C	-0.219635	0.082420	0.000293
C31	C	-0.236133	-0.064361	0.000273
C32	C	-0.295434	-0.066358	0.000219
N33	N	-0.311937	-0.213127	0.000218
C34	C	-0.269123	-0.357896	0.000215
C35	C	0.066385	-0.054164	0.000265
C36	C	0.125700	-0.052165	0.000249
C37	C	0.152012	-0.343716	0.000243
C38	C	0.092696	-0.345715	0.000245
C39	C	0.049883	-0.200933	0.000263
C40	C	-0.393684	-0.362082	0.000181
C41	C	-0.453003	-0.364069	0.000158
C42	C	-0.479309	-0.072518	0.000174
C43	C	-0.419996	-0.070531	0.000187
C44	C	-0.377184	-0.215326	0.000197
O45	O	-0.337337	0.056503	0.000161
O46	O	-0.288617	-0.482895	0.000236
C47	C	-0.646702	-0.500518	0.000209
C48	C	-0.640063	-0.678004	0.000204
N49	N	-0.682340	-0.161057	0.452733
N50	N	-0.644963	-0.255162	-0.452299
H51	H	-0.466430	-0.483600	0.000140
H52	H	-0.721084	-0.063541	0.534402
H53	H	-0.358833	-0.479988	0.000195
H54	H	-0.180421	-0.620191	0.000192
C55	C	-0.747887	0.373847	-0.000059
C56	C	-0.771467	0.328365	-0.163624
C57	C	-0.827340	0.431557	-0.163927
H58	H	-0.744524	0.482262	-0.000146
H59	H	-0.773161	0.366259	0.110773
H60	H	-0.746198	0.335968	-0.274427
H61	H	-0.774844	0.219966	-0.163571
H62	H	-0.852615	0.423969	-0.053095
H63	H	-0.823971	0.539966	-0.164009
H64	H	-0.843348	0.400703	-0.274894
C65	C	0.019855	0.102885	-0.000049
C66	C	-0.008214	0.093229	-0.163622
C67	C	-0.051083	0.237861	-0.163962
H68	H	0.038110	0.190693	-0.000151
H69	H	-0.008447	0.119720	0.110778
H70	H	0.020083	0.076412	-0.274420
H71	H	-0.026482	0.005451	-0.163554
H72	H	-0.079385	0.254697	-0.053135
H73	H	-0.032822	0.325658	-0.164059
H74	H	-0.070137	0.231324	-0.274934
C75	C	-0.525707	0.084817	0.000079
C76	C	-0.498567	0.213791	0.000048
C77	C	-0.541291	0.358750	-0.000055
H78	H	-0.553998	0.101839	0.110932
H79	H	-0.544803	0.078645	-0.110855
H80	H	-0.479481	0.219965	0.110970
H81	H	-0.470281	0.196822	-0.110798
H82	H	-0.560387	0.352578	-0.110989
H83	H	-0.569579	0.375756	0.110800
H84	H	-0.522882	0.446274	-0.000094
C85	C	-0.266168	0.239464	0.000006
C86	C	-0.294236	0.229816	-0.163570
C87	C	-0.337109	0.374442	-0.163893
H88	H	-0.247916	0.327280	-0.000081
H89	H	-0.294470	0.256282	0.110831
H90	H	-0.265939	0.213016	-0.274366
H91	H	-0.312500	0.142029	-0.163518
H92	H	-0.365411	0.391260	-0.053068
H93	H	-0.318853	0.462247	-0.163974
H94	H	-0.356163	0.367909	-0.274867
H95	H	-0.606226	-0.352683	0.466041
H96	H	-0.072828	-0.616564	0.000230
C97	C	-0.402011	0.088744	0.000494
C98	C	-0.375483	0.115406	0.164082
C99	C	-0.358907	0.262107	0.164437
H100	H	-0.435958	0.174819	0.000585
H101	H	-0.374803	0.084082	-0.110322
H102	H	-0.402689	0.120080	0.274869
H103	H	-0.341529	0.029368	0.164026
H104	H	-0.331699	0.257445	0.053621
H105	H	-0.392857	0.348170	0.164523
H106	H	-0.340901	0.280209	0.275420
H107	H	0.079268	-0.465235	0.000239
H108	H	0.186881	-0.461595	0.000249
H109	H	-0.146895	0.203955	0.000308
H110	H	0.139128	0.067355	0.000236
H111	H	-0.594598	0.237777	0.000196
