data_functionalizedCrystal
_audit_creation_method	'MofGen! by Chris Wilmer'
_symmetry_space_group_name_H-M	'P1'
_symmetry_Int_Tables_number	1
_symmetry_cell_setting	triclinic
loop_
_symmetry_equiv_pos_as_xyz
  x,y,z
_cell_length_a	16.109301
_cell_length_b	14.048226
_cell_length_c	14.971494
_cell_angle_alpha	90.000963
_cell_angle_beta	83.539519
_cell_angle_gamma	90.001973
loop_
_atom_site_label
_atom_site_type_symbol
_atom_site_fract_x
_atom_site_fract_y
_atom_site_fract_z
O1	O	1.103279	0.079097	0.114968
O2	O	1.436612	0.412430	0.448302
O3	O	1.769946	0.745763	0.781635
O4	O	0.861235	0.079111	0.129276
O5	O	1.194568	0.412445	0.462609
O6	O	1.527902	0.745778	0.795943
O7	O	0.988741	0.079102	-0.008087
O8	O	1.322074	0.412435	0.325247
O9	O	1.655407	0.745768	0.658580
O10	O	0.975773	0.079107	0.252331
O11	O	1.309107	0.412440	0.585664
O12	O	1.642440	0.745773	0.918998
O13	O	0.988729	-0.079220	-0.008086
O14	O	1.322062	0.254114	0.325248
O15	O	1.655395	0.587447	0.658581
O16	O	0.861223	-0.079210	0.129277
O17	O	1.194556	0.254123	0.462611
O18	O	1.527890	0.587457	0.795944
O19	O	1.103267	-0.079225	0.114969
O20	O	1.436600	0.254109	0.448303
O21	O	1.769933	0.587442	0.781636
Zn22	Zn	0.982243	-0.104354	0.122124
Zn23	Zn	1.315576	0.228979	0.455457
Zn24	Zn	1.648910	0.562313	0.788790
Zn25	Zn	0.982259	0.104241	0.122122
Zn26	Zn	1.315592	0.437574	0.455455
Zn27	Zn	1.648926	0.770908	0.788789
O28	O	0.975761	-0.079215	0.252332
O29	O	1.309095	0.254119	0.585666
O30	O	1.642428	0.587452	0.918999
C31	C	0.830253	-0.000047	0.128697
C32	C	1.163587	0.333286	0.462030
C33	C	1.496920	0.666619	0.795364
C34	C	0.737956	-0.000042	0.126960
C35	C	1.071289	0.333292	0.460293
C36	C	1.404623	0.666625	0.793626
N37	N	0.982238	-0.246715	0.122124
N38	N	1.315572	0.086618	0.455458
N39	N	1.648905	0.419952	0.788791
C40	C	0.988154	-0.000058	-0.041410
C41	C	1.321487	0.333276	0.291923
C42	C	1.654820	0.666609	0.625257
C43	C	0.986412	-0.000053	-0.140704
C44	C	1.319745	0.333280	0.192629
C45	C	1.653079	0.666614	0.525963
C46	C	0.515782	-0.000051	0.204428
C47	C	0.849116	0.333282	0.537761
C48	C	1.182449	0.666615	0.871094
C49	C	0.429060	-0.000057	0.202788
C50	C	0.762393	0.333276	0.536121
C51	C	1.095726	0.666609	0.869455
C52	C	0.448726	-0.000057	0.039812
C53	C	0.782060	0.333277	0.373145
C54	C	1.115393	0.666610	0.706478
C55	C	0.535447	-0.000057	0.041452
C56	C	0.868781	0.333276	0.374786
C57	C	1.202114	0.666610	0.708119
C58	C	0.568973	-0.000050	0.123763
C59	C	0.902306	0.333284	0.457096
C60	C	1.235639	0.666617	0.790430
C61	C	0.395529	-0.000055	0.120483
C62	C	0.728863	0.333278	0.453816
C63	C	1.062196	0.666612	0.787149
C64	C	0.301501	-0.000062	0.118704
C65	C	0.634834	0.333272	0.452038
C66	C	0.968168	0.666605	0.785371
C67	C	0.663007	-0.000045	0.125542
C68	C	0.996340	0.333289	0.458875
C69	C	1.329674	0.666622	0.792208
C70	C	1.134248	-0.000064	0.115548
C71	C	1.467582	0.333270	0.448882
C72	C	1.800915	0.666603	0.782215
C73	C	1.226546	-0.000063	0.117286
C74	C	1.559879	0.333270	0.450619
C75	C	1.893213	0.666604	0.783953
C76	C	0.931794	-0.703580	0.067847
C77	C	1.265128	-0.370247	0.401180
C78	C	1.598461	-0.036913	0.734514
C79	C	0.931791	-0.603922	0.067844
C80	C	1.265124	-0.270589	0.401177
C81	C	1.598458	0.062744	0.734511
C82	C	0.982260	-0.554085	0.122114
C83	C	1.315593	-0.220751	0.455448
C84	C	1.648927	0.112582	0.788781
C85	C	1.032742	-0.603910	0.176384
C86	C	1.366075	-0.270577	0.509717
C87	C	1.699409	0.062757	0.843051
C88	C	1.032749	-0.703566	0.176381
C89	C	1.366082	-0.370233	0.509715
C90	C	1.699416	-0.036899	0.843048
C91	C	1.032722	-0.396196	0.176387
C92	C	1.366056	-0.062862	0.509721
C93	C	1.699389	0.270471	0.843054
C94	C	1.032714	-0.296533	0.176392
C95	C	1.366048	0.036800	0.509725
C96	C	1.699381	0.370134	0.843058
C97	C	0.931764	-0.296552	0.067850
C98	C	1.265098	0.036781	0.401184
C99	C	1.598431	0.370114	0.734517
C100	C	0.931771	-0.396208	0.067848
C101	C	1.265105	-0.062875	0.401181
C102	C	1.598438	0.270458	0.734514
C103	C	0.982252	-0.446027	0.122119
C104	C	1.315586	-0.112693	0.455452
C105	C	1.648919	0.220640	0.788785
N106	N	0.982270	0.246602	0.122114
N107	N	1.315604	0.579935	0.455448
N108	N	1.648937	0.913268	0.788781
C109	C	0.985602	0.086249	-0.187348
C110	C	1.318936	0.419582	0.145985
C111	C	1.652269	0.752916	0.479318
C112	C	0.983960	0.086250	-0.280645
C113	C	1.317294	0.419584	0.052688
C114	C	1.650627	0.752917	0.386022
C115	C	0.983134	-0.000052	-0.327297
C116	C	1.316468	0.333282	0.006037
C117	C	1.649801	0.666615	0.339370
C118	C	0.983942	-0.086360	-0.280645
C119	C	1.317275	0.246973	0.052688
C120	C	1.650608	0.580306	0.386021
C121	C	0.985577	-0.086361	-0.187350
C122	C	1.318911	0.246973	0.145984
C123	C	1.652244	0.580306	0.479317
C124	C	0.980534	-0.086354	-0.475104
C125	C	1.313867	0.246980	-0.141770
C126	C	1.647201	0.580313	0.191563
C127	C	0.978900	-0.086354	-0.568406
C128	C	1.312233	0.246979	-0.235073
C129	C	1.645566	0.580313	0.098261
C130	C	0.978917	0.086257	-0.568399
C131	C	1.312250	0.419590	-0.235066
C132	C	1.645584	0.752924	0.098268
C133	C	0.980553	0.086257	-0.475103
C134	C	1.313886	0.419590	-0.141770
C135	C	1.647220	0.752924	0.191563
C136	C	0.981362	-0.000052	-0.428459
C137	C	1.314695	0.333281	-0.095125
C138	C	1.648028	0.666614	0.238208
C139	C	0.976348	-0.000053	0.285655
C140	C	1.309682	0.333280	0.618989
C141	C	1.643015	0.666613	0.952322
C142	C	0.978090	-0.000052	0.384950
C143	C	1.311423	0.333282	0.718283
C144	C	1.644757	0.666615	1.051616
H145	H	0.543075	-0.000052	0.271450
H146	H	0.876409	0.333281	0.604784
H147	H	1.209742	0.666614	0.938117
Br148	Br	1.101262	-0.771178	0.250026
Br149	Br	1.434595	-0.437844	0.583359
Br150	Br	1.767928	-0.104511	0.916692
H151	H	0.978220	-0.156628	-0.606386
H152	H	1.311553	0.176705	-0.273053
H153	H	1.644887	0.510038	0.060280
Br154	Br	0.403222	-0.000063	-0.071890
Br155	Br	0.736555	0.333270	0.261443
Br156	Br	1.069889	0.666604	0.594777
Br157	Br	0.863251	-0.228944	-0.005800
Br158	Br	1.196584	0.104390	0.327534
Br159	Br	1.529918	0.437723	0.660867
Br160	Br	0.356875	-0.000064	0.312267
Br161	Br	0.690208	0.333269	0.645600
Br162	Br	1.023542	0.666603	0.978933
H163	H	0.981174	-0.156636	-0.437126
H164	H	1.314508	0.176698	-0.103793
H165	H	1.647841	0.510031	0.229541
H166	H	0.983305	0.156526	-0.318619
H167	H	1.316638	0.489859	0.014714
H168	H	1.649971	0.823193	0.348048
H169	H	0.986279	0.156526	-0.149372
H170	H	1.319613	0.489860	0.183961
H171	H	1.652946	0.823193	0.517295
Br172	Br	0.863258	-0.536315	-0.005779
Br173	Br	1.196591	-0.202982	0.327555
Br174	Br	1.529924	0.130351	0.660888
Br175	Br	0.607641	-0.000067	-0.068030
Br176	Br	0.940974	0.333266	0.265304
Br177	Br	1.274308	0.666599	0.598637
Br178	Br	0.981685	0.203382	-0.411792
Br179	Br	1.315018	0.536715	-0.078458
Br180	Br	1.648352	0.870049	0.254875
Br181	Br	0.977815	0.203391	-0.631700
Br182	Br	1.311149	0.536725	-0.298367
Br183	Br	1.644482	0.870058	0.034967
H184	H	0.890692	-0.744151	0.023659
H185	H	1.224025	-0.410817	0.356992
H186	H	1.557359	-0.077484	0.690325
H187	H	1.073808	-0.255958	0.220586
H188	H	1.407141	0.077375	0.553919
H189	H	1.740475	0.410709	0.887253
Br190	Br	0.986672	-0.203489	-0.124045
Br191	Br	1.320005	0.129844	0.209289
Br192	Br	1.653338	0.463177	0.542622
H193	H	0.983264	-0.156629	-0.318636
H194	H	1.316597	0.176705	0.014697
H195	H	1.649931	0.510038	0.348031
H196	H	1.073831	-0.436755	0.220579
H197	H	1.407165	-0.103421	0.553912
H198	H	1.740498	0.229912	0.887245
Br199	Br	0.863267	-0.463845	-0.005795
Br200	Br	1.196601	-0.130512	0.327538
Br201	Br	1.529934	0.202821	0.660872
H202	H	1.073839	-0.563324	0.220567
H203	H	1.407172	-0.229991	0.553901
H204	H	1.740505	0.103342	0.887234
