data_functionalizedCrystal
_audit_creation_method	'MofGen! by Chris Wilmer'
_symmetry_space_group_name_H-M	'P1'
_symmetry_Int_Tables_number	1
_symmetry_cell_setting	triclinic
loop_
_symmetry_equiv_pos_as_xyz
  x,y,z
_cell_length_a	6.817900
_cell_length_b	10.992421
_cell_length_c	11.102228
_cell_angle_alpha	91.887512
_cell_angle_beta	71.395435
_cell_angle_gamma	71.235237
loop_
_atom_site_label
_atom_site_type_symbol
_atom_site_fract_x
_atom_site_fract_y
_atom_site_fract_z
V1	V	4.112346	-0.177763	-0.396239
O2	O	4.070510	0.008539	-0.388714
O3	O	4.089938	-0.352472	-0.393511
O4	O	4.089108	-0.175030	-0.569060
O5	O	4.071345	-0.170131	-0.211950
V6	V	4.589345	-0.155479	-0.374198
O7	O	4.387914	-0.226645	-0.444586
O8	O	4.763974	-0.106597	-0.325851
O9	O	4.388547	0.019230	-0.376926
O10	O	4.748578	-0.341782	-0.381723
O11	O	4.747743	-0.163112	-0.558487
O12	O	4.389376	-0.158212	-0.201377
C13	C	3.940447	-0.395062	-0.387256
C14	C	4.003581	-0.537889	-0.386178
C15	C	3.871286	-0.733176	-0.377487
C16	C	3.805202	-0.584532	-0.378104
C17	C	4.074759	-0.576524	-0.267659
C18	C	4.139000	-0.725067	-0.266404
C19	C	4.269340	-0.763650	-0.509361
C20	C	4.200273	-0.615137	-0.511932
C21	C	3.939388	-0.168716	-0.611184
C22	C	4.001844	-0.167637	-0.752467
C23	C	4.201380	0.061813	-0.383178
C24	C	4.117486	0.204639	-0.384264
C25	C	4.091899	-0.284787	-0.836979
C26	C	4.150595	-0.283771	-0.969729
C27	C	4.029162	-0.048444	-0.933439
C28	C	3.970482	-0.049462	-0.800693
C29	C	4.202438	-0.164531	-0.159246
C30	C	4.119220	-0.165603	-0.017963
H31	H	4.349991	-0.584930	-0.525169
H32	H	4.220384	-0.546288	-0.269026
H33	H	4.117441	-0.381013	-0.797719
C34	C	4.377045	-0.780300	-0.266138
N35	N	4.556329	-0.821893	-0.265926
H36	H	4.223924	-0.379167	-1.038535
H37	H	4.150852	-0.591241	-0.599618
C38	C	3.727432	-0.549720	-0.492495
N39	N	3.668835	-0.523504	-0.578651
H40	H	3.755927	-0.753735	-0.287271
C41	C	3.604925	-0.513678	-0.256124
N42	N	3.454073	-0.460311	-0.164241
C43	C	4.512266	-0.819194	-0.517752
N44	N	4.695230	-0.861038	-0.524064
H45	H	4.003632	0.047770	-0.972722
H46	H	3.897154	0.045941	-0.731878
H47	H	4.028651	-0.742581	-0.172302
C48	C	3.885430	-0.503259	-0.141883
N49	N	3.742816	-0.448080	-0.047150
H50	H	3.845060	-0.779597	-0.461648
H51	H	4.262571	-0.813168	-0.599041
