data_functionalizedCrystal
_audit_creation_method	'MofGen! by Chris Wilmer'
_symmetry_space_group_name_H-M	'P1'
_symmetry_Int_Tables_number	1
_symmetry_cell_setting	triclinic
loop_
_symmetry_equiv_pos_as_xyz
  x,y,z
_cell_length_a	13.262402
_cell_length_b	19.188924
_cell_length_c	12.376457
_cell_angle_alpha	101.235232
_cell_angle_beta	94.181204
_cell_angle_gamma	83.816596
loop_
_atom_site_label
_atom_site_type_symbol
_atom_site_fract_x
_atom_site_fract_y
_atom_site_fract_z
O1	O	1.324903	0.138477	0.313367
O2	O	1.038212	0.136203	0.225213
O3	O	1.189832	0.036090	0.271848
O4	O	1.173284	0.238590	0.266733
O5	O	1.151941	0.061082	0.448205
O6	O	1.000321	0.161196	0.401571
O7	O	1.287012	0.163469	0.489725
Zn8	Zn	1.137650	0.166300	0.473648
Zn9	Zn	1.187574	0.133372	0.241289
O10	O	1.135392	0.263582	0.443090
C11	C	0.982588	0.146527	0.302114
C12	C	0.873298	0.140047	0.268510
C13	C	0.842608	0.123377	0.156586
C14	C	0.739924	0.117296	0.125015
C15	C	0.667920	0.127877	0.205363
C16	C	0.698610	0.144542	0.317289
C17	C	0.801304	0.150630	0.348863
C18	C	0.626616	0.155129	0.397640
C19	C	0.657306	0.171794	0.509566
C20	C	0.759991	0.177880	0.541135
C21	C	0.831994	0.167299	0.460787
C22	C	0.523922	0.149041	0.366065
C23	C	0.482618	0.176293	0.558342
C24	C	0.585303	0.182375	0.589914
C25	C	1.170351	0.022549	0.359863
C26	C	1.168745	-0.055034	0.359372
C27	C	1.188650	-0.105093	0.263009
C28	C	1.187129	-0.177991	0.262532
C29	C	1.165721	-0.200828	0.358431
C30	C	1.145808	-0.150758	0.454805
C31	C	1.147320	-0.077861	0.455276
N32	N	1.204000	-0.307730	0.446476
N33	N	1.202568	-0.376980	0.446023
C34	C	1.161163	-0.420461	0.357019
N35	N	1.121261	-0.392079	0.268472
N36	N	1.122699	-0.322823	0.268923
C37	C	1.164079	-0.279870	0.357931
C38	C	1.179419	-0.549565	0.260132
C39	C	1.177891	-0.622464	0.259658
C40	C	1.136579	-0.595230	0.451936
C41	C	1.138098	-0.522332	0.452405
C42	C	1.159523	-0.499505	0.356501
C43	C	1.342636	0.153145	0.412821
C44	C	1.451928	0.159624	0.446419
C45	C	1.154874	0.277123	0.355073
C46	C	1.156481	0.354704	0.355557
N47	N	1.103586	0.188773	0.632229
N48	N	1.221646	0.110894	0.082711
C49	C	1.300720	0.058714	1.047848
C50	C	1.324556	0.042984	0.936839
C51	C	1.269315	0.079430	0.860682
C52	C	1.190235	0.131608	0.895543
C53	C	1.166402	0.147342	1.006564
C54	C	1.134997	0.168059	0.819397
C55	C	1.055917	0.220237	0.854259
C56	C	1.032087	0.235968	0.965269
C57	C	1.087328	0.199523	1.041427
C58	C	1.158830	0.152324	0.708377
C59	C	1.024512	0.240953	0.667093
C60	C	1.000676	0.256682	0.778101
H61	H	0.714943	0.103728	0.033885
Br62	Br	1.431876	-0.027822	0.889528
Br63	Br	0.949544	0.290423	0.563745
H64	H	1.196859	-0.530978	0.182039
Br65	Br	1.375694	0.009265	1.151205
Br66	Br	1.120298	-0.009918	0.586063
Br67	Br	0.626967	0.204992	0.741809
H68	H	1.121897	-0.481573	0.530877
Br69	Br	0.801637	0.200514	0.693033
Br70	Br	1.054969	0.220866	1.192086
H71	H	1.194096	-0.663223	0.181182
Br72	Br	0.940327	0.109024	0.047556
H73	H	1.288726	0.066621	0.770294
H74	H	1.223218	0.109841	0.680003
H75	H	0.967703	0.278460	0.993654
Br76	Br	0.528560	0.119622	0.162514
H77	H	1.128375	-0.169356	0.532886
Br78	Br	0.971360	0.175550	0.503631
Br79	Br	0.384905	0.190662	0.667394
Br80	Br	0.893354	0.327492	0.825424
Br81	Br	1.217722	-0.074116	0.132853
Br82	Br	1.214141	-0.245940	0.131743
H83	H	0.498944	0.135474	0.274935
Br84	Br	1.107515	-0.626213	0.582084
