data_functionalizedCrystal
_audit_creation_method	'MofGen! by Chris Wilmer'
_symmetry_space_group_name_H-M	'P1'
_symmetry_Int_Tables_number	1
_symmetry_cell_setting	triclinic
loop_
_symmetry_equiv_pos_as_xyz
  x,y,z
_cell_length_a	19.188930
_cell_length_b	19.188924
_cell_length_c	14.185292
_cell_angle_alpha	103.112153
_cell_angle_beta	76.899887
_cell_angle_gamma	83.143372
loop_
_atom_site_label
_atom_site_type_symbol
_atom_site_fract_x
_atom_site_fract_y
_atom_site_fract_z
O1	O	0.910189	0.103110	0.083744
O2	O	0.706891	0.114831	0.083676
O3	O	0.814411	0.007313	0.083701
O4	O	0.802668	0.210628	0.083720
O5	O	0.846185	-0.024450	-0.083135
O6	O	0.738664	0.083068	-0.083159
O7	O	0.941962	0.071347	-0.083091
Cu8	Cu	0.843214	0.074308	-0.098358
Cu9	Cu	0.805639	0.111871	0.098944
O10	O	0.834441	0.178866	-0.083115
C11	C	0.696768	0.098568	0.000250
C12	C	0.619268	0.097422	0.000223
C13	C	0.829919	-0.034580	0.000282
C14	C	0.828781	-0.112085	0.000279
C15	C	0.810930	-0.131170	0.091221
C16	C	0.809848	-0.203992	0.091228
C17	C	0.826633	-0.257728	0.000288
C18	C	0.844483	-0.238636	-0.090666
C19	C	0.845556	-0.165815	-0.090670
N20	N	0.877569	-0.390275	-0.067383
N21	N	0.876549	-0.459451	-0.067373
C22	C	0.823397	-0.477136	0.000297
N23	N	0.771310	-0.423029	0.067970
N24	N	0.772332	-0.353846	0.067963
C25	C	0.825470	-0.336693	0.000283
C26	C	0.804372	-0.575181	0.091253
C27	C	0.803287	-0.648003	0.091256
C28	C	0.837929	-0.682648	-0.090640
C29	C	0.839006	-0.609825	-0.090641
C30	C	0.822230	-0.556096	0.000308
C31	C	0.574339	0.160518	0.000245
C32	C	0.501513	0.159448	0.000256
C33	C	0.473616	0.095283	0.000265
C34	C	0.518557	0.032179	0.000238
C35	C	0.591383	0.033248	0.000217
N36	N	0.354817	0.057053	0.057082
N37	N	0.285634	0.056042	0.057104
C38	C	0.254196	0.092057	0.000326
N39	N	0.294551	0.129134	-0.056462
N40	N	0.363739	0.130148	-0.056479
C41	C	0.394649	0.094117	0.000288
C42	C	0.130300	0.153996	0.000359
C43	C	0.057474	0.152923	0.000363
C44	C	0.074518	0.025654	0.000355
C45	C	0.147344	0.026727	0.000340
C46	C	0.175229	0.090901	0.000347
C47	C	0.952085	0.087611	0.000338
C48	C	1.029583	0.088758	0.000371
C49	C	0.818934	0.220759	0.000306
C50	C	0.820071	0.298265	0.000316
N51	N	0.869648	0.047887	-0.237130
C52	C	0.947284	-0.029692	-0.394638
C53	C	0.927263	-0.009691	-0.289616
C54	C	0.832028	0.085484	-0.289653
C55	C	0.852038	0.065488	-0.394677
C56	C	0.909667	0.007900	-0.447161
C57	C	0.814422	0.103081	-0.447201
C58	C	0.834433	0.083089	-0.552216
C59	C	0.892061	0.025504	-0.604707
C60	C	0.929679	-0.012092	-0.552176
C61	C	0.756796	0.160672	-0.394715
C62	C	0.719180	0.198264	-0.447238
C63	C	0.739188	0.178269	-0.552255
C64	C	0.796816	0.120685	-0.604746
C65	C	0.701570	0.215865	-0.604786
C66	C	0.721582	0.195873	-0.709801
C67	C	0.816827	0.100693	-0.709761
N68	N	0.779211	0.138285	0.237715
H69	H	0.797268	-0.087427	0.165279
H70	H	0.740508	0.176949	-0.309205
C71	C	0.043836	-0.044928	0.000364
N72	N	0.020723	-0.098093	0.000369
H73	H	0.153008	0.206248	0.000349
C74	C	0.655787	0.261608	-0.389494
N75	N	0.608037	0.309318	-0.346002
C76	C	0.785908	-0.516074	0.191298
N77	N	0.771999	-0.471557	0.266653
C78	C	0.768635	0.148828	-0.231909
N79	N	0.720885	0.196538	-0.188417
C80	C	0.790206	-0.224991	0.191275
N81	N	0.775410	-0.240805	0.266631
C82	C	0.862944	-0.297747	-0.190700
N83	N	0.876848	-0.342270	-0.266049
H84	H	0.464925	0.210829	0.000271
H85	H	0.994206	-0.076591	-0.437373
C86	C	0.865199	-0.144823	-0.190718
N87	N	0.879996	-0.129011	-0.266076
C88	C	0.638183	0.279214	-0.547039
N89	N	0.590438	0.326928	-0.503544
C90	C	0.605012	0.231107	0.000232
N91	N	0.628118	0.284275	0.000216
H92	H	0.788746	-0.663538	0.165315
H93	H	0.690951	0.226486	-0.752566
H94	H	0.627965	-0.018133	0.000200
H95	H	0.851590	-0.726399	-0.164685
H96	H	0.495836	-0.020062	0.000259
H97	H	0.020894	0.204304	0.000375
H98	H	0.863750	0.053794	-0.752496
C99	C	0.196766	-0.042681	0.000328
N100	N	0.233992	-0.094963	0.000317
C101	C	0.858651	-0.588832	-0.190686
N102	N	0.873448	-0.573022	-0.266044
H103	H	0.908356	0.009230	-0.690217
C104	C	0.968647	-0.051052	-0.231844
N105	N	0.999818	-0.082205	-0.188330
C106	C	0.993077	-0.075439	-0.609915
N107	N	1.040830	-0.123146	-0.653403
