data_functionalizedCrystal
_audit_creation_method	'MofGen! by Chris Wilmer'
_symmetry_space_group_name_H-M	'P1'
_symmetry_Int_Tables_number	1
_symmetry_cell_setting	triclinic
loop_
_symmetry_equiv_pos_as_xyz
  x,y,z
_cell_length_a	10.654546
_cell_length_b	14.044220
_cell_length_c	9.730223
_cell_angle_alpha	90.002743
_cell_angle_beta	90.004902
_cell_angle_gamma	91.163799
loop_
_atom_site_label
_atom_site_type_symbol
_atom_site_fract_x
_atom_site_fract_y
_atom_site_fract_z
O1	O	-0.302978	1.259694	0.114258
O2	O	-0.292045	0.983653	0.114263
O3	O	-0.115410	1.128022	0.114269
O4	O	-0.479613	1.115325	0.114253
O5	O	-0.115419	1.128013	-0.114311
O6	O	-0.292054	0.983644	-0.114317
O7	O	-0.302988	1.259685	-0.114322
Zn8	Zn	-0.297523	1.121663	-0.150611
Zn9	Zn	-0.297510	1.121675	0.150553
O10	O	-0.479623	1.115316	-0.114327
C11	C	-0.068523	1.127086	-0.000016
C12	C	0.071201	1.124299	-0.000001
C13	C	-0.287264	0.948303	-0.000026
C14	C	-0.272988	0.842983	-0.000024
C15	C	0.142145	1.209300	-0.000002
C16	C	0.273429	1.206676	0.000017
C17	C	0.262814	1.034040	0.000031
C18	C	0.131532	1.036666	0.000022
C19	C	0.081813	1.296933	-0.000025
C20	C	0.152758	1.381942	-0.000027
C21	C	0.284043	1.379317	-0.000008
C22	C	0.344383	1.291684	0.000013
C23	C	-0.307769	1.295035	-0.000029
C24	C	-0.322044	1.400355	-0.000023
C25	C	0.473491	1.116254	-0.000021
C26	C	0.333768	1.119048	0.000027
C27	C	-0.348143	1.593187	-0.000025
C28	C	-0.246895	1.650156	-0.000021
C29	C	-0.261417	1.757455	-0.000023
C30	C	-0.333623	1.485879	-0.000024
N31	N	-0.297531	1.121661	-0.356148
C32	C	-0.380237	1.179689	-0.428091
C33	C	-0.380215	1.179703	-0.571974
C34	C	-0.214777	1.063654	-0.571957
C35	C	-0.214794	1.063645	-0.428077
C36	C	-0.462975	1.237705	-0.356162
C37	C	-0.545688	1.295736	-0.428106
C38	C	-0.545666	1.295751	-0.571989
C39	C	-0.462930	1.237733	-0.643928
N40	N	-0.297492	1.121684	0.356089
H41	H	-0.025085	1.299080	-0.000045
C42	C	-0.479971	1.636162	-0.000021
N43	N	-0.579263	1.668541	-0.000012
H44	H	0.103620	1.453290	-0.000009
C45	C	-0.462906	1.237756	-0.802205
N46	N	-0.462892	1.237771	-0.921417
C47	C	0.362078	1.472827	-0.000010
N48	N	0.420852	1.543263	-0.000022
C49	C	-0.123785	0.999831	-0.651096
N50	N	-0.055253	0.951754	-0.710703
C51	C	-0.123816	0.999809	-0.348934
N52	N	-0.055288	0.951727	-0.289324
H53	H	-0.463005	1.237697	-0.239005
C54	C	0.488801	1.288802	0.000042
N55	N	0.597576	1.286633	0.000057
H56	H	-0.149308	1.618344	0.000083
H57	H	0.311954	0.962693	0.000046
H58	H	0.073767	0.967450	0.000020
H59	H	-0.613042	1.342977	-0.369524
H60	H	-0.613007	1.343009	-0.630562
