data_functionalizedCrystal
_audit_creation_method	'MofGen! by Chris Wilmer'
_symmetry_space_group_name_H-M	'P1'
_symmetry_Int_Tables_number	1
_symmetry_cell_setting	triclinic
loop_
_symmetry_equiv_pos_as_xyz
  x,y,z
_cell_length_a	23.532361
_cell_length_b	23.532407
_cell_length_c	14.586319
_cell_angle_alpha	89.991566
_cell_angle_beta	90.000779
_cell_angle_gamma	82.839173
loop_
_atom_site_label
_atom_site_type_symbol
_atom_site_fract_x
_atom_site_fract_y
_atom_site_fract_z
O1	O	0.755276	0.069008	-0.076158
O2	O	0.589409	0.079039	-0.076181
O3	O	0.677344	-0.008909	-0.076152
O4	O	0.667341	0.156956	-0.076187
O5	O	0.677338	-0.008910	0.076329
O6	O	0.589403	0.079038	0.076300
O7	O	0.755270	0.069007	0.076323
Cu8	Cu	0.672336	0.074022	0.090234
Cu9	Cu	0.672343	0.074023	-0.090092
O10	O	0.667335	0.156955	0.076294
C11	C	0.568189	0.078787	0.000057
C12	C	0.504971	0.078032	0.000049
C13	C	0.231730	0.074729	-0.083063
C14	C	0.291130	0.075444	-0.083065
O15	O	0.321859	0.075794	-0.153751
N16	N	0.320832	0.075804	0.000053
C17	C	0.291133	0.075444	0.083178
O18	O	0.321851	0.075816	0.153876
C19	C	0.231735	0.074725	0.083179
C20	C	0.202035	0.074370	0.000056
C21	C	0.202030	0.074374	-0.166179
C22	C	0.142635	0.073660	-0.166176
C23	C	0.112939	0.073301	-0.083057
C24	C	0.142639	0.073657	0.000059
C25	C	0.202037	0.074361	0.166304
C26	C	0.142635	0.073641	0.166298
C27	C	0.112934	0.073286	0.083175
C28	C	0.053547	0.072584	0.083181
N29	N	0.023845	0.072224	0.000063
C30	C	0.053541	0.072582	-0.083056
C31	C	0.415873	0.076953	0.083169
C32	C	0.475269	0.077676	0.083168
C33	C	0.475263	0.077675	-0.083075
C34	C	0.415865	0.076956	-0.083074
C35	C	0.386171	0.076593	0.000051
C36	C	-0.071195	0.071084	-0.083044
C37	C	-0.130596	0.070372	-0.083033
C38	C	-0.130584	0.070371	0.083209
C39	C	-0.071188	0.071085	0.083200
C40	C	-0.041495	0.071440	0.000066
O41	O	0.022781	0.072231	0.153831
O42	O	0.022816	0.072203	-0.153741
C43	C	0.677086	-0.030126	0.000091
C44	C	0.676320	-0.093343	0.000098
C45	C	0.723555	-0.492454	0.000054
C46	C	0.722844	-0.551854	0.000047
O47	O	0.766630	-0.588606	0.000019
N48	N	0.670566	-0.574471	0.000041
C49	C	0.618997	-0.537685	0.000032
O50	O	0.574465	-0.562377	0.000024
C51	C	0.619709	-0.478286	0.000032
C52	C	0.671990	-0.455672	0.000048
C53	C	0.775832	-0.469839	0.000069
C54	C	0.776543	-0.410443	0.000078
C55	C	0.724977	-0.373662	0.000072
C56	C	0.672701	-0.396276	0.000057
C57	C	0.568140	-0.441501	0.000017
C58	C	0.568857	-0.382099	0.000016
C59	C	0.621137	-0.359485	0.000032
C60	C	0.621847	-0.300099	0.000059
N61	N	0.674124	-0.277481	0.000066
C62	C	0.725690	-0.314263	0.000072
C63	C	0.617505	-0.662427	0.000029
C64	C	0.616793	-0.721825	0.000035
C65	C	0.720640	-0.735990	0.000049
C66	C	0.721352	-0.676591	0.000049
C67	C	0.669783	-0.639810	0.000036
C68	C	0.727179	-0.189526	0.000091
C69	C	0.727886	-0.130124	0.000104
C70	C	0.624039	-0.115965	0.000085
C71	C	0.623332	-0.175361	0.000078
C72	C	0.674907	-0.212141	0.000078
O73	O	0.578083	-0.263312	0.000083
O74	O	0.770214	-0.289562	0.000067
C75	C	0.776489	0.069258	0.000083
C76	C	0.839708	0.070014	0.000086
C77	C	0.667592	0.178171	0.000049
C78	C	0.668358	0.241388	0.000036
N79	N	0.672335	0.074020	0.217066
N80	N	0.672348	0.074020	-0.216924
C81	C	0.711285	0.035090	0.452085
C82	C	0.711287	0.035089	0.548067
C83	C	0.633394	0.112953	0.548050
C84	C	0.633390	0.112951	0.452071
C85	C	0.672339	0.074020	0.404091
C86	C	0.672344	0.074021	0.596051
C87	C	0.672346	0.074019	0.700119
C88	C	0.672337	0.074021	0.300017
H89	H	0.226203	0.074664	-0.233868
C90	C	0.234694	0.074752	0.257741
H91	H	0.208494	0.074430	0.307235
H92	H	0.253330	0.108247	0.261198
H93	H	0.262399	0.041812	0.261209
H94	H	-0.154776	0.070085	-0.150725
C95	C	0.785396	-0.105250	0.000122
H96	H	0.778438	-0.064606	0.000136
H97	H	0.806617	-0.117888	-0.053047
H98	H	0.806607	-0.117904	0.053306
C99	C	0.590552	0.155779	0.399269
H100	H	0.596126	0.150198	0.335236
H101	H	0.596523	0.193756	0.414986
H102	H	0.552576	0.149794	0.414999
C103	C	0.754130	-0.007732	0.600857
H104	H	0.777327	-0.030914	0.558532
H105	H	0.733782	-0.031334	0.638307
H106	H	0.777723	0.012635	0.638290
H107	H	0.391687	0.076667	-0.150760
C108	C	0.590559	0.155778	0.600831
H109	H	0.596142	0.150208	0.664867
H110	H	0.552584	0.149796	0.585109
H111	H	0.596533	0.193756	0.585087
H112	H	0.526862	-0.352154	0.000004
C113	C	0.507934	0.078065	-0.174508
H114	H	0.481741	0.077753	-0.224016
H115	H	0.535640	0.045129	-0.177950
H116	H	0.526570	0.111564	-0.177968
C117	C	0.832559	-0.510291	0.000083
H118	H	0.863790	-0.488306	0.000099
H119	H	0.834452	-0.533756	-0.053086
H120	H	0.834438	-0.533758	0.053268
H121	H	0.580761	-0.193774	0.000090
H122	H	-0.047026	0.071373	-0.150739
H123	H	0.499445	0.077974	0.150855
H124	H	0.391699	0.076665	0.150863
C125	C	0.510632	-0.466366	-0.000012
H126	H	0.517584	-0.507010	-0.000009
H127	H	0.489424	-0.453709	-0.053193
H128	H	0.489409	-0.453724	0.053161
H129	H	0.118460	0.073350	0.233990
C130	C	0.754122	-0.007737	0.399310
H131	H	0.777313	-0.030926	0.441644
H132	H	0.777713	0.012622	0.361859
H133	H	0.733763	-0.031338	0.361880
C134	C	0.567322	-0.075498	0.000073
H135	H	0.575238	-0.036885	0.000069
H136	H	0.545862	-0.082323	0.053238
H137	H	0.545878	-0.082315	-0.053116
H138	H	0.763923	-0.658183	0.000062
C139	C	0.109974	0.073255	-0.257612
H140	H	0.136175	0.073563	-0.307108
H141	H	0.082264	0.106187	-0.261094
H142	H	0.091344	0.039752	-0.261053
C143	C	-0.038514	0.071457	0.174632
H144	H	-0.064709	0.071133	0.224134
H145	H	-0.019863	0.104942	0.178105
H146	H	-0.010821	0.038506	0.178070
H147	H	-0.154773	0.070081	0.150883
C148	C	0.783910	-0.229976	0.000099
H149	H	0.815142	-0.207993	0.000118
H150	H	0.785801	-0.253437	-0.053074
H151	H	0.785789	-0.253446	0.053279
C152	C	0.834052	-0.385575	0.000078
H153	H	0.864656	-0.415995	0.000070
H154	H	0.836496	-0.362703	0.053249
H155	H	0.836489	-0.362696	-0.053104
C156	C	0.777363	-0.776455	0.000049
H157	H	0.808603	-0.754483	0.000061
H158	H	0.779242	-0.799915	-0.053126
H159	H	0.779239	-0.799926	0.053228
C160	C	0.559284	-0.746694	0.000025
H161	H	0.528678	-0.716276	0.000016
H162	H	0.556841	-0.769579	0.053193
H163	H	0.556849	-0.769561	-0.053161
H164	H	0.575509	-0.632483	0.000026
