data_functionalizedCrystal
_audit_creation_method	'MofGen! by Chris Wilmer'
_symmetry_space_group_name_H-M	'P1'
_symmetry_Int_Tables_number	1
_symmetry_cell_setting	triclinic
loop_
_symmetry_equiv_pos_as_xyz
  x,y,z
_cell_length_a	15.995350
_cell_length_b	14.519709
_cell_length_c	12.996460
_cell_angle_alpha	89.999966
_cell_angle_beta	89.996086
_cell_angle_gamma	96.413740
loop_
_atom_site_label
_atom_site_type_symbol
_atom_site_fract_x
_atom_site_fract_y
_atom_site_fract_z
O1	O	0.109760	-1.223669	-0.085428
O2	O	0.122686	-0.955169	-0.085458
O3	O	-0.005654	-1.096759	-0.085441
O4	O	0.238099	-1.082080	-0.085445
O5	O	-0.005661	-1.096744	0.085693
O6	O	0.122678	-0.955154	0.085675
O7	O	0.109753	-1.223655	0.085706
Cu8	Cu	0.116215	-1.089403	0.101317
Cu9	Cu	0.116224	-1.089421	-0.101069
O10	O	0.238092	-1.082065	0.085689
C11	C	0.122080	-0.920803	0.000104
C12	C	0.120275	-0.818425	0.000092
C13	C	-0.036853	-1.096145	0.000124
C14	C	-0.129806	-1.094325	0.000118
N15	N	0.116209	-1.089398	0.243664
C16	C	-0.467563	-1.087791	0.000120
C17	C	-0.420280	-0.986954	-0.000275
C18	C	-0.323587	-0.988773	0.000111
C19	C	-0.299998	-1.091032	0.000118
C20	C	-0.341005	-1.140761	0.097848
C21	C	-0.437645	-1.138227	0.097930
C22	C	-0.437992	-1.140327	-0.096681
C23	C	-0.341046	-1.140303	-0.097973
C24	C	-0.205298	-1.092869	0.000121
C25	C	-0.562264	-1.085957	0.000125
C26	C	0.269292	-1.082679	0.000122
C27	C	0.362245	-1.084498	0.000121
C28	C	0.110359	-1.258021	0.000141
C29	C	0.112164	-1.360399	0.000146
C30	C	0.113629	-0.443541	0.000139
C31	C	0.115475	-0.547846	0.000126
C32	C	0.116952	-0.630980	0.000115
C33	C	0.118797	-0.735291	0.000104
N34	N	0.116223	-1.089433	-0.243416
C35	C	0.116224	-1.089419	0.663478
C36	C	0.116223	-1.089411	0.546673
C37	C	0.116217	-1.089409	0.453575
C38	C	0.116214	-1.089399	0.336762
H39	H	-0.295221	-0.949683	-0.069946
O40	O	-0.303485	-1.095003	0.194182
H41	H	-0.315277	-1.021113	0.195143
H42	H	-0.326767	-1.215887	0.101488
O43	O	-0.465248	-1.096667	-0.194806
H44	H	-0.500181	-1.037029	-0.175671
O45	O	-0.304949	-1.092216	-0.193746
H46	H	-0.356322	-1.065770	-0.238528
H47	H	-0.438869	-0.946656	-0.070359
H48	H	-0.295785	-0.949408	0.070278
O49	O	-0.461976	-1.090175	0.194684
H50	H	-0.429580	-1.018486	0.196385
O51	O	-0.480225	-1.236286	0.103835
H52	H	-0.431764	-1.285303	0.106629
H53	H	-0.325572	-1.214875	-0.103868
H54	H	-0.439937	-0.946823	0.069410
O55	O	-0.479917	-1.238807	-0.097561
H56	H	-0.521619	-1.250324	-0.029429
