data_functionalizedCrystal
_audit_creation_method	'MofGen! by Chris Wilmer'
_symmetry_space_group_name_H-M	'P1'
_symmetry_Int_Tables_number	1
_symmetry_cell_setting	triclinic
loop_
_symmetry_equiv_pos_as_xyz
  x,y,z
_cell_length_a	12.759400
_cell_length_b	12.759401
_cell_length_c	12.759393
_cell_angle_alpha	89.977503
_cell_angle_beta	90.030490
_cell_angle_gamma	89.984494
loop_
_atom_site_label
_atom_site_type_symbol
_atom_site_fract_x
_atom_site_fract_y
_atom_site_fract_z
Zn1	Zn	-0.418192	-1.606266	0.594064
Zn2	Zn	-0.593908	-1.606158	0.418384
Zn3	Zn	-0.418246	-1.430565	0.418394
Zn4	Zn	-0.593832	-1.430557	0.594016
O5	O	-0.506045	-1.518387	0.506215
O6	O	-0.441511	-1.753273	0.570775
O7	O	-0.570660	-1.582823	0.271364
O8	O	-0.271218	-1.453921	0.441721
O9	O	-0.570608	-1.753193	0.441704
O10	O	-0.271178	-1.583008	0.570785
O11	O	-0.441602	-1.453816	0.271372
O12	O	-0.441529	-1.283543	0.441675
O13	O	-0.570479	-1.453908	0.741044
O14	O	-0.570531	-1.283537	0.570704
O15	O	-0.441437	-1.583000	0.741079
O16	O	-0.740919	-1.582815	0.441658
O17	O	-0.740863	-1.453802	0.570694
C18	C	-0.506029	-1.245419	0.506186
C19	C	-0.506047	-1.128643	0.506199
C20	C	-0.573320	-1.073805	0.573277
C21	C	-0.573323	-0.964081	0.573295
C22	C	-0.438776	-0.964042	0.439148
C23	C	-0.438769	-1.073764	0.439136
C24	C	-0.779012	-1.518324	0.506193
C25	C	-0.895789	-1.518394	0.506218
C26	C	-0.950645	-1.585645	0.439104
C27	C	-1.060369	-1.585710	0.439136
C28	C	-1.060371	-1.451262	0.573401
C29	C	-0.950649	-1.451204	0.573373
C30	C	-0.895784	-1.652835	0.371949
C31	C	-0.950641	-1.720091	0.304827
C32	C	-1.060365	-1.720156	0.304860
C33	C	-1.115232	-1.652964	0.372014
C34	C	-0.232011	-1.518478	0.506260
C35	C	-0.115235	-1.518517	0.506279
C36	C	-0.505944	-1.518465	0.780248
C37	C	-0.505901	-1.518499	0.897025
C38	C	-0.506059	-0.792420	0.506237
C39	C	-0.506057	-0.909197	0.506229
C40	C	-0.506069	-1.518369	0.233247
C41	C	-0.505816	-1.518539	0.116471
C42	C	-0.438698	-1.585722	0.951907
C43	C	-0.438653	-1.585740	1.061631
C44	C	-0.573022	-1.451308	1.061582
C45	C	-0.573061	-1.451285	0.951860
H46	H	-0.628099	-1.118484	0.627887
H47	H	-0.384003	-0.919346	0.384546
Cl48	Cl	-0.881682	-1.366659	0.657750
Cl49	Cl	-0.657454	-1.366821	1.130524
Cl50	Cl	-1.129324	-1.804714	0.220490
Cl51	Cl	-0.657546	-1.366763	0.882860
Cl52	Cl	-0.354264	-1.670215	0.882975
H53	H	-0.628102	-0.919437	0.627918
Cl54	Cl	-0.354183	-1.142708	0.354809
H55	H	-0.806442	-1.652787	0.371912
Cl56	Cl	-0.354174	-1.670263	1.130621
Cl57	Cl	-0.881666	-1.804566	0.220421
H58	H	-1.204577	-1.653031	0.372043
Cl59	Cl	-1.129349	-1.366796	0.657813
