data_functionalizedCrystal
_audit_creation_method	'MofGen! by Chris Wilmer'
_symmetry_space_group_name_H-M	'P1'
_symmetry_Int_Tables_number	1
_symmetry_cell_setting	triclinic
loop_
_symmetry_equiv_pos_as_xyz
  x,y,z
_cell_length_a	10.723023
_cell_length_b	10.489716
_cell_length_c	9.198806
_cell_angle_alpha	90.000858
_cell_angle_beta	89.996513
_cell_angle_gamma	84.498342
loop_
_atom_site_label
_atom_site_type_symbol
_atom_site_fract_x
_atom_site_fract_y
_atom_site_fract_z
O1	O	1.657282	0.178903	-0.120863
O2	O	1.294139	0.196029	-0.120868
O3	O	1.483990	0.001861	-0.120871
O4	O	1.467431	0.373071	-0.120861
O5	O	1.483975	0.001861	0.120914
O6	O	1.294124	0.196029	0.120917
O7	O	1.657267	0.178903	0.120922
Cu8	Cu	1.475694	0.187466	0.142996
Cu9	Cu	1.475712	0.187466	-0.142943
O10	O	1.467416	0.373071	0.120924
C11	C	1.247631	0.194783	0.000024
C12	C	1.109075	0.191055	0.000021
C13	C	1.047294	0.189392	0.125272
C14	C	0.904089	0.185539	0.125272
C15	C	1.482738	-0.045670	0.000017
C16	C	1.479016	-0.187299	0.000004
C17	C	1.595438	-0.285048	0.000019
C18	C	1.533926	-0.362369	-0.119191
C19	C	1.533884	-0.362333	0.119190
C20	C	1.417552	-0.262755	-0.119304
C21	C	1.417527	-0.262714	0.119184
C22	C	1.355929	-0.339986	-0.000055
C23	C	1.703775	0.180149	0.000027
C24	C	1.842331	0.183877	0.000020
C25	C	1.468668	0.420603	0.000033
C26	C	1.472390	0.562231	0.000037
N27	N	1.475691	0.187465	0.344110
N28	N	1.475725	0.187458	-0.344057
C29	C	1.555403	0.105579	0.416306
C30	C	1.555423	0.105575	0.583718
H31	H	1.696706	-0.260436	-0.000101
H32	H	1.368417	-0.219164	0.219972
Cl33	Cl	1.027064	0.188838	-0.165545
H34	H	1.583049	-0.405837	0.219970
Cl35	Cl	1.129306	0.191596	0.290838
Cl36	Cl	1.370357	0.295710	0.560104
Cl37	Cl	1.370335	0.295695	0.440023
Cl38	Cl	1.199464	-0.377612	-0.000150
H39	H	1.623630	0.035472	0.354179
Cl40	Cl	1.660800	-0.002661	0.679567
H41	H	1.368438	-0.219419	-0.220199
H42	H	0.850958	0.184116	0.232504
Cl43	Cl	0.924343	0.186094	-0.165553
H44	H	1.583078	-0.405895	-0.219975
