data_functionalizedCrystal
_audit_creation_method	'MofGen! by Chris Wilmer'
_symmetry_space_group_name_H-M	'P1'
_symmetry_Int_Tables_number	1
_symmetry_cell_setting	triclinic
loop_
_symmetry_equiv_pos_as_xyz
  x,y,z
_cell_length_a	14.044220
_cell_length_b	14.044220
_cell_length_c	12.503572
_cell_angle_alpha	93.847060
_cell_angle_beta	86.152852
_cell_angle_gamma	93.188878
loop_
_atom_site_label
_atom_site_type_symbol
_atom_site_fract_x
_atom_site_fract_y
_atom_site_fract_z
O1	O	1.272121	0.235210	0.089202
O2	O	1.605454	0.568544	0.422535
O3	O	1.938787	0.901877	0.755869
O4	O	0.995448	0.226906	0.089229
O5	O	1.328781	0.560239	0.422563
O6	O	1.662114	0.893573	0.755896
O7	O	1.129632	0.092722	0.089211
O8	O	1.462965	0.426055	0.422545
O9	O	1.796298	0.759389	0.755878
O10	O	1.137937	0.369394	0.089220
O11	O	1.471270	0.702727	0.422553
O12	O	1.804603	1.036061	0.755887
O13	O	1.139727	0.082618	-0.089432
O14	O	1.473060	0.415951	0.243901
O15	O	1.806393	0.749284	0.577235
O16	O	1.005543	0.216802	-0.089414
O17	O	1.338876	0.550135	0.243919
O18	O	1.672209	0.883468	0.577253
O19	O	1.282216	0.225106	-0.089441
O20	O	1.615549	0.558439	0.243892
O21	O	1.948882	0.891772	0.577225
Cu22	Cu	1.144801	0.220031	-0.105739
Cu23	Cu	1.478134	0.553364	0.227594
Cu24	Cu	1.811468	0.886698	0.560927
Cu25	Cu	1.132862	0.231981	0.105527
Cu26	Cu	1.466196	0.565314	0.438860
Cu27	Cu	1.799529	0.898647	0.772194
O28	O	1.148032	0.359290	-0.089423
O29	O	1.481365	0.692623	0.243910
O30	O	1.814698	1.025956	0.577243
C31	C	0.964873	0.218218	-0.000089
C32	C	1.298206	0.551552	0.333244
C33	C	1.631540	0.884885	0.666578
C34	C	0.858730	0.207374	-0.000078
C35	C	1.192063	0.540708	0.333255
C36	C	1.525396	0.874041	0.666588
C37	C	1.131043	0.052048	-0.000109
C38	C	1.464377	0.385381	0.333224
C39	C	1.797710	0.718715	0.666558
C40	C	1.120199	-0.054094	-0.000105
C41	C	1.453532	0.279239	0.333229
C42	C	1.786865	0.612572	0.666562
N43	N	1.124465	0.240379	0.254121
N44	N	1.457799	0.573712	0.587454
N45	N	1.791132	0.907045	0.920787
C46	C	0.664393	0.187547	-0.000100
C47	C	0.997727	0.520880	0.333233
C48	C	1.331060	0.854214	0.666566
C49	C	0.613264	0.264461	-0.000102
C50	C	0.946597	0.597794	0.333231
C51	C	1.279930	0.931128	0.666564
C52	C	0.505128	0.253429	-0.000115
C53	C	0.838461	0.586762	0.333219
C54	C	1.171795	0.920096	0.666552
C55	C	0.772539	0.198578	-0.000088
C56	C	1.105872	0.531911	0.333245
C57	C	1.439205	0.865244	0.666579
C58	C	1.312790	0.233794	-0.000121
C59	C	1.646123	0.567127	0.333212
C60	C	1.979457	0.900460	0.666546
C61	C	1.418933	0.244638	-0.000124
C62	C	1.752266	0.577971	0.333209
C63	C	2.085600	0.911305	0.666542
C64	C	1.146620	0.399964	-0.000101
C65	C	1.479953	0.733297	0.333233
C66	C	1.813287	1.066630	0.666566
C67	C	1.157464	0.506107	-0.000098
C68	C	1.490798	0.839440	0.333235
C69	C	1.824131	1.172773	0.666569
C70	C	1.177291	0.700444	-0.000105
C71	C	1.510624	1.033777	0.333229
C72	C	1.843958	1.367111	0.666562
C73	C	1.100376	0.751574	-0.000098
C74	C	1.433710	1.084908	0.333235
C75	C	1.767043	1.418241	0.666569
C76	C	1.111408	0.859710	-0.000102
C77	C	1.444741	1.193044	0.333232
C78	C	1.778075	1.526377	0.666565
C79	C	1.166261	0.592298	-0.000101
C80	C	1.499594	0.925631	0.333232
C81	C	1.832927	1.258965	0.666566
N82	N	1.153205	0.211626	-0.254333
N83	N	1.486538	0.544959	0.079001
N84	N	1.819872	0.878293	0.412334
C85	C	1.112105	0.252732	0.473237
C86	C	1.445439	0.586065	0.806571
C87	C	1.778772	0.919398	1.139904
C88	C	1.165562	0.199276	0.526557
C89	C	1.498896	0.532609	0.859891
C90	C	1.832229	0.865943	1.193224
C91	C	1.158685	0.206149	0.648481
C92	C	1.492018	0.539483	0.981815
C93	C	1.825352	0.872816	1.315148
C94	C	1.118982	0.245859	0.351302
C95	C	1.452315	0.579193	0.684636
C96	C	1.785648	0.912526	1.017969
H97	H	0.626957	0.113419	-0.000109
H98	H	0.960290	0.446752	0.333225
H99	H	1.293624	0.780086	0.666558
N100	N	1.229433	0.135354	0.468976
N101	N	1.562767	0.468688	0.802309
N102	N	1.896100	0.802021	1.135642
N103	N	1.219923	0.047695	0.481443
N104	N	1.553257	0.381028	0.814776
N105	N	1.886590	0.714361	1.148110
H106	H	1.265026	0.002543	0.440778
H107	H	1.598359	0.335877	0.774111
H108	H	1.931693	0.669210	1.107444
H109	H	0.650702	0.338595	-0.000095
H110	H	0.984036	0.671928	0.333238
H111	H	1.317369	1.005262	0.666572
H112	H	1.251419	0.737880	-0.000116
H113	H	1.584752	1.071214	0.333217
H114	H	1.918086	1.404547	0.666550
H115	H	1.026242	0.714135	-0.000091
H116	H	1.359576	1.047469	0.333242
H117	H	1.692909	1.380802	0.666575
H118	H	1.061177	0.303655	0.519152
H119	H	1.394510	0.636988	0.852485
H120	H	1.727843	0.970321	1.185818
