data_functionalizedCrystal
_audit_creation_method	'MofGen! by Chris Wilmer'
_symmetry_space_group_name_H-M	'P1'
_symmetry_Int_Tables_number	1
_symmetry_cell_setting	triclinic
loop_
_symmetry_equiv_pos_as_xyz
  x,y,z
_cell_length_a	16.992694
_cell_length_b	15.625429
_cell_length_c	15.455313
_cell_angle_alpha	74.616881
_cell_angle_beta	87.142206
_cell_angle_gamma	87.292213
loop_
_atom_site_label
_atom_site_type_symbol
_atom_site_fract_x
_atom_site_fract_y
_atom_site_fract_z
O1	O	1.046787	0.184512	-0.130048
O2	O	1.546787	0.684512	0.369952
O3	O	0.818470	0.182447	-0.129424
O4	O	1.318470	0.682447	0.370576
O5	O	0.936801	0.054756	-0.089248
O6	O	1.436801	0.554756	0.410752
O7	O	0.928456	0.312203	-0.170224
O8	O	1.428456	0.812203	0.329776
O9	O	0.930033	0.062026	0.052726
O10	O	1.430033	0.562026	0.552726
O11	O	0.811703	0.189717	0.012551
O12	O	1.311703	0.689717	0.512551
O13	O	1.040020	0.191782	0.011927
O14	O	1.540020	0.691782	0.511927
Cu15	Cu	0.925243	0.191413	0.025202
Cu16	Cu	1.425243	0.691413	0.525202
Cu17	Cu	0.933246	0.182816	-0.142700
Cu18	Cu	1.433246	0.682816	0.357300
O19	O	0.921689	0.319472	-0.028249
O20	O	1.421689	0.819472	0.471751
C21	C	0.785831	0.183426	-0.057605
C22	C	1.285831	0.683426	0.442395
C23	C	0.698660	0.175503	-0.055123
C24	C	1.198660	0.675503	0.444877
C25	C	0.649648	0.251946	-0.079166
C26	C	1.149648	0.751946	0.420834
C27	C	0.567741	0.244497	-0.076811
C28	C	1.067741	0.744497	0.423189
C29	C	0.534848	0.160604	-0.050419
C30	C	1.034848	0.660604	0.449581
C31	C	0.583867	0.084156	-0.026371
C32	C	1.083867	0.584156	0.473629
C33	C	0.665772	0.091606	-0.028720
C34	C	1.165772	0.591606	0.471280
C35	C	0.290753	0.129727	-0.040684
C36	C	0.790753	0.629727	0.459316
C37	C	0.208842	0.122283	-0.038339
C38	C	0.708842	0.622283	0.461661
C39	C	0.192722	0.282624	-0.088777
C40	C	0.692722	0.782624	0.411223
C41	C	0.274630	0.290067	-0.091129
C42	C	0.774630	0.790067	0.408871
C43	C	0.323641	0.213619	-0.067077
C44	C	0.823641	0.713619	0.432923
N45	N	0.451127	0.152988	-0.048014
N46	N	0.951127	0.652988	0.451986
N47	N	0.407360	0.221236	-0.069476
N48	N	0.907360	0.721236	0.430524
C49	C	0.932369	0.025297	-0.007854
C50	C	1.432369	0.525297	0.492146
C51	C	0.929238	-0.073313	0.023156
C52	C	1.429238	0.426687	0.523156
C53	C	0.937361	-0.417446	-0.261776
C54	C	1.437361	0.082554	0.238224
C55	C	0.934415	-0.510103	-0.232611
C56	C	1.434415	-0.010103	0.267389
C57	C	0.927038	-0.502165	-0.077840
C58	C	1.427038	-0.002165	0.422160
C59	C	0.929988	-0.409504	-0.106992
C60	C	1.429988	0.090496	0.393008
C61	C	0.935149	-0.367152	-0.198961
C62	C	1.435149	0.132848	0.301039
C63	C	0.927775	-0.359211	-0.044177
C64	C	1.427775	0.140789	0.455823
C65	C	0.930721	-0.266559	-0.073327
C66	C	1.430721	0.233441	0.426673
C67	C	0.935879	-0.224200	-0.165292
C68	C	1.435879	0.275800	0.334708
C69	C	0.938094	-0.274500	-0.228111
C70	C	1.438094	0.225500	0.271889
C71	C	0.922609	-0.401565	0.047791
C72	C	1.422609	0.098435	0.547791
C73	C	0.920396	-0.351272	0.110606
C74	C	1.420396	0.148728	0.610606
C75	C	0.923347	-0.258618	0.081457
C76	C	1.423347	0.241382	0.581457
C77	C	0.928506	-0.216259	-0.010509
C78	C	1.428506	0.283741	0.489491
C79	C	0.921132	-0.208318	0.144275
C80	C	1.421132	0.291682	0.644275
C81	C	0.924078	-0.115665	0.115125
C82	C	1.424078	0.384335	0.615125
C83	C	0.931451	-0.123606	-0.039659
C84	C	1.431451	0.376394	0.460341
C85	C	1.072659	0.190803	-0.059894
C86	C	1.572659	0.690803	0.440106
C87	C	1.159830	0.198725	-0.062382
C88	C	1.659830	0.698725	0.437618
C89	C	0.926120	0.348931	-0.109645
C90	C	1.426120	0.848931	0.390355
C91	C	0.929252	0.447542	-0.140661
C92	C	1.429252	0.947542	0.359339
N93	N	0.919620	0.197460	0.143295
N94	N	1.419620	0.697460	0.643295
N95	N	0.938876	0.176762	-0.260790
N96	N	1.438876	0.676762	0.239210
C97	C	0.969909	0.143235	0.205750
C98	C	1.469909	0.643235	0.705750
C99	C	0.965664	0.147817	0.295117
C100	C	1.465664	0.647817	0.795117
C101	C	0.911133	0.206628	0.322025
C102	C	1.411133	0.706628	0.822025
C103	C	0.860839	0.260855	0.259562
C104	C	1.360839	0.760855	0.759562
C105	C	0.865080	0.256269	0.170199
C106	C	1.365080	0.756269	0.670199
C107	C	0.892823	0.226403	0.587384
C108	C	1.392823	0.726403	1.087384
C109	C	0.888586	0.230987	0.676754
C110	C	1.388586	0.730987	1.176754
C111	C	0.993412	0.117947	0.712303
C112	C	1.493412	0.617947	1.212303
C113	C	0.997652	0.113369	0.622935
C114	C	1.497652	0.613369	1.122935
C115	C	0.947355	0.167593	0.560482
C116	C	1.447355	0.667593	1.060482
N117	N	0.906794	0.211315	0.413370
N118	N	1.406794	0.711315	0.913370
N119	N	0.951690	0.162901	0.469140
N120	N	1.451690	0.662901	0.969140
H121	H	0.527838	0.306745	-0.096390
H122	H	1.027838	0.806745	0.403610
H123	H	1.042056	0.065480	0.601030
H124	H	1.542056	0.565480	1.101030
C125	C	0.943042	-0.370853	-0.362947
C126	C	1.443042	0.129147	0.137053
N127	N	0.947319	-0.335760	-0.439146
N128	N	1.447319	0.164240	0.060854
C129	C	0.138803	0.366712	-0.115222
C130	C	0.638803	0.866712	0.384778
N131	N	0.098191	0.430050	-0.135136
N132	N	0.598191	0.930050	0.364864
H133	H	0.922833	-0.536660	-0.002958
H134	H	1.422833	-0.036660	0.497042
C135	C	1.029898	0.078537	0.176162
C136	C	1.529898	0.578537	0.676162
N137	N	1.075081	0.029801	0.153879
N138	N	1.575081	0.529801	0.653879
H139	H	0.182065	0.053964	-0.016847
H140	H	0.682065	0.553964	0.483153
C141	C	0.800846	0.325540	0.289167
C142	C	1.300846	0.825540	0.789167
N143	N	0.755658	0.374262	0.311464
N144	N	1.255658	0.874262	0.811464
C145	C	0.919378	-0.503487	0.079855
C146	C	1.419378	-0.003487	0.579855
N147	N	0.916949	-0.580255	0.104005
N148	N	1.416949	-0.080255	0.604005
C149	C	0.943775	-0.227908	-0.329282
C150	C	1.443775	0.272092	0.170718
N151	N	0.948052	-0.192814	-0.405481
N152	N	1.448052	0.307186	0.094519
C153	C	1.020968	0.088142	0.363822
C154	C	1.520968	0.588142	0.863822
N155	N	1.062617	0.043184	0.415573
N156	N	1.562617	0.543184	0.915573
C157	C	0.685822	0.344235	-0.108198
C158	C	1.185822	0.844235	0.391802
N159	N	0.713065	0.413750	-0.130062
N160	N	1.213065	0.913750	0.369938
H161	H	0.705677	0.029358	-0.009142
H162	H	1.205677	0.529358	0.490858
C163	C	0.809765	0.315928	0.101495
C164	C	1.309765	0.815928	0.601495
N165	N	0.768099	0.360866	0.049748
N166	N	1.268099	0.860866	0.549748
C167	C	0.939121	-0.122279	-0.197358
C168	C	1.439121	0.377721	0.302642
N169	N	0.941564	-0.045512	-0.221510
N170	N	1.441564	0.454488	0.278490
H171	H	0.916191	-0.385767	0.185488
H172	H	1.416191	0.114233	0.685488
H173	H	1.034361	0.073800	0.763160
H174	H	1.534361	0.573800	1.263160
H175	H	0.301405	0.358380	-0.112630
H176	H	0.801405	0.858380	0.387370
H177	H	0.330649	0.067478	-0.021098
H178	H	0.830649	0.567478	0.478902
C179	C	0.547682	-0.008127	0.002662
C180	C	1.047682	0.491873	0.502662
N181	N	0.520429	-0.077636	0.024527
N182	N	1.020429	0.422364	0.524527
C183	C	0.936828	-0.565422	-0.301721
C184	C	1.436828	-0.065422	0.198279
N185	N	0.938635	-0.607086	-0.353774
N186	N	1.438635	-0.107086	0.146226
C187	C	0.915445	-0.254917	0.245438
C188	C	1.415445	0.245083	0.745438
N189	N	0.911160	-0.290016	0.321636
N190	N	1.411160	0.209984	0.821636
C191	C	0.921648	-0.060340	0.184225
C192	C	1.421648	0.439660	0.684225
N193	N	0.919816	-0.018669	0.236273
N194	N	1.419816	0.481331	0.736273
C195	C	0.828593	0.295684	0.706350
C196	C	1.328593	0.795684	1.206350
N197	N	0.783409	0.344412	0.728642
N198	N	1.283409	0.844412	1.228642
H199	H	0.851870	0.270555	0.536541
H200	H	1.351870	0.770555	1.036541
H201	H	0.935661	-0.089121	-0.114549
H202	H	1.435661	0.410879	0.385451
