data_functionalizedCrystal
_audit_creation_method	'MofGen! by Chris Wilmer'
_symmetry_space_group_name_H-M	'P1'
_symmetry_Int_Tables_number	1
_symmetry_cell_setting	triclinic
loop_
_symmetry_equiv_pos_as_xyz
  x,y,z
_cell_length_a	19.288840
_cell_length_b	17.766277
_cell_length_c	19.288865
_cell_angle_alpha	90.011603
_cell_angle_beta	96.868869
_cell_angle_gamma	89.983415
loop_
_atom_site_label
_atom_site_type_symbol
_atom_site_fract_x
_atom_site_fract_y
_atom_site_fract_z
O1	O	0.921364	-0.062729	-0.086566
O2	O	1.171364	0.187271	0.163434
O3	O	1.421364	0.437271	0.413434
O4	O	1.671364	0.687271	0.663434
O5	O	0.719101	-0.062704	-0.098273
O6	O	0.969101	0.187296	0.151727
O7	O	1.219101	0.437296	0.401727
O8	O	1.469101	0.687296	0.651727
O9	O	0.826077	-0.062702	0.008711
O10	O	1.076077	0.187298	0.258711
O11	O	1.326077	0.437298	0.508711
O12	O	1.576077	0.687298	0.758711
O13	O	0.814388	-0.062730	-0.193550
O14	O	1.064388	0.187270	0.056450
O15	O	1.314388	0.437270	0.306450
O16	O	1.564388	0.687270	0.556450
O17	O	0.826058	0.062487	0.008717
O18	O	1.076058	0.312487	0.258717
O19	O	1.326058	0.562487	0.508717
O20	O	1.576058	0.812487	0.758717
O21	O	0.719082	0.062485	-0.098267
O22	O	0.969082	0.312485	0.151733
O23	O	1.219082	0.562485	0.401733
O24	O	1.469082	0.812485	0.651733
O25	O	0.921345	0.062460	-0.086560
O26	O	1.171345	0.312460	0.163440
O27	O	1.421345	0.562460	0.413440
O28	O	1.671345	0.812460	0.663440
Cu29	Cu	0.820212	0.073903	-0.092413
Cu30	Cu	1.070212	0.323903	0.157587
Cu31	Cu	1.320212	0.573903	0.407587
Cu32	Cu	1.570212	0.823903	0.657587
Cu33	Cu	0.820234	-0.074147	-0.092420
Cu34	Cu	1.070234	0.175853	0.157580
Cu35	Cu	1.320234	0.425853	0.407580
Cu36	Cu	1.570234	0.675853	0.657580
O37	O	0.814369	0.062458	-0.193545
O38	O	1.064369	0.312458	0.056455
O39	O	1.314369	0.562458	0.306455
O40	O	1.564369	0.812458	0.556455
C41	C	0.693215	-0.000106	-0.097896
C42	C	0.943215	0.249894	0.152104
C43	C	1.193215	0.499894	0.402104
C44	C	1.443215	0.749894	0.652104
C45	C	0.616110	-0.000096	-0.096774
C46	C	0.866110	0.249904	0.153226
C47	C	1.116110	0.499904	0.403226
C48	C	1.366110	0.749904	0.653226
C49	C	0.579917	-0.068338	-0.096238
C50	C	0.829917	0.181662	0.153762
C51	C	1.079917	0.431662	0.403762
C52	C	1.329917	0.681662	0.653762
C53	C	0.507470	-0.068347	-0.095176
C54	C	0.757470	0.181653	0.154824
C55	C	1.007470	0.431653	0.404824
C56	C	1.257470	0.681653	0.654824
C57	C	0.471221	-0.000110	-0.094636
C58	C	0.721221	0.249890	0.155364
C59	C	0.971221	0.499890	0.405364
C60	C	1.221221	0.749890	0.655364
C61	C	0.507423	0.068141	-0.095176
C62	C	0.757423	0.318141	0.154824
C63	C	1.007423	0.568141	0.404824
C64	C	1.257423	0.818141	0.654824
C65	C	0.579867	0.068148	-0.096245
C66	C	0.829867	0.318148	0.153755
C67	C	1.079867	0.568148	0.403755
C68	C	1.329867	0.818148	0.653755
C69	C	0.361886	0.052164	-0.052256
C70	C	0.611886	0.302164	0.197744
C71	C	0.861886	0.552164	0.447744
C72	C	1.111886	0.802164	0.697744
C73	C	0.289443	0.052155	-0.051183
C74	C	0.539443	0.302155	0.198817
C75	C	0.789443	0.552155	0.448817
C76	C	1.039443	0.802155	0.698817
C77	C	0.247778	-0.000129	-0.091342
C78	C	0.497778	0.249871	0.158658
C79	C	0.747778	0.499871	0.408658
C80	C	0.997778	0.749871	0.658658
C81	C	0.278565	-0.052416	-0.132566
C82	C	0.528565	0.197584	0.117434
C83	C	0.778565	0.447584	0.367434
C84	C	1.028565	0.697584	0.617434
C85	C	0.351010	-0.052408	-0.133635
C86	C	0.601010	0.197592	0.116365
C87	C	0.851010	0.447592	0.366365
C88	C	1.101010	0.697592	0.616365
C89	C	0.392667	-0.000110	-0.093477
C90	C	0.642667	0.249890	0.156523
C91	C	0.892667	0.499890	0.406523
C92	C	1.142667	0.749890	0.656523
C93	C	0.133029	-0.068386	-0.089655
C94	C	0.383029	0.181614	0.160345
C95	C	0.633029	0.431614	0.410345
C96	C	0.883029	0.681614	0.660345
C97	C	0.060580	-0.068392	-0.088598
C98	C	0.310580	0.181608	0.161402
C99	C	0.560580	0.431608	0.411402
C100	C	0.810580	0.681608	0.661402
C101	C	0.060535	0.068098	-0.088591
C102	C	0.310535	0.318098	0.161409
C103	C	0.560535	0.568098	0.411409
C104	C	0.810535	0.818098	0.661409
C105	C	0.132982	0.068102	-0.089656
C106	C	0.382982	0.318102	0.160344
C107	C	0.632982	0.568102	0.410344
C108	C	0.882982	0.818102	0.660344
C109	C	0.169225	-0.000142	-0.090185
C110	C	0.419225	0.249858	0.159815
C111	C	0.669225	0.499858	0.409815
C112	C	0.919225	0.749858	0.659815
C113	C	0.825692	-0.000105	0.034591
C114	C	1.075692	0.249895	0.284591
C115	C	1.325692	0.499895	0.534591
C116	C	1.575692	0.749895	0.784591
C117	C	0.824563	-0.000099	0.111694
C118	C	1.074563	0.249901	0.361694
C119	C	1.324563	0.499901	0.611694
C120	C	1.574563	0.749901	0.861694
C121	C	0.947232	-0.000139	-0.086937
C122	C	1.197232	0.249861	0.163063
C123	C	1.447232	0.499861	0.413063
C124	C	1.697232	0.749861	0.663063
C125	C	1.024336	-0.000154	-0.088059
C126	C	1.274336	0.249846	0.161941
C127	C	1.524336	0.499846	0.411941
C128	C	1.774336	0.749846	0.661941
N129	N	0.820202	0.178034	-0.092409
N130	N	1.070202	0.428034	0.157591
N131	N	1.320202	0.678034	0.407591
N132	N	1.570202	0.928034	0.657591
N133	N	0.820250	-0.178277	-0.092419
N134	N	1.070250	0.071723	0.157581
N135	N	1.320250	0.321723	0.407581
N136	N	1.570250	0.571723	0.657581
C137	C	0.867586	0.217421	-0.045059
C138	C	1.117586	0.467421	0.204941
C139	C	1.367586	0.717421	0.454941
C140	C	1.617586	0.967421	0.704941
C141	C	0.867590	0.296223	-0.045056
C142	C	1.117590	0.546223	0.204944
C143	C	1.367590	0.796223	0.454944
C144	C	1.617590	1.046223	0.704944
C145	C	0.820216	0.335634	-0.092414
C146	C	1.070216	0.585634	0.157586
C147	C	1.320216	0.835634	0.407586
C148	C	1.570216	1.085634	0.657586
C149	C	0.772823	0.296237	-0.139767
C150	C	1.022823	0.546237	0.110233
C151	C	1.272823	0.796237	0.360233
C152	C	1.522823	1.046237	0.610233
C153	C	0.772816	0.217437	-0.139764
C154	C	1.022816	0.467437	0.110236
C155	C	1.272816	0.717437	0.360236
C156	C	1.522816	0.967437	0.610236
C157	C	0.810917	0.460464	-0.155703
C158	C	1.060917	0.710464	0.094297
C159	C	1.310917	0.960464	0.344297
C160	C	1.560917	1.210464	0.594297
C161	C	0.810930	0.539263	-0.155706
C162	C	1.060930	0.789263	0.094294
C163	C	1.310930	1.039263	0.344294
C164	C	1.560930	1.289263	0.594294
C165	C	0.820235	0.578680	-0.092422
C166	C	1.070235	0.828680	0.157578
C167	C	1.320235	1.078680	0.407578
C168	C	1.570235	1.328680	0.657578
C169	C	0.829543	0.539290	-0.029132
C170	C	1.079543	0.789290	0.220868
C171	C	1.329543	1.039290	0.470868
C172	C	1.579543	1.289290	0.720868
C173	C	0.829535	0.460489	-0.029129
C174	C	1.079535	0.710489	0.220871
C175	C	1.329535	0.960489	0.470871
C176	C	1.579535	1.210489	0.720871
C177	C	0.820219	0.421080	-0.092422
C178	C	1.070219	0.671080	0.157578
C179	C	1.320219	0.921080	0.407578
C180	C	1.570219	1.171080	0.657578
C181	C	0.867626	0.703514	-0.045065
C182	C	1.117626	0.953514	0.204935
C183	C	1.367626	1.203514	0.454935
C184	C	1.617626	1.453514	0.704935
C185	C	0.867625	0.782317	-0.045061
C186	C	1.117625	1.032317	0.204939
C187	C	1.367625	1.282317	0.454939
C188	C	1.617625	1.532317	0.704939
C189	C	0.772862	0.782330	-0.139779
C190	C	1.022862	1.032330	0.110221
C191	C	1.272862	1.282330	0.360221
C192	C	1.522862	1.532330	0.610221
C193	C	0.772859	0.703528	-0.139777
C194	C	1.022859	0.953528	0.110223
C195	C	1.272859	1.203528	0.360223
C196	C	1.522859	1.453528	0.610223
C197	C	0.820245	0.664125	-0.092421
C198	C	1.070245	0.914125	0.157579
C199	C	1.320245	1.164125	0.407579
C200	C	1.570245	1.414125	0.657579
C201	C	0.814755	-0.000140	-0.219424
C202	C	1.064755	0.249860	0.030576
C203	C	1.314755	0.499860	0.280576
C204	C	1.564755	0.749860	0.530576
C205	C	0.815884	-0.000152	-0.296527
C206	C	1.065884	0.249848	-0.046527
C207	C	1.315884	0.499848	0.203473
C208	C	1.565884	0.749848	0.453473
C209	C	0.887331	-0.000103	0.156396
C210	C	1.137331	0.249897	0.406396
C211	C	1.387331	0.499897	0.656396
C212	C	1.637331	0.749897	0.906396
C213	C	0.886270	-0.000114	0.228843
C214	C	1.136270	0.249886	0.478843
C215	C	1.386270	0.499886	0.728843
C216	C	1.636270	0.749886	0.978843
C217	C	0.822438	-0.000107	0.256585
C218	C	1.072438	0.249893	0.506585
C219	C	1.322438	0.499893	0.756585
C220	C	1.572438	0.749893	1.006585
C221	C	0.759661	-0.000107	0.211873
C222	C	1.009661	0.249893	0.461873
C223	C	1.259661	0.499893	0.711873
C224	C	1.509661	0.749893	0.961873
C225	C	0.760723	-0.000103	0.139428
C226	C	1.010723	0.249897	0.389428
C227	C	1.260723	0.499897	0.639428
C228	C	1.510723	0.749897	0.889428
C229	C	0.772251	0.043750	0.364870
C230	C	1.022251	0.293750	0.614870
C231	C	1.272251	0.543750	0.864870
C232	C	1.522251	0.793750	1.114870
C233	C	0.771191	0.043750	0.437314
C234	C	1.021191	0.293750	0.687314
C235	C	1.271191	0.543750	0.937314
C236	C	1.521191	0.793750	1.187314
C237	C	0.819158	-0.000123	0.480030
C238	C	1.069158	0.249877	0.730030
C239	C	1.319158	0.499877	0.980030
C240	C	1.569158	0.749877	1.230030
C241	C	0.868196	-0.043988	0.450295
C242	C	1.118196	0.206012	0.700295
C243	C	1.368196	0.456012	0.950295
C244	C	1.618196	0.706012	1.200295
C245	C	0.869259	-0.043984	0.377849
C246	C	1.119259	0.206016	0.627849
C247	C	1.369259	0.456016	0.877849
C248	C	1.619259	0.706016	1.127849
C249	C	0.821278	-0.000112	0.335139
C250	C	1.071278	0.249888	0.585139
C251	C	1.321278	0.499888	0.835139
C252	C	1.571278	0.749888	1.085139
C253	C	0.880781	-0.000141	0.603288
C254	C	1.130781	0.249859	0.853288
C255	C	1.380781	0.499859	1.103288
C256	C	1.630781	0.749859	1.353288
C257	C	0.879717	-0.000158	0.675736
C258	C	1.129717	0.249842	0.925736
C259	C	1.379717	0.499842	1.175736
C260	C	1.629717	0.749842	1.425736
C261	C	0.753106	-0.000143	0.658764
C262	C	1.003106	0.249857	0.908764
C263	C	1.253106	0.499857	1.158764
C264	C	1.503106	0.749857	1.408764
C265	C	0.754171	-0.000134	0.586318
C266	C	1.004171	0.249866	0.836318
C267	C	1.254171	0.499866	1.086318
C268	C	1.504171	0.749866	1.336318
C269	C	0.818010	-0.000130	0.558584
C270	C	1.068010	0.249870	0.808584
C271	C	1.318010	0.499870	1.058584
C272	C	1.568010	0.749870	1.308584
H273	H	0.477996	-0.123920	-0.094741
H274	H	0.727996	0.126080	0.155259
H275	H	0.977996	0.376080	0.405259
H276	H	1.227996	0.626080	0.655259
F277	F	0.946528	-0.000167	0.723312
F278	F	1.196528	0.249833	0.973312
F279	F	1.446528	0.499833	1.223312
F280	F	1.696528	0.749833	1.473312
H281	H	0.609422	-0.123907	-0.096669
H282	H	0.859422	0.126093	0.153331
H283	H	1.109422	0.376093	0.403331
H284	H	1.359422	0.626093	0.653331
H285	H	0.733189	0.079481	0.330095
H286	H	0.983189	0.329481	0.580095
H287	H	1.233189	0.579481	0.830095
H288	H	1.483189	0.829481	1.080095
H289	H	0.031112	-0.123965	-0.088165
H290	H	0.281112	0.126035	0.161835
H291	H	0.531112	0.376035	0.411835
H292	H	0.781112	0.626035	0.661835
H293	H	0.609335	0.123721	-0.096683
H294	H	0.859335	0.373721	0.153317
H295	H	1.109335	0.623721	0.403317
H296	H	1.359335	0.873721	0.653317
H297	H	0.937386	-0.000121	0.265246
H298	H	1.187386	0.249879	0.515246
H299	H	1.437386	0.499879	0.765246
H300	H	1.687386	0.749879	1.015246
F301	F	0.801028	0.581178	-0.223064
F302	F	1.051028	0.831178	0.026936
F303	F	1.301028	1.081178	0.276936
F304	F	1.551028	1.331178	0.526936
H305	H	0.031021	0.123658	-0.088156
H306	H	0.281021	0.373658	0.161844
H307	H	0.531021	0.623658	0.411844
H308	H	0.781021	0.873658	0.661844
H309	H	0.376073	-0.094980	-0.167202
H310	H	0.626073	0.155020	0.082798
H311	H	0.876073	0.405020	0.332798
H312	H	1.126073	0.655020	0.582798
H313	H	0.244642	-0.094987	-0.165270
H314	H	0.494642	0.155013	0.084730
H315	H	0.744642	0.405013	0.334730
H316	H	0.994642	0.655013	0.584730
H317	H	0.939314	-0.000102	0.133820
H318	H	1.189314	0.249898	0.383820
H319	H	1.439314	0.499898	0.633820
H320	H	1.689314	0.749898	0.883820
H321	H	0.162451	0.123672	-0.090088
H322	H	0.412451	0.373672	0.159912
H323	H	0.662451	0.623672	0.409912
H324	H	0.912451	0.873672	0.659912
F325	F	0.406223	0.107817	-0.009511
F326	F	0.656223	0.357817	0.240489
F327	F	0.906223	0.607817	0.490489
F328	F	1.156223	0.857817	0.740489
F329	F	0.256682	0.107813	-0.007322
F330	F	0.506682	0.357813	0.242678
F331	F	0.756682	0.607813	0.492678
F332	F	1.006682	0.857813	0.742678
F333	F	0.722439	0.824270	-0.190177
F334	F	0.972439	1.074270	0.059823
F335	F	1.222439	1.324270	0.309823
F336	F	1.472439	1.574270	0.559823
H337	H	0.909186	-0.079701	0.353641
H338	H	1.159186	0.170299	0.603641
H339	H	1.409186	0.420299	0.853641
H340	H	1.659186	0.670299	1.103641
H341	H	0.906209	0.814387	-0.006500
H342	H	1.156209	1.064387	0.243500
H343	H	1.406209	1.314387	0.493500
H344	H	1.656209	1.564387	0.743500
F345	F	0.171603	-0.141016	-0.090224
F346	F	0.421603	0.108984	0.159776
F347	F	0.671603	0.358984	0.409776
F348	F	0.921603	0.608984	0.659776
H349	H	0.906168	0.185341	-0.006498
H350	H	1.156168	0.435341	0.243502
H351	H	1.406168	0.685341	0.493502
H352	H	1.656168	0.935341	0.743502
F353	F	0.722430	0.661605	-0.190176
F354	F	0.972430	0.911605	0.059824
F355	F	1.222430	1.161605	0.309824
F356	F	1.472430	1.411605	0.559824
F357	F	0.468843	0.140764	-0.094605
F358	F	0.718843	0.390764	0.155395
F359	F	0.968843	0.640764	0.405395
F360	F	1.218843	0.890764	0.655395
F361	F	0.948723	-0.000133	0.573769
F362	F	1.198723	0.249867	0.823769
F363	F	1.448723	0.499867	1.073769
F364	F	1.698723	0.749867	1.323769
H365	H	0.701132	-0.000141	0.681351
H366	H	0.951132	0.249859	0.931351
H367	H	1.201132	0.499859	1.181351
H368	H	1.451132	0.749859	1.431351
H369	H	0.709608	-0.000099	0.103030
H370	H	0.959608	0.249901	0.353030
H371	H	1.209608	0.499901	0.603030
H372	H	1.459608	0.749901	0.853030
H373	H	0.906177	0.328298	-0.006497
H374	H	1.156177	0.578298	0.243503
H375	H	1.406177	0.828298	0.493503
H376	H	1.656177	1.078298	0.743503
H377	H	0.837112	0.428420	0.022404
H378	H	1.087112	0.678420	0.272404
H379	H	1.337112	0.928420	0.522404
H380	H	1.587112	1.178420	0.772404
F381	F	0.719003	0.090437	0.468954
F382	F	0.969003	0.340437	0.718954
F383	F	1.219003	0.590437	0.968954
F384	F	1.469003	0.840437	1.218954
F385	F	0.839451	0.581234	0.038225
F386	F	1.089451	0.831234	0.288225
F387	F	1.339451	1.081234	0.538225
F388	F	1.589451	1.331234	0.788225
F389	F	0.918055	0.661578	0.005338
F390	F	1.168055	0.911578	0.255338
F391	F	1.418055	1.161578	0.505338
F392	F	1.668055	1.411578	0.755338
H393	H	0.803328	0.428377	-0.207239
H394	H	1.053328	0.678377	0.042761
H395	H	1.303328	0.928377	0.292761
H396	H	1.553328	1.178377	0.542761
H397	H	0.734250	0.328329	-0.178326
H398	H	0.984250	0.578329	0.071674
H399	H	1.234250	0.828329	0.321674
H400	H	1.484250	1.078329	0.571674
F401	F	0.722381	0.175516	-0.190162
F402	F	0.972381	0.425516	0.059838
F403	F	1.222381	0.675516	0.309838
F404	F	1.472381	0.925516	0.559838
H405	H	0.907256	-0.079715	0.485073
H406	H	1.157256	0.170285	0.735073
H407	H	1.407256	0.420285	0.985073
H408	H	1.657256	0.670285	1.235073
F409	F	0.691725	-0.000104	0.241399
F410	F	0.941725	0.249896	0.491399
F411	F	1.191725	0.499896	0.741399
F412	F	1.441725	0.749896	0.991399
H413	H	0.703058	-0.000127	0.549920
H414	H	0.953058	0.249873	0.799920
H415	H	1.203058	0.499873	1.049920
H416	H	1.453058	0.749873	1.299920
