data_functionalizedCrystal
_audit_creation_method	'MofGen! by Chris Wilmer'
_symmetry_space_group_name_H-M	'P1'
_symmetry_Int_Tables_number	1
_symmetry_cell_setting	triclinic
loop_
_symmetry_equiv_pos_as_xyz
  x,y,z
_cell_length_a	14.908780
_cell_length_b	14.908326
_cell_length_c	14.908308
_cell_angle_alpha	90.223626
_cell_angle_beta	90.212689
_cell_angle_gamma	96.408993
loop_
_atom_site_label
_atom_site_type_symbol
_atom_site_fract_x
_atom_site_fract_y
_atom_site_fract_z
Zn1	Zn	-1.328185	0.315484	-0.568648
Zn2	Zn	-1.329074	0.457145	-0.409659
Zn3	Zn	-1.186551	0.314503	-0.409675
Zn4	Zn	-1.169163	0.474410	-0.550225
O5	O	-1.253243	0.390385	-0.484552
O6	O	-1.454500	0.327460	-0.555261
O7	O	-1.317818	0.430588	-0.284304
O8	O	-1.212244	0.188426	-0.438480
O9	O	-1.455154	0.431538	-0.438453
O10	O	-1.316302	0.189146	-0.555277
O11	O	-1.213107	0.325789	-0.284315
O12	O	-1.058047	0.342530	-0.420616
O13	O	-1.182608	0.460963	-0.678027
O14	O	-1.045272	0.460013	-0.523878
O15	O	-1.299441	0.344201	-0.691562
O16	O	-1.300957	0.585642	-0.420589
O17	O	-1.183471	0.598327	-0.523862
C18	C	-1.018938	0.403039	-0.470250
C19	C	-0.918699	0.408475	-0.464152
C20	C	-0.729636	0.310483	-0.574490
C21	C	-0.635452	0.315588	-0.568763
C22	C	-0.636146	0.423785	-0.446967
C23	C	-0.730330	0.418680	-0.452694
C24	C	-0.777071	0.362028	-0.516458
C25	C	-0.871257	0.356929	-0.522189
C26	C	-0.871949	0.465120	-0.400390
C27	C	-0.777765	0.470225	-0.394663
C28	C	-1.240447	0.624709	-0.470246
C29	C	-1.235053	0.724950	-0.464160
C30	C	-0.488464	0.377675	-0.498904
C31	C	-0.588704	0.372238	-0.505004
C32	C	-1.238985	0.404617	-0.718207
C33	C	-1.232910	0.410682	-0.817777
C34	C	-1.333177	0.913928	-0.574463
C35	C	-1.328112	1.008114	-0.568749
C36	C	-1.219854	1.007511	-0.447022
C37	C	-1.224919	0.913325	-0.452736
C38	C	-1.281583	0.866536	-0.516458
C39	C	-1.286653	0.772348	-0.522168
C40	C	-1.178390	0.771747	-0.400446
C41	C	-1.173325	0.865934	-0.394731
C42	C	-1.266077	1.155149	-0.498926
C43	C	-1.271453	1.054909	-0.505029
C44	C	-1.343149	0.300473	-1.018977
C45	C	-1.337443	0.306169	-1.112532
C46	C	-1.215788	0.427763	-1.098445
C47	C	-1.221494	0.422068	-1.004890
C48	C	-1.285177	0.358422	-0.965159
C49	C	-1.290887	0.352732	-0.871602
C50	C	-1.169229	0.474321	-0.857517
C51	C	-1.163523	0.480016	-0.951072
C52	C	-1.267501	0.376141	-0.251813
C53	C	-1.273766	0.369812	-0.152270
H54	H	-0.739695	0.516346	-0.342745
H55	H	-1.384647	0.258979	-1.156348
H56	H	-0.767694	0.264359	-0.626413
Cl57	Cl	-1.096355	0.547184	-0.789854
H58	H	-1.111672	0.531833	-0.983433
Cl59	Cl	-1.135731	0.507762	-1.148408
H60	H	-1.173716	1.045623	-0.395146
Cl61	Cl	-0.930016	0.285712	-0.602350
Cl62	Cl	-1.392974	1.067689	-0.641675
Cl63	Cl	-0.575822	0.250784	-0.641718
Cl64	Cl	-0.577371	0.494987	-0.366803
Cl65	Cl	-1.370947	0.272723	-0.821656
H66	H	-0.910580	0.507099	-0.353142
Cl67	Cl	-1.102086	0.924763	-0.314634
Cl68	Cl	-1.357890	0.713529	-0.602272
Cl69	Cl	-1.404422	0.855104	-0.654558
Cl70	Cl	-1.113532	0.712164	-0.327515
Cl71	Cl	-1.423214	0.220473	-0.969027
