data_functionalizedCrystal
_audit_creation_method	'MofGen! by Chris Wilmer'
_symmetry_space_group_name_H-M	'P1'
_symmetry_Int_Tables_number	1
_symmetry_cell_setting	triclinic
loop_
_symmetry_equiv_pos_as_xyz
  x,y,z
_cell_length_a	18.215407
_cell_length_b	14.908178
_cell_length_c	18.215399
_cell_angle_alpha	86.674478
_cell_angle_beta	89.982632
_cell_angle_gamma	93.311467
loop_
_atom_site_label
_atom_site_type_symbol
_atom_site_fract_x
_atom_site_fract_y
_atom_site_fract_z
Zn1	Zn	1.108197	-0.359257	-0.399149
Zn2	Zn	1.101018	-0.510136	-0.268977
Zn3	Zn	0.985128	-0.359278	-0.276101
Zn4	Zn	0.978011	-0.510078	-0.392010
O5	O	1.043088	-0.434687	-0.334059
O6	O	1.210228	-0.379286	-0.381888
O7	O	1.085619	-0.490158	-0.166936
O8	O	1.007437	-0.233021	-0.298392
O9	O	1.204954	-0.490137	-0.286251
O10	O	1.097855	-0.233005	-0.388795
O11	O	1.000476	-0.379323	-0.172170
O12	O	0.881201	-0.379267	-0.291470
O13	O	0.995306	-0.490038	-0.495943
O14	O	0.875971	-0.490059	-0.376628
O15	O	1.090953	-0.379230	-0.501188
O16	O	1.078718	-0.636383	-0.279329
O17	O	0.988345	-0.636340	-0.369721
C18	C	0.851883	-0.434660	-0.334048
C19	C	0.770084	-0.434670	-0.334059
C20	C	0.584630	-0.377068	-0.383926
C21	C	0.507771	-0.377076	-0.383928
C22	C	0.502298	-0.492332	-0.284204
C23	C	0.579156	-0.492319	-0.284199
C24	C	0.620320	-0.434688	-0.334064
C25	C	0.466603	-0.434709	-0.334071
C26	C	0.383269	-0.434718	-0.334073
C27	C	0.703659	-0.434678	-0.334062
C28	C	1.032000	-0.669098	-0.322994
C29	C	1.027323	-0.769380	-0.318284
C30	C	1.112617	-0.957653	-0.403672
C31	C	1.108225	-1.051877	-0.399250
C32	C	1.014146	-1.052052	-0.305021
C33	C	1.018538	-0.957829	-0.309444
C34	C	1.067775	-0.910632	-0.358770
C35	C	1.072170	-0.816407	-0.363188
C36	C	0.978087	-0.816584	-0.268964
C37	C	0.973696	-0.910808	-0.264541
C38	C	1.235040	-0.434716	-0.334071
C39	C	1.316838	-0.434728	-0.334076
C40	C	1.043136	-0.434625	-0.526015
C41	C	1.043157	-0.434599	-0.607815
C42	C	1.054240	-0.199362	-0.345184
C43	C	1.058993	-0.099080	-0.349925
C44	C	1.092979	-0.376847	-0.798744
C45	C	1.092989	-0.376821	-0.875604
C46	C	0.993392	-0.492211	-0.870131
C47	C	0.993379	-0.492232	-0.793273
C48	C	1.043177	-0.434551	-0.757581
C49	C	1.043200	-0.434504	-0.911300
C50	C	1.043210	-0.434476	-0.994635
C51	C	1.043166	-0.434578	-0.674241
C52	C	1.043086	-0.434684	-0.142853
C53	C	1.043220	-0.434457	-0.061065
H54	H	0.618144	-0.330139	-0.424527
C55	C	0.943041	-0.672226	-0.233900
C56	C	0.928790	-0.764897	-0.219605
H57	H	0.912605	-0.640318	-0.203431
H58	H	0.993210	-0.656749	-0.223901
H59	H	0.932958	-0.656761	-0.284065
H60	H	0.938878	-0.780363	-0.169441
H61	H	0.878610	-0.780379	-0.229599
H62	H	0.468773	-0.539253	-0.243607
H63	H	0.478716	-0.330155	-0.424529
H64	H	0.608215	-0.539241	-0.243592
H65	H	0.933606	-0.949248	-0.224383
C66	C	1.201657	-1.042235	-0.492836
C67	C	1.157516	-1.103563	-0.448609
H68	H	1.232089	-1.074146	-0.523307
H69	H	1.171286	-1.005495	-0.522676
H70	H	1.231542	-1.005482	-0.462516
H71	H	1.127627	-1.140312	-0.478928
H72	H	1.187891	-1.140319	-0.418766
H73	H	0.952819	-0.539221	-0.759757
C74	C	1.164710	-0.825701	-0.455895
C75	C	1.126285	-0.764526	-0.417413
H76	H	1.198113	-0.793672	-0.489377
H77	H	1.191172	-0.862445	-0.422136
H78	H	1.130903	-0.862466	-0.482282
H79	H	1.160091	-0.727766	-0.391021
H80	H	1.099821	-0.727767	-0.451177
C81	C	1.136083	-0.224046	-0.906485
C82	C	1.147737	-0.313390	-0.920847
H83	H	1.169887	-0.184885	-0.934412
H84	H	1.087271	-0.210837	-0.919703
H85	H	1.143201	-0.215822	-0.855600
H86	H	1.140614	-0.321616	-0.971731
H87	H	1.196561	-0.326603	-0.907634
H88	H	1.152713	-0.919225	-0.443831
H89	H	0.974056	-1.090496	-0.264865
H90	H	1.133526	-0.329877	-0.769687
H91	H	0.952850	-0.539174	-0.899201
