data_functionalizedCrystal
_audit_creation_method	'MofGen! by Chris Wilmer'
_symmetry_space_group_name_H-M	'P1'
_symmetry_Int_Tables_number	1
_symmetry_cell_setting	triclinic
loop_
_symmetry_equiv_pos_as_xyz
  x,y,z
_cell_length_a	17.699077
_cell_length_b	14.044220
_cell_length_c	16.776229
_cell_angle_alpha	89.992645
_cell_angle_beta	89.993415
_cell_angle_gamma	88.234727
loop_
_atom_site_label
_atom_site_type_symbol
_atom_site_fract_x
_atom_site_fract_y
_atom_site_fract_z
O1	O	1.012347	0.119823	-0.066280
O2	O	0.793044	0.135422	-0.066284
O3	O	0.899404	-0.010355	-0.066274
O4	O	0.905987	0.265599	-0.066290
O5	O	0.899388	-0.010364	0.066302
O6	O	0.793028	0.135413	0.066293
O7	O	1.012331	0.119814	0.066297
Zn8	Zn	0.902677	0.127612	0.087344
Zn9	Zn	0.902698	0.127624	-0.087331
O10	O	0.905971	0.265590	0.066287
C11	C	0.764800	0.134859	0.000004
C12	C	0.680667	0.133185	0.000002
C13	C	0.641136	0.132392	0.072271
C14	C	0.562084	0.130804	0.072272
C15	C	0.522564	0.130016	0.000004
C16	C	0.562100	0.130807	-0.072270
C17	C	0.641151	0.132388	-0.072271
C18	C	0.243297	0.124429	-0.072272
C19	C	0.164240	0.122851	-0.072266
C20	C	0.164230	0.122845	0.072271
C21	C	0.243281	0.124426	0.072271
C22	C	0.282810	0.125212	-0.000003
C23	C	0.368528	0.126932	-0.000003
C24	C	0.436848	0.128303	0.000003
C25	C	0.896514	-0.045667	0.000014
C26	C	0.887918	-0.150873	0.000015
C27	C	0.872203	-0.343497	0.000004
C28	C	0.933169	-0.401273	0.000002
C29	C	0.924425	-0.508456	-0.000004
C30	C	0.880946	-0.236304	0.000010
C31	C	1.040575	0.120376	0.000007
C32	C	1.124708	0.122050	0.000003
C33	C	0.908861	0.300903	-0.000003
C34	C	0.917457	0.406108	-0.000010
N35	N	0.902668	0.127603	0.206555
N36	N	0.902712	0.127625	-0.206542
C37	C	0.949782	0.063080	0.248277
C38	C	0.949786	0.063079	0.331729
C39	C	0.902680	0.127607	0.373458
C40	C	0.855561	0.192133	0.331731
C41	C	0.855553	0.192129	0.248280
C42	C	0.855589	0.192152	0.668278
C43	C	0.855602	0.192153	0.751735
C44	C	0.949822	0.063102	0.751727
C45	C	0.949814	0.063098	0.668276
C46	C	0.902693	0.127620	0.626556
C47	C	0.902688	0.127619	0.536068
C48	C	0.902688	0.127613	0.463945
H49	H	0.673335	0.133036	-0.131119
H50	H	0.991931	-0.370238	-0.000050
C51	C	1.000984	-0.007069	0.623115
C52	C	1.042231	-0.063596	0.677515
C53	C	1.089367	-0.128256	0.635944
H54	H	1.034847	0.026859	0.590544
H55	H	0.971110	-0.046531	0.590592
H56	H	1.072103	-0.024139	0.710025
H57	H	1.008388	-0.097545	0.710088
H58	H	1.059493	-0.167718	0.603420
H59	H	1.123225	-0.094320	0.603374
H60	H	1.117354	-0.166623	0.672848
H61	H	0.817223	0.244690	0.634316
C62	C	0.793918	-0.385054	0.000047
C63	C	0.800702	-0.484644	0.000064
C64	C	0.728604	-0.522970	0.000118
H65	H	0.767139	-0.364297	-0.046169
H66	H	0.767193	-0.364263	0.046301
H67	H	0.827416	-0.505426	-0.046186
H68	H	0.827468	-0.505427	0.046277
H69	H	0.701878	-0.502180	0.046373
H70	H	0.701829	-0.502207	-0.046098
H71	H	0.733196	-0.590546	0.000138
C72	C	1.000954	-0.007087	0.203119
C73	C	1.042198	-0.063611	0.257523
C74	C	1.089337	-0.128272	0.215955
H75	H	1.034818	0.026841	0.170549
H76	H	0.971082	-0.046550	0.170594
H77	H	1.072068	-0.024153	0.290033
H78	H	1.008354	-0.097560	0.290094
H79	H	1.059466	-0.167735	0.183431
H80	H	1.123197	-0.094336	0.183387
H81	H	1.117323	-0.166637	0.252862
C82	C	1.000816	-0.007082	0.377064
C83	C	0.956602	-0.065061	0.424973
C84	C	1.003587	-0.129717	0.466736
H85	H	1.034632	0.026851	0.409671
H86	H	1.028856	-0.045560	0.340280
H87	H	0.928575	-0.026588	0.461752
H88	H	0.922788	-0.099015	0.392386
H89	H	1.031627	-0.168195	0.429953
H90	H	1.037401	-0.095776	0.499339
H91	H	0.973595	-0.169069	0.499242
C92	C	0.519056	0.129997	-0.150652
C93	C	0.441364	0.128470	-0.135186
C94	C	0.401691	0.127740	-0.207373
H95	H	0.533967	0.075026	-0.180402
H96	H	0.529927	0.185524	-0.180356
H97	H	0.430499	0.072949	-0.105495
H98	H	0.426432	0.183437	-0.105447
H99	H	0.412561	0.183267	-0.237077
H100	H	0.416607	0.072767	-0.237118
H101	H	0.348973	0.126713	-0.196889
H102	H	0.817188	0.244669	0.214311
H103	H	0.988188	0.010561	0.785704
H104	H	0.817240	0.244702	0.785709
H105	H	0.529902	0.130142	0.131120
H106	H	0.817202	0.244670	0.365712
H107	H	0.275454	0.125072	0.131119
H108	H	0.673308	0.133041	0.131120
H109	H	0.132036	0.122201	0.131119
H110	H	0.275472	0.125066	-0.131121
C111	C	0.121469	0.121945	-0.150817
C112	C	0.173007	0.122945	-0.214112
C113	C	0.133634	0.122100	-0.286479
H114	H	0.088586	0.176560	-0.153939
H115	H	0.092691	0.066062	-0.153854
H116	H	0.201771	0.178821	-0.211076
H117	H	0.205891	0.068334	-0.211016
H118	H	0.104856	0.066217	-0.289517
H119	H	0.100752	0.176715	-0.289593
H120	H	0.168596	0.122769	-0.329433
