data_functionalizedCrystal
_audit_creation_method	'MofGen! by Chris Wilmer'
_symmetry_space_group_name_H-M	'P1'
_symmetry_Int_Tables_number	1
_symmetry_cell_setting	triclinic
loop_
_symmetry_equiv_pos_as_xyz
  x,y,z
_cell_length_a	25.639239
_cell_length_b	25.639243
_cell_length_c	12.759387
_cell_angle_alpha	89.974496
_cell_angle_beta	90.036418
_cell_angle_gamma	89.958634
loop_
_atom_site_label
_atom_site_type_symbol
_atom_site_fract_x
_atom_site_fract_y
_atom_site_fract_z
Zn1	Zn	-0.208086	-0.799274	0.594104
Zn2	Zn	-0.295532	-0.799183	0.418407
Zn3	Zn	-0.208116	-0.711836	0.418426
Zn4	Zn	-0.295496	-0.711796	0.594031
O5	O	-0.251807	-0.755522	0.506242
O6	O	-0.219688	-0.872427	0.570820
O7	O	-0.283963	-0.787575	0.271388
O8	O	-0.134947	-0.723490	0.441768
O9	O	-0.283934	-0.872360	0.441737
O10	O	-0.134925	-0.787730	0.570838
O11	O	-0.219739	-0.723402	0.271402
O12	O	-0.219705	-0.638665	0.441697
O13	O	-0.283873	-0.723421	0.741062
O14	O	-0.283903	-0.638636	0.570714
O15	O	-0.219653	-0.787691	0.741116
O16	O	-0.368692	-0.787536	0.441666
O17	O	-0.368666	-0.723333	0.570696
C18	C	-0.251804	-0.619680	0.506200
C19	C	-0.251815	-0.561566	0.506207
C20	C	-0.218407	-0.201232	0.573567
C21	C	-0.218406	-0.146627	0.573573
O22	O	-0.189992	-0.118416	0.630794
N23	N	-0.251805	-0.119283	0.506270
C24	C	-0.285204	-0.146546	0.438948
O25	O	-0.313612	-0.118273	0.381701
C26	C	-0.285201	-0.201149	0.438937
C27	C	-0.251803	-0.228491	0.506253
C28	C	-0.185011	-0.228573	0.640876
C29	C	-0.185013	-0.283174	0.640871
C30	C	-0.218409	-0.310433	0.573556
C31	C	-0.251805	-0.283091	0.506247
C32	C	-0.318596	-0.228411	0.371610
C33	C	-0.318590	-0.283018	0.371605
C34	C	-0.285193	-0.310360	0.438920
C35	C	-0.285203	-0.364951	0.438927
N36	N	-0.251803	-0.392295	0.506231
C37	C	-0.218407	-0.365036	0.573545
C38	C	-0.285206	-0.031875	0.438975
C39	C	-0.285211	0.022727	0.438990
C40	C	-0.218413	0.022642	0.573615
C41	C	-0.218410	-0.031962	0.573604
C42	C	-0.251806	-0.059220	0.506278
C43	C	-0.218412	-0.479701	0.573530
C44	C	-0.218418	-0.534307	0.573522
C45	C	-0.285214	-0.534217	0.438894
C46	C	-0.285211	-0.479616	0.438905
C47	C	-0.251805	-0.452360	0.506227
O48	O	-0.313601	-0.393197	0.381733
O49	O	-0.189998	-0.393315	0.630773
C50	C	-0.387650	-0.755434	0.506194
C51	C	-0.445764	-0.755444	0.506208
C52	C	-0.806128	-0.789040	0.439171
C53	C	-0.860732	-0.789060	0.439185
O54	O	-0.888970	-0.817533	0.382134
N55	N	-0.888046	-0.755614	0.506312
C56	C	-0.860753	-0.722149	0.573437
O57	O	-0.889000	-0.693703	0.630535
C58	C	-0.806150	-0.722132	0.573427
C59	C	-0.778839	-0.755577	0.506288
C60	C	-0.778817	-0.822482	0.372038
C61	C	-0.724216	-0.822461	0.372023
C62	C	-0.696927	-0.788998	0.439140
C63	C	-0.724238	-0.755556	0.506273
C64	C	-0.778858	-0.688670	0.640556
C65	C	-0.724251	-0.688656	0.640542
C66	C	-0.696940	-0.722101	0.573403
C67	C	-0.642349	-0.722071	0.573375
N68	N	-0.615034	-0.755517	0.506248
C69	C	-0.642324	-0.788981	0.439131
C70	C	-0.975424	-0.722189	0.573453
C71	C	-1.030026	-0.722203	0.573458
C72	C	-1.030001	-0.789115	0.439207
C73	C	-0.975398	-0.789098	0.439197
C74	C	-0.948110	-0.755635	0.506326
C75	C	-0.527659	-0.788934	0.439103
C76	C	-0.473053	-0.788908	0.439091
C77	C	-0.473083	-0.721998	0.573345
C78	C	-0.527683	-0.722022	0.573354
C79	C	-0.554970	-0.755493	0.506230
O80	O	-0.614076	-0.693614	0.630400
O81	O	-0.614070	-0.817427	0.382051
C82	C	-0.115434	-0.755625	0.506313
C83	C	-0.057320	-0.755668	0.506344
C84	C	-0.251756	-0.755562	0.780276
C85	C	-0.251734	-0.755579	0.897052
C86	C	-0.251811	0.108105	0.506284
C87	C	-0.251812	0.049991	0.506301
C88	C	-0.251821	-0.755513	0.233274
C89	C	-0.251695	-0.755597	0.116498
C90	C	-0.184866	-0.822508	0.897128
C91	C	-0.151425	-0.855979	0.952027
C92	C	-0.151406	-0.855992	1.061748
C93	C	-0.184831	-0.822528	1.116574
C94	C	-0.218273	-0.789057	1.061675
C95	C	-0.218289	-0.789049	0.951951
C96	C	-0.285137	-0.722126	1.061600
C97	C	-0.285160	-0.722115	0.951878
C98	C	-0.318562	-0.688662	1.116425
C99	C	-0.352007	-0.655192	1.061527
C100	C	-0.352026	-0.655181	0.951798
C101	C	-0.318601	-0.688643	0.896979
H102	H	-0.191209	-0.457516	0.628346
H103	H	-0.450855	-0.694751	0.627988
C104	C	-0.557301	-0.825346	0.366407
C105	C	-0.588573	-0.858868	0.425968
C106	C	-0.615879	-0.892424	0.359037
H107	H	-0.578686	-0.805436	0.320563
H108	H	-0.533220	-0.845287	0.326455
H109	H	-0.612650	-0.838929	0.465902
H110	H	-0.567201	-0.878789	0.471809
H111	H	-0.591798	-0.912365	0.319086
H112	H	-0.637261	-0.872510	0.313197
H113	H	-0.637096	-0.915175	0.399440
H114	H	-0.702036	-0.661407	0.695209
C115	C	-0.945893	-0.685792	0.646370
C116	C	-0.981506	-0.656499	0.705132
C117	C	-0.954325	-0.622962	0.772305
H118	H	-0.924553	-0.705712	0.692281
H119	H	-0.924643	-0.662985	0.606157
H120	H	-1.002747	-0.679303	0.745342
H121	H	-1.002848	-0.636569	0.659249
H122	H	-0.933075	-0.600155	0.732091
H123	H	-0.932986	-0.642886	0.818208
H124	H	-0.978484	-0.603079	0.812176
C125	C	-0.148687	-0.312760	0.713985
C126	C	-0.119432	-0.277192	0.772906
C127	C	-0.085955	-0.304423	0.840257
H128	H	-0.168649	-0.334063	0.759788
H129	H	-0.125853	-0.334052	0.673894
H130	H	-0.142263	-0.255908	0.812994
H131	H	-0.099460	-0.255888	0.727131
H132	H	-0.063121	-0.325716	0.800167
H133	H	-0.105920	-0.325725	0.886053
H134	H	-0.066098	-0.280294	0.880236
H135	H	-0.379252	-0.627918	0.907106
H136	H	-0.184883	-0.822505	0.807787
C137	C	-0.808345	-0.858836	0.299041
C138	C	-0.772729	-0.888106	0.240239
C139	C	-0.799907	-0.921594	0.172962
H140	H	-0.829611	-0.881664	0.339148
H141	H	-0.829669	-0.838866	0.253168
H142	H	-0.751413	-0.908074	0.286106
H143	H	-0.751462	-0.865291	0.200110
H144	H	-0.821231	-0.901623	0.127089
H145	H	-0.821172	-0.944418	0.213077
H146	H	-0.775746	-0.941454	0.133050
C147	C	-0.182117	-0.061710	0.646514
C148	C	-0.148574	-0.093073	0.587149
C149	C	-0.115135	-0.120487	0.654280
H150	H	-0.162180	-0.037711	0.686628
H151	H	-0.202127	-0.083041	0.692200
H152	H	-0.128566	-0.071744	0.541482
H153	H	-0.168496	-0.117082	0.547037
H154	H	-0.135145	-0.141817	0.699966
H155	H	-0.095202	-0.096483	0.694391
H156	H	-0.092376	-0.141773	0.614012
C157	C	-0.321389	-0.449862	0.365765
C158	C	-0.291744	-0.418515	0.298548
C159	C	-0.325050	-0.391098	0.231157
H160	H	-0.341291	-0.473861	0.325578
H161	H	-0.344185	-0.428522	0.405838
H162	H	-0.268957	-0.439854	0.258478
H163	H	-0.271843	-0.394507	0.338705
H164	H	-0.347847	-0.369757	0.271230
H165	H	-0.344951	-0.415100	0.190978
H166	H	-0.304942	-0.369822	0.185549
H167	H	-0.701982	-0.849696	0.317356
C168	C	-0.321504	-0.061534	0.366056
C169	C	-0.355042	-0.092883	0.425415
C170	C	-0.388482	-0.120214	0.358280
H171	H	-0.341444	-0.037485	0.325957
H172	H	-0.301495	-0.082867	0.320358
H173	H	-0.375049	-0.071552	0.471095
H174	H	-0.335117	-0.116942	0.465513
H175	H	-0.368473	-0.141547	0.312581
H176	H	-0.408419	-0.096161	0.318183
H177	H	-0.411238	-0.141491	0.398544
H178	H	-1.052259	-0.694964	0.628119
H179	H	-1.052230	-0.816364	0.384560
H180	H	-0.801086	-0.661433	0.695223
H181	H	-0.345785	-0.305209	0.316777
H182	H	-0.549921	-0.694790	0.628027
C183	C	-0.388274	-0.618920	1.121240
C184	C	-0.381105	-0.626101	1.229079
C185	C	-0.414511	-0.592702	1.284123
H186	H	-0.380656	-0.583774	1.103369
H187	H	-0.423420	-0.626547	1.103308
H188	H	-0.345967	-0.618470	1.247003
H189	H	-0.388726	-0.661241	1.246980
H190	H	-0.449656	-0.600329	1.266191
H191	H	-0.406890	-0.557558	1.266244
H192	H	-0.409655	-0.597573	1.357296
H193	H	-0.191218	0.044846	0.628423
C194	C	-0.115196	-0.892294	0.892312
C195	C	-0.122379	-0.885133	0.784472
C196	C	-0.089020	-0.918581	0.729435
H197	H	-0.080040	-0.884711	0.910182
H198	H	-0.122859	-0.927429	0.910250
H199	H	-0.114713	-0.850006	0.766541
H200	H	-0.157528	-0.892720	0.766571
H201	H	-0.096683	-0.953716	0.747373
H202	H	-0.053867	-0.910995	0.747313
H203	H	-0.093893	-0.913731	0.656260
H204	H	-0.157813	-0.206385	0.695692
C205	C	-0.318722	-0.688580	0.777852
C206	C	-0.355173	-0.652117	0.741503
C207	C	-0.355305	-0.652052	0.631769
H208	H	-0.285018	-0.679550	0.752905
H209	H	-0.327801	-0.722303	0.753019
H210	H	-0.346092	-0.618401	0.766326
H211	H	-0.388884	-0.661139	0.766422
H212	H	-0.364383	-0.685776	0.606936
H213	H	-0.321598	-0.643023	0.606832
H214	H	-0.380040	-0.627316	0.607093
C215	C	-0.115078	-0.892389	1.121170
C216	C	-0.085817	-0.921700	1.049679
C217	C	-0.052352	-0.955239	1.104380
H218	H	-0.092243	-0.872469	1.163983
H219	H	-0.135064	-0.915185	1.163948
H220	H	-0.065832	-0.898908	1.006920
H221	H	-0.108638	-0.941631	1.006864
H222	H	-0.072338	-0.978034	1.147157
H223	H	-0.029521	-0.935315	1.147190
H224	H	-0.032498	-0.975134	1.055882
C225	C	-0.321496	0.052314	0.365798
C226	C	-0.350733	0.016748	0.306833
C227	C	-0.384158	0.043982	0.239381
H228	H	-0.344348	0.073624	0.405786
H229	H	-0.301482	0.073600	0.320035
H230	H	-0.370745	-0.004529	0.352590
H231	H	-0.327894	-0.004563	0.266824
H232	H	-0.364143	0.065268	0.193618
H233	H	-0.407006	0.065291	0.279377
H234	H	-0.403995	0.019855	0.199359
C235	C	-0.443469	-0.825193	0.366025
C236	C	-0.456816	-0.813849	0.262059
C237	C	-0.429581	-0.847267	0.194727
H238	H	-0.407032	-0.820423	0.375480
H239	H	-0.452385	-0.860330	0.381412
H240	H	-0.447896	-0.778720	0.246678
H241	H	-0.493248	-0.818622	0.252572
H242	H	-0.438497	-0.882404	0.210114
H243	H	-0.393145	-0.842495	0.204191
H244	H	-0.438636	-0.839579	0.124180
C245	C	-0.354873	-0.198830	0.298399
C246	C	-0.384102	-0.234400	0.239430
C247	C	-0.417522	-0.207170	0.171960
H248	H	-0.377730	-0.177519	0.338374
H249	H	-0.334856	-0.177545	0.252641
H250	H	-0.404119	-0.255675	0.285183
H251	H	-0.361259	-0.255711	0.199433
H252	H	-0.397504	-0.185885	0.126201
H253	H	-0.440375	-0.185860	0.211943
H254	H	-0.437354	-0.231300	0.131934
H255	H	-0.318542	-0.688673	1.205766
C256	C	-0.945721	-0.825325	0.366179
C257	C	-0.914437	-0.795731	0.298756
C258	C	-0.887099	-0.829087	0.231467
H259	H	-0.924340	-0.848101	0.406285
H260	H	-0.969781	-0.845245	0.326148
H261	H	-0.890379	-0.775819	0.338784
H262	H	-0.935804	-0.772955	0.258628
H263	H	-0.911160	-0.849007	0.191436
H264	H	-0.865721	-0.851861	0.271581
H265	H	-0.865873	-0.809012	0.185707
C266	C	-0.184748	-0.822633	1.235701
C267	C	-0.148314	-0.859114	1.272044
C268	C	-0.148229	-0.859229	1.381778
H269	H	-0.175680	-0.788933	1.260637
H270	H	-0.218475	-0.831675	1.260550
H271	H	-0.114594	-0.850070	1.247206
H272	H	-0.157373	-0.892819	1.247137
H273	H	-0.181956	-0.868271	1.406627
H274	H	-0.139162	-0.825528	1.406704
H275	H	-0.123512	-0.883984	1.406451
H276	H	-0.191221	-0.556566	0.628342
H277	H	-0.312406	-0.556421	0.384090
