data_functionalizedCrystal
_audit_creation_method	'MofGen! by Chris Wilmer'
_symmetry_space_group_name_H-M	'P1'
_symmetry_Int_Tables_number	1
_symmetry_cell_setting	triclinic
loop_
_symmetry_equiv_pos_as_xyz
  x,y,z
_cell_length_a	15.944493
_cell_length_b	14.421503
_cell_length_c	14.044220
_cell_angle_alpha	89.999698
_cell_angle_beta	91.668039
_cell_angle_gamma	89.992353
loop_
_atom_site_label
_atom_site_type_symbol
_atom_site_fract_x
_atom_site_fract_y
_atom_site_fract_z
O1	O	1.123675	0.077102	-0.121980
O2	O	1.623675	0.577102	0.378020
O3	O	0.880251	0.077107	-0.137109
O4	O	1.380251	0.577107	0.362891
O5	O	0.998309	0.077095	0.008439
O6	O	1.498309	0.577095	0.508439
O7	O	1.005617	0.077113	-0.267529
O8	O	1.505617	0.577113	0.232471
O9	O	0.998326	-0.077128	0.008430
O10	O	1.498326	0.422872	0.508430
O11	O	0.880268	-0.077117	-0.137119
O12	O	1.380268	0.422883	0.362881
O13	O	1.123691	-0.077122	-0.121989
O14	O	1.623691	0.422878	0.378011
Cu15	Cu	1.001981	-0.091201	-0.129555
Cu16	Cu	1.501981	0.408799	0.370445
Cu17	Cu	1.001962	0.091186	-0.129544
Cu18	Cu	1.501962	0.591186	0.370456
O19	O	1.005633	-0.077110	-0.267538
O20	O	1.505633	0.422890	0.232462
C21	C	0.848918	-0.000004	-0.136496
C22	C	1.348918	0.499996	0.363504
C23	C	0.755531	-0.000003	-0.134642
C24	C	1.255531	0.499997	0.365358
C25	C	0.526186	0.000003	-0.220315
C26	C	1.026186	0.500003	0.279685
C27	C	0.472177	-0.076044	-0.174119
C28	C	0.972177	0.423956	0.325881
C29	C	0.584553	-0.000005	-0.131207
C30	C	1.084553	0.499995	0.368793
C31	C	0.472163	0.076008	-0.174089
C32	C	0.972163	0.576008	0.325911
C33	C	0.419395	-0.000003	-0.127895
C34	C	0.919395	0.499997	0.372105
C35	C	0.531773	-0.076115	-0.085035
C36	C	1.031773	0.423885	0.414965
C37	C	0.531764	0.076006	-0.085018
C38	C	1.031764	0.576006	0.414982
C39	C	0.477783	-0.000060	-0.038757
C40	C	0.977783	0.499940	0.461243
C41	C	0.679696	-0.000007	-0.133117
C42	C	1.179696	0.499993	0.366883
C43	C	0.324255	-0.000007	-0.125978
C44	C	0.824255	0.499993	0.374022
N45	N	1.002001	-0.219482	-0.129562
N46	N	1.502001	0.280518	0.370438
C47	C	1.056602	-0.469116	-0.062246
C48	C	1.556602	0.030884	0.437754
C49	C	0.979323	-0.530913	-0.043850
C50	C	1.479323	-0.030913	0.456150
C51	C	1.001981	-0.408644	-0.129551
C52	C	1.501981	0.091356	0.370449
C53	C	1.079238	-0.530941	-0.147891
C54	C	1.579238	-0.030941	0.352109
C55	C	1.001969	-0.591365	-0.129537
C56	C	1.501969	-0.091365	0.370463
C57	C	0.924661	-0.469080	-0.111113
C58	C	1.424661	0.030920	0.388887
C59	C	1.024628	-0.469102	-0.215191
C60	C	1.524628	0.030898	0.284809
C61	C	0.947297	-0.530871	-0.196832
C62	C	1.447297	-0.030871	0.303168
C63	C	1.001989	-0.303382	-0.129556
C64	C	1.501989	0.196618	0.370444
C65	C	1.001952	-0.696624	-0.129533
C66	C	1.501952	-0.196624	0.370467
C67	C	1.155024	-0.000008	-0.122603
C68	C	1.655024	0.499992	0.377397
C69	C	1.248411	-0.000004	-0.124457
C70	C	1.748411	0.499996	0.375543
C71	C	0.995119	-0.000017	0.043749
C72	C	1.495119	0.499983	0.543749
C73	C	0.985577	-0.000018	0.148973
C74	C	1.485577	0.499982	0.648973
N75	N	1.001948	0.219467	-0.129529
N76	N	1.501948	0.719467	0.370471
C77	C	1.008824	0.000004	-0.302847
C78	C	1.508824	0.500004	0.197153
C79	C	1.018365	0.000011	-0.408071
C80	C	1.518365	0.500011	0.091929
C81	C	0.968134	-0.000004	0.341631
C82	C	1.468134	0.499996	0.841631
C83	C	1.035805	-0.000003	0.399276
C84	C	1.535805	0.499997	0.899276
C85	C	1.026099	0.000005	0.506478
C86	C	1.526099	0.500005	1.006478
C87	C	0.977838	-0.000012	0.234419
C88	C	1.477838	0.499988	0.734419
H89	H	0.547557	-0.000063	-0.297072
H90	H	1.047557	0.499937	0.202928
H91	H	0.859299	-0.442021	-0.095513
H92	H	1.359299	0.057979	0.404487
N93	N	0.439408	-0.156697	-0.221308
N94	N	0.939408	0.343303	0.278692
N95	N	0.459553	-0.235618	-0.191801
N96	N	0.959553	0.264382	0.308199
H97	H	0.436411	-0.292578	-0.225131
H98	H	0.936411	0.207422	0.274869
H99	H	1.144578	-0.558113	-0.163409
H100	H	1.644578	-0.058113	0.336591
H101	H	0.456565	-0.000109	0.038059
H102	H	0.956565	0.499891	0.538059
N103	N	1.117637	-0.000008	0.360209
N104	N	1.617637	0.499992	0.860209
N105	N	1.167330	0.064994	0.378732
N106	N	1.667330	0.564994	0.878732
H107	H	1.225123	0.064988	0.351139
H108	H	1.725123	0.564988	0.851139
N109	N	0.886306	-0.000002	0.380693
N110	N	1.386306	0.499998	0.880693
N111	N	0.836597	0.064998	0.362163
N112	N	1.336597	0.564998	0.862163
H113	H	0.778805	0.064996	0.389758
H114	H	1.278805	0.564996	0.889758
N115	N	0.564551	0.156674	-0.037885
N116	N	1.064551	0.656674	0.462115
N117	N	0.608587	0.212845	-0.082218
N118	N	1.108587	0.712845	0.417782
H119	H	0.631743	0.269830	-0.048947
H120	H	1.131743	0.769830	0.451053
N121	N	0.564419	-0.156846	-0.037862
N122	N	1.064419	0.343154	0.462138
N123	N	0.641892	-0.169891	-0.031725
N124	N	1.141892	0.330109	0.468275
H125	H	0.664951	-0.226907	0.001588
H126	H	1.164951	0.273093	0.501588
H127	H	0.446037	0.140291	-0.211735
H128	H	0.946037	0.640291	0.288265
N129	N	0.889270	-0.564671	-0.268226
N130	N	1.389270	-0.064671	0.231774
N131	N	0.813167	-0.544649	-0.264374
N132	N	1.313167	-0.044649	0.235626
H133	H	0.772182	-0.568523	-0.314792
H134	H	1.272182	-0.068523	0.185208
H135	H	1.043815	-0.441930	-0.287597
H136	H	1.543815	0.058070	0.212403
H137	H	1.102738	-0.442000	-0.005296
H138	H	1.602738	0.058000	0.494704
N139	N	0.955284	-0.564966	0.047015
N140	N	1.455284	-0.064966	0.547015
N141	N	0.998186	-0.545176	0.120112
N142	N	1.498186	-0.045176	0.620112
H143	H	0.981213	-0.569222	0.184289
H144	H	1.481213	-0.069222	0.684289
