data_functionalizedCrystal
_audit_creation_method	'MofGen! by Chris Wilmer'
_symmetry_space_group_name_H-M	'P1'
_symmetry_Int_Tables_number	1
_symmetry_cell_setting	triclinic
loop_
_symmetry_equiv_pos_as_xyz
  x,y,z
_cell_length_a	10.723024
_cell_length_b	10.723024
_cell_length_c	15.186229
_cell_angle_alpha	89.996943
_cell_angle_beta	90.001675
_cell_angle_gamma	95.532131
loop_
_atom_site_label
_atom_site_type_symbol
_atom_site_fract_x
_atom_site_fract_y
_atom_site_fract_z
O1	O	-0.175026	1.657187	-0.073219
O2	O	-0.191779	1.294034	-0.073221
O3	O	-0.001826	1.483987	-0.073219
O4	O	-0.364978	1.467234	-0.073221
O5	O	-0.001823	1.483974	0.073239
O6	O	-0.191776	1.294021	0.073236
O7	O	-0.175023	1.657174	0.073239
Zn8	Zn	-0.183399	1.475596	0.096491
Zn9	Zn	-0.183403	1.475612	-0.096473
O10	O	-0.364976	1.467221	0.073236
C11	C	-0.190558	1.247528	0.000007
C12	C	-0.186911	1.108974	0.000006
C13	C	-0.293198	1.033991	0.000005
C14	C	-0.289431	0.890788	0.000004
C15	C	-0.411477	1.468447	0.000007
C16	C	-0.550031	1.472094	0.000006
C17	C	-0.625014	1.365807	0.000005
C18	C	-0.768217	1.369574	0.000004
C19	C	0.044675	1.482762	0.000009
C20	C	0.183229	1.479114	0.000004
C21	C	-0.176243	1.703680	0.000009
C22	C	-0.179891	1.842234	0.000004
N23	N	-0.183396	1.475593	0.228183
N24	N	-0.183396	1.475625	-0.228166
C25	C	-0.099313	1.559733	0.453907
C26	C	-0.099311	1.559737	0.546097
C27	C	-0.267482	1.391475	0.546104
C28	C	-0.267478	1.391466	0.453916
C29	C	-0.183395	1.475602	0.407820
C30	C	-0.183397	1.475615	0.592198
C31	C	-0.183394	1.475619	0.692154
C32	C	-0.183396	1.475598	0.307858
H33	H	-0.386984	1.075814	0.000009
H34	H	-0.380421	0.826355	-0.000001
C35	C	-0.006829	1.652276	0.403201
H36	H	-0.018876	1.640234	0.341695
H37	H	0.076583	1.638022	0.418311
H38	H	-0.021157	1.735676	0.418305
H39	H	-0.088896	0.906659	-0.000001
C40	C	-0.006823	1.652279	0.596794
H41	H	-0.018854	1.640228	0.658300
H42	H	-0.021133	1.735676	0.581680
H43	H	0.076591	1.638005	0.581686
C44	C	-0.729750	1.602048	0.000006
H45	H	-0.778790	1.671260	0.000013
H46	H	-0.678386	1.605373	-0.051064
H47	H	-0.678393	1.605361	0.051088
H48	H	-0.583191	1.272021	-0.000000
H49	H	-0.335948	1.322951	0.416389
C50	C	-0.359940	1.298903	0.596808
H51	H	-0.409997	1.248778	0.556154
H52	H	-0.412314	1.344202	0.632778
H53	H	-0.314533	1.246589	0.632762
C54	C	-0.060206	1.052495	0.000007
H55	H	0.005989	1.118108	0.000014
H56	H	-0.054214	1.002275	-0.051064
H57	H	-0.054215	1.002273	0.051088
H58	H	-0.832650	1.278584	0.000008
H59	H	-0.591853	1.565880	-0.000025
