data_functionalizedCrystal
_audit_creation_method	'MofGen! by Chris Wilmer'
_symmetry_space_group_name_H-M	'P1'
_symmetry_Int_Tables_number	1
_symmetry_cell_setting	triclinic
loop_
_symmetry_equiv_pos_as_xyz
  x,y,z
_cell_length_a	14.853567
_cell_length_b	14.853567
_cell_length_c	13.330367
_cell_angle_alpha	89.999156
_cell_angle_beta	89.995418
_cell_angle_gamma	83.634930
loop_
_atom_site_label
_atom_site_type_symbol
_atom_site_fract_x
_atom_site_fract_y
_atom_site_fract_z
O1	O	1.196369	0.117704	-0.083346
O2	O	0.933909	0.131725	-0.083362
O3	O	1.072150	-0.006515	-0.083356
O4	O	1.058128	0.255944	-0.083351
O5	O	1.072130	-0.006519	0.083491
O6	O	0.933889	0.131722	0.083485
O7	O	1.196349	0.117700	0.083501
Cu8	Cu	1.065117	0.124711	0.098728
Cu9	Cu	1.065141	0.124715	-0.098588
O10	O	1.058108	0.255941	0.083496
C11	C	0.900311	0.131088	0.000060
C12	C	0.800227	0.129184	0.000053
C13	C	1.071504	-0.040106	0.000064
C14	C	1.069601	-0.140189	0.000055
C15	C	0.979435	-0.552723	0.000069
C16	C	1.143668	-0.574004	0.000079
C17	C	1.145458	-0.479971	0.000073
C18	C	1.064235	-0.422309	0.000067
C19	C	0.981223	-0.458680	0.000066
C20	C	1.228469	-0.443591	0.000084
C21	C	1.230262	-0.349552	0.000079
C22	C	1.149039	-0.291889	0.000066
C23	C	1.066023	-0.328266	0.000064
C24	C	0.984800	-0.270604	0.000058
C25	C	0.901783	-0.306979	0.000049
C26	C	0.899999	-0.401017	0.000053
C27	C	1.150823	-0.197851	0.000062
C28	C	0.986588	-0.176561	0.000055
C29	C	0.387693	0.039019	0.000074
C30	C	0.366412	0.203251	0.000076
C31	C	0.460446	0.205042	0.000073
C32	C	0.518108	0.123819	0.000069
C33	C	0.481736	0.040806	0.000067
C34	C	0.496825	0.288053	0.000064
C35	C	0.590864	0.289846	0.000059
C36	C	0.648528	0.208623	0.000062
C37	C	0.612150	0.125607	0.000062
C38	C	0.669812	0.044384	0.000058
C39	C	0.633437	-0.038633	0.000065
C40	C	0.539399	-0.040417	0.000070
C41	C	0.742565	0.210407	0.000057
C42	C	0.763855	0.046172	0.000052
C43	C	1.229947	0.118337	0.000078
C44	C	1.330031	0.120241	0.000078
C45	C	1.058754	0.289531	0.000073
C46	C	1.060657	0.389615	0.000075
N47	N	1.065107	0.124708	0.237509
N48	N	1.065158	0.124711	-0.237370
C49	C	1.003925	0.185903	0.710130
C50	C	1.126381	0.063519	0.710103
C51	C	1.126371	0.063516	0.605084
C52	C	1.065138	0.124709	0.552584
C53	C	1.003915	0.185904	0.605102
C54	C	1.187598	0.002328	0.552559
C55	C	1.187591	0.002323	0.447534
C56	C	1.126353	0.063512	0.395031
C57	C	1.065127	0.124710	0.447556
C58	C	1.003895	0.185902	0.395055
C59	C	0.942664	0.247096	0.447578
C60	C	0.942677	0.247093	0.552599
C61	C	1.126340	0.063515	0.290010
C62	C	1.003884	0.185903	0.290027
H63	H	0.920445	-0.129618	0.000045
C64	C	0.347680	-0.052296	0.000081
N65	N	0.317540	-0.121075	0.000086
H66	H	0.319459	0.269379	0.000071
H67	H	0.810798	-0.019971	0.000052
C68	C	0.875325	0.314396	0.610382
N69	N	0.824595	0.365087	0.653907
C70	C	0.782574	0.301720	0.000048
N71	N	0.812708	0.370502	0.000044
C72	C	1.321582	-0.309548	0.000081
N73	N	1.390365	-0.279416	0.000079
H74	H	0.680397	-0.104764	0.000055
C75	C	0.630868	0.381166	0.000067
N76	N	0.661000	0.449948	0.000079
C77	C	0.433392	0.377391	0.000069
N78	N	0.385610	0.444684	0.000078
C79	C	0.499379	-0.131728	0.000070
N80	N	0.469231	-0.200502	0.000066
H81	H	0.954018	0.235731	0.247288
C82	C	0.875311	0.314407	0.389814
N83	N	0.824581	0.365103	0.346302
H84	H	0.954070	0.235724	0.752896
C85	C	0.812441	-0.243540	0.000042
N86	N	0.745151	-0.195753	0.000035
C87	C	1.193733	-0.003789	0.767857
N88	N	1.244464	-0.054490	0.811361
H89	H	1.237457	-0.047489	0.595308
H90	H	1.218414	-0.168238	0.000076
C91	C	1.193690	-0.003793	0.232240
N92	N	1.244420	-0.054495	0.188729
H93	H	1.237447	-0.047504	0.404776
H94	H	0.911844	-0.582344	0.000058
C95	C	0.808688	-0.441038	0.000064
N96	N	0.739914	-0.471185	0.000081
H97	H	1.294596	-0.490546	0.000099
H98	H	1.209795	-0.620958	0.000092
