data_functionalizedCrystal
_audit_creation_method	'MofGen! by Chris Wilmer'
_symmetry_space_group_name_H-M	'P1'
_symmetry_Int_Tables_number	1
_symmetry_cell_setting	triclinic
loop_
_symmetry_equiv_pos_as_xyz
  x,y,z
_cell_length_a	18.101398
_cell_length_b	18.101395
_cell_length_c	18.101389
_cell_angle_alpha	89.979213
_cell_angle_beta	89.977624
_cell_angle_gamma	90.026371
loop_
_atom_site_label
_atom_site_type_symbol
_atom_site_fract_x
_atom_site_fract_y
_atom_site_fract_z
Zn1	Zn	1.132107	-0.294972	-0.418847
Zn2	Zn	1.132007	-0.418806	-0.295009
Zn3	Zn	1.008270	-0.294973	-0.295008
Zn4	Zn	1.008216	-0.418766	-0.418797
O5	O	1.070150	-0.356879	-0.356915
O6	O	1.235726	-0.311415	-0.402440
O7	O	1.115573	-0.402397	-0.191376
O8	O	1.024761	-0.191340	-0.311456
O9	O	1.235653	-0.402396	-0.311457
O10	O	1.115744	-0.191339	-0.402440
O11	O	1.024664	-0.311417	-0.191375
O12	O	0.904630	-0.311378	-0.311408
O13	O	1.024670	-0.402327	-0.522437
O14	O	0.904591	-0.402328	-0.402355
O15	O	1.115692	-0.311376	-0.522473
O16	O	1.115522	-0.522434	-0.311409
O17	O	1.024573	-0.522404	-0.402356
C18	C	0.877739	-0.356849	-0.356877
C19	C	0.795425	-0.356854	-0.356878
C20	C	0.496334	-0.356900	-0.356940
C21	C	0.527660	-0.299391	-0.299997
C22	C	0.613278	-0.299545	-0.299754
C23	C	0.644717	-0.356877	-0.356909
C24	C	0.613600	-0.434886	-0.335587
C25	C	0.527954	-0.434567	-0.335191
C26	C	0.527946	-0.337079	-0.435339
C27	C	0.613597	-0.335341	-0.434911
C28	C	0.728576	-0.356868	-0.356893
C29	C	0.412475	-0.356914	-0.356954
C30	C	1.070051	-0.549290	-0.356893
C31	C	1.070076	-0.631604	-0.356909
C32	C	1.070239	-0.930695	-0.356949
C33	C	1.013149	-0.899382	-0.414312
C34	C	1.012878	-0.813764	-0.414133
C35	C	1.070158	-0.782312	-0.356930
C36	C	1.049032	-0.813453	-0.278878
C37	C	1.048664	-0.899098	-0.279221
C38	C	1.148580	-0.899047	-0.376950
C39	C	1.148119	-0.813396	-0.378661
C40	C	1.070114	-0.698453	-0.356914
C41	C	1.070281	-1.014554	-0.356959
C42	C	1.263312	-0.356910	-0.356954
C43	C	1.345626	-0.356923	-0.356971
C44	C	1.070186	-0.356847	-0.550077
C45	C	1.070202	-0.356834	-0.632391
C46	C	1.070270	-0.163717	-0.356953
C47	C	1.070321	-0.081403	-0.356970
C48	C	1.070229	-0.356776	-0.783100
C49	C	1.012970	-0.413988	-0.814431
C50	C	1.012762	-0.413787	-0.900049
C51	C	1.070257	-0.356720	-0.931482
C52	C	1.049370	-0.278624	-0.900396
C53	C	1.048938	-0.278987	-0.814751
C54	C	1.148526	-0.376966	-0.814675
C55	C	1.148122	-0.378655	-0.900326
C56	C	1.070274	-0.356684	-1.015342
C57	C	1.070211	-0.356807	-0.699240
C58	C	1.070157	-0.356858	-0.164505
C59	C	1.070285	-0.356663	-0.082191
H60	H	0.506374	-0.281185	-0.454725
C61	C	1.169646	-0.785909	-0.456261
H62	H	1.216853	-0.804905	-0.469096
H63	H	1.171283	-0.733455	-0.456437
H64	H	1.134081	-0.802423	-0.491132
H65	H	0.992783	-0.261232	-0.921840
C66	C	1.208820	-0.326470	-0.929219
H67	H	1.187372	-0.290458	-0.960799
H68	H	1.244457	-0.354174	-0.955973
H69	H	1.232068	-0.302564	-0.888704
H70	H	0.635001	-0.374176	-0.479611
H71	H	0.954753	-0.400389	-0.920531
H72	H	0.507231	-0.478866	-0.374857
C73	C	0.641709	-0.221401	-0.317804
H74	H	0.694193	-0.221391	-0.317682
H75	H	0.624125	-0.187637	-0.281695
H76	H	0.624355	-0.206967	-0.365180
H77	H	1.191113	-0.919296	-0.335170
C78	C	1.169412	-0.456295	-0.927776
H79	H	1.131016	-0.475267	-0.958102
H80	H	1.176497	-0.488080	-0.886618
H81	H	1.213857	-0.453431	-0.955562
C82	C	1.030364	-0.492008	-0.928447
H83	H	1.037704	-0.524195	-0.887640
H84	H	1.073915	-0.490597	-0.957710
H85	H	0.990316	-0.509497	-0.957499
H86	H	0.633941	-0.277935	-0.450989
C87	C	1.030728	-0.785311	-0.492313
H88	H	1.030588	-0.732827	-0.492307
H89	H	0.994544	-0.802904	-0.525993
H90	H	1.078076	-0.802641	-0.506868
H91	H	0.633963	-0.478883	-0.375763
H92	H	1.192904	-0.791983	-0.339927
C93	C	0.972484	-0.784569	-0.255583
H94	H	0.953299	-0.753541	-0.293312
H95	H	0.976916	-0.757231	-0.211018
H96	H	0.940007	-0.825123	-0.248063
H97	H	0.507688	-0.378966	-0.477766
C98	C	1.102385	-0.927088	-0.219505
H99	H	1.124332	-0.886113	-0.195140
H100	H	1.139835	-0.956204	-0.241929
H101	H	1.076116	-0.956202	-0.184593
H102	H	1.088845	-0.234890	-0.794025
C103	C	1.103430	-0.785930	-0.219561
H104	H	1.139593	-0.755126	-0.241923
H105	H	1.126975	-0.827040	-0.197002
H106	H	1.077277	-0.758629	-0.183168
H107	H	1.026235	-0.919937	-0.472374
H108	H	0.507089	-0.241367	-0.313215
C109	C	0.935179	-0.928525	-0.396639
H110	H	0.937266	-0.959690	-0.354451
H111	H	0.916982	-0.955772	-0.437621
H112	H	0.903187	-0.888086	-0.386924
H113	H	0.991715	-0.261905	-0.794769
C114	C	1.030355	-0.492476	-0.786606
H115	H	1.072686	-0.491059	-0.755628
H116	H	1.039709	-0.523883	-0.827583
H117	H	0.989395	-0.510903	-0.759421
C118	C	0.935039	-0.396127	-0.785357
H119	H	0.937245	-0.353953	-0.754210
H120	H	0.916686	-0.437071	-0.758105
H121	H	0.903108	-0.386322	-0.825825
C122	C	0.642521	-0.457990	-0.258995
H123	H	0.673550	-0.420207	-0.239909
H124	H	0.669865	-0.502558	-0.263331
H125	H	0.601982	-0.465444	-0.226485
C126	C	1.174601	-0.928161	-0.452528
H127	H	1.137925	-0.959892	-0.472594
H128	H	1.219404	-0.954798	-0.446538
H129	H	1.182508	-0.887748	-0.485088
H130	H	0.954810	-0.793334	-0.400884
C131	C	1.103987	-0.219437	-0.927904
H132	H	1.140097	-0.241882	-0.958669
H133	H	1.127578	-0.196946	-0.886787
H134	H	1.077977	-0.182972	-0.955244
C135	C	1.174270	-0.452618	-0.785507
H136	H	1.137504	-0.472599	-0.753797
H137	H	1.219075	-0.446749	-0.758837
H138	H	1.182096	-0.485185	-0.825900
C139	C	0.498557	-0.316889	-0.221974
H140	H	0.467400	-0.359091	-0.223950
H141	H	0.471309	-0.275873	-0.203861
H142	H	0.539014	-0.326516	-0.189977
H143	H	1.191184	-0.335293	-0.794420
H144	H	0.991397	-0.919134	-0.262279
C145	C	0.640921	-0.317251	-0.221281
H146	H	0.693403	-0.317400	-0.220862
H147	H	0.623147	-0.364436	-0.206683
H148	H	0.623274	-0.280830	-0.187882
C149	C	0.500919	-0.457268	-0.257766
H150	H	0.542278	-0.466595	-0.226849
H151	H	0.471677	-0.500700	-0.261445
H152	H	0.472132	-0.418502	-0.237229
