data_functionalizedCrystal
_audit_creation_method	'MofGen! by Chris Wilmer'
_symmetry_space_group_name_H-M	'P1'
_symmetry_Int_Tables_number	1
_symmetry_cell_setting	triclinic
loop_
_symmetry_equiv_pos_as_xyz
  x,y,z
_cell_length_a	17.077404
_cell_length_b	19.076808
_cell_length_c	17.077396
_cell_angle_alpha	92.329364
_cell_angle_beta	90.019501
_cell_angle_gamma	92.323651
loop_
_atom_site_label
_atom_site_type_symbol
_atom_site_fract_x
_atom_site_fract_y
_atom_site_fract_z
Zn1	Zn	1.187485	-0.280213	0.431271
Zn2	Zn	1.182112	-0.397923	0.294725
Zn3	Zn	1.056216	-0.280237	0.300018
Zn4	Zn	1.050907	-0.397881	0.425950
O5	O	1.119180	-0.339064	0.362991
O6	O	1.296619	-0.295834	0.413170
O7	O	1.165385	-0.382340	0.185579
O8	O	1.078100	-0.181738	0.321872
O9	O	1.292672	-0.382316	0.312849
O10	O	1.174543	-0.181719	0.418303
O11	O	1.072890	-0.295877	0.189468
O12	O	0.945665	-0.295836	0.316712
O13	O	1.069051	-0.382245	0.536504
O14	O	0.941765	-0.382268	0.409233
O15	O	1.169395	-0.295794	0.540414
O16	O	1.160237	-0.496414	0.307689
O17	O	1.063841	-0.496383	0.404100
C18	C	0.915233	-0.339051	0.362970
C19	C	0.827982	-0.339062	0.362979
C20	C	0.784979	-0.384136	0.411071
C21	C	0.702998	-0.384137	0.411084
C22	C	0.664023	-0.339068	0.362999
C23	C	0.707032	-0.293990	0.314905
C24	C	0.789012	-0.293986	0.314897
C25	C	0.536162	-0.294004	0.314923
C26	C	0.454177	-0.294009	0.314929
C27	C	0.450148	-0.384156	0.411110
C28	C	0.532128	-0.384151	0.411102
C29	C	0.575132	-0.339074	0.363006
C30	C	1.110901	-0.521938	0.354760
C31	C	1.107431	-0.600172	0.351265
C32	C	1.155976	-0.636857	0.399870
C33	C	1.152713	-0.710366	0.396588
C34	C	1.100908	-0.747190	0.344695
C35	C	1.052357	-0.710500	0.296088
C36	C	1.055617	-0.636992	0.299375
C37	C	1.085773	-0.967043	0.329480
C38	C	1.082519	-1.040556	0.326195
C39	C	1.182873	-1.040418	0.426696
C40	C	1.186132	-0.966908	0.429975
C41	C	1.137579	-0.930225	0.381371
N42	N	1.097572	-0.822328	0.341337
N43	N	1.140911	-0.855088	0.384733
C44	C	1.323924	-0.339077	0.363013
C45	C	1.411173	-0.339083	0.363022
C46	C	1.119230	-0.339012	0.567738
C47	C	1.119251	-0.338990	0.654989
C48	C	1.127513	-0.155475	0.371271
C49	C	1.131064	-0.077241	0.374800
C50	C	1.119178	-0.339065	0.159043
C51	C	1.119318	-0.338888	0.071802
C52	C	1.171502	-0.293971	0.698016
C53	C	1.171513	-0.293948	0.779997
C54	C	1.119275	-0.338947	0.818950
C55	C	1.067019	-0.383967	0.775917
C56	C	1.067005	-0.383987	0.693937
C57	C	1.067052	-0.383925	0.946789
C58	C	1.067067	-0.383907	1.028774
C59	C	1.171560	-0.293886	1.032849
C60	C	1.171546	-0.293905	0.950870
C61	C	1.119290	-0.338927	0.907842
H62	H	0.667988	-0.420841	0.450245
H63	H	1.192249	-0.740232	0.436161
H64	H	0.415131	-0.420857	0.450273
H65	H	0.571174	-0.257291	0.275766
H66	H	0.563859	-0.420854	0.450252
H67	H	1.024484	-0.420604	0.807639
H68	H	0.422446	-0.257302	0.275785
O69	O	1.222296	-0.250312	0.821882
C70	C	1.328737	-0.240819	0.914867
C71	C	1.271263	-0.290320	0.867490
H72	H	1.368352	-0.273146	0.951741
H73	H	1.294407	-0.204017	0.954948
H74	H	1.366039	-0.208642	0.872938
H75	H	1.233947	-0.322543	0.909361
H76	H	1.305640	-0.327076	0.827400
H77	H	0.675292	-0.257291	0.275757
H78	H	0.824025	-0.257279	0.275739
O79	O	1.206319	-0.601198	0.450350
C80	C	1.305536	-0.608828	0.549662
C81	C	1.248549	-0.649295	0.492537
H82	H	1.339706	-0.647697	0.583774
H83	H	1.271033	-0.574439	0.592263
H84	H	1.348098	-0.574381	0.515192
H85	H	1.205974	-0.683780	0.526942
H86	H	1.283103	-0.683640	0.449936
H87	H	1.046241	-0.937181	0.289903
H88	H	1.228316	-0.936928	0.472230
H89	H	1.214042	-0.257330	0.666307
O90	O	1.229951	-1.076161	0.473882
C91	C	1.269439	-1.189343	0.513333
C92	C	1.216067	-1.148952	0.459859
H93	H	1.258244	-1.248201	0.502002
H94	H	1.256253	-1.174915	0.577277
H95	H	1.333379	-1.174806	0.500267
H96	H	1.152109	-1.163467	0.472855
H97	H	1.229320	-1.163383	0.395930
O98	O	1.016230	-0.427793	0.652256
C99	C	0.912576	-0.517067	0.656861
C100	C	0.970048	-0.467500	0.704159
H101	H	0.875211	-0.549172	0.698805
H102	H	0.946908	-0.553926	0.616850
H103	H	0.873022	-0.484755	0.619904
H104	H	1.009616	-0.499756	0.741160
H105	H	0.935667	-0.430639	0.744120
O106	O	1.032151	-1.076408	0.275890
C107	C	0.922478	-1.159473	0.261524
C108	C	0.979470	-1.118926	0.318577
H109	H	0.879860	-1.193847	0.296015
H110	H	0.956976	-1.193926	0.218985
H111	H	0.888370	-1.120618	0.227329
H112	H	1.013592	-1.157730	0.352825
H113	H	0.944927	-1.084462	0.361065
O114	O	1.002103	-0.746377	0.245699
C115	C	0.952576	-0.859679	0.196122
C116	C	1.009536	-0.819139	0.253213
H117	H	0.958554	-0.918514	0.202189
H118	H	0.967037	-0.845301	0.133465
H119	H	0.889921	-0.845226	0.210485
H120	H	1.072210	-0.833569	0.238922
H121	H	0.995007	-0.833520	0.315854
O122	O	1.016383	-0.427766	0.905014
C123	C	0.972850	-0.547505	0.874548
C124	C	1.030276	-0.497931	0.921893
H125	H	0.984050	-0.604242	0.888190
H126	H	0.981823	-0.539848	0.809254
H127	H	0.910117	-0.535115	0.891191
H128	H	1.093031	-0.510289	0.905317
H129	H	1.021234	-0.505597	0.987175
H130	H	0.816706	-0.420838	0.450225
H131	H	1.016086	-0.607124	0.259797
O132	O	1.222210	-0.250088	0.913077
C133	C	1.265766	-0.130365	0.893455
C134	C	1.208334	-0.179913	0.936287
H135	H	1.254579	-0.073619	0.912217
H136	H	1.256786	-0.138045	0.827463
H137	H	1.328497	-0.142759	0.909018
H138	H	1.145580	-0.167550	0.920789
H139	H	1.217383	-0.172225	1.002269
O140	O	1.222237	-0.250164	1.074763
C141	C	1.268585	-0.210248	1.202863
C142	C	1.211143	-0.259785	1.155489
H143	H	1.259647	-0.218020	1.268139
H144	H	1.257367	-0.153483	1.189353
H145	H	1.331312	-0.222604	1.186159
H146	H	1.148395	-0.247493	1.172167
H147	H	1.222429	-0.316535	1.169004
O148	O	1.016425	-0.427681	1.066652
C149	C	1.001545	-0.522641	1.154979
C150	C	1.058986	-0.473128	1.112112
H151	H	1.035932	-0.559387	1.191756
H152	H	0.964193	-0.554871	1.110185
H153	H	0.961973	-0.490282	1.194774
H154	H	1.098608	-0.505433	1.072318
H155	H	1.096283	-0.440896	1.156948
