data_functionalizedCrystal
_audit_creation_method	'MofGen! by Chris Wilmer'
_symmetry_space_group_name_H-M	'P1'
_symmetry_Int_Tables_number	1
_symmetry_cell_setting	triclinic
loop_
_symmetry_equiv_pos_as_xyz
  x,y,z
_cell_length_a	18.101398
_cell_length_b	18.101395
_cell_length_c	21.395355
_cell_angle_alpha	90.015727
_cell_angle_beta	90.019889
_cell_angle_gamma	90.029256
loop_
_atom_site_label
_atom_site_type_symbol
_atom_site_fract_x
_atom_site_fract_y
_atom_site_fract_z
Zn1	Zn	1.132161	-0.294952	0.354196
Zn2	Zn	1.132045	-0.418775	0.249423
Zn3	Zn	1.008308	-0.294948	0.249441
Zn4	Zn	1.008271	-0.418752	0.354172
O5	O	1.070197	-0.356857	0.301808
O6	O	1.235779	-0.311389	0.340300
O7	O	1.115598	-0.402357	0.161748
O8	O	1.024802	-0.191316	0.263354
O9	O	1.235694	-0.402361	0.263324
O10	O	1.115796	-0.191319	0.340317
O11	O	1.024689	-0.311382	0.161761
O12	O	0.904671	-0.311360	0.263331
O13	O	1.024738	-0.402322	0.441853
O14	O	0.904643	-0.402318	0.340277
O15	O	1.115760	-0.311366	0.441870
O16	O	1.115562	-0.522405	0.263301
O17	O	1.024626	-0.522388	0.340259
C18	C	0.877786	-0.356836	0.301804
C19	C	0.795472	-0.356846	0.301817
C20	C	0.644763	-0.356859	0.301816
C21	C	0.613417	-0.414176	0.350153
C22	C	0.527799	-0.414408	0.350009
C23	C	0.496381	-0.356873	0.301816
C24	C	0.527426	-0.377685	0.235705
C25	C	0.613071	-0.378093	0.235984
C26	C	0.613244	-0.278589	0.319012
C27	C	0.527594	-0.279018	0.320468
C28	C	0.412521	-0.356879	0.301812
C29	C	0.728623	-0.356855	0.301815
C30	C	1.070097	-0.549267	0.301789
C31	C	1.070123	-0.631582	0.301803
C32	C	1.070285	-0.930672	0.301836
C33	C	1.013203	-0.899367	0.350377
C34	C	1.012932	-0.813749	0.350225
C35	C	1.070205	-0.782290	0.301820
C36	C	1.049068	-0.813425	0.235788
C37	C	1.048700	-0.899070	0.236079
C38	C	1.148629	-0.899023	0.318746
C39	C	1.148168	-0.813372	0.320195
C40	C	1.070160	-0.698430	0.301807
C41	C	1.070328	-1.014532	0.301845
C42	C	1.263358	-0.356878	0.301813
C43	C	1.345673	-0.356887	0.301815
C44	C	1.070258	-0.356842	0.465231
C45	C	1.070284	-0.356835	0.534873
C46	C	1.070316	-0.163695	0.301840
C47	C	1.070367	-0.081381	0.301854
C48	C	1.070178	-0.356818	0.139020
C49	C	1.070295	-0.356616	0.069379
C50	C	1.117677	-0.309473	0.567596
C51	C	1.117676	-0.309441	0.633031
C52	C	1.070290	-0.356785	0.665741
C53	C	1.022888	-0.404151	0.633010
C54	C	1.022885	-0.404176	0.567576
C55	C	1.064408	-0.423466	0.769410
C56	C	1.064416	-0.423442	0.834843
C57	C	1.070295	-0.356707	0.867562
C58	C	1.076180	-0.289993	0.834840
C59	C	1.076178	-0.290018	0.769406
C60	C	1.070288	-0.356763	0.736693
C61	C	1.117689	-0.309306	0.971238
C62	C	1.117683	-0.309273	1.036674
C63	C	1.022898	-0.403989	1.036652
C64	C	1.022901	-0.404015	0.971216
C65	C	1.070300	-0.356675	0.938513
H66	H	0.507307	-0.263318	0.369122
Cl67	Cl	0.494572	-0.209602	0.270124
H68	H	0.991431	-0.919108	0.221754
H69	H	1.026157	-0.792697	0.399187
H70	H	1.191157	-0.919265	0.283393
Cl71	Cl	0.646592	-0.503215	0.332756
H72	H	1.164108	-0.793021	0.368790
H73	H	0.506810	-0.401427	0.399021
H74	H	0.633517	-0.235889	0.283809
H75	H	0.634876	-0.259572	0.366408
Cl76	Cl	1.178379	-0.932307	0.391820
Cl77	Cl	1.033413	-0.931113	0.426218
H78	H	1.089336	-0.793047	0.198636
Cl79	Cl	0.924094	-0.932704	0.333315
H80	H	0.505945	-0.434265	0.220923
H81	H	0.954862	-0.793322	0.339024
Cl82	Cl	0.496107	-0.503965	0.332412
H83	H	1.088472	-0.919780	0.198680
Cl84	Cl	0.961583	-0.780407	0.213274
Cl85	Cl	1.217309	-0.780299	0.269592
Cl86	Cl	1.177246	-0.249880	0.674178
H87	H	0.633806	-0.338129	0.198734
H88	H	0.507075	-0.337217	0.198701
Cl89	Cl	1.177260	-0.249955	0.526487
Cl90	Cl	1.083571	-0.206154	0.728272
H91	H	1.080968	-0.235651	0.861478
H92	H	1.156280	-0.270754	0.944609
H93	H	1.156275	-0.270700	1.063316
Cl94	Cl	1.057040	-0.507373	0.728284
Cl95	Cl	0.645285	-0.394389	0.426058
Cl96	Cl	0.963320	-0.463501	1.077766
H97	H	0.633012	-0.435297	0.221450
H98	H	0.984313	-0.442588	0.944573
Cl99	Cl	0.963314	-0.463666	0.674130
H100	H	1.059628	-0.477764	0.861480
Cl101	Cl	0.963301	-0.463723	0.526436
