data_functionalizedCrystal
_audit_creation_method	'MofGen! by Chris Wilmer'
_symmetry_space_group_name_H-M	'P1'
_symmetry_Int_Tables_number	1
_symmetry_cell_setting	triclinic
loop_
_symmetry_equiv_pos_as_xyz
  x,y,z
_cell_length_a	17.699083
_cell_length_b	10.654550
_cell_length_c	9.730223
_cell_angle_alpha	90.000043
_cell_angle_beta	89.994713
_cell_angle_gamma	96.116027
loop_
_atom_site_label
_atom_site_type_symbol
_atom_site_fract_x
_atom_site_fract_y
_atom_site_fract_z
O1	O	0.106302	-1.665978	-0.114190
O2	O	0.116430	-1.300323	-0.114216
O3	O	0.001243	-1.493481	-0.114190
O4	O	0.221490	-1.472820	-0.114216
O5	O	0.001240	-1.493469	0.114390
O6	O	0.116427	-1.300310	0.114364
O7	O	0.106299	-1.665966	0.114390
Zn8	Zn	0.111363	-1.483136	0.150669
Zn9	Zn	0.111367	-1.483152	-0.150495
O10	O	0.221487	-1.472807	0.114364
C11	C	-0.026960	-1.492735	0.000100
C12	C	-0.110993	-1.490514	0.000100
C13	C	0.115685	-1.253531	0.000071
C14	C	0.113460	-1.114127	0.000061
C15	C	0.107045	-1.712757	0.000100
C16	C	0.109269	-1.852161	0.000100
C17	C	-0.158893	-1.603894	0.000110
C18	C	-0.237849	-1.601799	0.000098
C19	C	-0.268904	-1.486323	0.000085
C20	C	-0.220998	-1.372935	0.000071
C21	C	-0.142043	-1.375030	0.000074
C22	C	-0.539415	-1.364481	0.000060
C23	C	-0.618376	-1.362394	0.000061
C24	C	-0.635221	-1.591249	0.000083
C25	C	-0.556266	-1.593345	0.000086
C26	C	-0.508367	-1.479957	0.000065
C27	C	-0.422753	-1.482229	0.000075
C28	C	-0.354516	-1.484050	0.000085
C29	C	0.249690	-1.473554	0.000071
C30	C	0.333722	-1.475775	0.000061
N31	N	0.111359	-1.483134	0.356205
C32	C	0.181281	-1.033454	0.000058
C33	C	0.179186	-0.902470	0.000082
C34	C	0.041444	-0.932844	0.000108
C35	C	0.043539	-1.063826	0.000094
N36	N	0.111364	-1.483164	-0.356032
C37	C	0.060376	-1.568694	0.428142
C38	C	0.060376	-1.568706	0.572025
C39	C	0.162350	-1.397596	0.572021
C40	C	0.162345	-1.397578	0.428141
H41	H	-0.133614	-1.697927	0.000128
O42	O	0.256695	-1.087701	0.000046
H43	H	0.260955	-1.146632	-0.093131
H44	H	-0.500424	-1.272153	0.000043
O45	O	-0.033966	-0.878582	0.000137
H46	H	-0.080774	-0.956688	0.000152
O47	O	-0.254487	-1.248380	0.000073
H48	H	-0.317437	-1.265968	0.000092
H49	H	0.234412	-0.836791	0.000081
H50	H	-0.103043	-1.282705	0.000066
H51	H	-0.011692	-1.129514	0.000101
H52	H	0.018859	-1.638357	0.369576
O53	O	0.217352	-1.305343	0.649613
H54	H	0.207160	-1.207474	0.622032
H55	H	0.203862	-1.327900	0.369565
H56	H	0.018860	-1.638375	0.630593
O57	O	-0.686886	-1.713551	0.000104
H58	H	-0.675762	-1.768843	-0.093044
O59	O	-0.289510	-1.724093	0.000131
H60	H	-0.278384	-1.779387	-0.093015
O61	O	-0.522775	-1.717897	0.000079
H62	H	-0.541978	-1.772376	0.093236
O63	O	-0.651876	-1.237840	0.000037
H64	H	-0.605304	-1.159345	0.000009
