data_functionalizedCrystal
_audit_creation_method	'MofGen! by Chris Wilmer'
_symmetry_space_group_name_H-M	'P1'
_symmetry_Int_Tables_number	1
_symmetry_cell_setting	triclinic
loop_
_symmetry_equiv_pos_as_xyz
  x,y,z
_cell_length_a	8.634740
_cell_length_b	7.681481
_cell_length_c	17.699092
_cell_angle_alpha	95.728940
_cell_angle_beta	91.928337
_cell_angle_gamma	83.381053
loop_
_atom_site_label
_atom_site_type_symbol
_atom_site_fract_x
_atom_site_fract_y
_atom_site_fract_z
O1	O	2.030551	0.146411	0.252798
O2	O	1.581674	0.146416	0.232111
O3	O	1.818788	0.146409	0.133201
O4	O	1.793437	0.146418	0.351708
O5	O	1.847973	-0.146449	0.120995
O6	O	1.610859	-0.146443	0.219905
O7	O	2.059735	-0.146448	0.240591
Zn8	Zn	1.839931	-0.192943	0.228310
Zn9	Zn	1.801479	0.192911	0.244393
O10	O	1.822622	-0.146441	0.339501
C11	C	1.538834	-0.000012	0.221322
C12	C	1.367702	-0.000010	0.207349
N13	N	1.866185	-0.456278	0.217334
C14	C	2.102576	-0.000015	0.251381
C15	C	2.273706	-0.000006	0.265354
C16	C	1.832470	-0.000017	0.098834
C17	C	1.829737	-0.000009	0.014615
N18	N	1.775237	0.456246	0.255363
C19	C	1.812549	0.159630	-0.018293
C20	C	1.809972	0.159632	-0.097426
C21	C	1.824595	-0.000007	-0.143650
C22	C	1.841781	-0.159658	-0.110737
C23	C	1.844346	-0.159659	-0.031605
C24	C	1.831433	-0.159661	-0.429866
C25	C	1.828871	-0.159648	-0.509002
C26	C	1.797059	0.159630	-0.495687
C27	C	1.799624	0.159630	-0.416555
C28	C	1.816801	-0.000021	-0.383649
C29	C	1.819592	-0.000021	-0.297844
C30	C	1.821816	-0.000008	-0.229453
C31	C	1.808940	-0.000011	0.373869
C32	C	1.811671	-0.000007	0.458088
H33	H	1.324162	-0.000015	0.325707
O34	O	1.861241	-0.314625	0.000450
C35	C	1.997156	-0.324222	0.046974
H36	H	2.028232	-0.185622	0.065000
H37	H	2.097471	-0.403007	0.014006
C38	C	1.929965	-0.585735	0.095838
C39	C	1.968126	-0.415503	0.117983
H40	H	1.912062	-0.642048	0.139638
H41	H	1.838399	-0.579275	0.064492
H42	H	2.013568	-0.651367	0.068364
H43	H	1.884516	-0.349868	0.145449
H44	H	2.059677	-0.421954	0.149336
O45	O	1.307267	0.000069	0.135400
C46	C	1.144128	0.000026	0.136996
H47	H	1.100778	0.055469	0.195629
H48	H	1.113367	-0.140473	0.124236
C49	C	1.119277	0.046780	0.004758
C50	C	1.066032	0.114891	0.076770
H51	H	1.071102	0.117627	-0.032394
H52	H	1.229187	0.046803	0.003682
H53	H	1.093639	-0.070301	-0.005864
H54	H	1.091687	0.231960	0.087396
H55	H	0.956124	0.114891	0.077847
H56	H	1.787724	0.289624	-0.378923
H57	H	1.783065	0.289625	-0.522488
H58	H	1.682398	-0.468554	0.294178
H59	H	1.853678	-0.289639	-0.148378
H60	H	1.959042	-0.531486	0.178523
O61	O	1.798257	0.314864	0.026494
C62	C	1.782569	0.455764	-0.019524
H63	H	1.736618	0.408960	-0.078307
H64	H	1.901033	0.504850	-0.024818
C65	C	1.723918	0.664079	0.088964
C66	C	1.667467	0.606596	0.016767
H67	H	1.652924	0.757124	0.111351
H68	H	1.734492	0.569153	0.119968
H69	H	1.822637	0.704972	0.084542
H70	H	1.568760	0.565684	0.021191
H71	H	1.656873	0.701519	-0.014236
H72	H	1.840776	-0.289653	-0.546637
H73	H	1.795982	0.289626	-0.124216
H74	H	1.845450	-0.289658	-0.403083
