data_functionalizedCrystal
_audit_creation_method	'MofGen! by Chris Wilmer'
_symmetry_space_group_name_H-M	'P1'
_symmetry_Int_Tables_number	1
_symmetry_cell_setting	triclinic
loop_
_symmetry_equiv_pos_as_xyz
  x,y,z
_cell_length_a	18.050590
_cell_length_b	18.050589
_cell_length_c	13.032268
_cell_angle_alpha	97.149417
_cell_angle_beta	97.179226
_cell_angle_gamma	90.017386
loop_
_atom_site_label
_atom_site_type_symbol
_atom_site_fract_x
_atom_site_fract_y
_atom_site_fract_z
Zn1	Zn	1.082005	-0.349128	-0.590468
Zn2	Zn	1.097685	-0.457566	-0.415729
Zn3	Zn	0.973588	-0.333376	-0.415783
Zn4	Zn	0.957772	-0.473258	-0.590470
O5	O	1.027762	-0.403332	-0.503113
O6	O	1.188011	-0.363538	-0.567264
O7	O	1.094405	-0.427932	-0.269500
O8	O	0.988027	-0.231543	-0.438977
O9	O	1.199532	-0.443207	-0.438884
O10	O	1.067680	-0.243116	-0.567317
O11	O	1.003232	-0.336690	-0.269540
O12	O	0.867564	-0.351906	-0.438980
O13	O	0.961070	-0.469951	-0.736706
O14	O	0.855943	-0.454677	-0.567322
O15	O	1.052343	-0.378754	-0.736704
O16	O	1.079068	-0.563570	-0.438887
O17	O	0.976274	-0.575099	-0.567269
C18	C	0.834806	-0.403285	-0.503158
C19	C	0.752256	-0.403285	-0.503202
C20	C	1.027674	-0.596282	-0.503095
C21	C	1.027701	-0.678831	-0.503123
C22	C	0.546523	-0.459299	-0.572828
C23	C	0.494810	-0.393901	-0.598537
C24	C	0.601131	-0.403322	-0.503151
C25	C	0.505762	-0.468759	-0.477441
C26	C	0.455150	-0.403364	-0.503103
C27	C	0.550500	-0.337892	-0.528909
C28	C	0.561461	-0.412793	-0.407769
C29	C	0.509773	-0.347344	-0.433441
C30	C	0.685226	-0.403299	-0.503181
C31	C	0.371056	-0.403379	-0.503073
C32	C	0.971853	-0.884575	-0.572912
C33	C	0.962360	-0.925414	-0.477562
C34	C	1.027773	-0.829962	-0.503136
C35	C	1.037301	-0.936206	-0.598498
C36	C	1.027840	-0.975949	-0.503158
C37	C	1.018249	-0.869709	-0.407735
C38	C	1.093216	-0.880503	-0.528736
C39	C	1.083755	-0.921313	-0.433319
C40	C	1.027732	-0.745863	-0.503125
C41	C	1.027882	-1.060046	-0.503158
C42	C	1.221472	-0.403379	-0.503068
C43	C	1.304019	-0.403400	-0.503049
C44	C	1.003193	-0.427860	-0.775683
C45	C	0.992723	-0.438313	-0.891836
C46	C	1.027869	-0.209630	-0.503153
C47	C	1.027914	-0.127086	-0.503170
C48	C	1.033215	-0.397850	-0.943619
C49	C	1.022395	-0.408652	-1.063670
C50	C	1.052279	-0.378845	-0.231603
C51	C	1.062893	-0.368184	-0.115450
H52	H	0.562861	-0.506569	-0.631818
C53	C	0.479516	-0.542480	-0.448257
C54	C	0.514570	-0.552749	-0.349087
C55	C	0.490405	-0.620650	-0.322175
H56	H	0.491924	-0.582244	-0.497746
H57	H	0.426933	-0.541803	-0.447764
H58	H	0.567142	-0.553433	-0.349587
H59	H	0.502167	-0.513002	-0.299576
H60	H	0.437822	-0.619972	-0.321682
H61	H	0.502814	-0.660408	-0.371670
H62	H	0.514180	-0.627623	-0.254882
C63	C	0.965604	-0.465611	-1.123100
C64	C	1.002027	-0.518828	-1.185721
C65	C	0.949739	-0.571316	-1.240471
H66	H	0.929426	-0.441096	-1.165778
H67	H	0.941615	-0.489643	-1.075074
H68	H	1.026004	-0.494799	-1.233740
H69	H	1.038201	-0.543362	-1.143068
H70	H	0.925750	-0.595348	-1.192446
H71	H	0.913564	-0.546794	-1.283144
H72	H	0.974445	-0.607433	-1.282958
H73	H	1.010152	-0.840872	-0.327075
H74	H	0.950040	-0.480946	-0.936378
C75	C	1.146956	-0.942824	-0.354646
C76	C	1.215201	-0.918968	-0.380807
C77	C	1.273433	-0.938765	-0.308348
H78	H	1.146989	-0.995515	-0.355426
H79	H	1.140137	-0.919730	-0.286962
H80	H	1.222019	-0.942064	-0.448473
H81	H	1.215193	-0.866280	-0.380020
H82	H	1.266613	-0.915671	-0.240665
H83	H	1.273458	-0.991456	-0.309134
H84	H	1.319743	-0.922576	-0.326083
H85	H	0.924509	-0.868230	-0.631836
H86	H	0.465818	-0.385903	-0.679179
C87	C	0.576693	-0.264189	-0.558211
C88	C	0.611646	-0.277668	-0.648630
C89	C	0.635776	-0.209793	-0.675666
H90	H	0.611069	-0.240200	-0.502912
H91	H	0.534968	-0.232996	-0.570535
H92	H	0.653366	-0.308849	-0.636301
H93	H	0.577284	-0.301646	-0.703949
H94	H	0.594051	-0.178600	-0.687989
H95	H	0.670149	-0.185809	-0.620360
H96	H	0.659488	-0.218928	-0.737022
H97	H	0.493570	-0.299976	-0.374497
C98	C	0.888537	-0.951798	-0.448892
C99	C	0.830154	-0.933436	-0.522192
C100	C	0.762137	-0.957735	-0.495830
H101	H	0.881303	-0.928149	-0.381670
H102	H	0.889230	-1.004393	-0.448529
H103	H	0.829459	-0.880851	-0.522543
H104	H	0.837363	-0.957084	-0.589420
H105	H	0.762831	-1.010331	-0.495467
H106	H	0.754911	-0.934084	-0.428606
H107	H	0.722517	-0.945287	-0.545564
C108	C	1.048062	-0.974635	-0.706075
C109	C	1.054041	-0.920731	-0.773251
C110	C	1.063958	-0.956100	-0.872356
H111	H	1.006468	-1.006707	-0.732364
H112	H	1.092341	-1.003113	-0.701446
H113	H	1.009767	-0.892266	-0.777883
H114	H	1.095635	-0.888657	-0.746995
H115	H	1.108237	-0.984578	-0.867727
H116	H	1.022362	-0.988171	-0.898635
H117	H	1.068022	-0.919532	-0.917944
C118	C	1.090135	-0.340929	-0.884426
C119	C	1.125382	-0.305680	-0.955466
C120	C	1.177815	-0.253232	-0.900978
H121	H	1.126354	-0.365458	-0.841828
H122	H	1.065567	-0.304722	-0.841884
H123	H	1.149950	-0.341882	-0.997989
H124	H	1.089183	-0.281137	-0.998066
H125	H	1.153247	-0.217025	-0.858437
H126	H	1.214029	-0.277767	-0.858382
H127	H	1.201732	-0.229305	-0.949170
H128	H	0.590467	-0.420813	-0.327150
H129	H	1.148511	-0.860689	-0.550414
H130	H	1.105570	-0.325538	-1.070913
