data_functionalizedCrystal
_audit_creation_method	'MofGen! by Chris Wilmer'
_symmetry_space_group_name_H-M	'P1'
_symmetry_Int_Tables_number	1
_symmetry_cell_setting	triclinic
loop_
_symmetry_equiv_pos_as_xyz
  x,y,z
_cell_length_a	10.654550
_cell_length_b	10.540539
_cell_length_c	9.130313
_cell_angle_alpha	89.997616
_cell_angle_beta	89.999724
_cell_angle_gamma	84.505211
loop_
_atom_site_label
_atom_site_type_symbol
_atom_site_fract_x
_atom_site_fract_y
_atom_site_fract_z
O1	O	1.667902	0.178301	-0.121682
O2	O	1.302430	0.195288	-0.121709
O3	O	1.493504	0.002085	-0.121693
O4	O	1.476828	0.371504	-0.121698
O5	O	1.493491	0.002079	0.121906
O6	O	1.302416	0.195282	0.121890
O7	O	1.667889	0.178295	0.121916
Cu8	Cu	1.485152	0.186788	0.144146
Cu9	Cu	1.485167	0.186795	-0.143938
O10	O	1.476815	0.371498	0.121901
C11	C	1.255625	0.194038	0.000087
C12	C	1.116180	0.190306	0.000077
C13	C	1.492247	-0.045221	0.000104
C14	C	1.488505	-0.186167	0.000095
C15	C	1.036735	0.304061	0.000080
C16	C	0.905712	0.300547	0.000105
C17	C	0.933594	0.069513	0.000119
C18	C	1.064614	0.073029	0.000104
C19	C	1.345134	-0.369543	-0.000462
C20	C	1.348927	-0.222926	0.000087
C21	C	1.555669	-0.247852	0.139207
C22	C	1.550905	-0.394395	0.139324
C23	C	1.553759	-0.394908	-0.137693
C24	C	1.555045	-0.247926	-0.139532
C25	C	1.714694	0.179545	0.000117
C26	C	1.854139	0.183277	0.000118
C27	C	1.478072	0.418804	0.000101
C28	C	1.481813	0.559750	0.000099
N29	N	1.485150	0.186783	0.346768
N30	N	1.485179	0.186790	-0.346561
C31	C	1.569786	0.101269	0.423427
C32	C	1.569798	0.101269	0.576764
C33	C	1.400533	0.272308	0.576770
C34	C	1.400516	0.272301	0.423436
H35	H	0.841032	0.393178	0.000111
N36	N	1.309233	0.364540	0.340733
H37	H	1.253194	0.315495	0.277133
H38	H	1.255710	0.418705	0.412652
N39	N	1.150314	-0.049670	0.000119
H40	H	1.097768	-0.124498	0.000130
H41	H	1.205281	-0.053247	-0.090188
H42	H	1.296078	-0.180301	-0.099634
N43	N	1.490038	-0.193663	-0.275848
H44	H	1.552179	-0.150595	-0.337623
H45	H	1.456584	-0.264743	-0.333850
N46	N	1.272379	-0.409520	0.130927
H47	H	1.327570	-0.473233	0.190811
H48	H	1.245684	-0.332272	0.192929
N49	N	1.309266	0.364559	0.659455
H50	H	1.219999	0.349099	0.632789
H51	H	1.322227	0.351552	0.768198
H52	H	1.078715	0.399556	0.000069
N53	N	1.485122	-0.431734	0.277043
H54	H	1.481371	-0.527109	0.278495
H55	H	1.533294	-0.405301	0.365450
N56	N	1.661033	0.009015	0.340717
H57	H	1.717067	0.058035	0.277075
H58	H	1.714565	-0.045149	0.412633
H59	H	0.891593	-0.025970	0.000150
N60	N	1.272091	-0.407393	-0.132596
H61	H	1.326885	-0.470746	-0.193378
H62	H	1.194526	-0.447399	-0.099284
H63	H	1.295697	-0.181153	0.099967
N64	N	1.683865	-0.457995	0.147703
H65	H	1.745308	-0.390801	0.151312
H66	H	1.693421	-0.512315	0.238881
H67	H	1.658171	-0.225535	0.144387
N68	N	1.493879	-0.191398	0.276334
H69	H	1.422393	-0.125883	0.248662
H70	H	1.459914	-0.261224	0.335959
H71	H	1.638715	0.031634	0.639175
N72	N	1.493936	-0.436680	-0.277359
H73	H	1.403318	-0.398713	-0.281963
H74	H	1.541653	-0.406585	-0.364297
H75	H	1.656809	-0.223741	-0.147925
H76	H	1.654576	-0.442170	-0.138622
