data_functionalizedCrystal
_audit_creation_method	'MofGen! by Chris Wilmer'
_symmetry_space_group_name_H-M	'P1'
_symmetry_Int_Tables_number	1
_symmetry_cell_setting	triclinic
loop_
_symmetry_equiv_pos_as_xyz
  x,y,z
_cell_length_a	12.759401
_cell_length_b	19.077114
_cell_length_c	19.076919
_cell_angle_alpha	85.527261
_cell_angle_beta	92.284013
_cell_angle_gamma	87.671308
loop_
_atom_site_label
_atom_site_type_symbol
_atom_site_fract_x
_atom_site_fract_y
_atom_site_fract_z
Zn1	Zn	1.563731	0.296673	-0.409805
Zn2	Zn	2.063731	0.796673	0.090195
Zn3	Zn	1.563597	0.409827	-0.296653
Zn4	Zn	2.063597	0.909827	0.203347
Zn5	Zn	1.395400	0.291959	-0.291940
Zn6	Zn	1.895400	0.791959	0.208060
Zn7	Zn	1.380629	0.414525	-0.414504
Zn8	Zn	1.880629	0.914525	0.085496
O9	O	1.475839	0.353246	-0.353225
O10	O	1.975839	0.853246	0.146775
O11	O	1.710734	0.311690	-0.394801
O12	O	2.210734	0.811690	0.105199
O13	O	1.547411	0.390252	-0.197381
O14	O	2.047411	0.890252	0.302619
O15	O	1.423967	0.193935	-0.303636
O16	O	1.923967	0.693935	0.196364
O17	O	1.710635	0.394824	-0.311669
O18	O	2.210635	0.894824	0.188331
O19	O	1.547640	0.197398	-0.390231
O20	O	2.047640	0.697398	0.109769
O21	O	1.423837	0.303655	-0.193918
O22	O	1.923837	0.803655	0.306082
O23	O	1.246420	0.308210	-0.308193
O24	O	1.746420	0.808210	0.191807
O25	O	1.398792	0.402831	-0.512528
O26	O	1.898792	0.902831	-0.012528
O27	O	1.235568	0.398259	-0.398239
O28	O	1.735568	0.898259	0.101761
O29	O	1.533317	0.316246	-0.509075
O30	O	2.033317	0.816246	-0.009075
O31	O	1.533088	0.509099	-0.316225
O32	O	2.033088	1.009099	0.183775
O33	O	1.398662	0.512551	-0.402809
O34	O	1.898662	1.012551	0.097191
C35	C	1.202873	0.353233	-0.353215
C36	C	1.702873	0.853233	0.146785
C37	C	1.086095	0.353246	-0.353228
C38	C	1.586095	0.853246	0.146772
C39	C	1.031276	0.310042	-0.396588
C40	C	1.531276	0.810042	0.103412
C41	C	0.921551	0.310050	-0.396592
C42	C	1.421551	0.810050	0.103408
C43	C	0.921474	0.396470	-0.309877
C44	C	1.421474	0.896470	0.190123
C45	C	1.031198	0.396458	-0.309868
C46	C	1.531198	0.896458	0.190132
C47	C	1.464285	0.536405	-0.360554
C48	C	1.964285	1.036405	0.139446
C49	C	1.459437	0.614762	-0.363713
C50	C	1.959437	1.114762	0.136287
C51	C	1.527197	0.649755	-0.320154
C52	C	2.027197	1.149755	0.179846
C53	C	1.522643	0.723380	-0.323130
C54	C	2.022643	1.223380	0.176870
C55	C	1.450323	0.762010	-0.369660
C56	C	1.950323	1.262010	0.130340
C57	C	1.382560	0.727012	-0.413223
C58	C	1.882560	1.227012	0.086777
C59	C	1.387119	0.653388	-0.410251
C60	C	1.887119	1.153388	0.089749
C61	C	1.429180	0.982396	-0.383382
C62	C	1.929180	1.482396	0.116618
C63	C	1.424623	1.056025	-0.386349
C64	C	1.924623	1.556025	0.113651
C65	C	1.564709	1.052388	-0.296256
C66	C	2.064709	1.552388	0.203744
C67	C	1.569258	0.978763	-0.293286
C68	C	2.069258	1.478763	0.206714
C69	C	1.501498	0.943771	-0.336851
C70	C	2.001498	1.443771	0.163149
N71	N	1.445664	0.837267	-0.372701
N72	N	1.945664	1.337267	0.127299
N73	N	1.506163	0.868516	-0.333814
N74	N	2.006163	1.368516	0.166186
C75	C	1.749871	0.353259	-0.353236
C76	C	2.249871	0.853259	0.146764
C77	C	1.866647	0.353265	-0.353241
C78	C	2.366647	0.853265	0.146759
C79	C	1.464422	0.360588	-0.537095
C80	C	1.964422	0.860588	-0.037095
C81	C	1.459556	0.363717	-0.615449
C82	C	1.959556	0.863717	-0.115449
C83	C	1.487457	1.169373	-0.345893
C84	C	1.987457	1.669373	0.154107
C85	C	1.492383	1.091018	-0.342791
C86	C	1.992383	1.591018	0.157209
C87	C	1.527307	0.320109	-0.650464
C88	C	2.027307	0.820109	-0.150464
C89	C	1.522722	0.323046	-0.724086
C90	C	2.022722	0.823046	-0.224086
C91	C	1.450392	0.369595	-0.762692
C92	C	1.950392	0.869595	-0.262692
C93	C	1.382635	0.413205	-0.727672
C94	C	1.882635	0.913205	-0.227672
C95	C	1.387214	0.410264	-0.654051
C96	C	1.887214	0.910264	-0.154051
C97	C	1.429180	0.383223	-0.983067
C98	C	1.929180	0.883223	-0.483067
C99	C	1.424607	0.386162	-1.056693
C100	C	1.924607	0.886162	-0.556693
C101	C	1.564694	0.296001	-1.053102
C102	C	2.064694	0.796001	-0.553102
C103	C	1.569272	0.293067	-0.979480
C104	C	2.069272	0.793067	-0.479480
C105	C	1.501511	0.336674	-0.944466
C106	C	2.001511	0.836674	-0.444466
N107	N	1.445707	0.372600	-0.837945
N108	N	1.945707	0.872600	-0.337945
N109	N	1.506192	0.333665	-0.869214
N110	N	2.006192	0.833665	-0.369214
C111	C	1.487276	0.345881	-0.170069
C112	C	1.987276	0.845881	0.329931
C113	C	1.492357	0.342554	-0.091708
C114	C	1.992357	0.842554	0.408292
H115	H	0.876763	0.431652	-0.274576
H116	H	1.376763	0.931652	0.225424
N117	N	1.346555	0.436359	-1.098318
N118	N	1.846555	0.936359	-0.598318
H119	H	1.297790	0.408916	-1.127709
H120	H	1.797790	0.908916	-0.627709
H121	H	1.385331	0.470253	-1.130135
H122	H	1.885331	0.970253	-0.630135
H123	H	1.075833	0.431640	-0.274556
H124	H	1.575833	0.931640	0.225444
N125	N	1.090489	0.263438	-0.443352
N126	N	1.590489	0.763438	0.056648
H127	H	1.075243	0.212618	-0.430474
H128	H	1.575243	0.712618	0.069526
H129	H	1.168295	0.270049	-0.436749
H130	H	1.668295	0.770049	0.063251
N131	N	1.605197	0.608092	-0.269965
N132	N	2.105197	1.108092	0.230035
H133	H	1.647434	0.641435	-0.242825
H134	H	2.147434	1.141435	0.257175
H135	H	1.653893	0.578653	-0.297455
H136	H	2.153893	1.078653	0.202545
N137	N	1.314029	0.615638	-0.457224
N138	N	1.814029	1.115638	0.042776
H139	H	1.356551	0.586360	-0.488682
H140	H	1.856551	1.086360	0.011318
H141	H	1.267532	0.651320	-0.487106
H142	H	1.767532	1.151320	0.012894
H143	H	1.577821	0.751868	-0.287659
H144	H	2.077821	1.251868	0.212341
N145	N	1.647275	0.937099	-0.243110
N146	N	2.147275	1.437099	0.256890
H147	H	1.689518	0.970440	-0.215970
H148	H	2.189518	1.470440	0.284030
H149	H	1.695963	0.907666	-0.270610
H150	H	2.195963	1.407666	0.229390
N151	N	1.595794	0.276020	-0.761862
N152	N	2.095794	0.776020	-0.261862
H153	H	1.553259	0.244569	-0.791097
H154	H	2.053259	0.744569	-0.291097
H155	H	1.642306	0.246129	-0.726200
H156	H	2.142306	0.746129	-0.226200
H157	H	1.374018	0.418741	-0.954568
H158	H	1.874018	0.918741	-0.454568
N159	N	0.862436	0.263443	-0.443356
N160	N	1.362436	0.763443	0.056644
H161	H	0.877720	0.276479	-0.494146
H162	H	1.377720	0.776479	0.005854
H163	H	0.784616	0.270018	-0.436725
H164	H	1.284616	0.770018	0.063275
N165	N	1.637772	0.248963	-1.090860
N166	N	2.137772	0.748963	-0.590860
H167	H	1.682751	0.278831	-1.122554
H168	H	2.182751	0.778831	-0.622554
H169	H	1.595170	0.217518	-1.120056
H170	H	2.095170	0.717518	-0.620056
H171	H	1.619876	1.080886	-0.260789
H172	H	2.119876	1.580886	0.239211
N173	N	1.304597	0.463397	-0.769307
N174	N	1.804597	0.963397	-0.269307
H175	H	1.311971	0.458642	-0.821259
H176	H	1.811971	0.958642	-0.321259
H177	H	1.318545	0.513236	-0.758455
H178	H	1.818545	1.013236	-0.258455
N179	N	1.346616	1.097693	-0.436537
N180	N	1.846616	1.597693	0.063463
H181	H	1.304383	1.064355	-0.463687
H182	H	1.804383	1.564355	0.036313
H183	H	1.385431	1.129508	-0.470412
H184	H	1.885431	1.629508	0.029588
N185	N	1.647247	0.242845	-0.937827
N186	N	2.147247	0.742845	-0.437827
H187	H	1.696024	0.270265	-0.908420
H188	H	2.196024	0.770265	-0.408420
H189	H	1.689402	0.215661	-0.971213
H190	H	2.189402	0.715661	-0.471213
H191	H	1.323679	0.758470	-0.451112
H192	H	1.823679	1.258470	0.048888
N193	N	1.356091	0.944660	-0.430362
N194	N	1.856091	1.444660	0.069638
H195	H	1.309581	0.980306	-0.460285
H196	H	1.809581	1.480306	0.039715
H197	H	1.311180	0.913007	-0.400405
H198	H	1.811180	1.413007	0.099595
H199	H	1.586209	0.282205	-0.619036
H200	H	2.086209	0.782205	-0.119036
N201	N	1.314132	0.457291	-0.616281
N202	N	1.814132	0.957291	-0.116281
H203	H	1.267615	0.487226	-0.651908
H204	H	1.767615	0.987226	-0.151908
H205	H	1.356726	0.488699	-0.587037
H206	H	1.856726	0.988699	-0.087037
