data_functionalizedCrystal
_audit_creation_method	'MofGen! by Chris Wilmer'
_symmetry_space_group_name_H-M	'P1'
_symmetry_Int_Tables_number	1
_symmetry_cell_setting	triclinic
loop_
_symmetry_equiv_pos_as_xyz
  x,y,z
_cell_length_a	14.853567
_cell_length_b	8.559649
_cell_length_c	7.681452
_cell_angle_alpha	82.935289
_cell_angle_beta	83.578255
_cell_angle_gamma	76.706797
loop_
_atom_site_label
_atom_site_type_symbol
_atom_site_fract_x
_atom_site_fract_y
_atom_site_fract_z
O1	O	-1.175099	-0.195091	-0.146301
O2	O	-0.910901	-0.219936	-0.146330
O3	O	-1.066276	0.025036	-0.146311
O4	O	-1.019724	-0.440063	-0.146320
O5	O	-1.079630	-0.001961	0.146548
O6	O	-0.924254	-0.246933	0.146529
O7	O	-1.188453	-0.222088	0.146558
Zn8	Zn	-1.058474	-0.238797	0.193041
Zn9	Zn	-1.040880	-0.203227	-0.192813
O10	O	-1.033077	-0.467061	0.146539
C11	C	-0.884067	-0.232308	0.000096
C12	C	-0.784219	-0.228933	0.000084
C13	C	-1.076481	0.071060	0.000116
C14	C	-1.086981	0.248418	0.000107
C15	C	-1.215286	-0.209716	0.000129
C16	C	-1.315134	-0.213089	0.000128
C17	C	-0.382863	-0.069156	0.000127
C18	C	-0.341225	-0.360190	0.000119
C19	C	-0.435037	-0.363361	0.000114
C20	C	-0.502766	-0.219428	0.000112
C21	C	-0.476683	-0.072323	0.000116
C22	C	-0.461126	-0.510462	0.000092
C23	C	-0.554943	-0.513640	0.000084
C24	C	-0.622674	-0.369706	0.000095
C25	C	-0.596587	-0.222595	0.000101
C26	C	-0.664316	-0.078661	0.000099
C27	C	-0.638231	0.068450	0.000117
C28	C	-0.544415	0.071611	0.000126
C29	C	-0.716490	-0.372867	0.000086
C30	C	-0.758136	-0.081828	0.000088
C31	C	-1.022873	-0.513084	0.000109
C32	C	-1.012371	-0.690440	0.000106
N33	N	-1.070488	-0.263072	0.456377
N34	N	-1.028874	-0.178940	-0.456149
H35	H	-0.813278	0.035381	0.000093
C36	C	-0.971473	-0.062943	0.442269
H37	H	-0.946564	-0.012597	0.523454
H38	H	-1.010217	0.017071	0.370335
H39	H	-0.922212	-0.121760	0.370366
H40	H	-0.693387	0.185642	0.000104
H41	H	-0.405975	-0.627643	0.000075
C42	C	-0.515717	0.233416	0.000128
H43	H	-0.450143	0.214686	0.000112
H44	H	-0.544304	0.283282	0.102251
H45	H	-0.534984	0.302096	-0.102015
C46	C	-0.745182	-0.534667	0.000059
H47	H	-0.691409	-0.619934	0.000064
H48	H	-0.776256	-0.532529	-0.102069
H49	H	-0.785573	-0.551375	0.102197
H50	H	-0.361620	0.050618	0.000148
H51	H	-1.158897	0.331762	0.000129
C52	C	-0.266729	-0.518503	0.000125
H53	H	-0.207120	-0.495549	0.000142
H54	H	-0.268885	-0.569408	-0.101998
H55	H	-0.278212	-0.588219	0.102268
H56	H	-1.112967	-0.348940	0.531581
H57	H	-0.940461	0.226223	0.000103
H58	H	-0.576172	-0.633427	0.000069
