data_functionalizedCrystal
_audit_creation_method	'MofGen! by Chris Wilmer'
_symmetry_space_group_name_H-M	'P1'
_symmetry_Int_Tables_number	1
_symmetry_cell_setting	triclinic
loop_
_symmetry_equiv_pos_as_xyz
  x,y,z
_cell_length_a	16.120490
_cell_length_b	18.101395
_cell_length_c	16.120256
_cell_angle_alpha	92.874436
_cell_angle_beta	90.129807
_cell_angle_gamma	87.123501
loop_
_atom_site_label
_atom_site_type_symbol
_atom_site_fract_x
_atom_site_fract_y
_atom_site_fract_z
Zn1	Zn	1.247390	-0.375265	-0.534537
Zn2	Zn	1.497390	-0.125265	-0.284537
Zn3	Zn	1.747390	0.124735	-0.034537
Zn4	Zn	1.997390	0.374735	0.215463
Zn5	Zn	1.254324	-0.493153	-0.395479
Zn6	Zn	1.504324	-0.243153	-0.145479
Zn7	Zn	1.754324	0.006847	0.104521
Zn8	Zn	2.004324	0.256847	0.354521
Zn9	Zn	1.115382	-0.362740	-0.388458
Zn10	Zn	1.365382	-0.112740	-0.138458
Zn11	Zn	1.615382	0.137260	0.111542
Zn12	Zn	1.865382	0.387260	0.361542
Zn13	Zn	1.108279	-0.492468	-0.527452
Zn14	Zn	1.358279	-0.242468	-0.277452
Zn15	Zn	1.608279	0.007532	-0.027452
Zn16	Zn	1.858279	0.257532	0.222548
O17	O	1.181344	-0.430907	-0.461482
O18	O	1.431344	-0.180907	-0.211482
O19	O	1.681344	0.069093	0.038518
O20	O	1.931344	0.319093	0.288518
O21	O	1.364676	-0.396431	-0.521994
O22	O	1.614676	-0.146431	-0.271994
O23	O	1.864676	0.103569	-0.021994
O24	O	2.114676	0.353569	0.228006
O25	O	1.241767	-0.470899	-0.278182
O26	O	1.491767	-0.220899	-0.028182
O27	O	1.741767	0.029101	0.221818
O28	O	1.991767	0.279101	0.471818
O29	O	1.132964	-0.260773	-0.407862
O30	O	1.382964	-0.010773	-0.157862
O31	O	1.632964	0.239227	0.092138
O32	O	1.882964	0.489227	0.342138
O33	O	1.369770	-0.483044	-0.419829
O34	O	1.619770	-0.233044	-0.169829
O35	O	1.869770	0.016956	0.080171
O36	O	2.119770	0.266956	0.330171
O37	O	1.229950	-0.269975	-0.515186
O38	O	1.479950	-0.019975	-0.265186
O39	O	1.729950	0.230025	-0.015186
O40	O	1.979950	0.480025	0.234814
O41	O	1.139687	-0.375085	-0.273023
O42	O	1.389687	-0.125085	-0.023023
O43	O	1.639687	0.124915	0.226977
O44	O	1.889687	0.374915	0.476977
O45	O	0.998074	-0.374420	-0.400992
O46	O	1.248074	-0.124420	-0.150992
O47	O	1.498074	0.125580	0.099008
O48	O	1.748074	0.375580	0.349008
O49	O	1.120859	-0.481875	-0.644758
O50	O	1.370859	-0.231875	-0.394758
O51	O	1.620859	0.018125	-0.144758
O52	O	1.870859	0.268125	0.105242
O53	O	0.992856	-0.469731	-0.503111
O54	O	1.242856	-0.219731	-0.253111
O55	O	1.492856	0.030269	-0.003111
O56	O	1.742856	0.280269	0.246889
O57	O	1.223063	-0.395767	-0.649964
O58	O	1.473063	-0.145767	-0.399964
O59	O	1.723063	0.104233	-0.149964
O60	O	1.973063	0.354233	0.100036
O61	O	1.234880	-0.596691	-0.412959
O62	O	1.484880	-0.346691	-0.162959
O63	O	1.734880	-0.096691	0.087041
O64	O	1.984880	0.153309	0.337041
O65	O	1.127582	-0.596187	-0.509919
O66	O	1.377582	-0.346187	-0.259919
O67	O	1.627582	-0.096187	-0.009919
O68	O	1.877582	0.153813	0.240081
C69	C	0.965292	-0.420643	-0.450522
C70	C	1.215292	-0.170643	-0.200522
C71	C	1.465292	0.079357	0.049478
C72	C	1.715292	0.329357	0.299478
C73	C	0.872863	-0.416271	-0.445852
C74	C	1.122863	-0.166271	-0.195852
C75	C	1.372863	0.083729	0.054148
C76	C	1.622863	0.333729	0.304148
C77	C	0.659896	-0.453580	-0.485702
C78	C	0.909896	-0.203580	-0.235702
C79	C	1.159896	0.046420	0.014298
C80	C	1.409896	0.296420	0.264298
C81	C	0.703640	-0.408295	-0.437327
C82	C	0.953640	-0.158295	-0.187327
C83	C	1.203640	0.091705	0.062673
C84	C	1.453640	0.341705	0.312673
C85	C	0.797805	-0.412734	-0.442072
C86	C	1.047805	-0.162734	-0.192072
C87	C	1.297805	0.087266	0.057928
C88	C	1.547805	0.337266	0.307928
C89	C	0.565723	-0.449142	-0.480958
C90	C	0.815723	-0.199142	-0.230958
C91	C	1.065723	0.050858	0.019042
C92	C	1.315723	0.300858	0.269042
C93	C	1.181234	-0.623311	-0.461452
C94	C	1.431234	-0.373311	-0.211452
C95	C	1.681234	-0.123311	0.038548
C96	C	1.931234	0.126689	0.288548
C97	C	1.181262	-0.705627	-0.461470
C98	C	1.431262	-0.455627	-0.211470
C99	C	1.681262	-0.205627	0.038530
C100	C	1.931262	0.044373	0.288530
C101	C	1.181442	-1.004728	-0.461524
C102	C	1.431442	-0.754728	-0.211524
C103	C	1.681442	-0.504728	0.038476
C104	C	1.931442	-0.254728	0.288476
C105	C	1.114074	-0.973131	-0.522696
C106	C	1.364074	-0.723131	-0.272696
C107	C	1.614074	-0.473131	-0.022696
C108	C	1.864074	-0.223131	0.227304
C109	C	1.113779	-0.887490	-0.522479
C110	C	1.363779	-0.637490	-0.272479
C111	C	1.613779	-0.387490	-0.022479
C112	C	1.863779	-0.137490	0.227521
C113	C	1.181352	-0.856341	-0.461498
C114	C	1.431352	-0.606341	-0.211498
C115	C	1.681352	-0.356341	0.038502
C116	C	1.931352	-0.106341	0.288502
C117	C	1.162070	-0.882614	-0.372659
C118	C	1.412070	-0.632614	-0.122659
C119	C	1.662070	-0.382614	0.127341
C120	C	1.912070	-0.132614	0.377341
C121	C	1.161637	-0.968256	-0.373024
C122	C	1.411637	-0.718256	-0.123024
C123	C	1.661637	-0.468256	0.126976
C124	C	1.911637	-0.218256	0.376976
C125	C	1.268271	-0.978206	-0.488428
C126	C	1.518271	-0.728206	-0.238428
C127	C	1.768271	-0.478206	0.011572
C128	C	2.018271	-0.228206	0.261572
C129	C	1.267657	-0.892613	-0.490323
C130	C	1.517657	-0.642613	-0.240323
C131	C	1.767657	-0.392613	0.009677
C132	C	2.017657	-0.142613	0.259677
C133	C	1.181303	-0.772478	-0.461478
C134	C	1.431303	-0.522478	-0.211478
C135	C	1.681303	-0.272478	0.038522
C136	C	1.931303	-0.022478	0.288522
C137	C	1.181489	-1.088591	-0.461538
C138	C	1.431489	-0.838591	-0.211538
C139	C	1.681489	-0.588591	0.038462
C140	C	1.931489	-0.338591	0.288462
C141	C	1.398239	-0.441211	-0.472485
C142	C	1.648239	-0.191211	-0.222485
C143	C	1.898239	0.058789	0.027515
C144	C	2.148239	0.308789	0.277515
C145	C	1.490667	-0.445602	-0.477174
C146	C	1.740667	-0.195602	-0.227174
C147	C	1.990667	0.054398	0.022826
C148	C	2.240667	0.304398	0.272826
C149	C	1.170395	-0.440142	-0.678377
C150	C	1.420395	-0.190142	-0.428377
C151	C	1.670395	0.059858	-0.178377
C152	C	1.920395	0.309858	0.071623
C153	C	1.165729	-0.444077	-0.770805
C154	C	1.415729	-0.194077	-0.520805
C155	C	1.665729	0.055923	-0.270805
C156	C	1.915729	0.305923	-0.020805
C157	C	1.181476	-0.237753	-0.461531
C158	C	1.431476	0.012247	-0.211531
C159	C	1.681476	0.262247	0.038469
C160	C	1.931476	0.512247	0.288469
C161	C	1.181532	-0.155442	-0.461552
C162	C	1.431532	0.094558	-0.211552
C163	C	1.681532	0.344558	0.038448
C164	C	1.931532	0.594558	0.288448
C165	C	1.205674	-0.410365	-0.983788
C166	C	1.455674	-0.160365	-0.733788
C167	C	1.705674	0.089635	-0.483788
C168	C	1.955674	0.339635	-0.233788
C169	C	1.157183	-0.451230	-0.940025
C170	C	1.407183	-0.201230	-0.690025
C171	C	1.657183	0.048770	-0.440025
C172	C	1.907183	0.298770	-0.190025
C173	C	1.161940	-0.447249	-0.845862
C174	C	1.411940	-0.197249	-0.595862
C175	C	1.661940	0.052751	-0.345862
C176	C	1.911940	0.302751	-0.095862
C177	C	1.200918	-0.414345	-1.077959
C178	C	1.450918	-0.164345	-0.827959
C179	C	1.700918	0.085655	-0.577959
C180	C	1.950918	0.335655	-0.327959
C181	C	1.192298	-0.421656	-0.245433
C182	C	1.442298	-0.171656	0.004567
C183	C	1.692298	0.078344	0.254567
C184	C	1.942298	0.328344	0.504567
C185	C	1.197125	-0.417520	-0.153013
C186	C	1.447125	-0.167520	0.096987
C187	C	1.697125	0.082480	0.346987
C188	C	1.947125	0.332480	0.596987
H189	H	0.693163	-0.495681	-0.530677
H190	H	0.943163	-0.245681	-0.280677
H191	H	1.193163	0.004319	-0.030677
H192	H	1.443163	0.254319	0.219323
C193	C	1.096282	-0.502542	-0.984946
C194	C	1.346282	-0.252542	-0.734946
C195	C	1.596282	-0.002542	-0.484946
C196	C	1.846282	0.247458	-0.234946
N197	N	1.050417	-0.541193	-1.018785
N198	N	1.300417	-0.291193	-0.768785
N199	N	1.550417	-0.041193	-0.518785
N200	N	1.800417	0.208807	-0.268785
C201	C	1.266583	-0.359068	-0.938868
C202	C	1.516583	-0.109068	-0.688868
C203	C	1.766583	0.140932	-0.438868
C204	C	2.016583	0.390932	-0.188868
N205	N	1.312462	-0.320434	-0.905024
N206	N	1.562462	-0.070434	-0.655024
N207	N	1.812462	0.179566	-0.405024
N208	N	2.062462	0.429566	-0.155024
H209	H	0.670370	-0.366191	-0.392347
H210	H	0.920370	-0.116191	-0.142347
H211	H	1.170370	0.133809	0.107653
H212	H	1.420370	0.383809	0.357653
C213	C	1.293188	-1.012331	-0.574773
C214	C	1.543188	-0.762331	-0.324773
C215	C	1.793188	-0.512331	-0.074773
C216	C	2.043188	-0.262331	0.175227
N217	N	1.311946	-1.038034	-0.639811
N218	N	1.561946	-0.788034	-0.389811
N219	N	1.811946	-0.538034	-0.139811
N220	N	2.061946	-0.288034	0.110189
H221	H	1.125465	-0.997167	-0.588633
H222	H	1.375465	-0.747167	-0.338633
H223	H	1.625465	-0.497167	-0.088633
H224	H	1.875465	-0.247167	0.161367
H225	H	1.320148	-0.871723	-0.449371
H226	H	1.570148	-0.621723	-0.199371
H227	H	1.820148	-0.371723	0.050629
H228	H	2.070148	-0.121723	0.300629
C229	C	1.077440	-0.848536	-0.342158
C230	C	1.327440	-0.598536	-0.092158
C231	C	1.577440	-0.348536	0.157842
C232	C	1.827440	-0.098536	0.407842
N233	N	1.013693	-0.822869	-0.319189
N234	N	1.263693	-0.572869	-0.069189
N235	N	1.513693	-0.322869	0.180811
N236	N	1.763693	-0.072869	0.430811
C237	C	1.027524	-0.997280	-0.498421
C238	C	1.277524	-0.747280	-0.248421
C239	C	1.527524	-0.497280	0.001579
C240	C	1.777524	-0.247280	0.251579
N241	N	0.962335	-1.015467	-0.480132
N242	N	1.212335	-0.765467	-0.230132
N243	N	1.462335	-0.515467	0.019868
N244	N	1.712335	-0.265467	0.269868
C245	C	1.129378	-0.863742	-0.611284
C246	C	1.379378	-0.613742	-0.361284
C247	C	1.629378	-0.363742	-0.111284
C248	C	1.879378	-0.113742	0.138716
N249	N	1.141124	-0.845858	-0.678177
N250	N	1.391124	-0.595858	-0.428177
N251	N	1.641124	-0.345858	-0.178177
N252	N	1.891124	-0.095858	0.071823
H253	H	1.049329	-0.863337	-0.504308
H254	H	1.299329	-0.613337	-0.254308
H255	H	1.549329	-0.363337	-0.004308
H256	H	1.799329	-0.113337	0.245692
H257	H	1.098298	-0.984435	-0.350751
H258	H	1.348298	-0.734435	-0.100751
H259	H	1.598298	-0.484435	0.149249
H260	H	1.848298	-0.234435	0.399249
H261	H	1.208818	-0.988967	-0.325652
H262	H	1.458818	-0.738967	-0.075652
H263	H	1.708818	-0.488967	0.174348
H264	H	1.958818	-0.238967	0.424348
H265	H	1.209790	-0.862278	-0.325644
H266	H	1.459790	-0.612278	-0.075644
H267	H	1.709790	-0.362278	0.174356
H268	H	1.959790	-0.112278	0.424356
C269	C	1.287432	-0.869950	-0.578663
C270	C	1.537432	-0.619950	-0.328663
C271	C	1.787432	-0.369950	-0.078663
C272	C	2.037432	-0.119950	0.171337
N273	N	1.302330	-0.852866	-0.645196
N274	N	1.552330	-0.602866	-0.395196
N275	N	1.802330	-0.352866	-0.145196
N276	N	2.052330	-0.102866	0.104804
C277	C	1.336005	-1.005914	-0.428315
C278	C	1.586005	-0.755914	-0.178315
C279	C	1.836005	-0.505914	0.071685
C280	C	2.086005	-0.255914	0.321685
N281	N	1.387017	-1.026789	-0.383036
N282	N	1.637017	-0.776789	-0.133036
N283	N	1.887017	-0.526789	0.116964
N284	N	2.137017	-0.276789	0.366964
