data_functionalizedCrystal
_audit_creation_method	'MofGen! by Chris Wilmer'
_symmetry_space_group_name_H-M	'P1'
_symmetry_Int_Tables_number	1
_symmetry_cell_setting	triclinic
loop_
_symmetry_equiv_pos_as_xyz
  x,y,z
_cell_length_a	14.044220
_cell_length_b	19.188924
_cell_length_c	13.101039
_cell_angle_alpha	93.348752
_cell_angle_beta	86.340132
_cell_angle_gamma	88.165421
loop_
_atom_site_label
_atom_site_type_symbol
_atom_site_fract_x
_atom_site_fract_y
_atom_site_fract_z
O1	O	1.262226	0.164759	-0.085114
O2	O	0.986284	0.158686	-0.085140
O3	O	1.132221	0.060581	-0.085114
O4	O	1.116289	0.262864	-0.085140
O5	O	1.121750	0.067633	0.085314
O6	O	0.975813	0.165737	0.085288
O7	O	1.251756	0.171811	0.085314
Zn8	Zn	1.112122	0.169894	0.112360
Zn9	Zn	1.125918	0.160603	-0.112186
O10	O	1.105819	0.269916	0.085288
C11	C	0.945746	0.159553	0.000071
C12	C	0.840553	0.151624	0.000062
C13	C	0.647951	0.137129	0.000084
C14	C	0.590083	0.193364	0.000081
C15	C	0.482913	0.185299	0.000093
C16	C	0.755132	0.145193	0.000072
C17	C	1.126471	0.038063	0.000101
C18	C	1.124925	-0.039542	0.000103
C19	C	1.129911	-0.079831	-0.092797
C20	C	1.128446	-0.152748	-0.092805
C21	C	1.122013	-0.185374	0.000093
C22	C	1.117021	-0.145076	0.093006
C23	C	1.118477	-0.072159	0.093011
N24	N	1.169405	-0.298844	0.069239
N25	N	1.168025	-0.368112	0.069228
C26	C	1.117624	-0.405067	0.000083
N27	N	1.068670	-0.370139	-0.069067
N28	N	1.070055	-0.300865	-0.069059
C29	C	1.120433	-0.264440	0.000097
C30	C	1.121021	-0.524422	-0.092833
C31	C	1.119550	-0.597341	-0.092837
C32	C	1.108134	-0.589667	0.092976
C33	C	1.109596	-0.516750	0.092978
C34	C	1.116044	-0.484132	0.000070
C35	C	1.292294	0.170943	0.000101
C36	C	1.397487	0.178872	0.000103
C37	C	1.111569	0.292434	0.000071
C38	C	1.113115	0.370038	0.000062
N39	N	1.102714	0.176235	0.265607
N40	N	1.135334	0.154257	-0.265433
C41	C	1.089913	0.184868	0.474647
C42	C	1.148131	0.145626	0.525533
C43	C	1.141009	0.150430	0.641851
C44	C	1.097034	0.180065	0.358320
H45	H	1.135159	-0.053278	-0.168450
O46	O	1.221239	0.096345	0.467531
H47	H	1.293868	0.110611	0.488053
O48	O	1.127963	-0.489236	-0.193036
H49	H	1.064330	-0.453991	-0.197475
O50	O	0.631061	0.265163	0.000069
H51	H	0.610854	0.291039	-0.069393
H52	H	1.034726	0.222069	0.518435
O53	O	1.133827	-0.196218	-0.193008
H54	H	1.138559	-0.161286	-0.257610
H55	H	1.123606	-0.630144	-0.168491
O56	O	0.606965	0.065338	0.000096
H57	H	0.665886	0.025383	0.000101
O58	O	1.110099	-0.180266	0.193201
H59	H	1.044599	-0.211111	0.197636
O60	O	1.113115	-0.028698	0.193214
H61	H	1.108403	-0.063631	0.257814
H62	H	1.102889	-0.616230	0.168616
H63	H	1.105543	-0.483946	0.168628
