data_functionalizedCrystal
_audit_creation_method	'MofGen! by Chris Wilmer'
_symmetry_space_group_name_H-M	'P1'
_symmetry_Int_Tables_number	1
_symmetry_cell_setting	triclinic
loop_
_symmetry_equiv_pos_as_xyz
  x,y,z
_cell_length_a	11.169417
_cell_length_b	13.897441
_cell_length_c	11.169416
_cell_angle_alpha	89.975075
_cell_angle_beta	90.011589
_cell_angle_gamma	89.983906
loop_
_atom_site_label
_atom_site_type_symbol
_atom_site_fract_x
_atom_site_fract_y
_atom_site_fract_z
Zn1	Zn	1.834922	-0.545348	-0.477740
Zn2	Zn	1.834823	-0.384063	-0.678460
Zn3	Zn	1.634220	-0.384074	-0.477794
Zn4	Zn	1.634215	-0.545323	-0.678385
O5	O	1.734545	-0.464702	-0.578095
O6	O	2.002858	-0.523960	-0.504375
O7	O	1.808173	-0.249083	-0.651895
O8	O	1.660886	-0.405482	-0.309837
O9	O	2.002786	-0.405464	-0.651843
O10	O	1.808341	-0.523970	-0.309798
O11	O	1.660791	-0.249091	-0.504467
O12	O	1.466269	-0.405457	-0.504394
O13	O	1.660879	-0.680308	-0.651715
O14	O	1.466266	-0.523926	-0.651767
O15	O	1.808337	-0.680327	-0.504302
O16	O	1.808169	-0.405439	-0.846400
O17	O	1.660783	-0.523916	-0.846344
C18	C	1.422720	-0.464691	-0.578079
C19	C	1.289320	-0.464709	-0.578101
C20	C	1.734618	-0.716295	-0.577994
C21	C	1.734650	-0.823509	-0.577951
C22	C	1.734674	-0.910579	-0.577917
C23	C	1.734709	-1.019811	-0.577863
C24	C	2.047587	-0.464714	-0.578112
C25	C	2.180987	-0.464718	-0.578119
C26	C	1.734497	-0.464695	-0.889919
C27	C	1.734587	-0.464724	-1.023319
C28	C	1.734541	-0.214088	-0.578109
C29	C	1.734742	-0.106874	-0.577813
C30	C	1.734625	-0.464730	-0.265052
C31	C	1.734660	-0.464742	-0.131652
