data_functionalizedCrystal
_audit_creation_method	'MofGen! by Chris Wilmer'
_symmetry_space_group_name_H-M	'P1'
_symmetry_Int_Tables_number	1
_symmetry_cell_setting	triclinic
loop_
_symmetry_equiv_pos_as_xyz
  x,y,z
_cell_length_a	12.759401
_cell_length_b	21.295416
_cell_length_c	21.295412
_cell_angle_alpha	89.971805
_cell_angle_beta	90.020427
_cell_angle_gamma	89.969242
loop_
_atom_site_label
_atom_site_type_symbol
_atom_site_fract_x
_atom_site_fract_y
_atom_site_fract_z
Zn1	Zn	1.606160	0.250618	0.355870
Zn2	Zn	1.606001	0.355886	0.250600
Zn3	Zn	1.430456	0.250636	0.250621
Zn4	Zn	1.430403	0.355854	0.355838
O5	O	1.518255	0.303248	0.303232
O6	O	1.753160	0.264588	0.341911
O7	O	1.582670	0.341945	0.162514
O8	O	1.453853	0.162544	0.264605
O9	O	1.753043	0.341928	0.264570
O10	O	1.582942	0.162531	0.341931
O11	O	1.453699	0.264618	0.162529
O12	O	1.283428	0.264587	0.264573
O13	O	1.453761	0.341873	0.443931
O14	O	1.283389	0.341890	0.341876
O15	O	1.582890	0.264557	0.443955
O16	O	1.582618	0.443971	0.264538
O17	O	1.453607	0.443947	0.341855
C18	C	1.245288	0.303237	0.303223
C19	C	1.128511	0.303248	0.303235
C20	C	1.073710	0.263050	0.343568
C21	C	0.963986	0.263056	0.343573
C22	C	0.963873	0.343465	0.262907
C23	C	1.073595	0.343454	0.262901
C24	C	1.518118	0.466800	0.303205
C25	C	1.518156	0.536768	0.303214
C26	C	1.585392	0.569626	0.262997
C27	C	1.585441	0.635369	0.263014
C28	C	1.518236	0.668251	0.303241
C29	C	1.450995	0.635384	0.343465
C30	C	1.450955	0.569643	0.343452
N31	N	1.426330	0.771517	0.308041
N32	N	1.426371	0.833968	0.308051
C33	C	1.518355	0.866325	0.303286
N34	N	1.610298	0.833871	0.298499
N35	N	1.610256	0.771414	0.298486
C36	C	1.518273	0.739536	0.303261
C37	C	1.585650	0.970469	0.263085
C38	C	1.585702	1.036213	0.263107
C39	C	1.451246	1.036227	0.343555
C40	C	1.451204	0.970485	0.343537
C41	C	1.518405	0.937609	0.303299
C42	C	1.792288	0.303260	0.303242
C43	C	1.909065	0.303264	0.303246
C44	C	1.518337	0.303209	0.467423
C45	C	1.518372	0.303192	0.537391
C46	C	1.518422	1.139058	0.303285
C47	C	1.518497	1.069090	0.303335
C48	C	1.518234	0.303242	0.139681
C49	C	1.518402	0.303081	0.069713
C50	C	1.451235	0.262924	0.570256
C51	C	1.451231	0.262912	0.635998
C52	C	1.518384	0.303162	0.668873
C53	C	1.585526	0.343439	0.636001
C54	C	1.585520	0.343454	0.570259
N55	N	1.610353	0.307970	0.772109
N56	N	1.610355	0.307952	0.834560
C57	C	1.518403	0.303121	0.866948
N58	N	1.426446	0.298296	0.834525
N59	N	1.426445	0.298310	0.772068
C60	C	1.518397	0.303151	0.740159
C61	C	1.451255	0.262837	0.971098
C62	C	1.451250	0.262830	1.036842
C63	C	1.585554	0.343353	1.036844
C64	C	1.585551	0.343364	0.971101
C65	C	1.518403	0.303102	0.938233
H66	H	1.118215	0.376189	0.230053
Cl67	Cl	1.142744	0.212502	0.394271
H68	H	1.640196	0.376245	0.543501
H69	H	1.640113	0.542861	0.230235
H70	H	1.396450	0.943730	0.376282
Cl71	Cl	1.669965	0.393986	0.929783
Cl72	Cl	1.366766	1.077558	0.394131
H73	H	0.919373	0.230322	0.376415
Cl74	Cl	1.670128	0.929137	0.212501
H75	H	1.640197	0.662127	0.230265
Cl76	Cl	1.366514	0.676721	0.394039
Cl77	Cl	0.894828	0.394009	0.212207
H78	H	1.396553	0.230142	0.543498
H79	H	1.396203	0.542890	0.376202
Cl80	Cl	1.670243	1.077521	0.212549
H81	H	1.640202	0.376211	0.662772
H82	H	1.396571	0.230040	1.063600
Cl83	Cl	1.366837	0.212227	0.929775
H84	H	1.396561	0.230117	0.662762
Cl85	Cl	1.669969	0.393959	1.078167
