data_functionalizedCrystal
_audit_creation_method	'MofGen! by Chris Wilmer'
_symmetry_space_group_name_H-M	'P1'
_symmetry_Int_Tables_number	1
_symmetry_cell_setting	triclinic
loop_
_symmetry_equiv_pos_as_xyz
  x,y,z
_cell_length_a	17.077404
_cell_length_b	16.625545
_cell_length_c	17.077396
_cell_angle_alpha	89.972074
_cell_angle_beta	89.981638
_cell_angle_gamma	90.023528
loop_
_atom_site_label
_atom_site_type_symbol
_atom_site_fract_x
_atom_site_fract_y
_atom_site_fract_z
Zn1	Zn	1.200040	-0.321045	-0.443822
Zn2	Zn	1.199941	-0.455888	-0.312557
Zn3	Zn	1.068772	-0.321068	-0.312572
Zn4	Zn	1.068734	-0.455835	-0.443783
O5	O	1.134372	-0.388459	-0.378184
O6	O	1.309874	-0.338945	-0.426419
O7	O	1.182516	-0.438036	-0.202712
O8	O	1.086242	-0.208233	-0.330005
O9	O	1.309801	-0.438013	-0.329979
O10	O	1.182684	-0.208216	-0.426434
O11	O	1.086146	-0.338984	-0.202723
O12	O	0.958920	-0.338933	-0.329968
O13	O	1.086177	-0.437923	-0.553635
O14	O	0.958892	-0.437945	-0.426368
O15	O	1.182647	-0.338894	-0.553664
O16	O	1.182479	-0.568713	-0.329942
O17	O	1.086081	-0.568674	-0.426353
C18	C	0.930424	-0.388436	-0.378166
C19	C	0.843174	-0.388446	-0.378177
C20	C	0.802222	-0.336953	-0.428470
C21	C	0.720242	-0.336958	-0.428474
C22	C	0.679215	-0.388461	-0.378188
C23	C	0.720172	-0.439956	-0.327889
C24	C	0.802151	-0.439947	-0.327882
C25	C	0.549302	-0.439975	-0.327909
C26	C	0.467317	-0.439986	-0.327917
C27	C	0.467393	-0.336986	-0.428500
C28	C	0.549372	-0.336976	-0.428493
C29	C	0.590324	-0.388473	-0.378196
C30	C	1.134286	-0.597950	-0.378159
C31	C	1.134322	-0.687571	-0.378175
C32	C	1.134352	-0.760354	-0.378190
C33	C	1.134398	-0.851662	-0.378208
C34	C	1.134439	-0.924438	-0.378218
C35	C	1.134483	-1.015753	-0.378234
C36	C	1.339116	-0.388483	-0.378202
C37	C	1.426366	-0.388493	-0.378210
C38	C	1.134419	-0.388400	-0.582928
C39	C	1.134439	-0.388374	-0.670178
C40	C	1.134479	-0.178150	-0.378226
C41	C	1.134524	-0.088529	-0.378244
C42	C	1.184673	-0.336806	-0.711184
C43	C	1.184683	-0.336779	-0.793165
C44	C	1.134462	-0.388325	-0.834137
C45	C	1.084222	-0.439897	-0.793125
C46	C	1.084209	-0.439919	-0.711146
C47	C	1.084254	-0.439848	-0.963996
C48	C	1.084268	-0.439827	-1.045980
C49	C	1.184727	-0.336708	-1.046014
C50	C	1.184714	-0.336730	-0.964035
C51	C	1.134476	-0.388303	-0.923028
C52	C	1.134370	-0.388460	-0.174236
C53	C	1.134501	-0.388258	-0.086986
H54	H	0.686903	-0.295029	-0.469429
H55	H	0.434046	-0.295054	-0.469453
C56	C	0.847345	-0.280294	-0.483789
N57	N	0.881329	-0.237613	-0.525454
C58	C	1.028991	-0.496584	-0.918891
N59	N	0.987372	-0.539320	-0.884918
H60	H	0.582642	-0.481907	-0.286949
C61	C	1.029017	-0.496526	-1.091049
N62	N	0.987400	-0.539231	-1.124994
C63	C	0.675039	-0.496609	-0.272573
N64	N	0.641045	-0.539284	-0.230910
H65	H	0.582774	-0.295043	-0.469445
C66	C	0.847197	-0.496595	-0.272558
N67	N	0.881125	-0.539263	-0.230885
H68	H	1.225572	-0.294833	-0.677830
H69	H	1.225613	-0.294761	-0.930677
C70	C	1.028950	-0.496650	-0.666040
N71	N	0.987325	-0.539380	-0.632067
H72	H	1.225590	-0.294788	-0.826548
C73	C	0.422189	-0.496640	-0.272598
N74	N	0.388198	-0.539313	-0.230932
H75	H	1.225632	-0.294715	-1.079405
H76	H	1.043329	-0.481864	-0.826492
