data_functionalizedCrystal
_audit_creation_method	'MofGen! by Chris Wilmer'
_symmetry_space_group_name_H-M	'P1'
_symmetry_Int_Tables_number	1
_symmetry_cell_setting	triclinic
loop_
_symmetry_equiv_pos_as_xyz
  x,y,z
_cell_length_a	18.050582
_cell_length_b	14.908571
_cell_length_c	14.908520
_cell_angle_alpha	90.205961
_cell_angle_beta	86.725523
_cell_angle_gamma	93.307198
loop_
_atom_site_label
_atom_site_type_symbol
_atom_site_fract_x
_atom_site_fract_y
_atom_site_fract_z
Zn1	Zn	-0.504882	-1.353908	0.437476
Zn2	Zn	-0.004882	-0.853908	0.937476
Zn3	Zn	-0.387416	-1.345138	0.587824
Zn4	Zn	0.112584	-0.845138	1.087824
Zn5	Zn	-0.373166	-1.203557	0.428799
Zn6	Zn	0.126834	-0.703557	0.928799
Zn7	Zn	-0.504024	-1.194835	0.579100
Zn8	Zn	-0.004024	-0.694835	1.079100
O9	O	-0.442372	-1.274359	0.508300
O10	O	0.057628	-0.774359	1.008300
O11	O	-0.495623	-1.478568	0.464702
O12	O	0.004377	-0.978568	0.964702
O13	O	-0.281601	-1.326337	0.566750
O14	O	0.218399	-0.826337	1.066750
O15	O	-0.385033	-1.230822	0.304128
O16	O	0.114967	-0.730822	0.804128
O17	O	-0.409322	-1.472125	0.575163
O18	O	0.090678	-0.972125	1.075163
O19	O	-0.481805	-1.341284	0.310502
O20	O	0.018195	-0.841284	0.810502
O21	O	-0.271131	-1.222318	0.449915
O22	O	0.228869	-0.722318	0.949915
O23	O	-0.384201	-1.076576	0.441455
O24	O	0.115799	-0.576576	0.941455
O25	O	-0.608063	-1.215957	0.560292
O26	O	-0.108063	-0.715957	1.060292
O27	O	-0.480342	-1.070168	0.551880
O28	O	0.019658	-0.570168	1.051880
O29	O	-0.608693	-1.332826	0.456242
O30	O	-0.108693	-0.832826	0.956242
O31	O	-0.408489	-1.317879	0.712489
O32	O	0.091511	-0.817879	1.212489
O33	O	-0.494161	-1.207453	0.706079
O34	O	0.005839	-0.707453	1.206079
C35	C	-0.430633	-1.040747	0.494780
C36	C	0.069367	-0.540747	0.994780
C37	C	-0.425629	-0.940806	0.489017
C38	C	0.074371	-0.440806	0.989017
C39	C	-0.452796	-1.260792	0.741910
C40	C	0.047204	-0.760792	1.241910
C41	C	-0.457284	-1.255071	0.841855
C42	C	0.042716	-0.755071	1.341855
C43	C	-0.636078	-1.274397	0.508262
C44	C	-0.136078	-0.774397	1.008262
C45	C	-0.718624	-1.274413	0.508246
C46	C	-0.218624	-0.774413	1.008246
C47	C	-0.917730	-1.210910	0.564749
C48	C	-0.417730	-0.710910	1.064749
C49	C	-0.972220	-1.291677	0.591470
C50	C	-0.472220	-0.791677	1.091470
C51	C	-0.869753	-1.274461	0.508180
C52	C	-0.369753	-0.774461	1.008180
C53	C	-0.962346	-1.193741	0.481436
C54	C	-0.462346	-0.693741	0.981436
C55	C	-1.015737	-1.274501	0.508117
C56	C	-0.515737	-0.774501	1.008117
C57	C	-0.923160	-1.355269	0.534946
C58	C	-0.423160	-0.855269	1.034946
C59	C	-0.913278	-1.257279	0.424871
C60	C	-0.413278	-0.757279	0.924871
C61	C	-0.967746	-1.338105	0.451564
C62	C	-0.467746	-0.838105	0.951564
C63	C	-0.785656	-1.274437	0.508218
C64	C	-0.285656	-0.774437	1.008218
C65	C	-1.099834	-1.274534	0.508079
C66	C	-0.599834	-0.774534	1.008079
C67	C	-0.249420	-1.274378	0.508275
C68	C	0.250580	-0.774378	1.008275
C69	C	-0.166872	-1.274550	0.508048
C70	C	0.333128	-0.774550	1.008048
C71	C	-0.454158	-1.508884	0.521873
C72	C	0.045842	-1.008884	1.021873
C73	C	-0.459180	-1.608824	0.527658
C74	C	0.040820	-1.108824	1.027658
C75	C	-0.516219	-0.746371	0.593353
C76	C	-0.016219	-0.246371	1.093353
C77	C	-0.511520	-0.652467	0.587942
C78	C	-0.011520	-0.152467	1.087942
C79	C	-0.411537	-0.659092	0.472779
C80	C	0.088463	-0.159092	0.972779
C81	C	-0.416236	-0.752996	0.478190
C82	C	0.083764	-0.252996	0.978190
C83	C	-0.468578	-0.796632	0.538480
C84	C	0.031422	-0.296632	1.038480
C85	C	-0.473272	-0.890538	0.543896
C86	C	0.026728	-0.390538	1.043896
C87	C	-0.373293	-0.897162	0.428729
C88	C	0.126707	-0.397162	0.928729
C89	C	-0.368595	-0.803258	0.423318
C90	C	0.131405	-0.303258	0.923318
C91	C	-0.431925	-1.288004	0.273778
C92	C	0.068075	-0.788004	0.773778
C93	C	-0.427474	-1.293818	0.173839
C94	C	0.072526	-0.793818	0.673839
C95	C	-0.376591	-1.359424	1.036281
C96	C	0.123409	-0.859424	1.536281
C97	C	-0.380806	-1.354051	1.130188
C98	C	0.119194	-0.854051	1.630188
C99	C	-0.469932	-1.238957	1.123577
C100	C	0.030068	-0.738957	1.623577
C101	C	-0.465717	-1.244330	1.029670
C102	C	0.034283	-0.744330	1.529670
C103	C	-0.419044	-1.304565	0.986026
C104	C	0.080956	-0.804565	1.486026
C105	C	-0.414826	-1.309932	0.892117
C106	C	0.085174	-0.809932	1.392117
C107	C	-0.503955	-1.194843	0.885508
C108	C	-0.003955	-0.694843	1.385508
C109	C	-0.508170	-1.189470	0.979415
C110	C	-0.008170	-0.689470	1.479415
H111	H	-0.997954	-1.306233	0.661896
H112	H	-0.497954	-0.806233	1.161896
C113	C	-0.888078	-1.138367	0.629459
C114	C	-0.388078	-0.638367	1.129459
H115	H	-0.855572	-1.096164	0.596919
H116	H	-0.355572	-0.596164	1.096919
H117	H	-0.861832	-1.165769	0.674475
H118	H	-0.361832	-0.665769	1.174475
H119	H	-0.928540	-1.108403	0.656894
H120	H	-0.428540	-0.608403	1.156894
C121	C	-0.334103	-1.414392	1.185466
C122	C	0.165897	-0.914392	1.685466
H123	H	-0.305701	-1.451028	1.146020
H124	H	0.194299	-0.951028	1.646020
H125	H	-0.366147	-1.451451	1.224312
H126	H	0.133853	-0.951451	1.724312
H127	H	-0.301636	-1.377918	1.220160
H128	H	0.198364	-0.877918	1.720160
H129	H	-0.507936	-1.189922	1.159129
H130	H	-0.007936	-0.689922	1.659129
H131	H	-0.338582	-1.408463	1.000745
H132	H	0.161418	-0.908463	1.500745
H133	H	-0.546172	-1.140431	1.014963
H134	H	-0.046172	-0.640431	1.514963
H135	H	-0.887527	-1.242698	0.354464
H136	H	-0.387527	-0.742698	0.854464
C137	C	-0.550654	-1.134489	0.830229
C138	C	-0.050654	-0.634489	1.330229
H139	H	-0.579047	-1.097842	0.869674
H140	H	-0.079047	-0.597842	1.369674
H141	H	-0.583117	-1.170947	0.795525
H142	H	-0.083117	-0.670947	1.295525
H143	H	-0.518598	-1.097427	0.791393
H144	H	-0.018598	-0.597427	1.291393
C145	C	-0.573788	-0.794373	0.659670
C146	C	-0.073788	-0.294373	1.159670
H147	H	-0.601491	-0.750989	0.691574
H148	H	-0.101491	-0.250989	1.191574
H149	H	-0.548905	-0.828726	0.700908
H150	H	-0.048905	-0.328726	1.200908
H151	H	-0.606496	-0.833008	0.627434
H152	H	-0.106496	-0.333008	1.127434
C153	C	-0.899811	-1.447545	0.565536
C154	C	-0.399811	-0.947545	1.065536
H155	H	-0.847147	-1.446962	0.565387
H156	H	-0.347147	-0.946962	1.065387
H157	H	-0.917360	-1.492691	0.525575
H158	H	-0.417360	-0.992691	1.025575
H159	H	-0.920512	-1.459903	0.624518
H160	H	-0.420512	-0.959903	1.124518
H161	H	-0.979730	-1.125460	0.458844
H162	H	-0.479730	-0.625460	0.958844
H163	H	-0.550316	-0.611547	0.632623
H164	H	-0.050316	-0.111547	1.132623
H165	H	-0.989562	-1.391924	0.403702
H166	H	-0.489562	-0.891924	0.903702
H167	H	-0.376820	-1.358976	0.856582
H168	H	0.123180	-0.858976	1.356582
H169	H	-0.368928	-0.623548	0.423688
H170	H	0.131072	-0.123548	0.923688
H171	H	-0.515890	-0.926064	0.592988
H172	H	-0.015890	-0.426064	1.092988
C173	C	-0.311020	-0.755253	0.357010
C174	C	0.188980	-0.255253	0.857010
H175	H	-0.315040	-0.692128	0.361649
H176	H	0.184960	-0.192128	0.861649
H177	H	-0.320035	-0.774146	0.297499
H178	H	0.179965	-0.274146	0.797499
H179	H	-0.262456	-0.769860	0.370988
H180	H	0.237544	-0.269860	0.870988
C181	C	-0.320888	-0.952451	0.368364
C182	C	0.179112	-0.452451	0.868364
H183	H	-0.331184	-1.014627	0.380216
H184	H	0.168816	-0.514627	0.880216
H185	H	-0.270785	-0.936278	0.380552
H186	H	0.229215	-0.436278	0.880552
H187	H	-0.328377	-0.940567	0.307079
H188	H	0.171623	-0.440567	0.807079
