data_functionalizedCrystal
_audit_creation_method	'MofGen! by Chris Wilmer'
_symmetry_space_group_name_H-M	'P1'
_symmetry_Int_Tables_number	1
_symmetry_cell_setting	triclinic
loop_
_symmetry_equiv_pos_as_xyz
  x,y,z
_cell_length_a	19.805407
_cell_length_b	21.295417
_cell_length_c	21.295411
_cell_angle_alpha	90.028718
_cell_angle_beta	90.017372
_cell_angle_gamma	90.030507
loop_
_atom_site_label
_atom_site_type_symbol
_atom_site_fract_x
_atom_site_fract_y
_atom_site_fract_z
Zn1	Zn	1.034702	-0.250637	0.355927
Zn2	Zn	1.534702	0.249363	0.855927
Zn3	Zn	1.034613	-0.355902	0.250652
Zn4	Zn	1.534613	0.144098	0.750652
Zn5	Zn	0.921521	-0.250650	0.250670
Zn6	Zn	1.421521	0.249350	0.750670
Zn7	Zn	0.921472	-0.355872	0.355882
Zn8	Zn	1.421472	0.144128	0.855882
O9	O	0.978077	-0.303265	0.303283
O10	O	1.478077	0.196735	0.803283
O11	O	1.129406	-0.264607	0.341973
O12	O	1.629406	0.235393	0.841973
O13	O	1.019594	-0.341958	0.162565
O14	O	1.519594	0.158042	0.662565
O15	O	0.936592	-0.162559	0.264659
O16	O	1.436592	0.337441	0.764659
O17	O	1.129341	-0.341945	0.264628
O18	O	1.629341	0.158055	0.764628
O19	O	1.019746	-0.162549	0.341991
O20	O	1.519746	0.337451	0.841991
O21	O	0.936506	-0.264630	0.162578
O22	O	1.436506	0.235370	0.662578
O23	O	0.826798	-0.264602	0.264616
O24	O	1.326798	0.235398	0.764616
O25	O	0.936509	-0.341895	0.443978
O26	O	1.436509	0.158105	0.943978
O27	O	0.826762	-0.341908	0.341915
O28	O	1.326762	0.158092	0.841915
O29	O	1.019698	-0.264579	0.444010
O30	O	1.519698	0.235421	0.944010
O31	O	1.019547	-0.443987	0.264585
O32	O	1.519547	0.056013	0.764585
O33	O	0.936422	-0.443966	0.341897
O34	O	1.436422	0.056034	0.841897
C35	C	0.802221	-0.303253	0.303263
C36	C	1.302221	0.196747	0.803263
C37	C	0.726989	-0.303263	0.303269
C38	C	1.226989	0.196737	0.803269
C39	C	0.691644	-0.343577	0.343453
C40	C	1.191644	0.156423	0.843453
C41	C	0.620955	-0.343578	0.343462
C42	C	1.120955	0.156422	0.843462
C43	C	0.585613	-0.303268	0.303283
C44	C	1.085613	0.196732	0.803283
C45	C	0.620963	-0.262950	0.263097
C46	C	1.120963	0.237050	0.763097
C47	C	0.691650	-0.262946	0.263092
C48	C	1.191650	0.237054	0.763092
C49	C	0.335890	-0.262964	0.263118
C50	C	0.835890	0.237036	0.763118
C51	C	0.265198	-0.262972	0.263125
C52	C	0.765198	0.237028	0.763125
C53	C	0.265195	-0.343596	0.343488
C54	C	0.765195	0.156404	0.843488
C55	C	0.335882	-0.343592	0.343483
C56	C	0.835882	0.156408	0.843483
C57	C	0.371226	-0.303272	0.303299
C58	C	0.871226	0.196728	0.803299
C59	C	0.447874	-0.303270	0.303291
C60	C	0.947874	0.196730	0.803291
C61	C	0.508966	-0.303273	0.303288
C62	C	1.008966	0.196727	0.803288
C63	C	0.977988	-0.466817	0.303248
C64	C	1.477988	0.033183	0.803248
C65	C	0.978012	-0.536785	0.303254
C66	C	1.478012	-0.036785	0.803254
C67	C	1.021333	-0.569642	0.263039
C68	C	1.521333	-0.069642	0.763039
C69	C	1.021365	-0.635385	0.263053
C70	C	1.521365	-0.135385	0.763053
C71	C	0.978063	-0.668268	0.303276
C72	C	1.478063	-0.168268	0.803276
C73	C	0.934739	-0.635403	0.343499
C74	C	1.434739	-0.135403	0.843499
C75	C	0.934713	-0.569661	0.343488
C76	C	1.434713	-0.069661	0.843488
N77	N	0.918853	-0.771534	0.308068
N78	N	1.418853	-0.271534	0.808068
N79	N	0.918879	-0.833985	0.308075
N80	N	1.418879	-0.333985	0.808075
C81	C	0.978139	-0.866342	0.303312
C82	C	1.478139	-0.366342	0.803312
N83	N	1.037373	-0.833889	0.298530
N84	N	1.537373	-0.333889	0.798530
N85	N	1.037346	-0.771432	0.298520
N86	N	1.537346	-0.271432	0.798520
C87	C	0.978087	-0.739553	0.303292
C88	C	1.478087	-0.239553	0.803292
C89	C	1.021498	-0.970485	0.263110
C90	C	1.521498	-0.470485	0.763110
C91	C	1.021531	-1.036229	0.263129
C92	C	1.521531	-0.536229	0.763129
C93	C	0.934899	-1.036245	0.343571
C94	C	1.434899	-0.536245	0.843571
C95	C	0.934873	-0.970503	0.343556
C96	C	1.434873	-0.470503	0.843556
C97	C	0.978171	-0.937627	0.303322
C98	C	1.478171	-0.437627	0.803322
C99	C	1.154619	-0.303278	0.303304
C100	C	1.654619	0.196722	0.803304
C101	C	1.229851	-0.303283	0.303313
C102	C	1.729851	0.196717	0.803313
C103	C	0.978108	-0.303232	0.467473
C104	C	1.478108	0.196768	0.967473
C105	C	0.978121	-0.303218	0.537441
C106	C	1.478121	0.196782	1.037441
C107	C	0.978184	-0.139075	0.303332
C108	C	1.478184	0.360925	0.803332
C109	C	0.978230	-0.069107	0.303353
C110	C	1.478230	0.430893	0.803353
C111	C	0.978085	-0.303253	0.139731
C112	C	1.478085	0.196747	0.639731
C113	C	0.978203	-0.303090	0.069764
C114	C	1.478203	0.196910	0.569764
C115	C	1.021461	-0.343352	1.036893
C116	C	1.521461	0.156648	1.536893
C117	C	1.021449	-0.343372	0.971151
C118	C	1.521449	0.156628	1.471151
C119	C	0.978185	-0.303119	0.938281
C120	C	1.478185	0.196881	1.438281
C121	C	0.934918	-0.262855	0.971159
C122	C	1.434918	0.237145	1.471159
C123	C	0.934927	-0.262841	1.036901
C124	C	1.434927	0.237159	1.536901
N125	N	0.973015	-0.248040	0.835076
N126	N	1.473015	0.251960	1.335076
N127	N	0.973011	-0.248056	0.772624
N128	N	1.473011	0.251944	1.272624
C129	C	0.978155	-0.303162	0.740206
C130	C	1.478155	0.196838	1.240206
N131	N	0.983318	-0.358253	0.772599
N132	N	1.483318	0.141747	1.272599
N133	N	0.983325	-0.358237	0.835056
N134	N	1.483325	0.141763	1.335056
C135	C	0.978171	-0.303131	0.866996
C136	C	1.478171	0.196869	1.366996
C137	C	1.021403	-0.343448	0.636050
C138	C	1.521403	0.156552	1.136050
C139	C	1.021386	-0.343469	0.570307
C140	C	1.521386	0.156531	1.070307
C141	C	0.934859	-0.262948	0.570316
C142	C	1.434859	0.237052	1.070316
C143	C	0.934873	-0.262932	0.636059
C144	C	1.434873	0.237068	1.136059
C145	C	0.978148	-0.303181	0.668922
C146	C	1.478148	0.196819	1.168922
H147	H	0.592180	-0.376406	0.376184
H148	H	1.092180	0.123594	0.876184
C149	C	0.888018	-0.219182	0.671835
C150	C	1.388018	0.280818	1.171835
C151	C	0.926367	-0.178839	0.709611
C152	C	1.426367	0.321161	1.209611
C153	C	0.883222	-0.138537	0.742584
C154	C	1.383222	0.361463	1.242584
H155	H	0.862230	-0.195151	0.642921
H156	H	1.362230	0.304849	1.142921
H157	H	0.858529	-0.243245	0.697504
H158	H	1.358529	0.256755	1.197504
H159	H	0.955844	-0.154779	0.683944
H160	H	1.455844	0.345221	1.183944
H161	H	0.952153	-0.202853	0.738537
H162	H	1.452153	0.297147	1.238537
H163	H	0.853734	-0.162599	0.768253
H164	H	1.353734	0.337401	1.268253
H165	H	0.857437	-0.114510	0.713665
H166	H	1.357437	0.385490	1.213665
H167	H	0.909235	-0.111163	0.768223
H168	H	1.409235	0.388837	1.268223
H169	H	0.899593	-0.943749	0.376300
H170	H	1.399593	-0.443749	0.876300
C171	C	0.730047	-0.387421	0.386973
C172	C	1.230047	0.112579	0.886973
C173	C	0.770580	-0.427731	0.351255
C174	C	1.270580	0.072269	0.851255
C175	C	0.805958	-0.468133	0.391327
C176	C	1.305958	0.031867	0.891327
H177	H	0.757701	-0.363449	0.414456
H178	H	1.257701	0.136551	0.914456
H179	H	0.698891	-0.411466	0.410897
H180	H	1.198891	0.088534	0.910897
H181	H	0.801732	-0.403689	0.327342
H182	H	1.301732	0.096311	0.827342
H183	H	0.742943	-0.451717	0.323774
H184	H	1.242943	0.048283	0.823774
H185	H	0.774802	-0.492178	0.415250
H186	H	1.274802	0.007822	0.915250
H187	H	0.833608	-0.444156	0.418807
H188	H	1.333608	0.055844	0.918807
H189	H	0.833459	-0.495492	0.367098
H190	H	1.333459	0.004508	0.867098
C191	C	0.226916	-0.219237	0.219396
C192	C	0.726916	0.280763	0.719396
C193	C	0.244097	-0.232844	0.157088
C194	C	0.744097	0.267156	0.657088
C195	C	0.208854	-0.192566	0.116789
C196	C	0.708854	0.307434	0.616789
H197	H	0.179745	-0.224974	0.225065
H198	H	0.679745	0.275026	0.725065
H199	H	0.238539	-0.176943	0.228652
H200	H	0.738539	0.323057	0.728652
H201	H	0.232469	-0.275128	0.147835
H202	H	0.732469	0.224872	0.647835
H203	H	0.291262	-0.227103	0.151400
H204	H	0.791262	0.272897	0.651400
H205	H	0.220477	-0.150272	0.126045
H206	H	0.720477	0.349728	0.626045
H207	H	0.161684	-0.198306	0.122463
H208	H	0.661684	0.301694	0.622463
H209	H	0.220511	-0.201789	0.074509
H210	H	0.720511	0.298211	0.574509
H211	H	1.056697	-0.376128	1.063646
H212	H	1.556697	0.123872	1.563646
C213	C	0.887833	-0.219231	0.935508
C214	C	1.387833	0.280769	1.435508
C215	C	0.820858	-0.232946	0.951470
C216	C	1.320858	0.267054	1.451470
C217	C	0.777460	-0.192779	0.918634
C218	C	1.277460	0.307221	1.418634
H219	H	0.897673	-0.176910	0.946268
H220	H	1.397673	0.323090	1.446268
H221	H	0.893979	-0.225010	0.891641
H222	H	1.393979	0.274990	1.391641
H223	H	0.814715	-0.227161	0.995327
H224	H	1.314715	0.272839	1.495327
H225	H	0.810996	-0.275259	0.940708
H226	H	1.310996	0.224741	1.440708
H227	H	0.783605	-0.198559	0.874767
H228	H	1.283605	0.301441	1.374767
H229	H	0.787306	-0.150461	0.929398
H230	H	1.287306	0.349539	1.429398
H231	H	0.732012	-0.202083	0.929456
H232	H	1.232012	0.297917	1.429456
C233	C	1.068424	-0.670955	0.219317
C234	C	1.568424	-0.170955	0.719317
C235	C	1.106326	-0.628092	0.184070
C236	C	1.606326	-0.128092	0.684070
C237	C	1.149676	-0.660834	0.143767
C238	C	1.649676	-0.160834	0.643767
H239	H	1.097970	-0.696564	0.243353
H240	H	1.597970	-0.196564	0.743353
H241	H	1.042570	-0.696625	0.191840
H242	H	1.542570	-0.196625	0.691840
H243	H	1.132179	-0.602433	0.211543
H244	H	1.632179	-0.102433	0.711543
H245	H	1.076798	-0.602481	0.160021
H246	H	1.576798	-0.102481	0.660021
H247	H	1.123821	-0.686504	0.116291
H248	H	1.623821	-0.186504	0.616291
H249	H	1.179217	-0.686442	0.167809
H250	H	1.679217	-0.186442	0.667809
H251	H	1.175393	-0.631757	0.119843
H252	H	1.675393	-0.131757	0.619843
C253	C	0.887874	-0.219230	1.072623
C254	C	1.387874	0.280770	1.572623
C255	C	0.844466	-0.254865	1.110337
C256	C	1.344466	0.245135	1.610337
C257	C	0.801105	-0.214713	1.143247
C258	C	1.301105	0.285287	1.643247
H259	H	0.913704	-0.191782	1.098332
H260	H	1.413704	0.308218	1.598332
H261	H	0.862064	-0.195273	1.043652
H262	H	1.362064	0.304727	1.543652
H263	H	0.870273	-0.278812	1.139305
H264	H	1.370273	0.221188	1.639305
H265	H	0.818621	-0.282312	1.084644
H266	H	1.318621	0.217688	1.584644
H267	H	0.775294	-0.190756	1.114276
H268	H	1.275294	0.309244	1.614276
H269	H	0.826941	-0.187267	1.168952
H270	H	1.326941	0.312733	1.668952
H271	H	0.771643	-0.238886	1.168835
H272	H	1.271643	0.261114	1.668835
H273	H	0.364654	-0.376419	0.376199
H274	H	0.864654	0.123581	0.876199
H275	H	0.364659	-0.230137	0.230393
H276	H	0.864659	0.269863	0.730393
H277	H	0.236409	-0.376424	0.376210
H278	H	0.736409	0.123576	0.876210
C279	C	0.582472	-0.219249	0.219500
C280	C	1.082472	0.280751	0.719500
C281	C	0.513002	-0.227891	0.228093
C282	C	1.013002	0.272109	0.728093
C283	C	0.477525	-0.187649	0.187936
C284	C	0.977525	0.312351	0.687936
H285	H	0.594001	-0.176941	0.228754
H286	H	1.094001	0.323059	0.728754
H287	H	0.593995	-0.228407	0.177172
H288	H	1.093995	0.271593	0.677172
H289	H	0.501483	-0.218729	0.270411
H290	H	1.001483	0.281271	0.770411
H291	H	0.501453	-0.270191	0.218835
H292	H	1.001453	0.229809	0.718835
H293	H	0.489048	-0.196807	0.145608
H294	H	0.989048	0.303193	0.645608
H295	H	0.489059	-0.145344	0.197193
H296	H	0.989059	0.354656	0.697193
H297	H	0.430386	-0.193512	0.193756
H298	H	0.930386	0.306488	0.693756
H299	H	1.056638	-0.376223	0.662809
H300	H	1.556638	0.123777	1.162809
C301	C	1.068235	-0.533918	0.219284
C302	C	1.568235	-0.033918	0.719284
C303	C	1.029926	-0.496245	0.178885
C304	C	1.529926	0.003755	0.678885
C305	C	1.073109	-0.463333	0.138565
C306	C	1.573109	0.036667	0.638565
H307	H	1.097716	-0.508181	0.243311
H308	H	1.597716	-0.008181	0.743311
H309	H	1.094028	-0.562888	0.195300
H310	H	1.594028	-0.062888	0.695300
H311	H	1.004144	-0.467279	0.202867
H312	H	1.504144	0.032721	0.702867
H313	H	1.000447	-0.521966	0.154845
H314	H	1.500447	-0.021966	0.654845
H315	H	1.098902	-0.492303	0.114580
H316	H	1.598902	0.007697	0.614580
H317	H	1.102588	-0.437600	0.162597
H318	H	1.602588	0.062400	0.662597
H319	H	1.047123	-0.437773	0.111146
H320	H	1.547123	0.062227	0.611146
C321	C	0.887750	-0.671214	0.387101
C322	C	1.387750	-0.171214	0.887101
C323	C	0.897031	-0.735821	0.378491
C324	C	1.397031	-0.235821	0.878491
C325	C	0.853751	-0.768830	0.418643
C326	C	1.353751	-0.268830	0.918643
H327	H	0.897581	-0.660481	0.429429
H328	H	1.397581	-0.160481	0.929429
H329	H	0.842261	-0.660520	0.377841
H330	H	1.342261	-0.160520	0.877841
H331	H	0.942510	-0.746512	0.387754
H332	H	1.442510	-0.246512	0.887754
H333	H	0.887195	-0.746573	0.336171
H334	H	1.387195	-0.246573	0.836171
H335	H	0.808261	-0.758135	0.409384
H336	H	1.308261	-0.258135	0.909384
H337	H	0.863586	-0.758091	0.460969
H338	H	1.363586	-0.258091	0.960969
H339	H	0.860038	-0.812668	0.412803
H340	H	1.360038	-0.312668	0.912803
H341	H	0.899435	-0.542909	0.376237
H342	H	1.399435	-0.042909	0.876237
C343	C	0.887958	-0.219270	0.534524
C344	C	1.387958	0.280730	1.034524
C345	C	0.897217	-0.227890	0.469914
C346	C	1.397217	0.272110	0.969914
C347	C	0.854026	-0.187661	0.436920
C348	C	1.354026	0.312339	0.936920
H349	H	0.842450	-0.228440	0.545214
H350	H	1.342450	0.271560	1.045214
H351	H	0.897896	-0.176958	0.545274
H352	H	1.397896	0.323042	1.045274
H353	H	0.887274	-0.270192	0.459169
H354	H	1.387274	0.229808	0.959169
H355	H	0.942716	-0.218716	0.459206
H356	H	1.442716	0.281284	0.959206
H357	H	0.863965	-0.145349	0.447670
H358	H	1.363965	0.354651	0.947670
H359	H	0.808520	-0.196834	0.447615
H360	H	1.308520	0.303166	0.947615
H361	H	0.860307	-0.193500	0.393079
H362	H	1.360307	0.306500	0.893079
H363	H	1.056813	-1.062980	0.230382
H364	H	1.556813	-0.562980	0.730382
C365	C	1.068470	-0.934864	0.219332
C366	C	1.568470	-0.434864	0.719332
C367	C	1.053794	-0.950925	0.157041
C368	C	1.553794	-0.450925	0.657041
C369	C	1.097055	-0.918131	0.116696
C370	C	1.597055	-0.418131	0.616696
H371	H	1.062289	-0.890995	0.224997
H372	H	1.562289	-0.390995	0.724997
H373	H	1.113958	-0.945604	0.228549
H374	H	1.613958	-0.445604	0.728549
H375	H	1.008317	-0.940181	0.147827
H376	H	1.508317	-0.440181	0.647827
H377	H	1.059979	-0.994788	0.151356
H378	H	1.559979	-0.494788	0.651356
H379	H	1.142543	-0.928870	0.125913
H380	H	1.642543	-0.428870	0.625913
H381	H	1.090870	-0.874264	0.122366
H382	H	1.590870	-0.374264	0.622366
H383	H	1.087107	-0.929028	0.074427
H384	H	1.587107	-0.429028	0.574427
C385	C	0.887860	-1.071825	0.387312
C386	C	1.387860	-0.571825	0.887312
C387	C	0.849922	-1.028975	0.422538
C388	C	1.349922	-0.528975	0.922538
C389	C	0.806590	-1.061730	0.462847
C390	C	1.306590	-0.561730	0.962847
H391	H	0.858335	-1.097515	0.363282
H392	H	1.358335	-0.597515	0.863282
H393	H	0.913729	-1.097416	0.414801
H394	H	1.413729	-0.597416	0.914801
H395	H	0.824055	-1.003394	0.395052
H396	H	1.324055	-0.503394	0.895052
H397	H	0.879429	-1.003283	0.446581
H398	H	1.379429	-0.503283	0.946581
H399	H	0.832459	-1.087321	0.490337
H400	H	1.332459	-0.587321	0.990337
H401	H	0.777070	-1.087419	0.438812
H402	H	1.277070	-0.587419	0.938812
H403	H	0.780849	-1.032662	0.486757
H404	H	1.280849	-0.532662	0.986757
H405	H	1.056609	-0.376261	0.543545
H406	H	1.556609	0.123739	1.043545
C407	C	1.068490	-0.387111	0.935566
C408	C	1.568490	0.112889	1.435566
C409	C	1.106399	-0.422348	0.978417
C410	C	1.606399	0.077652	1.478417
C411	C	1.149745	-0.462641	0.945662
C412	C	1.649745	0.037359	1.445662
H413	H	1.042653	-0.414599	0.909906
H414	H	1.542653	0.085401	1.409906
H415	H	1.098027	-0.363049	0.909945
H416	H	1.598027	0.136951	1.409945
H417	H	1.076866	-0.446408	1.004028
H418	H	1.576866	0.053592	1.504028
H419	H	1.132249	-0.394876	1.004079
H420	H	1.632249	0.105124	1.504079
H421	H	1.179281	-0.438580	0.920041
H422	H	1.679281	0.061420	1.420041
H423	H	1.123902	-0.490125	0.920004
H424	H	1.623902	0.009875	1.420004
H425	H	1.175475	-0.486550	0.974732
H426	H	1.675475	0.013450	1.474732
H427	H	0.720428	-0.230115	0.230373
H428	H	1.220428	0.269885	0.730373
