data_functionalizedCrystal
_audit_creation_method	'MofGen! by Chris Wilmer'
_symmetry_space_group_name_H-M	'P1'
_symmetry_Int_Tables_number	1
_symmetry_cell_setting	triclinic
loop_
_symmetry_equiv_pos_as_xyz
  x,y,z
_cell_length_a	11.169417
_cell_length_b	29.839131
_cell_length_c	11.169409
_cell_angle_alpha	89.959881
_cell_angle_beta	89.980176
_cell_angle_gamma	90.042299
loop_
_atom_site_label
_atom_site_type_symbol
_atom_site_fract_x
_atom_site_fract_y
_atom_site_fract_z
Zn1	Zn	1.834703	-0.178806	-0.678478
Zn2	Zn	2.334703	0.321194	-0.178478
Zn3	Zn	1.834484	-0.253948	-0.477767
Zn4	Zn	2.334484	0.246052	0.022233
Zn5	Zn	1.633989	-0.178834	-0.477812
Zn6	Zn	2.133989	0.321166	0.022188
Zn7	Zn	1.633888	-0.253911	-0.678412
Zn8	Zn	2.133888	0.246089	-0.178412
O9	O	1.734266	-0.216375	-0.578117
O10	O	2.234266	0.283625	-0.078117
O11	O	2.002624	-0.188778	-0.651862
O12	O	2.502624	0.311222	-0.151862
O13	O	1.807838	-0.244011	-0.309823
O14	O	2.307838	0.255989	0.190177
O15	O	1.660748	-0.115963	-0.504477
O16	O	2.160748	0.384037	-0.004477
O17	O	2.002462	-0.243984	-0.504401
O18	O	2.502462	0.256016	-0.004401
O19	O	1.808212	-0.115943	-0.651905
O20	O	2.308212	0.384057	-0.151905
O21	O	1.660536	-0.188825	-0.309856
O22	O	2.160536	0.311175	0.190144
O23	O	1.466026	-0.188789	-0.504413
O24	O	1.966026	0.311211	-0.004413
O25	O	1.660576	-0.243922	-0.846371
O26	O	2.160576	0.256078	-0.346371
O27	O	1.465951	-0.243948	-0.651794
O28	O	1.965951	0.256052	-0.151794
O29	O	1.808114	-0.188742	-0.846419
O30	O	2.308114	0.311258	-0.346419
O31	O	1.807740	-0.316810	-0.504337
O32	O	2.307740	0.183190	-0.004337
O33	O	1.660363	-0.316783	-0.651750
O34	O	2.160363	0.183217	-0.151750
C35	C	1.422441	-0.216368	-0.578102
C36	C	1.922441	0.283632	-0.078102
C37	C	1.289041	-0.216376	-0.578124
C38	C	1.789041	0.283624	-0.078124
C39	C	1.734049	-0.333097	-0.578058
C40	C	2.234049	0.166903	-0.078058
C41	C	1.734066	-0.383032	-0.578073
C42	C	2.234066	0.116968	-0.078073
C43	C	1.811145	-0.692677	-0.501472
C44	C	2.311145	-0.192677	-0.001472
C45	C	1.811293	-0.880350	-0.501518
C46	C	2.311293	-0.380350	-0.001518
O47	O	1.876656	-0.904616	-0.436344
O48	O	2.376656	-0.404616	0.063656
N49	N	1.734515	-0.903817	-0.578208
N50	N	2.234515	-0.403817	-0.078208
C51	C	1.657700	-0.880363	-0.654897
C52	C	2.157700	-0.380363	-0.154897
O53	O	1.592407	-0.904630	-0.720136
O54	O	2.092407	-0.404630	-0.220136
C55	C	1.657559	-0.692691	-0.654856
C56	C	2.157559	-0.192691	-0.154856
C57	C	1.734333	-0.669226	-0.578152
C58	C	2.234333	-0.169226	-0.078152
C59	C	1.887914	-0.669212	-0.424776
C60	C	2.387914	-0.169212	0.075224
C61	C	1.887871	-0.622296	-0.424760
C62	C	2.387871	-0.122296	0.075240
C63	C	1.811060	-0.598846	-0.501441
C64	C	2.311060	-0.098846	-0.001441
C65	C	1.734291	-0.622311	-0.578137
C66	C	2.234291	-0.122311	-0.078137
C67	C	1.580751	-0.669238	-0.731550
C68	C	2.080751	-0.169238	-0.231550
C69	C	1.580724	-0.622317	-0.731535
C70	C	2.080724	-0.122317	-0.231535
C71	C	1.657499	-0.598852	-0.654831
C72	C	2.157499	-0.098852	-0.154831
C73	C	1.657437	-0.551945	-0.654802
C74	C	2.157437	-0.051945	-0.154802
N75	N	1.734215	-0.528477	-0.578112
N76	N	2.234215	-0.028477	-0.078112
C77	C	1.811026	-0.551928	-0.501432
C78	C	2.311026	-0.051928	-0.001432
C79	C	1.657778	-0.978894	-0.654912
C80	C	2.157778	-0.478894	-0.154912
C81	C	1.657811	-1.025811	-0.654921
C82	C	2.157811	-0.525811	-0.154921
C83	C	1.811406	-1.025795	-0.501543
C84	C	2.311406	-0.525795	-0.001543
C85	C	1.811366	-0.978876	-0.501529
C86	C	2.311366	-0.478876	-0.001529
C87	C	1.734556	-0.955426	-0.578222
C88	C	2.234556	-0.455426	-0.078222
C89	C	1.810931	-0.453402	-0.501404
C90	C	2.310931	0.046598	-0.001404
C91	C	1.810878	-0.406482	-0.501392
C92	C	2.310878	0.093518	-0.001392
C93	C	1.657288	-0.406503	-0.654773
C94	C	2.157288	0.093497	-0.154773
C95	C	1.657336	-0.453419	-0.654782
C96	C	2.157336	0.046581	-0.154782
C97	C	1.734167	-0.476867	-0.578093
C98	C	2.234167	0.023133	-0.078093
O99	O	1.592118	-0.527650	-0.719952
O100	O	2.092118	-0.027650	-0.219952
O101	O	1.876328	-0.527653	-0.436221
O102	O	2.376328	-0.027653	0.063779
C103	C	1.811187	-0.739592	-0.501487
C104	C	2.311187	-0.239592	-0.001487
C105	C	1.734418	-0.763057	-0.578183
C106	C	2.234418	-0.263057	-0.078183
C107	C	1.657606	-0.739606	-0.654864
C108	C	2.157606	-0.239606	-0.154864
C109	C	1.734451	-0.809975	-0.578192
C110	C	2.234451	-0.309975	-0.078192
C111	C	1.811263	-0.833425	-0.501512
C112	C	2.311263	-0.333425	-0.001512
C113	C	1.888041	-0.809958	-0.424822
C114	C	2.388041	-0.309958	0.075178
C115	C	1.887999	-0.763043	-0.424807
C116	C	2.387999	-0.263043	0.075193
C117	C	1.580828	-0.763074	-0.731553
C118	C	2.080828	-0.263074	-0.231553
C119	C	1.580876	-0.809989	-0.731562
C120	C	2.080876	-0.309989	-0.231562
C121	C	1.657688	-0.833440	-0.654881
C122	C	2.157688	-0.333440	-0.154881
C123	C	2.047308	-0.216382	-0.578134
C124	C	2.547308	0.283618	-0.078134
C125	C	2.180708	-0.216385	-0.578140
C126	C	2.680708	0.283615	-0.078140
C127	C	1.734358	-0.216325	-0.891160
C128	C	2.234358	0.283675	-0.391160
C129	C	1.734397	-0.216304	-1.024560
C130	C	2.234397	0.283696	-0.524560
C131	C	1.734516	-0.099196	-0.578203
C132	C	2.234516	0.400804	-0.078203
C133	C	1.734623	-0.049262	-0.578240
C134	C	2.234623	0.450738	-0.078240
C135	C	1.734243	-0.216392	-0.266293
C136	C	2.234243	0.283608	0.233707
C137	C	1.734436	-0.216287	-0.132893
C138	C	2.234436	0.283713	0.367107
H139	H	1.873397	-0.387379	-0.438927
H140	H	2.373397	0.112621	0.061073
H141	H	1.518346	-0.829090	-0.794022
H142	H	2.018346	-0.329090	-0.294022
Cl143	Cl	1.484254	-0.733600	-0.827962
Cl144	Cl	1.984254	-0.233600	-0.327962
H145	H	1.950516	-0.743941	-0.362348
H146	H	2.450516	-0.243941	0.137652
H147	H	1.873949	-1.044896	-0.439107
H148	H	2.373949	-0.544896	0.060893
Cl149	Cl	1.907517	-0.482873	-0.404992
Cl150	Cl	2.407517	0.017127	0.095008
H151	H	1.950391	-0.603194	-0.362305
H152	H	2.450391	-0.103194	0.137695
H153	H	1.595227	-0.959804	-0.717366
H154	H	2.095227	-0.459804	-0.217366
Cl155	Cl	1.560736	-0.377014	-0.751173
Cl156	Cl	2.060736	0.122986	-0.251173
H157	H	1.950470	-0.688300	-0.362333
H158	H	2.450470	-0.188300	0.137667
H159	H	1.873882	-0.959774	-0.439071
H160	H	2.373882	-0.459774	0.060929
H161	H	1.595283	-1.044913	-0.717369
H162	H	2.095283	-0.544913	-0.217369
H163	H	1.518227	-0.688335	-0.794004
H164	H	2.018227	-0.188335	-0.294004
H165	H	1.518178	-0.603226	-0.793991
H166	H	2.018178	-0.103226	-0.293991
H167	H	1.594823	-0.472525	-0.717243
H168	H	2.094823	0.027475	-0.217243
H169	H	1.950580	-0.829060	-0.362382
H170	H	2.450580	-0.329060	0.137618
