data_functionalizedCrystal
_audit_creation_method	'MofGen! by Chris Wilmer'
_symmetry_space_group_name_H-M	'P1'
_symmetry_Int_Tables_number	1
_symmetry_cell_setting	triclinic
loop_
_symmetry_equiv_pos_as_xyz
  x,y,z
_cell_length_a	14.908571
_cell_length_b	17.077402
_cell_length_c	17.077396
_cell_angle_alpha	90.029784
_cell_angle_beta	86.687753
_cell_angle_gamma	93.281066
loop_
_atom_site_label
_atom_site_type_symbol
_atom_site_fract_x
_atom_site_fract_y
_atom_site_fract_z
Zn1	Zn	1.379199	0.381864	-0.512958
Zn2	Zn	1.379092	0.513133	-0.381683
Zn3	Zn	1.228335	0.374304	-0.374145
Zn4	Zn	1.228298	0.505503	-0.505349
O5	O	1.303731	0.443701	-0.443534
O6	O	1.505430	0.405634	-0.501883
O7	O	1.359065	0.494747	-0.270835
O8	O	1.248408	0.265463	-0.392587
O9	O	1.505352	0.502077	-0.405436
O10	O	1.359247	0.271017	-0.494573
O11	O	1.248304	0.392750	-0.265296
O12	O	1.102086	0.385351	-0.385210
O13	O	1.248345	0.489073	-0.616207
O14	O	1.102058	0.481742	-0.481606
O15	O	1.359211	0.398235	-0.621797
O16	O	1.359029	0.621965	-0.398059
O17	O	1.248242	0.616359	-0.488916
C18	C	1.069338	0.431899	-0.431765
C19	C	0.969064	0.426869	-0.426749
C20	C	1.303644	0.647645	-0.443498
C21	C	1.303690	0.734897	-0.443513
C22	C	1.303786	0.443646	-0.648281
C23	C	1.303809	0.443623	-0.735532
C24	C	0.780657	0.517945	-0.517565
C25	C	0.686441	0.513221	-0.512854
C26	C	0.686411	0.412695	-0.412622
C27	C	0.780628	0.417418	-0.417332
C28	C	0.827748	0.470046	-0.469805
C29	C	0.921966	0.474773	-0.474511
C30	C	0.921936	0.374243	-0.374283
C31	C	0.827719	0.369519	-0.369572
C32	C	1.539040	0.455550	-0.455349
C33	C	1.639314	0.460599	-0.460384
C34	C	1.303843	0.238962	-0.443588
C35	C	1.303891	0.151715	-0.443611
C36	C	1.361436	0.778783	-0.396261
C37	C	1.361480	0.860765	-0.396283
C38	C	1.303773	0.898860	-0.443554
C39	C	1.246024	0.854968	-0.490812
C40	C	1.245985	0.772987	-0.490793
C41	C	1.246108	1.025843	-0.490846
C42	C	1.246145	1.107829	-0.490863
C43	C	1.361602	1.113620	-0.396336
C44	C	1.361563	1.031639	-0.396317
C45	C	1.303813	0.987753	-0.443574
C46	C	1.361539	0.396319	-0.779434
C47	C	1.361550	0.396294	-0.861415
C48	C	1.303835	0.443576	-0.899493
C49	C	1.246098	0.490881	-0.855584
C50	C	1.246084	0.490902	-0.773605
C51	C	1.246135	0.490836	-1.026456
C52	C	1.246150	0.490816	-1.108442
C53	C	1.361601	0.396228	-1.114267
C54	C	1.361586	0.396248	-1.032287
C55	C	1.303851	0.443555	-0.988384
C56	C	1.303729	0.443702	-0.239586
C57	C	1.303880	0.443513	-0.152344
H58	H	0.960330	0.517627	-0.517235
N59	N	1.183777	0.896055	-0.541791
H60	H	1.147189	0.855811	-0.571724
H61	H	1.220488	0.931865	-0.579994
N62	N	0.972716	0.322562	-0.322772
H63	H	0.956282	0.333857	-0.265843
H64	H	1.039538	0.333555	-0.333778
H65	H	1.199102	0.529376	-0.886594
H66	H	1.198964	0.737256	-0.529272
H67	H	1.199151	0.529316	-1.139442
N68	N	1.183810	0.541913	-0.726249
H69	H	1.147248	0.571863	-0.762809
H70	H	1.220498	0.580099	-0.694066
H71	H	0.648030	0.369843	-0.369907
N72	N	0.635648	0.564885	-0.564365
H73	H	0.679798	0.598939	-0.598317
H74	H	0.596532	0.599211	-0.530391
H75	H	1.408541	0.357819	-0.748437
H76	H	0.789341	0.326669	-0.326853
H77	H	0.819023	0.560801	-0.560285
H78	H	1.199106	0.529345	-0.990713
N79	N	1.423842	0.345259	-0.991215
H80	H	1.460418	0.315287	-1.031465
H81	H	1.387133	0.307094	-0.955363
H82	H	1.408562	0.357777	-0.897157
H83	H	1.408548	1.000623	-0.357821
N84	N	1.423875	0.345195	-1.161602
H85	H	1.465672	0.379187	-1.197712
H86	H	1.387179	0.306964	-1.193730
N87	N	1.423675	0.737697	-0.345272
H88	H	1.460265	0.777942	-0.315344
H89	H	1.465386	0.705729	-0.379343
H90	H	1.408502	0.896494	-0.357805
N91	N	1.183907	1.148918	-0.541850
H92	H	1.197883	1.135309	-0.598645
H93	H	1.192724	1.207498	-0.534620
H94	H	1.199084	0.990113	-0.529330
N95	N	1.423891	1.160949	-0.345364
H96	H	1.415165	1.218664	-0.352550
H97	H	1.488307	1.149801	-0.360855
