data_functionalizedCrystal
_audit_creation_method	'MofGen! by Chris Wilmer'
_symmetry_space_group_name_H-M	'P1'
_symmetry_Int_Tables_number	1
_symmetry_cell_setting	triclinic
loop_
_symmetry_equiv_pos_as_xyz
  x,y,z
_cell_length_a	12.827893
_cell_length_b	12.759400
_cell_length_c	12.827885
_cell_angle_alpha	90.030494
_cell_angle_beta	90.019272
_cell_angle_gamma	90.014845
loop_
_atom_site_label
_atom_site_type_symbol
_atom_site_fract_x
_atom_site_fract_y
_atom_site_fract_z
Zn1	Zn	1.597675	-0.418211	0.590844
Zn2	Zn	1.597571	-0.593926	0.416102
Zn3	Zn	1.422916	-0.418263	0.416117
Zn4	Zn	1.422904	-0.593849	0.590802
O5	O	1.510266	-0.506062	0.503466
O6	O	1.743897	-0.441531	0.567675
O7	O	1.574365	-0.570678	0.269868
O8	O	1.446147	-0.271235	0.439319
O9	O	1.743821	-0.570628	0.439293
O10	O	1.574541	-0.271197	0.567690
O11	O	1.446046	-0.441619	0.269879
O12	O	1.276678	-0.441544	0.439278
O13	O	1.446125	-0.570496	0.737043
O14	O	1.276669	-0.570546	0.567618
O15	O	1.574529	-0.441456	0.737074
O16	O	1.574352	-0.740937	0.439252
O17	O	1.446025	-0.740880	0.567603
C18	C	1.238756	-0.506043	0.503446
C19	C	1.122603	-0.506060	0.503462
C20	C	1.070856	-0.442292	0.567089
C21	C	0.950806	-0.442308	0.567107
C22	C	1.510204	-0.779030	0.503444
C23	C	1.510273	-0.895806	0.503470
C24	C	1.577168	-0.950663	0.436711
C25	C	1.577232	-1.060387	0.436743
C26	C	1.443499	-1.060388	0.570296
C27	C	1.443440	-0.950666	0.570268
C28	C	1.644001	-0.895803	0.369913
C29	C	1.710899	-0.950660	0.303148
C30	C	1.710964	-1.060384	0.303180
C31	C	1.644129	-1.115252	0.369977
C32	C	1.782836	-0.506082	0.503487
C33	C	1.898990	-0.506091	0.503495
C34	C	1.510337	-0.505961	0.776036
C35	C	1.510368	-0.505918	0.892190
C36	C	1.510357	-0.232029	0.503511
C37	C	1.510396	-0.115252	0.503530
C38	C	1.510256	-0.506087	0.231956
C39	C	1.510428	-0.505834	0.115803
C40	C	1.573913	-0.442053	0.943990
C41	C	1.573946	-0.442007	1.064040
H42	H	0.943484	-0.560694	0.449025
H43	H	1.078029	-0.560664	0.449001
H44	H	1.643953	-0.806461	0.369876
H45	H	1.628288	-0.387405	0.899461
H46	H	1.644195	-1.204596	0.370006
C47	C	1.784419	-0.890312	0.229679
C48	C	1.784353	-0.769622	0.229638
C49	C	1.857877	-0.709277	0.156169
C50	C	1.931466	-0.769621	0.082741
C51	C	1.931534	-0.890318	0.082779
C52	C	1.858011	-0.950664	0.156248
H53	H	1.729876	-0.724946	0.283996
H54	H	1.857825	-0.619929	0.156141
H55	H	1.985892	-0.724950	0.028354
H56	H	1.986012	-0.934995	0.028421
H57	H	1.858062	-1.040011	0.156276
H58	H	1.389084	-1.105069	0.624678
C59	C	0.890697	-0.368549	0.640702
C60	C	0.905613	-0.249087	0.632390
C61	C	0.845502	-0.175326	0.705987
C62	C	0.770474	-0.221027	0.787897
C63	C	0.755555	-0.340495	0.796212
C64	C	0.815666	-0.414256	0.722615
H65	H	0.961156	-0.215252	0.571752
H66	H	0.856547	-0.086888	0.699831
H67	H	0.725977	-0.166424	0.842378
H68	H	0.700012	-0.374330	0.856850
H69	H	0.804621	-0.502694	0.728771
C70	C	1.784554	-1.120727	0.229747
C71	C	1.776075	-1.105745	0.110937
C72	C	1.849666	-1.166085	0.037498
C73	C	1.931734	-1.241407	0.082868
C74	C	1.940216	-1.256392	0.201683
C75	C	1.866626	-1.196053	0.275123
H76	H	1.715320	-1.049985	0.077346
H77	H	1.843386	-1.154992	-0.050458
H78	H	1.986210	-1.286074	0.028503
H79	H	2.000971	-1.312153	0.235274
H80	H	1.872905	-1.207146	0.363078
H81	H	1.115430	-0.387682	0.621545
C82	C	1.369852	-0.890311	0.643694
C83	C	1.251066	-0.905490	0.635062
C84	C	1.177478	-0.845133	0.708491
C85	C	1.222678	-0.769598	0.790551
C86	C	1.341470	-0.754416	0.799187
C87	C	1.415058	-0.814773	0.725758
H88	H	1.217601	-0.961408	0.574313
H89	H	1.089540	-0.856372	0.702098
H90	H	1.168204	-0.724918	0.844908
H91	H	1.374935	-0.698497	0.859936
H92	H	1.502996	-0.803534	0.732151
C93	C	1.436924	-0.579708	1.055640
C94	C	1.354942	-0.534137	0.980581
C95	C	1.281438	-0.608011	0.920409
C96	C	1.289916	-0.727456	0.935297
C97	C	1.371901	-0.773033	1.010360
C98	C	1.445405	-0.699159	1.070532
H99	H	1.348664	-0.445712	0.969557
H100	H	1.220748	-0.574272	0.864842
H101	H	1.235504	-0.782142	0.890754
H102	H	1.378180	-0.861459	1.021384
H103	H	1.506096	-0.732899	1.126099
H104	H	1.628352	-0.387332	1.108587
H105	H	1.455982	-0.560555	0.936718
