data_functionalizedCrystal
_audit_creation_method	'MofGen! by Chris Wilmer'
_symmetry_space_group_name_H-M	'P1'
_symmetry_Int_Tables_number	1
_symmetry_cell_setting	triclinic
loop_
_symmetry_equiv_pos_as_xyz
  x,y,z
_cell_length_a	17.699083
_cell_length_b	10.723024
_cell_length_c	16.176319
_cell_angle_alpha	89.994397
_cell_angle_beta	89.998611
_cell_angle_gamma	83.875442
loop_
_atom_site_label
_atom_site_type_symbol
_atom_site_fract_x
_atom_site_fract_y
_atom_site_fract_z
O1	O	1.005074	0.157797	-0.068628
O2	O	0.784825	0.178327	-0.068655
O3	O	0.900030	-0.013601	-0.068638
O4	O	0.889869	0.349725	-0.068646
O5	O	0.900014	-0.013613	0.068855
O6	O	0.784809	0.178315	0.068838
O7	O	1.005058	0.157785	0.068865
Cu8	Cu	0.894932	0.168049	0.081406
Cu9	Cu	0.894951	0.168063	-0.081196
O10	O	0.889853	0.349713	0.068848
C11	C	0.756616	0.177585	0.000088
C12	C	0.672584	0.175378	0.000078
C13	C	0.624673	0.288036	0.000076
C14	C	0.545717	0.285955	0.000086
C15	C	0.514672	0.171215	0.000093
C16	C	0.562589	0.058549	0.000098
C17	C	0.641544	0.060631	0.000093
C18	C	0.244173	0.050148	0.000118
C19	C	0.165212	0.048075	0.000121
C20	C	0.148346	0.275473	0.000112
C21	C	0.227301	0.277555	0.000107
C22	C	0.275210	0.164889	0.000116
C23	C	0.360824	0.167147	0.000106
C24	C	0.429060	0.168956	0.000097
C25	C	0.899283	-0.060094	0.000107
C26	C	0.897070	-0.198610	0.000104
C27	C	0.961533	-0.274698	0.000111
C28	C	0.959248	-0.417863	0.000108
C29	C	1.033268	0.158527	0.000120
C30	C	1.117300	0.160734	0.000125
C31	C	0.890601	0.396206	0.000100
C32	C	0.892813	0.534723	0.000098
N33	N	0.894924	0.168038	0.195771
N34	N	0.894965	0.168064	-0.195561
C35	C	0.945953	0.083087	0.239042
C36	C	0.945957	0.083085	0.325590
C37	C	0.894935	0.168042	0.368863
C38	C	0.843901	0.252997	0.325586
C39	C	0.843894	0.252992	0.239040
C40	C	0.843927	0.253021	0.674614
C41	C	0.843940	0.253022	0.761165
C42	C	0.945989	0.083115	0.761163
C43	C	0.945983	0.083109	0.674618
C44	C	0.894946	0.168059	0.631348
C45	C	0.894942	0.168058	0.537503
C46	C	0.894943	0.168050	0.462706
H47	H	0.537306	-0.034875	0.000115
O48	O	0.654916	0.399418	0.000176
C49	C	0.734233	0.533776	0.071419
C50	C	0.700050	0.407578	0.071396
H51	H	0.770718	0.540426	0.129003
H52	H	0.770822	0.540459	0.013914
H53	H	0.686413	0.613917	0.071380
H54	H	0.747822	0.327364	0.071465
H55	H	0.663442	0.401004	0.128897
O56	O	0.995607	0.000531	0.367495
C57	C	1.096819	-0.168019	0.358360
C58	C	1.040637	-0.074575	0.310800
H59	H	1.133229	-0.228784	0.312543
H60	H	1.134953	-0.114267	0.398842
H61	H	1.063824	-0.230243	0.398915
H62	H	1.073570	-0.012328	0.270201
H63	H	1.002503	-0.128405	0.270370
H64	H	1.014433	-0.483241	0.000117
O65	O	0.995572	0.000461	0.632711
C66	C	1.096822	-0.168028	0.641845
C67	C	1.040693	-0.074511	0.689406
H68	H	1.133328	-0.228650	0.687662
H69	H	1.063859	-0.230385	0.601361
H70	H	1.134870	-0.114212	0.601293
H71	H	1.002632	-0.128225	0.730003
H72	H	1.073704	-0.012156	0.729838
H73	H	0.840190	-0.239457	0.000092
H74	H	0.109328	0.367210	0.000109
O75	O	0.794296	0.335594	0.803075
C76	C	0.693092	0.504158	0.793949
C77	C	0.749255	0.410702	0.746384
H78	H	0.656672	0.564925	0.748135
H79	H	0.654965	0.450417	0.834456
H80	H	0.726103	0.566379	0.834479
H81	H	0.716306	0.348458	0.705809
H82	H	0.787381	0.464522	0.705929
O83	O	0.794465	0.335608	0.632502
C84	C	0.779233	0.506129	0.534832
C85	C	0.835332	0.412636	0.582459
H86	H	0.812252	0.568448	0.494374
H87	H	0.741145	0.452418	0.494266
H88	H	0.742762	0.566793	0.580651
H89	H	0.871852	0.351948	0.536700
H90	H	0.873367	0.466423	0.623038
H91	H	0.680552	-0.031107	0.000094
H92	H	1.018413	-0.233851	0.000123
O93	O	0.826991	-0.387247	-0.000056
C94	C	0.749544	-0.222593	-0.071269
C95	C	0.824106	-0.310922	-0.071207
H96	H	0.747194	-0.160844	-0.128780
H97	H	0.699140	-0.280505	-0.071331
H98	H	0.747122	-0.160978	-0.013701
H99	H	0.826602	-0.372555	-0.128765
H100	H	0.874475	-0.252936	-0.071102
O101	O	0.257363	0.389095	-0.000012
C102	C	0.267127	0.584070	-0.071275
C103	C	0.233022	0.457804	-0.071237
H104	H	0.247474	0.639646	-0.128864
H105	H	0.247422	0.639811	-0.013774
H106	H	0.331787	0.566185	-0.071240
H107	H	0.168361	0.475575	-0.071302
H108	H	0.252787	0.402104	-0.128733
O109	O	0.794232	0.335397	0.367584
C110	C	0.663016	0.408825	0.394041
C111	C	0.719182	0.315417	0.346443
H112	H	0.602326	0.392722	0.376953
H113	H	0.671722	0.394238	0.463340
H114	H	0.673427	0.508739	0.377025
H115	H	0.708804	0.215466	0.363390
H116	H	0.710462	0.330113	0.277155
H117	H	0.506711	0.377693	0.000084
H118	H	0.283172	-0.041591	0.000126
H119	H	0.139939	-0.045366	0.000127
H120	H	0.987503	0.013910	0.203815
H121	H	0.987544	0.013939	0.796403
H122	H	0.802341	0.322166	0.203809
