data_functionalizedCrystal
_audit_creation_method	'MofGen! by Chris Wilmer'
_symmetry_space_group_name_H-M	'P1'
_symmetry_Int_Tables_number	1
_symmetry_cell_setting	triclinic
loop_
_symmetry_equiv_pos_as_xyz
  x,y,z
_cell_length_a	19.188933
_cell_length_b	19.188924
_cell_length_c	13.448316
_cell_angle_alpha	89.991325
_cell_angle_beta	89.994651
_cell_angle_gamma	83.143767
loop_
_atom_site_label
_atom_site_type_symbol
_atom_site_fract_x
_atom_site_fract_y
_atom_site_fract_z
O1	O	0.926144	0.087176	-0.082663
O2	O	1.426144	0.587176	0.417337
O3	O	0.722832	0.098909	-0.082673
O4	O	1.222832	0.598909	0.417327
O5	O	0.830358	-0.008614	-0.082656
O6	O	1.330358	0.491386	0.417344
O7	O	0.818619	0.194698	-0.082680
O8	O	1.318619	0.694698	0.417320
O9	O	0.830344	-0.008620	0.082728
O10	O	1.330344	0.491380	0.582728
O11	O	0.722819	0.098902	0.082711
O12	O	1.222819	0.598902	0.582711
O13	O	0.926130	0.087169	0.082721
O14	O	1.426130	0.587169	0.582721
Cu15	Cu	0.824473	0.093035	0.097817
Cu16	Cu	1.324473	0.593035	0.597817
Cu17	Cu	0.824489	0.093043	-0.097769
Cu18	Cu	1.324489	0.593043	0.402231
O19	O	0.818605	0.194692	0.082704
O20	O	1.318605	0.694692	0.582704
C21	C	0.696815	0.098525	0.000018
C22	C	1.196815	0.598525	0.500018
C23	C	0.619310	0.097384	0.000014
C24	C	1.119310	0.597384	0.500014
C25	C	0.829972	-0.034628	0.000037
C26	C	1.329972	0.465372	0.500037
C27	C	0.828833	-0.112133	0.000039
C28	C	1.328833	0.387867	0.500039
C29	C	0.066062	0.089242	-0.090125
C30	C	0.566062	0.589242	0.409875
C31	C	0.138887	0.090311	-0.090129
C32	C	0.638887	0.590311	0.409871
C33	C	0.175296	0.090844	0.000022
C34	C	0.675296	0.590844	0.500022
C35	C	0.138878	0.090292	0.090183
C36	C	0.638878	0.590292	0.590183
C37	C	0.066056	0.089217	0.090184
C38	C	0.566056	0.589217	0.590184
N39	N	0.284310	0.132260	0.067120
N40	N	0.784310	0.632260	0.567120
N41	N	0.353487	0.133283	0.067112
N42	N	0.853487	0.633283	0.567112
C43	C	0.394705	0.094082	0.000023
C44	C	0.894705	0.594082	0.500023
N45	N	0.364130	0.053829	-0.067074
N46	N	0.864130	0.553829	0.432926
N47	N	0.294946	0.052809	-0.067069
N48	N	0.794946	0.552809	0.432931
C49	C	0.254260	0.092010	0.000030
C50	C	0.754260	0.592010	0.500030
C51	C	0.510079	0.095788	-0.090137
C52	C	1.010079	0.595788	0.409863
C53	C	0.582906	0.096852	-0.090137
C54	C	1.082906	0.596852	0.409863
C55	C	0.582895	0.096840	0.090177
C56	C	1.082895	0.596840	0.590177
C57	C	0.510071	0.095769	0.090175
C58	C	1.010071	0.595769	0.590175
C59	C	0.473667	0.095246	0.000015
C60	C	0.973667	0.595246	0.500015
C61	C	0.828309	-0.148528	-0.090112
C62	C	1.328309	0.351472	0.409888
C63	C	0.827229	-0.221351	-0.090119
C64	C	1.327229	0.278649	0.409881
C65	C	0.826687	-0.257777	0.000029
C66	C	1.326687	0.242223	0.500029
C67	C	0.827207	-0.221373	0.090192
C68	C	1.327207	0.278627	0.590192
C69	C	0.828280	-0.148550	0.090197
C70	C	1.328280	0.351450	0.590197
N71	N	0.864729	-0.377443	0.067126
N72	N	1.364729	0.122557	0.567126
N73	N	0.863712	-0.446621	0.067116
N74	N	1.363712	0.053379	0.567116
C75	C	0.823453	-0.477186	0.000019
C76	C	1.323453	0.022814	0.500019
N77	N	0.784259	-0.435961	-0.067080
N78	N	1.284259	0.064039	0.432920
N79	N	0.785280	-0.366777	-0.067072
N80	N	1.285280	0.133223	0.432928
C81	C	0.825523	-0.336741	0.000034
C82	C	1.325523	0.163259	0.500034
C83	C	0.821757	-0.592544	-0.090146
C84	C	1.321757	-0.092544	0.409854
C85	C	0.820673	-0.665368	-0.090150
C86	C	1.320673	-0.165368	0.409850
C87	C	0.820658	-0.665389	0.090164
C88	C	1.320658	-0.165389	0.590164
C89	C	0.821736	-0.592566	0.090165
C90	C	1.321736	-0.092566	0.590165
C91	C	0.822288	-0.556149	0.000008
C92	C	1.322288	-0.056149	0.500008
C93	C	0.952148	0.087553	0.000028
C94	C	1.452148	0.587553	0.500028
C95	C	1.029653	0.088694	0.000024
C96	C	1.529653	0.588694	0.500024
C97	C	0.818991	0.220706	0.000009
C98	C	1.318991	0.720706	0.500009
C99	C	0.820130	0.298211	-0.000000
C100	C	1.320130	0.798211	0.500000
N101	N	0.824467	0.093029	0.235381
N102	N	1.324467	0.593029	0.735381
N103	N	0.824501	0.093043	-0.235333
N104	N	1.324501	0.593043	0.264667
C105	C	0.872094	0.045438	0.287429
C106	C	1.372094	0.545438	0.787429
C107	C	0.872099	0.045437	0.391532
C108	C	1.372099	0.545437	0.891532
C109	C	0.824479	0.093032	0.443585
C110	C	1.324479	0.593032	0.943585
C111	C	0.776847	0.140626	0.391530
C112	C	1.276847	0.640626	0.891530
C113	C	0.776840	0.140622	0.287429
C114	C	1.276840	0.640622	0.787429
C115	C	0.776866	0.140630	0.608510
C116	C	1.276866	0.640630	1.108510
C117	C	0.776874	0.140635	0.712619
C118	C	1.276874	0.640635	1.212619
C119	C	0.872125	0.045445	0.712613
C120	C	1.372125	0.545445	1.212613
C121	C	0.872118	0.045442	0.608512
C122	C	1.372118	0.545442	1.108512
C123	C	0.824487	0.093037	0.556464
C124	C	1.324487	0.593037	1.056464
H125	H	0.168537	0.090761	-0.163541
H126	H	0.668537	0.590761	0.336459
H127	H	0.738078	0.179385	0.566136
H128	H	1.238078	0.679385	1.066136
H129	H	0.738071	0.179376	0.433918
H130	H	1.238071	0.679376	0.933918
C131	C	0.479634	0.155475	-0.243829
C132	C	0.979634	0.655475	0.256171
C133	C	0.470058	0.095207	-0.189236
C134	C	0.970058	0.595207	0.310764
H135	H	0.454930	0.155114	-0.305010
H136	H	0.954930	0.655114	0.194990
H137	H	0.462248	0.195995	-0.206788
H138	H	0.962248	0.695995	0.293212
H139	H	0.528218	0.156181	-0.256727
H140	H	1.028218	0.656181	0.243273
H141	H	0.421474	0.094504	-0.176331
H142	H	0.921474	0.594504	0.323669
H143	H	0.487440	0.054676	-0.226285
H144	H	0.987440	0.554676	0.273715
C145	C	0.656773	0.158075	-0.194737
C146	C	1.156773	0.658075	0.305263
C147	C	0.622931	0.097454	-0.189236
C148	C	1.122931	0.597454	0.310764
H149	H	0.681487	0.158444	-0.255916
H150	H	1.181487	0.658444	0.244084
H151	H	0.622916	0.198355	-0.190989
H152	H	1.122916	0.698355	0.309011
H153	H	0.688877	0.158532	-0.141041
H154	H	1.188877	0.658532	0.358959
H155	H	0.590824	0.097000	-0.242928
H156	H	1.090824	0.597000	0.257072
H157	H	0.656792	0.057163	-0.192994
H158	H	1.156792	0.557163	0.307006
C159	C	0.829918	-0.036930	0.170264
C160	C	1.329918	0.463070	0.670264
C161	C	0.828860	-0.108540	0.189298
C162	C	1.328860	0.391460	0.689298
H163	H	0.830273	-0.012229	0.231446
H164	H	1.330273	0.487771	0.731446
H165	H	0.870802	-0.030447	0.133233
H166	H	1.370802	0.469553	0.633233
H167	H	0.789389	-0.019547	0.133216
H168	H	1.289389	0.480453	0.633216
H169	H	0.869392	-0.125924	0.226339
H170	H	1.369392	0.374076	0.726339
H171	H	0.787972	-0.115027	0.226344
H172	H	1.287972	0.384973	0.726344
H173	H	0.822203	-0.562891	-0.163558
H174	H	1.322203	-0.062891	0.336442
H175	H	0.820242	-0.694999	-0.163565
H176	H	1.320242	-0.194999	0.336435
H177	H	0.036411	0.088773	0.163597
H178	H	0.536411	0.588773	0.663597
C179	C	0.818980	-0.777022	0.170219
C180	C	1.318980	-0.277022	0.670219
C181	C	0.820043	-0.705418	0.189259
C182	C	1.320043	-0.205418	0.689259
H183	H	0.818596	-0.801735	0.231399
H184	H	1.318596	-0.301735	0.731399
H185	H	0.778110	-0.783491	0.133162
H186	H	1.278110	-0.283491	0.633162
H187	H	0.859523	-0.794404	0.133196
H188	H	1.359523	-0.294404	0.633196
H189	H	0.779498	-0.688035	0.226276
H190	H	1.279498	-0.188035	0.726276
H191	H	0.860917	-0.698945	0.226332
H192	H	1.360917	-0.198945	0.726332
C193	C	0.694517	0.098482	0.170238
C194	C	1.194517	0.598482	0.670238
C195	C	0.622908	0.097424	0.189274
C196	C	1.122908	0.597424	0.689274
H197	H	0.719220	0.098844	0.231419
H198	H	1.219220	0.598844	0.731419
H199	H	0.711897	0.057957	0.133203
H200	H	1.211897	0.557957	0.633203
H201	H	0.700997	0.139370	0.133194
H202	H	1.200997	0.639370	0.633194
H203	H	0.616428	0.056533	0.226312
H204	H	1.116428	0.556533	0.726312
H205	H	0.605522	0.137953	0.226325
H206	H	1.105522	0.637953	0.726325
H207	H	0.822168	-0.562933	0.163576
H208	H	1.322168	-0.062933	0.663576
C209	C	0.967162	0.030068	0.508590
C210	C	1.467162	0.530068	1.008590
C211	C	0.924452	-0.006871	0.448752
C212	C	1.424452	0.493129	0.948752
H213	H	0.999480	-0.002227	0.543921
H214	H	1.499480	0.497773	1.043921
H215	H	0.992179	0.059063	0.467964
H216	H	1.492179	0.559063	0.967964
H217	H	0.938790	0.058411	0.554480
H218	H	1.438790	0.558411	1.054480
H219	H	0.952824	-0.035210	0.402858
H220	H	1.452824	0.464790	0.902858
H221	H	0.899433	-0.035878	0.489382
H222	H	1.399433	0.464122	0.989382
H223	H	0.036427	0.088814	-0.163540
H224	H	0.536427	0.588814	0.336460
H225	H	0.168528	0.090725	0.163584
H226	H	0.668528	0.590725	0.663584
H227	H	0.910897	0.006690	0.566130
H228	H	1.410897	0.506690	1.066130
H229	H	0.910875	0.006684	0.245054
H230	H	1.410875	0.506684	0.745054
H231	H	0.910908	0.006692	0.754997
H232	H	1.410908	0.506692	1.254997
H233	H	0.480425	0.095325	0.163584
H234	H	0.980425	0.595325	0.663584
H235	H	0.828757	-0.118881	-0.163525
H236	H	1.328757	0.381119	0.336475
H237	H	0.738096	0.179391	0.754996
H238	H	1.238096	0.679391	1.254996
H239	H	0.738056	0.179375	0.245052
H240	H	1.238056	0.679375	0.745052
C241	C	0.827323	-0.214019	-0.268351
C242	C	1.327323	0.285981	0.231649
C243	C	0.826626	-0.261364	-0.189220
C244	C	1.326626	0.238636	0.310780
H245	H	0.826946	-0.238721	-0.329530
H246	H	1.326946	0.261279	0.170470
H247	H	0.787046	-0.180159	-0.264583
H248	H	1.287046	0.319841	0.235417
H249	H	0.868458	-0.191075	-0.264614
H250	H	1.368458	0.308925	0.235386
H251	H	0.785488	-0.284304	-0.192953
H252	H	1.285488	0.215696	0.307047
H253	H	0.866907	-0.295236	-0.192990
H254	H	1.366907	0.204764	0.307010
H255	H	0.826764	-0.251035	0.163592
H256	H	1.326764	0.248965	0.663592
