data_functionalizedCrystal
_audit_creation_method	'MofGen! by Chris Wilmer'
_symmetry_space_group_name_H-M	'P1'
_symmetry_Int_Tables_number	1
_symmetry_cell_setting	triclinic
loop_
_symmetry_equiv_pos_as_xyz
  x,y,z
_cell_length_a	17.699083
_cell_length_b	8.140239
_cell_length_c	9.065218
_cell_angle_alpha	89.998314
_cell_angle_beta	84.149450
_cell_angle_gamma	90.003310
loop_
_atom_site_label
_atom_site_type_symbol
_atom_site_fract_x
_atom_site_fract_y
_atom_site_fract_z
O1	O	1.005529	-0.136376	0.186555
O2	O	0.785340	-0.136429	0.210827
O3	O	0.899986	-0.136398	-0.016086
O4	O	0.890883	-0.136407	0.413468
O5	O	0.899979	0.136829	-0.016089
O6	O	0.785333	0.136798	0.210824
O7	O	1.005522	0.136851	0.186553
Zn8	Zn	0.895427	0.180205	0.198688
Zn9	Zn	0.895435	-0.179783	0.198691
O10	O	0.890877	0.136820	0.413466
C11	C	0.757133	0.000177	0.209956
C12	C	0.673094	0.000157	0.207347
N13	N	0.895427	0.425888	0.198685
N14	N	0.895441	-0.425466	0.198683
C15	C	0.625512	0.000155	0.340540
C16	C	0.546550	0.000176	0.338080
C17	C	0.515171	0.000188	0.202425
C18	C	0.562759	0.000195	0.069221
C19	C	0.641720	0.000186	0.071683
C20	C	0.244319	0.000236	0.059289
C21	C	0.165352	0.000241	0.056838
C22	C	0.149148	0.000226	0.325686
C23	C	0.228109	0.000217	0.328148
C24	C	0.275691	0.000233	0.194946
C25	C	0.361311	0.000213	0.197615
C26	C	0.429552	0.000196	0.199754
C27	C	1.033729	0.000240	0.187423
C28	C	1.117768	0.000250	0.190033
C29	C	0.899108	0.000212	-0.071048
C30	C	0.896492	0.000204	-0.234814
C31	C	0.891755	0.000206	0.468428
C32	C	0.894370	0.000203	0.632193
H33	H	0.507811	0.000172	0.446539
H34	H	0.283051	0.000250	-0.049173
O35	O	0.656115	0.000065	0.472189
C36	C	0.770572	0.000135	0.595144
C37	C	0.736019	0.000195	0.445946
H38	H	0.835179	0.000275	0.573978
H39	H	0.751097	-0.114238	0.660970
H40	H	0.751012	0.114452	0.660950
H41	H	0.755563	-0.114045	0.380020
H42	H	0.755491	0.114643	0.380232
O43	O	0.103004	0.000446	0.455182
C44	C	0.064972	0.142026	0.684191
C45	C	0.117283	0.141971	0.537616
H46	H	0.076488	0.256454	0.750866
H47	H	0.076505	0.027748	0.751060
H48	H	0.003152	0.141961	0.659103
H49	H	0.179122	0.142094	0.562569
H50	H	0.105685	0.256239	0.470790
H51	H	0.139807	0.000252	-0.053635
O52	O	0.532156	0.000137	-0.062427
C53	C	0.417697	0.000250	-0.185377
C54	C	0.452252	0.000283	-0.036180
H55	H	0.353090	0.000403	-0.164208
H56	H	0.437159	-0.114120	-0.251207
H57	H	0.437268	0.114570	-0.251180
H58	H	0.432696	-0.113960	0.029743
H59	H	0.432792	0.114728	0.029537
H60	H	0.253653	0.000200	0.438612
H61	H	0.680462	0.000186	-0.036777
