data_functionalizedCrystal
_audit_creation_method	'MofGen! by Chris Wilmer'
_symmetry_space_group_name_H-M	'P1'
_symmetry_Int_Tables_number	1
_symmetry_cell_setting	triclinic
loop_
_symmetry_equiv_pos_as_xyz
  x,y,z
_cell_length_a	13.897449
_cell_length_b	21.295412
_cell_length_c	13.897448
_cell_angle_alpha	90.024845
_cell_angle_beta	89.981481
_cell_angle_gamma	89.975000
loop_
_atom_site_label
_atom_site_type_symbol
_atom_site_fract_x
_atom_site_fract_y
_atom_site_fract_z
Zn1	Zn	1.474718	-0.355962	0.384018
Zn2	Zn	1.474607	-0.250698	0.545323
Zn3	Zn	1.313403	-0.250704	0.384046
Zn4	Zn	1.313389	-0.355927	0.545275
O5	O	1.394029	-0.303323	0.464665
O6	O	1.609685	-0.342010	0.405423
O7	O	1.453183	-0.162609	0.523962
O8	O	1.334853	-0.264684	0.249061
O9	O	1.609604	-0.264673	0.523934
O10	O	1.453371	-0.342016	0.249040
O11	O	1.334746	-0.162614	0.405472
O12	O	1.178419	-0.264650	0.405425
O13	O	1.334830	-0.444021	0.523851
O14	O	1.178409	-0.341957	0.523879
O15	O	1.453358	-0.444047	0.405377
O16	O	1.453169	-0.264640	0.680298
O17	O	1.334723	-0.341951	0.680263
C18	C	1.143415	-0.303301	0.464651
C19	C	1.036201	-0.303306	0.464667
C20	C	0.949131	-0.303317	0.464671
C21	C	0.839899	-0.303336	0.464677
C22	C	1.394105	-0.467513	0.464605
C23	C	1.394137	-0.537481	0.464580
C24	C	1.332483	-0.570340	0.402875
C25	C	1.332480	-0.636083	0.402857
C26	C	1.394147	-0.668964	0.464534
C27	C	1.455805	-0.636097	0.526250
C28	C	1.455800	-0.570355	0.526273
N29	N	1.478587	-0.772204	0.471899
N30	N	1.478589	-0.834655	0.471872
C31	C	1.394165	-0.867039	0.464470
N32	N	1.309737	-0.834611	0.457077
N33	N	1.309736	-0.772154	0.457100
C34	C	1.394159	-0.740249	0.464516
C35	C	1.332503	-0.971183	0.402742
C36	C	1.332497	-1.036927	0.402731
C37	C	1.455831	-1.036940	0.526119
C38	C	1.455828	-0.971197	0.526135
C39	C	1.394165	-0.938323	0.464442
C40	C	1.645622	-0.303345	0.464681
C41	C	1.752836	-0.303355	0.464688
C42	C	1.393959	-0.303305	0.715280
C43	C	1.394017	-0.303318	0.822494
C44	C	1.394009	-0.139771	0.464656
C45	C	1.394164	-0.069803	0.464409
C46	C	1.394126	-0.303355	0.213072
C47	C	1.394167	-0.303368	0.105858
C48	C	1.394118	-0.303357	1.018789
C49	C	1.394059	-0.303337	0.909556
H50	H	1.282276	-0.662842	0.352605
O51	O	1.272491	-1.068873	0.342931
C52	C	1.210181	-1.106882	0.397833
H53	H	1.204198	-1.087057	0.473810
H54	H	1.239995	-1.156716	0.401142
C55	C	1.117270	-1.132213	0.257389
C56	C	1.109916	-1.107860	0.350703
H57	H	1.055423	-1.132820	0.228316
H58	H	1.159251	-1.106608	0.220399
H59	H	1.142119	-1.173740	0.260159
H60	H	1.085079	-1.066332	0.347931
H61	H	1.067927	-1.133459	0.387691
O62	O	1.272667	-0.538310	0.342989
C63	C	1.285859	-0.473238	0.356258
H64	H	1.360287	-0.464270	0.387854
H65	H	1.228623	-0.454564	0.407632
C66	C	1.185632	-0.450509	0.219868
C67	C	1.277049	-0.439495	0.258667
H68	H	1.180194	-0.429694	0.159671
H69	H	1.176741	-0.494350	0.210930
H70	H	1.137946	-0.434948	0.262689
H71	H	1.324733	-0.455063	0.215852
H72	H	1.285948	-0.395656	0.267595
O73	O	1.515847	-1.068897	0.585890
C74	C	1.578155	-1.106957	0.530960
H75	H	1.584129	-1.087159	0.454995
H76	H	1.548344	-1.156776	0.527625
C77	C	1.671081	-1.132294	0.671381
C78	C	1.678424	-1.107974	0.578081
H79	H	1.732930	-1.132924	0.700448
H80	H	1.629101	-1.106654	0.708390
H81	H	1.646234	-1.173808	0.668589
H82	H	1.703259	-1.066459	0.580875
H83	H	1.720411	-1.133607	0.541073
H84	H	1.506015	-0.662873	0.576468
H85	H	1.506010	-0.543602	0.576519
H86	H	1.282292	-0.944416	0.352509
O87	O	1.515819	-0.939372	0.586097
C88	C	1.570233	-0.982488	0.640549
H89	H	1.573589	-1.029357	0.601026
H90	H	1.534884	-0.989459	0.713804
C91	C	1.668765	-0.899289	0.703005
C92	C	1.672894	-0.956853	0.654458
H93	H	1.732090	-0.883476	0.711590
H94	H	1.632103	-0.870240	0.666323
H95	H	1.639304	-0.905106	0.764047
H96	H	1.702343	-0.951034	0.593414
H97	H	1.709563	-0.985901	0.691131
