data_functionalizedCrystal
_audit_creation_method	'MofGen! by Chris Wilmer'
_symmetry_space_group_name_H-M	'P1'
_symmetry_Int_Tables_number	1
_symmetry_cell_setting	triclinic
loop_
_symmetry_equiv_pos_as_xyz
  x,y,z
_cell_length_a	23.532407
_cell_length_b	26.809956
_cell_length_c	23.532407
_cell_angle_alpha	90.000335
_cell_angle_beta	82.848678
_cell_angle_gamma	90.003435
loop_
_atom_site_label
_atom_site_type_symbol
_atom_site_fract_x
_atom_site_fract_y
_atom_site_fract_z
O1	O	0.755264	0.041422	0.069127
O2	O	0.589401	0.041438	0.079130
O3	O	0.677334	0.041420	-0.008803
O4	O	0.667331	0.041440	0.157060
O5	O	0.677317	-0.041539	-0.008790
O6	O	0.589384	-0.041522	0.079143
O7	O	0.755247	-0.041537	0.069140
Zn8	Zn	0.672313	-0.054701	0.074144
Zn9	Zn	0.672335	0.054602	0.074126
O10	O	0.667314	-0.041520	0.157073
C11	C	0.568176	-0.000040	0.078882
C12	C	0.504959	-0.000035	0.078116
N13	N	0.672302	-0.129297	0.074156
C14	C	0.105856	-0.000052	0.125350
C15	C	0.046456	-0.000055	0.124638
O16	O	0.009711	-0.000068	0.168424
N17	N	0.023830	-0.000060	0.072362
C18	C	0.060607	-0.000067	0.020794
O19	O	0.035908	-0.000072	-0.023737
C20	C	0.120006	-0.000068	0.021506
C21	C	0.142629	-0.000057	0.073785
C22	C	0.128479	-0.000042	0.177625
C23	C	0.187876	-0.000038	0.178336
C24	C	0.224649	-0.000044	0.126772
C25	C	0.202025	-0.000053	0.074497
C26	C	0.156783	-0.000078	-0.030062
C27	C	0.216185	-0.000079	-0.029345
C28	C	0.238808	-0.000069	0.022934
C29	C	0.298194	-0.000055	0.023643
N30	N	0.320820	-0.000050	0.075920
C31	C	0.284048	-0.000044	0.127484
C32	C	-0.064135	-0.000067	0.019302
C33	C	-0.123533	-0.000063	0.018589
C34	C	-0.137680	-0.000052	0.122434
C35	C	-0.078281	-0.000052	0.123146
C36	C	-0.041509	-0.000062	0.071578
C37	C	0.408784	-0.000035	0.128974
C38	C	0.468186	-0.000029	0.129680
C39	C	0.482329	-0.000043	0.025836
C40	C	0.422932	-0.000047	0.025129
C41	C	0.386160	-0.000044	0.076702
O42	O	0.334974	-0.000044	-0.020119
O43	O	0.308755	-0.000045	0.172007
C44	C	0.711267	-0.473930	0.035199
C45	C	0.711280	-0.682808	0.035190
O46	O	0.744386	-0.709818	0.002071
N47	N	0.672338	-0.708924	0.074114
C48	C	0.633387	-0.682817	0.113040
O49	O	0.600261	-0.709823	0.146142
C50	C	0.633371	-0.473940	0.113045
C51	C	0.672320	-0.447827	0.074123
C52	C	0.750212	-0.447817	-0.003720
C53	C	0.750210	-0.395601	-0.003716
C54	C	0.711263	-0.369498	0.035208
C55	C	0.672318	-0.395611	0.074128
C56	C	0.594418	-0.447834	0.151968
C57	C	0.594417	-0.395612	0.151965
C58	C	0.633365	-0.369499	0.113043
C59	C	0.633370	-0.317291	0.113056
N60	N	0.672312	-0.291176	0.074133
C61	C	0.711259	-0.317279	0.035209
C62	C	0.633399	-0.792480	0.113035
C63	C	0.633404	-0.844699	0.113034
C64	C	0.711296	-0.844687	0.035184
C65	C	0.711294	-0.792467	0.035188
C66	C	0.672341	-0.766365	0.074111
C67	C	0.711253	-0.207621	0.035222
C68	C	0.711249	-0.155400	0.035232
C69	C	0.633355	-0.155417	0.113080
C70	C	0.633360	-0.207633	0.113072
C71	C	0.672311	-0.233734	0.074139
O72	O	0.600277	-0.290249	0.146154
O73	O	0.744372	-0.290264	0.002103
C74	C	0.711269	-0.526147	0.035194
C75	C	0.672324	-0.552260	0.074114
C76	C	0.633377	-0.526157	0.113038
C77	C	0.672328	-0.604479	0.074113
C78	C	0.711275	-0.630582	0.035189
C79	C	0.750217	-0.604466	-0.003734
C80	C	0.750215	-0.552250	-0.003730
C81	C	0.594435	-0.552272	0.151961
C82	C	0.594440	-0.604489	0.151954
C83	C	0.633387	-0.630592	0.113030
C84	C	0.776472	-0.000058	0.069388
C85	C	0.839689	-0.000060	0.070154
C86	C	0.677071	-0.000060	-0.030013
C87	C	0.676305	-0.000064	-0.093230
N88	N	0.672350	0.129198	0.074110
C89	C	0.723539	-0.000041	-0.492333
C90	C	0.722827	-0.000037	-0.551733
O91	O	0.766613	-0.000023	-0.588478
N92	N	0.670551	-0.000033	-0.574359
C93	C	0.618983	-0.000027	-0.537582
O94	O	0.574452	-0.000023	-0.562281
C95	C	0.619695	-0.000027	-0.478182
C96	C	0.671974	-0.000037	-0.455560
C97	C	0.775814	-0.000050	-0.469710
C98	C	0.776525	-0.000055	-0.410313
C99	C	0.724961	-0.000051	-0.373540
C100	C	0.672685	-0.000042	-0.396164
C101	C	0.568127	-0.000018	-0.441406
C102	C	0.568844	-0.000018	-0.382004
C103	C	0.621123	-0.000028	-0.359381
C104	C	0.621832	-0.000042	-0.299995
N105	N	0.674109	-0.000047	-0.277368
C106	C	0.725673	-0.000051	-0.314141
C107	C	0.617491	-0.000026	-0.662324
C108	C	0.616778	-0.000029	-0.721722
C109	C	0.720623	-0.000038	-0.735869
C110	C	0.721335	-0.000039	-0.676470
C111	C	0.669767	-0.000030	-0.639698
C112	C	0.727163	-0.000062	-0.189405
C113	C	0.727869	-0.000068	-0.130003
C114	C	0.624025	-0.000057	-0.115860
C115	C	0.623318	-0.000052	-0.175257
C116	C	0.674891	-0.000053	-0.212029
O117	O	0.578070	-0.000055	-0.263215
O118	O	0.770196	-0.000049	-0.289433
C119	C	0.667577	-0.000038	0.178283
C120	C	0.668343	-0.000031	0.241500
H121	H	0.486602	-0.000020	0.172255
Br122	Br	0.797156	-0.000062	-0.239299
Br123	Br	0.358890	-0.000033	0.198967
Br124	Br	-0.154227	-0.000062	-0.052364
Br125	Br	0.790604	-0.000042	-0.785787
H126	H	-0.167632	-0.000050	0.164421
Br127	Br	0.764154	-0.757034	-0.017637
H128	H	0.781924	-0.374343	-0.035411
H129	H	0.743009	-0.865949	0.003491
Br130	Br	-0.014235	-0.000076	-0.050690
H131	H	0.525555	-0.000007	-0.459814
Br132	Br	0.580531	-0.757061	0.165865
Br133	Br	-0.047586	-0.000038	0.194099
Br134	Br	0.552367	-0.000051	-0.205961
H135	H	0.601650	-0.228895	0.144772
H136	H	0.582043	-0.000055	-0.085909
Br137	Br	0.126097	-0.000081	-0.101018
H138	H	0.781927	-0.469066	-0.035420
H139	H	0.206289	-0.000029	0.220908
H140	H	0.601646	-0.134156	0.144773
H141	H	0.817806	-0.000052	-0.499645
Br142	Br	0.847480	-0.000054	-0.379621
H143	H	0.098544	-0.000039	0.219617
Br144	Br	0.792288	-0.000053	-0.645775
Br145	Br	0.580552	-0.880132	0.165868
Br146	Br	0.532246	-0.000052	-0.044141
H147	H	0.562703	-0.469088	0.183661
H148	H	0.770443	-0.000077	-0.111587
H149	H	0.246123	-0.000088	-0.071339
H150	H	0.526850	-0.000011	-0.352066
H151	H	0.404512	-0.000048	-0.017441
Br152	Br	0.545825	-0.000028	-0.752416
H153	H	0.562695	-0.374362	0.183661
H154	H	0.742968	-0.134140	0.003536
Br155	Br	0.764115	-0.243035	-0.017617
H156	H	0.781931	-0.530993	-0.035424
H157	H	0.781931	-0.625728	-0.035426
H158	H	0.562724	-0.625746	0.183654
Br159	Br	0.541573	-0.516853	0.204791
Br160	Br	0.547499	-0.000019	-0.612424
