data_functionalizedCrystal
_audit_creation_method	'MofGen! by Chris Wilmer'
_symmetry_space_group_name_H-M	'P1'
_symmetry_Int_Tables_number	1
_symmetry_cell_setting	triclinic
loop_
_symmetry_equiv_pos_as_xyz
  x,y,z
_cell_length_a	15.625950
_cell_length_b	11.792241
_cell_length_c	14.749905
_cell_angle_alpha	75.869547
_cell_angle_beta	93.440624
_cell_angle_gamma	84.220291
loop_
_atom_site_label
_atom_site_type_symbol
_atom_site_fract_x
_atom_site_fract_y
_atom_site_fract_z
O1	O	1.127978	0.061998	0.312729
O2	O	0.884283	0.103029	0.227914
O3	O	1.012043	-0.083265	0.272386
O4	O	1.000218	0.248292	0.268257
O5	O	0.979397	-0.124189	0.420698
O6	O	0.851637	0.062105	0.376227
O7	O	1.095332	0.021075	0.461041
Zn8	Zn	0.968301	0.035093	0.442182
Zn9	Zn	1.011314	0.089011	0.246774
O10	O	0.967572	0.207369	0.416569
C11	C	0.836762	0.084760	0.291212
C12	C	0.743800	0.091282	0.258859
C13	C	0.349015	0.001285	0.556569
C14	C	0.261671	0.007446	0.526126
C15	C	0.297304	0.052056	0.364456
C16	C	0.384653	0.045904	0.394886
C17	C	0.410501	0.020517	0.490943
C18	C	0.446138	0.065136	0.329260
C19	C	0.533480	0.058978	0.359687
C20	C	0.559336	0.033588	0.455740
C21	C	0.497842	0.014359	0.521370
C22	C	0.420289	0.090515	0.233203
C23	C	0.481775	0.109747	0.167577
C24	C	0.569117	0.103598	0.198004
C25	C	0.594973	0.078208	0.294057
C26	C	0.630611	0.122827	0.132374
C27	C	0.717952	0.116669	0.162802
C28	C	0.682315	0.072050	0.324485
C29	C	0.994977	-0.145942	0.346283
C30	C	0.992754	-0.271727	0.345508
C31	C	0.988668	-0.502016	0.344070
C32	C	0.990938	-0.373866	0.344869
C33	C	1.142854	0.039344	0.397741
C34	C	1.235817	0.032824	0.430089
C35	C	0.984639	0.270046	0.342670
C36	C	0.986863	0.395833	0.343439
N37	N	0.938952	-0.001707	0.575545
N38	N	1.040670	0.125801	0.113413
C39	C	0.857063	-0.104414	0.697830
C40	C	0.877603	-0.078642	0.604464
C41	C	0.979783	0.049492	0.639987
C42	C	0.959248	0.023736	0.733357
C43	C	0.897889	-0.053219	0.762270
C44	C	1.000074	0.074930	0.797798
C45	C	0.979544	0.049171	0.891160
C46	C	0.918189	-0.027784	0.920082
C47	C	0.877359	-0.078979	0.855633
C48	C	1.061438	0.151878	0.768884
C49	C	1.102263	0.203073	0.833324
C50	C	1.081729	0.177320	0.926687
C51	C	1.020374	0.100366	0.955609
C52	C	1.122559	0.228515	0.991137
C53	C	1.102029	0.202755	1.084499
C54	C	0.999844	0.074606	1.048972
H55	H	0.370060	-0.019371	0.634787
H56	H	0.609552	0.143486	0.054165
F57	F	1.083288	0.179290	0.669518
H58	H	0.949871	0.011953	1.072512
H59	H	0.211607	-0.008190	0.579573
H60	H	0.349168	0.095534	0.208432
F61	F	0.525355	-0.012649	0.623605
F62	F	0.783393	0.137135	0.092956
H63	H	0.807090	-0.167066	0.721369
H64	H	0.276246	0.072722	0.286246
F65	F	1.167567	0.284968	0.802543
F66	F	0.709827	0.045043	0.426720
F67	F	1.045086	0.131388	0.609205
H68	H	0.460717	0.130412	0.089367
H69	H	1.172525	0.291163	0.967583
H70	H	0.901479	-0.048762	0.996106
F71	F	0.812045	-0.160873	0.886407
H72	H	1.135274	0.244444	1.136969
H73	H	0.630456	0.028574	0.480513
F74	F	0.834163	-0.133163	0.535888
