data_functionalizedCrystal
_audit_creation_method	'MofGen! by Chris Wilmer'
_symmetry_space_group_name_H-M	'P1'
_symmetry_Int_Tables_number	1
_symmetry_cell_setting	triclinic
loop_
_symmetry_equiv_pos_as_xyz
  x,y,z
_cell_length_a	9.482944
_cell_length_b	10.967916
_cell_length_c	14.853567
_cell_angle_alpha	84.184176
_cell_angle_beta	100.431341
_cell_angle_gamma	88.407647
loop_
_atom_site_label
_atom_site_type_symbol
_atom_site_fract_x
_atom_site_fract_y
_atom_site_fract_z
O1	O	0.283718	-1.614989	-0.096701
O2	O	0.195879	-1.264380	-0.118013
O3	O	0.242140	-1.449051	0.024067
O4	O	0.237456	-1.430319	-0.238781
O5	O	0.475502	-1.415405	0.048527
O6	O	0.429241	-1.230735	-0.093553
O7	O	0.517080	-1.581344	-0.072241
Cu8	Cu	0.494468	-1.402967	-0.080663
Cu9	Cu	0.218491	-1.442757	-0.109591
O10	O	0.470818	-1.396674	-0.214321
C11	C	0.301318	-1.202688	-0.106080
C12	C	0.267822	-1.068990	-0.106957
N13	N	0.688578	-1.374990	-0.060317
N14	N	0.024383	-1.470743	-0.129930
C15	C	0.937273	-1.411238	-0.086658
C16	C	0.775686	-1.434505	-0.103595
C17	C	0.373777	-0.991954	-0.094676
C18	C	0.339159	-0.853770	-0.095581
C19	C	0.358605	-1.431380	0.069868
C20	C	0.357955	-1.428838	0.169897
C21	C	0.411638	-0.643037	-0.084174
C22	C	0.445129	-0.776735	-0.083299
C23	C	0.354351	-1.414345	-0.260122
C24	C	0.354991	-1.416888	-0.360152
C25	C	0.327806	-1.308386	0.579929
C26	C	0.382770	-1.527778	0.605772
C27	C	0.383361	-1.530170	0.511787
C28	C	0.356176	-1.421669	0.451869
C29	C	0.328400	-1.310774	0.485936
C30	C	0.411151	-1.641061	0.477715
C31	C	0.411745	-1.643457	0.383725
C32	C	0.384549	-1.534956	0.323804
C33	C	0.356770	-1.424057	0.357876
C34	C	0.329585	-1.315556	0.297957
C35	C	0.301796	-1.204657	0.332026
C36	C	0.301204	-1.202273	0.426015
C37	C	0.385141	-1.537340	0.229815
C38	C	0.330179	-1.317944	0.203964
H39	H	0.982325	-1.343072	-0.037067
H40	H	0.222812	-0.817428	-0.106764
C41	C	0.270668	-1.080291	0.463502
N42	N	0.247681	-0.988414	0.491742
H43	H	0.730644	-1.502684	-0.153182
H44	H	0.733619	-1.306816	-0.010726
H45	H	0.979334	-1.538918	-0.179513
C46	C	0.530949	-1.041045	-0.079605
N47	N	0.649334	-1.078016	-0.068269
H48	H	0.404915	-1.616113	0.654564
C49	C	0.441063	-1.760402	0.543630
N50	N	0.463591	-1.850295	0.593282
C51	C	0.602313	-0.825826	-0.068179
N52	N	0.720701	-0.862803	-0.056790
H53	H	0.305175	-1.218096	0.607672
C54	C	0.442302	-1.765448	0.346257
N55	N	0.465313	-1.857333	0.318034
H56	H	0.151483	-1.032642	-0.118138
H57	H	0.279672	-1.116314	0.283230
H58	H	0.308035	-1.229588	0.155183
C59	C	0.415707	-1.659320	0.192343
N60	N	0.438727	-1.751203	0.164120
