data_functionalizedCrystal
_audit_creation_method	'MofGen! by Chris Wilmer'
_symmetry_space_group_name_H-M	'P1'
_symmetry_Int_Tables_number	1
_symmetry_cell_setting	triclinic
loop_
_symmetry_equiv_pos_as_xyz
  x,y,z
_cell_length_a	14.971486
_cell_length_b	11.792254
_cell_length_c	13.448316
_cell_angle_alpha	90.002372
_cell_angle_beta	90.003553
_cell_angle_gamma	83.906363
loop_
_atom_site_label
_atom_site_type_symbol
_atom_site_fract_x
_atom_site_fract_y
_atom_site_fract_z
O1	O	1.187548	0.147901	0.082578
O2	O	0.927220	0.165613	0.082605
O3	O	1.063695	-0.008453	0.082584
O4	O	1.051072	0.321967	0.082599
O5	O	1.063672	-0.008449	-0.082800
O6	O	0.927197	0.165618	-0.082779
O7	O	1.187525	0.147905	-0.082806
Cu8	Cu	1.057359	0.156762	-0.097893
Cu9	Cu	1.057386	0.156757	0.097692
O10	O	1.051049	0.321972	-0.082785
C11	C	0.893880	0.164823	-0.000083
C12	C	0.794573	0.162450	-0.000073
C13	C	0.737762	0.264709	-0.000070
C14	C	0.644453	0.262472	-0.000085
C15	C	0.607958	0.157974	-0.000096
C16	C	0.664778	0.055707	-0.000102
C17	C	0.758084	0.057945	-0.000095
C18	C	0.470296	0.051049	-0.000116
C19	C	0.376983	0.048810	-0.000122
C20	C	0.356665	0.255575	-0.000107
C21	C	0.449972	0.257814	-0.000099
C22	C	0.506785	0.155546	-0.000103
C23	C	1.062889	-0.050737	-0.000108
C24	C	1.060509	-0.176734	-0.000107
C25	C	1.058575	-0.279058	-0.000103
C26	C	1.056157	-0.407429	-0.000093
C27	C	1.220865	0.148695	-0.000115
C28	C	1.320171	0.151069	-0.000119
C29	C	1.051856	0.364255	-0.000091
C30	C	1.054236	0.490253	-0.000086
N31	N	1.057346	0.156765	-0.235458
C32	C	1.117846	0.079700	-0.712685
C33	C	1.117839	0.079707	-0.608582
C34	C	1.057386	0.156755	-0.556539
C35	C	0.996943	0.233809	-0.608604
C36	C	0.996955	0.233806	-0.712706
C37	C	0.996919	0.233808	-0.391624
C38	C	0.996906	0.233810	-0.287516
C39	C	1.117803	0.079710	-0.287501
C40	C	1.117816	0.079706	-0.391602
C41	C	1.057371	0.156759	-0.443660
N42	N	1.057406	0.156745	0.235257
H43	H	0.479682	0.342905	-0.000080
C44	C	0.625331	-0.057866	-0.000161
C45	C	0.695059	-0.146942	-0.000188
C46	C	0.658758	-0.251582	-0.000250
H47	H	0.589369	-0.063199	0.057495
H48	H	0.589378	-0.063099	-0.057858
H49	H	0.730997	-0.141711	0.057503
H50	H	0.731027	-0.141646	-0.057840
H51	H	0.622804	-0.256815	-0.057948
H52	H	0.622796	-0.256903	0.057407
H53	H	0.706062	-0.312032	-0.000278
H54	H	0.947702	0.296556	-0.434006
C55	C	0.295033	0.366650	0.000098
C56	C	0.311583	0.429540	0.085207
C57	C	0.254814	0.531857	0.085441
H58	H	0.306103	0.409634	-0.057501
H59	H	0.234222	0.350405	0.000140
H60	H	0.372380	0.445787	0.085155
H61	H	0.300508	0.386590	0.142819
H62	H	0.194003	0.515613	0.085483
H63	H	0.265889	0.574831	0.027838
H64	H	0.266030	0.574536	0.143190
H65	H	0.347273	-0.036281	-0.000133
C66	C	1.183327	-0.004289	-0.231200
C67	C	1.168127	-0.115747	-0.256700
C68	C	1.228454	-0.193230	-0.204915
H69	H	1.243119	0.007958	-0.248259
H70	H	1.174756	0.006500	-0.161707
H71	H	1.176705	-0.126532	-0.326178
H72	H	1.108347	-0.128030	-0.239639
H73	H	1.219884	-0.182440	-0.135421
H74	H	1.288242	-0.180973	-0.221978
H75	H	1.218144	-0.268862	-0.222203
H76	H	0.947724	0.296549	-0.566225
H77	H	0.516551	-0.032229	-0.000121
C78	C	0.931228	0.317500	-0.769050
C79	C	0.878265	0.384955	-0.701194
C80	C	0.817700	0.462060	-0.753061
H81	H	0.963529	0.364925	-0.809656
H82	H	0.893757	0.276615	-0.809647
H83	H	0.915731	0.425837	-0.660615
H84	H	0.845945	0.337562	-0.660586
H85	H	0.780228	0.421175	-0.793658
H86	H	0.850008	0.509477	-0.793665
H87	H	0.781751	0.507830	-0.707029
H88	H	1.167070	0.016953	-0.755052
H89	H	0.804340	-0.025325	-0.000097
C90	C	0.931241	0.317599	-0.231188
C91	C	0.878331	0.385107	-0.299057
C92	C	0.817841	0.462318	-0.247205
H93	H	0.893719	0.276830	-0.190583
H94	H	0.963625	0.364969	-0.190592
H95	H	0.845949	0.337743	-0.339636
H96	H	0.915828	0.425900	-0.339665
H97	H	0.850225	0.509687	-0.206609
H98	H	0.780325	0.421539	-0.206601
H99	H	0.781940	0.508138	-0.293246
C100	C	0.582669	0.373414	0.000085
C101	C	0.528493	0.378146	0.085154
C102	C	0.471560	0.480328	0.085339
H103	H	0.617659	0.436059	0.000151
H104	H	0.545795	0.376863	-0.057561
H105	H	0.565363	0.374708	0.142785
H106	H	0.493484	0.315525	0.085106
H107	H	0.434686	0.483777	0.027694
H108	H	0.506557	0.542964	0.085403
H109	H	0.434789	0.483547	0.143053
H110	H	1.167036	0.016963	-0.433975
C111	C	1.183497	-0.004074	-0.552242
C112	C	1.236421	-0.071575	-0.620100
C113	C	1.296910	-0.148780	-0.568237
H114	H	1.221009	0.036700	-0.511621
H115	H	1.151111	-0.051449	-0.511660
H116	H	1.268804	-0.024207	-0.660665
H117	H	1.198933	-0.112374	-0.660723
H118	H	1.264523	-0.196155	-0.527655
H119	H	1.334415	-0.107997	-0.527617
H120	H	1.332820	-0.194596	-0.614270
H121	H	0.767468	0.349803	-0.000060
