data_functionalizedCrystal
_audit_creation_method	'MofGen! by Chris Wilmer'
_symmetry_space_group_name_H-M	'P1'
_symmetry_Int_Tables_number	1
_symmetry_cell_setting	triclinic
loop_
_symmetry_equiv_pos_as_xyz
  x,y,z
_cell_length_a	18.215407
_cell_length_b	29.839131
_cell_length_c	18.215399
_cell_angle_alpha	89.968708
_cell_angle_beta	89.983115
_cell_angle_gamma	90.038864
loop_
_atom_site_label
_atom_site_type_symbol
_atom_site_fract_x
_atom_site_fract_y
_atom_site_fract_z
Zn1	Zn	1.124984	-0.178887	-0.416052
Zn2	Zn	1.458317	0.154447	-0.082719
Zn3	Zn	1.791651	0.487780	0.250614
Zn4	Zn	1.124858	-0.254017	-0.292980
Zn5	Zn	1.458191	0.079317	0.040353
Zn6	Zn	1.791524	0.412650	0.373687
Zn7	Zn	1.001917	-0.178898	-0.293005
Zn8	Zn	1.335251	0.154435	0.040328
Zn9	Zn	1.668584	0.487769	0.373662
Zn10	Zn	1.001847	-0.253987	-0.416010
Zn11	Zn	1.335180	0.079346	-0.082677
Zn12	Zn	1.668513	0.412680	0.250657
O13	O	1.063401	-0.216447	-0.354512
O14	O	1.396735	0.116886	-0.021179
O15	O	1.730068	0.450220	0.312155
O16	O	1.227951	-0.188860	-0.399734
O17	O	1.561285	0.144473	-0.066400
O18	O	1.894618	0.477806	0.266933
O19	O	1.108526	-0.244069	-0.189999
O20	O	1.441860	0.089264	0.143334
O21	O	1.775193	0.422598	0.476668
O22	O	1.018325	-0.116029	-0.309356
O23	O	1.351658	0.217304	0.023977
O24	O	1.684991	0.550637	0.357311
O25	O	1.227859	-0.244058	-0.309313
O26	O	1.561192	0.089275	0.024020
O27	O	1.894525	0.422609	0.357354
O28	O	1.108741	-0.116021	-0.399758
O29	O	1.442074	0.217312	-0.066425
O30	O	1.775408	0.550646	0.266908
O31	O	1.018203	-0.188880	-0.190017
O32	O	1.351536	0.144454	0.143316
O33	O	1.684869	0.477787	0.476649
O34	O	0.898924	-0.188851	-0.309315
O35	O	1.232257	0.144482	0.024019
O36	O	1.565590	0.477816	0.357352
O37	O	1.018204	-0.244008	-0.519000
O38	O	1.351538	0.089326	-0.185667
O39	O	1.684871	0.422659	0.147667
O40	O	0.898872	-0.244019	-0.399686
O41	O	1.232205	0.089315	-0.066353
O42	O	1.565539	0.422648	0.266981
O43	O	1.108673	-0.188832	-0.519031
O44	O	1.442006	0.144501	-0.185698
O45	O	1.775339	0.477835	0.147636
O46	O	1.108458	-0.316880	-0.309272
O47	O	1.441791	0.016454	0.024062
O48	O	1.775124	0.349787	0.357395
O49	O	1.018082	-0.316858	-0.399662
O50	O	1.351415	0.016475	-0.066328
O51	O	1.684749	0.349809	0.267005
C52	C	0.872195	-0.216433	-0.354499
C53	C	1.205529	0.116900	-0.021166
C54	C	1.538862	0.450233	0.312168
C55	C	0.790396	-0.216438	-0.354511
C56	C	1.123730	0.116895	-0.021178
C57	C	1.457063	0.450228	0.312156
C58	C	0.602250	-0.187756	-0.401667
C59	C	0.935583	0.145577	-0.068334
C60	C	1.268916	0.478911	0.264999
C61	C	0.525391	-0.187760	-0.401670
C62	C	0.858724	0.145573	-0.068337
C63	C	1.192057	0.478907	0.264997
C64	C	0.525305	-0.245151	-0.307369
C65	C	0.858639	0.088182	0.025964
C66	C	1.191972	0.421516	0.359297
C67	C	0.602163	-0.245144	-0.307364
C68	C	0.935496	0.088189	0.025970
C69	C	1.268829	0.421522	0.359303
C70	C	0.640633	-0.216448	-0.354517
C71	C	0.973966	0.116886	-0.021184
C72	C	1.307299	0.450219	0.312150
C73	C	0.486917	-0.216458	-0.354525
C74	C	0.820250	0.116875	-0.021192
C75	C	1.153583	0.450209	0.312142
C76	C	0.403583	-0.216462	-0.354527
C77	C	0.736916	0.116871	-0.021194
C78	C	1.070250	0.450204	0.312139
C79	C	0.723972	-0.216443	-0.354514
C80	C	1.057305	0.116891	-0.021180
C81	C	1.390638	0.450224	0.312153
C82	C	1.063269	-0.333170	-0.354475
C83	C	1.396602	0.000164	-0.021142
C84	C	1.729935	0.333497	0.312191
C85	C	1.063279	-0.383104	-0.354484
C86	C	1.396612	-0.049771	-0.021151
C87	C	1.729946	0.283563	0.312182
C88	C	1.110546	-0.692746	-0.307515
C89	C	1.443879	-0.359413	0.025819
C90	C	1.777212	-0.026079	0.359152
C91	C	1.110636	-0.880419	-0.307543
C92	C	1.443970	-0.547086	0.025790
C93	C	1.777303	-0.213753	0.359123
O94	O	1.150719	-0.904683	-0.267580
O95	O	1.484052	-0.571349	0.065753
O96	O	1.817385	-0.238016	0.399087
N97	N	1.063554	-0.903889	-0.354567
N98	N	1.396887	-0.570556	-0.021234
N99	N	1.730221	-0.237222	0.312099
C100	C	1.016449	-0.880438	-0.401591
C101	C	1.349782	-0.547105	-0.068258
C102	C	1.683116	-0.213771	0.265076
O103	O	0.976410	-0.904707	-0.441594
O104	O	1.309743	-0.571374	-0.108261
O105	O	1.643077	-0.238040	0.225073
C106	C	1.016362	-0.692766	-0.401566
C107	C	1.349696	-0.359432	-0.068232
C108	C	1.683029	-0.026099	0.265101
C109	C	1.063443	-0.669298	-0.354533
C110	C	1.396776	-0.335965	-0.021200
C111	C	1.730109	-0.002632	0.312133
C112	C	1.157623	-0.669279	-0.260487
C113	C	1.490956	-0.335945	0.072847
C114	C	1.824289	-0.002612	0.406180
C115	C	1.157597	-0.622363	-0.260477
C116	C	1.490930	-0.289030	0.072856
C117	C	1.824263	0.044304	0.406189
C118	C	1.110494	-0.598915	-0.307496
C119	C	1.443827	-0.265582	0.025838
C120	C	1.777160	0.067751	0.359171
C121	C	1.063417	-0.622383	-0.354524
C122	C	1.396750	-0.289049	-0.021190
C123	C	1.730083	0.044284	0.312143
C124	C	0.969262	-0.669316	-0.448593
C125	C	1.302595	-0.335982	-0.115259
C126	C	1.635928	-0.002649	0.218074
C127	C	0.969245	-0.622395	-0.448583
C128	C	1.302579	-0.289061	-0.115250
C129	C	1.635912	0.044272	0.218083
C130	C	1.016326	-0.598927	-0.401551
C131	C	1.349659	-0.265594	-0.068218
C132	C	1.682992	0.067740	0.265116
C133	C	1.016288	-0.552020	-0.401533
C134	C	1.349621	-0.218686	-0.068199
C135	C	1.682954	0.114647	0.265134
N136	N	1.063370	-0.528550	-0.354509
N137	N	1.396703	-0.195216	-0.021175
N138	N	1.730037	0.138117	0.312158
C139	C	1.110473	-0.551997	-0.307490
C140	C	1.443806	-0.218664	0.025843
C141	C	1.777140	0.114669	0.359177
C142	C	1.016497	-0.978969	-0.401600
C143	C	1.349830	-0.645635	-0.068267
C144	C	1.683163	-0.312302	0.265067
C145	C	1.016517	-1.025886	-0.401606
C146	C	1.349851	-0.692553	-0.068272
C147	C	1.683184	-0.359220	0.265061
C148	C	1.110706	-1.025864	-0.307559
C149	C	1.444039	-0.692531	0.025775
C150	C	1.777373	-0.359198	0.359108
C151	C	1.110681	-0.978946	-0.307550
C152	C	1.444014	-0.645612	0.025783
C153	C	1.777348	-0.312279	0.359117
C154	C	1.063579	-0.955499	-0.354576
C155	C	1.396912	-0.622165	-0.021243
C156	C	1.730246	-0.288832	0.312091
C157	C	1.110414	-0.453472	-0.307473
C158	C	1.443748	-0.120138	0.025860
C159	C	1.777081	0.213195	0.359193
C160	C	1.110382	-0.406552	-0.307466
C161	C	1.443715	-0.073219	0.025867
C162	C	1.777049	0.260115	0.359201
C163	C	1.016196	-0.406578	-0.401515
C164	C	1.349530	-0.073245	-0.068182
C165	C	1.682863	0.260088	0.265151
C166	C	1.016226	-0.453494	-0.401520
C167	C	1.349559	-0.120160	-0.068187
C168	C	1.682892	0.213173	0.265146
C169	C	1.063341	-0.476939	-0.354497
C170	C	1.396674	-0.143606	-0.021164
C171	C	1.730007	0.189727	0.312170
O172	O	0.976232	-0.527727	-0.441481
O173	O	1.309565	-0.194394	-0.108148
O174	O	1.642899	0.138940	0.225186
O175	O	1.150518	-0.527720	-0.267505
O176	O	1.483851	-0.194387	0.065829
O177	O	1.817184	0.138946	0.399162
C178	C	1.110572	-0.739662	-0.307524
C179	C	1.443905	-0.406328	0.025809
C180	C	1.777238	-0.072995	0.359142
C181	C	1.063495	-0.763129	-0.354552
C182	C	1.396828	-0.429796	-0.021219
C183	C	1.730161	-0.096463	0.312114
C184	C	1.016392	-0.739681	-0.401571
C185	C	1.349725	-0.406348	-0.068237
C186	C	1.683058	-0.073015	0.265096
C187	C	1.063515	-0.810047	-0.354558
C188	C	1.396849	-0.476714	-0.021224
C189	C	1.730182	-0.143380	0.312109
C190	C	1.110618	-0.833495	-0.307539
C191	C	1.443952	-0.500162	0.025794
C192	C	1.777285	-0.166828	0.359127
C193	C	1.157701	-0.810025	-0.260515
C194	C	1.491034	-0.476692	0.072818
C195	C	1.824367	-0.143358	0.406152
C196	C	1.157675	-0.763109	-0.260506
C197	C	1.491008	-0.429776	0.072828
C198	C	1.824341	-0.096443	0.406161
C199	C	0.969309	-0.763151	-0.448595
C200	C	1.302643	-0.429818	-0.115262
C201	C	1.635976	-0.096485	0.218072
C202	C	0.969339	-0.810067	-0.448600
C203	C	1.302672	-0.476733	-0.115267
C204	C	1.636005	-0.143400	0.218067
C205	C	1.016442	-0.833515	-0.401581
C206	C	1.349775	-0.500181	-0.068248
C207	C	1.683108	-0.166848	0.265085
C208	C	1.255354	-0.216461	-0.354525
C209	C	1.588688	0.116872	-0.021192
C210	C	1.922021	0.450205	0.312141
C211	C	1.337153	-0.216467	-0.354531
C212	C	1.670487	0.116866	-0.021198
C213	C	2.003820	0.450199	0.312136
C214	C	1.063445	-0.216415	-0.546465
C215	C	1.396778	0.116918	-0.213132
C216	C	1.730111	0.450251	0.120202
C217	C	1.063463	-0.216402	-0.628264
C218	C	1.396796	0.116932	-0.294930
C219	C	1.730130	0.450265	0.038403
C220	C	1.063555	-0.099269	-0.354565
C221	C	1.396888	0.234065	-0.021231
C222	C	1.730222	0.567398	0.312102
C223	C	1.063620	-0.049334	-0.354587
C224	C	1.396954	0.283999	-0.021254
C225	C	1.730287	0.617332	0.312080
C226	C	1.110597	-0.187633	-0.893339
C227	C	1.443930	0.145700	-0.560006
C228	C	1.777264	0.479034	-0.226672
C229	C	1.110588	-0.187645	-0.816480
C230	C	1.443922	0.145688	-0.483147
C231	C	1.777255	0.479022	-0.149813
C232	C	1.016389	-0.245105	-0.816437
C233	C	1.349722	0.088228	-0.483104
C234	C	1.683056	0.421561	-0.149771
C235	C	1.016402	-0.245095	-0.893295
C236	C	1.349735	0.088238	-0.559961
C237	C	1.683069	0.421571	-0.226628
C238	C	1.063505	-0.216356	-0.931744
C239	C	1.396838	0.116977	-0.598410
C240	C	1.730172	0.450310	-0.265077
C241	C	1.063483	-0.216379	-0.778027
C242	C	1.396817	0.116955	-0.444694
C243	C	1.730150	0.450288	-0.111361
C244	C	1.063473	-0.216392	-0.694694
C245	C	1.396807	0.116941	-0.361360
C246	C	1.730140	0.450275	-0.028027
C247	C	1.063516	-0.216343	-1.015083
C248	C	1.396849	0.116990	-0.681749
C249	C	1.730183	0.450323	-0.348416
C250	C	1.063401	-0.216446	-0.163306
C251	C	1.396734	0.116887	0.170028
C252	C	1.730067	0.450220	0.503361
C253	C	1.063525	-0.216333	-0.081507
C254	C	1.396858	0.117000	0.251826
C255	C	1.730192	0.450333	0.585159
H256	H	0.633570	-0.164388	-0.440060
H257	H	0.966903	0.168945	-0.106727
H258	H	1.300236	0.502279	0.226606
H259	H	0.493974	-0.268515	-0.268979
H260	H	0.827307	0.064818	0.064354
H261	H	1.160640	0.398152	0.397687
H262	H	0.978139	-0.959881	-0.439895
H263	H	1.311472	-0.626548	-0.106562
H264	H	1.644806	-0.293214	0.226771
Br265	Br	1.174506	-0.148664	-0.764362
Br266	Br	1.507839	0.184670	-0.431029
Br267	Br	1.841172	0.518003	-0.097695
H268	H	0.494143	-0.164396	-0.440063
H269	H	0.827476	0.168938	-0.106730
H270	H	1.160809	0.502271	0.226603
H271	H	0.633415	-0.268509	-0.268964
H272	H	0.966749	0.064824	0.064369
H273	H	1.300082	0.398158	0.397703
Br274	Br	1.174629	-1.057695	-0.243745
Br275	Br	1.507962	-0.724362	0.089588
Br276	Br	1.841295	-0.391029	0.422921
Br277	Br	1.174279	-0.374706	-0.243630
Br278	Br	1.507613	-0.041373	0.089703
Br279	Br	1.840946	0.291961	0.423036
Br280	Br	1.174356	-0.485283	-0.243655
Br281	Br	1.507690	-0.151950	0.089678
Br282	Br	1.841023	0.181383	0.423011
H283	H	1.195935	-0.603259	-0.222182
H284	H	1.529269	-0.269925	0.111152
H285	H	1.862602	0.063408	0.444485
H286	H	1.195983	-0.688365	-0.222198
H287	H	1.529317	-0.355031	0.111135
H288	H	1.862650	-0.021698	0.444468
Br289	Br	1.174577	-0.947102	-0.243717
Br290	Br	1.507910	-0.613768	0.089616
Br291	Br	1.841244	-0.280435	0.422949
Br292	Br	0.952609	-1.057729	-0.465427
Br293	Br	1.285943	-0.724396	-0.132094
Br294	Br	1.619276	-0.391063	0.201240
Br295	Br	0.905371	-0.701152	-0.512435
Br296	Br	1.238704	-0.367819	-0.179101
Br297	Br	1.572037	-0.034486	0.154232
H298	H	0.977843	-0.387480	-0.439795
H299	H	1.311177	-0.054146	-0.106462
H300	H	1.644510	0.279187	0.226871
H301	H	0.930890	-0.603306	-0.486880
H302	H	1.264223	-0.269973	-0.153547
H303	H	1.597557	0.063360	0.179787
Br304	Br	1.174519	-0.148629	-0.945517
Br305	Br	1.507853	0.184705	-0.612184
Br306	Br	1.841186	0.518038	-0.278851
H307	H	0.977892	-0.472602	-0.439820
H308	H	1.311225	-0.139269	-0.106487
H309	H	1.644558	0.194065	0.226846
Br310	Br	1.221575	-0.731268	-0.196674
Br311	Br	1.554908	-0.397935	0.136659
Br312	Br	1.888241	-0.064601	0.469992
H313	H	1.196052	-0.829124	-0.222229
H314	H	1.529385	-0.495791	0.111104
H315	H	1.862718	-0.162458	0.444438
H316	H	0.930953	-0.744064	-0.486884
H317	H	1.264287	-0.410730	-0.153551
H318	H	1.597620	-0.077397	0.179783
Br319	Br	0.905435	-0.841910	-0.512434
Br320	Br	1.238769	-0.508576	-0.179101
Br321	Br	1.572102	-0.175243	0.154233
H322	H	0.978038	-0.268503	-0.785123
H323	H	1.311372	0.064830	-0.451790
H324	H	1.644705	0.398164	-0.118456
Br325	Br	0.952494	-0.284085	-0.945420
Br326	Br	1.285827	0.049249	-0.612087
Br327	Br	1.619160	0.382582	-0.278754
