data_functionalizedCrystal
_audit_creation_method	'MofGen! by Chris Wilmer'
_symmetry_space_group_name_H-M	'P1'
_symmetry_Int_Tables_number	1
_symmetry_cell_setting	triclinic
loop_
_symmetry_equiv_pos_as_xyz
  x,y,z
_cell_length_a	12.759399
_cell_length_b	19.077262
_cell_length_c	19.076919
_cell_angle_alpha	89.898951
_cell_angle_beta	92.274423
_cell_angle_gamma	92.318333
loop_
_atom_site_label
_atom_site_type_symbol
_atom_site_fract_x
_atom_site_fract_y
_atom_site_fract_z
Zn1	Zn	-0.381077	1.058339	-0.440332
Zn2	Zn	0.118923	1.558339	0.059668
Zn3	Zn	-0.549444	1.062997	-0.322830
Zn4	Zn	-0.049444	1.562997	0.177170
Zn5	Zn	-0.380558	0.945554	-0.318136
Zn6	Zn	0.119442	1.445554	0.181864
Zn7	Zn	-0.563495	0.940817	-0.435594
Zn8	Zn	-0.063495	1.440817	0.064406
O9	O	-0.468644	1.001927	-0.379223
O10	O	0.031356	1.501927	0.120777
O11	O	-0.397748	1.157290	-0.428692
O12	O	0.102252	1.657290	0.071308
O13	O	-0.520944	1.051350	-0.223875
O14	O	-0.020944	1.551350	0.276125
O15	O	-0.233605	0.960548	-0.334363
O16	O	0.266395	1.460548	0.165637
O17	O	-0.521447	1.160713	-0.342364
O18	O	-0.021447	1.660713	0.157636
O19	O	-0.233986	1.043410	-0.424140
O20	O	0.266014	1.543410	0.075860
O21	O	-0.396864	0.965064	-0.220426
O22	O	0.103136	1.465064	0.279574
O23	O	-0.410488	0.846592	-0.329769
O24	O	0.089512	1.346592	0.170231
O25	O	-0.545395	0.952475	-0.534554
O26	O	-0.045395	1.452475	-0.034554
O27	O	-0.544891	0.843112	-0.416066
O28	O	-0.044891	1.343112	0.083934
O29	O	-0.411373	1.038817	-0.538035
O30	O	0.088627	1.538817	-0.038035
O31	O	-0.698330	1.046757	-0.337770
O32	O	-0.198330	1.546757	0.162230
O33	O	-0.708653	0.956992	-0.420617
O34	O	-0.208653	1.456992	0.079383
C35	C	-0.741613	1.001884	-0.379205
C36	C	-0.241613	1.501884	0.120795
C37	C	-0.858388	1.001929	-0.379224
C38	C	-0.358388	1.501929	0.120776
C39	C	-0.479159	0.819355	-0.371894
C40	C	0.020841	1.319355	0.128106
C41	C	-0.483684	0.741249	-0.368776
C42	C	0.016316	1.241249	0.131224
C43	C	-0.480009	0.994598	-0.562504
C44	C	0.019991	1.494598	-0.062504
C45	C	-0.484852	0.991475	-0.640608
C46	C	0.015148	1.491475	-0.140608
C47	C	-0.907840	1.048719	-0.336138
C48	C	-0.407840	1.548719	0.163862
C49	C	-1.017562	1.048763	-0.336163
C50	C	-0.517562	1.548763	0.163837
C51	C	-1.028372	0.955222	-0.422362
C52	C	-0.528372	1.455222	0.077638
C53	C	-0.918651	0.955181	-0.422339
C54	C	-0.418651	1.455181	0.077661
C55	C	-1.161090	1.132713	-0.314481
C56	C	-0.661090	1.632713	0.185519
C57	C	-1.210545	1.179497	-0.271384
C58	C	-0.710545	1.679497	0.228616
C59	C	-1.170091	1.193068	-0.203256
C60	C	-0.670091	1.693068	0.296744
C61	C	-1.080183	1.159846	-0.178211
C62	C	-0.580183	1.659846	0.321789
C63	C	-1.030733	1.113057	-0.221304
C64	C	-0.530733	1.613057	0.278696
C65	C	-1.071186	1.099498	-0.289442
C66	C	-0.571186	1.599498	0.210558
C67	C	-0.775121	0.871231	-0.444015
C68	C	-0.275121	1.371231	0.055985
C69	C	-0.725670	0.824438	-0.487104
C70	C	-0.225670	1.324438	0.012896
C71	C	-0.766122	0.810860	-0.555233
C72	C	-0.266122	1.310860	-0.055233
C73	C	-0.856035	0.844070	-0.580275
C74	C	-0.356035	1.344070	-0.080275
C75	C	-0.905487	0.890863	-0.537186
C76	C	-0.405487	1.390863	-0.037186
C77	C	-0.865026	0.904443	-0.469058
C78	C	-0.365026	1.404443	0.030942
C79	C	-0.194609	1.001988	-0.379257
C80	C	0.305391	1.501988	0.120743
C81	C	-0.077831	1.002014	-0.379271
C82	C	0.422169	1.502014	0.120729
C83	C	-0.458088	1.185211	-0.386580
C84	C	0.041912	1.685211	0.113420
C85	C	-0.453590	1.263316	-0.389715
C86	C	0.046410	1.763316	0.110285
C87	C	-0.421390	1.702771	-0.412242
C88	C	0.078610	2.202771	0.087758
C89	C	-0.425609	1.629384	-0.409284
C90	C	0.074391	2.129384	0.090716
C91	C	-0.492126	1.594475	-0.362862
C92	C	0.007874	2.094475	0.137138
C93	C	-0.554422	1.632958	-0.319391
C94	C	-0.054422	2.132958	0.180609
C95	C	-0.550198	1.706345	-0.322346
C96	C	-0.050198	2.206345	0.177654
C97	C	-0.511661	1.375186	-0.349200
C98	C	-0.011661	1.875186	0.150800
C99	C	-0.515883	1.301794	-0.346249
C100	C	-0.015883	1.801794	0.153751
C101	C	-0.387068	1.298225	-0.436141
C102	C	0.112932	1.798225	0.063859
C103	C	-0.382854	1.371612	-0.439096
C104	C	0.117146	1.871612	0.060904
C105	C	-0.445146	1.410089	-0.395622
C106	C	0.054854	1.910089	0.104378
N107	N	-0.496442	1.519462	-0.359838
N108	N	0.003558	2.019462	0.140162
N109	N	-0.440824	1.485102	-0.398643
N110	N	0.059176	1.985102	0.101357
C111	C	-0.417353	1.034960	-0.679114
C112	C	0.082647	1.534960	-0.179114
C113	C	-0.421900	1.032017	-0.752500
C114	C	0.078100	1.532017	-0.252500
C115	C	-0.493952	0.985593	-0.787379
C116	C	0.006048	1.485593	-0.287379
C117	C	-0.561455	0.942103	-0.748867
C118	C	-0.061455	1.442103	-0.248867
C119	C	-0.556902	0.945043	-0.675482
C120	C	-0.056902	1.445043	-0.175482
C121	C	-0.515047	0.971976	-1.006662
C122	C	-0.015047	1.471976	-0.506662
C123	C	-0.519597	0.969041	-1.080052
C124	C	-0.019597	1.469041	-0.580052
C125	C	-0.380040	1.058955	-1.083680
C126	C	0.119960	1.558955	-0.583680
C127	C	-0.375498	1.061893	-1.010294
C128	C	0.124502	1.561893	-0.510294
C129	C	-0.442996	1.018401	-0.971788
C130	C	0.057004	1.518401	-0.471788
N131	N	-0.498604	0.982585	-0.862391
N132	N	0.001396	1.482585	-0.362391
N133	N	-0.438339	1.021406	-0.896777
N134	N	0.061661	1.521406	-0.396777
C135	C	-0.457245	1.009267	-0.196656
C136	C	0.042755	1.509267	0.303344
C137	C	-0.452098	1.012526	-0.118559
C138	C	0.047902	1.512526	0.381441
H139	H	-0.858775	1.086785	-0.301032
H140	H	-0.358775	1.586785	0.198968
Br141	Br	-0.648505	0.886022	-0.623222
Br142	Br	-0.148505	1.386022	-0.123222
H143	H	-0.328692	1.400030	-0.476900
H144	H	0.171308	1.900030	0.023100
H145	H	-0.608577	1.604530	-0.281590
H146	H	-0.108577	2.104530	0.218410
H147	H	-0.957530	1.086009	-0.200913
H148	H	-0.457530	1.586009	0.299087
Br149	Br	-0.288439	1.117975	-1.135941
Br150	Br	0.211561	1.617975	-0.635941
Br151	Br	-1.110164	0.891780	-0.480872
Br152	Br	-0.610164	1.391780	0.019128
Br153	Br	-0.330336	1.091067	-0.804758
Br154	Br	0.169664	1.591067	-0.304758
H155	H	-0.358683	1.072766	-0.650721
H156	H	0.141317	1.572766	-0.150721
Br157	Br	-0.720209	0.889663	-0.351552
Br158	Br	-0.220209	1.389663	0.148448
H159	H	-0.316828	1.099699	-0.981901
H160	H	0.183172	1.599699	-0.481901
H161	H	-0.578273	0.931235	-1.108448
H162	H	-0.078273	1.431235	-0.608448
H163	H	-0.367227	1.731188	-0.450046
H164	H	0.132773	2.231188	0.049954
H165	H	-0.374885	1.598058	-0.444680
H166	H	0.125115	2.098058	0.055320
Br167	Br	-0.606651	0.912950	-0.954413
Br168	Br	-0.106651	1.412950	-0.454413
Br169	Br	-0.659235	0.879093	-0.796201
Br170	Br	-0.159235	1.379093	-0.296201
H171	H	-1.194030	1.121674	-0.369959
H172	H	-0.694030	1.621674	0.130041
H173	H	-0.336352	1.266889	-0.471534
H174	H	0.163648	1.766889	0.028466
H175	H	-1.210365	1.231162	-0.168167
H176	H	-0.710365	1.731162	0.331833
Br177	Br	-1.025295	1.178257	-0.085741
Br178	Br	-0.525295	1.678257	0.414259
H179	H	-0.570055	1.273374	-0.308446
H180	H	-0.070055	1.773374	0.191554
H181	H	-1.283749	1.206547	-0.291783
H182	H	-0.783749	1.706547	0.208217
H183	H	-0.978695	0.917907	-0.557582
H184	H	-0.478695	1.417907	-0.057582
H185	H	-0.725850	0.772755	-0.590315
H186	H	-0.225850	1.272755	-0.090315
Br187	Br	-0.910944	0.825642	-0.672738
Br188	Br	-0.410944	1.325642	-0.172738
Br189	Br	-0.603675	0.779338	-0.453105
Br190	Br	-0.103675	1.279338	0.046895
H191	H	-0.600923	1.737672	-0.286951
H192	H	-0.100923	2.237672	0.213049
Br193	Br	-0.596172	1.427396	-0.290181
Br194	Br	-0.096172	1.927396	0.209819
