data_functionalizedCrystal
_audit_creation_method	'MofGen! by Chris Wilmer'
_symmetry_space_group_name_H-M	'P1'
_symmetry_Int_Tables_number	1
_symmetry_cell_setting	triclinic
loop_
_symmetry_equiv_pos_as_xyz
  x,y,z
_cell_length_a	23.532355
_cell_length_b	22.010155
_cell_length_c	17.019294
_cell_angle_alpha	86.125696
_cell_angle_beta	83.111927
_cell_angle_gamma	89.997398
loop_
_atom_site_label
_atom_site_type_symbol
_atom_site_fract_x
_atom_site_fract_y
_atom_site_fract_z
O1	O	0.755596	-0.055441	0.095551
O2	O	0.589774	-0.056187	0.109450
O3	O	0.677310	-0.049801	-0.012368
O4	O	0.668060	-0.061827	0.217369
O5	O	0.677294	0.051249	-0.012349
O6	O	0.589758	0.044862	0.109469
O7	O	0.755580	0.045608	0.095571
Cu8	Cu	0.672668	0.054462	0.102521
Cu9	Cu	0.672686	-0.065041	0.102499
O10	O	0.668044	0.039222	0.217389
C11	C	0.568548	-0.005647	0.109112
C12	C	0.505326	-0.005599	0.108067
C13	C	0.113282	0.049852	0.101515
C14	C	0.053880	0.049906	0.100521
O15	O	0.023152	0.096779	0.099990
N16	N	0.024178	-0.005150	0.100018
C17	C	0.053883	-0.060264	0.100501
O18	O	0.023165	-0.107088	0.099981
C19	C	0.113285	-0.060317	0.101489
C20	C	0.142983	-0.005258	0.102000
C21	C	0.142980	0.104906	0.102025
C22	C	0.202378	0.104852	0.103021
C23	C	0.232079	0.049742	0.103505
C24	C	0.202381	-0.005313	0.102995
C25	C	0.142990	-0.115430	0.101965
C26	C	0.202396	-0.115478	0.102953
C27	C	0.232094	-0.060419	0.103464
C28	C	0.291481	-0.060477	0.104475
N29	N	0.321182	-0.005421	0.104978
C30	C	0.291481	0.049689	0.104493
C31	C	-0.070865	-0.060147	0.098424
C32	C	-0.130267	-0.060095	0.097442
C33	C	-0.130266	0.050075	0.097461
C34	C	-0.070864	0.050022	0.098449
C35	C	-0.041164	-0.005091	0.098927
C36	C	0.416222	0.049570	0.106584
C37	C	0.475625	0.049510	0.107582
C38	C	0.475620	-0.060659	0.107559
C39	C	0.416222	-0.060600	0.106565
C40	C	0.386524	-0.005481	0.106075
O41	O	0.322246	-0.107325	0.105004
O42	O	0.322207	0.096506	0.105003
N43	N	0.672658	0.138514	0.102537
C44	C	0.711449	0.561122	0.048571
C45	C	0.711452	0.624730	0.048566
O46	O	0.744410	0.660027	0.002690
N47	N	0.672685	0.653723	0.102489
C48	C	0.633910	0.619105	0.156415
O49	O	0.600936	0.649607	0.202279
C50	C	0.633905	0.555499	0.156415
C51	C	0.672678	0.526509	0.102494
C52	C	0.750218	0.532132	-0.005346
C53	C	0.750216	0.468528	-0.005340
C54	C	0.711445	0.433915	0.048583
C55	C	0.672676	0.462905	0.102500
C56	C	0.595128	0.520882	0.210336
C57	C	0.595126	0.457272	0.210332
C58	C	0.633899	0.428282	0.156411
C59	C	0.633903	0.364689	0.156429
N60	N	0.672669	0.335695	0.102507
C61	C	0.711440	0.370309	0.048584
C62	C	0.633923	0.752683	0.156409
C63	C	0.633930	0.816288	0.156413
C64	C	0.711471	0.821909	0.048563
C65	C	0.711466	0.758302	0.048564
C66	C	0.672689	0.723690	0.102486
C67	C	0.711433	0.236736	0.048601
C68	C	0.711430	0.173127	0.048614
C69	C	0.633887	0.167512	0.156460
C70	C	0.633892	0.231116	0.156450
C71	C	0.672668	0.265727	0.102514
O72	O	0.600959	0.329353	0.202280
O73	O	0.744404	0.339799	0.002720
C74	C	0.776806	-0.004933	0.095908
C75	C	0.840028	-0.004985	0.096953
N76	N	0.672699	0.850908	0.102487
C77	C	0.676951	0.002261	-0.041745
C78	C	0.675899	0.006840	-0.129306
C79	C	0.675414	-0.046090	-0.170448
C80	C	0.674421	-0.041785	-0.252720
C81	C	0.673917	0.015450	-0.293849
C82	C	0.674400	0.068384	-0.252701
C83	C	0.675389	0.064079	-0.170429
C84	C	0.670927	0.031205	-0.542254
C85	C	0.669940	0.035506	-0.624532
C86	C	0.669960	-0.074664	-0.624545
C87	C	0.670953	-0.078964	-0.542273
C88	C	0.671432	-0.026030	-0.501131
C89	C	0.672904	0.019851	-0.377945
C90	C	0.672441	-0.030432	-0.417036
C91	C	0.668403	-0.012841	0.246765
C92	C	0.669456	-0.017424	0.334326
H93	H	-0.046688	0.094856	0.098866
H94	H	0.669569	-0.117760	-0.658052
H95	H	0.226575	-0.160359	0.103343
H96	H	0.675828	-0.092697	-0.136967
N97	N	0.669421	0.093979	-0.666533
N98	N	0.669847	0.141236	-0.629790
H99	H	0.669479	0.182531	-0.659453
N100	N	0.672395	0.078320	-0.419948
N101	N	0.672831	0.125578	-0.383210
H102	H	0.672469	0.166872	-0.412875
N103	N	0.671419	0.085280	-0.500249
N104	N	0.670972	0.136378	-0.536984
H105	H	0.671320	0.174571	-0.507316
H106	H	-0.154459	0.094948	0.097065
N107	N	0.555517	0.421926	0.265428
N108	N	0.556234	0.425229	0.338335
H109	H	0.528262	0.400268	0.377248
H110	H	0.226553	0.149687	0.103432
H111	H	-0.154443	-0.104930	0.097038
H112	H	0.563555	0.544477	0.254243
H113	H	0.392039	-0.105434	0.106161
H114	H	0.118804	0.149786	0.101629
N115	N	0.594286	0.260722	0.211536
N116	N	0.559672	0.229807	0.259677
H117	H	0.531694	0.250713	0.298576
N118	N	0.751049	0.272085	-0.006480
N119	N	0.786383	0.306278	0.018287
H120	H	0.814363	0.331243	-0.020611
H121	H	0.499813	-0.105528	0.107957
N122	N	0.673872	0.126849	-0.294709
N123	N	0.633191	0.141137	-0.333019
H124	H	0.632818	0.182428	-0.362688
N125	N	0.671464	-0.137425	-0.500250
N126	N	0.672349	-0.141260	-0.426795
H127	H	0.672713	-0.182548	-0.397115
N128	N	-0.040538	-0.116453	0.098916
N129	N	-0.067070	-0.165602	0.098466
H130	H	-0.045655	-0.205369	0.098812
H131	H	0.743005	0.149526	0.004705
H132	H	0.672848	-0.077033	-0.383545
H133	H	0.602321	0.139320	0.200366
H134	H	0.674029	-0.084887	-0.286215
H135	H	0.675775	0.107180	-0.136931
N136	N	0.789867	0.438928	-0.060368
N137	N	0.824505	0.469848	-0.108468
H138	H	0.852525	0.448946	-0.147316
H139	H	0.499802	0.094348	0.108001
H140	H	0.392049	0.094453	0.106192
H141	H	0.118821	-0.160265	0.101548
H142	H	0.781790	0.560309	-0.049260
H143	H	0.743038	0.734703	0.004656
H144	H	0.743040	0.850103	0.004655
H145	H	0.602363	0.839887	0.200328
N146	N	0.594308	0.717339	0.211502
N147	N	0.559701	0.743240	0.259639
H148	H	0.531722	0.718281	0.298548
