data_functionalizedCrystal
_audit_creation_method	'MofGen! by Chris Wilmer'
_symmetry_space_group_name_H-M	'P1'
_symmetry_Int_Tables_number	1
_symmetry_cell_setting	triclinic
loop_
_symmetry_equiv_pos_as_xyz
  x,y,z
_cell_length_a	16.992694
_cell_length_b	19.188924
_cell_length_c	16.053802
_cell_angle_alpha	92.554672
_cell_angle_beta	87.249047
_cell_angle_gamma	86.905094
loop_
_atom_site_label
_atom_site_type_symbol
_atom_site_fract_x
_atom_site_fract_y
_atom_site_fract_z
O1	O	1.043192	0.145268	-0.069331
O2	O	1.543192	0.645268	0.430669
O3	O	0.814914	0.143643	-0.069355
O4	O	1.314914	0.643643	0.430645
O5	O	0.935643	0.043185	-0.069333
O6	O	1.435643	0.543185	0.430667
O7	O	0.922463	0.245725	-0.069354
O8	O	1.422463	0.745725	0.430646
O9	O	0.928998	0.048691	0.069525
O10	O	1.428998	0.548691	0.569525
O11	O	0.808269	0.149148	0.069502
O12	O	1.308269	0.649148	0.569502
O13	O	1.036547	0.150773	0.069527
O14	O	1.536547	0.650773	0.569527
Zn15	Zn	0.921353	0.150834	0.091561
Zn16	Zn	1.421353	0.650834	0.591561
Zn17	Zn	0.930108	0.143581	-0.091390
Zn18	Zn	1.430108	0.643581	0.408610
O19	O	0.915818	0.251230	0.069504
O20	O	1.415818	0.751230	0.569504
C21	C	0.782386	0.144306	0.000070
C22	C	1.282386	0.644306	0.500070
C23	C	0.695364	0.138073	0.000062
C24	C	1.195364	0.638073	0.500062
C25	C	0.931894	0.019902	0.000097
C26	C	1.431894	0.519902	0.500097
C27	C	0.930616	-0.057678	0.000099
C28	C	1.430616	0.442322	0.500099
C29	C	0.644916	0.198212	0.000056
C30	C	1.144916	0.698212	0.500056
C31	C	0.563149	0.192352	0.000068
C32	C	1.063149	0.692352	0.500068
C33	C	0.531832	0.126352	0.000080
C34	C	1.031832	0.626352	0.500080
C35	C	0.582286	0.066208	0.000088
C36	C	1.082286	0.566208	0.500088
C37	C	0.664051	0.072069	0.000082
C38	C	1.164051	0.572069	0.500082
C39	C	0.288317	0.102060	0.000105
C40	C	0.788317	0.602060	0.500105
C41	C	0.206546	0.096203	0.000108
C42	C	0.706546	0.596203	0.500108
C43	C	0.187414	0.222348	0.000090
C44	C	0.687414	0.722348	0.500090
C45	C	0.269181	0.228203	0.000079
C46	C	0.769181	0.728203	0.500079
C47	C	0.319628	0.168060	0.000091
C48	C	0.819628	0.668060	0.500091
N49	N	0.448253	0.120360	0.000090
N50	N	0.948253	0.620360	0.500090
N51	N	0.403205	0.174052	0.000088
N52	N	0.903205	0.674052	0.500088
C53	C	0.933641	-0.097112	-0.075592
C54	C	1.433641	0.402888	0.424408
C55	C	0.932429	-0.170006	-0.075599
C56	C	1.432429	0.329994	0.424401
C57	C	0.928207	-0.203463	0.000090
C58	C	1.428207	0.296537	0.500090
C59	C	0.925176	-0.164019	0.075792
C60	C	1.425176	0.335981	0.575792
C61	C	0.926381	-0.091126	0.075796
C62	C	1.426381	0.408874	0.575796
N63	N	0.968231	-0.318393	0.056429
N64	N	1.468231	0.181607	0.556429
N65	N	0.967089	-0.387639	0.056420
N66	N	1.467089	0.112361	0.556420
C67	C	0.924576	-0.423085	0.000082
C68	C	1.424576	0.076915	0.500082
N69	N	0.883259	-0.386672	-0.056259
N70	N	1.383259	0.113328	0.443741
N71	N	0.884405	-0.317420	-0.056252
N72	N	1.384405	0.182580	0.443748
C73	C	0.926900	-0.282503	0.000094
C74	C	1.426900	0.217497	0.500094
C75	C	0.926286	-0.541560	-0.075622
C76	C	1.426286	-0.041560	0.424378
C77	C	0.925069	-0.614455	-0.075625
C78	C	1.425069	-0.114455	0.424375
C79	C	0.917824	-0.608467	0.075768
C80	C	1.417824	-0.108467	0.575768
C81	C	0.919034	-0.535573	0.075769
C82	C	1.419034	-0.035573	0.575769
C83	C	0.923269	-0.502124	0.000072
C84	C	1.423269	-0.002124	0.500072
C85	C	1.069075	0.150109	0.000099
C86	C	1.569075	0.650109	0.500099
C87	C	1.156097	0.156342	0.000103
C88	C	1.656097	0.656342	0.500103
C89	C	0.919567	0.274514	0.000073
C90	C	1.419567	0.774514	0.500073
C91	C	0.920846	0.352093	0.000065
C92	C	1.420846	0.852093	0.500065
N93	N	0.915383	0.155785	0.216420
N94	N	1.415383	0.655785	0.716420
N95	N	0.936084	0.138626	-0.216249
N96	N	1.436084	0.638626	0.283751
C97	C	0.966772	0.113057	0.260124
C98	C	1.466772	0.613057	0.760124
C99	C	0.962604	0.116527	0.347530
C100	C	1.462604	0.616527	0.847530
C101	C	0.907049	0.162728	0.391231
C102	C	1.407049	0.662728	0.891231
C103	C	0.855655	0.205457	0.347521
C104	C	1.355655	0.705457	0.847521
C105	C	0.859820	0.201983	0.260117
C106	C	1.359820	0.701983	0.760117
C107	C	0.888855	0.177882	0.652637
C108	C	1.388855	0.677882	1.152637
C109	C	0.884695	0.181354	0.740047
C110	C	1.384695	0.681354	1.240047
C111	C	0.991643	0.092422	0.740050
C112	C	1.491643	0.592422	1.240050
C113	C	0.995807	0.088955	0.652644
C114	C	1.495807	0.588955	1.152644
C115	C	0.944410	0.131682	0.608942
C116	C	1.444410	0.631682	1.108942
N117	N	0.902789	0.166277	0.480574
N118	N	1.402789	0.666277	0.980574
N119	N	0.948667	0.128128	0.519601
N120	N	1.448667	0.628128	1.019601
H121	H	0.670407	0.251957	0.000046
H122	H	1.170407	0.751957	0.500046
H123	H	0.937087	-0.069883	-0.137231
H124	H	1.437087	0.430117	0.362769
N125	N	0.174545	0.028785	0.000114
N126	N	0.674545	0.528785	0.500114
N127	N	0.133849	0.009123	-0.058417
N128	N	0.633849	0.509123	0.441583
H129	H	0.111247	-0.038489	-0.058416
H130	H	0.611247	0.461511	0.441584
H131	H	0.847006	0.212673	0.617062
H132	H	1.347006	0.712673	1.117062
N133	N	0.301186	0.295614	0.000066
N134	N	0.801186	0.795614	0.500066
N135	N	0.347473	0.310631	-0.058470
N136	N	0.847473	0.810631	0.441530
H137	H	0.370080	0.358240	-0.058482
H138	H	0.870080	0.858240	0.441518
H139	H	0.929730	-0.514324	-0.137259
H140	H	1.429730	-0.014324	0.362741
H141	H	0.329382	0.053086	0.000116
H142	H	0.829382	0.553086	0.500116
H143	H	0.556781	0.012469	0.000109
H144	H	1.056781	0.512469	0.500109
H145	H	0.817973	0.236776	0.224534
H146	H	1.317973	0.736776	0.724534
N147	N	0.827941	0.228538	0.784701
N148	N	1.327941	0.728538	1.284701
N149	N	0.824235	0.231632	0.862740
N150	N	1.324235	0.731632	1.362740
H151	H	0.784156	0.264955	0.894279
H152	H	1.284156	0.764955	1.394279
H153	H	0.810417	0.243073	0.383107
H154	H	1.310417	0.743073	0.883107
H155	H	0.522077	0.241324	0.000062
H156	H	1.022077	0.741324	0.500062
N157	N	0.715574	0.010631	0.000097
N158	N	1.215574	0.510631	0.500097
N159	N	0.687605	-0.048294	0.000111
N160	N	1.187605	0.451706	0.500111
H161	H	0.723991	-0.091687	0.000127
H162	H	1.223991	0.408313	0.500127
H163	H	0.146331	0.271313	0.000081
H164	H	0.646331	0.771313	0.500081
N165	N	0.935517	-0.210288	-0.152927
N166	N	1.435517	0.289712	0.347073
N167	N	0.939295	-0.180414	-0.220505
N168	N	1.439295	0.319586	0.279495
H169	H	0.941476	-0.208860	-0.275119
H170	H	1.441476	0.291140	0.224881
H171	H	0.921736	-0.191265	0.137419
H172	H	1.421736	0.308735	0.637419
N173	N	1.015070	0.072849	0.392163
N174	N	1.515070	0.572849	0.892163
N175	N	0.987999	0.030045	0.440918
N176	N	1.487999	0.530045	0.940918
H177	H	1.025048	-0.000819	0.472433
H178	H	1.525048	0.499181	0.972433
H179	H	0.923914	-0.059018	0.137435
H180	H	1.423914	0.440982	0.637435
H181	H	0.927529	-0.646562	-0.137265
H182	H	1.427529	-0.146562	0.362735
H183	H	1.041044	0.051334	0.617065
H184	H	1.541044	0.551334	1.117065
H185	H	0.914380	-0.635707	0.137396
H186	H	1.414380	-0.135707	0.637396
N187	N	1.044124	0.048775	0.784705
N188	N	1.544124	0.548775	1.284705
N189	N	1.017076	0.005983	0.833490
N190	N	1.517076	0.505983	1.333490
H191	H	1.054140	-0.024847	0.865029
H192	H	1.554140	0.475153	1.365029
N193	N	0.915945	-0.495298	0.153095
N194	N	1.415945	0.004702	0.653095
N195	N	0.912172	-0.525176	0.220671
N196	N	1.412172	-0.025176	0.720671
H197	H	0.909987	-0.496732	0.275287
H198	H	1.409987	0.003268	0.775287
H199	H	1.012014	0.075438	0.224549
H200	H	1.512014	0.575438	0.724549
