data_functionalizedCrystal
_audit_creation_method	'MofGen! by Chris Wilmer'
_symmetry_space_group_name_H-M	'P1'
_symmetry_Int_Tables_number	1
_symmetry_cell_setting	triclinic
loop_
_symmetry_equiv_pos_as_xyz
  x,y,z
_cell_length_a	14.519709
_cell_length_b	13.596369
_cell_length_c	9.065218
_cell_angle_alpha	89.986598
_cell_angle_beta	95.651951
_cell_angle_gamma	89.999709
loop_
_atom_site_label
_atom_site_type_symbol
_atom_site_fract_x
_atom_site_fract_y
_atom_site_fract_z
O1	O	1.225285	0.081680	-0.193397
O2	O	1.725285	0.581680	0.306603
O3	O	0.956974	0.081712	-0.216171
O4	O	1.456974	0.581712	0.283829
O5	O	1.096675	0.081670	0.009962
O6	O	1.596675	0.581670	0.509962
O7	O	1.085584	0.081722	-0.419530
O8	O	1.585584	0.581722	0.080470
O9	O	1.096661	-0.081913	0.009974
O10	O	1.596661	0.418087	0.509974
O11	O	0.956960	-0.081871	-0.216159
O12	O	1.456960	0.418129	0.283841
O13	O	1.225270	-0.081903	-0.193385
O14	O	1.725270	0.418097	0.306615
Zn15	Zn	1.091113	-0.107859	-0.204770
Zn16	Zn	1.591113	0.392141	0.295230
Zn17	Zn	1.091132	0.107668	-0.204786
Zn18	Zn	1.591132	0.607668	0.295214
O19	O	1.085569	-0.081861	-0.419518
O20	O	1.585569	0.418139	0.080482
C21	C	0.922600	-0.000076	-0.215104
C22	C	1.422600	0.499924	0.284896
C23	C	0.820195	-0.000065	-0.211923
C24	C	1.320195	0.499935	0.288077
C25	C	0.445214	-0.000111	-0.200214
C26	C	0.945214	0.499889	0.299786
C27	C	0.549545	-0.000098	-0.203466
C28	C	1.049545	0.499902	0.296534
C29	C	0.632701	-0.000087	-0.206068
C30	C	1.132701	0.499913	0.293932
C31	C	0.737039	-0.000076	-0.209321
C32	C	1.237039	0.499924	0.290679
N33	N	1.091107	-0.254951	-0.204758
N34	N	1.591107	0.245049	0.295242
C35	C	1.091130	-0.656242	-0.204788
C36	C	1.591130	-0.156242	0.295212
C37	C	1.091121	-0.544591	-0.204784
C38	C	1.591121	-0.044591	0.295216
C39	C	1.091119	-0.455600	-0.204774
C40	C	1.591119	0.044400	0.295226
C41	C	1.091109	-0.343942	-0.204769
C42	C	1.591109	0.156058	0.295231
C43	C	1.259645	-0.000113	-0.194452
C44	C	1.759645	0.499887	0.305548
C45	C	1.362050	-0.000118	-0.197633
C46	C	1.862050	0.499882	0.302367
C47	C	1.095602	-0.000125	0.064935
C48	C	1.595602	0.499875	0.564935
C49	C	1.092415	-0.000138	0.228718
C50	C	1.592415	0.499862	0.728718
N51	N	1.091145	0.254760	-0.204786
N52	N	1.591145	0.754760	0.295214
C53	C	1.086642	-0.000090	0.525509
C54	C	1.586642	0.499910	1.025509
C55	C	1.089830	-0.000152	0.361726
C56	C	1.589830	0.499848	0.861726
