data_functionalizedCrystal
_audit_creation_method	'MofGen! by Chris Wilmer'
_symmetry_space_group_name_H-M	'P1'
_symmetry_Int_Tables_number	1
_symmetry_cell_setting	triclinic
loop_
_symmetry_equiv_pos_as_xyz
  x,y,z
_cell_length_a	12.759400
_cell_length_b	12.759401
_cell_length_c	21.395355
_cell_angle_alpha	89.977131
_cell_angle_beta	90.013847
_cell_angle_gamma	89.989237
loop_
_atom_site_label
_atom_site_type_symbol
_atom_site_fract_x
_atom_site_fract_y
_atom_site_fract_z
Zn1	Zn	-0.418498	-1.606285	0.354254
Zn2	Zn	-0.594162	-1.606171	0.249485
Zn3	Zn	-0.418486	-1.430578	0.249493
Zn4	Zn	-0.594123	-1.430576	0.354228
O5	O	-0.506317	-1.518402	0.301865
O6	O	-0.441822	-1.753291	0.340363
O7	O	-0.570870	-1.582831	0.161808
O8	O	-0.271467	-1.453935	0.263404
O9	O	-0.570881	-1.753207	0.263390
O10	O	-0.271475	-1.583026	0.340371
O11	O	-0.441801	-1.453824	0.161814
O12	O	-0.441763	-1.283557	0.263380
O13	O	-0.570815	-1.453931	0.441909
O14	O	-0.570803	-1.283555	0.340328
O15	O	-0.441784	-1.583024	0.441928
O16	O	-0.741178	-1.582829	0.263365
O17	O	-0.741150	-1.453820	0.340319
C18	C	-0.506279	-1.245435	0.301852
C19	C	-0.506287	-1.128658	0.301861
C20	C	-0.779285	-1.518340	0.301852
C21	C	-0.896061	-1.518410	0.301867
C22	C	-0.439210	-1.073833	0.342003
C23	C	-0.439224	-0.964109	0.342005
C24	C	-0.573403	-0.964045	0.261723
C25	C	-0.573382	-1.073767	0.261718
C26	C	-0.372115	-1.128724	0.382146
C27	C	-0.305033	-1.073899	0.422291
C28	C	-0.305047	-0.964175	0.422293
C29	C	-0.372144	-0.909276	0.382151
C30	C	-0.950904	-1.585659	0.261841
C31	C	-1.060628	-1.585724	0.261861
C32	C	-1.060658	-1.451280	0.341933
C33	C	-0.950936	-1.451222	0.341917
C34	C	-0.896029	-1.652847	0.221792
C35	C	-0.950871	-1.720101	0.181762
C36	C	-1.060596	-1.720165	0.181781
C37	C	-1.115477	-1.652976	0.221830
C38	C	-0.232284	-1.518494	0.301892
C39	C	-0.115508	-1.518533	0.301903
C40	C	-0.506296	-1.518490	0.465288
C41	C	-0.506287	-1.518527	0.534930
C42	C	-0.506344	-0.792436	0.301874
C43	C	-0.506322	-0.909212	0.301869
C44	C	-0.506263	-1.518376	0.139077
C45	C	-0.505976	-1.518542	0.069436
C46	C	-0.439098	-1.585743	0.567653
C47	C	-0.439053	-1.585741	0.633089
C48	C	-0.506216	-1.518535	0.665798
C49	C	-0.573410	-1.451306	0.633066
C50	C	-0.573445	-1.451302	0.567632
C51	C	-0.600814	-1.510218	0.769468
C52	C	-0.600780	-1.510229	0.834901
C53	C	-0.506105	-1.518542	0.867619
C54	C	-0.411460	-1.526864	0.834895
C55	C	-0.411496	-1.526860	0.769461
C56	C	-0.506184	-1.518531	0.736750
C57	C	-0.438860	-1.585759	0.971295
C58	C	-0.438814	-1.585751	1.036732
C59	C	-0.573180	-1.451321	1.036708
C60	C	-0.573218	-1.451324	0.971272
C61	C	-0.506059	-1.518549	0.938570
H62	H	-0.250399	-1.118605	0.454970
H63	H	-0.384411	-1.640481	0.541031
C64	C	-0.365824	-1.658772	0.935898
C65	C	-0.306943	-1.717612	0.978565
C66	C	-0.239640	-1.784871	0.945982
H67	H	-0.405916	-1.704631	0.910383
H68	H	-0.320002	-1.618618	0.910373
H69	H	-0.352759	-1.757763	1.004080
H70	H	-0.266829	-1.671781	1.004081
H71	H	-0.193818	-1.744717	0.920457
H72	H	-0.279741	-1.830722	0.920469
H73	H	-0.199674	-1.824794	0.974927
H74	H	-0.384333	-1.640474	0.659738
H75	H	-1.105351	-1.396577	0.374539
H76	H	-0.372128	-0.819931	0.382142
H77	H	-0.334367	-1.533635	0.861532
H78	H	-0.906283	-1.396462	0.374510
C79	C	-1.234608	-1.653273	0.221859
C80	C	-1.270819	-1.753313	0.237887
C81	C	-1.380552	-1.753627	0.237910
H82	H	-1.259570	-1.603705	0.251437
H83	H	-1.259519	-1.635210	0.181415
H84	H	-1.245918	-1.771364	0.278326
H85	H	-1.245885	-1.802898	0.208314
H86	H	-1.405464	-1.735563	0.197466
H87	H	-1.405505	-1.704054	0.267489
H88	H	-1.405136	-1.821504	0.248780
H89	H	-0.628031	-0.919338	0.229042
H90	H	-0.677890	-1.503168	0.742835
H91	H	-0.628003	-1.118407	0.229032
H92	H	-0.806687	-1.652799	0.221770
C93	C	-0.308633	-1.535840	0.734045
C94	C	-0.225704	-1.543095	0.776696
C95	C	-0.130929	-1.551350	0.744094
H96	H	-0.309869	-1.596732	0.708528
H97	H	-0.299352	-1.475608	0.708521
H98	H	-0.234982	-1.603321	0.802210
H99	H	-0.224433	-1.482211	0.802214
H100	H	-0.121649	-1.491118	0.718570
H101	H	-0.132177	-1.612242	0.718579
H102	H	-0.074650	-1.556264	0.773028
H103	H	-0.677845	-1.503458	0.861540
H104	H	-0.250418	-0.919539	0.454977
H105	H	-0.906181	-1.774811	0.149159
H106	H	-0.384094	-1.640484	1.063375
H107	H	-1.105245	-1.774934	0.149192
H108	H	-0.627855	-1.396590	1.063339
C109	C	-0.646289	-1.378311	0.935852
C110	C	-0.705117	-1.319470	0.978500
C111	C	-0.772450	-1.252202	0.945894
H112	H	-0.606221	-1.332454	0.910313
H113	H	-0.692143	-1.418459	0.910350
H114	H	-0.659269	-1.279325	1.003991
H115	H	-0.745206	-1.365298	1.004041
H116	H	-0.818304	-1.292349	0.920392
H117	H	-0.732373	-1.206352	0.920356
H118	H	-0.812379	-1.212277	0.974825
C119	C	-0.646373	-1.378226	0.668462
C120	C	-0.705207	-1.319339	0.625795
C121	C	-0.772420	-1.251991	0.658378
H122	H	-0.692236	-1.418285	0.694000
H123	H	-0.606186	-1.332409	0.693964
H124	H	-0.745391	-1.365150	0.600304
H125	H	-0.659372	-1.279258	0.600256
H126	H	-0.732233	-1.206174	0.683880
H127	H	-0.818277	-1.292059	0.683915
H128	H	-0.812341	-1.212022	0.629433
C129	C	-0.371905	-1.247853	0.382213
C130	C	-0.298774	-1.284193	0.425949
C131	C	-0.298545	-1.393927	0.426022
H132	H	-0.439666	-1.272809	0.392997
H133	H	-0.353575	-1.272684	0.341811
H134	H	-0.317110	-1.259373	0.466343
H135	H	-0.231002	-1.259266	0.415176
H136	H	-0.280215	-1.418758	0.385619
H137	H	-0.366310	-1.418873	0.436804
H138	H	-0.248920	-1.418598	0.455692
C139	C	-0.646465	-1.378498	0.532018
C140	C	-0.713816	-1.437966	0.494460
C141	C	-0.781089	-1.370937	0.461636
H142	H	-0.686560	-1.338443	0.560794
H143	H	-0.606312	-1.332753	0.506441
H144	H	-0.753965	-1.483693	0.520035
H145	H	-0.673750	-1.478019	0.465672
H146	H	-0.740936	-1.325192	0.436059
H147	H	-0.821176	-1.330886	0.490417
H148	H	-0.826788	-1.411275	0.436145
