data_functionalizedCrystal
_audit_creation_method	'MofGen! by Chris Wilmer'
_symmetry_space_group_name_H-M	'P1'
_symmetry_Int_Tables_number	1
_symmetry_cell_setting	triclinic
loop_
_symmetry_equiv_pos_as_xyz
  x,y,z
_cell_length_a	17.038275
_cell_length_b	18.266242
_cell_length_c	17.019294
_cell_angle_alpha	93.885319
_cell_angle_beta	92.755467
_cell_angle_gamma	89.997581
loop_
_atom_site_label
_atom_site_type_symbol
_atom_site_fract_x
_atom_site_fract_y
_atom_site_fract_z
O1	O	-1.037226	0.071572	0.171291
O2	O	-0.809598	0.071425	0.168570
O3	O	-0.929761	0.064282	0.055524
O4	O	-0.917062	0.078715	0.284337
O5	O	-0.929741	-0.057480	0.055516
O6	O	-0.809577	-0.050337	0.168563
O7	O	-1.037206	-0.050190	0.171283
Zn8	Zn	-0.923388	-0.069596	0.169922
Zn9	Zn	-0.923415	0.090831	0.169932
O10	O	-0.917042	-0.043047	0.284330
C11	C	-0.780461	0.010391	0.166093
C12	C	-0.693675	0.009935	0.158712
N13	N	-0.923376	-0.179084	0.169915
C14	C	-0.643503	0.014210	0.226473
C15	C	-0.561958	0.013763	0.219533
C16	C	-0.530587	0.009047	0.144833
C17	C	-0.580765	0.004770	0.077067
C18	C	-0.662308	0.005212	0.084007
C19	C	-0.284850	0.007484	0.120314
C20	C	-0.203301	0.007045	0.113379
C21	C	-0.184499	0.016037	0.255846
C22	C	-0.266045	0.016482	0.262779
C23	C	-0.316216	0.012201	0.195014
C24	C	-0.447236	0.008593	0.137737
C25	C	-0.399566	0.012651	0.202110
C26	C	-0.976602	-0.220554	0.119885
C27	C	-0.976606	-0.297199	0.119882
C28	C	-0.923393	-0.332370	0.169922
C29	C	-0.870157	-0.290890	0.219955
C30	C	-0.870148	-0.214247	0.219951
N31	N	-0.913365	-0.448341	0.239050
N32	N	-0.913378	-0.521149	0.239051
C33	C	-0.923415	-0.563292	0.169935
N34	N	-0.933454	-0.529876	0.100817
N35	N	-0.933445	-0.457061	0.100816
C36	C	-0.923396	-0.415476	0.169931
C37	C	-0.976649	-0.687869	0.119898
C38	C	-0.976649	-0.764516	0.119893
C39	C	-0.870203	-0.758206	0.219973
C40	C	-0.870200	-0.681561	0.219971
C41	C	-0.923427	-0.646397	0.169934
C42	C	-0.066342	0.010849	0.173760
C43	C	-0.153129	0.011320	0.181139
C44	C	-0.929269	0.001547	0.026098
C45	C	-0.927824	-0.003978	-0.061569
N46	N	-0.923434	0.200318	0.169933
C47	C	-0.927158	0.059799	-0.102747
C48	C	-0.925795	0.054605	-0.185120
C49	C	-0.925104	-0.014365	-0.226313
C50	C	-0.925768	-0.078147	-0.185130
C51	C	-0.927125	-0.072953	-0.102758
C52	C	-0.921000	-0.033368	-0.475022
C53	C	-0.919645	-0.038557	-0.557400
C54	C	-0.919671	0.094195	-0.557384
C55	C	-0.921033	0.099383	-0.475011
C56	C	-0.921693	0.035602	-0.433834
C57	C	-0.923713	-0.019675	-0.310512
C58	C	-0.923078	0.040913	-0.349637
C59	C	-0.917534	0.019690	0.313755
C60	C	-0.918979	0.025219	0.401423
H61	H	-0.669039	0.018050	0.287302
H62	H	-0.921553	-0.085304	-0.441507
H63	H	-0.325690	0.003998	0.065134
Cl64	Cl	-0.121423	0.021415	0.341030
H65	H	-0.177762	0.003206	0.052546
Cl66	Cl	-0.803231	-0.162110	0.282852
Cl67	Cl	-0.803257	-0.335104	0.282860
Cl68	Cl	-0.725382	-0.000165	-0.001181
Cl69	Cl	-0.541327	-0.001163	-0.016843
Cl70	Cl	-0.924959	0.134786	-0.236882
Cl71	Cl	-0.918781	-0.125270	-0.609186
Cl72	Cl	-0.924889	-0.164853	-0.236916
Cl73	Cl	-0.407790	0.002668	0.043831
H74	H	-0.291581	0.020331	0.323608
Cl75	Cl	-0.918840	0.174372	-0.609153
H76	H	-0.923153	-0.075832	-0.344061
Cl77	Cl	-0.927961	-0.153133	-0.050992
Cl78	Cl	-0.803288	-0.629422	0.282873
H79	H	-0.521111	0.017244	0.274711
Cl80	Cl	-1.043559	-0.643663	0.056990
Cl81	Cl	-0.439005	0.018577	0.296015
Cl82	Cl	-1.043510	-0.176349	0.056979
H83	H	-1.019951	-0.330970	0.079140
Cl84	Cl	-0.803300	-0.802416	0.282875
Cl85	Cl	-1.043562	-0.816654	0.056988
Cl86	Cl	-0.928032	0.146509	-0.050969
H87	H	-0.921597	0.155547	-0.441476
H88	H	-0.923635	0.097068	-0.316093
