data_functionalizedCrystal
_audit_creation_method	'MofGen! by Chris Wilmer'
_symmetry_space_group_name_H-M	'P1'
_symmetry_Int_Tables_number	1
_symmetry_cell_setting	triclinic
loop_
_symmetry_equiv_pos_as_xyz
  x,y,z
_cell_length_a	13.897449
_cell_length_b	13.897448
_cell_length_c	19.805399
_cell_angle_alpha	89.974981
_cell_angle_beta	89.979867
_cell_angle_gamma	90.018519
loop_
_atom_site_label
_atom_site_type_symbol
_atom_site_fract_x
_atom_site_fract_y
_atom_site_fract_z
Zn1	Zn	1.474672	-0.384016	-0.382742
Zn2	Zn	1.474575	-0.545322	-0.269559
Zn3	Zn	1.313370	-0.384045	-0.269565
Zn4	Zn	1.313342	-0.545273	-0.382704
O5	O	1.393990	-0.464664	-0.326143
O6	O	1.609640	-0.405422	-0.367741
O7	O	1.453162	-0.523961	-0.174843
O8	O	1.334819	-0.249059	-0.284597
O9	O	1.609569	-0.523933	-0.284586
O10	O	1.453327	-0.249038	-0.367747
O11	O	1.334725	-0.405471	-0.174848
O12	O	1.178385	-0.405424	-0.284561
O13	O	1.334772	-0.523849	-0.477426
O14	O	1.178364	-0.523877	-0.367683
O15	O	1.453300	-0.405374	-0.477453
O16	O	1.453135	-0.680297	-0.284549
O17	O	1.334678	-0.680261	-0.367677
C18	C	1.143375	-0.464649	-0.326119
C19	C	1.036161	-0.464666	-0.326125
C20	C	1.393919	-0.715278	-0.326123
C21	C	1.393977	-0.822492	-0.326137
C22	C	0.949092	-0.464669	-0.326136
C23	C	0.839859	-0.464676	-0.326157
C24	C	1.394079	-1.018787	-0.326180
C25	C	1.394020	-0.909555	-0.326158
C26	C	1.645583	-0.464680	-0.326167
C27	C	1.752797	-0.464686	-0.326177
C28	C	1.394044	-0.464603	-0.502685
C29	C	1.394067	-0.464577	-0.577917
C30	C	1.394087	-0.213071	-0.326177
C31	C	1.394128	-0.105857	-0.326192
C32	C	1.455786	-0.402884	-0.613277
C33	C	1.455796	-0.402856	-0.683965
C34	C	1.394091	-0.464527	-0.719293
C35	C	1.332365	-0.526223	-0.683928
C36	C	1.332351	-0.526245	-0.613241
C37	C	1.332420	-0.526133	-0.969002
C38	C	1.332440	-0.526108	-1.039694
C39	C	1.455864	-0.402744	-1.039726
C40	C	1.455850	-0.402766	-0.969039
C41	C	1.394121	-0.464458	-0.933680
C42	C	1.394110	-0.464486	-0.857032
C43	C	1.394106	-0.464504	-0.795940
C44	C	1.393991	-0.464655	-0.150287
C45	C	1.394155	-0.464409	-0.075055
H46	H	1.506036	-0.352668	-0.584518
H47	H	1.506100	-0.352551	-0.940279
C48	C	1.523693	-0.334991	-0.722858
N49	N	1.574836	-0.283871	-0.752151
H50	H	1.282084	-0.576472	-0.584452
C51	C	1.523756	-0.334869	-1.078627
N52	N	1.574890	-0.283747	-1.107925
C53	C	1.264480	-0.594052	-0.722791
N54	N	1.213347	-0.645141	-0.752062
C55	C	1.264551	-0.593947	-1.078553
N56	N	1.213418	-0.645040	-1.107821
C57	C	1.264513	-0.593992	-0.930117
N58	N	1.213361	-0.645106	-0.900826
