data_functionalizedCrystal
_audit_creation_method	'MofGen! by Chris Wilmer'
_symmetry_space_group_name_H-M	'P1'
_symmetry_Int_Tables_number	1
_symmetry_cell_setting	triclinic
loop_
_symmetry_equiv_pos_as_xyz
  x,y,z
_cell_length_a	16.992695
_cell_length_b	16.992695
_cell_length_c	16.053789
_cell_angle_alpha	87.278479
_cell_angle_beta	92.719492
_cell_angle_gamma	89.331777
loop_
_atom_site_label
_atom_site_type_symbol
_atom_site_fract_x
_atom_site_fract_y
_atom_site_fract_z
O1	O	1.053995	-0.170061	0.069398
O2	O	0.825595	-0.168230	0.069407
O3	O	0.938879	-0.054945	0.069396
O4	O	0.940711	-0.283346	0.069409
O5	O	0.932577	-0.048650	-0.069464
O6	O	0.819293	-0.161934	-0.069453
O7	O	1.047693	-0.163765	-0.069462
Zn8	Zn	0.932492	-0.161850	-0.091504
Zn9	Zn	0.940796	-0.170145	0.091449
O10	O	0.934409	-0.277050	-0.069451
C11	C	0.793084	-0.162726	-0.000022
C12	C	0.705600	-0.155698	-0.000019
C13	C	0.933372	-0.022437	-0.000034
C14	C	0.926344	0.065048	-0.000033
N15	N	0.926830	-0.156190	-0.216365
C16	C	1.080204	-0.169269	-0.000031
C17	C	1.167689	-0.176298	-0.000029
C18	C	1.213680	-0.108480	-0.000030
C19	C	1.295880	-0.115088	-0.000033
C20	C	1.332089	-0.189516	-0.000028
C21	C	1.286092	-0.257339	-0.000030
C22	C	1.203892	-0.250729	-0.000033
C23	C	1.577403	-0.216911	-0.000023
C24	C	1.659609	-0.223516	-0.000018
C25	C	1.669392	-0.081264	-0.000022
C26	C	1.587190	-0.074661	-0.000020
C27	C	1.541200	-0.142484	-0.000026
N28	N	1.416111	-0.196273	-0.000028
N29	N	1.457179	-0.135726	-0.000032
C30	C	0.939916	-0.309558	-0.000019
C31	C	0.946945	-0.397043	-0.000014
C32	C	0.994161	0.111039	-0.000037
C33	C	0.987553	0.193239	-0.000029
C34	C	0.913125	0.229447	-0.000023
C35	C	0.845303	0.183450	-0.000017
C36	C	0.851912	0.101251	-0.000019
C37	C	0.885732	0.474761	-0.000010
C38	C	0.879127	0.556966	-0.000011
C39	C	1.021378	0.566750	-0.000021
C40	C	1.027981	0.484549	-0.000028
C41	C	0.960158	0.438558	-0.000018
N42	N	0.906369	0.313469	-0.000017
N43	N	0.966916	0.354538	-0.000017
C44	C	0.975584	-0.204974	-0.260054
C45	C	0.971634	-0.201010	-0.347462
C46	C	0.918926	-0.148264	-0.391178
C47	C	0.870170	-0.099474	-0.347482
C48	C	0.874125	-0.103435	-0.260076
C49	C	0.901663	-0.130971	-0.652589
C50	C	0.897710	-0.127015	-0.740000
C51	C	0.999175	-0.228550	-0.739974
C52	C	1.003121	-0.232510	-0.652567
C53	C	0.954369	-0.183717	-0.608879
N54	N	0.914885	-0.144213	-0.480522
N55	N	0.958414	-0.187765	-0.519536
N56	N	0.946463	-0.175800	0.216310
H57	H	1.184205	-0.047873	-0.000028
C58	C	1.699436	-0.305396	-0.000014
N59	N	1.729434	-0.367065	-0.000009
C60	C	1.076038	0.071218	-0.000043
N61	N	1.137710	0.041227	-0.000044
C62	C	0.763431	0.223282	-0.000018
N63	N	0.701763	0.253283	-0.000024
H64	H	0.827258	-0.056524	-0.383082
C65	C	1.062158	0.243826	-0.000046
N66	N	1.118354	0.281929	-0.000063
C67	C	1.061109	-0.290528	-0.604486
N68	N	1.104787	-0.334229	-0.568271
C69	C	1.346467	-0.040483	-0.000033
N70	N	1.384568	0.015714	-0.000034
H71	H	0.796688	0.063805	-0.000016
C72	C	1.526824	-0.291519	-0.000041
N73	N	1.488725	-0.347717	-0.000059
C74	C	0.820490	-0.049770	-0.212018
N75	N	0.780092	-0.009346	-0.175822
H76	H	1.557716	-0.014054	-0.000024
H77	H	1.018500	-0.247930	-0.224467
H78	H	1.166447	-0.305954	-0.000035
H79	H	1.706845	-0.026047	-0.000019
H80	H	1.076595	0.604203	-0.000028
H81	H	1.088587	0.455074	-0.000033
C82	C	1.052805	-0.282212	-0.788038
N83	N	1.093204	-0.322630	-0.824240
H84	H	1.315579	-0.317940	-0.000031
H85	H	0.818516	0.586444	-0.000020
H86	H	0.830505	0.437325	-0.000002
H87	H	0.854785	-0.084063	-0.775592
H88	H	1.011335	-0.240734	-0.383030
H89	H	0.861965	-0.091240	-0.617028
