data_functionalizedCrystal
_audit_creation_method	'MofGen! by Chris Wilmer'
_symmetry_space_group_name_H-M	'P1'
_symmetry_Int_Tables_number	1
_symmetry_cell_setting	triclinic
loop_
_symmetry_equiv_pos_as_xyz
  x,y,z
_cell_length_a	6.817900
_cell_length_b	7.190334
_cell_length_c	12.850268
_cell_angle_alpha	94.837905
_cell_angle_beta	91.777450
_cell_angle_gamma	119.388224
loop_
_atom_site_label
_atom_site_type_symbol
_atom_site_fract_x
_atom_site_fract_y
_atom_site_fract_z
V1	V	4.161862	0.655565	0.141790
O2	O	4.210399	0.652908	-0.008515
O3	O	4.051292	0.641635	0.282781
O4	O	4.200288	0.945790	0.138862
O5	O	4.060371	0.346648	0.136401
V6	V	4.642295	0.619764	0.123900
O7	O	4.429899	0.734099	0.181033
O8	O	4.824456	0.541231	0.084657
O9	O	4.529659	0.633694	-0.017092
O10	O	4.711156	0.622421	0.274204
O11	O	4.861183	0.928681	0.129289
O12	O	4.380663	0.329539	0.126827
C13	C	3.878378	0.628866	0.317177
C14	C	3.869681	0.619238	0.434601
C15	C	4.068431	1.016833	0.133587
C16	C	4.182831	1.258489	0.132097
C17	C	4.365945	0.646470	-0.051481
C18	C	4.353513	0.656147	-0.168902
V19	V	4.129477	0.623033	0.625558
O20	O	4.172336	0.630803	0.778482
O21	O	4.036798	0.625562	0.478741
O22	O	3.887090	0.321340	0.622627
O23	O	4.323081	0.937130	0.633600
V24	V	4.668794	0.716152	0.672685
O25	O	4.337981	0.571292	0.599974
O26	O	4.934202	0.819838	0.724762
O27	O	4.526508	0.687869	0.806367
O28	O	4.749515	0.721928	0.526669
O29	O	4.598771	0.415601	0.671551
O30	O	4.676216	0.992091	0.662481
C31	C	4.530194	1.043428	0.647162
C32	C	4.622938	1.282689	0.644485
