data_functionalizedCrystal
_audit_creation_method	'MofGen! by Chris Wilmer'
_symmetry_space_group_name_H-M	'P1'
_symmetry_Int_Tables_number	1
_symmetry_cell_setting	triclinic
loop_
_symmetry_equiv_pos_as_xyz
  x,y,z
_cell_length_a	15.995300
_cell_length_b	15.995343
_cell_length_c	10.268362
_cell_angle_alpha	90.006069
_cell_angle_beta	90.006198
_cell_angle_gamma	83.480495
loop_
_atom_site_label
_atom_site_type_symbol
_atom_site_fract_x
_atom_site_fract_y
_atom_site_fract_z
O1	O	1.111009	0.107722	0.108362
O2	O	0.867228	0.121094	0.108356
O3	O	0.995786	-0.007481	0.108335
O4	O	0.982451	0.236297	0.108383
O5	O	0.995774	-0.007477	-0.108266
O6	O	0.867216	0.121098	-0.108245
O7	O	1.110997	0.107727	-0.108239
Cu8	Cu	0.989105	0.114413	-0.128019
Cu9	Cu	0.989120	0.114407	0.128136
O10	O	0.982439	0.236302	-0.108218
C11	C	0.836026	0.120551	0.000054
C12	C	0.743074	0.118916	0.000051
C13	C	0.995230	-0.038674	0.000031
C14	C	0.993580	-0.131624	0.000021
C15	C	0.572891	0.115896	0.000060
C16	C	0.525422	0.207444	0.000075
C17	C	0.428735	0.205774	0.000570
C18	C	0.405334	0.112924	0.000068
C19	C	0.446475	0.067501	0.123505
C20	C	0.543109	0.069818	0.123605
C21	C	0.543374	0.068468	-0.122719
C22	C	0.446429	0.068476	-0.124338
C23	C	0.310639	0.111240	0.000077
C24	C	0.667586	0.117578	0.000060
C25	C	0.990587	-0.301810	0.000050
C26	C	0.897788	-0.325139	0.000051
C27	C	0.896042	-0.421817	0.000557
C28	C	0.987638	-0.469370	0.000078
C29	C	1.034306	-0.440282	0.123520
C30	C	1.035407	-0.343489	0.123609
C31	C	1.036751	-0.343589	-0.122715
C32	C	1.033326	-0.440083	-0.124323
C33	C	0.985977	-0.564068	0.000098
C34	C	0.992251	-0.207113	0.000039
C35	C	1.142199	0.108270	0.000065
C36	C	1.235151	0.109905	0.000077
C37	C	0.982995	0.267494	0.000089
C38	C	0.984645	0.360445	0.000108
N39	N	0.989101	0.114416	-0.308185
C40	C	0.989107	0.114416	-0.426027
C41	C	0.989118	0.114409	-0.573865
N42	N	0.989131	0.114398	0.308302
H43	H	0.400265	0.241465	-0.087894
Br44	Br	1.150598	-0.320253	-0.124703
Br45	Br	1.144752	-0.494968	-0.137313
Br46	Br	0.556813	0.269024	-0.146800
Br47	Br	0.558107	0.267853	0.147410
H48	H	1.103460	-0.328928	0.128872
Br49	Br	0.382319	0.264998	0.148934
Br50	Br	0.838815	-0.276816	0.147368
Br51	Br	0.835151	-0.453516	-0.146897
Br52	Br	0.399262	0.119472	0.277217
Br53	Br	1.146668	-0.493374	0.130605
H54	H	0.561432	0.102550	0.216239
H55	H	0.575384	0.002593	0.128867
Br56	Br	0.837819	-0.278449	-0.147471
H57	H	1.002295	-0.460363	0.215737
H58	H	0.432378	-0.000723	0.127735
H59	H	1.007468	-0.315317	-0.216313
Br60	Br	0.976683	-0.471007	-0.276543
Br61	Br	0.596362	-0.044025	-0.124741
H62	H	0.563868	0.098610	-0.216308
H63	H	0.419083	0.101646	-0.215658
H64	H	0.431093	0.000782	-0.132170
Br65	Br	0.835460	-0.452538	0.148914
H66	H	1.003475	-0.316694	0.216234
