data_functionalizedCrystal
_audit_creation_method	'MofGen! by Chris Wilmer'
_symmetry_space_group_name_H-M	'P1'
_symmetry_Int_Tables_number	1
_symmetry_cell_setting	triclinic
loop_
_symmetry_equiv_pos_as_xyz
  x,y,z
_cell_length_a	10.654550
_cell_length_b	14.421503
_cell_length_c	10.654551
_cell_angle_alpha	89.992837
_cell_angle_beta	84.485132
_cell_angle_gamma	90.011231
loop_
_atom_site_label
_atom_site_type_symbol
_atom_site_fract_x
_atom_site_fract_y
_atom_site_fract_z
O1	O	1.667849	0.077182	0.176381
O2	O	1.302371	0.077166	0.193187
O3	O	1.493513	0.077175	0.002045
O4	O	1.476708	0.077173	0.367524
O5	O	1.493481	-0.077049	0.002074
O6	O	1.302339	-0.077057	0.193216
O7	O	1.667818	-0.077042	0.176410
Cu8	Cu	1.485076	-0.091131	0.184815
Cu9	Cu	1.485113	0.091256	0.184782
O10	O	1.476676	-0.077050	0.367552
C11	C	1.255557	0.000053	0.191968
C12	C	1.116114	0.000047	0.188276
N13	N	1.485058	-0.219413	0.184838
C14	C	1.036629	0.000060	0.300817
C15	C	0.905608	0.000076	0.297341
C16	C	0.933570	0.000070	0.068771
C17	C	1.064589	0.000047	0.072249
C18	C	1.088154	0.000060	0.416844
C19	C	1.008667	0.000074	0.529395
C20	C	0.877647	0.000090	0.525918
C21	C	0.826112	0.000092	0.409891
C22	C	1.396658	-0.469070	0.273182
C23	C	1.510355	-0.530868	0.298547
C24	C	1.485089	-0.408574	0.184809
C25	C	1.371421	-0.530870	0.159473
C26	C	1.485108	-0.591295	0.184783
C27	C	1.598844	-0.469011	0.210230
C28	C	1.459834	-0.469007	0.071107
C29	C	1.573613	-0.530778	0.096424
C30	C	1.485076	-0.303313	0.184827
C31	C	1.485134	-0.696554	0.184764
C32	C	1.714632	0.000074	0.177629
C33	C	1.854075	0.000086	0.181321
C34	C	1.492263	0.000065	-0.044739
C35	C	1.488570	0.000071	-0.184182
N36	N	1.485140	0.219537	0.184749
C37	C	1.486855	0.084137	-0.249709
C38	C	1.483375	0.084132	-0.380730
C39	C	1.483330	-0.084011	-0.380684
C40	C	1.486801	-0.084005	-0.249665
C41	C	1.488624	0.168213	-0.184226
C42	C	1.486911	0.252285	-0.249754
C43	C	1.483430	0.252281	-0.380774
C44	C	1.481664	0.168204	-0.446267
C45	C	1.477926	0.000061	0.414336
C46	C	1.481619	0.000061	0.553779
H47	H	1.194836	0.000051	0.419687
N48	N	1.481589	0.342954	-0.451450
H49	H	1.479118	0.330197	-0.544387
H50	H	1.404490	0.379670	-0.419052
H51	H	1.648486	-0.557702	0.021674
N52	N	1.488698	0.342964	-0.179111
H53	H	1.491131	0.330213	-0.086163
H54	H	1.565784	0.379731	-0.211485
N55	N	1.726216	-0.433186	0.238764
H56	H	1.793072	-0.456158	0.172427
H57	H	1.725298	-0.363158	0.238661
N58	N	1.481447	-0.174689	-0.451317
H59	H	1.402295	-0.178445	-0.496181
H60	H	1.557782	-0.178372	-0.515107
N61	N	1.150330	0.000029	-0.049131
H62	H	1.097811	0.000039	-0.123161
H63	H	1.205336	0.057190	-0.052677
N64	N	1.064242	0.000061	0.654533
H65	H	1.159303	0.000050	0.639661
H66	H	1.035264	0.057237	0.703818
N67	N	1.477892	0.168196	-0.587579
H68	H	1.477067	0.234210	-0.619156
H69	H	1.554768	0.135148	-0.628543
H70	H	0.812931	0.000092	0.617562
H71	H	0.719425	0.000090	0.407069
N72	N	1.297691	-0.433182	0.372244
H73	H	1.316945	-0.455689	0.458093
H74	H	1.297876	-0.363157	0.370911
H75	H	1.531734	-0.558040	0.394691
H76	H	1.438420	-0.441814	-0.025007
H77	H	1.275287	-0.558044	0.138057
N78	N	1.492363	0.168212	-0.042911
H79	H	1.570904	0.135202	-0.020850
H80	H	1.493170	0.234250	-0.011458
H81	H	1.488171	-0.152459	-0.196308
H82	H	0.891600	0.000087	-0.025693
