data_functionalizedCrystal
_audit_creation_method	'MofGen! by Chris Wilmer'
_symmetry_space_group_name_H-M	'P1'
_symmetry_Int_Tables_number	1
_symmetry_cell_setting	triclinic
loop_
_symmetry_equiv_pos_as_xyz
  x,y,z
_cell_length_a	29.839131
_cell_length_b	17.077404
_cell_length_c	17.077396
_cell_angle_alpha	90.019501
_cell_angle_beta	89.968087
_cell_angle_gamma	89.958355
loop_
_atom_site_label
_atom_site_type_symbol
_atom_site_fract_x
_atom_site_fract_y
_atom_site_fract_z
Zn1	Zn	-0.178851	-1.199954	-0.443824
Zn2	Zn	0.321149	-0.699954	0.056176
Zn3	Zn	-0.253981	-1.199818	-0.312550
Zn4	Zn	0.246019	-0.699818	0.187450
Zn5	Zn	-0.178866	-1.068685	-0.312572
Zn6	Zn	0.321134	-0.568685	0.187428
Zn7	Zn	-0.253955	-1.068611	-0.443774
Zn8	Zn	0.246045	-0.568611	0.056226
O9	O	-0.216413	-1.134267	-0.378180
O10	O	0.283587	-0.634267	0.121820
O11	O	-0.188821	-1.309782	-0.426422
O12	O	0.311179	-0.809782	0.073578
O13	O	-0.244035	-1.182398	-0.202706
O14	O	0.255965	-0.682398	0.297294
O15	O	-0.115997	-1.086186	-0.330013
O16	O	0.384003	-0.586186	0.169987
O17	O	-0.244020	-1.309683	-0.329976
O18	O	0.255980	-0.809683	0.170024
O19	O	-0.115986	-1.182628	-0.426443
O20	O	0.384014	-0.682628	0.073557
O21	O	-0.188848	-1.086055	-0.202722
O22	O	0.311152	-0.586055	0.297278
O23	O	-0.188822	-0.958829	-0.329964
O24	O	0.311178	-0.458829	0.170036
O25	O	-0.243974	-1.086059	-0.553627
O26	O	0.256026	-0.586059	-0.053627
O27	O	-0.243989	-0.958774	-0.426358
O28	O	0.256011	-0.458774	0.073642
O29	O	-0.188796	-1.182556	-0.553664
O30	O	0.311204	-0.682556	-0.053664
O31	O	-0.316845	-1.182325	-0.329927
O32	O	0.183155	-0.682325	0.170073
O33	O	-0.316825	-1.085928	-0.426336
O34	O	0.183175	-0.585928	0.073664
C35	C	-0.216405	-0.930319	-0.378158
C36	C	0.283595	-0.430319	0.121842
C37	C	-0.216412	-0.843069	-0.378168
C38	C	0.283588	-0.343069	0.121832
C39	C	-0.333136	-1.134125	-0.378141
C40	C	0.166864	-0.634125	0.121859
C41	C	-0.383070	-1.134136	-0.378151
C42	C	0.116930	-0.634136	0.121849
C43	C	-0.216380	-1.134314	-0.582924
C44	C	0.283620	-0.634314	-0.082924
C45	C	-0.216366	-1.134335	-0.670174
C46	C	0.283634	-0.634335	-0.170174
C47	C	-0.692711	-1.184552	-0.328053
C48	C	-0.192711	-0.684552	0.171947
C49	C	-0.880384	-1.184649	-0.328083
C50	C	-0.380384	-0.684649	0.171917
O51	O	-0.904647	-1.227402	-0.285459
O52	O	-0.404647	-0.727402	0.214541
N53	N	-0.903855	-1.134430	-0.378239
N54	N	-0.403855	-0.634430	0.121761
C55	C	-0.880405	-1.084186	-0.428394
C56	C	-0.380405	-0.584186	0.071606
O57	O	-0.904675	-1.041479	-0.471061
O58	O	-0.404675	-0.541479	0.028939
C59	C	-0.692733	-1.084094	-0.428367
C60	C	-0.192733	-0.584094	0.071633
C61	C	-0.669264	-1.134311	-0.378203
C62	C	-0.169264	-0.634311	0.121797
C63	C	-0.669242	-1.234766	-0.277893
C64	C	-0.169242	-0.734766	0.222107
C65	C	-0.622327	-1.234738	-0.277883
C66	C	-0.122327	-0.734738	0.222117
C67	C	-0.598880	-1.184497	-0.328033
C68	C	-0.098880	-0.684497	0.171967
C69	C	-0.622349	-1.134283	-0.378193
C70	C	-0.122349	-0.634283	0.121807
C71	C	-0.669284	-1.033855	-0.478526
C72	C	-0.169284	-0.533855	0.021474
C73	C	-0.622363	-1.033837	-0.478516
C74	C	-0.122363	-0.533837	0.021484
C75	C	-0.598894	-1.084055	-0.428352
C76	C	-0.098894	-0.584055	0.071648
C77	C	-0.551987	-1.084014	-0.428332
C78	C	-0.051987	-0.584014	0.071668
N79	N	-0.528516	-1.134233	-0.378177
N80	N	-0.028516	-0.634233	0.121823
C81	C	-0.551962	-1.184475	-0.328027
C82	C	-0.051962	-0.684475	0.171973
C83	C	-0.978936	-1.084237	-0.428404
C84	C	-0.478936	-0.584237	0.071596
C85	C	-1.025854	-1.084259	-0.428410
C86	C	-0.525854	-0.584259	0.071590
C87	C	-1.025829	-1.184723	-0.328100
C88	C	-0.525829	-0.684723	0.171900
C89	C	-0.978911	-1.184697	-0.328090
C90	C	-0.478911	-0.684697	0.171910
C91	C	-0.955465	-1.134457	-0.378248
C92	C	-0.455465	-0.634457	0.121752
C93	C	-0.453437	-1.184412	-0.328009
C94	C	0.046563	-0.684412	0.171991
C95	C	-0.406517	-1.184378	-0.328001
C96	C	0.093483	-0.684378	0.171999
C97	C	-0.406545	-1.083917	-0.428314
C98	C	0.093455	-0.583917	0.071686
C99	C	-0.453461	-1.083948	-0.428319
C100	C	0.046539	-0.583948	0.071681
C101	C	-0.476905	-1.134202	-0.378164
C102	C	0.023095	-0.634202	0.121836
O103	O	-0.527695	-1.041290	-0.470941
O104	O	-0.027695	-0.541290	0.029059
O105	O	-0.527685	-1.227188	-0.285378
O106	O	-0.027685	-0.727188	0.214622
C107	C	-0.739627	-1.184580	-0.328063
C108	C	-0.239627	-0.684580	0.171937
C109	C	-0.763095	-1.134366	-0.378223
C110	C	-0.263095	-0.634366	0.121777
C111	C	-0.739649	-1.084125	-0.428373
C112	C	-0.239649	-0.584125	0.071627
C113	C	-0.810013	-1.134388	-0.378229
C114	C	-0.310013	-0.634388	0.121771
C115	C	-0.833460	-1.184630	-0.328079
C116	C	-0.333460	-0.684630	0.171921
C117	C	-0.809989	-1.234849	-0.277923
C118	C	-0.309989	-0.734849	0.222077
C119	C	-0.763073	-1.234822	-0.277913
C120	C	-0.263073	-0.734822	0.222087
C121	C	-0.763120	-1.033905	-0.478529
C122	C	-0.263120	-0.533905	0.021471
C123	C	-0.810035	-1.033937	-0.478534
C124	C	-0.310035	-0.533937	0.021466
C125	C	-0.833482	-1.084178	-0.428384
C126	C	-0.333482	-0.584178	0.071616
C127	C	-0.099235	-1.134431	-0.378236
C128	C	0.400765	-0.634431	0.121764
C129	C	-0.049300	-1.134500	-0.378260
C130	C	0.450700	-0.634500	0.121740
C131	C	-0.216422	-1.339011	-0.378202
C132	C	0.283578	-0.839011	0.121798
C133	C	-0.216425	-1.426261	-0.378212
C134	C	0.283575	-0.926261	0.121788
C135	C	-0.245181	-0.802071	-0.428279
C136	C	0.254819	-0.302071	0.071721
C137	C	-0.245182	-0.720091	-0.428292
C138	C	0.254818	-0.220091	0.071708
C139	C	-0.216416	-0.679110	-0.378188
C140	C	0.283584	-0.179110	0.121812
C141	C	-0.187644	-0.720114	-0.328074
C142	C	0.312356	-0.220114	0.171926
C143	C	-0.187641	-0.802093	-0.328066
C144	C	0.312359	-0.302093	0.171934
C145	C	-0.187653	-0.549244	-0.328093
C146	C	0.312347	-0.049244	0.171907
C147	C	-0.187657	-0.467259	-0.328100
C148	C	0.312343	0.032741	0.171900
C149	C	-0.245194	-0.467242	-0.428319
C150	C	0.254806	0.032758	0.071681
C151	C	-0.245191	-0.549221	-0.428311
C152	C	0.254809	-0.049221	0.071689
C153	C	-0.216420	-0.590219	-0.378196
C154	C	0.283580	-0.090219	0.121804
C155	C	-0.187632	-1.184582	-0.711185
C156	C	0.312368	-0.684582	-0.211185
C157	C	-0.187617	-1.184592	-0.793165
C158	C	0.312383	-0.684592	-0.293165
C159	C	-0.216339	-1.134357	-0.834134
C160	C	0.283661	-0.634357	-0.334134
C161	C	-0.245074	-1.084104	-0.793117
C162	C	0.254926	-0.584104	-0.293117
C163	C	-0.245086	-1.084091	-0.711138
C164	C	0.254914	-0.584091	-0.211138
C165	C	-0.245047	-1.084135	-0.963987
C166	C	0.254953	-0.584135	-0.463987
C167	C	-0.245035	-1.084149	-1.045972
C168	C	0.254965	-0.584149	-0.545972
C169	C	-0.187578	-1.184636	-1.046014
C170	C	0.312422	-0.684636	-0.546014
C171	C	-0.187590	-1.184624	-0.964035
C172	C	0.312410	-0.684624	-0.464035
C173	C	-0.216326	-1.134371	-0.923025
C174	C	0.283674	-0.634371	-0.423025
C175	C	-0.216414	-1.134265	-0.174232
C176	C	0.283586	-0.634265	0.325768
C177	C	-0.216301	-1.134397	-0.086983
C178	C	0.283699	-0.634397	0.413017
H179	H	-0.387410	-1.225271	-0.287148
H180	H	0.112590	-0.725271	0.212852
N181	N	-0.274394	-1.032806	-0.922081
N182	N	0.225606	-0.532806	-0.422081
N183	N	-0.258593	-0.982803	-0.876332
N184	N	0.241407	-0.482803	-0.376332
H185	H	-0.279320	-0.946555	-0.846733
H186	H	0.220680	-0.446555	-0.346733
N187	N	-0.274410	-1.032774	-0.834951
N188	N	0.225590	-0.532774	-0.334951
N189	N	-0.300058	-0.987905	-0.798321
N190	N	0.199942	-0.487905	-0.298321
H191	H	-0.320775	-0.951647	-0.827864
H192	H	0.179225	-0.451647	-0.327864
N193	N	-0.274351	-1.032803	-1.087827
N194	N	0.225649	-0.532803	-0.587827
N195	N	-0.271344	-0.960376	-1.078662
N196	N	0.228656	-0.460376	-0.578662
H197	H	-0.292042	-0.924104	-1.108228
H198	H	0.207958	-0.424104	-0.608228
N199	N	-0.158274	-1.235932	-0.835059
N200	N	0.341726	-0.735932	-0.335059
N201	N	-0.174079	-1.285934	-0.880805
N202	N	0.325921	-0.785934	-0.380805
H203	H	-0.153355	-1.322195	-0.910394
H204	H	0.346645	-0.822195	-0.410394
N205	N	-0.274559	-0.843928	-0.479471
N206	N	0.225441	-0.343928	0.020529
N207	N	-0.258787	-0.889711	-0.529539
N208	N	0.241213	-0.389711	-0.029539
H209	H	-0.279535	-0.919271	-0.565697
H210	H	0.220465	-0.419271	-0.065697
H211	H	-0.603222	-1.275632	-0.237037
H212	H	-0.103222	-0.775632	0.262963
N213	N	-0.274569	-0.678225	-0.479489
N214	N	0.225431	-0.178225	0.020511
N215	N	-0.300251	-0.714824	-0.524219
N216	N	0.199749	-0.214824	-0.024219
H217	H	-0.321007	-0.685257	-0.560382
H218	H	0.178993	-0.185257	-0.060382
H219	H	-0.688384	-0.992958	-0.519372
H220	H	-0.188384	-0.492958	-0.019372
N221	N	-0.274581	-0.591071	-0.479487
N222	N	0.225419	-0.091071	0.020513
N223	N	-0.300267	-0.554459	-0.524227
N224	N	0.199733	-0.054459	-0.024227
H225	H	-0.321024	-0.584015	-0.560373
H226	H	0.178976	-0.084015	-0.060373
N227	N	-0.274431	-1.032754	-0.669243
N228	N	0.225569	-0.532754	-0.169243
N229	N	-0.271443	-0.960327	-0.678388
N230	N	0.228557	-0.460327	-0.178388
H231	H	-0.292167	-0.924065	-0.648800
H232	H	0.207833	-0.424065	-0.148800
N233	N	-0.477373	-1.235748	-0.276771
N234	N	0.022627	-0.735748	0.223229
N235	N	-0.456406	-1.280572	-0.231990
N236	N	0.043594	-0.780572	0.268010
H237	H	-0.473310	-1.316825	-0.195799
H238	H	0.026690	-0.816825	0.304201
H239	H	-0.959849	-1.043323	-0.469250
H240	H	-0.459849	-0.543323	0.030750
H241	H	-0.603275	-0.992926	-0.519363
H242	H	-0.103275	-0.492926	-0.019363
H243	H	-0.829139	-0.993037	-0.519383
H244	H	-0.329139	-0.493037	-0.019383
N245	N	-0.477429	-1.032635	-0.479551
N246	N	0.022571	-0.532635	0.020449
N247	N	-0.456487	-0.987775	-0.524318
N248	N	0.043513	-0.487775	-0.024318
H249	H	-0.473411	-0.951537	-0.560505
H250	H	0.026589	-0.451537	-0.060505
H251	H	-0.688328	-1.275683	-0.237055
H252	H	-0.188328	-0.775683	0.262945
N253	N	-0.382589	-1.032613	-0.479551
N254	N	0.117411	-0.532613	0.020449
N255	N	-0.387794	-1.037791	-0.551990
N256	N	0.112206	-0.537791	-0.051990
H257	H	-0.370873	-1.001562	-0.588181
H258	H	0.129127	-0.501562	-0.088181
H259	H	-0.268619	-0.433857	-0.469126
H260	H	0.231381	0.066143	0.030874
H261	H	-0.164227	-0.433895	-0.287311
H262	H	0.335773	0.066105	0.212689
H263	H	-0.959805	-1.225588	-0.287243
H264	H	-0.459805	-0.725588	0.212757
H265	H	-0.164245	-1.225492	-0.677834
H266	H	0.335755	-0.725492	-0.177834
N267	N	-0.739102	-1.286124	-0.226681
N268	N	-0.239102	-0.786124	0.273319
N269	N	-0.712881	-1.336119	-0.254331
N270	N	-0.212881	-0.836119	0.245669
H271	H	-0.695952	-1.372353	-0.218145
H272	H	-0.195952	-0.872353	0.281855
H273	H	-0.164179	-1.225552	-1.079409
H274	H	0.335821	-0.725552	-0.579409
H275	H	-1.044928	-1.225632	-0.287266
H276	H	-0.544928	-0.725632	0.212734
H277	H	-0.164213	-0.835472	-0.287265
H278	H	0.335787	-0.335472	0.212735
H279	H	-1.044958	-1.043360	-0.469252
H280	H	-0.544958	-0.543360	0.030748
N281	N	-0.158256	-0.591112	-0.276907
N282	N	0.341744	-0.091112	0.223093
N283	N	-0.132573	-0.554515	-0.232177
N284	N	0.367427	-0.054515	0.267823
H285	H	-0.111811	-0.584083	-0.196026
H286	H	0.388189	-0.084083	0.303974
H287	H	-0.829087	-1.275756	-0.237087
H288	H	-0.329087	-0.775756	0.262913
N289	N	-0.739180	-0.982580	-0.529766
N290	N	-0.239180	-0.482580	-0.029766
N291	N	-0.760147	-0.937750	-0.574542
N292	N	-0.260147	-0.437750	-0.074542
H293	H	-0.743242	-0.901495	-0.610730
H294	H	-0.243242	-0.401495	-0.110730
N295	N	-0.158254	-0.678255	-0.276906
N296	N	0.341746	-0.178255	0.223094
N297	N	-0.129648	-0.632556	-0.304623
N298	N	0.370352	-0.132556	0.195377
H299	H	-0.108890	-0.602994	-0.268484
H300	H	0.391110	-0.102994	0.231516
H301	H	-0.164205	-1.225534	-0.930681
H302	H	0.335795	-0.725534	-0.430681
