data_functionalizedCrystal
_audit_creation_method	'MofGen! by Chris Wilmer'
_symmetry_space_group_name_H-M	'P1'
_symmetry_Int_Tables_number	1
_symmetry_cell_setting	triclinic
loop_
_symmetry_equiv_pos_as_xyz
  x,y,z
_cell_length_a	18.050591
_cell_length_b	18.050589
_cell_length_c	10.686551
_cell_angle_alpha	85.590054
_cell_angle_beta	85.596624
_cell_angle_gamma	90.016540
loop_
_atom_site_label
_atom_site_type_symbol
_atom_site_fract_x
_atom_site_fract_y
_atom_site_fract_z
Zn1	Zn	1.167629	-0.263461	-0.713689
Zn2	Zn	1.158007	-0.397202	-0.502667
Zn3	Zn	1.033899	-0.273022	-0.502673
Zn4	Zn	1.043408	-0.387610	-0.713592
O5	O	1.100736	-0.330324	-0.608155
O6	O	1.270279	-0.281216	-0.685735
O7	O	1.133537	-0.388745	-0.326083
O8	O	1.051686	-0.167827	-0.530708
O9	O	1.263209	-0.379475	-0.530697
O10	O	1.149936	-0.160803	-0.685741
O11	O	1.042356	-0.297510	-0.326088
O12	O	0.931234	-0.288208	-0.530614
O13	O	1.067893	-0.363126	-0.890190
O14	O	0.938221	-0.372396	-0.685576
O15	O	1.159157	-0.271914	-0.890261
O16	O	1.142758	-0.499856	-0.530603
O17	O	1.058563	-0.492809	-0.685570
C18	C	1.100670	-0.523278	-0.608103
C19	C	1.100711	-0.605823	-0.608123
C20	C	0.907780	-0.330299	-0.608086
C21	C	0.825235	-0.330305	-0.608086
C22	C	1.146632	-0.858448	-0.523992
C23	C	1.077471	-0.810515	-0.492986
C24	C	1.100809	-0.902939	-0.608220
C25	C	1.169914	-0.803795	-0.639118
C26	C	1.100764	-0.756956	-0.608169
C27	C	1.031610	-0.856096	-0.577155
C28	C	1.124101	-0.849378	-0.723340
C29	C	1.054896	-0.801466	-0.692378
C30	C	1.100835	-0.987036	-0.608246
C31	C	1.100730	-0.672861	-0.608143
C32	C	0.621972	-0.284458	-0.524012
C33	C	0.571156	-0.353600	-0.492955
C34	C	0.674107	-0.330325	-0.608143
C35	C	0.577841	-0.261206	-0.639196
C36	C	0.528124	-0.330339	-0.608195
C37	C	0.624375	-0.399506	-0.577026
C38	C	0.631067	-0.307064	-0.723320
C39	C	0.580276	-0.376251	-0.692308
C40	C	0.758204	-0.330317	-0.608109
C41	C	0.444029	-0.330355	-0.608229
C42	C	1.294445	-0.330349	-0.608226
C43	C	1.376992	-0.330359	-0.608256
C44	C	1.115659	-0.315383	-0.937292
C45	C	1.122019	-0.309017	-1.077550
C46	C	1.100824	-0.136614	-0.608236
C47	C	1.100861	-0.054067	-0.608270
C48	C	1.085913	-0.345152	-0.280299
C49	C	1.079697	-0.351310	-0.140042
H50	H	1.185347	-0.883346	-0.452730
Br51	Br	1.190533	-0.240550	-1.167219
H52	H	1.057747	-0.793269	-0.395609
Br53	Br	0.934135	-0.894154	-0.533372
Br54	Br	0.990201	-0.760197	-0.811069
Br55	Br	1.011199	-0.419786	-1.050377
H56	H	0.640401	-0.245718	-0.452788
H57	H	1.143844	-0.866640	-0.820690
H58	H	0.545013	-0.373285	-0.395574
Br59	Br	1.267349	-0.765581	-0.682708
H60	H	0.644769	-0.457987	-0.550676
Br61	Br	0.549780	-0.440987	-0.810933
Br62	Br	0.674666	-0.274225	-0.885587
Br63	Br	0.543682	-0.163775	-0.682931
