data_functionalizedCrystal
_audit_creation_method	'MofGen! by Chris Wilmer'
_symmetry_space_group_name_H-M	'P1'
_symmetry_Int_Tables_number	1
_symmetry_cell_setting	triclinic
loop_
_symmetry_equiv_pos_as_xyz
  x,y,z
_cell_length_a	21.295419
_cell_length_b	25.639234
_cell_length_c	21.295417
_cell_angle_alpha	90.027023
_cell_angle_beta	89.954692
_cell_angle_gamma	89.979419
loop_
_atom_site_label
_atom_site_type_symbol
_atom_site_fract_x
_atom_site_fract_y
_atom_site_fract_z
Zn1	Zn	0.962331	-0.295612	0.250399
Zn2	Zn	0.962241	-0.208173	0.355661
Zn3	Zn	0.857061	-0.208190	0.250436
Zn4	Zn	0.857024	-0.295577	0.355661
O5	O	0.909664	-0.251888	0.303039
O6	O	1.050408	-0.284021	0.264346
O7	O	0.948266	-0.135010	0.341718
O8	O	0.871079	-0.219808	0.162342
O9	O	1.050342	-0.219780	0.341681
O10	O	0.948420	-0.284037	0.162314
O11	O	0.870992	-0.135022	0.264410
O12	O	0.768967	-0.219774	0.264411
O13	O	0.871015	-0.368747	0.341683
O14	O	0.768939	-0.283977	0.341719
O15	O	0.948384	-0.368773	0.264347
O16	O	0.948230	-0.219746	0.443750
O17	O	0.870927	-0.283961	0.443751
C18	C	0.746113	-0.251873	0.303070
C19	C	0.676144	-0.251880	0.303098
C20	C	0.643335	-0.285382	0.262895
C21	C	0.577592	-0.285384	0.262878
C22	C	0.544662	-0.251889	0.303075
C23	C	0.577479	-0.218381	0.343281
C24	C	0.643221	-0.218376	0.343292
N25	N	0.441387	-0.247803	0.358153
N26	N	0.378935	-0.247810	0.358140
C27	C	0.346587	-0.251901	0.303043
N28	N	0.379050	-0.255993	0.247956
N29	N	0.441507	-0.255988	0.247970
C30	C	0.473377	-0.251890	0.303067
C31	C	0.242492	-0.285407	0.262818
C32	C	0.176748	-0.285405	0.262800
C33	C	0.176637	-0.218405	0.343208
C34	C	0.242379	-0.218404	0.343221
C35	C	0.275303	-0.251907	0.303026
C36	C	0.909705	-0.388261	0.303011
C37	C	0.909722	-0.446375	0.302998
C38	C	0.869503	-0.806750	0.262669
C39	C	0.869507	-0.861354	0.262658
O40	O	0.835279	-0.889601	0.228438
N41	N	0.909743	-0.888658	0.302900
C42	C	0.949975	-0.861354	0.343160
O43	O	0.984199	-0.889592	0.377388
C44	C	0.949968	-0.806751	0.343174
C45	C	0.909733	-0.779450	0.302925
C46	C	0.829271	-0.779450	0.222424
C47	C	0.829269	-0.724849	0.222435
C48	C	0.869498	-0.697549	0.262691
C49	C	0.909731	-0.724850	0.302936
C50	C	0.990196	-0.779448	0.383437
C51	C	0.990185	-0.724841	0.383448
C52	C	0.949950	-0.697540	0.343199
C53	C	0.949958	-0.642949	0.343203
N54	N	0.909721	-0.615646	0.302961
C55	C	0.869491	-0.642946	0.262705
C56	C	0.949986	-0.976025	0.343128
C57	C	0.949997	-1.030627	0.343111
C58	C	0.869527	-1.030624	0.262610
C59	C	0.869520	-0.976020	0.262624
C60	C	0.909749	-0.948721	0.302886
C61	C	0.869490	-0.528281	0.262730
C62	C	0.869493	-0.473675	0.262743
C63	C	0.949959	-0.473683	0.343246
C64	C	0.949959	-0.528284	0.343232
C65	C	0.909719	-0.555581	0.302971
O66	O	0.984166	-0.614668	0.377407
O67	O	0.835267	-0.614701	0.228488
C68	C	1.073854	-0.251903	0.303010
C69	C	1.143823	-0.251910	0.302997
C70	C	0.909582	-0.251859	0.466591
C71	C	0.909604	-0.251864	0.536559
C72	C	0.909660	-0.116046	0.303023
C73	C	0.909764	-0.057932	0.302857
C74	C	0.909764	-0.251929	0.138849
C75	C	0.909807	-0.251946	0.068881
C76	C	0.949891	-0.218462	0.569405
C77	C	0.949921	-0.218474	0.635147
C78	C	0.909652	-0.251882	0.668042
C79	C	0.869362	-0.285291	0.635188
C80	C	0.869338	-0.285282	0.569447
N81	N	0.854584	-0.255863	0.771322
N82	N	0.854609	-0.255869	0.833773
C83	C	0.909722	-0.251912	0.866116
N84	N	0.964811	-0.247940	0.833648
N85	N	0.964786	-0.247932	0.771191
C86	C	0.909673	-0.251896	0.739327
C87	C	0.950045	-0.218521	0.970247
C88	C	0.950075	-0.218536	1.035991
C89	C	0.869511	-0.285351	1.036031
C90	C	0.869486	-0.285338	0.970288
C91	C	0.909752	-0.251920	0.937401
H92	H	0.550663	-0.191109	0.376009
H93	H	0.670137	-0.312662	0.230165
O94	O	0.141129	-0.182272	0.386560
H95	H	0.153706	-0.191157	0.435983
O96	O	0.785884	-0.808890	0.178994
H97	H	0.736470	-0.798394	0.189792
H98	H	0.836729	-0.451449	0.229964
O99	O	0.826096	-0.557719	0.219302
H100	H	0.798128	-0.529555	0.191318
H101	H	0.550873	-0.312664	0.230137
O102	O	0.785876	-0.695406	0.179021
H103	H	0.757904	-0.723570	0.151032
O104	O	0.826124	-0.946575	0.219214
H105	H	0.798153	-0.974738	0.191223
H106	H	0.150036	-0.312685	0.230058
O107	O	0.826133	-1.060073	0.219189
H108	H	0.832898	-1.102628	0.225948
O109	O	0.826079	-0.321386	1.071504
H110	H	0.798061	-0.344613	1.037616
H111	H	0.982730	-0.191273	0.661895
O112	O	0.678615	-0.182241	0.386656
H113	H	0.644674	-0.158950	0.414607
O114	O	1.033582	-0.808879	0.426867
H115	H	1.082994	-0.798408	0.416081
H116	H	0.836678	-0.312536	0.943544
H117	H	0.982767	-1.052851	0.375879
O118	O	0.278010	-0.321533	0.219460
H119	H	0.244148	-0.344823	0.191492
O120	O	0.825927	-0.321321	0.670669
H121	H	0.836694	-0.362363	0.658016
O122	O	0.993355	-0.557735	0.386639
H123	H	1.021326	-0.529576	0.414635
O124	O	0.993392	-0.946581	0.386542
H125	H	1.021375	-0.974744	0.414513
O126	O	0.277772	-0.182269	0.386584
H127	H	0.265117	-0.191162	0.436003
O128	O	1.033582	-0.695396	0.426868
H129	H	1.061562	-0.723557	0.454845
H130	H	0.982715	-0.451446	0.376020
O131	O	0.993327	-0.182427	0.533931
H132	H	1.021352	-0.159206	0.567820
H133	H	0.836531	-0.312483	0.542704
O134	O	0.993480	-0.182487	0.934768
H135	H	1.021508	-0.159268	0.968655
H136	H	0.982886	-0.191337	1.062733
