data_functionalizedCrystal
_audit_creation_method	'MofGen! by Chris Wilmer'
_symmetry_space_group_name_H-M	'P1'
_symmetry_Int_Tables_number	1
_symmetry_cell_setting	triclinic
loop_
_symmetry_equiv_pos_as_xyz
  x,y,z
_cell_length_a	14.519709
_cell_length_b	10.723024
_cell_length_c	9.198806
_cell_angle_alpha	89.996352
_cell_angle_beta	89.995869
_cell_angle_gamma	84.074007
loop_
_atom_site_label
_atom_site_type_symbol
_atom_site_fract_x
_atom_site_fract_y
_atom_site_fract_z
O1	O	0.129347	1.655978	-0.120886
O2	O	0.141728	1.292710	-0.120892
O3	O	0.001349	1.483976	-0.120876
O4	O	0.269727	1.464713	-0.120902
O5	O	0.001348	1.483960	0.120909
O6	O	0.141728	1.292695	0.120893
O7	O	0.129347	1.655963	0.120899
Cu8	Cu	0.135538	1.474328	0.142973
Cu9	Cu	0.135538	1.474345	-0.142966
O10	O	0.269727	1.464697	0.120883
C11	C	0.140827	1.246211	0.000000
C12	C	0.138132	1.107682	-0.000001
C13	C	-0.033016	1.483070	0.000017
C14	C	-0.135411	1.480380	0.000018
C15	C	0.216681	1.031965	-0.000010
C16	C	0.213896	0.888788	-0.000012
C17	C	-0.510357	1.470476	-0.000020
C18	C	-0.406035	1.473227	-0.000009
C19	C	-0.322887	1.475428	0.000000
C20	C	-0.218559	1.478179	0.000008
C21	C	0.304091	1.465603	-0.000013
C22	C	0.406486	1.468293	-0.000024
C23	C	0.130248	1.702462	0.000003
C24	C	0.132944	1.840991	-0.000005
N25	N	0.135537	1.474324	0.344087
N26	N	0.135532	1.474359	-0.344080
C27	C	0.076335	1.554633	0.416290
C28	C	0.076332	1.554653	0.583703
H29	H	0.285991	1.073139	-0.000009
H30	H	0.025651	1.623414	0.645795
H31	H	0.186222	1.405604	0.593837
H32	H	0.186216	1.405578	0.406209
N33	N	0.298250	0.807161	-0.000030
N34	N	0.295870	0.690969	-0.000033
H35	H	0.355447	0.633315	-0.000045
N36	N	0.051177	1.056045	0.000040
N37	N	0.031109	0.986647	0.101967
H38	H	-0.030306	0.950181	0.102000
N39	N	0.012737	1.640787	0.338281
N40	N	-0.044578	1.600646	0.253340
H41	H	-0.089499	1.661467	0.198214
H42	H	0.065696	0.906045	-0.000006
