data_functionalizedCrystal
_audit_creation_method	'MofGen! by Chris Wilmer'
_symmetry_space_group_name_H-M	'P1'
_symmetry_Int_Tables_number	1
_symmetry_cell_setting	triclinic
loop_
_symmetry_equiv_pos_as_xyz
  x,y,z
_cell_length_a	14.853558
_cell_length_b	15.995362
_cell_length_c	14.472310
_cell_angle_alpha	90.004319
_cell_angle_beta	90.012505
_cell_angle_gamma	96.435743
loop_
_atom_site_label
_atom_site_type_symbol
_atom_site_fract_x
_atom_site_fract_y
_atom_site_fract_z
O1	O	1.196240	-0.109274	0.076818
O2	O	0.933762	-0.122304	0.076821
O3	O	1.072170	0.006090	0.076826
O4	O	1.057832	-0.237668	0.076813
O5	O	1.072134	0.006082	-0.076856
O6	O	0.933726	-0.122312	-0.076861
O7	O	1.196204	-0.109282	-0.076864
Cu8	Cu	1.064962	-0.115797	-0.090895
Cu9	Cu	1.065004	-0.115789	0.090852
O10	O	1.057796	-0.237676	-0.076869
C11	C	0.900156	-0.121719	-0.000019
C12	C	0.800074	-0.119954	-0.000017
C13	C	0.753075	-0.119122	0.083758
C14	C	0.753034	-0.119120	-0.083792
C15	C	0.659003	-0.117458	-0.083793
C16	C	0.612003	-0.116626	-0.000018
C17	C	0.659035	-0.117457	0.083759
C18	C	0.611965	-0.116618	-0.167569
C19	C	0.517928	-0.114954	-0.167574
C20	C	0.470926	-0.114128	-0.083797
C21	C	0.517963	-0.114960	-0.000017
C22	C	0.470963	-0.114128	0.083759
C23	C	0.517998	-0.114966	0.167540
C24	C	0.612033	-0.116631	0.167536
C25	C	0.376891	-0.112464	-0.083792
C26	C	0.376924	-0.112463	0.083760
C27	C	1.071558	0.037281	-0.000011
C28	C	1.069775	0.130233	-0.000000
C29	C	1.063371	0.467986	0.000017
C30	C	0.964798	0.420664	0.000361
C31	C	0.966581	0.323972	0.000008
C32	C	1.066547	0.300423	0.000009
C33	C	1.115146	0.341441	-0.087747
C34	C	1.112665	0.438079	-0.087815
C35	C	1.114742	0.438443	0.086950
C36	C	1.114724	0.341498	0.088104
C37	C	1.068348	0.205724	0.000001
C38	C	1.061574	0.562685	0.000019
C39	C	1.229810	-0.109867	-0.000021
C40	C	1.329892	-0.111632	-0.000017
N41	N	1.064939	-0.115803	-0.218725
C42	C	1.058397	0.731132	-0.000014
C43	C	1.060144	0.638175	0.000027
C44	C	1.065003	-0.115785	-0.592817
C45	C	0.990695	-0.184255	-0.553654
C46	C	0.990866	-0.184506	-0.446565
C47	C	1.064970	-0.115794	-0.407226
C48	C	1.159039	-0.134982	-0.446065
C49	C	1.158621	-0.135469	-0.553187
C50	C	1.046082	-0.027925	-0.553341
C51	C	1.043924	-0.028508	-0.446214
C52	C	1.064958	-0.115797	-0.302338
C53	C	1.065022	-0.115784	-0.697705
N54	N	1.065034	-0.115776	0.218683
H55	H	0.928378	0.295596	0.062916
H56	H	1.079192	0.314293	0.153024
H57	H	0.791308	-0.119791	-0.151998
N58	N	1.006698	-0.270943	-0.412712
H59	H	1.067024	-0.285474	-0.436280
H60	H	1.006785	-0.271517	-0.342929
N61	N	1.211013	0.480399	0.087743
H62	H	1.221340	0.518361	0.032095
H63	H	1.221793	0.514832	0.146003
H64	H	1.188588	0.327232	-0.091010
H65	H	1.094531	0.024840	-0.419437
N66	N	0.915609	0.287104	-0.083467
H67	H	0.850819	0.300528	-0.080768
H68	H	0.945372	0.312033	-0.141479
H69	H	1.002611	-0.249086	-0.580567
N70	N	1.180706	-0.220346	-0.586284
H71	H	1.190619	-0.257093	-0.531288
H72	H	1.128752	-0.247809	-0.624616
N73	N	1.072072	0.465701	0.175061
H74	H	1.050311	0.414511	0.213181
H75	H	1.118348	0.503389	0.211443
N76	N	0.912615	0.445271	0.083719
H77	H	0.952363	0.487336	0.122072
H78	H	0.857185	0.471271	0.062701
H79	H	0.974727	-0.013949	-0.420829
N80	N	0.662654	-0.117515	-0.257922
H81	H	0.729360	-0.118704	-0.245207
H82	H	0.638895	-0.169088	-0.294509
H83	H	1.100271	0.023030	-0.578665
N84	N	0.467200	-0.114051	-0.257931
H85	H	0.511324	-0.114248	-0.311000
H86	H	0.421303	-0.165524	-0.261864
N87	N	0.803796	-0.120029	0.174119
H88	H	0.870499	-0.121212	0.161412
H89	H	0.794678	-0.067873	0.210708
H90	H	0.338599	-0.111789	-0.152006
N91	N	1.234038	-0.071922	-0.587534
H92	H	1.224231	-0.014123	-0.564206
H93	H	1.294040	-0.087387	-0.564081
N94	N	0.326232	-0.111570	0.174120
H95	H	0.370299	-0.112354	0.227189
H96	H	0.294531	-0.059013	0.177778
N97	N	1.065671	0.462368	-0.174706
H98	H	1.010303	0.490363	-0.157697
H99	H	1.108525	0.502660	-0.211997
H100	H	0.479720	-0.114285	0.235750
N101	N	1.211292	0.321048	0.095131
H102	H	1.225243	0.284707	0.041065
H103	H	1.253814	0.374938	0.094382
N104	N	1.208522	0.480694	-0.093091
H105	H	1.252201	0.436678	-0.095367
H106	H	1.215722	0.516568	-0.150611
N107	N	0.898249	-0.169345	-0.411775
H108	H	0.856942	-0.162440	-0.466026
H109	H	0.872346	-0.218854	-0.373117
H110	H	1.215655	-0.086443	-0.420580
H111	H	1.081363	0.313094	-0.153058
N112	N	1.181655	-0.218894	-0.410522
H113	H	1.133420	-0.264672	-0.431059
H114	H	1.242322	-0.230602	-0.435907
N115	N	0.662762	-0.117530	0.257893
H116	H	0.729464	-0.118705	0.245178
H117	H	0.653640	-0.065373	0.294480
N118	N	0.957179	-0.003527	-0.589161
H119	H	0.928267	-0.049186	-0.631348
H120	H	0.915422	0.003935	-0.535448
H121	H	0.920546	-0.172994	-0.579440
N122	N	0.912812	0.446664	-0.082532
H123	H	0.952836	0.488964	-0.120306
H124	H	0.893147	0.395575	-0.121653
