data_functionalizedCrystal
_audit_creation_method	'MofGen! by Chris Wilmer'
_symmetry_space_group_name_H-M	'P1'
_symmetry_Int_Tables_number	1
_symmetry_cell_setting	triclinic
loop_
_symmetry_equiv_pos_as_xyz
  x,y,z
_cell_length_a	12.759401
_cell_length_b	25.639240
_cell_length_c	12.759393
_cell_angle_alpha	90.031900
_cell_angle_beta	89.981827
_cell_angle_gamma	89.962417
loop_
_atom_site_label
_atom_site_type_symbol
_atom_site_fract_x
_atom_site_fract_y
_atom_site_fract_z
Zn1	Zn	1.606086	0.208122	-0.593973
Zn2	Zn	1.605912	0.295567	-0.418289
Zn3	Zn	1.430389	0.208148	-0.418312
Zn4	Zn	1.430307	0.295528	-0.593931
O5	O	1.518174	0.251841	-0.506126
O6	O	1.753084	0.219727	-0.570676
O7	O	1.582590	0.283998	-0.271271
O8	O	1.453803	0.134979	-0.441641
O9	O	1.752956	0.283973	-0.441602
O10	O	1.582887	0.134960	-0.570698
O11	O	1.453634	0.219772	-0.271288
O12	O	1.283357	0.219734	-0.441600
O13	O	1.453663	0.283907	-0.740958
O14	O	1.283297	0.283932	-0.570627
O15	O	1.582807	0.219689	-0.740988
O16	O	1.582510	0.368727	-0.441562
O17	O	1.453494	0.368699	-0.570605
C18	C	1.245206	0.251832	-0.506112
C19	C	1.128430	0.251840	-0.506131
C20	C	1.518003	0.387684	-0.506099
C21	C	1.518026	0.445798	-0.506122
C22	C	1.073564	0.285322	-0.573204
C23	C	0.963840	0.285328	-0.573215
C24	C	0.963857	0.218371	-0.439072
C25	C	1.073579	0.218362	-0.439067
C26	C	1.128414	0.318800	-0.640268
C27	C	1.073548	0.352285	-0.707346
C28	C	0.963824	0.352291	-0.707357
C29	C	0.908966	0.318813	-0.640291
C30	C	1.585298	0.696930	-0.573384
C31	C	1.585276	0.642326	-0.573378
O32	O	1.642398	0.614037	-0.630537
N33	N	1.518109	0.615072	-0.506131
C34	C	1.450966	0.642425	-0.438880
O35	O	1.393834	0.614229	-0.381680
C36	C	1.450994	0.697028	-0.438882
C37	C	1.518158	0.724280	-0.506140
C38	C	1.652457	0.724181	-0.640636
C39	C	1.652477	0.778782	-0.640644
C40	C	1.585337	0.806131	-0.573400
C41	C	1.518177	0.778880	-0.506148
C42	C	1.383857	0.724381	-0.371626
C43	C	1.383890	0.778988	-0.371633
C44	C	1.451055	0.806239	-0.438891
C45	C	1.451057	0.860830	-0.438911
N46	N	1.518225	0.888084	-0.506158
C47	C	1.585364	0.860735	-0.573402
C48	C	1.450915	0.527754	-0.438879
C49	C	1.450882	0.473152	-0.438881
C50	C	1.585194	0.473057	-0.573378
C51	C	1.585221	0.527660	-0.573380
C52	C	1.518082	0.555008	-0.506125
C53	C	1.585400	0.975400	-0.573414
C54	C	1.585411	1.030005	-0.573419
C55	C	1.451103	1.030096	-0.438918
C56	C	1.451088	0.975495	-0.438917
C57	C	1.518245	0.948148	-0.506168
O58	O	1.393968	0.889153	-0.381778
O59	O	1.642497	0.888937	-0.630582
C60	C	1.792207	0.251852	-0.506141
C61	C	1.908983	0.251856	-0.506148
C62	C	1.518246	0.251791	-0.780160
C63	C	1.518276	0.251769	-0.896937
C64	C	1.518326	1.115468	-0.506171
C65	C	1.518271	1.057354	-0.506174
C66	C	1.451085	0.285174	-1.061509
C67	C	1.451053	0.285193	-0.951785
C68	C	1.585529	0.218320	-0.951818
C69	C	1.585556	0.218299	-1.061540
C70	C	1.383864	0.318604	-1.116352
C71	C	1.316610	0.352052	-1.061478
C72	C	1.316577	0.352071	-0.951754
C73	C	1.383799	0.318642	-0.896904
C74	C	1.518162	0.251854	-0.233159
C75	C	1.518335	0.251729	-0.116383
H76	H	1.217757	0.318799	-0.640264
F77	F	0.792186	0.318818	-0.640315
H78	H	1.640312	0.191062	-1.106219
F79	F	0.905470	0.182745	-0.367699
H80	H	1.383765	0.318659	-0.807559
F81	F	1.131933	0.387909	-0.778723
H82	H	1.261872	0.379265	-1.106145
F83	F	1.656656	0.443940	-0.644941
H84	H	1.118252	0.191094	-0.384458
H85	H	1.640102	1.052191	-0.628195
H86	H	1.707177	0.800965	-0.695405
F87	F	0.905434	0.387924	-0.778753
F88	F	1.656876	0.946303	-0.644990
F89	F	1.312364	0.695390	-0.300045
H90	H	1.640259	0.191104	-0.907150
F91	F	1.723924	0.695082	-0.712213
F92	F	1.656708	0.556658	-0.644963
H93	H	1.396179	0.450968	-0.384125
H94	H	1.396233	0.550018	-0.384115
H95	H	1.329218	0.801252	-0.316863
F96	F	1.379601	0.946491	-0.367338
H97	H	1.396437	1.052373	-0.384172
H98	H	1.383885	0.318593	-1.205695
H99	H	1.261807	0.379302	-0.907079
