data_functionalizedCrystal
_audit_creation_method	'MofGen! by Chris Wilmer'
_symmetry_space_group_name_H-M	'P1'
_symmetry_Int_Tables_number	1
_symmetry_cell_setting	triclinic
loop_
_symmetry_equiv_pos_as_xyz
  x,y,z
_cell_length_a	6.817900
_cell_length_b	11.102188
_cell_length_c	15.301140
_cell_angle_alpha	93.595362
_cell_angle_beta	104.177739
_cell_angle_gamma	108.603875
loop_
_atom_site_label
_atom_site_type_symbol
_atom_site_fract_x
_atom_site_fract_y
_atom_site_fract_z
V1	V	-4.060634	-0.176699	-0.281145
O2	O	-4.020645	0.007606	-0.275793
O3	O	-4.037750	-0.349513	-0.279222
O4	O	-4.015222	-0.174369	-0.403762
O5	O	-4.043329	-0.168750	-0.150391
V6	V	-4.540568	-0.154608	-0.265506
O7	O	-4.329764	-0.225157	-0.315451
O8	O	-4.721636	-0.106150	-0.231200
O9	O	-4.340246	0.018206	-0.267429
O10	O	-4.697954	-0.338913	-0.270858
O11	O	-4.675270	-0.162557	-0.396260
O12	O	-4.362774	-0.156938	-0.142889
C13	C	-3.888861	-0.391629	-0.274787
C14	C	-3.951457	-0.532910	-0.274032
C15	C	-3.935642	-0.580882	-0.191103
C16	C	-3.994481	-0.713631	-0.190397
C17	C	-4.084940	-0.750426	-0.355558
C18	C	-4.026116	-0.617679	-0.356263
C19	C	-3.860123	-0.168215	-0.433649
C20	C	-3.904446	-0.167453	-0.533889
C21	C	-4.108449	-0.173459	-0.585576
C22	C	-4.150083	-0.172743	-0.679761
C23	C	-3.987715	-0.166030	-0.722260
C24	C	-3.783693	-0.160021	-0.670566
C25	C	-3.742057	-0.160727	-0.576381
C26	C	-3.870488	-0.158551	-0.866878
C27	C	-3.912127	-0.157846	-0.961070
C28	C	-4.278514	-0.170566	-0.970259
C29	C	-4.236878	-0.171273	-0.876073
C30	C	-4.032859	-0.165265	-0.824386
C31	C	-4.152478	0.060315	-0.271861
C32	C	-4.069120	0.201594	-0.272622
C33	C	-4.181215	-0.163097	-0.112997
C34	C	-4.116130	-0.163852	-0.012756
H35	H	-3.981601	-0.752682	-0.122868
F36	F	-4.164392	-0.840654	-0.443068
F37	F	-3.653342	-0.152143	-0.811869
F38	F	-4.409695	-0.178429	-0.830847
H39	H	-4.240678	-0.178934	-0.550982
F40	F	-3.856193	-0.490668	-0.103586
H41	H	-4.039010	-0.578623	-0.423799
H42	H	-4.316195	-0.177626	-0.721840
F43	F	-4.495647	-0.176959	-1.025269
F44	F	-3.739313	-0.150696	-1.006297
H45	H	-3.651489	-0.154548	-0.705175
F46	F	-3.524926	-0.154326	-0.521371
