data_functionalizedCrystal
_audit_creation_method	'MofGen! by Chris Wilmer'
_symmetry_space_group_name_H-M	'P1'
_symmetry_Int_Tables_number	1
_symmetry_cell_setting	triclinic
loop_
_symmetry_equiv_pos_as_xyz
  x,y,z
_cell_length_a	14.908571
_cell_length_b	29.839131
_cell_length_c	14.908775
_cell_angle_alpha	93.314376
_cell_angle_beta	90.190472
_cell_angle_gamma	86.737317
loop_
_atom_site_label
_atom_site_type_symbol
_atom_site_fract_x
_atom_site_fract_y
_atom_site_fract_z
Zn1	Zn	1.345038	-0.200767	0.587547
Zn2	Zn	1.845038	0.299233	1.087547
Zn3	Zn	1.353589	-0.280442	0.437169
Zn4	Zn	1.853589	0.219558	0.937169
Zn5	Zn	1.203383	-0.201251	0.428543
Zn6	Zn	1.703383	0.298749	0.928543
Zn7	Zn	1.194596	-0.271790	0.578824
Zn8	Zn	1.694596	0.228210	1.078824
O9	O	1.274152	-0.238562	0.508021
O10	O	1.774152	0.261438	1.008021
O11	O	1.471995	-0.214754	0.574859
O12	O	1.971995	0.285246	1.074859
O13	O	1.340920	-0.273761	0.310198
O14	O	1.840920	0.226239	0.810198
O15	O	1.222273	-0.138321	0.449675
O16	O	1.722273	0.361679	0.949675
O17	O	1.478277	-0.273292	0.464378
O18	O	1.978277	0.226708	0.964378
O19	O	1.326346	-0.137965	0.566495
O20	O	1.826346	0.362035	1.066495
O21	O	1.230565	-0.215580	0.303860
O22	O	1.730565	0.284420	0.803860
O23	O	1.076396	-0.207190	0.441217
O24	O	1.576396	0.292810	0.941217
O25	O	1.207297	-0.258545	0.705808
O26	O	1.707297	0.241455	1.205808
O27	O	1.069940	-0.259014	0.551628
O28	O	1.569940	0.240986	1.051628
O29	O	1.317826	-0.206364	0.712216
O30	O	1.817826	0.293636	1.212216
O31	O	1.332400	-0.342160	0.455919
O32	O	1.832400	0.157840	0.955919
O33	O	1.215589	-0.335803	0.559993
O34	O	1.715589	0.164197	1.059993
C35	C	1.040543	-0.232216	0.494541
C36	C	1.540543	0.267784	0.994541
C37	C	0.940604	-0.229511	0.488795
C38	C	1.440604	0.270489	0.988795
C39	C	0.746141	-0.278487	0.592815
C40	C	1.246141	0.221513	1.092815
C41	C	0.652238	-0.275947	0.587420
C42	C	1.152238	0.224053	1.087420
C43	C	0.658894	-0.221888	0.472615
C44	C	1.158894	0.278112	0.972615
C45	C	0.752796	-0.224429	0.478010
C46	C	1.252796	0.275571	0.978010
C47	C	0.796416	-0.252730	0.538111
C48	C	1.296416	0.247270	1.038111
C49	C	0.890321	-0.255272	0.543501
C50	C	1.390321	0.244728	1.043501
C51	C	0.896975	-0.201211	0.428701
C52	C	1.396975	0.298789	0.928701
C53	C	0.803072	-0.198671	0.423306
C54	C	1.303072	0.301329	0.923306
C55	C	1.273992	-0.355282	0.507967
C56	C	1.773992	0.144718	1.007967
C57	C	1.274004	-0.405216	0.507978
C58	C	1.774004	0.094784	1.007978
C59	C	1.335075	-0.718161	0.453920
C60	C	1.835075	-0.218161	0.953920
C61	C	1.335184	-0.905836	0.453961
C62	C	1.835184	-0.405836	0.953961
O63	O	1.386982	-0.932904	0.407957
O64	O	1.886982	-0.432904	0.907957
N65	N	1.274334	-0.926007	0.508099
N66	N	1.774334	-0.426007	1.008099
C67	C	1.213457	-0.899258	0.562235
C68	C	1.713457	-0.399258	1.062235
O69	O	1.161709	-0.920721	0.608291
O70	O	1.661709	-0.420721	1.108291
C71	C	1.213353	-0.711584	0.562198
C72	C	1.713353	-0.211584	1.062198
C73	C	1.274201	-0.691414	0.508050
C74	C	1.774201	-0.191414	1.008050
C75	C	1.395919	-0.697991	0.399776
C76	C	1.895919	-0.197991	0.899776
C77	C	1.395888	-0.651075	0.399763
C78	C	1.895888	-0.151075	0.899763
C79	C	1.335013	-0.624329	0.453893
C80	C	1.835013	-0.124329	0.953893
C81	C	1.274170	-0.644498	0.508036
C82	C	1.774170	-0.144498	1.008036
C83	C	1.152480	-0.684835	0.616338
C84	C	1.652480	-0.184835	1.116338
C85	C	1.152461	-0.637913	0.616326
C86	C	1.652461	-0.137913	1.116326
C87	C	1.213309	-0.617744	0.562177
C88	C	1.713309	-0.117744	1.062177
C89	C	1.213264	-0.570836	0.562153
C90	C	1.713264	-0.070836	1.062153
N91	N	1.274114	-0.550664	0.508014
N92	N	1.774114	-0.050664	1.008014
C93	C	1.334988	-0.577410	0.453885
C94	C	1.834988	-0.077410	0.953885
C95	C	1.213515	-0.997789	0.562249
C96	C	1.713515	-0.497789	1.062249
C97	C	1.213539	-1.044708	0.562258
C98	C	1.713539	-0.544708	1.062258
C99	C	1.335268	-1.051282	0.453985
C100	C	1.835268	-0.551282	0.953985
C101	C	1.335238	-1.004363	0.453972
C102	C	1.835238	-0.504363	0.953972
C103	C	1.274364	-0.977617	0.508111
C104	C	1.774364	-0.477617	1.008111
C105	C	1.334918	-0.478883	0.453860
C106	C	1.834918	0.021117	0.953860
C107	C	1.334879	-0.431963	0.453848
C108	C	1.834879	0.068037	0.953848
C109	C	1.213154	-0.425392	0.562125
C110	C	1.713154	0.074608	1.062125
C111	C	1.213189	-0.472309	0.562133
C112	C	1.713189	0.027691	1.062133
C113	C	1.274079	-0.499053	0.507998
C114	C	1.774079	0.000947	1.007998
O115	O	1.161500	-0.543740	0.608140
O116	O	1.661500	-0.043740	1.108140
O117	O	1.386742	-0.555938	0.407851
O118	O	1.886742	-0.055938	0.907851
C119	C	1.335106	-0.765076	0.453933
C120	C	1.835106	-0.265076	0.953933
C121	C	1.274263	-0.785246	0.508076
C122	C	1.774263	-0.285246	1.008076
C123	C	1.213388	-0.758500	0.562206
C124	C	1.713388	-0.258500	1.062206
C125	C	1.274288	-0.832164	0.508085
C126	C	1.774288	-0.332164	1.008085
C127	C	1.335162	-0.858911	0.453955
C128	C	1.835162	-0.358911	0.953955
C129	C	1.396012	-0.838739	0.399817
C130	C	1.896012	-0.338739	0.899817
C131	C	1.395981	-0.791823	0.399803
C132	C	1.895981	-0.291823	0.899803
C133	C	1.152538	-0.778672	0.616344
C134	C	1.652538	-0.278672	1.116344
C135	C	1.152574	-0.825588	0.616353
C136	C	1.652574	-0.325588	1.116353
C137	C	1.213448	-0.852334	0.562223
C138	C	1.713448	-0.352334	1.062223
C139	C	1.508672	-0.244934	0.521554
C140	C	2.008672	0.255066	1.021554
C141	C	1.608611	-0.247649	0.527321
C142	C	2.108611	0.252351	1.027321
C143	C	1.260627	-0.231435	0.742550
C144	C	1.760627	0.268565	1.242550
C145	C	1.254864	-0.228398	0.842492
C146	C	1.754864	0.271602	1.342492
C147	C	1.274336	-0.121387	0.508096
C148	C	1.774336	0.378613	1.008096
C149	C	1.274414	-0.071454	0.508128
C150	C	1.774414	0.428546	1.008128
C151	C	1.189291	-0.193827	0.980056
C152	C	1.689291	0.306173	1.480056
C153	C	1.194702	-0.196680	0.886151
C154	C	1.694702	0.303320	1.386151
C155	C	1.309619	-0.257265	0.892745
C156	C	1.809619	0.242735	1.392745
C157	C	1.304208	-0.254413	0.986650
C158	C	1.804208	0.245587	1.486650
C159	C	1.244040	-0.222693	1.030302
C160	C	1.744040	0.277307	1.530302
C161	C	1.238625	-0.219842	1.124208
C162	C	1.738625	0.280158	1.624208
C163	C	1.353545	-0.280426	1.130800
C164	C	1.853545	0.219574	1.630800
C165	C	1.358957	-0.283279	1.036895
C166	C	1.858957	0.216721	1.536895
C167	C	1.287617	-0.245672	1.274403
C168	C	1.787617	0.254328	1.774403
C169	C	1.293380	-0.248710	1.174461
C170	C	1.793380	0.251290	1.674461
H171	H	0.623361	-0.198844	0.423689
H172	H	1.123361	0.301156	0.923689
H173	H	0.937919	-0.180238	0.384155
H174	H	1.437919	0.319762	0.884155
F175	F	1.399723	-0.507340	0.396243
F176	F	1.899723	-0.007340	0.896243
H177	H	1.384428	-0.415543	0.409751
H178	H	1.884428	0.084457	0.909751
H179	H	1.163645	-0.488731	0.606228
H180	H	1.663645	0.011269	1.106228
F181	F	0.756638	-0.168551	0.359349
F182	F	1.256638	0.331449	0.859349
F183	F	1.422992	-0.317033	0.990428
F184	F	1.922992	0.182967	1.490428
H185	H	1.445437	-0.634656	0.355673
H186	H	1.945437	-0.134656	0.855673
H187	H	1.445495	-0.719763	0.355697
H188	H	1.945495	-0.219763	0.855697
F189	F	1.400001	-0.982902	0.396341
F190	F	1.900001	-0.482902	0.896341
H191	H	1.384835	-1.073067	0.409910
H192	H	1.884835	-0.573067	0.909910
H193	H	0.925835	-0.278317	0.592437
H194	H	1.425835	0.221683	1.092437
F195	F	1.148767	-1.066168	0.619879
F196	F	1.648767	-0.566168	1.119879
F197	F	1.148719	-0.969330	0.619875
F198	F	1.648719	-0.469330	1.119875
H199	H	1.189633	-0.194015	1.159748
H200	H	1.689633	0.305985	1.659748
F201	F	1.411814	-0.311151	1.184282
F202	F	1.911814	0.188849	1.684282
F203	F	1.087724	-0.706290	0.673980
F204	F	1.587724	-0.206290	1.173980
H205	H	1.102891	-0.616139	0.660416
H206	H	1.602891	-0.116139	1.160416
F207	F	1.125260	-0.160067	1.026516
F208	F	1.625260	0.339933	1.526516
H209	H	1.163588	-0.403608	0.606194
H210	H	1.663588	0.096392	1.106194
F211	F	1.460747	-0.770363	0.342173
F212	F	1.960747	-0.270363	0.842173
F213	F	0.598734	-0.303361	0.645645
F214	F	1.098734	0.196639	1.145645
H215	H	1.445576	-0.860524	0.355739
H216	H	1.945576	-0.360524	0.855739
F217	F	1.373663	-0.291014	0.846272
F218	F	1.873663	0.208986	1.346272
F219	F	0.792567	-0.308611	0.656770
F220	F	1.292567	0.191389	1.156770
F221	F	1.087804	-0.847048	0.673987
F222	F	1.587804	-0.347048	1.173987
H223	H	1.102968	-0.756898	0.660425
H224	H	1.602968	-0.256898	1.160425
H225	H	1.150122	-0.173173	0.845244
H226	H	1.650122	0.326827	1.345244
