data_functionalizedCrystal
_audit_creation_method	'MofGen! by Chris Wilmer'
_symmetry_space_group_name_H-M	'P1'
_symmetry_Int_Tables_number	1
_symmetry_cell_setting	triclinic
loop_
_symmetry_equiv_pos_as_xyz
  x,y,z
_cell_length_a	21.395364
_cell_length_b	12.594516
_cell_length_c	21.395355
_cell_angle_alpha	90.013083
_cell_angle_beta	90.024727
_cell_angle_gamma	90.010149
loop_
_atom_site_label
_atom_site_type_symbol
_atom_site_fract_x
_atom_site_fract_y
_atom_site_fract_z
Zn1	Zn	0.957941	-0.423913	0.354288
Zn2	Zn	0.957878	-0.601877	0.249520
Zn3	Zn	0.853156	-0.423908	0.249524
Zn4	Zn	0.853160	-0.601844	0.354260
O5	O	0.905534	-0.512885	0.301898
O6	O	1.045611	-0.447536	0.340400
O7	O	0.943959	-0.578281	0.161843
O8	O	0.867081	-0.274963	0.263435
O9	O	1.045565	-0.578285	0.263428
O10	O	0.944066	-0.274966	0.340404
O11	O	0.867020	-0.447527	0.161846
O12	O	0.765479	-0.447496	0.263408
O13	O	0.867087	-0.578230	0.441942
O14	O	0.765482	-0.578225	0.340357
O15	O	0.944070	-0.447504	0.441962
O16	O	0.943962	-0.750818	0.263401
O17	O	0.867026	-0.750795	0.340353
C18	C	0.742746	-0.512857	0.301880
C19	C	0.673105	-0.512871	0.301887
C20	C	0.171327	-0.581081	0.341927
C21	C	0.236762	-0.581081	0.341920
C22	C	0.269467	-0.512909	0.301918
C23	C	0.236731	-0.444750	0.261908
C24	C	0.171296	-0.444760	0.261911
C25	C	0.373137	-0.416987	0.297062
C26	C	0.438570	-0.416976	0.297063
C27	C	0.471288	-0.512881	0.301904
C28	C	0.438564	-0.608800	0.306758
C29	C	0.373130	-0.608809	0.306762
C30	C	0.340419	-0.512892	0.301910
C31	C	0.574968	-0.581040	0.341902
C32	C	0.640405	-0.581042	0.341891
C33	C	0.640372	-0.444702	0.261882
C34	C	0.574937	-0.444710	0.261889
C35	C	0.542239	-0.512877	0.301903
C36	C	0.905505	-0.789426	0.301887
C37	C	0.905550	-0.907732	0.301904
C38	C	0.947444	-0.976959	0.260094
C39	C	0.962759	-1.047682	0.317282
C40	C	0.890313	-1.047808	0.244753
C41	C	0.920894	-0.976896	0.359121
C42	C	0.848422	-0.977016	0.286553
C43	C	0.863715	-1.047707	0.343780
C44	C	1.068957	-0.512915	0.301917
C45	C	1.138599	-0.512927	0.301925
C46	C	0.905586	-0.512864	0.465322
C47	C	0.905608	-0.512855	0.534963
C48	C	0.905580	-0.235265	0.301923
C49	C	0.905600	-0.116959	0.301933
C50	C	0.905518	-0.512830	0.139111
C51	C	0.905617	-0.512539	0.069470
C52	C	0.945691	-0.444783	0.567688
C53	C	0.945690	-0.444737	0.633123
C54	C	0.905613	-0.512782	0.665831
C55	C	0.865522	-0.580859	0.633099
C56	C	0.865520	-0.580895	0.567665
C57	C	0.900656	-0.608619	0.769502
C58	C	0.900663	-0.608585	0.834935
C59	C	0.905617	-0.512670	0.867652
C60	C	0.910578	-0.416786	0.834928
C61	C	0.910575	-0.416822	0.769494
C62	C	0.905611	-0.512750	0.736784
C63	C	0.945701	-0.444543	0.971329
C64	C	0.945696	-0.444495	1.036766
C65	C	0.865531	-0.580626	1.036740
C66	C	0.865533	-0.580664	0.971305
C67	C	0.905621	-0.512624	0.938604
H68	H	0.465208	-0.338872	0.293118
H69	H	0.667051	-0.636549	0.374464
H70	H	0.896454	-0.686705	0.742870
H71	H	0.933754	-0.945879	0.407507
H72	H	0.263415	-0.636580	0.374497
C73	C	0.337154	-0.311476	0.291735
N74	N	0.310053	-0.232008	0.287723
H75	H	0.832897	-0.636102	0.944660
C76	C	0.989790	-0.369857	0.669128
N77	N	1.023008	-0.313459	0.696244
C78	C	0.916023	-0.311352	0.733500
N79	N	0.920123	-0.231909	0.706389
H80	H	0.828308	-1.078575	0.379191
C81	C	1.028054	-1.089627	0.334843
N82	N	1.077235	-1.121218	0.348065
C83	C	0.337137	-0.714320	0.312089
N84	N	0.310027	-0.793792	0.316096
H85	H	0.144649	-0.389258	0.229337
C86	C	0.872872	-1.089882	0.179441
N87	N	0.859740	-1.121567	0.130247
C88	C	0.989781	-0.369922	0.531720
N89	N	1.022988	-0.313532	0.504628
H90	H	0.982878	-0.945895	0.224769
C91	C	0.916026	-0.311270	0.870912
N92	N	0.920131	-0.231799	0.898018
C93	C	0.989793	-0.369688	0.935356
N94	N	1.023003	-0.313306	0.908262
H95	H	0.548344	-0.636548	0.374482
C96	C	0.676343	-0.369714	0.217877
N97	N	0.703440	-0.313233	0.184730
H98	H	0.978335	-0.389057	1.063409
C99	C	0.538934	-0.369720	0.217891
N100	N	0.511817	-0.313234	0.184750
H101	H	0.465201	-0.686895	0.310705
C102	C	0.821446	-0.655478	1.072716
N103	N	0.788239	-0.711857	1.099816
C104	C	0.783147	-0.935033	0.268964
N105	N	0.733983	-0.903407	0.255708
H106	H	0.896627	-0.686659	0.861574
H107	H	0.832889	-0.636258	0.659734
C108	C	0.821425	-0.655785	0.531666
N109	N	0.788213	-0.712195	0.504551
H110	H	0.263363	-0.389246	0.229337
C111	C	0.135363	-0.656091	0.385929
N112	N	0.108274	-0.712596	0.419068
