data_functionalizedCrystal
_audit_creation_method	'MofGen! by Chris Wilmer'
_symmetry_space_group_name_H-M	'P1'
_symmetry_Int_Tables_number	1
_symmetry_cell_setting	triclinic
loop_
_symmetry_equiv_pos_as_xyz
  x,y,z
_cell_length_a	20.016444
_cell_length_b	14.560438
_cell_length_c	14.560438
_cell_angle_alpha	120.000493
_cell_angle_beta	89.998133
_cell_angle_gamma	59.999667
loop_
_atom_site_label
_atom_site_type_symbol
_atom_site_fract_x
_atom_site_fract_y
_atom_site_fract_z
Zr1	Zr	0.643606	1.005249	0.120465
O2	O	0.536928	1.196861	0.267119
O3	O	0.676309	0.813645	0.075510
O4	O	0.676306	1.005254	0.267114
O5	O	0.536933	1.005246	-0.075627
O6	O	0.786250	1.005248	0.267106
O7	O	0.536930	1.005252	0.075516
O8	O	0.786256	0.662495	-0.075637
O9	O	0.536928	1.347999	0.267117
O10	O	0.772307	0.892447	0.056329
O11	O	0.690258	0.892446	-0.056461
O12	O	0.690255	1.118041	0.169127
O13	O	0.608206	1.118040	0.056336
Zr14	Zr	0.818959	1.005230	-0.120602
Zr15	Zr	0.818955	1.005240	0.120453
Zr16	Zr	0.643610	1.005239	-0.120590
Zr17	Zr	0.643607	1.246297	0.120461
Zr18	Zr	0.818959	0.764182	-0.120597
O19	O	0.786256	1.196834	-0.075647
O20	O	0.786251	1.196849	0.267103
O21	O	0.536933	1.196846	-0.075630
O22	O	0.925638	0.813618	-0.267256
O23	O	0.925632	0.813633	0.075494
O24	O	0.676315	0.813630	-0.267239
O25	O	0.925632	1.005233	0.075490
O26	O	0.786259	1.005225	-0.267250
O27	O	0.676315	1.005231	-0.267243
O28	O	0.925635	1.005227	-0.075653
O29	O	0.676307	1.347992	0.267107
O30	O	0.786259	0.662487	-0.267244
O31	O	0.925638	0.662480	-0.267253
O32	O	0.925634	0.662488	-0.075646
O33	O	0.536931	1.347991	0.075510
O34	O	0.676310	1.347984	0.075500
O35	O	0.772310	0.892438	-0.169263
O36	O	0.854359	0.892439	-0.056473
O37	O	0.772307	1.118032	0.056325
O38	O	0.690259	1.118032	-0.056466
C39	C	0.731282	0.703726	-0.000063
C40	C	0.731282	0.601395	-0.000061
C41	C	0.774109	0.553319	0.058815
C42	C	0.774112	0.457160	0.058805
C43	C	0.688455	0.457164	-0.058959
C44	C	0.688457	0.553315	-0.058954
C45	C	0.511948	1.005250	-0.000053
C46	C	0.437508	1.005254	-0.000048
C47	C	0.266251	1.005242	0.083201
C48	C	0.196311	1.005234	0.083193
C49	C	0.196321	1.005233	-0.083346
C50	C	0.266263	1.005232	-0.083342
C51	C	0.301224	1.005243	-0.000062
C52	C	0.161341	1.005236	-0.000074
C53	C	0.085509	1.005227	-0.000083
C54	C	0.377062	1.005249	-0.000054
C55	C	0.950617	1.005229	-0.000083
C56	C	1.025057	1.005225	-0.000088
C57	C	0.731278	1.005252	0.301455
C58	C	0.731276	1.005257	0.403789
C59	C	0.731283	1.306753	-0.000074
C60	C	0.731283	1.409084	-0.000076
C61	C	0.688452	1.123008	0.606901
C62	C	0.688445	1.123014	0.510752
C63	C	0.774110	0.887486	0.392977
C64	C	0.774111	0.887482	0.489125
C65	C	0.731286	1.005233	0.698411
C66	C	0.731284	1.005247	0.596086
C67	C	0.950617	0.703715	-0.000077
C68	C	1.025057	0.601380	-0.000080
C69	C	0.731287	0.703713	-0.301586
C70	C	0.731289	0.601377	-0.403918
C71	C	0.950622	0.703702	-0.301601
C72	C	1.025063	0.601363	-0.403938
C73	C	0.511944	1.306777	0.301464
C74	C	0.437502	1.409116	0.403802
C75	C	0.511949	1.306764	-0.000059
C76	C	0.437509	1.409098	-0.000056
C77	C	0.731278	1.306766	0.301450
C78	C	0.731277	1.409102	0.403782
C79	C	1.017184	0.553328	0.058809
C80	C	1.087122	0.457187	0.058829
C81	C	1.164931	0.409094	-0.000049
C82	C	1.172802	0.457156	-0.058940
C83	C	1.102865	0.553302	-0.058953
C84	C	1.102858	0.553304	-0.393121
C85	C	1.172810	0.457159	-0.489269
C86	C	1.164967	0.409068	-0.596232
C87	C	1.087164	0.457137	-0.607047
C88	C	1.017213	0.553287	-0.510900
C89	C	0.359708	1.457187	0.392985
C90	C	0.289755	1.553361	0.489133
C91	C	0.297599	1.601457	0.596096
C92	C	0.375401	1.553383	0.606911
C93	C	0.445352	1.457216	0.510764
C94	C	0.445381	1.457161	-0.058936
C95	C	0.375444	1.553329	-0.058929
C96	C	0.297634	1.601425	-0.000048
C97	C	0.289763	1.553358	0.058839
C98	C	0.359700	1.457199	0.058838
C99	C	0.774119	0.553293	-0.510876
C100	C	0.774111	0.457147	-0.607024
C101	C	0.688441	0.457174	-0.489244
C102	C	0.688445	0.553325	-0.393098
H103	H	0.294715	1.005248	0.151011
H104	H	1.109287	0.592414	-0.106914
H105	H	0.653578	1.218900	0.693990
H106	H	1.236164	0.417985	-0.106876
H107	H	0.353306	1.418032	0.305899
H108	H	0.226412	1.592488	0.480305
H109	H	1.080790	0.417967	-0.694149
Cl110	Cl	0.152348	1.005229	0.187869
H111	H	0.653565	1.218907	0.519567
Cl112	Cl	0.827950	0.739448	0.258509
H113	H	0.953834	0.592484	0.106768
Cl114	Cl	0.827977	0.613702	-0.524481
Cl115	Cl	0.827957	0.739427	0.475528
H116	H	0.653588	0.418007	-0.106907
H117	H	1.109260	0.592445	-0.306035
H118	H	0.381868	1.592449	-0.106886
H119	H	0.167848	1.005227	-0.151149
Cl120	Cl	0.209651	1.722352	0.716957
Cl121	Cl	0.634620	0.613749	-0.132984
H122	H	0.226402	1.592533	0.106778
H123	H	0.808987	0.418018	0.106745
Cl124	Cl	0.827950	0.613753	0.132846
Cl125	Cl	0.310237	1.005224	-0.188028
H126	H	1.080697	0.418066	0.106786
H127	H	1.236154	0.418031	-0.480444
H128	H	1.221932	0.330777	-0.674512
Cl129	Cl	0.827955	0.396706	-0.741484
H130	H	1.221871	0.330805	-0.000030
H131	H	0.953872	0.592404	-0.519723
Cl132	Cl	0.385248	1.613855	0.741388
Cl133	Cl	0.349789	1.396780	0.132858
Cl134	Cl	0.543148	1.396787	0.524382
H135	H	0.508731	1.418009	-0.106891
Cl136	Cl	0.209721	1.722310	-0.000061
Cl137	Cl	0.634587	0.396754	-0.475652
Cl138	Cl	0.634592	0.613785	-0.258627
