data_functionalizedCrystal
_audit_creation_method	'MofGen! by Chris Wilmer'
_symmetry_space_group_name_H-M	'P1'
_symmetry_Int_Tables_number	1
_symmetry_cell_setting	triclinic
loop_
_symmetry_equiv_pos_as_xyz
  x,y,z
_cell_length_a	27.731988
_cell_length_b	26.210047
_cell_length_c	15.995350
_cell_angle_alpha	90.003919
_cell_angle_beta	96.944628
_cell_angle_gamma	89.981104
loop_
_atom_site_label
_atom_site_type_symbol
_atom_site_fract_x
_atom_site_fract_y
_atom_site_fract_z
O1	O	-0.641389	0.042360	0.099389
O2	O	-0.391389	0.292360	0.349389
O3	O	-0.141389	0.542360	0.599389
O4	O	0.108611	0.792360	0.849389
O5	O	-0.500657	0.042376	0.114590
O6	O	-0.250657	0.292376	0.364590
O7	O	-0.000657	0.542376	0.614590
O8	O	0.249343	0.792376	0.864590
O9	O	-0.574870	0.042367	-0.014949
O10	O	-0.324870	0.292367	0.235051
O11	O	-0.074870	0.542367	0.485051
O12	O	0.175130	0.792367	0.735051
O13	O	-0.567176	0.042369	0.228928
O14	O	-0.317176	0.292369	0.478928
O15	O	-0.067176	0.542369	0.728928
O16	O	0.182824	0.792369	0.978928
O17	O	-0.574835	-0.042491	-0.014951
O18	O	-0.324835	0.207509	0.235049
O19	O	-0.074835	0.457509	0.485049
O20	O	0.175165	0.707509	0.735049
O21	O	-0.500622	-0.042482	0.114588
O22	O	-0.250622	0.207518	0.364588
O23	O	-0.000622	0.457518	0.614588
O24	O	0.249378	0.707518	0.864588
O25	O	-0.641354	-0.042498	0.099388
O26	O	-0.391354	0.207502	0.349388
O27	O	-0.141354	0.457502	0.599388
O28	O	0.108646	0.707502	0.849388
Cu29	Cu	-0.570985	-0.050238	0.106988
Cu30	Cu	-0.320985	0.199762	0.356988
Cu31	Cu	-0.070985	0.449762	0.606988
Cu32	Cu	0.179015	0.699762	0.856988
Cu33	Cu	-0.571026	0.050116	0.106990
Cu34	Cu	-0.321026	0.300116	0.356990
Cu35	Cu	-0.071026	0.550116	0.606990
Cu36	Cu	0.178974	0.800116	0.856990
O37	O	-0.567141	-0.042489	0.228927
O38	O	-0.317141	0.207511	0.478927
O39	O	-0.067141	0.457511	0.728927
O40	O	0.182859	0.707511	0.978927
C41	C	-0.482631	-0.000051	0.114278
C42	C	-0.232631	0.249949	0.364278
C43	C	0.017369	0.499949	0.614278
C44	C	0.267369	0.749949	0.864278
C45	C	-0.428970	-0.000046	0.113340
C46	C	-0.178970	0.249954	0.363340
C47	C	0.071030	0.499954	0.613340
C48	C	0.321030	0.749954	0.863340
C49	C	-0.096207	-0.046325	0.107434
C50	C	0.153793	0.203675	0.357434
C51	C	0.403793	0.453675	0.607434
C52	C	0.653793	0.703675	0.857434
C53	C	0.105468	-0.046333	0.103869
C54	C	0.355468	0.203667	0.353869
C55	C	0.605468	0.453667	0.603869
C56	C	0.855468	0.703667	0.853869
O57	O	0.131558	-0.085672	0.103372
O58	O	0.381558	0.164328	0.353372
O59	O	0.631558	0.414328	0.603372
O60	O	0.881558	0.664328	0.853372
N61	N	0.130666	-0.000077	0.103427
N62	N	0.380666	0.249923	0.353427
N63	N	0.630666	0.499923	0.603427
N64	N	0.880666	0.749923	0.853427
C65	C	0.105442	0.046184	0.103871
C66	C	0.355442	0.296184	0.353871
C67	C	0.605442	0.546184	0.603871
C68	C	0.855442	0.796184	0.853871
O69	O	0.131501	0.085528	0.103405
O70	O	0.381501	0.335528	0.353405
O71	O	0.631501	0.585528	0.603405
O72	O	0.881501	0.835528	0.853405
C73	C	-0.096232	0.046192	0.107430
C74	C	0.153768	0.296192	0.357430
C75	C	0.403768	0.546192	0.607430
C76	C	0.653768	0.796192	0.857430
C77	C	-0.121427	-0.000067	0.107880
C78	C	0.128573	0.249933	0.357880
C79	C	0.378573	0.499933	0.607880
C80	C	0.628573	0.749933	0.857880
C81	C	-0.121401	-0.092580	0.107883
C82	C	0.128599	0.157420	0.357883
C83	C	0.378599	0.407420	0.607883
C84	C	0.628599	0.657420	0.857883
C85	C	-0.171817	-0.092577	0.108779
C86	C	0.078183	0.157423	0.358779
C87	C	0.328183	0.407423	0.608779
C88	C	0.578183	0.657423	0.858779
C89	C	-0.197037	-0.046320	0.109225
C90	C	0.052963	0.203680	0.359225
C91	C	0.302963	0.453680	0.609225
C92	C	0.552963	0.703680	0.859225
C93	C	-0.171842	-0.000065	0.108776
C94	C	0.078158	0.249935	0.358776
C95	C	0.328158	0.499935	0.608776
C96	C	0.578158	0.749935	0.858776
C97	C	-0.121456	0.092452	0.107867
C98	C	0.128544	0.342452	0.357867
C99	C	0.378544	0.592452	0.607867
C100	C	0.628544	0.842452	0.857867
C101	C	-0.171877	0.092450	0.108755
C102	C	0.078123	0.342450	0.358755
C103	C	0.328123	0.592450	0.608755
C104	C	0.578123	0.842450	0.858755
C105	C	-0.197072	0.046191	0.109205
C106	C	0.052928	0.296191	0.359205
C107	C	0.302928	0.546191	0.609205
C108	C	0.552928	0.796191	0.859205
C109	C	-0.247477	0.046195	0.110117
C110	C	0.002523	0.296195	0.360117
C111	C	0.252523	0.546195	0.610117
C112	C	0.502523	0.796195	0.860117
N113	N	-0.272675	-0.000061	0.110559
N114	N	-0.022675	0.249939	0.360559
N115	N	0.227325	0.499939	0.610559
N116	N	0.477325	0.749939	0.860559
C117	C	-0.247455	-0.046318	0.110113
C118	C	0.002545	0.203682	0.360113
C119	C	0.252545	0.453682	0.610113
C120	C	0.502545	0.703682	0.860113
C121	C	0.211323	0.046177	0.102005
C122	C	0.461323	0.296177	0.352005
C123	C	0.711323	0.546177	0.602005
C124	C	0.961323	0.796177	0.852005
C125	C	0.261741	0.046176	0.101117
C126	C	0.511741	0.296176	0.351117
C127	C	0.761741	0.546176	0.601117
C128	C	1.011741	0.796176	0.851117
C129	C	0.261764	-0.046342	0.101113
C130	C	0.511764	0.203658	0.351113
C131	C	0.761764	0.453658	0.601113
C132	C	1.011764	0.703658	0.851113
C133	C	0.211345	-0.046339	0.102007
C134	C	0.461345	0.203661	0.352007
C135	C	0.711345	0.453661	0.602007
C136	C	0.961345	0.703661	0.852007
C137	C	0.186125	-0.000079	0.102447
C138	C	0.436125	0.249921	0.352447
C139	C	0.686125	0.499921	0.602447
C140	C	0.936125	0.749921	0.852447
C141	C	-0.353330	-0.046310	0.111995
C142	C	-0.103330	0.203690	0.361995
C143	C	0.146670	0.453690	0.611995
C144	C	0.396670	0.703690	0.861995
C145	C	-0.403750	-0.046303	0.112894
C146	C	-0.153750	0.203697	0.362894
C147	C	0.096250	0.453697	0.612894
C148	C	0.346250	0.703697	0.862894
C149	C	-0.403768	0.046214	0.112893
C150	C	-0.153768	0.296214	0.362893
C151	C	0.096232	0.546214	0.612893
C152	C	0.346232	0.796214	0.862893
C153	C	-0.353353	0.046208	0.111998
C154	C	-0.103353	0.296208	0.361998
C155	C	0.146647	0.546208	0.611998
C156	C	0.396647	0.796208	0.861998
C157	C	-0.328136	-0.000058	0.111546
C158	C	-0.078136	0.249942	0.361546
C159	C	0.171864	0.499942	0.611546
C160	C	0.421864	0.749942	0.861546
O161	O	-0.273600	0.085514	0.110606
O162	O	-0.023600	0.335514	0.360606
O163	O	0.226400	0.585514	0.610606
O164	O	0.476400	0.835514	0.860606
O165	O	-0.273525	-0.085656	0.110561
O166	O	-0.023525	0.164344	0.360561
O167	O	0.226475	0.414344	0.610561
O168	O	0.476475	0.664344	0.860561
C169	C	-0.045791	-0.046327	0.106538
C170	C	0.204209	0.203673	0.356538
C171	C	0.454209	0.453673	0.606538
C172	C	0.704209	0.703673	0.856538
C173	C	-0.020597	-0.000072	0.106089
C174	C	0.229403	0.249928	0.356089
C175	C	0.479403	0.499928	0.606089
C176	C	0.729403	0.749928	0.856089
C177	C	-0.045817	0.046185	0.106535
C178	C	0.204183	0.296185	0.356535
C179	C	0.454183	0.546185	0.606535
C180	C	0.704183	0.796185	0.856535
C181	C	0.029822	-0.000074	0.105201
C182	C	0.279822	0.249926	0.355201
C183	C	0.529822	0.499926	0.605201
C184	C	0.779822	0.749926	0.855201
C185	C	0.055042	-0.046331	0.104754
C186	C	0.305042	0.203669	0.354754
C187	C	0.555042	0.453669	0.604754
C188	C	0.805042	0.703669	0.854754
C189	C	0.029844	-0.092587	0.105196
C190	C	0.279844	0.157413	0.355196
C191	C	0.529844	0.407413	0.605196
C192	C	0.779844	0.657413	0.855196
C193	C	-0.020571	-0.092585	0.106092
C194	C	0.229429	0.157415	0.356092
C195	C	0.479429	0.407415	0.606092
C196	C	0.729429	0.657415	0.856092
C197	C	-0.020619	0.092441	0.106093
C198	C	0.229381	0.342441	0.356093
C199	C	0.479381	0.592441	0.606093
C200	C	0.729381	0.842441	0.856093
C201	C	0.029796	0.092435	0.105198
C202	C	0.279796	0.342435	0.355198
C203	C	0.529796	0.592435	0.605198
C204	C	0.779796	0.842435	0.855198
C205	C	0.055017	0.046178	0.104752
C206	C	0.305017	0.296178	0.354752
C207	C	0.555017	0.546178	0.604752
C208	C	0.805017	0.796178	0.854752
C209	C	0.340620	-0.000072	0.099708
C210	C	0.590620	0.249928	0.349708
C211	C	0.840620	0.499928	0.599708
C212	C	1.090620	0.749928	0.849708
C213	C	0.286962	-0.000082	0.100670
C214	C	0.536962	0.249918	0.350670
C215	C	0.786962	0.499918	0.600670
C216	C	1.036962	0.749918	0.850670
N217	N	-0.570960	-0.120822	0.106986
N218	N	-0.320960	0.129178	0.356986
N219	N	-0.070960	0.379178	0.606986
N220	N	0.179040	0.629178	0.856986
C221	C	-0.574534	-0.000061	-0.046141
C222	C	-0.324534	0.249939	0.203859
C223	C	-0.074534	0.499939	0.453859
C224	C	0.175466	0.749939	0.703859
C225	C	-0.573581	-0.000058	-0.139078
C226	C	-0.323581	0.249942	0.110922
C227	C	-0.073581	0.499942	0.360922
C228	C	0.176419	0.749942	0.610922
C229	C	-0.538133	-0.526786	0.164322
C230	C	-0.288133	-0.276786	0.414322
C231	C	-0.038133	-0.026786	0.664322
C232	C	0.211867	0.223214	0.914322
C233	C	-0.538109	-0.313127	0.164323
C234	C	-0.288109	-0.063127	0.414323
C235	C	-0.038109	0.186873	0.664323
C236	C	0.211891	0.436873	0.914323
O237	O	-0.510141	-0.285505	0.213064
O238	O	-0.260141	-0.035505	0.463064
O239	O	-0.010141	0.214495	0.713064
O240	O	0.239859	0.464495	0.963064
N241	N	-0.570975	-0.286406	0.106983
N242	N	-0.320975	-0.036406	0.356983
N243	N	-0.070975	0.213594	0.606983
N244	N	0.179025	0.463594	0.856983
C245	C	-0.603847	-0.313102	0.049636
C246	C	-0.353847	-0.063102	0.299636
C247	C	-0.103847	0.186898	0.549636
C248	C	0.146153	0.436898	0.799636
O249	O	-0.631798	-0.285472	0.000859
O250	O	-0.381798	-0.035472	0.250859
O251	O	-0.131798	0.214528	0.500859
O252	O	0.118202	0.464528	0.750859
C253	C	-0.603868	-0.526760	0.049632
C254	C	-0.353868	-0.276760	0.299632
C255	C	-0.103868	-0.026760	0.549632
C256	C	0.146132	0.223240	0.799632
C257	C	-0.571003	-0.553479	0.106981
C258	C	-0.321003	-0.303479	0.356981
C259	C	-0.071003	-0.053479	0.606981
C260	C	0.178997	0.196521	0.856981
C261	C	-0.505270	-0.553504	0.221666
C262	C	-0.255270	-0.303504	0.471666
C263	C	-0.005270	-0.053504	0.721666
C264	C	0.244730	0.196496	0.971666
C265	C	-0.505278	-0.606916	0.221669
C266	C	-0.255278	-0.356916	0.471669
C267	C	-0.005278	-0.106916	0.721669
C268	C	0.244722	0.143084	0.971669
C269	C	-0.538148	-0.633609	0.164327
C270	C	-0.288148	-0.383609	0.414327
C271	C	-0.038148	-0.133609	0.664327
C272	C	0.211852	0.116391	0.914327
C273	C	-0.571011	-0.606890	0.106983
C274	C	-0.321011	-0.356890	0.356983
C275	C	-0.071011	-0.106890	0.606983
C276	C	0.178989	0.143110	0.856983
C277	C	-0.636737	-0.553456	-0.007719
C278	C	-0.386737	-0.303456	0.242281
C279	C	-0.136737	-0.053456	0.492281
C280	C	0.113263	0.196544	0.742281
C281	C	-0.636738	-0.606873	-0.007716
C282	C	-0.386738	-0.356873	0.242284
C283	C	-0.136738	-0.106873	0.492284
C284	C	0.113262	0.143127	0.742284
C285	C	-0.603874	-0.633592	0.049633
C286	C	-0.353874	-0.383592	0.299633
C287	C	-0.103874	-0.133592	0.549633
C288	C	0.146126	0.116408	0.799633
C289	C	-0.603889	-0.686994	0.049644
C290	C	-0.353889	-0.436994	0.299644
C291	C	-0.103889	-0.186994	0.549644
C292	C	0.146111	0.063006	0.799644
N293	N	-0.571023	-0.713716	0.106984
N294	N	-0.321023	-0.463716	0.356984
N295	N	-0.071023	-0.213716	0.606984
N296	N	0.178977	0.036284	0.856984
C297	C	-0.538153	-0.687023	0.164325
C298	C	-0.288153	-0.437023	0.414325
C299	C	-0.038153	-0.187023	0.664325
C300	C	0.211847	0.062977	0.914325
C301	C	-0.603835	-0.200929	0.049643
C302	C	-0.353835	0.049071	0.299643
C303	C	-0.103835	0.299071	0.549643
C304	C	0.146165	0.549071	0.799643
C305	C	-0.603830	-0.147515	0.049645
C306	C	-0.353830	0.102485	0.299645
C307	C	-0.103830	0.352485	0.549645
C308	C	0.146170	0.602485	0.799645
C309	C	-0.538092	-0.147543	0.164331
C310	C	-0.288092	0.102457	0.414331
C311	C	-0.038092	0.352457	0.664331
C312	C	0.211908	0.602457	0.914331
C313	C	-0.538099	-0.200959	0.164333
C314	C	-0.288099	0.049041	0.414333
C315	C	-0.038099	0.299041	0.664333
C316	C	0.211901	0.549041	0.914333
C317	C	-0.570969	-0.227650	0.106983
C318	C	-0.320969	0.022350	0.356983
C319	C	-0.070969	0.272350	0.606983
C320	C	0.179031	0.522350	0.856983
C321	C	-0.538172	-0.799191	0.164326
C322	C	-0.288172	-0.549191	0.414326
C323	C	-0.038172	-0.299191	0.664326
C324	C	0.211828	-0.049191	0.914326
C325	C	-0.538184	-0.852607	0.164326
C326	C	-0.288184	-0.602607	0.414326
C327	C	-0.038184	-0.352607	0.664326
C328	C	0.211816	-0.102607	0.914326
C329	C	-0.603921	-0.852574	0.049637
C330	C	-0.353921	-0.602574	0.299637
C331	C	-0.103921	-0.352574	0.549637
C332	C	0.146079	-0.102574	0.799637
C333	C	-0.603911	-0.799162	0.049640
C334	C	-0.353911	-0.549162	0.299640
C335	C	-0.103911	-0.299162	0.549640
C336	C	0.146089	-0.049162	0.799640
C337	C	-0.571032	-0.772472	0.106988
C338	C	-0.321032	-0.522472	0.356988
C339	C	-0.071032	-0.272472	0.606988
C340	C	0.178968	-0.022472	0.856988
O341	O	-0.631839	-0.714649	0.000922
O342	O	-0.381839	-0.464649	0.250922
O343	O	-0.131839	-0.214649	0.500922
O344	O	0.118161	0.035351	0.750922
O345	O	-0.510199	-0.714663	0.213082
O346	O	-0.260199	-0.464663	0.463082
O347	O	-0.010199	-0.214663	0.713082
O348	O	0.239801	0.035337	0.963082
C349	C	-0.538125	-0.473374	0.164320
C350	C	-0.288125	-0.223374	0.414320
C351	C	-0.038125	0.026626	0.664320
C352	C	0.211875	0.276626	0.914320
C353	C	-0.570987	-0.446656	0.106976
C354	C	-0.320987	-0.196656	0.356976
C355	C	-0.070987	0.053344	0.606976
C356	C	0.179013	0.303344	0.856976
C357	C	-0.603858	-0.473349	0.049635
C358	C	-0.353858	-0.223349	0.299635
C359	C	-0.103858	0.026651	0.549635
C360	C	0.146142	0.276651	0.799635
C361	C	-0.570983	-0.393242	0.106978
C362	C	-0.320983	-0.143242	0.356978
C363	C	-0.070983	0.106758	0.606978
C364	C	0.179017	0.356758	0.856978
C365	C	-0.538112	-0.366549	0.164320
C366	C	-0.288112	-0.116549	0.414320
C367	C	-0.038112	0.133451	0.664320
C368	C	0.211888	0.383451	0.914320
C369	C	-0.505246	-0.393270	0.221659
C370	C	-0.255246	-0.143270	0.471659
C371	C	-0.005246	0.106730	0.721659
C372	C	0.244754	0.356730	0.971659
C373	C	-0.505254	-0.446682	0.221662
C374	C	-0.255254	-0.196682	0.471662
C375	C	-0.005254	0.053318	0.721662
C376	C	0.244746	0.303318	0.971662
C377	C	-0.636723	-0.446627	-0.007705
C378	C	-0.386723	-0.196627	0.242295
C379	C	-0.136723	0.053373	0.492295
C380	C	0.113277	0.303373	0.742295
C381	C	-0.636713	-0.393216	-0.007702
C382	C	-0.386713	-0.143216	0.242298
C383	C	-0.136713	0.106784	0.492298
C384	C	0.113287	0.356784	0.742298
C385	C	-0.603843	-0.366523	0.049640
C386	C	-0.353843	-0.116523	0.299640
C387	C	-0.103843	0.133477	0.549640
C388	C	0.146157	0.383477	0.799640
N389	N	-0.571055	0.120700	0.106985
N390	N	-0.321055	0.370700	0.356985
N391	N	-0.071055	0.620700	0.606985
N392	N	0.178945	0.870700	0.856985
C393	C	-0.570156	-0.000059	-0.476780
C394	C	-0.320156	0.249941	-0.226780
C395	C	-0.070156	0.499941	0.023220
C396	C	0.179844	0.749941	0.273220
C397	C	-0.517303	0.000137	-0.428643
C398	C	-0.267303	0.250137	-0.178643
C399	C	-0.017303	0.500137	0.071357
C400	C	0.232697	0.750137	0.321357
C401	C	-0.518257	-0.000055	-0.331965
C402	C	-0.268257	0.249945	-0.081965
C403	C	-0.018257	0.499945	0.168035
C404	C	0.231743	0.749945	0.418035
C405	C	-0.571855	-0.000058	-0.309242
C406	C	-0.321855	0.249942	-0.059242
C407	C	-0.071855	0.499942	0.190758
C408	C	0.178145	0.749942	0.440758
C409	C	-0.597904	-0.048518	-0.350668
C410	C	-0.347904	0.201482	-0.100668
C411	C	-0.097904	0.451482	0.149332
C412	C	0.152096	0.701482	0.399332
C413	C	-0.596576	-0.048559	-0.447286
C414	C	-0.346576	0.201441	-0.197286
C415	C	-0.096576	0.451441	0.052714
C416	C	0.153424	0.701441	0.302714
C417	C	-0.597707	0.047941	-0.447657
C418	C	-0.347707	0.297941	-0.197657
C419	C	-0.097707	0.547941	0.052343
C420	C	0.152293	0.797941	0.302343
C421	C	-0.597695	0.048581	-0.350711
C422	C	-0.347695	0.298581	-0.100711
C423	C	-0.097695	0.548581	0.149289
C424	C	0.152305	0.798581	0.399289
C425	C	-0.572818	-0.000059	-0.214558
C426	C	-0.322818	0.249941	0.035442
C427	C	-0.072818	0.499941	0.285442
C428	C	0.177182	0.749941	0.535442
C429	C	-0.569195	-0.000061	-0.571465
C430	C	-0.319195	0.249939	-0.321465
C431	C	-0.069195	0.499939	-0.071465
C432	C	0.180805	0.749939	0.178535
C433	C	-0.567477	-0.000060	0.260118
C434	C	-0.317477	0.249940	0.510118
C435	C	-0.067477	0.499940	0.760118
C436	C	0.182523	0.749940	1.010118
C437	C	-0.568430	-0.000060	0.353056
C438	C	-0.318430	0.249940	0.603056
C439	C	-0.068430	0.499940	0.853056
C440	C	0.181570	0.749940	1.103056
H441	H	-0.192409	0.130122	0.109113
H442	H	0.057591	0.380122	0.359113
H443	H	0.307591	0.630122	0.609113
H444	H	0.557591	0.880122	0.859113
Br445	Br	-0.460650	-0.482935	0.299497
Br446	Br	-0.210650	-0.232935	0.549497
Br447	Br	0.039350	0.017065	0.799497
Br448	Br	0.289350	0.267065	1.049497
Br449	Br	-0.493482	-0.111307	0.242151
Br450	Br	-0.243482	0.138693	0.492151
Br451	Br	0.006518	0.388693	0.742151
Br452	Br	0.256518	0.638693	0.992151
Br453	Br	-0.493495	-0.237214	0.242166
Br454	Br	-0.243495	0.012786	0.492166
Br455	Br	0.006505	0.262786	0.742166
Br456	Br	0.256505	0.512786	0.992166
Br457	Br	-0.054756	-0.155368	0.106705
Br458	Br	0.195244	0.094632	0.356705
Br459	Br	0.445244	0.344632	0.606705
Br460	Br	0.695244	0.594632	0.856705
Br461	Br	-0.484126	0.057845	-0.284133
Br462	Br	-0.234126	0.307845	-0.034133
Br463	Br	0.015874	0.557845	0.215867
Br464	Br	0.265874	0.807845	0.465867
Br465	Br	-0.566218	0.108343	-0.304336
Br466	Br	-0.316218	0.358343	-0.054336
Br467	Br	-0.066218	0.608343	0.195664
Br468	Br	0.183782	0.858343	0.445664
H469	H	-0.636782	0.051504	-0.335869
H470	H	-0.386782	0.301504	-0.085869
H471	H	-0.136782	0.551504	0.164131
H472	H	0.113218	0.801504	0.414131
H473	H	-0.332837	0.083875	0.111645
H474	H	-0.082837	0.333875	0.361645
H475	H	0.167163	0.583875	0.611645
H476	H	0.417163	0.833875	0.861645
Br477	Br	-0.482124	-0.057279	-0.461232
Br478	Br	-0.232124	0.192721	-0.211232
Br479	Br	0.017876	0.442721	0.038768
Br480	Br	0.267876	0.692721	0.288768
H481	H	-0.478484	-0.371528	0.268352
H482	H	-0.228484	-0.121528	0.518352
H483	H	0.021516	0.128472	0.768352
H484	H	0.271516	0.378472	1.018352
Br485	Br	-0.648521	-0.762903	-0.028182
Br486	Br	-0.398521	-0.512903	0.221818
Br487	Br	-0.148521	-0.262903	0.471818
Br488	Br	0.101479	-0.012903	0.721818
H489	H	-0.635380	-0.050760	-0.480050
H490	H	-0.385380	0.199240	-0.230050
H491	H	-0.135380	0.449240	0.019950
H492	H	0.114620	0.699240	0.269950
Br493	Br	-0.648442	-0.111260	-0.028175
Br494	Br	-0.398442	0.138740	0.221825
Br495	Br	-0.148442	0.388740	0.471825
Br496	Br	0.101558	0.638740	0.721825
Br497	Br	-0.648449	-0.237148	-0.028194
Br498	Br	-0.398449	0.012852	0.221806
Br499	Br	-0.148449	0.262852	0.471806
Br500	Br	0.101551	0.512852	0.721806
Br501	Br	0.296001	-0.109119	0.100507
Br502	Br	0.546001	0.140881	0.350507
Br503	Br	0.796001	0.390881	0.600507
Br504	Br	1.046001	0.640881	0.850507
H505	H	-0.663498	-0.531709	-0.054418
H506	H	-0.413498	-0.281709	0.195582
H507	H	-0.163498	-0.031709	0.445582
H508	H	0.086502	0.218291	0.695582
H509	H	-0.580442	0.084670	-0.467966
H510	H	-0.330442	0.334670	-0.217966
H511	H	-0.080442	0.584670	0.032034
H512	H	0.169558	0.834670	0.282034
Br513	Br	-0.438006	0.108989	0.113495
Br514	Br	-0.188006	0.358989	0.363495
Br515	Br	0.061994	0.608989	0.613495
Br516	Br	0.311994	0.858989	0.863495
Br517	Br	0.064082	-0.155365	0.104597
Br518	Br	0.314082	0.094635	0.354597
Br519	Br	0.564082	0.344635	0.604597
Br520	Br	0.814082	0.594635	0.854597
Br521	Br	-0.567703	-0.108622	-0.302967
Br522	Br	-0.317703	0.141378	-0.052967
Br523	Br	-0.067703	0.391378	0.197033
Br524	Br	0.182297	0.641378	0.447033
H525	H	-0.636676	0.048264	-0.479936
H526	H	-0.386676	0.298264	-0.229936
H527	H	-0.136676	0.548264	0.020064
H528	H	0.113324	0.798264	0.270064
Br529	Br	-0.648531	-0.888808	-0.028179
Br530	Br	-0.398531	-0.638808	0.221821
Br531	Br	-0.148531	-0.388808	0.471821
Br532	Br	0.101469	-0.138808	0.721821
Br533	Br	0.063984	0.155221	0.104595
Br534	Br	0.313984	0.405221	0.354595
Br535	Br	0.563984	0.655221	0.604595
Br536	Br	0.813984	0.905221	0.854595
H537	H	-0.663480	-0.371465	-0.054401
H538	H	-0.413480	-0.121465	0.195599
H539	H	-0.163480	0.128535	0.445599
H540	H	0.086520	0.378535	0.695599
Br541	Br	-0.681337	-0.482847	-0.085533
Br542	Br	-0.431337	-0.232847	0.164467
Br543	Br	-0.181337	0.017153	0.414467
Br544	Br	0.068663	0.267153	0.664467
H545	H	-0.497613	-0.034848	-0.303827
H546	H	-0.247613	0.215152	-0.053827
H547	H	0.002387	0.465152	0.196173
H548	H	0.252387	0.715152	0.446173
Br549	Br	-0.437939	-0.109087	0.113511
Br550	Br	-0.187939	0.140913	0.363511
Br551	Br	0.062061	0.390913	0.613511
Br552	Br	0.312061	0.640913	0.863511
H553	H	-0.637280	-0.050323	-0.337066
H554	H	-0.387280	0.199677	-0.087066
H555	H	-0.137280	0.449677	0.162934
H556	H	0.112720	0.699677	0.412934
H557	H	-0.663505	-0.628604	-0.054420
H558	H	-0.413505	-0.378604	0.195580
H559	H	-0.163505	-0.128604	0.445580
H560	H	0.086495	0.121396	0.695580
Br561	Br	-0.564866	-0.108930	-0.477373
Br562	Br	-0.314866	0.141070	-0.227373
Br563	Br	-0.064866	0.391070	0.022627
Br564	Br	0.185134	0.641070	0.272627
H565	H	-0.496192	0.034889	-0.446893
H566	H	-0.246192	0.284889	-0.196893
H567	H	0.003808	0.534889	0.053107
H568	H	0.253808	0.784889	0.303107
Br569	Br	0.295930	0.108958	0.100526
Br570	Br	0.545930	0.358958	0.350526
Br571	Br	0.795930	0.608958	0.600526
Br572	Br	1.045930	0.858958	0.850526
H573	H	0.190794	0.083850	0.102362
H574	H	0.440794	0.333850	0.352362
H575	H	0.690794	0.583850	0.602362
H576	H	0.940794	0.833850	0.852362
H577	H	-0.332804	-0.083984	0.111634
H578	H	-0.082804	0.166016	0.361634
H579	H	0.167196	0.416016	0.611634
H580	H	0.417196	0.666016	0.861634
Br581	Br	0.177158	-0.109121	0.102618
Br582	Br	0.427158	0.140879	0.352618
Br583	Br	0.677158	0.390879	0.602618
Br584	Br	0.927158	0.640879	0.852618
H585	H	-0.100873	-0.130250	0.107518
H586	H	0.149127	0.119750	0.357518
H587	H	0.399127	0.369750	0.607518
H588	H	0.649127	0.619750	0.857518
Br589	Br	-0.206002	-0.155361	0.109386
Br590	Br	0.043998	0.094639	0.359386
Br591	Br	0.293998	0.344639	0.609386
Br592	Br	0.543998	0.594639	0.859386
H593	H	-0.100951	0.130121	0.107499
H594	H	0.149049	0.380121	0.357499
H595	H	0.399049	0.630121	0.607499
H596	H	0.649049	0.880121	0.857499
Br597	Br	-0.054839	0.155226	0.106696
Br598	Br	0.195161	0.405226	0.356696
Br599	Br	0.445161	0.655226	0.606696
Br600	Br	0.695161	0.905226	0.856696
H601	H	-0.511422	-0.874360	0.211029
H602	H	-0.261422	-0.624360	0.461029
H603	H	-0.011422	-0.374360	0.711029
H604	H	0.238578	-0.124360	0.961029
Br605	Br	-0.493551	-0.762977	0.242156
Br606	Br	-0.243551	-0.512977	0.492156
Br607	Br	0.006449	-0.262977	0.742156
Br608	Br	0.256449	-0.012977	0.992156
H609	H	-0.478515	-0.628667	0.268365
H610	H	-0.228515	-0.378667	0.518365
H611	H	0.021485	-0.128667	0.768365
H612	H	0.271485	0.121333	1.018365
H613	H	-0.478501	-0.531776	0.268360
H614	H	-0.228501	-0.281776	0.518360
H615	H	0.021499	-0.031776	0.768360
H616	H	0.271499	0.218224	1.018360
