data_functionalizedCrystal
_audit_creation_method	'MofGen! by Chris Wilmer'
_symmetry_space_group_name_H-M	'P1'
_symmetry_Int_Tables_number	1
_symmetry_cell_setting	triclinic
loop_
_symmetry_equiv_pos_as_xyz
  x,y,z
_cell_length_a	19.805407
_cell_length_b	10.686285
_cell_length_c	19.805399
_cell_angle_alpha	94.389466
_cell_angle_beta	90.019573
_cell_angle_gamma	85.631507
loop_
_atom_site_label
_atom_site_type_symbol
_atom_site_fract_x
_atom_site_fract_y
_atom_site_fract_z
Zn1	Zn	1.055500	-0.502374	0.362110
Zn2	Zn	1.064136	-0.713385	0.240266
Zn3	Zn	0.942316	-0.502409	0.248934
Zn4	Zn	0.950997	-0.713318	0.353415
O5	O	1.003237	-0.607872	0.301181
O6	O	1.151363	-0.530379	0.345959
O7	O	1.047958	-0.685441	0.146697
O8	O	0.950083	-0.325830	0.271213
O9	O	1.157708	-0.685408	0.256440
O10	O	1.033239	-0.325804	0.354364
O11	O	0.958457	-0.530438	0.153065
O12	O	0.848750	-0.530373	0.262782
O13	O	0.964878	-0.685293	0.449287
O14	O	0.855128	-0.685327	0.339544
O15	O	1.041656	-0.530314	0.455675
O16	O	1.056375	-0.889951	0.248009
O17	O	0.973252	-0.889902	0.331139
C18	C	0.827380	-0.607847	0.301160
C19	C	0.752149	-0.607868	0.301166
C20	C	1.016711	-0.935710	0.287705
C21	C	1.022538	-1.075961	0.281962
C22	C	0.720149	-0.688673	0.341061
C23	C	0.649460	-0.688676	0.341071
C24	C	0.610774	-0.607877	0.301181
C25	C	0.642779	-0.527063	0.261284
C26	C	0.713466	-0.527055	0.261279
C27	C	0.357707	-0.527090	0.261306
C28	C	0.287015	-0.527107	0.261312
C29	C	0.293701	-0.688711	0.341097
C30	C	0.364388	-0.688704	0.341092
C31	C	0.396387	-0.607885	0.301198
C32	C	0.473035	-0.607882	0.301190
C33	C	0.534127	-0.607886	0.301186
C34	C	1.179781	-0.607897	0.301203
C35	C	1.255013	-0.607907	0.301212
C36	C	1.003272	-0.607792	0.477727
C37	C	1.003287	-0.607758	0.552961
C38	C	0.989729	-0.278753	0.314725
C39	C	0.983973	-0.138502	0.320497
C40	C	1.003238	-0.607860	0.125326
C41	C	1.003340	-0.607538	0.050107
C42	C	1.043266	-0.527056	0.591633
C43	C	1.043271	-0.527020	0.662323
C44	C	1.003301	-0.607692	0.694339
C45	C	0.963317	-0.688398	0.655662
C46	C	0.963308	-0.688427	0.584974
C47	C	0.963350	-0.688280	0.940740
C48	C	0.963364	-0.688247	1.011434
C49	C	1.043313	-0.526873	1.018089
C50	C	1.043305	-0.526902	0.947401
C51	C	1.003318	-0.607602	0.908730
C52	C	1.003312	-0.607639	0.832080
C53	C	1.003310	-0.607663	0.770988
H54	H	0.751642	-0.754473	0.373542
C55	C	0.927886	-0.759867	1.116840
C56	C	0.919426	-0.776930	1.046629
H57	H	0.900766	-0.814622	1.138567
H58	H	0.914503	-0.675091	1.131910
H59	H	0.974126	-0.778339	1.127660
H60	H	0.873186	-0.758449	1.035808
H61	H	0.932805	-0.861726	1.031554
H62	H	0.930770	-0.754078	0.681736
H63	H	1.060009	-1.129719	0.244569
C64	C	0.262673	-0.465338	0.149294
C65	C	0.244496	-0.438278	0.217462
H66	H	0.236426	-0.410496	0.122225
H67	H	0.254566	-0.550083	0.135833
H68	H	0.309353	-0.453764	0.143595
H69	H	0.197816	-0.449861	0.223163
H70	H	0.252597	-0.353512	0.230928
C71	C	0.663171	-0.848454	0.419914
C72	C	0.614286	-0.777521	0.384913
H73	H	0.641455	-0.903314	0.446976
H74	H	0.688490	-0.793547	0.448115
H75	H	0.692713	-0.896624	0.388386
H76	H	0.584746	-0.729344	0.416441
H77	H	0.588956	-0.832435	0.356710
H78	H	0.395884	-0.754502	0.373572
C79	C	0.436422	-0.509316	0.170998
C80	C	0.392873	-0.438263	0.217449
H81	H	0.458135	-0.454472	0.143924
H82	H	0.411094	-0.564226	0.142809
H83	H	0.469579	-0.557420	0.194761
H84	H	0.359712	-0.390165	0.193686
H85	H	0.418202	-0.383330	0.245642
C86	C	0.307412	-0.848456	0.419967
C87	C	0.258527	-0.777537	0.384960
H88	H	0.285696	-0.903296	0.447042
H89	H	0.332736	-0.793540	0.448157
H90	H	0.336949	-0.896647	0.388443
H91	H	0.228992	-0.729339	0.416485
H92	H	0.233191	-0.832460	0.356769
H93	H	0.611275	-0.461270	0.228809
H94	H	0.739519	-0.461248	0.228796
H95	H	0.946499	-1.084751	0.357883
H96	H	1.075817	-0.461367	0.565570
C97	C	1.122310	-0.367528	0.661800
C98	C	1.087223	-0.438318	0.704830
H99	H	1.149448	-0.312771	0.688044
H100	H	1.090838	-0.319266	0.636211
H101	H	1.150449	-0.422540	0.631969
H102	H	1.059080	-0.383306	0.734658
H103	H	1.118698	-0.486584	0.730430
C104	C	1.122348	-0.367361	1.017566
C105	C	1.087263	-0.438153	1.060598
H106	H	1.149484	-0.312599	1.043809
H107	H	1.090875	-0.319104	0.991977
H108	H	1.150489	-0.422372	0.987736
H109	H	1.059119	-0.383142	1.090424
H110	H	1.118741	-0.486413	1.086199
C111	C	1.045714	-0.357197	0.874903
C112	C	1.087233	-0.438205	0.912214
H113	H	1.072833	-0.302435	0.853180
H114	H	1.014249	-0.308938	0.904465
H115	H	1.021912	-0.405281	0.841752
H116	H	1.111031	-0.390120	0.945368
H117	H	1.118710	-0.486467	0.882650
H118	H	0.930802	-0.754010	0.909262
C119	C	0.884300	-0.847975	0.585489
C120	C	0.919375	-0.777159	0.542462
H121	H	0.857181	-0.902762	0.559243
H122	H	0.856150	-0.792989	0.615312
H123	H	0.915784	-0.896216	0.611086
H124	H	0.887890	-0.728910	0.516869
H125	H	0.947527	-0.832151	0.512627
