data_functionalizedCrystal
_audit_creation_method	'MofGen! by Chris Wilmer'
_symmetry_space_group_name_H-M	'P1'
_symmetry_Int_Tables_number	1
_symmetry_cell_setting	triclinic
loop_
_symmetry_equiv_pos_as_xyz
  x,y,z
_cell_length_a	14.853566
_cell_length_b	19.188924
_cell_length_c	13.930277
_cell_angle_alpha	89.993371
_cell_angle_beta	89.995631
_cell_angle_gamma	83.388189
loop_
_atom_site_label
_atom_site_type_symbol
_atom_site_fract_x
_atom_site_fract_y
_atom_site_fract_z
O1	O	1.195859	0.091151	-0.079772
O2	O	1.695859	0.591151	0.420228
O3	O	0.933339	0.102011	-0.079788
O4	O	1.433339	0.602011	0.420212
O5	O	1.072178	-0.005050	-0.079768
O6	O	1.572178	0.494950	0.420232
O7	O	1.057020	0.198212	-0.079792
O8	O	1.557020	0.698212	0.420208
O9	O	1.072159	-0.005052	0.079893
O10	O	1.572159	0.494948	0.579893
O11	O	0.933320	0.102009	0.079873
O12	O	1.433320	0.602009	0.579873
O13	O	1.195840	0.091149	0.079890
O14	O	1.695840	0.591149	0.579890
Zn15	Zn	1.064577	0.096578	0.105231
Zn16	Zn	1.564577	0.596578	0.605231
Zn17	Zn	1.064602	0.096581	-0.105130
Zn18	Zn	1.564602	0.596581	0.394870
O19	O	1.057001	0.198209	0.079870
O20	O	1.557001	0.698209	0.579870
C21	C	0.899743	0.101518	0.000041
C22	C	1.399743	0.601518	0.500041
C23	C	0.799668	0.100044	0.000035
C24	C	1.299668	0.600044	0.500035
C25	C	0.376528	0.093810	-0.086979
C26	C	0.876528	0.593810	0.413021
C27	C	0.376529	0.093808	0.087090
C28	C	0.876529	0.593808	0.587090
C29	C	0.470555	0.095192	0.087087
C30	C	0.970555	0.595192	0.587087
C31	C	0.517572	0.095887	0.000049
C32	C	1.017572	0.595887	0.500049
C33	C	0.470563	0.095197	-0.086985
C34	C	0.970563	0.595197	0.413015
C35	C	0.517570	0.095890	0.174120
C36	C	1.017570	0.595890	0.674120
C37	C	0.611602	0.097275	0.174120
C38	C	1.111602	0.597275	0.674120
C39	C	0.658622	0.097964	0.087082
C40	C	1.158622	0.597964	0.587082
C41	C	0.611607	0.097273	0.000044
C42	C	1.111607	0.597273	0.500044
C43	C	0.658624	0.097967	-0.086994
C44	C	1.158624	0.597967	0.413006
C45	C	0.611612	0.097272	-0.174033
C46	C	1.111612	0.597272	0.325967
C47	C	0.517583	0.095886	-0.174024
C48	C	1.017583	0.595886	0.325976
C49	C	0.752651	0.099350	0.087072
C50	C	1.252651	0.599350	0.587072
C51	C	0.752659	0.099354	-0.087000
C52	C	1.252659	0.599354	0.413000
C53	C	1.071679	-0.031064	0.000063
C54	C	1.571679	0.468936	0.500063
C55	C	1.070208	-0.108573	0.000066
C56	C	1.570208	0.391427	0.500066
C57	C	1.069533	-0.144973	-0.086966
C58	C	1.569533	0.355027	0.413034
C59	C	1.068138	-0.217801	-0.086973
C60	C	1.568138	0.282199	0.413027
C61	C	1.067438	-0.254227	0.000056
C62	C	1.567438	0.245773	0.500056
C63	C	1.068109	-0.217818	0.087099
C64	C	1.568109	0.282182	0.587099
C65	C	1.069494	-0.144991	0.087104
C66	C	1.569494	0.355009	0.587104
N67	N	1.116558	-0.373727	0.064833
N68	N	1.616558	0.126273	0.564833
N69	N	1.115244	-0.442910	0.064823
N70	N	1.615244	0.057090	0.564823
C71	C	1.063262	-0.473650	0.000047
C72	C	1.563262	0.026350	0.500047
N73	N	1.012655	-0.432595	-0.064733
N74	N	1.512655	0.067405	0.435267
N75	N	1.013973	-0.363406	-0.064725
N76	N	1.513973	0.136594	0.435275
C77	C	1.065935	-0.333195	0.000060
C78	C	1.565935	0.166805	0.500060
C79	C	1.061073	-0.589018	-0.086999
C80	C	1.561073	-0.089018	0.413001
C81	C	1.059673	-0.661846	-0.087003
C82	C	1.559673	-0.161846	0.412997
C83	C	1.059652	-0.661862	0.087072
C84	C	1.559652	-0.161862	0.587072
C85	C	1.061043	-0.589035	0.087074
C86	C	1.561043	-0.089035	0.587074
C87	C	1.061758	-0.552617	0.000035
C88	C	1.561758	-0.052617	0.500035
C89	C	1.229436	0.091642	0.000059
C90	C	1.729436	0.591642	0.500059
C91	C	1.329511	0.093116	0.000058
C92	C	1.829511	0.593116	0.500058
C93	C	1.057500	0.224223	0.000036
C94	C	1.557500	0.724223	0.500036
C95	C	1.058971	0.301733	0.000027
C96	C	1.558971	0.801733	0.500027
N97	N	1.064566	0.096576	0.248798
N98	N	1.564566	0.596576	0.748798
N99	N	1.064620	0.096578	-0.248696
N100	N	1.564620	0.596578	0.251304
C101	C	1.003122	0.143969	0.701058
C102	C	1.503122	0.643969	1.201058
C103	C	1.126107	0.049188	0.701045
C104	C	1.626107	0.549188	1.201045
C105	C	1.126097	0.049186	0.600549
C106	C	1.626097	0.549186	1.100549
C107	C	1.064599	0.096577	0.550303
C108	C	1.564599	0.596577	1.050303
C109	C	1.003111	0.143970	0.600553
C110	C	1.503111	0.643970	1.100553
C111	C	1.187589	0.001799	0.550292
C112	C	1.687589	0.501799	1.050292
C113	C	1.187581	0.001795	0.449790
C114	C	1.687581	0.501795	0.949790
C115	C	1.126078	0.049183	0.399542
C116	C	1.626078	0.549183	0.899542
C117	C	1.064588	0.096577	0.449798
C118	C	1.564588	0.596577	0.949798
C119	C	1.003090	0.143968	0.399552
C120	C	1.503090	0.643968	0.899552
C121	C	0.941594	0.191360	0.449806
C122	C	1.441594	0.691360	0.949806
C123	C	0.941608	0.191358	0.550305
C124	C	1.441608	0.691358	1.050305
C125	C	1.126064	0.049185	0.299044
C126	C	1.626064	0.549185	0.799044
C127	C	1.003079	0.143969	0.299047
C128	C	1.503079	0.643969	0.799047
H129	H	0.479281	0.095329	0.244981
H130	H	0.979281	0.595329	0.744981
H131	H	0.338247	0.093241	-0.157844
H132	H	0.838247	0.593241	0.342156
O133	O	1.253894	-0.049324	0.395588
O134	O	1.753894	0.450676	0.895588
H135	H	1.296653	-0.082281	0.447413
H136	H	1.796653	0.417719	0.947413
H137	H	0.338241	0.093248	0.157952
H138	H	0.838241	0.593248	0.657952
H139	H	1.067582	-0.247443	-0.157848
H140	H	1.567582	0.252557	0.342152
O141	O	1.058909	-0.701108	-0.180877
O142	O	1.558909	-0.201108	0.319123
H143	H	1.059634	-0.663546	-0.241395
H144	H	1.559634	-0.163546	0.258605
H145	H	1.176137	0.010603	0.258131
H146	H	1.676137	0.510603	0.758131
O147	O	1.070240	-0.105730	0.180981
O148	O	1.570240	0.394270	0.680981
H149	H	1.008541	-0.113547	0.222719
H150	H	1.508541	0.386453	0.722719
O151	O	1.061831	-0.549732	-0.180872
O152	O	1.561831	-0.049732	0.319128
H153	H	1.001035	-0.510382	-0.185030
H154	H	1.501035	-0.010382	0.314970
H155	H	1.176182	0.010607	0.741959
H156	H	1.676182	0.510607	1.241959
O157	O	0.466879	0.095136	-0.267896
O158	O	0.966879	0.595136	0.232104
H159	H	0.476710	0.142948	-0.309642
H160	H	0.976710	0.642948	0.190358
H161	H	1.059075	-0.691519	0.157933
H162	H	1.559075	-0.191519	0.657933
H163	H	0.649872	0.097840	0.244993
H164	H	1.149872	0.597840	0.744993
H165	H	1.061601	-0.559398	0.157945
H166	H	1.561601	-0.059398	0.657945
O167	O	0.803359	0.100105	0.180936
O168	O	1.303359	0.600105	0.680936
H169	H	0.754868	0.099390	0.241459
H170	H	1.254868	0.599390	0.741459
O171	O	0.936738	0.195074	0.244850
O172	O	1.436738	0.695074	0.744850
H173	H	0.974536	0.229062	0.199040
H174	H	1.474536	0.729062	0.699040
H175	H	1.067536	-0.247481	0.157960
H176	H	1.567536	0.252519	0.657960
H177	H	1.070112	-0.115326	-0.157840
H178	H	1.570112	0.384674	0.342160
O179	O	0.875249	0.242463	0.395611
O180	O	1.375249	0.742463	0.895611
H181	H	0.885572	0.234493	0.317286
H182	H	1.385572	0.734493	0.817286
H183	H	0.891541	0.229943	0.591228
H184	H	1.391541	0.729943	1.091228
O185	O	0.936800	0.195088	0.755249
O186	O	1.436800	0.695088	1.255249
H187	H	0.947138	0.187132	0.833575
H188	H	1.447138	0.687132	1.333575
O189	O	1.253919	-0.049313	0.604480
O190	O	1.753919	0.450687	1.104480
H191	H	1.243586	-0.041356	0.682806
H192	H	1.743586	0.458644	1.182806
H193	H	0.790934	0.099917	-0.157877
H194	H	1.290934	0.599917	0.342123
H195	H	0.649905	0.097842	-0.244899
H196	H	1.149905	0.597842	0.255101
