data_functionalizedCrystal
_audit_creation_method	'MofGen! by Chris Wilmer'
_symmetry_space_group_name_H-M	'P1'
_symmetry_Int_Tables_number	1
_symmetry_cell_setting	triclinic
loop_
_symmetry_equiv_pos_as_xyz
  x,y,z
_cell_length_a	19.188930
_cell_length_b	14.519709
_cell_length_c	12.996460
_cell_angle_alpha	89.992910
_cell_angle_beta	89.980533
_cell_angle_gamma	83.412462
loop_
_atom_site_label
_atom_site_type_symbol
_atom_site_fract_x
_atom_site_fract_y
_atom_site_fract_z
O1	O	-0.926556	-0.115137	0.085900
O2	O	-0.723300	-0.130636	0.085830
O3	O	-0.830317	0.011385	0.085857
O4	O	-0.819539	-0.257159	0.085872
O5	O	-0.830306	0.011393	-0.085276
O6	O	-0.723288	-0.130629	-0.085304
O7	O	-0.926545	-0.115129	-0.085234
Cu8	Cu	-0.824915	-0.122878	-0.100895
Cu9	Cu	-0.824929	-0.122887	0.101491
O10	O	-0.819527	-0.257151	-0.085262
C11	C	-0.697281	-0.130131	0.000254
C12	C	-0.619771	-0.128624	0.000227
C13	C	-0.829809	0.045746	0.000290
C14	C	-0.828304	0.148118	0.000289
C15	C	-0.952563	-0.115635	0.000344
C16	C	-1.030073	-0.117142	0.000378
C17	C	-0.575144	-0.211957	0.000247
C18	C	-0.502315	-0.210542	0.000259
C19	C	-0.474117	-0.125788	0.000270
C20	C	-0.518754	-0.042444	0.000243
C21	C	-0.591581	-0.043861	0.000222
N22	N	-0.365910	-0.061007	0.058552
N23	N	-0.296727	-0.059666	0.058575
C24	C	-0.254693	-0.121511	0.000332
N25	N	-0.284455	-0.184762	-0.057920
N26	N	-0.353645	-0.186106	-0.057938
C27	C	-0.395149	-0.124241	0.000292
C28	C	-0.131096	-0.203315	0.000364
C29	C	-0.058266	-0.201896	0.000369
C30	C	-0.074706	-0.033796	0.000364
C31	C	-0.147535	-0.035217	0.000348
C32	C	-0.175725	-0.119980	0.000353
C33	C	-0.820035	-0.291511	0.000308
C34	C	-0.821541	-0.393883	0.000316
N35	N	-0.824911	-0.122871	-0.243242
C36	C	-0.822762	0.522979	0.000314
C37	C	-0.824301	0.418681	0.000307
C38	C	-0.825533	0.335552	0.000300
C39	C	-0.827072	0.231247	0.000295
C40	C	-0.824928	-0.122888	-0.663056
C41	C	-0.824921	-0.122887	-0.546251
C42	C	-0.824920	-0.122880	-0.453153
C43	C	-0.824913	-0.122877	-0.336340
N44	N	-0.824938	-0.122887	0.243838
H45	H	-0.598091	-0.280978	0.000253
H46	H	-0.465973	-0.278404	0.000273
H47	H	-0.021931	-0.269760	0.000380
C48	C	-0.161750	-0.295310	0.000562
C49	C	-0.203096	-0.301055	0.088609
C50	C	-0.231336	-0.385791	0.088830
H51	H	-0.189847	-0.299438	-0.059054
H52	H	-0.124759	-0.344769	0.000622
H53	H	-0.240082	-0.251610	0.088540
H54	H	-0.175015	-0.296943	0.148239
H55	H	-0.194345	-0.435250	0.088889
H56	H	-0.259430	-0.389912	0.029210
H57	H	-0.259387	-0.389704	0.148572
H58	H	-0.051748	0.035213	0.000437
C59	C	-0.195957	0.055292	0.000552
C60	C	-0.183243	0.106326	0.088614
C61	C	-0.227843	0.189706	0.088840
H62	H	-0.187419	0.090172	-0.059053
H63	H	-0.243379	0.042350	0.000594
H64	H	-0.135832	0.119271	0.088563
H65	H	-0.191787	0.071474	0.148234
H66	H	-0.275265	0.176764	0.088882
H67	H	-0.219301	0.224578	0.029231
H68	H	-0.219227	0.224339	0.148593
C69	C	-0.488103	0.049549	0.000471
C70	C	-0.446822	0.055280	0.088543
C71	C	-0.418584	0.140017	0.088790
H72	H	-0.459962	0.053689	-0.059127
H73	H	-0.525095	0.099006	0.000511
H74	H	-0.409835	0.005836	0.088493
H75	H	-0.474946	0.051155	0.148155
H76	H	-0.455576	0.189475	0.088831
H77	H	-0.390447	0.144150	0.029189
H78	H	-0.390577	0.143920	0.148551
C79	C	-0.639922	0.046720	0.000260
C80	C	-0.599644	0.121250	0.000294
C81	C	-0.644153	0.204708	0.000346
H82	H	-0.668671	0.049795	-0.059407
H83	H	-0.668682	0.049707	0.059957
H84	H	-0.570896	0.118265	-0.059397
H85	H	-0.570897	0.118206	0.059956
H86	H	-0.672913	0.207694	0.060043
H87	H	-0.672900	0.207773	-0.059322
H88	H	-0.616831	0.255286	0.000378
