data_functionalizedCrystal
_audit_creation_method	'MofGen! by Chris Wilmer'
_symmetry_space_group_name_H-M	'P1'
_symmetry_Int_Tables_number	1
_symmetry_cell_setting	triclinic
loop_
_symmetry_equiv_pos_as_xyz
  x,y,z
_cell_length_a	17.917559
_cell_length_b	14.560438
_cell_length_c	14.560438
_cell_angle_alpha	60.000069
_cell_angle_beta	89.999262
_cell_angle_gamma	57.010007
loop_
_atom_site_label
_atom_site_type_symbol
_atom_site_fract_x
_atom_site_fract_y
_atom_site_fract_z
Zr1	Zr	0.754922	0.920696	-0.078222
O2	O	0.629795	1.126318	-0.231876
O3	O	0.793279	0.724797	-0.031122
O4	O	0.793279	0.916401	-0.222722
O5	O	0.629795	0.934711	0.110866
O6	O	0.922239	0.901952	-0.215499
O7	O	0.629795	0.934714	-0.040275
O8	O	0.922239	0.559207	0.127240
O9	O	0.629795	1.277456	-0.231873
O10	O	0.905880	0.790989	-0.005640
O11	O	0.809639	0.801769	0.101764
O12	O	0.809639	1.027359	-0.123821
O13	O	0.713398	1.038139	-0.016417
Zr14	Zr	0.960597	0.897648	0.174351
Zr15	Zr	0.960597	0.897652	-0.066702
Zr16	Zr	0.754922	0.920691	0.162830
Zr17	Zr	0.754922	1.161743	-0.078218
Zr18	Zr	0.960597	0.656600	0.174346
O19	O	0.922240	1.093547	0.127250
O20	O	0.922239	1.093553	-0.215495
O21	O	0.629796	1.126312	0.110869
O22	O	1.085724	0.692025	0.328004
O23	O	1.085724	0.692031	-0.014741
O24	O	0.793280	0.724790	0.311624
O25	O	1.085724	0.883632	-0.014737
O26	O	0.922240	0.901943	0.318851
O27	O	0.793280	0.916391	0.311627
O28	O	1.085724	0.883629	0.136404
O29	O	0.793280	1.259139	-0.222716
O30	O	0.922239	0.559204	0.318844
O31	O	1.085724	0.540887	0.328001
O32	O	1.085723	0.540891	0.136397
O33	O	0.629796	1.277453	-0.040269
O34	O	0.793280	1.259136	-0.031111
O35	O	0.905880	0.790985	0.219950
O36	O	1.002121	0.780204	0.112546
O37	O	0.905880	1.016574	-0.005636
O38	O	0.809639	1.027355	0.101768
C39	C	0.857759	0.607658	0.048059
C40	C	0.857759	0.505327	0.048057
C41	C	0.907994	0.451624	-0.008007
C42	C	0.907997	0.355464	-0.007997
C43	C	0.807524	0.366724	0.104143
C44	C	0.807526	0.462875	0.104139
C45	C	0.600491	0.937996	0.033654
C46	C	0.513176	0.947779	0.028763
C47	C	0.362184	0.852711	0.076293
C48	C	0.353343	0.965626	0.019838
C49	C	0.442283	0.955693	0.024806
C50	C	0.273236	0.862642	0.071327
C51	C	1.115028	0.880347	0.062475
C52	C	1.202343	0.870565	0.067365
C53	C	0.857759	0.909177	-0.253455
C54	C	0.857759	0.909179	-0.355788
C55	C	0.857760	1.210685	0.048070
C56	C	0.857760	1.313016	0.048072
C57	C	0.928804	0.901220	-0.399885
C58	C	0.928807	0.901208	-0.496031
C59	C	0.786712	0.917120	-0.503978
C60	C	0.786713	0.917122	-0.407829
C61	C	0.857760	0.909166	0.349584
C62	C	0.857760	0.909164	0.451917
C63	C	1.115028	0.578834	0.062469
C64	C	1.202342	0.466720	0.067358
C65	C	0.857759	0.607652	0.349578
C66	C	0.857759	0.505320	0.451909
C67	C	1.115028	0.578828	0.363988
C68	C	1.202343	0.466713	0.471210
C69	C	0.600491	1.239515	-0.267860
C70	C	0.513176	1.351631	-0.375082
C71	C	0.600491	1.239510	0.033660
C72	C	0.513177	1.351623	0.028771
C73	C	0.857760	1.210691	-0.253450
C74	C	0.857760	1.313024	-0.355781
C75	C	1.193109	0.419700	0.007952
C76	C	1.275143	0.314371	0.012522
C77	C	1.366408	0.256058	0.076506
C78	C	1.375639	0.303088	0.135914
C79	C	1.293607	0.408421	0.131336
C80	C	1.293592	0.408433	0.465499
C81	C	1.375641	0.303102	0.566237
C82	C	1.366439	0.256044	0.672684
C83	C	1.275180	0.314334	0.678392
C84	C	1.193133	0.419670	0.577656
C85	C	0.421927	1.409921	-0.369371
C86	C	0.339878	1.515283	-0.470108
C87	C	0.349080	1.562346	-0.576556
C88	C	0.440339	1.504050	-0.582264
C89	C	0.522386	1.398697	-0.481527
C90	C	0.522410	1.398654	0.088167
C91	C	0.440376	1.504009	0.083570
C92	C	0.349111	1.562325	0.019583
C93	C	0.339880	1.515291	-0.039821
C94	C	0.421912	1.409944	-0.035229
C95	C	0.907995	0.451612	0.561676
C96	C	0.907984	0.355470	0.657823
C97	C	0.807500	0.366747	0.534421
C98	C	0.807506	0.462895	0.438277
H99	H	0.948904	0.311739	-0.053647
H100	H	1.118804	0.467177	-0.044164
O101	O	1.302623	0.453869	0.362148
C102	C	1.353192	0.345555	0.352701
H103	H	1.398514	0.244324	0.441809
H104	H	1.401917	0.354593	0.304781
H105	H	1.300039	0.350161	0.303876
O106	O	1.266123	0.268612	0.781729
C107	C	1.215546	0.218615	0.791247
H108	H	1.170252	0.267128	0.702164
H109	H	1.166793	0.245139	0.839109
H110	H	1.268692	0.103153	0.840165
O111	O	0.269474	1.664705	-0.674517
C112	C	0.297152	1.693726	-0.769703
H113	H	0.372875	1.658771	-0.743422
H114	H	0.245304	1.808208	-0.840502
H115	H	0.295658	1.637670	-0.802157
H116	H	1.267608	0.276093	-0.035855
O117	O	0.956643	0.493072	-0.062627
C118	C	0.892157	0.635031	-0.148860
H119	H	0.816466	0.669836	-0.174983
H120	H	0.913936	0.660227	-0.226268
H121	H	0.893923	0.689820	-0.115061
H122	H	0.265579	1.562731	-0.465438
O123	O	0.450964	0.728598	0.138300
C124	C	0.521274	0.746199	0.129522
H125	H	0.489182	0.851035	0.048195
H126	H	0.584574	0.663998	0.126265
H127	H	0.546922	0.737796	0.207005
H128	H	0.948911	0.486156	0.572782
H129	H	0.447820	1.542382	-0.668945
O130	O	0.610952	1.342177	-0.487288
C131	C	0.601467	1.406337	-0.602846
H132	H	0.528246	1.454174	-0.658207
H133	H	0.660289	1.327632	-0.612977
H134	H	0.608197	1.489085	-0.630796
O135	O	1.446190	0.153756	0.081040
C136	C	1.528730	0.112329	0.150280
H137	H	1.509925	0.198752	0.153657
H138	H	1.586663	0.085848	0.112749
H139	H	1.556347	0.018891	0.240420
H140	H	0.282323	1.648104	0.015854
O141	O	0.997914	0.893424	-0.349434
C142	C	1.060606	0.886429	-0.408993
H143	H	1.057223	0.845908	-0.457270
H144	H	1.137055	0.815146	-0.345575
H145	H	1.038238	0.992572	-0.472293
H146	H	0.596715	1.351180	0.140279
O147	O	0.997895	0.893243	-0.538790
C148	C	1.049869	0.775552	-0.535575
H149	H	1.042916	0.698130	-0.467884
H150	H	1.128727	0.729169	-0.513475
H151	H	1.019992	0.804185	-0.622762
H152	H	0.278977	1.069757	-0.032233
H153	H	0.766625	0.332149	0.149802
H154	H	0.447911	1.542286	0.131948
O155	O	0.717654	0.924788	-0.554366
C156	C	0.654937	0.931841	-0.494838
H157	H	0.693215	0.886660	-0.403709
H158	H	0.632008	0.871685	-0.492537
H159	H	0.588873	1.042878	-0.540131
H160	H	0.265560	1.562788	-0.091918
O161	O	0.956870	0.303387	0.764370
C162	C	1.001202	0.361482	0.755776
H163	H	1.011152	0.399984	0.670535
H164	H	1.074177	0.281169	0.828826
H165	H	0.954126	0.450266	0.761018
O166	O	0.717669	0.925036	-0.364980
C167	C	0.665673	1.042760	-0.368242
H168	H	0.711447	1.074932	-0.369930
H169	H	0.646341	1.019766	-0.289129
H170	H	0.597187	1.128775	-0.448303
O171	O	0.758640	0.514957	0.158614
C172	C	0.714316	0.456856	0.208130
H173	H	0.704361	0.418351	0.161397
H174	H	0.641343	0.537165	0.200878
H175	H	0.761399	0.368073	0.302153
H176	H	0.766587	0.332191	0.523336
H177	H	1.449959	0.255594	0.188007
O178	O	1.302412	0.454272	0.188959
C179	C	1.210446	0.559715	0.171243
H180	H	1.156050	0.607903	0.088668
H181	H	1.211369	0.640474	0.164588
H182	H	1.189554	0.516034	0.246145
H183	H	1.449941	0.255652	0.561569
H184	H	0.766593	0.506629	0.348893
H185	H	1.433255	0.170271	0.754701
O186	O	0.412765	1.364374	-0.092946
C187	C	0.314618	1.438465	-0.150421
H188	H	0.270882	1.482994	-0.106685
H189	H	0.303165	1.367632	-0.147886
H190	H	0.290445	1.524678	-0.243163
O191	O	1.104475	0.476472	0.583154
C192	C	1.053982	0.616864	0.528219
H193	H	1.107198	0.637251	0.526740
H194	H	1.008631	0.649564	0.576685
H195	H	1.005287	0.677302	0.436812
H196	H	0.414416	1.371610	-0.282706
