data_functionalizedCrystal
_audit_creation_method	'MofGen! by Chris Wilmer'
_symmetry_space_group_name_H-M	'P1'
_symmetry_Int_Tables_number	1
_symmetry_cell_setting	triclinic
loop_
_symmetry_equiv_pos_as_xyz
  x,y,z
_cell_length_a	6.394989
_cell_length_b	14.971491
_cell_length_c	14.048226
_cell_angle_alpha	89.991693
_cell_angle_beta	90.003392
_cell_angle_gamma	94.943027
loop_
_atom_site_label
_atom_site_type_symbol
_atom_site_fract_x
_atom_site_fract_y
_atom_site_fract_z
O1	O	-0.272264	1.189889	-0.079195
O2	O	-0.304850	0.929841	-0.079187
O3	O	0.015498	1.063556	-0.079192
O4	O	-0.592612	1.056174	-0.079191
O5	O	0.015517	1.063539	0.079129
O6	O	-0.304831	0.929825	0.079134
O7	O	-0.272245	1.189872	0.079126
Zn8	Zn	-0.288535	1.059846	0.104267
Zn9	Zn	-0.288560	1.059868	-0.104328
O10	O	-0.592593	1.056157	0.079131
C11	C	-0.303382	0.896493	-0.000026
C12	C	-0.299009	0.797149	-0.000023
N13	N	-0.288517	1.059837	0.246628
C14	C	-0.280149	0.369248	-0.086346
C15	C	-0.284252	0.462593	-0.086343
C16	C	-0.286306	0.509252	-0.000038
C17	C	-0.284237	0.462562	0.086268
C18	C	-0.280120	0.369220	0.086263
C19	C	-0.292824	0.657117	0.086272
C20	C	-0.296946	0.750465	0.086276
C21	C	-0.296956	0.750490	-0.086334
C22	C	-0.292839	0.657147	-0.086339
C23	C	-0.290774	0.610464	-0.000032
C24	C	0.093333	1.062088	-0.000035
C25	C	0.329579	1.057627	-0.000036
C26	C	-0.273713	1.223221	-0.000038
C27	C	-0.278086	1.322565	-0.000047
N28	N	-0.288562	1.059883	-0.246689
C29	C	-0.146725	1.119066	0.296444
C30	C	-0.146724	1.119072	0.396101
C31	C	-0.288526	1.059853	0.445941
C32	C	-0.430324	1.000618	0.396118
C33	C	-0.430314	1.000608	0.296462
C34	C	-0.430340	1.000644	0.603832
C35	C	-0.430353	1.000655	0.703495
C36	C	-0.146750	1.119108	0.703471
C37	C	-0.146739	1.119098	0.603815
C38	C	-0.288541	1.059864	0.553999
H39	H	-0.278491	0.331264	-0.156625
H40	H	-0.031284	1.167322	0.563236
O41	O	-0.009288	1.176649	0.444602
C42	C	-0.121397	1.233100	0.502210
H43	H	-0.284708	1.199308	0.517136
H44	H	-0.034280	1.246275	0.572291
H45	H	-0.135856	1.299363	0.463789
O46	O	-0.285957	0.507996	0.170044
C47	C	-0.107550	0.570070	0.175224
H48	H	-0.047903	0.586765	0.100294
H49	H	-0.151106	0.633881	0.211751
H50	H	0.020619	0.539760	0.217815
H51	H	-0.285918	0.500599	-0.156616
O52	O	-0.299300	0.795812	0.170088
C53	C	-0.482423	0.841725	0.175251
H54	H	-0.607540	0.807944	0.126280
H55	H	-0.543125	0.840054	0.251585
H56	H	-0.444686	0.914301	0.152066
H57	H	-0.298641	0.788503	-0.156609
H58	H	-0.545775	0.952396	0.436703
O59	O	-0.568257	0.943044	0.248215
C60	C	-0.693387	0.890763	0.313572
H61	H	-0.695902	0.927469	0.384600
H62	H	-0.860146	0.878989	0.284772
H63	H	-0.625299	0.823557	0.324194
O64	O	-0.290756	0.611963	-0.170258
C65	C	-0.293509	0.673178	-0.246434
H66	H	-0.230369	0.742673	-0.221134
H67	H	-0.190984	0.650753	-0.306791
H68	H	-0.461394	0.675608	-0.272976
O69	O	-0.290917	0.611901	0.170194
C70	C	-0.293568	0.673099	0.246371
H71	H	-0.362579	0.736683	0.221072
H72	H	-0.393714	0.641581	0.306727
H73	H	-0.126559	0.690519	0.272913
O74	O	-0.278218	0.324003	0.170180
C75	C	-0.280863	0.385201	0.246357
H76	H	-0.349885	0.448783	0.221060
H77	H	-0.380996	0.353681	0.306716
H78	H	-0.113851	0.402624	0.272893
H79	H	-0.031263	1.167292	0.255870
H80	H	-0.031290	1.167337	0.744037
H81	H	-0.545821	0.952431	0.744070
H82	H	-0.545803	0.952406	0.563275
