data_functionalizedCrystal
_audit_creation_method	'MofGen! by Chris Wilmer'
_symmetry_space_group_name_H-M	'P1'
_symmetry_Int_Tables_number	1
_symmetry_cell_setting	triclinic
loop_
_symmetry_equiv_pos_as_xyz
  x,y,z
_cell_length_a	19.188925
_cell_length_b	19.188930
_cell_length_c	14.750779
_cell_angle_alpha	77.396187
_cell_angle_beta	102.597157
_cell_angle_gamma	83.143665
loop_
_atom_site_label
_atom_site_type_symbol
_atom_site_fract_x
_atom_site_fract_y
_atom_site_fract_z
O1	O	0.910938	0.102351	-0.079859
O2	O	0.707627	0.114089	-0.079858
O3	O	0.815153	0.006560	-0.079840
O4	O	0.803412	0.209879	-0.079877
O5	O	0.845550	-0.023833	0.079816
O6	O	0.738023	0.083695	0.079798
O7	O	0.941335	0.071957	0.079796
Zn8	Zn	0.844505	0.073000	0.105146
Zn9	Zn	0.804457	0.113045	-0.105207
O10	O	0.833808	0.179485	0.079778
C11	C	0.696814	0.098512	-0.000030
C12	C	0.619310	0.097373	-0.000028
C13	C	0.057537	0.152839	-0.000041
C14	C	0.130359	0.153917	-0.000046
C15	C	0.175296	0.090822	-0.000033
C16	C	0.147401	0.026650	-0.000039
C17	C	0.074578	0.025576	-0.000043
N18	N	0.306322	0.034798	0.054323
N19	N	0.375500	0.035822	0.054329
C20	C	0.394707	0.094054	-0.000022
N21	N	0.342123	0.151232	-0.054368
N22	N	0.272939	0.150209	-0.054370
C23	C	0.254261	0.091979	-0.000029
C24	C	0.501555	0.159392	-0.000029
C25	C	0.574378	0.160468	-0.000040
C26	C	0.591420	0.033197	-0.000023
C27	C	0.518597	0.032125	-0.000021
C28	C	0.473669	0.095223	-0.000020
C29	C	0.829972	-0.034648	-0.000009
C30	C	0.828833	-0.112154	-0.000001
C31	C	0.891925	-0.157080	0.000003
C32	C	0.890850	-0.229901	-0.000012
C33	C	0.826684	-0.257796	-0.000012
C34	C	0.763583	-0.212859	-0.000022
C35	C	0.764657	-0.140038	-0.000016
N36	N	0.787981	-0.376144	0.054322
N37	N	0.786965	-0.445322	0.054318
C38	C	0.823442	-0.477201	-0.000032
N39	N	0.860987	-0.437293	-0.054366
N40	N	0.862006	-0.368110	-0.054359
C41	C	0.825511	-0.336757	-0.000019
C42	C	0.885373	-0.601088	-0.000046
C43	C	0.884294	-0.673909	-0.000067
C44	C	0.757027	-0.656867	-0.000067
C45	C	0.758105	-0.584047	-0.000056
C46	C	0.822281	-0.556162	-0.000040
C47	C	0.952147	0.087534	-0.000034
C48	C	1.029650	0.088674	-0.000041
C49	C	0.818989	0.220694	-0.000054
C50	C	0.820127	0.298201	-0.000069
N51	N	0.871842	0.045670	0.248706
N52	N	0.777125	0.140370	-0.248768
C53	C	0.700776	0.216668	0.600495
C54	C	0.719937	0.197521	0.700998
C55	C	0.815171	0.102340	0.700976
C56	C	0.796016	0.121476	0.600472
C57	C	0.738818	0.178641	0.550239
C58	C	0.834058	0.083449	0.550216
C59	C	0.814906	0.102587	0.449721
C60	C	0.757712	0.159751	0.399481
C61	C	0.719666	0.197779	0.449744
C62	C	0.891259	0.026288	0.600451
C63	C	0.929301	-0.011739	0.550195
C64	C	0.910146	0.007395	0.449697
C65	C	0.852952	0.064559	0.399458
C66	C	0.948192	-0.030632	0.399434
C67	C	0.929040	-0.011495	0.298939
C68	C	0.833800	0.083697	0.298962
H69	H	0.628006	-0.018174	-0.000020
H70	H	0.020960	0.204220	-0.000044
H71	H	0.713279	-0.103459	-0.000019
H72	H	0.464973	0.210771	-0.000029
O73	O	0.870676	0.046732	0.749675
C74	C	0.854843	-0.017683	0.725148
H75	H	0.814031	-0.003632	0.652188
H76	H	0.906767	-0.051553	0.721702
H77	H	0.830930	-0.049953	0.781720
H78	H	0.787219	0.130241	0.258061
H79	H	0.944181	-0.134381	0.000012
H80	H	0.937628	-0.578383	-0.000038
H81	H	0.960019	-0.042460	0.258020
O82	O	0.694763	-0.684079	-0.000030
C83	C	0.707336	-0.757982	-0.000065
H84	H	0.767629	-0.781010	0.030165
H85	H	0.675111	-0.789048	0.046279
H86	H	0.689435	-0.763647	-0.076663
O87	O	0.047428	-0.036738	0.000089
C88	C	0.021574	-0.056922	0.082788
H89	H	0.008516	-0.007084	0.110351
H90	H	-0.029571	-0.081065	0.064194
H91	H	0.064866	-0.098936	0.140691
H92	H	0.742122	0.175334	0.317651
H93	H	0.495893	-0.020126	-0.000016
H94	H	0.673085	0.244323	0.408842
H95	H	0.654195	0.263212	0.559594
O96	O	0.952213	-0.273462	0.000038
C97	C	1.009080	-0.233229	0.000024
H98	H	0.996947	-0.184578	0.030249
H99	H	1.062094	-0.269061	0.046382
H100	H	1.014184	-0.213516	-0.076568
O101	O	0.601360	0.222855	0.000001
C102	C	0.546082	0.278316	-0.000021
H103	H	0.502425	0.253139	0.030206
H104	H	0.569990	0.314301	0.046331
H105	H	0.521134	0.312356	-0.076615
O106	O	0.682878	0.234513	0.749668
C107	C	0.628299	0.289080	0.683777
H108	H	0.613953	0.274099	0.612142
H109	H	0.578045	0.294333	0.712828
H110	H	0.648765	0.342931	0.673081
H111	H	0.994767	-0.077172	0.440347
H112	H	0.153071	0.206167	-0.000037
H113	H	0.935672	-0.710487	-0.000069
O114	O	0.701271	-0.240013	-0.000149
C115	C	0.681092	-0.265859	-0.082849
H116	H	0.730931	-0.278914	-0.110414
H117	H	0.656947	-0.317004	-0.064255
H118	H	0.639082	-0.222561	-0.140750
O119	O	0.696749	-0.540451	-0.000175
C120	C	0.642038	-0.537295	-0.082875
H121	H	0.654102	-0.587337	-0.110449
H122	H	0.587331	-0.535537	-0.064278
H123	H	0.640439	-0.486460	-0.140772
O124	O	0.191096	-0.034570	-0.000152
C125	C	0.217978	-0.022017	-0.082846
H126	H	0.216242	0.038641	-0.110417
H127	H	0.276334	-0.051734	-0.064242
H128	H	0.183098	-0.042807	-0.140747
O129	O	0.909980	0.007623	0.698072
C130	C	0.968613	-0.050992	0.731633
H131	H	0.999200	-0.052239	0.673704
H132	H	1.006798	-0.044185	0.798853
H133	H	0.947253	-0.103949	0.749480
O134	O	0.984806	-0.067346	0.598893
C135	C	0.968973	-0.131762	0.574366
H136	H	0.928160	-0.117711	0.501406
H137	H	1.020896	-0.165631	0.570920
H138	H	0.945060	-0.164031	0.630938
