data_functionalizedCrystal
_audit_creation_method	'MofGen! by Chris Wilmer'
_symmetry_space_group_name_H-M	'P1'
_symmetry_Int_Tables_number	1
_symmetry_cell_setting	triclinic
loop_
_symmetry_equiv_pos_as_xyz
  x,y,z
_cell_length_a	17.038272
_cell_length_b	22.010155
_cell_length_c	17.038272
_cell_angle_alpha	89.996037
_cell_angle_beta	88.888444
_cell_angle_gamma	90.010089
loop_
_atom_site_label
_atom_site_type_symbol
_atom_site_fract_x
_atom_site_fract_y
_atom_site_fract_z
O1	O	1.048767	0.050450	-0.170536
O2	O	1.548767	0.550450	0.329464
O3	O	0.820956	0.050468	-0.167828
O4	O	1.320956	0.550468	0.332172
O5	O	0.933508	0.050454	-0.055276
O6	O	1.433508	0.550454	0.444724
O7	O	0.936216	0.050463	-0.283088
O8	O	1.436216	0.550463	0.216912
O9	O	0.933471	-0.050596	-0.055274
O10	O	1.433471	0.449404	0.444726
O11	O	0.820920	-0.050583	-0.167825
O12	O	1.320920	0.449417	0.332175
O13	O	1.048731	-0.050601	-0.170533
O14	O	1.548731	0.449399	0.329467
Cu15	Cu	0.934822	-0.059818	-0.169179
Cu16	Cu	1.434822	0.440182	0.330821
Cu17	Cu	0.934865	0.059685	-0.169182
Cu18	Cu	1.434865	0.559685	0.330818
O19	O	0.936179	-0.050587	-0.283085
O20	O	1.436179	0.449413	0.216915
C21	C	0.791645	-0.000055	-0.165364
C22	C	1.291645	0.499945	0.334636
C23	C	0.704361	-0.000049	-0.158016
C24	C	1.204361	0.499951	0.341984
N25	N	0.934797	-0.143871	-0.169177
N26	N	1.434797	0.356129	0.330823
C27	C	0.658752	-0.000046	-0.225479
C28	C	1.158752	0.499954	0.274521
C29	C	0.576740	-0.000055	-0.218570
C30	C	1.076740	0.499945	0.281430
C31	C	0.540339	-0.000062	-0.144197
C32	C	1.040339	0.499938	0.355803
C33	C	0.585954	-0.000066	-0.076728
C34	C	1.085954	0.499934	0.423272
C35	C	0.667965	-0.000062	-0.083638
C36	C	1.167965	0.499938	0.416362
C37	C	0.292951	-0.000079	-0.119787
C38	C	0.792951	0.499921	0.380213
C39	C	0.210935	-0.000081	-0.112882
C40	C	0.710935	0.499919	0.387118
C41	C	0.201726	-0.000072	-0.254725
C42	C	0.701726	0.499928	0.245275
C43	C	0.283739	-0.000064	-0.261628
C44	C	0.783739	0.499936	0.238372
C45	C	0.329347	-0.000071	-0.194159
C46	C	0.829347	0.499929	0.305841
C47	C	0.456510	-0.000069	-0.137133
C48	C	0.956510	0.499931	0.362867
C49	C	0.413174	-0.000069	-0.201224
C50	C	0.913174	0.499931	0.298776
C51	C	0.985664	-0.563652	-0.220000
C52	C	1.485664	-0.063652	0.280000
C53	C	0.985673	-0.627260	-0.219999
C54	C	1.485673	-0.127260	0.280001
O55	O	1.028893	-0.660153	-0.263204
O56	O	1.528893	-0.160153	0.236796
N57	N	0.934880	-0.659078	-0.169174
N58	N	1.434880	-0.159078	0.330826
C59	C	0.884079	-0.627285	-0.118342
C60	C	1.384079	-0.127285	0.381658
O61	O	0.840877	-0.660190	-0.075111
O62	O	1.340877	-0.160190	0.424889
C63	C	0.884075	-0.563679	-0.118340
C64	C	1.384075	-0.063679	0.381660
C65	C	0.934866	-0.531864	-0.169174
C66	C	1.434866	-0.031864	0.330826
C67	C	1.036452	-0.531837	-0.270829
C68	C	1.536452	-0.031837	0.229171
C69	C	1.036441	-0.468234	-0.270831
C70	C	1.536441	0.031766	0.229169
C71	C	0.985643	-0.436446	-0.220005
C72	C	1.485643	0.063554	0.279995
C73	C	0.934856	-0.468261	-0.169176
C74	C	1.434856	0.031739	0.330824
C75	C	0.833279	-0.531887	-0.067504
C76	C	1.333279	-0.031887	0.432496
C77	C	0.833279	-0.468277	-0.067506
C78	C	1.333279	0.031723	0.432494
C79	C	0.884070	-0.436462	-0.118340
C80	C	1.384070	0.063538	0.381660
C81	C	0.884047	-0.372869	-0.118351
C82	C	1.384047	0.127131	0.381649
N83	N	0.934841	-0.341051	-0.169176
N84	N	1.434841	0.158949	0.330824
C85	C	0.985639	-0.372839	-0.220003
C86	C	1.485639	0.127161	0.279997
C87	C	0.884094	-0.760863	-0.118349
C88	C	1.384094	-0.260863	0.381651
C89	C	0.884094	-0.824468	-0.118354
C90	C	1.384094	-0.324468	0.381646
C91	C	0.985689	-0.824439	-0.220011
C92	C	1.485689	-0.324439	0.279989
C93	C	0.985684	-0.760832	-0.220009
C94	C	1.485684	-0.260832	0.279991
C95	C	0.934887	-0.729045	-0.169174
C96	C	1.434887	-0.229045	0.330826
C97	C	0.985613	-0.239268	-0.220004
C98	C	1.485613	0.260732	0.279996
C99	C	0.985595	-0.175659	-0.220004
C100	C	1.485595	0.324341	0.279996
C101	C	0.884004	-0.175695	-0.118345
C102	C	1.384004	0.324305	0.381655
C103	C	0.884018	-0.239298	-0.118347
C104	C	1.384018	0.260702	0.381653
C105	C	0.934828	-0.271083	-0.169180
C106	C	1.434828	0.228917	0.330820
O107	O	0.840852	-0.339936	-0.075166
O108	O	1.340852	0.160064	0.424834
O109	O	1.028841	-0.339927	-0.263219
O110	O	1.528841	0.160073	0.236781
C111	C	1.078042	-0.000076	-0.172997
C112	C	1.578042	0.499924	0.327003
C113	C	1.165326	-0.000079	-0.180346
C114	C	1.665326	0.499921	0.319654
C115	C	0.931027	-0.000071	-0.025982
C116	C	1.431027	0.499929	0.474018
C117	C	0.923679	-0.000070	0.061301
C118	C	1.423679	0.499930	0.561301
N119	N	0.934895	0.143738	-0.169179
N120	N	1.434895	0.643738	0.330821
C121	C	0.938660	-0.000061	-0.312379
C122	C	1.438660	0.499939	0.187621
C123	C	0.946008	-0.000058	-0.399663
C124	C	1.446008	0.499942	0.100337
C125	C	0.991142	-0.000076	0.106911
C126	C	1.491142	0.499924	0.606911
C127	C	0.984233	-0.000070	0.188923
C128	C	1.484233	0.499930	0.688923
C129	C	0.909860	-0.000062	0.225324
C130	C	1.409860	0.499938	0.725324
C131	C	0.842391	-0.000054	0.179708
C132	C	1.342391	0.499946	0.679708
C133	C	0.849301	-0.000056	0.097698
C134	C	1.349301	0.499944	0.597698
C135	C	0.885449	-0.000052	0.472712
C136	C	1.385449	0.499948	0.972712
C137	C	0.878545	-0.000052	0.554728
C138	C	1.378545	0.499948	1.054728
C139	C	1.020387	-0.000066	0.563937
C140	C	1.520387	0.499934	1.063937
C141	C	1.027291	-0.000072	0.481924
C142	C	1.527291	0.499928	0.981924
C143	C	0.959822	-0.000061	0.436316
C144	C	1.459822	0.499939	0.936316
C145	C	0.902796	-0.000057	0.309153
C146	C	1.402796	0.499943	0.809153
C147	C	0.966886	-0.000061	0.352488
C148	C	1.466886	0.499939	0.852488
H149	H	0.688384	-0.000041	-0.286042
H150	H	1.188384	0.499959	0.213958
H151	H	0.181300	-0.000086	-0.052315
H152	H	0.681300	0.499914	0.447685
Cl153	Cl	1.105199	-0.000078	0.621277
Cl154	Cl	1.605199	0.499922	1.121277
H155	H	0.842650	-0.265203	-0.076964
H156	H	1.342650	0.234797	0.423036
H157	H	0.817978	-0.000055	0.584363
H158	H	1.317978	0.499945	1.084363
H159	H	0.842722	-0.734986	-0.076955
H160	H	1.342722	-0.234986	0.423045
H161	H	1.027051	-0.850332	-0.261398
H162	H	1.527051	-0.350332	0.238602
Cl163	Cl	0.519406	-0.000048	-0.303386
Cl164	Cl	1.019406	0.499952	0.196614
Cl165	Cl	0.764486	-0.000046	0.040360
Cl166	Cl	1.264486	0.499954	0.540360
Cl167	Cl	0.769423	-0.571868	-0.003594
Cl168	Cl	1.269423	-0.071868	0.496406
H169	H	1.027441	-0.000054	0.322847
H170	H	1.527441	0.499946	0.822847
Cl171	Cl	0.350276	-0.000088	-0.034967
Cl172	Cl	0.850276	0.499912	0.465033
H173	H	0.313370	-0.000051	-0.322190
H174	H	0.813370	0.499949	0.177810
Cl175	Cl	1.100320	-0.571788	-0.334736
Cl176	Cl	1.600320	-0.071788	0.165264
H177	H	0.556310	-0.000080	-0.016172
H178	H	1.056310	0.499920	0.483828
Cl179	Cl	1.049542	-0.720843	-0.283913
Cl180	Cl	1.549542	-0.220843	0.216087
Cl181	Cl	0.820228	-0.864456	-0.054458
Cl182	Cl	1.320228	-0.364456	0.445542
H183	H	0.791914	-0.442399	-0.026109
H184	H	1.291914	0.057601	0.473891
H185	H	0.842241	-0.000052	0.338800
H186	H	1.342241	0.499948	0.838800
H187	H	1.039170	-0.000076	0.226054
H188	H	1.539170	0.499924	0.726054
H189	H	0.842643	-0.149801	-0.076965
H190	H	1.342643	0.350199	0.423035
H191	H	1.051705	-0.000086	0.077279
H192	H	1.551705	0.499914	0.577279
H193	H	0.705099	-0.000063	-0.028702
H194	H	1.205099	0.499937	0.471298
H195	H	0.164583	-0.000067	-0.309653
H196	H	0.664583	0.499933	0.190347
Cl197	Cl	0.458937	-0.000062	-0.294718
Cl198	Cl	0.958937	0.499938	0.205282
H199	H	1.087853	-0.000078	0.452293
H200	H	1.587853	0.499922	0.952293
H201	H	0.426863	-0.000091	-0.076578
H202	H	0.926863	0.499909	0.423422
H203	H	0.830511	-0.000043	0.435587
H204	H	1.330511	0.499957	0.935587
H205	H	1.026988	-0.265140	-0.261396
H206	H	1.526988	0.234860	0.238604
Cl207	Cl	0.748893	-0.000037	0.225470
Cl208	Cl	1.248893	0.499963	0.725470
H209	H	1.026956	-0.149758	-0.261402
H210	H	1.526956	0.350242	0.238598
H211	H	1.077804	-0.442336	-0.312222
H212	H	1.577804	0.057664	0.187778
