data_functionalizedCrystal
_audit_creation_method	'MofGen! by Chris Wilmer'
_symmetry_space_group_name_H-M	'P1'
_symmetry_Int_Tables_number	1
_symmetry_cell_setting	triclinic
loop_
_symmetry_equiv_pos_as_xyz
  x,y,z
_cell_length_a	15.624803
_cell_length_b	17.699083
_cell_length_c	16.776229
_cell_angle_alpha	90.007545
_cell_angle_beta	71.906887
_cell_angle_gamma	96.221725
loop_
_atom_site_label
_atom_site_type_symbol
_atom_site_fract_x
_atom_site_fract_y
_atom_site_fract_z
O1	O	1.196122	-0.098760	-0.412132
O2	O	0.933593	-0.110543	-0.336228
O3	O	1.072274	0.005519	-0.376317
O4	O	1.057440	-0.214822	-0.372042
O5	O	1.072256	0.005526	-0.243736
O6	O	0.933575	-0.110536	-0.203646
O7	O	1.196103	-0.098752	-0.279551
Zn8	Zn	1.064836	-0.104643	-0.220548
Zn9	Zn	1.064860	-0.104653	-0.395230
O10	O	1.057422	-0.214815	-0.239461
C11	C	0.899994	-0.110008	-0.260225
C12	C	0.799906	-0.108414	-0.231286
C13	C	0.470874	-0.103152	-0.497542
C14	C	0.376829	-0.101639	-0.470349
C15	C	0.376786	-0.101631	-0.325808
C16	C	0.470834	-0.103140	-0.352989
C17	C	0.517870	-0.103901	-0.438857
C18	C	0.517830	-0.103889	-0.294303
C19	C	0.611869	-0.105401	-0.321482
C20	C	0.658912	-0.106165	-0.407347
C21	C	0.611909	-0.105413	-0.466036
C22	C	0.470791	-0.103133	-0.208435
C23	C	0.517787	-0.103882	-0.149749
C24	C	0.611828	-0.105389	-0.176928
C25	C	0.658871	-0.106153	-0.262793
C26	C	0.658831	-0.106141	-0.118239
C27	C	0.752870	-0.107653	-0.145418
C28	C	0.752910	-0.107665	-0.289972
C29	C	1.071734	0.033721	-0.309873
C30	C	1.070139	0.117743	-0.309411
C31	C	1.229702	-0.099288	-0.355555
C32	C	1.329790	-0.100881	-0.384499
C33	C	1.057963	-0.243016	-0.305907
C34	C	1.059557	-0.327039	-0.306374
N35	N	1.064826	-0.104636	-0.101334
C36	C	1.151542	0.166157	-0.332946
C37	C	1.150038	0.245104	-0.332519
C38	C	1.067131	0.275636	-0.308550
C39	C	0.985721	0.227216	-0.285016
C40	C	0.987226	0.148270	-0.285449
C41	C	0.979652	0.545594	-0.283267
C42	C	0.978153	0.624546	-0.282833
C43	C	1.142464	0.642428	-0.330336
C44	C	1.143969	0.563482	-0.330770
C45	C	1.062560	0.515069	-0.307240
C46	C	1.064191	0.429466	-0.307706
C47	C	1.065498	0.361238	-0.308078
N48	N	1.064877	-0.104653	-0.514446
C49	C	1.126253	-0.053265	-0.077374
C50	C	1.126258	-0.053264	0.006077
C51	C	1.064840	-0.104639	0.065565
C52	C	1.003406	-0.156013	0.041601
C53	C	1.003398	-0.156009	-0.041847
C54	C	1.003439	-0.156028	0.378139
C55	C	1.003454	-0.156029	0.461591
C56	C	1.126299	-0.053283	0.426063
C57	C	1.126290	-0.053279	0.342615
C58	C	1.064854	-0.104650	0.318659
C59	C	1.064849	-0.104649	0.228172
C60	C	1.064849	-0.104644	0.156049
H61	H	0.509175	-0.103769	-0.567465
C62	C	0.936667	-0.211871	-0.067708
C63	C	0.882897	-0.256879	0.002243
C64	C	0.821419	-0.308353	-0.021549
H65	H	0.899109	-0.184675	-0.089393
H66	H	0.969001	-0.243467	-0.109608
H67	H	0.850565	-0.225287	0.044128
H68	H	0.920430	-0.284092	0.023936
H69	H	0.853753	-0.339949	-0.063448
H70	H	0.783868	-0.281150	-0.043234
H71	H	0.784935	-0.338901	0.025907
H72	H	1.176275	-0.011434	0.025583
C73	C	1.230826	0.695029	-0.356051
C74	C	1.234789	0.740850	-0.425417
C75	C	1.316177	0.789305	-0.449132
H76	H	1.233735	0.726277	-0.310716
H77	H	1.280443	0.665564	-0.370435
H78	H	1.185186	0.770312	-0.411030
H79	H	1.231895	0.709622	-0.470768
H80	H	1.365793	0.759840	-0.463516
H81	H	1.319079	0.820548	-0.403792
H82	H	1.318880	0.820395	-0.496204
H83	H	0.920939	0.108852	-0.266285
H84	H	0.620518	-0.105529	-0.048324
H85	H	1.176270	-0.011433	-0.125807
C86	C	1.241585	0.133053	-0.359144
C87	C	1.290780	0.157629	-0.441588
C88	C	1.373729	0.127143	-0.465759
H89	H	1.275201	0.149651	-0.322687
H90	H	1.230863	0.079099	-0.356086
H91	H	1.301506	0.211571	-0.444640
H92	H	1.257192	0.141032	-0.478065
H93	H	1.363006	0.073189	-0.462700
H94	H	1.407336	0.143743	-0.429296
H95	H	1.407114	0.143808	-0.521701
C96	C	0.804037	-0.108348	-0.081804
C97	C	0.868342	-0.044163	-0.096180
C98	C	0.915503	-0.044786	-0.037602
H99	H	0.762668	-0.107638	-0.026736
H100	H	0.833794	-0.153017	-0.087397
H101	H	0.838586	0.000495	-0.090579
H102	H	0.909730	-0.044859	-0.151236
H103	H	0.945260	-0.089456	-0.043195
H104	H	0.874127	-0.044079	0.017462
H105	H	0.959144	-0.001242	-0.047352
C106	C	0.325971	-0.100795	-0.534203
C107	C	0.387298	-0.101771	-0.615218
C108	C	0.340482	-0.100990	-0.674058
H109	H	0.282307	-0.144297	-0.524696
H110	H	0.296288	-0.056089	-0.528677
H111	H	0.416967	-0.146473	-0.620741
H112	H	0.430964	-0.058273	-0.624751
H113	H	0.310799	-0.056284	-0.668532
H114	H	0.296819	-0.144493	-0.664544
H115	H	0.382086	-0.101645	-0.729033
C116	C	1.193093	0.002537	0.451903
C117	C	1.246893	0.047514	0.381939
C118	C	1.308438	0.098935	0.405706
H119	H	1.160839	0.034165	0.493794
H120	H	1.230616	-0.024724	0.473582
H121	H	1.209375	0.074774	0.360273
H122	H	1.279167	0.015908	0.340040
H123	H	1.345962	0.071674	0.427385
H124	H	1.276177	0.130558	0.447599
H125	H	1.344955	0.129454	0.358239
H126	H	0.953437	-0.197866	0.510028
H127	H	1.216325	0.284520	-0.351681
C128	C	1.192749	0.002669	0.278069
C129	C	1.144697	0.049047	0.244151
C130	C	1.205851	0.100651	0.184729
H131	H	1.229276	0.033331	0.304280
H132	H	1.230293	-0.024454	0.234545
H133	H	1.107169	0.076168	0.287668
H134	H	1.108173	0.018406	0.217925
H135	H	1.243394	0.073528	0.141205
H136	H	1.242375	0.131308	0.210946
H137	H	1.173257	0.132120	0.161703
H138	H	0.735483	-0.107401	-0.429474
H139	H	0.953417	-0.197857	0.358641
H140	H	0.953394	-0.197841	0.090043
H141	H	0.918216	0.252081	-0.265505
H142	H	0.394218	-0.101906	-0.186308
C143	C	0.803919	-0.108648	-0.383204
C144	C	0.770776	-0.173356	-0.417222
C145	C	0.817753	-0.174296	-0.503097
H146	H	0.795537	-0.064354	-0.410573
H147	H	0.866657	-0.109700	-0.391012
H148	H	0.708054	-0.172298	-0.409420
H149	H	0.779159	-0.217662	-0.389877
H150	H	0.880491	-0.175348	-0.510905
H151	H	0.809368	-0.129998	-0.530457
H152	H	0.795278	-0.218203	-0.526187
H153	H	0.650210	-0.106030	-0.535958
H154	H	0.479477	-0.103265	-0.079835
C155	C	0.325847	-0.100685	-0.232562
C156	C	0.359024	-0.035993	-0.198544
C157	C	0.312132	-0.035099	-0.112647
H158	H	0.263102	-0.099639	-0.224664
H159	H	0.334292	-0.145008	-0.205263
H160	H	0.350571	0.008318	-0.225835
H161	H	0.421763	-0.037026	-0.206419
H162	H	0.320577	-0.079421	-0.085347
H163	H	0.249389	-0.034054	-0.104757
H164	H	0.334641	0.008790	-0.089553
H165	H	1.211480	0.538628	-0.350284
C166	C	0.888107	0.657654	-0.256973
C167	C	0.838934	0.633068	-0.310980
C168	C	0.755990	0.663560	-0.287191
H169	H	0.854472	0.641068	-0.201074
H170	H	0.898835	0.711608	-0.260115
H171	H	0.828203	0.579126	-0.307829
H172	H	0.872541	0.649653	-0.366881
H173	H	0.766719	0.717514	-0.290334
H174	H	0.722364	0.646972	-0.231292
H175	H	0.722620	0.646889	-0.323835
C176	C	0.891293	0.493005	-0.257887
C177	C	0.887348	0.447168	-0.324966
C178	C	0.805955	0.398718	-0.301619
H179	H	0.888365	0.461769	-0.210863
H180	H	0.841681	0.522475	-0.243584
H181	H	0.936947	0.417701	-0.339257
H182	H	0.890261	0.478384	-0.371996
H183	H	0.756343	0.428188	-0.287316
H184	H	0.803034	0.367487	-0.254595
H185	H	0.803264	0.367617	-0.347130
