data_functionalizedCrystal
_audit_creation_method	'MofGen! by Chris Wilmer'
_symmetry_space_group_name_H-M	'P1'
_symmetry_Int_Tables_number	1
_symmetry_cell_setting	triclinic
loop_
_symmetry_equiv_pos_as_xyz
  x,y,z
_cell_length_a	14.971487
_cell_length_b	14.971486
_cell_length_c	13.448316
_cell_angle_alpha	89.997568
_cell_angle_beta	89.997662
_cell_angle_gamma	83.614266
loop_
_atom_site_label
_atom_site_type_symbol
_atom_site_fract_x
_atom_site_fract_y
_atom_site_fract_z
O1	O	-1.186950	-0.116562	0.082550
O2	O	-0.686950	0.383438	0.582550
O3	O	-0.926550	-0.130520	0.082583
O4	O	-0.426550	0.369480	0.582583
O5	O	-1.063729	0.006659	0.082559
O6	O	-0.563729	0.506659	0.582559
O7	O	-1.049771	-0.253741	0.082575
O8	O	-0.549771	0.246259	0.582575
O9	O	-1.063706	0.006656	-0.082825
O10	O	-0.563706	0.506656	0.417175
O11	O	-0.926527	-0.130523	-0.082801
O12	O	-0.426527	0.369477	0.417199
O13	O	-1.186927	-0.116565	-0.082834
O14	O	-0.686927	0.383435	0.417166
Cu15	Cu	-1.056725	-0.123545	-0.097918
Cu16	Cu	-0.556725	0.376455	0.402082
Cu17	Cu	-1.056752	-0.123540	0.097667
Cu18	Cu	-0.556752	0.376460	0.597667
O19	O	-1.049747	-0.253744	-0.082809
O20	O	-0.549747	0.246256	0.417191
C21	C	-0.893214	-0.129897	-0.000104
C22	C	-0.393214	0.370103	0.499896
C23	C	-0.793917	-0.128026	-0.000092
C24	C	-0.293917	0.371974	0.499908
C25	C	-0.736691	-0.208615	-0.000087
C26	C	-0.236691	0.291385	0.499913
C27	C	-0.643392	-0.206852	-0.000100
C28	C	-0.143392	0.293148	0.499900
C29	C	-0.607320	-0.124499	-0.000110
C30	C	-0.107320	0.375501	0.499890
C31	C	-0.664552	-0.043903	-0.000118
C32	C	-0.164552	0.456097	0.499882
C33	C	-0.757850	-0.045668	-0.000112
C34	C	-0.257850	0.454332	0.499888
C35	C	-0.470090	-0.040232	-0.000127
C36	C	0.029910	0.459768	0.499873
C37	C	-0.376786	-0.038467	-0.000131
C38	C	0.123214	0.461533	0.499869
C39	C	-0.355632	-0.201416	-0.000115
C40	C	0.144368	0.298584	0.499885
C41	C	-0.448929	-0.203181	-0.000109
C42	C	0.051071	0.296819	0.499891
C43	C	-0.506156	-0.122585	-0.000115
C44	C	-0.006156	0.377415	0.499885
C45	C	-1.063094	0.039982	-0.000133
C46	C	-0.563094	0.539982	0.499867
C47	C	-1.061223	0.139279	-0.000132
C48	C	-0.561223	0.639279	0.499868
N49	N	-1.056712	-0.123547	-0.235482
N50	N	-0.556712	0.376453	0.264518
C51	C	-0.220263	-0.117187	-0.000138
C52	C	0.279737	0.382813	0.499862
C53	C	-0.319560	-0.119056	-0.000126
C54	C	0.180440	0.380944	0.499874
C55	C	-1.050383	-0.287067	-0.000116
C56	C	-0.550383	0.212933	0.499884
C57	C	-1.052254	-0.386364	-0.000110
C58	C	-0.552254	0.113636	0.499890
C59	C	-1.141812	0.196504	-0.000143
C60	C	-0.641812	0.696504	0.499857
C61	C	-1.140049	0.289804	-0.000133
C62	C	-0.640049	0.789804	0.499867
C63	C	-1.057696	0.325876	-0.000118
C64	C	-0.557696	0.825876	0.499882
C65	C	-0.977100	0.268644	-0.000104
C66	C	-0.477100	0.768644	0.499896
C67	C	-0.978864	0.175346	-0.000108
C68	C	-0.478864	0.675346	0.499892
C69	C	-0.973429	0.463106	-0.000100
C70	C	-0.473429	0.963106	0.499900
C71	C	-0.971665	0.556411	-0.000099
C72	C	-0.471665	1.056411	0.499901
C73	C	-1.134614	0.577564	-0.000125
C74	C	-0.634614	1.077564	0.499875
C75	C	-1.136378	0.484266	-0.000128
C76	C	-0.636378	0.984266	0.499872
C77	C	-1.055782	0.427040	-0.000116
C78	C	-0.555782	0.927040	0.499884
C79	C	-1.117524	-0.062813	-0.712712
C80	C	-0.617524	0.437187	-0.212712
C81	C	-1.117516	-0.062819	-0.608608
C82	C	-0.617516	0.437181	-0.108608
C83	C	-1.056752	-0.123539	-0.556564
C84	C	-0.556752	0.376461	-0.056564
C85	C	-0.995997	-0.184264	-0.608628
C86	C	-0.495997	0.315736	-0.108628
C87	C	-0.996010	-0.184262	-0.712729
C88	C	-0.496010	0.315738	-0.212729
C89	C	-0.995974	-0.184263	-0.391647
C90	C	-0.495974	0.315737	0.108353
C91	C	-0.995960	-0.184265	-0.287539
C92	C	-0.495960	0.315735	0.212461
C93	C	-1.117481	-0.062821	-0.287527
C94	C	-0.617481	0.437179	0.212473
C95	C	-1.117493	-0.062818	-0.391628
C96	C	-0.617493	0.437182	0.108372
C97	C	-1.056737	-0.123542	-0.443685
C98	C	-0.556737	0.376458	0.056315
N99	N	-1.056772	-0.123531	0.235232
N100	N	-0.556772	0.376469	0.735232
H101	H	-0.309033	-0.267040	-0.000114
H102	H	0.190967	0.232960	0.499886
H103	H	-0.347419	0.028592	-0.000141
H104	H	0.152581	0.528592	0.499859
H105	H	-0.516682	0.025398	-0.000134
H106	H	-0.016682	0.525398	0.499866
H107	H	-0.913240	0.128754	-0.000098
H108	H	-0.413240	0.628754	0.499902
C109	C	-0.624869	0.046686	-0.000131
C110	C	-0.124869	0.546686	0.499869
N111	N	-0.594981	0.114921	-0.000137
N112	N	-0.094981	0.614921	0.499863
H113	H	-0.904606	0.585777	-0.000104
H114	H	-0.404606	1.085777	0.499896
H115	H	-0.804443	0.019956	-0.000116
H116	H	-0.304443	0.519956	0.499884
C117	C	-1.184344	0.003980	-0.551351
C118	C	-0.684344	0.503980	-0.051351
N119	N	-1.234680	0.054297	-0.508225
N120	N	-0.734680	0.554297	-0.008225
C121	C	-1.232408	0.156834	-0.000158
C122	C	-0.732408	0.656834	0.499842
N123	N	-1.300648	0.126958	-0.000166
N124	N	-0.800648	0.626958	0.499834
C125	C	-1.184326	0.003963	-0.230263
C126	C	-0.684326	0.503963	0.269737
N127	N	-1.234673	0.054262	-0.187127
N128	N	-0.734673	0.554262	0.312873
H129	H	-0.946480	-0.233711	-0.245169
H130	H	-0.446480	0.266289	0.254831
C131	C	-0.776361	-0.299212	-0.000077
C132	C	-0.276361	0.200788	0.499923
N133	N	-0.806238	-0.367452	-0.000075
N134	N	-0.306238	0.132548	0.499925
H135	H	-1.205673	0.336394	-0.000144
H136	H	-0.705673	0.836394	0.499856
H137	H	-0.946540	-0.233705	-0.755112
H138	H	-0.446540	0.266295	-0.255112
C139	C	-1.226970	0.444589	-0.000149
C140	C	-0.726970	0.944589	0.499851
N141	N	-1.295206	0.414704	-0.000161
N142	N	-0.795206	0.914704	0.499839
H143	H	-0.596802	-0.272476	-0.000095
H144	H	-0.096802	0.227524	0.499905
C145	C	-0.884769	0.400159	-0.000092
C146	C	-0.384769	0.900159	0.499908
N147	N	-0.817991	0.352748	-0.000093
N148	N	-0.317991	0.852748	0.499907
H149	H	-0.910047	0.298021	-0.000087
H150	H	-0.410047	0.798021	0.499913
H151	H	-1.166967	-0.013371	-0.434003
H152	H	-0.666967	0.486629	0.065997
H153	H	-1.200238	0.624162	-0.000132
H154	H	-0.700238	1.124162	0.499868
C155	C	-1.184368	0.003988	-0.769951
C156	C	-0.684368	0.503988	-0.269951
N157	N	-1.234719	0.054303	-0.813061
N158	N	-0.734719	0.554303	-0.313061
H159	H	-0.946503	-0.233714	-0.434029
H160	H	-0.446503	0.266286	0.065971
H161	H	-0.478296	-0.270240	-0.000091
H162	H	0.021704	0.229760	0.499909
C163	C	-0.929155	-0.251057	-0.551375
C164	C	-0.429155	0.248943	-0.051375
N165	N	-0.878806	-0.301364	-0.508253
N166	N	-0.378806	0.198636	-0.008253
