data_functionalizedCrystal
_audit_creation_method	'MofGen! by Chris Wilmer'
_symmetry_space_group_name_H-M	'P1'
_symmetry_Int_Tables_number	1
_symmetry_cell_setting	triclinic
loop_
_symmetry_equiv_pos_as_xyz
  x,y,z
_cell_length_a	6.817900
_cell_length_b	11.102288
_cell_length_c	9.514088
_cell_angle_alpha	88.634974
_cell_angle_beta	118.843545
_cell_angle_gamma	108.605689
loop_
_atom_site_label
_atom_site_type_symbol
_atom_site_fract_x
_atom_site_fract_y
_atom_site_fract_z
V1	V	-4.243923	-0.178092	-0.500743
O2	O	-4.200435	0.006240	-0.491211
O3	O	-4.219795	-0.350897	-0.497319
O4	O	-4.278445	-0.176370	-0.719135
O5	O	-4.141379	-0.169496	-0.267860
V6	V	-4.713661	-0.155924	-0.472888
O7	O	-4.535420	-0.226720	-0.561845
O8	O	-4.872362	-0.107296	-0.411787
O9	O	-4.514583	0.016881	-0.476313
O10	O	-4.874546	-0.340256	-0.482421
O11	O	-4.933602	-0.164520	-0.705772
O12	O	-4.455933	-0.157646	-0.254497
C13	C	-4.068017	-0.392991	-0.489419
C14	C	-4.130129	-0.534268	-0.488075
C15	C	-4.142830	-0.170363	-0.772365
C16	C	-4.252499	-0.170099	-0.950901
C17	C	-4.345435	-0.607150	-0.495456
C18	C	-4.403793	-0.739895	-0.494206
C19	C	-4.031511	-0.726865	-0.478186
C20	C	-3.973165	-0.594123	-0.479448
C21	C	-4.329702	0.058969	-0.484208
C22	C	-4.246833	0.200244	-0.485563
C23	C	-4.254888	-0.163657	-0.201258
C24	C	-4.124455	-0.163915	-0.022720
H25	H	-4.579113	-0.799231	-0.500219
H26	H	-4.446040	-0.175193	-1.026009
O27	O	-3.764218	-0.523296	-0.472560
C28	C	-3.576435	-0.383666	-0.604415
C29	C	-3.813225	-0.463851	-0.612435
H30	H	-3.615973	-0.335561	-0.717473
H31	H	-3.474219	-0.449194	-0.598118
H32	H	-3.463791	-0.306804	-0.491638
H33	H	-3.926057	-0.540719	-0.725201
H34	H	-3.915257	-0.398240	-0.618644
O35	O	-3.878924	-0.785033	-0.469505
C36	C	-3.634709	-0.909528	-0.319040
C37	C	-3.807451	-0.843687	-0.328659
H38	H	-3.576911	-0.956989	-0.205192
H39	H	-3.470671	-0.834675	-0.313875
H40	H	-3.728807	-0.985743	-0.431015
H41	H	-3.713565	-0.767479	-0.216712
H42	H	-3.971478	-0.918616	-0.333903
O43	O	-3.893470	-0.157680	-0.933264
C44	C	-3.480578	-0.036126	-0.845707
C45	C	-3.742071	-0.043033	-0.947132
H46	H	-3.358094	0.056571	-0.856857
H47	H	-3.459616	-0.122300	-0.892188
H48	H	-3.430426	-0.037504	-0.712881
H49	H	-3.792397	-0.041616	-1.079979
H50	H	-3.762892	0.043135	-0.900516
H51	H	-4.473248	-0.558420	-0.502478
