data_functionalizedCrystal
_audit_creation_method	'MofGen! by Chris Wilmer'
_symmetry_space_group_name_H-M	'P1'
_symmetry_Int_Tables_number	1
_symmetry_cell_setting	triclinic
loop_
_symmetry_equiv_pos_as_xyz
  x,y,z
_cell_length_a	14.044209
_cell_length_b	22.610064
_cell_length_c	14.044220
_cell_angle_alpha	90.003525
_cell_angle_beta	93.188415
_cell_angle_gamma	89.996596
loop_
_atom_site_label
_atom_site_type_symbol
_atom_site_fract_x
_atom_site_fract_y
_atom_site_fract_z
O1	O	-1.277174	0.049115	-0.230145
O2	O	-1.000502	0.049132	-0.221841
O3	O	-1.134685	0.049118	-0.087657
O4	O	-1.142991	0.049129	-0.364329
O5	O	-1.134661	-0.049251	-0.087677
O6	O	-1.000478	-0.049237	-0.221861
O7	O	-1.277150	-0.049254	-0.230164
Zn8	Zn	-1.138810	-0.064864	-0.226015
Zn9	Zn	-1.138842	0.064742	-0.225990
O10	O	-1.142967	-0.049240	-0.364348
C11	C	-0.964868	-0.000050	-0.218216
C12	C	-0.858726	-0.000044	-0.207372
C13	C	-0.664388	-0.000055	-0.187547
C14	C	-0.613258	-0.000054	-0.264462
C15	C	-0.505122	-0.000061	-0.253431
C16	C	-0.772534	-0.000049	-0.198576
N17	N	-1.138795	-0.153316	-0.226033
C18	C	-1.198262	-0.561964	-0.166584
C19	C	-1.198266	-0.623884	-0.166577
O20	O	-1.248787	-0.655908	-0.116042
N21	N	-1.138840	-0.654853	-0.225970
C22	C	-1.079398	-0.623900	-0.285367
O23	O	-1.028850	-0.655928	-0.335884
C24	C	-1.079389	-0.561981	-0.285367
C25	C	-1.138827	-0.531015	-0.225978
C26	C	-1.257694	-0.530997	-0.107198
C27	C	-1.257691	-0.469082	-0.107206
C28	C	-1.198256	-0.438132	-0.166600
C29	C	-1.138824	-0.469099	-0.225986
C30	C	-1.019943	-0.531029	-0.344758
C31	C	-1.019939	-0.469106	-0.344753
C32	C	-1.079377	-0.438139	-0.285364
C33	C	-1.079385	-0.376234	-0.285388
N34	N	-1.138812	-0.345265	-0.225994
C35	C	-1.198247	-0.376214	-0.166600
C36	C	-1.079419	-0.753933	-0.285359
C37	C	-1.079432	-0.815851	-0.285364
C38	C	-1.198299	-0.815831	-0.166573
C39	C	-1.198291	-0.753912	-0.166574
C40	C	-1.138846	-0.722964	-0.225966
C41	C	-1.198236	-0.246186	-0.166622
C42	C	-1.198231	-0.184265	-0.166639
C43	C	-1.079360	-0.184291	-0.285426
C44	C	-1.079369	-0.246207	-0.285414
C45	C	-1.138810	-0.277153	-0.226004
O46	O	-1.028887	-0.344171	-0.335894
O47	O	-1.248777	-0.344178	-0.116083
C48	C	-0.312784	-0.000068	-0.233792
C49	C	-0.418926	-0.000066	-0.244642
C50	C	-1.131038	-0.000067	-0.052045
C51	C	-1.120193	-0.000067	0.054097
N52	N	-1.138864	0.153194	-0.225966
C53	C	-1.146615	-0.000054	-0.399960
C54	C	-1.157459	-0.000050	-0.506103
C55	C	-1.100367	-0.000057	0.248435
C56	C	-1.177281	-0.000060	0.299566
C57	C	-1.166250	-0.000054	0.407702
C58	C	-1.111397	-0.000062	0.140289
H59	H	-1.246635	-0.159054	-0.118276
C60	C	-1.276158	0.000047	0.249706
C61	C	-1.325632	0.050658	0.276292
C62	C	-1.416710	0.050777	0.230368
H63	H	-1.309960	-0.034220	0.267619
H64	H	-1.270575	0.000075	0.182599
H65	H	-1.331218	0.050625	0.343384
H66	H	-1.291859	0.084933	0.258378
H67	H	-1.411128	0.050805	0.163260
H68	H	-1.450503	0.016508	0.248284
H69	H	-1.450287	0.085118	0.248392
H70	H	-0.626951	-0.000061	-0.113420
H71	H	-1.246638	-0.271376	-0.118245
C72	C	-1.001604	-0.000084	0.298524
C73	C	-1.010161	-0.000097	0.397375
C74	C	-0.919203	-0.000133	0.443559
H75	H	-0.967820	0.034209	0.280696
H76	H	-0.967885	-0.034402	0.280636
H77	H	-1.043865	0.034217	0.415256
H78	H	-1.043929	-0.034388	0.415230
H79	H	-0.885485	-0.034452	0.425671
H80	H	-0.885426	0.034160	0.425724
H81	H	-0.924997	-0.000148	0.510634
H82	H	-0.650697	-0.000049	-0.338595
H83	H	-1.306087	-0.443872	-0.058843
C84	C	-1.322338	-0.564485	-0.042676
C85	C	-1.374392	-0.524101	0.009305
C86	C	-1.433971	-0.554924	0.068740
H87	H	-1.284756	-0.588645	0.000080
H88	H	-1.365040	-0.588623	-0.080384
H89	H	-1.331696	-0.499975	0.047010
H90	H	-1.411992	-0.499940	-0.033426
H91	H	-1.476673	-0.579061	0.031033
H92	H	-1.396382	-0.579083	0.111490
H93	H	-1.469303	-0.527528	0.104010
H94	H	-1.246689	-0.728703	-0.118213
H95	H	-1.246693	-0.841041	-0.118210
H96	H	-1.031043	-0.841060	-0.333735
H97	H	-1.031015	-0.728739	-0.333731
C98	C	-0.955302	-0.564532	-0.409272
C99	C	-0.903236	-0.524163	-0.461256
C100	C	-0.843666	-0.555003	-0.520689
H101	H	-0.992891	-0.588689	-0.452026
H102	H	-0.912607	-0.588673	-0.371563
H103	H	-0.945926	-0.500032	-0.498962
H104	H	-0.865629	-0.500004	-0.418526
H105	H	-0.800971	-0.579144	-0.482980
H106	H	-0.881262	-0.579159	-0.563437
H107	H	-0.808326	-0.527617	-0.555960
C108	C	-0.955556	-0.435430	-0.409303
C109	C	-1.011341	-0.399873	-0.472068
C110	C	-0.952067	-0.368839	-0.531536
H111	H	-0.920143	-0.462676	-0.444759
H112	H	-0.912926	-0.411241	-0.371605
H113	H	-1.053954	-0.424061	-0.509761
H114	H	-1.046752	-0.372616	-0.436637
H115	H	-0.909437	-0.344649	-0.493839
H116	H	-0.916657	-0.396089	-0.566987
H117	H	-0.989908	-0.344706	-0.574123
H118	H	-1.030979	-0.271420	-0.333784
H119	H	-1.030971	-0.159083	-0.333787
