data_functionalizedCrystal
_audit_creation_method	'MofGen! by Chris Wilmer'
_symmetry_space_group_name_H-M	'P1'
_symmetry_Int_Tables_number	1
_symmetry_cell_setting	triclinic
loop_
_symmetry_equiv_pos_as_xyz
  x,y,z
_cell_length_a	12.837943
_cell_length_b	11.892095
_cell_length_c	12.837942
_cell_angle_alpha	85.697431
_cell_angle_beta	85.171060
_cell_angle_gamma	85.689438
loop_
_atom_site_label
_atom_site_type_symbol
_atom_site_fract_x
_atom_site_fract_y
_atom_site_fract_z
O1	O	-1.408367	0.093982	0.266110
O2	O	-0.908367	0.593982	0.766110
O3	O	-1.105234	0.093989	0.252667
O4	O	-0.605234	0.593989	0.752667
O5	O	-1.250078	0.093979	0.107822
O6	O	-0.750078	0.593979	0.607822
O7	O	-1.263522	0.093992	0.410955
O8	O	-0.763522	0.593992	0.910955
O9	O	-1.237999	-0.094028	0.119879
O10	O	-0.737999	0.405972	0.619879
O11	O	-1.093155	-0.094018	0.264723
O12	O	-0.593155	0.405982	0.764723
O13	O	-1.396288	-0.094025	0.278167
O14	O	-0.896288	0.405975	0.778167
Zn15	Zn	-1.242803	-0.123871	0.273359
Zn16	Zn	-0.742803	0.376129	0.773359
Zn17	Zn	-1.258718	0.123836	0.257474
Zn18	Zn	-0.758718	0.623836	0.757474
O19	O	-1.251443	-0.094014	0.423011
O20	O	-0.751443	0.405986	0.923011
C21	C	-1.060125	-0.000014	0.254153
C22	C	-0.560125	0.499986	0.754153
C23	C	-0.943710	-0.000011	0.240609
C24	C	-0.443710	0.499989	0.740609
C25	C	-1.239497	-0.000024	0.074781
C26	C	-0.739497	0.499976	0.574781
C27	C	-1.225953	-0.000022	-0.041634
C28	C	-0.725953	0.499978	0.458366
C29	C	-1.441397	-0.000020	0.276680
C30	C	-0.941397	0.499980	0.776680
C31	C	-1.557812	-0.000015	0.290224
C32	C	-1.057812	0.499985	0.790224
N33	N	-1.231950	-0.292925	0.284200
N34	N	-0.731950	0.207075	0.784200
C35	C	-0.718835	-0.000020	0.403439
C36	C	-0.218835	0.499980	0.903439
C37	C	-0.609453	-0.000019	0.390717
C38	C	-0.109453	0.499981	0.890717
C39	C	-0.615561	-0.000015	0.202446
C40	C	-0.115561	0.499985	0.702446
C41	C	-0.724943	-0.000017	0.215167
C42	C	-0.224943	0.499983	0.715167
C43	C	-0.776577	-0.000017	0.315667
C44	C	-0.276577	0.499983	0.815667
C45	C	-0.885961	-0.000011	0.328387
C46	C	-0.385961	0.499989	0.828387
C47	C	-0.892066	-0.000015	0.140117
C48	C	-0.392066	0.499985	0.640117
C49	C	-0.782684	-0.000014	0.127395
C50	C	-0.282684	0.499986	0.627395
C51	C	-1.345098	-0.529580	0.171130
C52	C	-0.845098	-0.029580	0.671130
C53	C	-1.337519	-0.647922	0.178716
C54	C	-0.837519	-0.147922	0.678716
C55	C	-1.209210	-0.647951	0.306952
C56	C	-0.709210	-0.147951	0.806952
C57	C	-1.216788	-0.529610	0.299366
C58	C	-0.716788	-0.029610	0.799366
C59	C	-1.284736	-0.470428	0.231454
C60	C	-0.784736	0.029572	0.731454
C61	C	-1.292319	-0.352085	0.223874
C62	C	-0.792319	0.147915	0.723874
C63	C	-1.164005	-0.352116	0.352104
C64	C	-0.664005	0.147884	0.852104
C65	C	-1.156426	-0.470458	0.359690
C66	C	-0.656426	0.029542	0.859690
N67	N	-1.269579	0.292889	0.246626
N68	N	-0.769579	0.792889	0.746626
C69	C	-1.388784	-0.000002	-0.266509
C70	C	-0.888784	0.499998	0.233491
C71	C	-1.376062	0.000000	-0.375892
C72	C	-0.876062	0.500000	0.124108
C73	C	-1.187791	-0.000007	-0.369784
C74	C	-0.687791	0.499993	0.130216
C75	C	-1.200512	-0.000009	-0.260402
C76	C	-0.700512	0.499991	0.239598
C77	C	-1.301011	-0.000008	-0.208768
C78	C	-0.801011	0.499992	0.291232
C79	C	-1.313731	-0.000019	-0.099383
C80	C	-0.813731	0.499981	0.400617
C81	C	-1.125461	-0.000018	-0.093278
C82	C	-0.625461	0.499982	0.406722
C83	C	-1.112740	-0.000016	-0.202660
C84	C	-0.612740	0.499984	0.297340
C85	C	-1.262024	-0.000009	0.456052
C86	C	-0.762024	0.499991	0.956052
C87	C	-1.275569	-0.000004	0.572467
C88	C	-0.775569	0.499996	1.072467
H89	H	-0.928000	-0.000013	0.410219
H90	H	-0.428000	0.499987	0.910219
F91	F	-1.032041	-0.000037	-0.031817
F92	F	-0.532041	0.499963	0.468183
H93	H	-0.760876	-0.000019	0.485269
H94	H	-0.260876	0.499981	0.985269
H95	H	-1.470613	-0.000012	-0.224468
H96	H	-0.970613	0.499988	0.275532
F97	F	-1.401763	-0.710872	0.114509
F98	F	-0.901763	-0.210872	0.614509
F99	F	-1.136890	-0.710948	0.379215
F100	F	-0.636890	-0.210948	0.879215
H101	H	-1.400430	-0.481394	0.115841
H102	H	-0.900430	0.018606	0.615841
F103	F	-0.548004	-0.000025	0.484137
F104	F	-0.048004	0.499975	0.984137
F105	F	-1.099766	-0.289151	0.416313
F106	F	-0.599766	0.210849	0.916313
F107	F	-0.560590	-0.000028	0.095496
F108	F	-0.060590	0.499972	0.595496
H109	H	-0.740628	-0.000026	0.045572
H110	H	-0.240628	0.499974	0.545572
F111	F	-1.420690	-0.000025	-0.044432
F112	F	-0.920690	0.499975	0.455568
F113	F	-0.953527	0.000002	0.046697
F114	F	-0.453527	0.500002	0.546697
H115	H	-1.347647	-0.303901	0.168579
H116	H	-0.847647	0.196099	0.668579
F117	F	-1.080842	0.000020	-0.424756
F118	F	-0.580842	0.500020	0.075244
H119	H	-1.101102	-0.518656	0.414980
H120	H	-0.601102	-0.018656	0.914980
H121	H	-1.447536	0.000009	-0.422901
H122	H	-0.947536	0.500009	0.077099
H123	H	-1.030916	-0.000012	-0.244716
H124	H	-0.530916	0.499988	0.255284
