data_functionalizedCrystal
_audit_creation_method	'MofGen! by Chris Wilmer'
_symmetry_space_group_name_H-M	'P1'
_symmetry_Int_Tables_number	1
_symmetry_cell_setting	triclinic
loop_
_symmetry_equiv_pos_as_xyz
  x,y,z
_cell_length_a	14.044220
_cell_length_b	15.944564
_cell_length_c	12.503552
_cell_angle_alpha	93.518927
_cell_angle_beta	93.844387
_cell_angle_gamma	91.653594
loop_
_atom_site_label
_atom_site_type_symbol
_atom_site_fract_x
_atom_site_fract_y
_atom_site_fract_z
O1	O	1.263202	-0.198060	0.089324
O2	O	1.596535	0.135273	0.422657
O3	O	1.929869	0.468607	0.755990
O4	O	0.987232	-0.190752	0.089326
O5	O	1.320565	0.142581	0.422660
O6	O	1.653899	0.475914	0.755993
O7	O	1.132746	-0.072696	0.089315
O8	O	1.466079	0.260637	0.422648
O9	O	1.799413	0.593970	0.755981
O10	O	1.117688	-0.316116	0.089335
O11	O	1.451021	0.017217	0.422669
O12	O	1.784354	0.350551	0.756002
O13	O	1.121790	-0.081582	-0.089327
O14	O	1.455123	0.251751	0.244006
O15	O	1.788457	0.585084	0.577340
O16	O	0.976276	-0.199638	-0.089315
O17	O	1.309609	0.133695	0.244018
O18	O	1.642943	0.467028	0.577351
O19	O	1.252246	-0.206946	-0.089318
O20	O	1.585579	0.126387	0.244015
O21	O	1.918912	0.459721	0.577349
Cu22	Cu	1.113260	-0.204104	-0.105628
Cu23	Cu	1.446594	0.129230	0.227705
Cu24	Cu	1.779927	0.462563	0.561039
Cu25	Cu	1.126217	-0.193595	0.105636
Cu26	Cu	1.459551	0.139739	0.438970
Cu27	Cu	1.792884	0.473072	0.772303
O28	O	1.106732	-0.325002	-0.089306
O29	O	1.440065	0.008331	0.244027
O30	O	1.773398	0.341665	0.577360
C31	C	0.946439	-0.191997	0.000006
C32	C	1.279772	0.141337	0.333339
C33	C	1.613106	0.474670	0.666672
C34	C	0.841212	-0.182455	0.000006
C35	C	1.174546	0.150878	0.333340
C36	C	1.507879	0.484211	0.666673
C37	C	1.126641	-0.045799	-0.000007
C38	C	1.459974	0.287535	0.333327
C39	C	1.793307	0.620868	0.666660
C40	C	1.124760	0.047588	-0.000008
C41	C	1.458093	0.380921	0.333326
C42	C	1.791427	0.714254	0.666659
N43	N	1.104154	-0.211495	-0.254220
N44	N	1.437487	0.121838	0.079113
N45	N	1.770821	0.455172	0.412447
C46	C	1.293039	-0.205702	0.000005
C47	C	1.626372	0.127632	0.333338
C48	C	1.959705	0.460965	0.666672
C49	C	1.398266	-0.215242	0.000011
C50	C	1.731599	0.118091	0.333345
C51	C	2.064933	0.451424	0.666678
C52	C	1.590929	-0.232686	0.000012
C53	C	1.924263	0.100647	0.333345
C54	C	2.257596	0.433981	0.666679
C55	C	1.648554	-0.165016	0.000006
C56	C	1.981888	0.168318	0.333339
C57	C	2.315221	0.501651	0.666672
C58	C	1.755759	-0.174721	0.000006
C59	C	2.089092	0.158612	0.333339
C60	C	2.422426	0.491945	0.666673
C61	C	1.483715	-0.222981	0.000012
C62	C	1.817048	0.110352	0.333345
C63	C	2.150382	0.443685	0.666678
C64	C	1.030065	0.269534	0.000007
C65	C	1.363398	0.602868	0.333340
C66	C	1.696732	0.936201	0.666674
C67	C	1.068628	0.322878	-0.088075
C68	C	1.401962	0.656211	0.245258
C69	C	1.735295	0.989544	0.578592
C70	C	1.121358	0.218568	-0.000000
C71	C	1.454691	0.551901	0.333333
C72	C	1.788025	0.885234	0.666666
C73	C	1.079452	0.331621	0.088052
C74	C	1.412785	0.664954	0.421385
C75	C	1.746118	0.998287	0.754718
C76	C	1.118065	0.383726	0.000012
C77	C	1.451399	0.717060	0.333345
C78	C	1.784732	1.050393	0.666678
C79	C	1.159942	0.270677	-0.088155
C80	C	1.493275	0.604011	0.245179
C81	C	1.826609	0.937344	0.578512
C82	C	1.170757	0.279419	0.088051
C83	C	1.504091	0.612752	0.421384
C84	C	1.837424	0.946085	0.754718
C85	C	1.209386	0.332739	-0.000052
C86	C	1.542719	0.666072	0.333281
C87	C	1.876052	0.999405	0.666614
C88	C	1.123252	0.123424	-0.000008
C89	C	1.456585	0.456757	0.333325
C90	C	1.789919	0.790090	0.666659
C91	C	1.116178	0.478868	0.000012
C92	C	1.449511	0.812202	0.333345
C93	C	1.782845	1.145535	0.666678
C94	C	1.112824	0.648100	0.000016
C95	C	1.446157	0.981433	0.333349
C96	C	1.779491	1.314767	0.666683
C97	C	1.114667	0.554712	0.000020
C98	C	1.448000	0.888046	0.333354
C99	C	1.781333	1.221379	0.666687
C100	C	1.148722	-0.175321	-0.526657
C101	C	1.482055	0.158012	-0.193323
C102	C	1.815389	0.491345	0.140010
C103	C	1.090767	-0.222368	-0.473328
C104	C	1.424100	0.110965	-0.139995
C105	C	1.757433	0.444298	0.193339
C106	C	1.098217	-0.216317	-0.351405
C107	C	1.431551	0.117017	-0.018072
C108	C	1.764884	0.450350	0.315262
C109	C	1.141272	-0.181372	-0.648591
C110	C	1.474606	0.151961	-0.315257
C111	C	1.807939	0.485295	0.018076
N112	N	1.135331	-0.186197	0.254228
N113	N	1.468664	0.147136	0.587562
N114	N	1.801998	0.480469	0.920895
H115	H	1.617380	-0.099788	0.000078
H116	H	1.950714	0.233545	0.333411
H117	H	2.284047	0.566879	0.666745
H118	H	1.285223	0.360216	-0.000103
H119	H	1.618557	0.693549	0.333230
H120	H	1.951890	1.026883	0.666564
Cl121	Cl	1.212452	0.229634	-0.203250
Cl122	Cl	1.545786	0.562968	0.130083
Cl123	Cl	1.879119	0.896301	0.463416
Cl124	Cl	1.237375	0.249594	0.203026
Cl125	Cl	1.570708	0.582928	0.536360
Cl126	Cl	1.904042	0.916261	0.869693
H127	H	1.203932	-0.130502	-0.480751
H128	H	1.537265	0.202831	-0.147418
H129	H	1.870598	0.536165	0.185916
H130	H	1.622107	-0.297904	0.000018
H131	H	1.955440	0.035429	0.333352
H132	H	2.288773	0.368762	0.666685
Cl133	Cl	0.913069	0.226863	-0.000120
Cl134	Cl	1.246402	0.560196	0.333213
Cl135	Cl	1.579736	0.893530	0.666546
H136	H	1.025448	0.342173	-0.162540
H137	H	1.358781	0.675506	0.170793
H138	H	1.692114	1.008840	0.504126
H139	H	1.045394	0.358294	0.162523
H140	H	1.378727	0.691627	0.495856
H141	H	1.712060	1.024960	0.829189
Cl142	Cl	1.005525	-0.291575	-0.544209
Cl143	Cl	1.338858	0.041759	-0.210876
Cl144	Cl	1.672192	0.375092	0.122457
