data_functionalizedCrystal
_audit_creation_method	'MofGen! by Chris Wilmer'
_symmetry_space_group_name_H-M	'P1'
_symmetry_Int_Tables_number	1
_symmetry_cell_setting	triclinic
loop_
_symmetry_equiv_pos_as_xyz
  x,y,z
_cell_length_a	15.995350
_cell_length_b	22.010155
_cell_length_c	15.995292
_cell_angle_alpha	89.992556
_cell_angle_beta	83.480495
_cell_angle_gamma	90.004816
loop_
_atom_site_label
_atom_site_type_symbol
_atom_site_fract_x
_atom_site_fract_y
_atom_site_fract_z
O1	O	1.110969	0.050469	0.107918
O2	O	1.610969	0.550469	0.607918
O3	O	0.867191	0.050481	0.121246
O4	O	1.367191	0.550481	0.621246
O5	O	0.995769	0.050476	-0.007309
O6	O	1.495769	0.550476	0.492691
O7	O	0.982391	0.050475	0.236473
O8	O	1.482391	0.550475	0.736473
O9	O	0.995746	-0.050574	-0.007290
O10	O	1.495746	0.449426	0.492710
O11	O	0.867168	-0.050569	0.121265
O12	O	1.367168	0.449431	0.621265
O13	O	1.110946	-0.050581	0.107937
O14	O	1.610946	0.449419	0.607937
Cu15	Cu	0.989055	-0.059802	0.114603
Cu16	Cu	1.489055	0.440198	0.614603
Cu17	Cu	0.989082	0.059702	0.114580
Cu18	Cu	1.489082	0.559702	0.614580
O19	O	0.982368	-0.050576	0.236492
O20	O	1.482368	0.449424	0.736492
C21	C	0.835985	-0.000042	0.120704
C22	C	1.335985	0.499958	0.620704
C23	C	0.743035	-0.000038	0.119053
C24	C	1.243035	0.499962	0.619053
N25	N	0.989041	-0.143854	0.114618
N26	N	1.489041	0.356146	0.614618
C27	C	0.405288	-0.000050	0.113120
C28	C	0.905288	0.499950	0.613120
C29	C	0.452742	-0.000275	0.021566
C30	C	0.952742	0.499725	0.521566
C31	C	0.549431	-0.000043	0.023218
C32	C	1.049431	0.499957	0.523218
C33	C	0.572848	-0.000044	0.116063
C34	C	1.072848	0.499956	0.616063
C35	C	0.531765	0.057658	0.161210
C36	C	1.031765	0.557658	0.661210
C37	C	0.435130	0.057702	0.158910
C38	C	0.935130	0.557702	0.658910
C39	C	0.434764	-0.057211	0.160823
C40	C	0.934764	0.442789	0.660823
C41	C	0.531709	-0.057970	0.160802
C42	C	1.031709	0.442030	0.660802
C43	C	0.667546	-0.000039	0.117731
C44	C	1.167546	0.499961	0.617731
C45	C	0.310591	-0.000051	0.111455
C46	C	0.810591	0.499949	0.611455
C47	C	1.046020	-0.563636	0.057664
C48	C	1.546020	-0.063636	0.557664
C49	C	1.046024	-0.627244	0.057658
C50	C	1.546024	-0.127244	0.557658
O51	O	1.094436	-0.660137	0.009244
O52	O	1.594436	-0.160137	0.509244
N53	N	0.989082	-0.659061	0.114563
N54	N	1.489082	-0.159061	0.614563
C55	C	0.932126	-0.627268	0.171471
C56	C	1.432126	-0.127268	0.671471
O57	O	0.883692	-0.660172	0.219871
O58	O	1.383692	-0.160172	0.719871
C59	C	0.932119	-0.563662	0.171472
C60	C	1.432119	-0.063662	0.671472
C61	C	0.989071	-0.531847	0.114569
C62	C	1.489071	-0.031847	0.614569
C63	C	1.102966	-0.531822	0.000766
C64	C	1.602966	-0.031822	0.500766
C65	C	1.102963	-0.468218	0.000773
C66	C	1.602963	0.031782	0.500773
C67	C	1.046014	-0.436430	0.057678
C68	C	1.546014	0.063570	0.557678
C69	C	0.989068	-0.468244	0.114576
C70	C	1.489068	0.031756	0.614576
C71	C	0.875160	-0.531870	0.228375
C72	C	1.375160	-0.031870	0.728375
C73	C	0.875158	-0.468259	0.228371
C74	C	1.375158	0.031741	0.728371
C75	C	0.932109	-0.436445	0.171468
C76	C	1.432109	0.063555	0.671468
C77	C	0.932115	-0.372852	0.171489
C78	C	1.432115	0.127148	0.671489
N79	N	0.989057	-0.341034	0.114584
N80	N	1.489057	0.158966	0.614584
C81	C	1.046007	-0.372823	0.057679
C82	C	1.546007	0.127177	0.557679
C83	C	0.932145	-0.760846	0.171463
C84	C	1.432145	-0.260846	0.671463
C85	C	0.932155	-0.824451	0.171467
C86	C	1.432155	-0.324451	0.671467
C87	C	1.046052	-0.824422	0.057653
C88	C	1.546052	-0.324422	0.557653
C89	C	1.046045	-0.760816	0.057654
C90	C	1.546045	-0.260816	0.557654
C91	C	0.989087	-0.729028	0.114559
C92	C	1.489087	-0.229028	0.614559
C93	C	1.045996	-0.239252	0.057699
C94	C	1.545996	0.260748	0.557699
C95	C	1.045991	-0.175643	0.057713
C96	C	1.545991	0.324357	0.557713
C97	C	0.932091	-0.175677	0.171523
C98	C	1.432091	0.324323	0.671523
C99	C	0.932100	-0.239281	0.171512
C100	C	1.432100	0.260719	0.671512
C101	C	0.989055	-0.271066	0.114593
C102	C	1.489055	0.228934	0.614593
O103	O	0.883726	-0.339918	0.219876
O104	O	1.383726	0.160082	0.719876
O105	O	1.094425	-0.339911	0.009280
O106	O	1.594425	0.160089	0.509280
C107	C	1.142152	-0.000056	0.108479
C108	C	1.642152	0.499944	0.608479
C109	C	1.235102	-0.000057	0.110130
C110	C	1.735102	0.499943	0.610130
C111	C	0.995213	-0.000048	-0.038495
C112	C	1.495213	0.499952	0.461505
C113	C	0.993581	-0.000043	-0.131448
C114	C	1.493581	0.499957	0.368552
N115	N	0.989102	0.143754	0.114558
N116	N	1.489102	0.643754	0.614558
C117	C	0.987580	-0.000048	-0.469186
C118	C	1.487580	0.499952	0.030814
C119	C	1.080384	-0.000279	-0.445874
C120	C	1.580384	0.499721	0.054126
C121	C	1.082148	-0.000049	-0.349199
C122	C	1.582148	0.499951	0.150801
C123	C	0.990557	-0.000046	-0.301631
C124	C	1.490557	0.499954	0.198369
C125	C	0.944173	0.057659	-0.330743
C126	C	1.444173	0.557659	0.169257
C127	C	0.943056	0.057705	-0.427533
C128	C	1.443056	0.557705	0.072467
C129	C	0.941134	-0.057208	-0.427368
C130	C	1.441134	0.442792	0.072632
C131	C	0.944573	-0.057968	-0.330876
C132	C	1.444573	0.442032	0.169124
C133	C	0.992235	-0.000043	-0.206934
C134	C	1.492235	0.499957	0.293066
C135	C	0.985899	-0.000048	-0.563882
C136	C	1.485899	0.499952	-0.063882
C137	C	0.982924	-0.000051	0.267678
C138	C	1.482924	0.499949	0.767678
C139	C	0.984556	-0.000051	0.360631
C140	C	1.484556	0.499949	0.860631
H141	H	0.577858	-0.041407	-0.012271
H142	H	1.077858	0.458593	0.487729
H143	H	1.149336	-0.442319	-0.045564
H144	H	1.649336	0.057681	0.454436
H145	H	0.970350	-0.100948	-0.455449
H146	H	1.470350	0.399052	0.044551
F147	F	0.871486	-0.141836	0.232085
F148	F	1.371486	0.358164	0.732085
H149	H	1.118709	0.041385	-0.330802
H150	H	1.618709	0.541385	0.169198
F151	F	1.106610	-0.141787	-0.002851
F152	F	1.606610	0.358213	0.497149
F153	F	0.857190	-0.062522	-0.287784
F154	F	1.357190	0.437478	0.212216
F155	F	0.392959	0.061124	0.246765
F156	F	0.892959	0.561124	0.746765
F157	F	0.567327	-0.113765	0.117657
F158	F	1.067327	0.386235	0.617657
H159	H	0.545876	0.059803	0.229420
H160	H	1.045876	0.559803	0.729420
F161	F	1.106661	-0.858266	-0.002912
F162	F	1.606661	-0.358266	0.497088
H163	H	0.414225	-0.100948	0.130900
H164	H	0.914225	0.399052	0.630900
H165	H	0.547060	-0.061456	0.228508
H166	H	1.047060	0.438544	0.728508
H167	H	0.978348	-0.100658	-0.312302
H168	H	1.478348	0.399342	0.187698
H169	H	1.092374	-0.265124	0.011349
H170	H	1.592374	0.234876	0.511349
F171	F	0.871493	-0.273139	0.232084
F172	F	1.371493	0.226861	0.732084
F173	F	1.129614	-0.054123	-0.324316
F174	F	1.629614	0.445877	0.175684
F175	F	0.985074	0.114082	-0.462598
F176	F	1.485074	0.614082	0.037402
H177	H	0.885789	-0.850350	0.217810
H178	H	1.385789	-0.350350	0.717810
F179	F	0.851847	-0.057715	-0.445655
F180	F	1.351847	0.442285	0.054345
F181	F	0.814531	-0.434433	0.288937
F182	F	1.314531	0.065567	0.788937
F183	F	0.854119	0.061134	-0.446555
F184	F	1.354119	0.561134	0.053445
F185	F	1.127130	-0.054370	-0.482457
F186	F	1.627130	0.445630	0.017543
F187	F	1.126895	0.053503	-0.483811
F188	F	1.626895	0.553503	0.016189
F189	F	0.428526	-0.054363	-0.026258
F190	F	0.928526	0.445637	0.473742
H191	H	1.149341	-0.557698	-0.045577
H192	H	1.649341	-0.057698	0.454423
H193	H	0.876775	0.059806	-0.298875
H194	H	1.376775	0.559806	0.201125
H195	H	1.092419	-0.734916	0.011319
H196	H	1.592419	-0.234916	0.511319
F197	F	0.871524	-0.727020	0.232038
F198	F	1.371524	-0.227020	0.732038
H199	H	0.976403	0.100601	-0.310690
H200	H	1.476403	0.600601	0.189310
H201	H	0.433165	0.040877	-0.014870
H202	H	0.933165	0.540877	0.485130
H203	H	0.577306	0.041392	-0.012526
H204	H	1.077306	0.541392	0.487474
H205	H	0.828785	-0.557764	0.274709
H206	H	1.328785	-0.057764	0.774709
F207	F	0.568871	0.113790	0.120204
F208	F	1.068871	0.613790	0.620204
H209	H	0.402988	-0.057602	0.228326
H210	H	0.902988	0.442398	0.728326
F211	F	0.411219	0.114081	0.115855
F212	F	0.911219	0.614081	0.615855
