data_functionalizedCrystal
_audit_creation_method	'MofGen! by Chris Wilmer'
_symmetry_space_group_name_H-M	'P1'
_symmetry_Int_Tables_number	1
_symmetry_cell_setting	triclinic
loop_
_symmetry_equiv_pos_as_xyz
  x,y,z
_cell_length_a	18.215407
_cell_length_b	12.759394
_cell_length_c	18.215407
_cell_angle_alpha	90.010676
_cell_angle_beta	90.006572
_cell_angle_gamma	90.012280
loop_
_atom_site_label
_atom_site_type_symbol
_atom_site_fract_x
_atom_site_fract_y
_atom_site_fract_z
Zn1	Zn	1.125045	-0.418500	0.416081
Zn2	Zn	1.375045	-0.168500	0.666081
Zn3	Zn	1.625045	0.081500	0.916081
Zn4	Zn	1.875045	0.331500	1.166081
Zn5	Zn	1.124998	-0.594153	0.293020
Zn6	Zn	1.374998	-0.344153	0.543020
Zn7	Zn	1.624998	-0.094153	0.793020
Zn8	Zn	1.874998	0.155847	1.043020
Zn9	Zn	1.002001	-0.418481	0.293034
Zn10	Zn	1.252001	-0.168481	0.543034
Zn11	Zn	1.502001	0.081519	0.793034
Zn12	Zn	1.752001	0.331519	1.043034
Zn13	Zn	1.001965	-0.594130	0.416051
Zn14	Zn	1.251965	-0.344130	0.666051
Zn15	Zn	1.501965	-0.094130	0.916051
Zn16	Zn	1.751965	0.155870	1.166051
O17	O	1.063502	-0.506316	0.354546
O18	O	1.313502	-0.256316	0.604546
O19	O	1.563502	-0.006316	0.854546
O20	O	1.813502	0.243684	1.104546
O21	O	1.228023	-0.441819	0.399764
O22	O	1.478023	-0.191819	0.649764
O23	O	1.728023	0.058181	0.899764
O24	O	1.978023	0.308181	1.149764
O25	O	1.108678	-0.570851	0.190038
O26	O	1.358678	-0.320851	0.440038
O27	O	1.608678	-0.070851	0.690038
O28	O	1.858678	0.179149	0.940038
O29	O	1.018357	-0.271462	0.309374
O30	O	1.268357	-0.021462	0.559374
O31	O	1.518357	0.228538	0.809374
O32	O	1.768357	0.478538	1.059374
O33	O	1.227989	-0.570870	0.309352
O34	O	1.477989	-0.320870	0.559352
O35	O	1.727989	-0.070870	0.809352
O36	O	1.977989	0.179130	1.059352
O37	O	1.108757	-0.271477	0.399777
O38	O	1.358757	-0.021477	0.649777
O39	O	1.608757	0.228523	0.899777
O40	O	1.858757	0.478523	1.149777
O41	O	1.018312	-0.441785	0.190048
O42	O	1.268312	-0.191785	0.440048
O43	O	1.518312	0.058215	0.690048
O44	O	1.768312	0.308215	0.940048
O45	O	0.899012	-0.441763	0.309345
O46	O	1.149012	-0.191763	0.559345
O47	O	1.399012	0.058237	0.809345
O48	O	1.649012	0.308237	1.059345
O49	O	1.018296	-0.570831	0.519039
O50	O	1.268296	-0.320831	0.769039
O51	O	1.518296	-0.070831	1.019039
O52	O	1.768296	0.179169	1.269039
O53	O	0.898985	-0.570812	0.399725
O54	O	1.148985	-0.320812	0.649725
O55	O	1.398985	-0.070812	0.899725
O56	O	1.648985	0.179188	1.149725
O57	O	1.108723	-0.441797	0.519061
O58	O	1.358723	-0.191797	0.769061
O59	O	1.608723	0.058203	1.019061
O60	O	1.858723	0.308203	1.269061
O61	O	1.108643	-0.741171	0.309322
O62	O	1.358643	-0.491171	0.559322
O63	O	1.608643	-0.241171	0.809322
O64	O	1.858643	0.008829	1.059322
O65	O	1.018251	-0.741154	0.399712
O66	O	1.268251	-0.491154	0.649712
O67	O	1.518251	-0.241154	0.899712
O68	O	1.768251	0.008846	1.149712
C69	C	0.872296	-0.506284	0.354533
C70	C	1.122296	-0.256284	0.604533
C71	C	1.372296	-0.006284	0.854533
C72	C	1.622296	0.243716	1.104533
C73	C	0.790497	-0.506295	0.354545
C74	C	1.040497	-0.256295	0.604545
C75	C	1.290497	-0.006295	0.854545
C76	C	1.540497	0.243705	1.104545
C77	C	0.602320	-0.439237	0.401697
C78	C	0.852320	-0.189237	0.651697
C79	C	1.102320	0.060763	0.901697
C80	C	1.352320	0.310763	1.151697
C81	C	0.525461	-0.439246	0.401700
C82	C	0.775461	-0.189246	0.651700
C83	C	1.025461	0.060754	0.901700
C84	C	1.275461	0.310754	1.151700
C85	C	0.525436	-0.573425	0.307408
C86	C	0.775436	-0.323425	0.557408
C87	C	1.025436	-0.073425	0.807408
C88	C	1.275436	0.176575	1.057408
C89	C	0.602294	-0.573410	0.307403
C90	C	0.852294	-0.323410	0.557403
C91	C	1.102294	-0.073410	0.807403
C92	C	1.352294	0.176590	1.057403
C93	C	0.640733	-0.506317	0.354551
C94	C	0.890733	-0.256317	0.604551
C95	C	1.140733	-0.006317	0.854551
C96	C	1.390733	0.243683	1.104551
C97	C	0.487017	-0.506341	0.354559
C98	C	0.737017	-0.256341	0.604559
C99	C	0.987017	-0.006341	0.854559
C100	C	1.237017	0.243659	1.104559
C101	C	0.403684	-0.506352	0.354562
C102	C	0.653684	-0.256352	0.604562
C103	C	0.903684	-0.006352	0.854562
C104	C	1.153684	0.243648	1.104562
C105	C	0.724072	-0.506305	0.354548
C106	C	0.974072	-0.256305	0.604548
C107	C	1.224072	-0.006305	0.854548
C108	C	1.474072	0.243695	1.104548
C109	C	1.063458	-0.779284	0.354529
C110	C	1.313458	-0.529284	0.604529
C111	C	1.563458	-0.279284	0.854529
C112	C	1.813458	-0.029284	1.104529
C113	C	1.063506	-0.896060	0.354546
C114	C	1.313506	-0.646060	0.604546
C115	C	1.563506	-0.396060	0.854546
C116	C	1.813506	-0.146060	1.104546
C117	C	1.157702	-0.896024	0.260493
C118	C	1.407702	-0.646024	0.510493
C119	C	1.657702	-0.396024	0.760493
C120	C	1.907702	-0.146024	1.010493
C121	C	1.204819	-0.950867	0.213476
C122	C	1.454819	-0.700867	0.463476
C123	C	1.704819	-0.450867	0.713476
C124	C	1.954819	-0.200867	0.963476
C125	C	1.204862	-1.060589	0.213496
C126	C	1.454862	-0.810589	0.463496
C127	C	1.704862	-0.560589	0.713496
C128	C	1.954862	-0.310589	0.963496
C129	C	1.157785	-1.115470	0.260540
C130	C	1.407785	-0.865470	0.510540
C131	C	1.657785	-0.615470	0.760540
C132	C	1.907785	-0.365470	1.010540
C133	C	1.110668	-1.060627	0.307557
C134	C	1.360668	-0.810627	0.557557
C135	C	1.610668	-0.560627	0.807557
C136	C	1.860668	-0.310627	1.057557
C137	C	1.110628	-0.950903	0.307531
C138	C	1.360628	-0.700903	0.557531
C139	C	1.610628	-0.450903	0.807531
C140	C	1.860628	-0.200903	1.057531
C141	C	1.016477	-1.060663	0.401612
C142	C	1.266477	-0.810663	0.651612
C143	C	1.516477	-0.560663	0.901612
C144	C	1.766477	-0.310663	1.151612
C145	C	1.016429	-0.950941	0.401590
C146	C	1.266429	-0.700941	0.651590
C147	C	1.516429	-0.450941	0.901590
C148	C	1.766429	-0.200941	1.151590
C149	C	0.969400	-1.115544	0.448656
C150	C	1.219400	-0.865544	0.698656
C151	C	1.469400	-0.615544	0.948656
C152	C	1.719400	-0.365544	1.198656
C153	C	0.922278	-1.060701	0.495671
C154	C	1.172278	-0.810701	0.745671
C155	C	1.422278	-0.560701	0.995671
C156	C	1.672278	-0.310701	1.245671
C157	C	0.922236	-0.950973	0.495649
C158	C	1.172236	-0.700973	0.745649
C159	C	1.422236	-0.450973	0.995649
C160	C	1.672236	-0.200973	1.245649
C161	C	0.969312	-0.896099	0.448607
C162	C	1.219312	-0.646099	0.698607
C163	C	1.469312	-0.396099	0.948607
C164	C	1.719312	-0.146099	1.198607
C165	C	1.255455	-0.506349	0.354560
C166	C	1.505455	-0.256349	0.604560
C167	C	1.755455	-0.006349	0.854560
C168	C	2.005455	0.243651	1.104560
C169	C	1.337254	-0.506363	0.354565
C170	C	1.587254	-0.256363	0.604565
C171	C	1.837254	-0.006363	0.854565
C172	C	2.087254	0.243637	1.104565
C173	C	1.063511	-0.506313	0.546499
C174	C	1.313511	-0.256313	0.796499
C175	C	1.563511	-0.006313	1.046499
C176	C	1.813511	0.243687	1.296499
C177	C	1.063514	-0.506312	0.628298
C178	C	1.313514	-0.256312	0.878298
C179	C	1.563514	-0.006312	1.128298
C180	C	1.813514	0.243688	1.378298
C181	C	1.063567	-0.232283	0.354580
C182	C	1.313567	0.017717	0.604580
C183	C	1.563567	0.267717	0.854580
C184	C	1.813567	0.517717	1.104580
C185	C	1.063594	-0.115506	0.354595
C186	C	1.313594	0.134494	0.604595
C187	C	1.563594	0.384494	0.854595
C188	C	1.813594	0.634494	1.104595
C189	C	1.110579	-0.439133	0.893369
C190	C	1.360579	-0.189133	1.143369
C191	C	1.610579	0.060867	1.393369
C192	C	1.860579	0.310867	1.643369
C193	C	1.110584	-0.439132	0.816510
C194	C	1.360584	-0.189132	1.066510
C195	C	1.610584	0.060868	1.316510
C196	C	1.860584	0.310868	1.566510
C197	C	1.016428	-0.573509	0.816476
C198	C	1.266428	-0.323509	1.066476
C199	C	1.516428	-0.073509	1.316476
C200	C	1.766428	0.176491	1.566476
C201	C	1.016427	-0.573514	0.893334
C202	C	1.266427	-0.323514	1.143334
C203	C	1.516427	-0.073514	1.393334
C204	C	1.766427	0.176486	1.643334
C205	C	1.063502	-0.506320	0.931778
C206	C	1.313502	-0.256320	1.181778
C207	C	1.563502	-0.006320	1.431778
C208	C	1.813502	0.243680	1.681778
C209	C	1.063508	-0.506315	0.778062
C210	C	1.313508	-0.256315	1.028062
C211	C	1.563508	-0.006315	1.278062
C212	C	1.813508	0.243685	1.528062
C213	C	1.063513	-0.506315	0.694728
C214	C	1.313513	-0.256315	0.944728
C215	C	1.563513	-0.006315	1.194728
C216	C	1.813513	0.243685	1.444728
C217	C	1.063498	-0.506321	1.015117
C218	C	1.313498	-0.256321	1.265117
C219	C	1.563498	-0.006321	1.515117
C220	C	1.813498	0.243679	1.765117
C221	C	1.063491	-0.506337	1.163340
C222	C	1.313491	-0.256337	1.413340
C223	C	1.563491	-0.006337	1.663340
C224	C	1.813491	0.243663	1.913340
C225	C	1.063495	-0.506322	1.081541
C226	C	1.313495	-0.256322	1.331541
C227	C	1.563495	-0.006322	1.581541
C228	C	1.813495	0.243678	1.831541
H229	H	0.494188	-0.384620	0.440090
H230	H	0.744188	-0.134620	0.690090
H231	H	0.994188	0.115380	0.940090
H232	H	1.244188	0.365380	1.190090
Br233	Br	1.157500	-1.264378	0.260221
Br234	Br	1.407500	-1.014378	0.510221
Br235	Br	1.657500	-0.764378	0.760221
Br236	Br	1.907500	-0.514378	1.010221
H237	H	0.978091	-0.628232	0.924607
H238	H	1.228091	-0.378232	1.174607
H239	H	1.478091	-0.128232	1.424607
H240	H	1.728091	0.121768	1.674607
Br241	Br	1.157875	-0.747116	0.260691
Br242	Br	1.407875	-0.497116	0.510691
Br243	Br	1.657875	-0.247116	0.760691
Br244	Br	1.907875	0.002884	1.010691
Br245	Br	0.952541	-0.664691	0.764298
Br246	Br	1.202541	-0.414691	1.014298
Br247	Br	1.452541	-0.164691	1.264298
Br248	Br	1.702541	0.085309	1.514298
H249	H	1.243233	-1.105242	0.175214
H250	H	1.493233	-0.855242	0.425214
H251	H	1.743233	-0.605242	0.675214
H252	H	1.993233	-0.355242	0.925214
Br253	Br	1.268712	-0.876383	0.149639
Br254	Br	1.518712	-0.626383	0.399639
Br255	Br	1.768712	-0.376383	0.649639
Br256	Br	2.018712	-0.126383	0.899639
Br257	Br	0.654486	-0.348180	0.465682
Br258	Br	0.904486	-0.098180	0.715682
Br259	Br	1.154486	0.151820	0.965682
Br260	Br	1.404486	0.401820	1.215682
H261	H	0.883955	-1.105394	0.533974
H262	H	1.133955	-0.855394	0.783974
H263	H	1.383955	-0.605394	1.033974
H264	H	1.633955	-0.355394	1.283974
H265	H	0.494129	-0.628050	0.269022
H266	H	0.744129	-0.378050	0.519022
H267	H	0.994129	-0.128050	0.769022
H268	H	1.244129	0.121950	1.019022
Br269	Br	0.654431	-0.664440	0.243404
Br270	Br	0.904431	-0.414440	0.493404
Br271	Br	1.154431	-0.164440	0.743404
Br272	Br	1.404431	0.085560	0.993404
Br273	Br	1.174462	-0.347937	0.945541
Br274	Br	1.424462	-0.097937	1.195541
Br275	Br	1.674462	0.152063	1.445541
Br276	Br	1.924462	0.402063	1.695541
H277	H	0.969441	-1.204885	0.448672
H278	H	1.219441	-0.954885	0.698672
H279	H	1.469441	-0.704885	0.948672
H280	H	1.719441	-0.454885	1.198672
H281	H	0.883870	-0.906326	0.533939
H282	H	1.133870	-0.656326	0.783939
H283	H	1.383870	-0.406326	1.033939
H284	H	1.633870	-0.156326	1.283939
H285	H	0.969278	-0.806757	0.448579
H286	H	1.219278	-0.556757	0.698579
H287	H	1.469278	-0.306757	0.948579
H288	H	1.719278	-0.056757	1.198579
H289	H	1.148920	-0.384423	0.785240
H290	H	1.398920	-0.134423	1.035240
H291	H	1.648920	0.115577	1.285240
H292	H	1.898920	0.365577	1.535240
