data_functionalizedCrystal
_audit_creation_method	'MofGen! by Chris Wilmer'
_symmetry_space_group_name_H-M	'P1'
_symmetry_Int_Tables_number	1
_symmetry_cell_setting	triclinic
loop_
_symmetry_equiv_pos_as_xyz
  x,y,z
_cell_length_a	16.120566
_cell_length_b	16.120484
_cell_length_c	16.120297
_cell_angle_alpha	95.614431
_cell_angle_beta	90.125018
_cell_angle_gamma	90.168070
loop_
_atom_site_label
_atom_site_type_symbol
_atom_site_fract_x
_atom_site_fract_y
_atom_site_fract_z
Zn1	Zn	-1.224984	0.422255	0.554879
Zn2	Zn	-0.974984	0.672255	0.804879
Zn3	Zn	-0.724984	0.922255	1.054879
Zn4	Zn	-0.474984	1.172255	1.304879
Zn5	Zn	-1.224880	0.554939	0.422184
Zn6	Zn	-0.974880	0.804939	0.672184
Zn7	Zn	-0.724880	1.054939	0.922184
Zn8	Zn	-0.474880	1.304939	1.172184
Zn9	Zn	-1.093724	0.408172	0.408115
Zn10	Zn	-0.843724	0.658172	0.658115
Zn11	Zn	-0.593724	0.908172	0.908115
Zn12	Zn	-0.343724	1.158172	1.158115
Zn13	Zn	-1.078877	0.554173	0.554109
Zn14	Zn	-0.828877	0.804173	0.804109
Zn15	Zn	-0.578877	1.054173	1.054109
Zn16	Zn	-0.328877	1.304173	1.304109
O17	O	-1.155616	0.484885	0.484822
O18	O	-0.905616	0.734885	0.734822
O19	O	-0.655616	0.984885	0.984822
O20	O	-0.405616	1.234885	1.234822
O21	O	-1.341006	0.446070	0.543487
O22	O	-1.091006	0.696070	0.793487
O23	O	-0.841006	0.946070	1.043487
O24	O	-0.591006	1.196070	1.293487
O25	O	-1.213651	0.529897	0.303685
O26	O	-0.963651	0.779897	0.553685
O27	O	-0.713651	1.029897	0.803685
O28	O	-0.463651	1.279897	1.053685
O29	O	-1.117393	0.293409	0.422018
O30	O	-0.867393	0.543409	0.672018
O31	O	-0.617393	0.793409	0.922018
O32	O	-0.367393	1.043409	1.172018
O33	O	-1.340929	0.543553	0.445997
O34	O	-1.090929	0.793553	0.695997
O35	O	-0.840929	1.043553	0.945997
O36	O	-0.590929	1.293553	1.195997
O37	O	-1.213829	0.303756	0.529845
O38	O	-0.963829	0.553756	0.779845
O39	O	-0.713829	0.803756	1.029845
O40	O	-0.463829	1.053756	1.279845
O41	O	-1.117292	0.422067	0.293349
O42	O	-0.867292	0.672067	0.543349
O43	O	-0.617292	0.922067	0.793349
O44	O	-0.367292	1.172067	1.043349
O45	O	-0.975719	0.421324	0.421271
O46	O	-0.725719	0.671324	0.671271
O47	O	-0.475719	0.921324	0.921271
O48	O	-0.225719	1.171324	1.171271
O49	O	-1.092089	0.542247	0.670843
O50	O	-0.842089	0.792247	0.920843
O51	O	-0.592089	1.042247	1.170843
O52	O	-0.342089	1.292247	1.420843
O53	O	-0.964811	0.528591	0.528532
O54	O	-0.714811	0.778591	0.778532
O55	O	-0.464811	1.028591	1.028532
O56	O	-0.214811	1.278591	1.278532
O57	O	-1.199433	0.445327	0.671409
O58	O	-0.949433	0.695327	0.921409
O59	O	-0.699433	0.945327	1.171409
O60	O	-0.449433	1.195327	1.421409
O61	O	-1.199255	0.671468	0.445250
O62	O	-0.949255	0.921468	0.695250
O63	O	-0.699255	1.171468	0.945250
O64	O	-0.449255	1.421468	1.195250
O65	O	-1.091988	0.670905	0.542174
O66	O	-0.841988	0.920905	0.792174
O67	O	-0.591988	1.170905	1.042174
O68	O	-0.341988	1.420905	1.292174
C69	C	-0.940178	0.473347	0.473291
C70	C	-0.690178	0.723347	0.723291
C71	C	-0.440178	0.973347	0.973291
C72	C	-0.190178	1.223347	1.223291
C73	C	-0.848011	0.468432	0.468379
C74	C	-0.598011	0.718432	0.718379
C75	C	-0.348011	0.968432	0.968379
C76	C	-0.098011	1.218432	1.218379
C77	C	-1.144021	0.701429	0.495174
C78	C	-0.894021	0.951429	0.745174
C79	C	-0.644021	1.201429	0.995174
C80	C	-0.394021	1.451429	1.245174
C81	C	-1.139134	0.794074	0.499635
C82	C	-0.889134	1.044074	0.749635
C83	C	-0.639134	1.294074	0.999635
C84	C	-0.389134	1.544074	1.249635
C85	C	-0.679260	0.459439	0.459418
C86	C	-0.429260	0.709439	0.709418
C87	C	-0.179260	0.959439	0.959418
C88	C	0.070740	1.209439	1.209418
C89	C	-0.632809	0.510402	0.510236
C90	C	-0.382809	0.760402	0.760236
C91	C	-0.132809	1.010402	1.010236
C92	C	0.117191	1.260402	1.260236
C93	C	-0.538910	0.505398	0.505249
C94	C	-0.288910	0.755398	0.755249
C95	C	-0.038910	1.005398	1.005249
C96	C	0.211090	1.255398	1.255249
C97	C	-0.773167	0.464442	0.464403
C98	C	-0.523167	0.714442	0.714403
C99	C	-0.273167	0.964442	0.964403
C100	C	-0.023167	1.214442	1.214403
C101	C	-0.371896	0.496470	0.496384
C102	C	-0.121896	0.746470	0.746384
C103	C	0.128104	0.996470	0.996384
C104	C	0.378104	1.246470	1.246384
C105	C	-0.464063	0.501412	0.501277
C106	C	-0.214063	0.751412	0.751277
C107	C	0.035937	1.001412	1.001277
C108	C	0.285937	1.251412	1.251277
C109	C	-1.167279	0.267496	0.474448
C110	C	-0.917279	0.517496	0.724448
C111	C	-0.667279	0.767496	0.974448
C112	C	-0.417279	1.017496	1.224448
C113	C	-1.172249	0.174858	0.470027
C114	C	-0.922249	0.424858	0.720027
C115	C	-0.672249	0.674858	0.970027
C116	C	-0.422249	0.924858	1.220027
C117	C	-1.144117	0.495272	0.702213
C118	C	-0.894117	0.745272	0.952213
C119	C	-0.644117	0.995272	1.202213
C120	C	-0.394117	1.245272	1.452213
C121	C	-1.139216	0.499699	0.794853
C122	C	-0.889216	0.749699	1.044853
C123	C	-0.639216	0.999699	1.294853
C124	C	-0.389216	1.249699	1.544853
C125	C	-1.130217	0.963697	0.507797
C126	C	-0.880217	1.213697	0.757797
C127	C	-0.630217	1.463697	1.007797
C128	C	-0.380217	1.713697	1.257797
C129	C	-1.181163	1.005240	0.461868
C130	C	-0.931163	1.255240	0.711868
C131	C	-0.681163	1.505240	0.961868
C132	C	-0.431163	1.755240	1.211868
C133	C	-1.176202	1.099624	0.466409
C134	C	-0.926202	1.349624	0.716409
C135	C	-0.676202	1.599624	0.966409
C136	C	-0.426202	1.849624	1.216409
C137	C	-1.135178	0.869304	0.503257
C138	C	-0.885178	1.119304	0.753257
C139	C	-0.635178	1.369304	1.003257
C140	C	-0.385178	1.619304	1.253257
C141	C	-1.167122	0.474480	0.268275
C142	C	-0.917122	0.724480	0.518275
C143	C	-0.667122	0.974480	0.768275
C144	C	-0.417122	1.224480	1.018275
C145	C	-1.172196	0.469827	0.175634
C146	C	-0.922196	0.719827	0.425634
C147	C	-0.672196	0.969827	0.675634
C148	C	-0.422196	1.219827	0.925634
C149	C	-1.130240	0.507761	0.964463
C150	C	-0.880240	0.757761	1.214463
C151	C	-0.630240	1.007761	1.464463
C152	C	-0.380240	1.257761	1.714463
C153	C	-1.181169	0.461767	1.006028
C154	C	-0.931169	0.711767	1.256028
C155	C	-0.681169	0.961767	1.506028
C156	C	-0.431169	1.211767	1.756028
C157	C	-1.176175	0.466253	1.100406
C158	C	-0.926175	0.716253	1.350406
C159	C	-0.676175	0.966253	1.600406
C160	C	-0.426175	1.216253	1.850406
C161	C	-1.135233	0.503276	0.870078
C162	C	-0.885233	0.753276	1.120078
C163	C	-0.635233	1.003276	1.370078
C164	C	-0.385233	1.253276	1.620078
H165	H	-0.663561	0.557789	0.557488
H166	H	-0.413561	0.807789	0.807488
H167	H	-0.163561	1.057789	1.057488
H168	H	0.086439	1.307789	1.307488
H169	H	-0.648509	0.412055	0.412169
H170	H	-0.398509	0.662055	0.662169
H171	H	-0.148509	0.912055	0.912169
H172	H	0.101491	1.162055	1.162169
H173	H	-1.228521	0.419021	0.970734
H174	H	-0.978521	0.669021	1.220734
H175	H	-0.728521	0.919021	1.470734
H176	H	-0.478521	1.169021	1.720734
F177	F	-1.068353	0.563631	1.010593
F178	F	-0.818353	0.813631	1.260593
F179	F	-0.568353	1.063631	1.510593
F180	F	-0.318353	1.313631	1.760593
H181	H	-1.228505	0.969921	0.419135
H182	H	-0.978505	1.219921	0.669135
H183	H	-0.728505	1.469921	0.919135
H184	H	-0.478505	1.719921	1.169135
H185	H	-1.082878	0.999013	0.550525
H186	H	-0.832878	1.249013	0.800525
H187	H	-0.582878	1.499013	1.050525
H188	H	-0.332878	1.749013	1.300525
