data_functionalizedCrystal
_audit_creation_method	'MofGen! by Chris Wilmer'
_symmetry_space_group_name_H-M	'P1'
_symmetry_Int_Tables_number	1
_symmetry_cell_setting	triclinic
loop_
_symmetry_equiv_pos_as_xyz
  x,y,z
_cell_length_a	12.759401
_cell_length_b	18.215405
_cell_length_c	12.759393
_cell_angle_alpha	89.963505
_cell_angle_beta	89.980324
_cell_angle_gamma	90.025312
loop_
_atom_site_label
_atom_site_type_symbol
_atom_site_fract_x
_atom_site_fract_y
_atom_site_fract_z
Zn1	Zn	1.606192	-0.292940	-0.593941
Zn2	Zn	1.939525	0.040393	-0.260608
Zn3	Zn	2.272859	0.373726	0.072726
Zn4	Zn	1.606052	-0.416024	-0.418243
Zn5	Zn	1.939385	-0.082691	-0.084909
Zn6	Zn	2.272719	0.250642	0.248424
Zn7	Zn	1.430491	-0.292977	-0.418280
Zn8	Zn	1.763824	0.040356	-0.084947
Zn9	Zn	2.097157	0.373690	0.248387
Zn10	Zn	1.430451	-0.415971	-0.593884
Zn11	Zn	1.763785	-0.082637	-0.260550
Zn12	Zn	2.097118	0.250696	0.072783
O13	O	1.518296	-0.354478	-0.506087
O14	O	1.851630	-0.021145	-0.172753
O15	O	2.184963	0.312189	0.160580
O16	O	1.753194	-0.309275	-0.570642
O17	O	2.086528	0.024059	-0.237309
O18	O	2.419861	0.357392	0.096024
O19	O	1.582721	-0.399740	-0.271226
O20	O	1.916054	-0.066406	0.062107
O21	O	2.249388	0.266927	0.395440
O22	O	1.453873	-0.189988	-0.441621
O23	O	1.787206	0.143345	-0.108288
O24	O	2.120540	0.476679	0.225045
O25	O	1.753091	-0.399704	-0.441558
O26	O	2.086425	-0.066371	-0.108224
O27	O	2.419758	0.266963	0.225109
O28	O	1.582960	-0.189961	-0.570679
O29	O	1.916293	0.143372	-0.237345
O30	O	2.249627	0.476706	0.095988
O31	O	1.453737	-0.309337	-0.271254
O32	O	1.787070	0.023996	0.062079
O33	O	2.120404	0.357329	0.395413
O34	O	1.283464	-0.309285	-0.441566
O35	O	1.616798	0.024048	-0.108233
O36	O	1.950131	0.357381	0.225101
O37	O	1.453806	-0.399612	-0.740912
O38	O	1.787139	-0.066279	-0.407579
O39	O	2.120473	0.267054	-0.074246
O40	O	1.283436	-0.399648	-0.570581
O41	O	1.616769	-0.066315	-0.237248
O42	O	1.950102	0.267019	0.096085
O43	O	1.582922	-0.309223	-0.740954
O44	O	1.916255	0.024111	-0.407621
O45	O	2.249588	0.357444	-0.074288
O46	O	1.582683	-0.519002	-0.441502
O47	O	1.916016	-0.185668	-0.108169
O48	O	2.249350	0.147665	0.225164
O49	O	1.453670	-0.518962	-0.570545
O50	O	1.787003	-0.185629	-0.237212
O51	O	2.120337	0.147705	0.096122
C52	C	1.245329	-0.354465	-0.506072
C53	C	1.578662	-0.021132	-0.172739
C54	C	1.911996	0.312201	0.160595
C55	C	1.128552	-0.354478	-0.506091
C56	C	1.461886	-0.021144	-0.172757
C57	C	1.795219	0.312189	0.160576
C58	C	1.073745	-0.307476	-0.573409
C59	C	1.407078	0.025857	-0.240075
C60	C	1.740411	0.359190	0.093258
C61	C	0.964021	-0.307484	-0.573416
C62	C	1.297354	0.025850	-0.240082
C63	C	1.630687	0.359183	0.093251
C64	C	0.963922	-0.401501	-0.438783
C65	C	1.297255	-0.068167	-0.105450
C66	C	1.630588	0.265166	0.227883
C67	C	1.073644	-0.401489	-0.438772
C68	C	1.406977	-0.068155	-0.105439
C69	C	1.740310	0.265178	0.227895
C70	C	1.518186	-0.545684	-0.506036
C71	C	1.851519	-0.212351	-0.172703
C72	C	2.184852	0.120982	0.160630
C73	C	1.518234	-0.627483	-0.506050
C74	C	1.851568	-0.294150	-0.172716
C75	C	2.184901	0.039183	0.160617
C76	C	1.585569	-0.815673	-0.438981
C77	C	1.918902	-0.482340	-0.105648
C78	C	2.252236	-0.149007	0.227686
C79	C	1.585616	-0.892532	-0.439006
C80	C	1.918949	-0.559199	-0.105673
C81	C	2.252283	-0.225865	0.227660
C82	C	1.451158	-0.892531	-0.573268
C83	C	1.784492	-0.559197	-0.239935
C84	C	2.117825	-0.225864	0.093398
C85	C	1.451118	-0.815674	-0.573247
C86	C	1.784451	-0.482340	-0.239914
C87	C	2.117784	-0.149007	0.093419
C88	C	1.518321	-0.777247	-0.506098
C89	C	1.851655	-0.443913	-0.172764
C90	C	2.184988	-0.110580	0.160569
C91	C	1.518409	-0.930963	-0.506144
C92	C	1.851742	-0.597629	-0.172811
C93	C	2.185076	-0.264296	0.160523
C94	C	1.518460	-1.014296	-0.506172
C95	C	1.851793	-0.680963	-0.172839
C96	C	2.185126	-0.347630	0.160495
C97	C	1.518272	-0.693908	-0.506071
C98	C	1.851606	-0.360574	-0.172737
C99	C	2.184939	-0.027241	0.160596
C100	C	1.792330	-0.354491	-0.506102
C101	C	2.125663	-0.021158	-0.172769
C102	C	2.458996	0.312175	0.160564
C103	C	1.909106	-0.354497	-0.506109
C104	C	2.242440	-0.021164	-0.172776
C105	C	2.575773	0.312170	0.160558
C106	C	1.518375	-0.354407	-0.780120
C107	C	1.851708	-0.021074	-0.446787
C108	C	2.185042	0.312259	-0.113454
C109	C	1.518409	-0.354377	-0.896897
C110	C	1.851742	-0.021044	-0.563564
C111	C	2.185075	0.312289	-0.230230
C112	C	1.518436	-0.162525	-0.506161
C113	C	1.851770	0.170808	-0.172827
C114	C	2.185103	0.504142	0.160506
C115	C	1.518496	-0.080726	-0.506192
C116	C	1.851829	0.252607	-0.172859
C117	C	2.185163	0.585940	0.160475
C118	C	1.585644	-0.307304	-0.951783
C119	C	1.918978	0.026029	-0.618449
C120	C	2.252311	0.359363	-0.285116
C121	C	1.585662	-0.307272	-1.061507
C122	C	1.918995	0.026061	-0.728173
C123	C	2.252329	0.359395	-0.394840
C124	C	1.451206	-0.401394	-1.061450
C125	C	1.784539	-0.068060	-0.728117
C126	C	2.117872	0.265273	-0.394783
C127	C	1.451183	-0.401421	-0.951728
C128	C	1.784517	-0.068088	-0.618395
C129	C	2.117850	0.265245	-0.285061
C130	C	1.518279	-0.354495	-0.233119
C131	C	1.851612	-0.021162	0.100214
C132	C	2.184945	0.312171	0.433547
C133	C	1.518449	-0.354318	-0.116343
C134	C	1.851782	-0.020985	0.216990
C135	C	2.185115	0.312349	0.550323
H136	H	0.919202	-0.439776	-0.383976
H137	H	1.252535	-0.106443	-0.050643
H138	H	1.585868	0.226891	0.282691
C139	C	1.133937	-0.453195	-0.364722
C140	C	1.467270	-0.119862	-0.031389
C141	C	1.800603	0.213471	0.301945
H142	H	1.085522	-0.481203	-0.324642
H143	H	1.418855	-0.147869	0.008691
H144	H	1.752189	0.185464	0.342024
H145	H	1.176732	-0.425001	-0.319017
H146	H	1.510065	-0.091667	0.014317
H147	H	1.843399	0.241666	0.347650
H148	H	1.176742	-0.485291	-0.404833
H149	H	1.510075	-0.151958	-0.071499
H150	H	1.843409	0.181375	0.261834
H151	H	1.396476	-0.439697	-1.106107
H152	H	1.729809	-0.106363	-0.772773
H153	H	2.063142	0.226970	-0.439440
H154	H	1.640292	-0.784388	-0.384305
H155	H	1.973625	-0.451055	-0.050972
H156	H	2.306958	-0.117721	0.282362
H157	H	1.640377	-0.923816	-0.384355
H158	H	1.973711	-0.590482	-0.051021
H159	H	2.307044	-0.257149	0.282312
H160	H	1.396425	-0.439753	-0.907039
H161	H	1.729758	-0.106420	-0.573706
H162	H	2.063091	0.226913	-0.240372
H163	H	1.118448	-0.269195	-0.628220
H164	H	1.451781	0.064139	-0.294887
H165	H	1.785115	0.397472	0.038446
H166	H	0.919401	-0.269209	-0.628231
H167	H	1.252734	0.064124	-0.294898
H168	H	1.586068	0.397457	0.038436
H169	H	1.396442	-0.923827	-0.627938
H170	H	1.729775	-0.590494	-0.294604
H171	H	2.063109	-0.257161	0.038729
H172	H	1.396356	-0.784384	-0.627907
H173	H	1.729689	-0.451051	-0.294574
H174	H	2.063023	-0.117718	0.038760
C175	C	1.659575	-0.255549	-0.891472
C176	C	1.992908	0.077784	-0.558138
C177	C	2.326242	0.411118	-0.224805
H178	H	1.699612	-0.227504	-0.939879
H179	H	2.032945	0.105830	-0.606545
H180	H	2.366278	0.439163	-0.273212
H181	H	1.705325	-0.283708	-0.848661
H182	H	2.038659	0.049625	-0.515327
H183	H	2.371992	0.382959	-0.181994
H184	H	1.619389	-0.223490	-0.848681
H185	H	1.952722	0.109843	-0.515348
H186	H	2.286055	0.443176	-0.182014
H187	H	1.640410	-0.268939	-1.106190
H188	H	1.973744	0.064394	-0.772856
H189	H	2.307077	0.397728	-0.439523
