data_functionalizedCrystal
_audit_creation_method	'MofGen! by Chris Wilmer'
_symmetry_space_group_name_H-M	'P1'
_symmetry_Int_Tables_number	1
_symmetry_cell_setting	triclinic
loop_
_symmetry_equiv_pos_as_xyz
  x,y,z
_cell_length_a	23.532407
_cell_length_b	23.532355
_cell_length_c	15.455446
_cell_angle_alpha	87.346862
_cell_angle_beta	92.661642
_cell_angle_gamma	82.838088
loop_
_atom_site_label
_atom_site_type_symbol
_atom_site_fract_x
_atom_site_fract_y
_atom_site_fract_z
O1	O	0.071495	0.752778	0.072021
O2	O	0.404828	1.086112	0.405354
O3	O	0.738161	1.419445	0.738688
O4	O	0.081530	0.586910	0.072050
O5	O	0.414863	0.920243	0.405383
O6	O	0.748196	1.253577	0.738717
O7	O	-0.006421	0.674846	0.072019
O8	O	0.326912	1.008180	0.405352
O9	O	0.660246	1.341513	0.738685
O10	O	0.159445	0.664842	0.072052
O11	O	0.492779	0.998175	0.405386
O12	O	0.826112	1.331509	0.738719
O13	O	-0.011432	0.679847	-0.072242
O14	O	0.321901	1.013180	0.261091
O15	O	0.655234	1.346514	0.594425
O16	O	0.076518	0.591910	-0.072211
O17	O	0.409852	0.925244	0.261122
O18	O	0.743185	1.258577	0.594456
O19	O	0.066483	0.757779	-0.072240
O20	O	0.399817	1.091112	0.261094
O21	O	0.733150	1.424446	0.594427
Cu22	Cu	0.071043	0.675301	-0.085397
Cu23	Cu	0.404377	1.008635	0.247936
Cu24	Cu	0.737710	1.341968	0.581269
Cu25	Cu	0.076970	0.669388	0.085208
Cu26	Cu	0.410303	1.002721	0.418541
Cu27	Cu	0.743636	1.336054	0.751874
O28	O	0.154434	0.669842	-0.072209
O29	O	0.487767	1.003176	0.261125
O30	O	0.821101	1.336509	0.594458
C31	C	0.078773	0.568193	-0.000077
C32	C	0.412107	0.901527	0.333256
C33	C	0.745440	1.234860	0.666590
C34	C	0.078020	0.504974	-0.000067
C35	C	0.411353	0.838308	0.333267
C36	C	0.744686	1.171641	0.666600
C37	C	-0.030143	0.677092	-0.000114
C38	C	0.303191	1.010425	0.333220
C39	C	0.636524	1.343759	0.666553
C40	C	-0.093360	0.676326	-0.000120
C41	C	0.239973	1.009660	0.333213
C42	C	0.573307	1.342993	0.666546
C43	C	0.070549	0.115688	-0.078741
C44	C	0.403882	0.449021	0.254593
C45	C	0.737215	0.782354	0.587926
C46	C	0.069831	0.056288	-0.078744
C47	C	0.403164	0.389622	0.254589
C48	C	0.736498	0.722955	0.587923
O49	O	0.067117	0.027888	-0.145621
O50	O	0.400451	0.361221	0.187713
O51	O	0.733784	0.694555	0.521046
N52	N	0.072207	0.023854	-0.000108
N53	N	0.405540	0.357187	0.333226
N54	N	0.738874	0.690521	0.666559
C55	C	0.075295	0.050823	0.078537
C56	C	0.408628	0.384156	0.411870
C57	C	0.741962	0.717490	0.745204
O58	O	0.077249	0.017781	0.145423
O59	O	0.410583	0.351114	0.478756
O60	O	0.743916	0.684448	0.812090
C61	C	0.076008	0.110222	0.078540
C62	C	0.409342	0.443555	0.411873
C63	C	0.742675	0.776888	0.745206
C64	C	0.073638	0.142652	-0.000102
C65	C	0.406971	0.475986	0.333232
C66	C	0.740305	0.809319	0.666565
C67	C	0.068178	0.148118	-0.157376
C68	C	0.401511	0.481452	0.175958
C69	C	0.734844	0.814785	0.509291
C70	C	0.068896	0.207513	-0.157372
C71	C	0.402230	0.540847	0.175962
C72	C	0.735563	0.874180	0.509295
C73	C	0.071986	0.234478	-0.078733
C74	C	0.405319	0.567811	0.254600
C75	C	0.738652	0.901144	0.587934
C76	C	0.074357	0.202047	-0.000098
C77	C	0.407690	0.535381	0.333235
C78	C	0.741023	0.868714	0.666569
C79	C	0.079092	0.137190	0.157184
C80	C	0.412425	0.470523	0.490517
C81	C	0.745759	0.803857	0.823850
C82	C	0.079805	0.196593	0.157179
C83	C	0.413138	0.529926	0.490513
C84	C	0.746472	0.863260	0.823846
C85	C	0.077435	0.229024	0.078538
C86	C	0.410768	0.562357	0.411871
C87	C	0.744101	0.895690	0.745205
C88	C	0.078165	0.288407	0.078545
C89	C	0.411498	0.621740	0.411878
C90	C	0.744831	0.955074	0.745211
N91	N	0.075789	0.320841	-0.000091
N92	N	0.409122	0.654174	0.333242
N93	N	0.742455	0.987508	0.666575
C94	C	0.072699	0.293877	-0.078730
C95	C	0.406033	0.627210	0.254603
C96	C	0.739366	0.960543	0.587936
C97	C	0.073795	-0.073918	0.078526
C98	C	0.407129	0.259415	0.411859
C99	C	0.740462	0.592748	0.745192
C100	C	0.073086	-0.133317	0.078524
C101	C	0.406419	0.200017	0.411857
C102	C	0.739753	0.533350	0.745191
C103	C	0.067621	-0.127847	-0.078757
C104	C	0.400955	0.205487	0.254576
C105	C	0.734288	0.538820	0.587909
C106	C	0.068335	-0.068448	-0.078755
C107	C	0.401668	0.264885	0.254578
C108	C	0.735001	0.598219	0.587912
C109	C	0.071419	-0.041484	-0.000111
C110	C	0.404753	0.291849	0.333223
C111	C	0.738086	0.625183	0.666556
C112	C	0.074209	0.418610	-0.078716
C113	C	0.407542	0.751943	0.254617
C114	C	0.740876	1.085277	0.587950
C115	C	0.074930	0.478010	-0.078705
C116	C	0.408264	0.811343	0.254628
C117	C	0.741597	1.144677	0.587961
C118	C	0.080392	0.472535	0.078575
C119	C	0.413725	0.805869	0.411909
C120	C	0.747059	1.139202	0.745242
C121	C	0.079674	0.413140	0.078565
C122	C	0.413007	0.746474	0.411898
C123	C	0.746341	1.079807	0.745232
C124	C	0.076580	0.386180	-0.000088
C125	C	0.409914	0.719513	0.333246
C126	C	0.743247	1.052846	0.666579
O127	O	0.080875	0.316847	0.145387
O128	O	0.414208	0.650180	0.478721
O129	O	0.747542	0.983513	0.812054
O130	O	0.070738	0.326926	-0.145605
O131	O	0.404071	0.660260	0.187728
O132	O	0.737404	0.993593	0.521062
C133	C	-0.492470	0.723560	-0.000081
C134	C	-0.159137	1.056893	0.333252
C135	C	0.174196	1.390226	0.666586
C136	C	-0.551870	0.722848	-0.000074
C137	C	-0.218537	1.056181	0.333259
C138	C	0.114796	1.389515	0.666592
O139	O	-0.588622	0.766634	-0.000050
O140	O	-0.255289	1.099967	0.333283
O141	O	0.078045	1.433301	0.666617
N142	N	-0.574486	0.670570	-0.000066
N143	N	-0.241153	1.003903	0.333267
N144	N	0.092180	1.337237	0.666601
C145	C	-0.537699	0.619000	-0.000055
C146	C	-0.204365	0.952333	0.333278
C147	C	0.128968	1.285667	0.666611
O148	O	-0.562390	0.574468	-0.000047
O149	O	-0.229057	0.907802	0.333287
O150	O	0.104277	1.241135	0.666620
C151	C	-0.478300	0.619712	-0.000056
C152	C	-0.144967	0.953046	0.333278
C153	C	0.188367	1.286379	0.666611
C154	C	-0.455688	0.671994	-0.000073
C155	C	-0.122354	1.005327	0.333260
C156	C	0.210979	1.338661	0.666594
C157	C	-0.469857	0.775837	-0.000097
C158	C	-0.136524	1.109170	0.333236
C159	C	0.196809	1.442504	0.666569
C160	C	-0.410462	0.776549	-0.000106
C161	C	-0.077128	1.109882	0.333228
C162	C	0.256205	1.443215	0.666561
C163	C	-0.373679	0.724983	-0.000098
C164	C	-0.040346	1.058316	0.333236
C165	C	0.292988	1.391649	0.666569
C166	C	-0.396292	0.672705	-0.000081
C167	C	-0.062959	1.006039	0.333252
C168	C	0.270375	1.339372	0.666585
C169	C	-0.441513	0.568143	-0.000039
C170	C	-0.108180	0.901476	0.333294
C171	C	0.225153	1.234809	0.666628
C172	C	-0.382111	0.568859	-0.000039
C173	C	-0.048778	0.902193	0.333295
C174	C	0.284556	1.235526	0.666628
C175	C	-0.359499	0.621141	-0.000056
C176	C	-0.026165	0.954474	0.333277
C177	C	0.307168	1.287808	0.666611
C178	C	-0.300113	0.621851	-0.000082
C179	C	0.033220	0.955184	0.333252
C180	C	0.366553	1.288518	0.666585
N181	N	-0.277497	0.674129	-0.000090
N182	N	0.055836	1.007462	0.333243
N183	N	0.389169	1.340796	0.666576
C184	C	-0.314280	0.725695	-0.000098
C185	C	0.019053	1.059028	0.333235
C186	C	0.352387	1.392362	0.666569
C187	C	-0.662441	0.617509	-0.000053
C188	C	-0.329108	0.950842	0.333281
C189	C	0.004226	1.284175	0.666614
C190	C	-0.721839	0.616796	-0.000058
C191	C	-0.388506	0.950129	0.333275
C192	C	-0.055172	1.283463	0.666608
C193	C	-0.736006	0.720644	-0.000076
C194	C	-0.402673	1.053978	0.333258
C195	C	-0.069340	1.387311	0.666591
C196	C	-0.676607	0.721356	-0.000076
C197	C	-0.343274	1.054690	0.333257
C198	C	-0.009941	1.388023	0.666590
C199	C	-0.639825	0.669787	-0.000061
C200	C	-0.306492	1.003120	0.333272
C201	C	0.026842	1.336453	0.666606
C202	C	-0.189544	0.727185	-0.000116
C203	C	0.143789	1.060519	0.333217
C204	C	0.477123	1.393852	0.666550
C205	C	-0.130143	0.727892	-0.000128
C206	C	0.203191	1.061226	0.333205
C207	C	0.536524	1.394559	0.666538
C208	C	-0.115980	0.624044	-0.000106
C209	C	0.217353	0.957378	0.333227
C210	C	0.550686	1.290711	0.666560
C211	C	-0.175377	0.623337	-0.000099
C212	C	0.157957	0.956670	0.333234
C213	C	0.491290	1.290004	0.666568
C214	C	-0.212158	0.674912	-0.000101
C215	C	0.121176	1.008245	0.333232
C216	C	0.454509	1.341579	0.666566
O217	O	-0.263327	0.578088	-0.000103
O218	O	0.070007	0.911421	0.333231
O219	O	0.403340	1.244754	0.666564
O220	O	-0.289580	0.770219	-0.000095
O221	O	0.043753	1.103552	0.333238
O222	O	0.377086	1.436886	0.666571
C223	C	0.178156	0.667597	-0.000074
C224	C	0.511489	1.000930	0.333259
C225	C	0.844823	1.334263	0.666593
C226	C	0.241373	0.668362	-0.000062
C227	C	0.574707	1.001695	0.333272
C228	C	0.908040	1.335029	0.666605
C229	C	0.069240	0.776495	-0.000111
C230	C	0.402573	1.109829	0.333222
C231	C	0.735906	1.443162	0.666556
C232	C	0.069994	0.839714	-0.000115
C233	C	0.403327	1.173047	0.333218
C234	C	0.736660	1.506381	0.666551
N235	N	0.066875	0.679465	-0.205392
N236	N	0.400208	1.012798	0.127941
N237	N	0.733541	1.346131	0.461275
C238	C	0.043784	0.702594	-0.749394
C239	C	0.377117	1.035927	-0.416061
C240	C	0.710451	1.369260	-0.082728
C241	C	0.046944	0.699432	-0.658587
C242	C	0.380277	1.032765	-0.325254
C243	C	0.713610	1.366099	0.008079
C244	C	0.087451	0.658902	-0.613185
C245	C	0.420784	0.992235	-0.279852
C246	C	0.754118	1.325569	0.053481
C247	C	0.124805	0.621535	-0.658595
C248	C	0.458138	0.954868	-0.325262
C249	C	0.791472	1.288202	0.008072
C250	C	0.121648	0.624700	-0.749401
C251	C	0.454981	0.958033	-0.416067
C252	C	0.788314	1.291367	-0.082734
C253	C	0.101071	0.645263	-0.341607
C254	C	0.434404	0.978596	-0.008274
C255	C	0.767738	1.311929	0.325059
C256	C	0.104225	0.642100	-0.250795
C257	C	0.437558	0.975433	0.082538
C258	C	0.770891	1.308766	0.415871
C259	C	0.026363	0.719998	-0.250794
C260	C	0.359697	1.053331	0.082540
C261	C	0.693030	1.386664	0.415873
C262	C	0.023207	0.723157	-0.341601
C263	C	0.356541	1.056490	-0.008268
C264	C	0.689874	1.389823	0.325066
C265	C	0.060563	0.685792	-0.387003
C266	C	0.393897	1.019125	-0.053670
C267	C	0.727230	1.352458	0.279664
N268	N	0.090681	0.655668	-0.520366
N269	N	0.424014	0.989001	-0.187033
N270	N	0.757347	1.322335	0.146301
N271	N	0.057336	0.689029	-0.479821
N272	N	0.390669	1.022362	-0.146487
N273	N	0.724003	1.355695	0.186846
N274	N	0.081134	0.665229	0.205202
N275	N	0.414467	0.998562	0.538536
N276	N	0.747801	1.331895	0.871869
H277	H	0.073002	0.504412	-0.142748
H278	H	0.406335	0.837746	0.190586
H279	H	0.739669	1.171079	0.523919
C280	C	0.082288	0.377465	0.165074
C281	C	0.415621	0.710798	0.498407
C282	C	0.748955	1.044132	0.831741
N283	N	0.084252	0.350599	0.230234
N284	N	0.417585	0.683932	0.563568
N285	N	0.750918	1.017265	0.896901
C286	C	0.077196	-0.044265	0.165046
C287	C	0.410529	0.289069	0.498380
C288	C	0.743863	0.622402	0.831713
N289	N	0.079757	-0.021932	0.230214
N290	N	0.413090	0.311401	0.563547
N291	N	0.746423	0.644734	0.896880
H292	H	0.010796	0.735595	-0.786355
H293	H	0.344129	1.068929	-0.453021
H294	H	0.677463	1.402262	-0.119688
C295	C	0.065722	-0.032779	-0.165266
C296	C	0.399055	0.300554	0.168068
C297	C	0.732388	0.633888	0.501401
N298	N	0.063751	-0.005916	-0.230429
N299	N	0.397084	0.327418	0.102904
N300	N	0.730418	0.660751	0.436237
H301	H	-0.086021	0.582061	-0.000103
H302	H	0.247312	0.915394	0.333230
H303	H	0.580645	1.248728	0.666564
H304	H	-0.632495	0.575512	-0.000048
H305	H	-0.299162	0.908845	0.333286
H306	H	0.034171	1.242179	0.666619
C307	C	-0.341653	0.512127	-0.000025
C308	C	-0.008320	0.845460	0.333308
C309	C	0.325014	1.178794	0.666641
N310	N	-0.311182	0.469396	-0.000018
N311	N	0.022152	0.802730	0.333315
N312	N	0.355485	1.136063	0.666648
C313	C	0.005853	0.740534	-0.608647
C314	C	0.339186	1.073868	-0.275314
C315	C	0.672519	1.407201	0.058019
N316	N	-0.025100	0.771494	-0.571033
N317	N	0.308233	1.104827	-0.237700
N318	N	0.641567	1.438161	0.095633
H319	H	-0.009777	0.756159	-0.378565
H320	H	0.323556	1.089493	-0.045232
H321	H	0.656890	1.422826	0.288101
H322	H	-0.219485	0.769182	-0.000115
H323	H	0.113849	1.102516	0.333219
H324	H	0.447182	1.435849	0.666552
C325	C	-0.200251	0.565825	-0.000086
C326	C	0.133082	0.899159	0.333248
C327	C	0.466416	1.232492	0.666581
N328	N	-0.218982	0.522506	-0.000066
N329	N	0.114351	0.855839	0.333267
N330	N	0.447685	1.189173	0.666600
C331	C	-0.746706	0.559283	-0.000050
C332	C	-0.413372	0.892616	0.333283
C333	C	-0.080039	1.225949	0.666616
N334	N	-0.765433	0.515961	-0.000038
N335	N	-0.432099	0.849295	0.333295
N336	N	-0.098766	1.182628	0.666628
C337	C	-0.014728	0.761094	-0.200844
C338	C	0.318606	1.094427	0.132489
C339	C	0.651939	1.427760	0.465822
N340	N	-0.045680	0.792048	-0.163222
N341	N	0.287654	1.125382	0.170111
N342	N	0.620987	1.458715	0.503445
H343	H	0.137212	0.609093	-0.213833
H344	H	0.470546	0.942426	0.119500
H345	H	0.803879	1.275759	0.452833
C346	C	0.142159	0.604154	-0.391538
C347	C	0.475492	0.937488	-0.058204
C348	C	0.808826	1.270821	0.275129
N349	N	0.173107	0.573188	-0.429148
N350	N	0.506440	0.906521	-0.095815
N351	N	0.839773	1.239855	0.237518
C352	C	0.169364	0.576951	-0.608650
C353	C	0.502697	0.910285	-0.275316
C354	C	0.836031	1.243618	0.058017
N355	N	0.202925	0.543368	-0.571032
N356	N	0.536258	0.876701	-0.237698
N357	N	0.869591	1.210035	0.095635
C358	C	-0.510311	0.832569	-0.000115
C359	C	-0.176977	1.165903	0.333218
C360	C	0.156356	1.499236	0.666551
N361	N	-0.540777	0.875304	-0.000138
N362	N	-0.207444	1.208637	0.333195
N363	N	0.125890	1.541971	0.666528
C364	C	0.070812	0.388961	-0.165238
C365	C	0.404145	0.722295	0.168095
C366	C	0.737478	1.055628	0.501428
N367	N	0.068258	0.366630	-0.230407
N368	N	0.401591	0.699963	0.102926
N369	N	0.734924	1.033296	0.436260
H370	H	-0.111736	0.770468	-0.000145
H371	H	0.221598	1.103801	0.333189
H372	H	0.554931	1.437135	0.666522
H373	H	0.065105	-0.149812	-0.142790
H374	H	0.398438	0.183522	0.190544
H375	H	0.731771	0.516855	0.523877
H376	H	0.152063	0.594274	-0.786367
H377	H	0.485396	0.927607	-0.453034
H378	H	0.818729	1.260941	-0.119701
H379	H	-0.392057	0.819121	-0.000116
H380	H	-0.058723	1.152455	0.333217
H381	H	0.274610	1.485788	0.666551
C382	C	-0.776479	0.777368	-0.000075
C383	C	-0.443145	1.110701	0.333258
C384	C	-0.109812	1.444034	0.666591
N385	N	-0.806964	0.820089	-0.000074
N386	N	-0.473630	1.153422	0.333259
N387	N	-0.140297	1.486756	0.666593
H388	H	0.066963	0.233914	-0.221410
H389	H	0.400296	0.567247	0.111924
H390	H	0.733629	0.900580	0.445257
H391	H	0.082317	0.218544	0.221223
H392	H	0.415651	0.551877	0.554556
H393	H	0.748984	0.885210	0.887889
H394	H	0.075025	-0.159718	0.142562
H395	H	0.408359	0.173615	0.475895
H396	H	0.741692	0.506949	0.809228
C397	C	0.064787	0.118466	-0.243892
C398	C	0.398120	0.451799	0.089441
C399	C	0.731454	0.785133	0.422774
N400	N	0.062240	0.096135	-0.309062
N401	N	0.395573	0.429468	0.024271
N402	N	0.728906	0.762802	0.357604
H403	H	0.081022	0.110795	0.221222
H404	H	0.414355	0.444128	0.554555
H405	H	0.747688	0.777462	0.887889
C406	C	-0.651740	0.778869	-0.000088
C407	C	-0.318406	1.112202	0.333246
C408	C	0.014927	1.445536	0.666579
N409	N	-0.633012	0.822190	-0.000093
N410	N	-0.299679	1.155524	0.333240
N411	N	0.033654	1.488857	0.666574
C412	C	-0.466373	0.510628	-0.000014
C413	C	-0.133039	0.843961	0.333319
C414	C	0.200294	1.177294	0.666653
N415	N	-0.485095	0.467304	0.000008
N416	N	-0.151762	0.800637	0.333341
N417	N	0.181572	1.133970	0.666674
C418	C	0.083786	0.502208	0.165074
C419	C	0.417120	0.835542	0.498407
C420	C	0.750453	1.168875	0.831741
N421	N	0.086338	0.524561	0.230225
N422	N	0.419671	0.857894	0.563559
N423	N	0.753004	1.191227	0.896892
