data_functionalizedCrystal
_audit_creation_method	'MofGen! by Chris Wilmer'
_symmetry_space_group_name_H-M	'P1'
_symmetry_Int_Tables_number	1
_symmetry_cell_setting	triclinic
loop_
_symmetry_equiv_pos_as_xyz
  x,y,z
_cell_length_a	15.995350
_cell_length_b	16.109301
_cell_length_c	14.586319
_cell_angle_alpha	89.999213
_cell_angle_beta	90.001560
_cell_angle_gamma	96.523072
loop_
_atom_site_label
_atom_site_type_symbol
_atom_site_fract_x
_atom_site_fract_y
_atom_site_fract_z
O1	O	0.107624	-1.103160	0.076178
O2	O	0.440957	-0.769826	0.409511
O3	O	0.774291	-0.436493	0.742844
O4	O	0.121018	-0.861101	0.076192
O5	O	0.454351	-0.527768	0.409525
O6	O	0.787684	-0.194435	0.742858
O7	O	-0.007569	-0.988747	0.076184
O8	O	0.325765	-0.655414	0.409517
O9	O	0.659098	-0.322081	0.742850
O10	O	0.236210	-0.975514	0.076186
O11	O	0.569544	-0.642180	0.409519
O12	O	0.902877	-0.308847	0.742853
O13	O	-0.007570	-0.988739	-0.076297
O14	O	0.325763	-0.655405	0.257036
O15	O	0.659096	-0.322072	0.590369
O16	O	0.121016	-0.861093	-0.076289
O17	O	0.454349	-0.527759	0.257044
O18	O	0.787683	-0.194426	0.590378
O19	O	0.107622	-1.103151	-0.076303
O20	O	0.440956	-0.769818	0.257030
O21	O	0.774289	-0.436484	0.590364
Cu22	Cu	0.114319	-0.982121	-0.090219
Cu23	Cu	0.447652	-0.648788	0.243115
Cu24	Cu	0.780986	-0.315454	0.576448
Cu25	Cu	0.114321	-0.982131	0.090107
Cu26	Cu	0.447654	-0.648798	0.423441
Cu27	Cu	0.780988	-0.315465	0.756774
O28	O	0.236208	-0.975505	-0.076295
O29	O	0.569542	-0.642172	0.257039
O30	O	0.902875	-0.308838	0.590372
C31	C	0.120474	-0.830122	-0.000047
C32	C	0.453808	-0.496789	0.333287
C33	C	0.787141	-0.163455	0.666620
C34	C	0.118848	-0.737826	-0.000041
C35	C	0.452181	-0.404493	0.333292
C36	C	0.785514	-0.071160	0.666625
C37	C	-0.038764	-0.988196	-0.000055
C38	C	0.294569	-0.654863	0.333278
C39	C	0.627903	-0.321529	0.666612
C40	C	-0.131714	-0.986556	-0.000050
C41	C	0.201619	-0.653222	0.333284
C42	C	0.534953	-0.319889	0.666617
N43	N	0.114317	-0.982120	-0.217050
N44	N	0.447650	-0.648786	0.116283
N45	N	0.780983	-0.315453	0.449616
C46	C	-0.469460	-0.980665	-0.000053
C47	C	-0.136127	-0.647332	0.333281
C48	C	0.197207	-0.313999	0.666614
C49	C	-0.422001	-0.889758	0.000295
C50	C	-0.088668	-0.556425	0.333628
C51	C	0.244666	-0.223091	0.666961
C52	C	-0.325311	-0.891399	-0.000049
C53	C	0.008022	-0.558065	0.333284
C54	C	0.341355	-0.224732	0.666618
C55	C	-0.301900	-0.983587	-0.000051
C56	C	0.031433	-0.650254	0.333283
C57	C	0.364767	-0.316920	0.666616
C58	C	-0.342991	-1.028421	-0.087126
C59	C	-0.009658	-0.695087	0.246208
C60	C	0.323676	-0.361754	0.579541
C61	C	-0.439626	-1.026137	-0.087198
C62	C	-0.106293	-0.692804	0.246135
C63	C	0.227041	-0.359470	0.579468
C64	C	-0.439983	-1.028025	0.086201
C65	C	-0.106649	-0.694692	0.419534
C66	C	0.226684	-0.361358	0.752867
C67	C	-0.343037	-1.028003	0.087351
C68	C	-0.009704	-0.694670	0.420685
C69	C	0.323629	-0.361337	0.754018
C70	C	-0.207203	-0.985243	-0.000053
C71	C	0.126130	-0.651910	0.333281
C72	C	0.459464	-0.318577	0.666614
C73	C	-0.564157	-0.979012	-0.000057
C74	C	-0.230824	-0.645679	0.333277
C75	C	0.102509	-0.312345	0.666610
C76	C	0.267404	-0.976056	-0.000054
C77	C	0.600737	-0.642723	0.333279
C78	C	0.934071	-0.309390	0.666613
C79	C	0.360354	-0.977697	-0.000053
C80	C	0.693687	-0.644363	0.333280
C81	C	1.027021	-0.311030	0.666613
C82	C	0.108166	-1.134130	-0.000062
C83	C	0.441499	-0.800797	0.333271
C84	C	0.774832	-0.467464	0.666604
C85	C	0.109792	-1.226426	-0.000062
C86	C	0.443126	-0.893093	0.333271
C87	C	0.776459	-0.559759	0.666605
C88	C	0.191366	-0.515573	-0.000051
C89	C	0.524699	-0.182240	0.333282
C90	C	0.858033	0.151093	0.666615
C91	C	0.189831	-0.428853	-0.000057
C92	C	0.523165	-0.095519	0.333276
C93	C	0.856498	0.237814	0.666610
C94	C	0.037268	-0.448686	-0.000055
C95	C	0.370601	-0.115352	0.333279
C96	C	0.703935	0.217981	0.666612
C97	C	0.038804	-0.535405	-0.000055
C98	C	0.372137	-0.202072	0.333278
C99	C	0.705470	0.131262	0.666611
C100	C	0.115855	-0.568846	-0.000049
C101	C	0.449189	-0.235513	0.333284
C102	C	0.782522	0.097821	0.666618
C103	C	0.112785	-0.395406	-0.000054
C104	C	0.446118	-0.062073	0.333279
C105	C	0.779451	0.271260	0.666612
C106	C	0.111120	-0.301380	-0.000061
C107	C	0.444453	0.031954	0.333273
C108	C	0.777787	0.365287	0.666606
C109	C	0.117520	-0.662879	-0.000044
C110	C	0.450854	-0.329545	0.333289
C111	C	0.784187	0.003788	0.666622
C112	C	0.057398	-1.038660	-0.452061
C113	C	0.390731	-0.705327	-0.118727
C114	C	0.724064	-0.371993	0.214606
C115	C	0.057396	-1.038662	-0.548042
C116	C	0.390729	-0.705329	-0.214708
C117	C	0.724062	-0.371996	0.118625
C118	C	0.171238	-0.925593	-0.548044
C119	C	0.504572	-0.592260	-0.214711
C120	C	0.837905	-0.258926	0.118623
C121	C	0.171236	-0.925587	-0.452064
C122	C	0.504569	-0.592254	-0.118731
C123	C	0.837902	-0.258921	0.214602
C124	C	0.114316	-0.982125	-0.404075
C125	C	0.447650	-0.648792	-0.070742
C126	C	0.780983	-0.315459	0.262591
C127	C	0.114317	-0.982134	-0.596036
C128	C	0.447650	-0.648800	-0.262703
C129	C	0.780984	-0.315467	0.070631
C130	C	0.114315	-0.982136	-0.700103
C131	C	0.447649	-0.648802	-0.366770
C132	C	0.780982	-0.315469	-0.033436
C133	C	0.114317	-0.982122	-0.300001
C134	C	0.447650	-0.648789	0.033332
C135	C	0.780983	-0.315456	0.366665
N136	N	0.114317	-0.982139	0.216939
N137	N	0.447650	-0.648806	0.550273
N138	N	0.780983	-0.315473	0.883606
H139	H	-0.296879	-0.856156	0.062370
H140	H	0.036455	-0.522823	0.395703
H141	H	0.369788	-0.189490	0.729036
Cl142	Cl	-0.056132	-0.602382	-0.000060
Cl143	Cl	0.277201	-0.269048	0.333273
Cl144	Cl	0.610534	0.064285	0.666607
Cl145	Cl	-0.014164	-1.109736	-0.608364
Cl146	Cl	0.319170	-0.776402	-0.275030
Cl147	Cl	0.652503	-0.443069	0.058303
Cl148	Cl	-0.059591	-0.406639	-0.000057
Cl149	Cl	0.273742	-0.073306	0.333276
Cl150	Cl	0.607075	0.260028	0.666610
H151	H	0.011050	-1.084696	-0.412990
H152	H	0.344383	-0.751362	-0.079657
H153	H	0.677716	-0.418029	0.253677
Cl154	Cl	-0.471667	-0.982134	0.188097
Cl155	Cl	-0.138334	-0.648801	0.521430
Cl156	Cl	0.195000	-0.315467	0.854763
Cl157	Cl	-0.319345	-1.131799	0.095474
Cl158	Cl	0.013988	-0.798465	0.428807
Cl159	Cl	0.347322	-0.465132	0.762140
H160	H	0.217582	-0.879562	-0.587126
H161	H	0.550915	-0.546229	-0.253793
H162	H	0.884248	-0.212895	0.079540
Cl163	Cl	0.284764	-0.361884	-0.000061
Cl164	Cl	0.618097	-0.028551	0.333272
Cl165	Cl	0.951431	0.304783	0.666606
H166	H	-0.314602	-0.997274	-0.151923
H167	H	0.018732	-0.663941	0.181411
H168	H	0.352065	-0.330608	0.514744
Cl169	Cl	-0.300463	-0.977811	0.186821
Cl170	Cl	0.032870	-0.644477	0.520154
Cl171	Cl	0.366204	-0.311144	0.853488
H172	H	0.217586	-0.879546	-0.412992
H173	H	0.550919	-0.546213	-0.079659
H174	H	0.884252	-0.212879	0.253674
H175	H	-0.440522	-0.853427	0.062738
H176	H	-0.107189	-0.520094	0.396071
H177	H	0.226145	-0.186760	0.729405
Cl178	Cl	-0.282270	-0.836607	-0.096576
Cl179	Cl	0.051063	-0.503274	0.236758
Cl180	Cl	0.384397	-0.169941	0.570091
Cl181	Cl	-0.452595	-0.833747	-0.095286
Cl182	Cl	-0.119262	-0.500414	0.238047
Cl183	Cl	0.214071	-0.167081	0.571381
H184	H	-0.457919	-0.993437	-0.152287
H185	H	-0.124586	-0.660103	0.181046
H186	H	0.208747	-0.326770	0.514380
H187	H	-0.328884	-1.096149	-0.090365
H188	H	0.004450	-0.762815	0.242968
H189	H	0.337783	-0.429482	0.576302
Cl190	Cl	-0.489447	-1.129178	-0.093313
Cl191	Cl	-0.156113	-0.795845	0.240020
Cl192	Cl	0.177220	-0.462512	0.573354
H193	H	-0.471762	-1.095050	0.086785
H194	H	-0.138428	-0.761717	0.420118
H195	H	0.194905	-0.428384	0.753451
Cl196	Cl	0.288230	-0.557611	-0.000049
Cl197	Cl	0.621564	-0.224278	0.333285
Cl198	Cl	0.954897	0.109056	0.666618
