data_functionalizedCrystal
_audit_creation_method	'MofGen! by Chris Wilmer'
_symmetry_space_group_name_H-M	'P1'
_symmetry_Int_Tables_number	1
_symmetry_cell_setting	triclinic
loop_
_symmetry_equiv_pos_as_xyz
  x,y,z
_cell_length_a	8.559649
_cell_length_b	15.186229
_cell_length_c	16.109304
_cell_angle_alpha	89.999066
_cell_angle_beta	76.620651
_cell_angle_gamma	89.996971
loop_
_atom_site_label
_atom_site_type_symbol
_atom_site_fract_x
_atom_site_fract_y
_atom_site_fract_z
O1	O	2.120140	-0.073215	-0.028207
O2	O	2.620140	0.426785	0.471793
O3	O	1.654914	-0.073218	0.014732
O4	O	2.154914	0.426782	0.514732
O5	O	1.900305	-0.073217	-0.128582
O6	O	2.400305	0.426783	0.371418
O7	O	1.874749	-0.073216	0.115107
O8	O	2.374749	0.426784	0.615107
O9	O	1.900288	0.073240	-0.128583
O10	O	2.400288	0.573240	0.371417
O11	O	1.654898	0.073239	0.014731
O12	O	2.154898	0.573239	0.514731
O13	O	2.120123	0.073242	-0.028208
O14	O	2.620123	0.573242	0.471792
Zn15	Zn	1.887508	0.096494	-0.006738
Zn16	Zn	2.387508	0.596494	0.493262
Zn17	Zn	1.887530	-0.096470	-0.006737
Zn18	Zn	2.387530	0.403530	0.493263
O19	O	1.874733	0.073241	0.115107
O20	O	2.374733	0.573241	0.615107
C21	C	1.595375	0.000010	0.017985
C22	C	2.095375	0.500010	0.517985
C23	C	1.417990	0.000009	0.027671
C24	C	1.917990	0.500009	0.527671
N25	N	1.887505	0.228187	-0.006740
N26	N	2.387505	0.728187	0.493260
N27	N	1.887545	-0.228162	-0.006743
N28	N	2.387545	0.271838	0.493257
C29	C	2.179663	0.000012	-0.031461
C30	C	2.679663	0.500012	0.468539
C31	C	2.357048	0.000007	-0.041147
C32	C	2.857048	0.500007	0.458853
C33	C	1.899261	0.000010	-0.159492
C34	C	2.399261	0.500010	0.340508
C35	C	1.896155	0.000004	-0.251589
C36	C	2.396155	0.500004	0.248411
C37	C	1.996201	0.453910	-0.070183
C38	C	2.496201	0.953910	0.429817
C39	C	1.996206	0.546100	-0.070185
C40	C	2.496206	1.046100	0.429815
C41	C	1.778838	0.546108	0.056703
C42	C	2.278838	1.046108	0.556703
C43	C	1.778826	0.453920	0.056701
C44	C	2.278826	0.953920	0.556701
C45	C	1.887517	0.407823	-0.006741
C46	C	2.387517	0.907823	0.493259
C47	C	1.887533	0.592201	-0.006742
C48	C	2.387533	1.092201	0.493258
C49	C	1.887538	0.692157	-0.006744
C50	C	2.387538	1.192157	0.493256
C51	C	1.887511	0.307861	-0.006741
C52	C	2.387511	0.807861	0.493259
C53	C	1.888988	-0.079827	-0.463469
C54	C	2.388988	0.420173	0.036531
C55	C	1.886055	-0.079826	-0.550002
C56	C	2.386055	0.420174	-0.050002
C57	C	1.886045	0.079850	-0.550000
C58	C	2.386045	0.579850	-0.050000
C59	C	1.888967	0.079848	-0.463467
C60	C	2.388967	0.579848	0.036533
C61	C	1.890446	0.000007	-0.420205
C62	C	2.390446	0.500007	0.079795
C63	C	1.884592	0.000009	-0.593271
C64	C	2.384592	0.500009	-0.093271
C65	C	1.881411	0.000011	-0.687094
C66	C	2.381411	0.500011	-0.187094
C67	C	1.893623	0.000005	-0.326375
C68	C	2.393623	0.500005	0.173625
C69	C	1.875777	0.000013	0.146016
C70	C	2.375777	0.500013	0.646016
C71	C	1.878883	0.000013	0.238113
C72	C	2.378883	0.500013	0.738113
H73	H	1.440578	0.000003	-0.107476
H74	H	1.940578	0.500003	0.392524
Br75	Br	1.890919	0.188202	-0.404742
Br76	Br	2.390919	0.688202	0.095258
H77	H	1.884844	0.144853	-0.585236
H78	H	2.384844	0.644853	-0.085236
H79	H	1.690347	0.583649	0.108358
H80	H	2.190347	1.083649	0.608358
Br81	Br	1.278765	-0.000003	0.138233
Br82	Br	1.778765	0.499997	0.638233
H83	H	1.884864	-0.144835	-0.585223
H84	H	2.384864	0.355165	-0.085223
H85	H	2.084701	0.416380	-0.121843
H86	H	2.584701	0.916380	0.378157
H87	H	2.084704	0.583621	-0.121846
H88	H	2.584704	1.083621	0.378154
Br89	Br	1.631304	0.391366	0.142801
Br90	Br	2.131304	0.891366	0.642801
H91	H	1.890188	-0.144839	-0.428246
H92	H	2.390188	0.355161	0.071754
