data_functionalizedCrystal
_audit_creation_method	'MofGen! by Chris Wilmer'
_symmetry_space_group_name_H-M	'P1'
_symmetry_Int_Tables_number	1
_symmetry_cell_setting	triclinic
loop_
_symmetry_equiv_pos_as_xyz
  x,y,z
_cell_length_a	12.759395
_cell_length_b	25.639239
_cell_length_c	12.759387
_cell_angle_alpha	89.963582
_cell_angle_beta	89.979491
_cell_angle_gamma	90.040223
loop_
_atom_site_label
_atom_site_type_symbol
_atom_site_fract_x
_atom_site_fract_y
_atom_site_fract_z
Zn1	Zn	1.606094	-0.208102	-0.593964
Zn2	Zn	1.605911	-0.295548	-0.418267
Zn3	Zn	1.430392	-0.208130	-0.418301
Zn4	Zn	1.430311	-0.295510	-0.593906
O5	O	1.518177	-0.251823	-0.506110
O6	O	1.753090	-0.219705	-0.570668
O7	O	1.582585	-0.283979	-0.271250
O8	O	1.453810	-0.134961	-0.441641
O9	O	1.752956	-0.283951	-0.441584
O10	O	1.582897	-0.134940	-0.570700
O11	O	1.453632	-0.219754	-0.271275
O12	O	1.283360	-0.219718	-0.441585
O13	O	1.453671	-0.283888	-0.740935
O14	O	1.283300	-0.283916	-0.570602
O15	O	1.582818	-0.219669	-0.740978
O16	O	1.582506	-0.368708	-0.441528
O17	O	1.453494	-0.368681	-0.570569
C18	C	1.245209	-0.251816	-0.506092
C19	C	1.128432	-0.251826	-0.506109
C20	C	1.518000	-0.387665	-0.506062
C21	C	1.518020	-0.445779	-0.506076
C22	C	1.128409	-0.318783	-0.640236
C23	C	1.073536	-0.352266	-0.707303
C24	C	0.963815	-0.352272	-0.707316
C25	C	0.908963	-0.318791	-0.640257
C26	C	0.963836	-0.285309	-0.573190
C27	C	1.073560	-0.285307	-0.573182
C28	C	0.963859	-0.218349	-0.439070
C29	C	1.073581	-0.218345	-0.439050
C30	C	0.909008	-0.184868	-0.372011
C31	C	0.963880	-0.151387	-0.304937
C32	C	1.073609	-0.151383	-0.304926
C33	C	1.128454	-0.184862	-0.371983
C34	C	1.585529	-0.806144	-0.439032
C35	C	1.585570	-0.860748	-0.439046
O36	O	1.642784	-0.888986	-0.381991
N37	N	1.518361	-0.888062	-0.506179
C38	C	1.451115	-0.860768	-0.573310
O39	O	1.393954	-0.889014	-0.630414
C40	C	1.451081	-0.806165	-0.573300
C41	C	1.518286	-0.778854	-0.506156
C42	C	1.652729	-0.778833	-0.371894
C43	C	1.652687	-0.724233	-0.371879
C44	C	1.585444	-0.696943	-0.439002
C45	C	1.518244	-0.724253	-0.506140
C46	C	1.383841	-0.778872	-0.640436
C47	C	1.383813	-0.724265	-0.640421
C48	C	1.451018	-0.696954	-0.573276
C49	C	1.450958	-0.642363	-0.573249
N50	N	1.518167	-0.615050	-0.506116
C51	C	1.585409	-0.642339	-0.438992
C52	C	1.451195	-0.975438	-0.573326
C53	C	1.451223	-1.030041	-0.573331
C54	C	1.585679	-1.030017	-0.439069
C55	C	1.585644	-0.975414	-0.439059
C56	C	1.518403	-0.948125	-0.506193
C57	C	1.585315	-0.527674	-0.438965
C58	C	1.585263	-0.473069	-0.438953
C59	C	1.450812	-0.473097	-0.573219
C60	C	1.450859	-0.527698	-0.573227
C61	C	1.518119	-0.554985	-0.506097
O62	O	1.393776	-0.614090	-0.630278
O63	O	1.642571	-0.614087	-0.381908
C64	C	1.792210	-0.251829	-0.506128
C65	C	1.908987	-0.251832	-0.506136
C66	C	1.518256	-0.251771	-0.780143
C67	C	1.518290	-0.251749	-0.896920
C68	C	1.518383	-0.115449	-0.506181
C69	C	1.518470	-0.057335	-0.506211
C70	C	1.652780	-0.184883	-0.896984
C71	C	1.720039	-0.151442	-0.951877
C72	C	1.720065	-0.151423	-1.061598
C73	C	1.652821	-0.184847	-1.116430
C74	C	1.585562	-0.218288	-1.061537
C75	C	1.585546	-0.218305	-0.951813
C76	C	1.451068	-0.285151	-1.061473
C77	C	1.451046	-0.285174	-0.951751
C78	C	1.383825	-0.318576	-1.116305
C79	C	1.316569	-0.352021	-1.061412
C80	C	1.316547	-0.352039	-0.951683
C81	C	1.383787	-0.318615	-0.896859
C82	C	1.518158	-0.251836	-0.233142
C83	C	1.518328	-0.251710	-0.116366
H84	H	1.217750	-0.318785	-0.640225
C85	C	1.725723	-0.694517	-0.299158
C86	C	1.792995	-0.663104	-0.358697
C87	C	1.860286	-0.635721	-0.291742
H88	H	1.765874	-0.718535	-0.259165
H89	H	1.685580	-0.673223	-0.253351
H90	H	1.833134	-0.684396	-0.404485
H91	H	1.752872	-0.639076	-0.398687
H92	H	1.820143	-0.614427	-0.245935
H93	H	1.900430	-0.659743	-0.251753
H94	H	1.905931	-0.614401	-0.332129
H95	H	1.774827	-0.124189	-1.106292
H96	H	0.819667	-0.184874	-0.372030
H97	H	1.652776	-0.184900	-0.807643
H98	H	1.774786	-0.124227	-0.907221
H99	H	1.118208	-0.379525	-0.761903
H100	H	1.396430	-0.953222	-0.627992
H101	H	1.383780	-0.318629	-0.807517
C102	C	0.904102	-0.388654	-0.779963
C103	C	0.841022	-0.422122	-0.720355
C104	C	0.785991	-0.455639	-0.787243
H105	H	0.952361	-0.408641	-0.819924
H106	H	0.861284	-0.368698	-0.825802
H107	H	0.883836	-0.442077	-0.674535
H108	H	0.792743	-0.402150	-0.680397
H109	H	0.743173	-0.435682	-0.833082
H110	H	0.834258	-0.475623	-0.827200
H111	H	0.743177	-0.478348	-0.746810
C112	C	1.310838	-0.808420	-0.713458
C113	C	1.251977	-0.772822	-0.772254
C114	C	1.184722	-0.800021	-0.839549
H115	H	1.264993	-0.829762	-0.673364
H116	H	1.350997	-0.829669	-0.759334
H117	H	1.211821	-0.751582	-0.726384
H118	H	1.297793	-0.751479	-0.812370
H119	H	1.224881	-0.821271	-0.885425
H120	H	1.138885	-0.821363	-0.799446
H121	H	1.144784	-0.775873	-0.879457
H122	H	1.261764	-0.379265	-0.906996
C123	C	1.653032	-0.184765	-1.235557
C124	C	1.726339	-0.148331	-1.271894
C125	C	1.726570	-0.148246	-1.381627
H126	H	1.585315	-0.175696	-1.260499
H127	H	1.671201	-0.218492	-1.260404
H128	H	1.708164	-0.114611	-1.247057
H129	H	1.794067	-0.157391	-1.246980
H130	H	1.744738	-0.181973	-1.406475
H131	H	1.658848	-0.139178	-1.406559
H132	H	1.776313	-0.123530	-1.406296
H133	H	1.329058	-0.702049	-0.695093
H134	H	1.640435	-1.052247	-0.384417
C135	C	1.383857	-0.318669	-1.235431
C136	C	1.410553	-0.368447	-1.271702
C137	C	1.410581	-0.368556	-1.381436
H138	H	1.433542	-0.294007	-1.260408
H139	H	1.316069	-0.309646	-1.260289
H140	H	1.478331	-0.377464	-1.246856
H141	H	1.360878	-0.393117	-1.246755
H142	H	1.342792	-0.359534	-1.406293
H143	H	1.460265	-0.343893	-1.406403
H144	H	1.428684	-0.402331	-1.406060
C145	C	1.377852	-0.557258	-0.646239
C146	C	1.318972	-0.521669	-0.705034
C147	C	1.251726	-0.548877	-0.772323
H148	H	1.332020	-0.578605	-0.606140
H149	H	1.418018	-0.578505	-0.692116
H150	H	1.278809	-0.500432	-0.659163
H151	H	1.364777	-0.500321	-0.745154
H152	H	1.291892	-0.570123	-0.818200
H153	H	1.205900	-0.570223	-0.732216
H154	H	1.211775	-0.524733	-0.812231
C155	C	1.243629	-0.388391	-1.120808
C156	C	1.266398	-0.440128	-1.094081
C157	C	1.199219	-0.473648	-1.148769
H158	H	1.253205	-0.383659	-1.194031
H159	H	1.173030	-0.380770	-1.102793
H160	H	1.336980	-0.447747	-1.112102
H161	H	1.256816	-0.444877	-1.020867
H162	H	1.128620	-0.466027	-1.130754
H163	H	1.208800	-0.468911	-1.221989
H164	H	1.214652	-0.508755	-1.130635
C165	C	0.904518	-0.114983	-0.232098
C166	C	0.976053	-0.085652	-0.173371
C167	C	0.921403	-0.052106	-0.106269
H168	H	0.861659	-0.134898	-0.186162
H169	H	0.861790	-0.092200	-0.272360
H170	H	1.018762	-0.108432	-0.133112
H171	H	1.018913	-0.065726	-0.219280
H172	H	0.878675	-0.029323	-0.146531
H173	H	0.878546	-0.072025	-0.060340
H174	H	0.969930	-0.032197	-0.066422
H175	H	1.118279	-0.124113	-0.250319
C176	C	0.789836	-0.318794	-0.640501
C177	C	0.753600	-0.305531	-0.740588
C178	C	0.643867	-0.305535	-0.740855
H179	H	0.764889	-0.294064	-0.591039
H180	H	0.764926	-0.352529	-0.622267
H181	H	0.778500	-0.271801	-0.758810
H182	H	0.778519	-0.330257	-0.790067
H183	H	0.618956	-0.339271	-0.722620
H184	H	0.618930	-0.280805	-0.691389
H185	H	0.619266	-0.296541	-0.808764
C186	C	1.377926	-0.443367	-0.646056
C187	C	1.392305	-0.389704	-0.631687
C188	C	1.325196	-0.362299	-0.698782
H189	H	1.307302	-0.452292	-0.630697
H190	H	1.393288	-0.452250	-0.716685
H191	H	1.376935	-0.380825	-0.561074
H192	H	1.462914	-0.380764	-0.647053
H193	H	1.340559	-0.371182	-0.769411
H194	H	1.254577	-0.371228	-0.683418
H195	H	1.334950	-0.325886	-0.689049
C196	C	1.247580	-0.184799	-0.371781
C197	C	1.283901	-0.148319	-0.298681
C198	C	1.393635	-0.148252	-0.298462
H199	H	1.272571	-0.175782	-0.439552
H200	H	1.272390	-0.218517	-0.353428
H201	H	1.259102	-0.114608	-0.317040
H202	H	1.258939	-0.157328	-0.230900
H203	H	1.418444	-0.181970	-0.280109
H204	H	1.418615	-0.139236	-0.366236
H205	H	1.418292	-0.123504	-0.248857
H206	H	1.640369	-0.953181	-0.384385
H207	H	1.640086	-0.549885	-0.384303
C208	C	1.658175	-0.443485	-0.365881
C209	C	1.635381	-0.456832	-0.261917
C210	C	1.702533	-0.429598	-0.194579
H211	H	1.648591	-0.407048	-0.375336
H212	H	1.728781	-0.452403	-0.381261
H213	H	1.564792	-0.447911	-0.246542
H214	H	1.644972	-0.493264	-0.252428
H215	H	1.773139	-0.438515	-0.209959
H216	H	1.692943	-0.393162	-0.204043
H217	H	1.687083	-0.438653	-0.124033
C218	C	1.725779	-0.808362	-0.298891
C219	C	1.784595	-0.772747	-0.240083
C220	C	1.851887	-0.799925	-0.172800
H221	H	1.771651	-0.829628	-0.338994
H222	H	1.685650	-0.829686	-0.253021
H223	H	1.824721	-0.751432	-0.285947
H224	H	1.738751	-0.751479	-0.199959
H225	H	1.811758	-0.821249	-0.126931
H226	H	1.897752	-0.821191	-0.212912
H227	H	1.891795	-0.775764	-0.132885
H228	H	1.396488	-1.052272	-0.627997
