data_functionalizedCrystal
_audit_creation_method	'MofGen! by Chris Wilmer'
_symmetry_space_group_name_H-M	'P1'
_symmetry_Int_Tables_number	1
_symmetry_cell_setting	triclinic
loop_
_symmetry_equiv_pos_as_xyz
  x,y,z
_cell_length_a	10.686285
_cell_length_b	16.625547
_cell_length_c	10.686551
_cell_angle_alpha	85.598696
_cell_angle_beta	99.084519
_cell_angle_gamma	94.368807
loop_
_atom_site_label
_atom_site_type_symbol
_atom_site_fract_x
_atom_site_fract_y
_atom_site_fract_z
Zn1	Zn	0.450154	1.288153	-0.679203
Zn2	Zn	0.678734	1.288088	-0.450701
Zn3	Zn	0.466509	1.143704	-0.466943
Zn4	Zn	0.662352	1.162923	-0.662885
O5	O	0.564437	1.220717	-0.564933
O6	O	0.480487	1.400979	-0.648923
O7	O	0.664282	1.260864	-0.275224
O8	O	0.286717	1.154849	-0.508726
O9	O	0.648423	1.400931	-0.481044
O10	O	0.274701	1.260976	-0.664673
O11	O	0.508361	1.154786	-0.287157
O12	O	0.492476	1.033419	-0.492903
O13	O	0.620503	1.187606	-0.842681
O14	O	0.636362	1.047539	-0.636861
O15	O	0.464602	1.279612	-0.854670
O16	O	0.854183	1.279501	-0.465221
O17	O	0.842147	1.187543	-0.621112
C18	C	0.564417	1.011222	-0.564875
C19	C	0.564437	0.921602	-0.564878
C20	C	0.564438	0.848821	-0.564893
C21	C	0.564442	0.757514	-0.564924
C22	C	0.564451	0.684740	-0.564956
C23	C	0.564458	0.593427	-0.564986
C24	C	0.894219	1.235623	-0.539661
C25	C	1.035297	1.242076	-0.528892
C26	C	0.233365	1.205776	-0.590331
C27	C	0.092282	1.199409	-0.601155
C28	C	0.564458	1.431030	-0.564992
C29	C	0.564467	1.520653	-0.565017
C30	C	0.538901	1.235760	-0.896021
C31	C	0.528019	1.242170	-1.037111
C32	C	0.589782	1.205775	-0.235140
C33	C	0.600307	1.199505	-0.094078
H34	H	1.094447	1.283537	-0.458771
C35	C	0.695165	1.143529	-1.014156
C36	C	0.647108	1.073647	-0.927189
C37	C	0.741967	1.017670	-0.847258
C38	C	0.884884	1.031575	-0.854294
C39	C	0.932948	1.101460	-0.941264
C40	C	0.838089	1.157437	-1.021195
H41	H	0.541306	1.063351	-0.921977
H42	H	0.706386	0.965937	-0.782877
H43	H	0.955104	0.990138	-0.795124
H44	H	1.038750	1.111756	-0.946476
H45	H	0.873670	1.209170	-1.085577
H46	H	1.033141	1.157944	-0.671263
H47	H	0.457805	1.283609	-1.096285
