data_functionalizedCrystal
_audit_creation_method	'MofGen! by Chris Wilmer'
_symmetry_space_group_name_H-M	'P1'
_symmetry_Int_Tables_number	1
_symmetry_cell_setting	triclinic
loop_
_symmetry_equiv_pos_as_xyz
  x,y,z
_cell_length_a	14.446369
_cell_length_b	14.446369
_cell_length_c	14.560438
_cell_angle_alpha	59.999204
_cell_angle_beta	89.999483
_cell_angle_gamma	60.002680
loop_
_atom_site_label
_atom_site_type_symbol
_atom_site_fract_x
_atom_site_fract_y
_atom_site_fract_z
Zr1	Zr	0.891752	1.013260	-0.120579
O2	O	0.743954	1.206367	-0.267220
O3	O	0.937056	0.820149	-0.075624
O4	O	0.937058	1.013265	-0.267230
O5	O	0.743956	1.013248	0.075526
O6	O	1.089386	1.013273	-0.267238
O7	O	0.743952	1.013251	-0.075615
O8	O	1.089384	0.667824	0.075509
O9	O	0.743959	1.358698	-0.267221
O10	O	1.070064	0.899586	-0.056459
O11	O	0.956386	0.899578	0.056342
O12	O	0.956388	1.126947	-0.169248
O13	O	0.842709	1.126939	-0.056448
Zr14	Zr	1.134705	1.013269	0.120461
Zr15	Zr	1.134699	1.013273	-0.120591
Zr16	Zr	0.891758	1.013256	0.120474
Zr17	Zr	0.891760	1.256210	-0.120580
Zr18	Zr	1.134697	0.770319	0.120462
O19	O	1.089401	1.206380	0.075506
O20	O	1.089393	1.206386	-0.267239
O21	O	0.743962	1.206361	0.075525
O22	O	1.282504	0.820162	0.267103
O23	O	1.282495	0.820168	-0.075643
O24	O	0.937065	0.820143	0.267121
O25	O	1.282501	1.013280	-0.075644
O26	O	1.089400	1.013264	0.267112
O27	O	0.937071	1.013256	0.267120
O28	O	1.282505	1.013278	0.075497
O29	O	0.937069	1.358708	-0.267231
O30	O	1.089389	0.667820	0.267114
O31	O	1.282499	0.667831	0.267103
O32	O	1.282494	0.667834	0.075499
O33	O	0.743964	1.358695	-0.075617
O34	O	0.937074	1.358705	-0.075627
O35	O	1.070070	0.899582	0.169131
O36	O	1.183748	0.899590	0.056330
O37	O	1.070072	1.126951	-0.056460
O38	O	0.956393	1.126943	0.056341
C39	C	1.013219	0.709371	-0.000057
C40	C	1.013215	0.606232	-0.000057
C41	C	0.941513	0.566939	0.071096
C42	C	0.941843	0.459303	0.071474
C43	C	1.136798	0.371521	0.051449
C44	C	1.136389	0.478767	0.051990
C45	C	0.962362	0.653952	-0.122761
C46	C	0.959883	0.547778	-0.122578
C47	C	0.709339	1.013248	-0.000043
C48	C	0.606202	1.013242	-0.000037
C49	C	0.531217	0.869860	0.070730
C50	C	0.638545	0.869764	0.071136
C51	C	0.531646	1.084467	0.051853
C52	C	0.424787	1.083557	0.052364
C53	C	0.423209	1.086512	-0.122809
C54	C	0.531881	1.083810	-0.122608
C55	C	1.317118	1.013281	-0.000075
C56	C	1.420255	1.013287	-0.000080
C57	C	1.013221	1.013270	-0.301578
C58	C	1.013218	1.013271	-0.403911
C59	C	1.013239	1.317158	-0.000060
C60	C	1.013242	1.420297	-0.000061
C61	C	0.953882	1.131949	-0.510863
C62	C	0.953895	1.131943	-0.607011
C63	C	1.072583	0.894570	-0.489244
C64	C	1.072576	0.894578	-0.393097
C65	C	1.013236	1.013259	0.301461
C66	C	1.013239	1.013258	0.403794
C67	C	1.317108	0.709388	-0.000073
C68	C	1.420242	0.606255	-0.000078
C69	C	1.013226	0.709366	0.301462
C70	C	1.013226	0.606225	0.403796
C71	C	1.317116	0.709383	0.301446
C72	C	1.420252	0.606248	0.403774
C73	C	0.709342	1.317146	-0.301564
C74	C	0.606205	1.420281	-0.403892
C75	C	0.709349	1.317141	-0.000044
C76	C	0.606216	1.420274	-0.000039
C77	C	1.013231	1.317163	-0.301580
C78	C	1.013232	1.420303	-0.403913
C79	C	1.409356	0.557798	-0.058953
C80	C	1.506265	0.460901	-0.058961
C81	C	1.624943	0.460923	0.058788
C82	C	1.528035	0.557825	0.058789
C83	C	1.072566	0.557770	0.510747
C84	C	1.072552	0.460868	0.606896
C85	C	0.953856	0.460881	0.489129
C86	C	0.953864	0.557788	0.392983
C87	C	1.528045	0.557797	0.392970
C88	C	1.624949	0.460899	0.489122
C89	C	1.506253	0.460908	0.606878
C90	C	1.409352	0.557811	0.510728
H91	H	0.850301	0.655643	0.036765
H92	H	0.905549	1.228597	-0.519674
H93	H	1.321576	0.597263	0.519533
C94	C	1.494292	0.407593	-0.123717
H95	H	1.567443	0.342955	-0.115298
H96	H	1.454033	0.369778	-0.094634
H97	H	1.454025	0.477168	-0.201182
C98	C	1.743517	0.407601	0.477234
H99	H	1.736124	0.450323	0.399765
H100	H	1.783791	0.423488	0.512288
H101	H	1.783780	0.316104	0.512299
C102	C	1.743513	0.407635	0.123549
H103	H	1.799671	0.342973	0.115127
H104	H	1.752017	0.477205	0.094474
H105	H	1.752007	0.369825	0.201014
H106	H	0.419087	1.040618	-0.166159
H107	H	0.872724	0.747532	-0.165828
H108	H	1.536908	0.597282	0.106732
H109	H	0.583301	1.031878	-0.161374
H110	H	0.850872	0.495840	0.036957
C111	C	0.988750	0.518468	0.192652
H112	H	1.051982	0.522069	0.200230
H113	H	0.931589	0.572632	0.209617
H114	H	1.011847	0.430777	0.243105
H115	H	1.120909	0.797935	-0.480453
C116	C	0.888578	0.407583	0.477244
H117	H	0.897082	0.342917	0.549822
H118	H	0.810509	0.477147	0.437295
H119	H	0.917893	0.369775	0.437291
C120	C	1.137833	0.407565	0.724538
H121	H	1.173191	0.450288	0.717202
H122	H	1.086616	0.423449	0.764498
H123	H	1.193985	0.316069	0.764488
H124	H	1.120898	0.597210	0.519557
H125	H	1.192572	0.343019	0.002088
C126	C	1.540029	0.611087	0.275325
H127	H	1.466881	0.675729	0.219605
H128	H	1.580295	0.648894	0.266888
H129	H	1.580293	0.541507	0.266897
C130	C	1.290786	0.611078	-0.123708
H131	H	1.234628	0.675720	-0.115268
H132	H	1.282284	0.648883	-0.201169
H133	H	1.282293	0.541494	-0.094619
H134	H	1.497392	0.421457	0.693970
H135	H	0.977147	0.370357	0.161987
H136	H	1.177071	0.437952	0.142271
C137	C	0.497389	1.225226	-0.199874
H138	H	0.527993	1.243165	-0.158204
H139	H	0.525807	1.235433	-0.260606
H140	H	0.417074	1.284334	-0.228461
H141	H	1.192746	0.501022	0.003488
H142	H	1.177777	0.279082	0.140855
H143	H	0.905536	0.597244	0.305892
H144	H	1.006783	0.526599	-0.179970
C145	C	0.836919	0.601055	-0.174581
H146	H	0.818168	0.545844	-0.121858
H147	H	0.787010	0.687072	-0.193432
H148	H	0.829726	0.603085	-0.240529
H149	H	1.014331	0.680222	-0.176019
H150	H	0.504417	1.189962	0.002765
H151	H	0.344997	1.192171	-0.175816
H152	H	0.425057	1.032937	0.142677
H153	H	0.692806	0.813902	0.036314
C154	C	0.534376	0.793806	0.023957
H155	H	0.468050	0.848833	-0.039170
H156	H	0.599455	0.766336	0.001672
H157	H	0.537546	0.719331	0.080515
C158	C	1.137846	0.764026	-0.275444
H159	H	1.173185	0.693335	-0.282773
H160	H	1.193995	0.759101	-0.235490
H161	H	1.086614	0.759095	-0.235493
H162	H	0.905578	1.228583	-0.694093
C163	C	0.711203	0.793797	0.193441
H164	H	0.675158	0.762887	0.243071
H165	H	0.783810	0.721595	0.209814
H166	H	0.719448	0.850060	0.202899
H167	H	0.346210	1.188786	0.004122
C168	C	0.601349	1.017656	0.172698
H169	H	0.555495	1.061473	0.203379
H170	H	0.626435	0.928789	0.217576
H171	H	0.665119	1.021512	0.171685
H172	H	0.532249	0.813846	0.160719
