data_functionalizedCrystal
_audit_creation_method	'MofGen! by Chris Wilmer'
_symmetry_space_group_name_H-M	'P1'
_symmetry_Int_Tables_number	1
_symmetry_cell_setting	triclinic
loop_
_symmetry_equiv_pos_as_xyz
  x,y,z
_cell_length_a	10.654550
_cell_length_b	9.016244
_cell_length_c	10.654551
_cell_angle_alpha	90.000439
_cell_angle_beta	84.485180
_cell_angle_gamma	90.004115
loop_
_atom_site_label
_atom_site_type_symbol
_atom_site_fract_x
_atom_site_fract_y
_atom_site_fract_z
O1	O	1.667848	0.123223	0.176394
O2	O	1.302369	0.123250	0.193200
O3	O	1.493511	0.123233	0.002058
O4	O	1.476706	0.123240	0.367536
O5	O	1.493483	-0.123448	0.002062
O6	O	1.302341	-0.123431	0.193204
O7	O	1.667820	-0.123457	0.176398
Cu8	Cu	1.485078	-0.145968	0.184801
Cu9	Cu	1.485111	0.145761	0.184796
O10	O	1.476678	-0.123440	0.367540
C11	C	1.255557	-0.000087	0.191968
C12	C	1.116114	-0.000077	0.188276
N13	N	1.485064	-0.351154	0.184804
C14	C	1.036629	-0.000079	0.300818
C15	C	0.905608	-0.000104	0.297341
C16	C	0.933570	-0.000120	0.068772
C17	C	1.064588	-0.000105	0.072249
C18	C	1.382502	-0.586178	0.286710
C19	C	1.382729	-0.414287	0.287091
C20	C	1.616360	-0.413502	0.214570
C21	C	1.615800	-0.585446	0.215291
C22	C	1.457632	-0.585698	0.052799
C23	C	1.454619	-0.413744	0.053656
C24	C	1.714632	-0.000117	0.177630
C25	C	1.854075	-0.000118	0.181322
C26	C	1.492262	-0.000105	-0.044738
C27	C	1.488570	-0.000098	-0.184181
N28	N	1.485135	0.350947	0.184784
C29	C	1.486852	0.134369	-0.249687
C30	C	1.483372	0.134371	-0.380708
C31	C	1.483333	-0.134574	-0.380705
C32	C	1.486804	-0.134574	-0.249686
C33	C	1.477926	-0.000099	0.414336
C34	C	1.481619	-0.000097	0.553779
H35	H	1.078576	-0.000067	0.395294
H36	H	0.840896	-0.000109	0.388984
H37	H	1.488196	-0.244080	-0.196349
H38	H	1.481898	-0.244060	-0.434055
H39	H	1.532464	-0.626357	-0.023064
H40	H	0.891602	-0.000153	-0.025693
H41	H	1.129309	-0.000108	-0.019401
H42	H	1.694597	-0.372604	0.142357
H43	H	1.694618	-0.627036	0.144042
C44	C	1.252630	-0.357891	0.263486
C45	C	1.203734	-0.271974	0.366233
C46	C	1.083882	-0.220003	0.344550
H47	H	1.198338	-0.439714	0.253401
H48	H	1.258795	-0.299067	0.189167
H49	H	1.197561	-0.330796	0.440530
H50	H	1.257990	-0.190129	0.376335
H51	H	1.090047	-0.161178	0.270232
H52	H	1.029601	-0.301834	0.334463
H53	H	1.050696	-0.161691	0.414254
H54	H	1.284638	-0.627564	0.269082
H55	H	1.488286	0.243868	-0.196357
H56	H	1.640959	-0.370424	0.309772
C57	C	1.481579	0.280521	-0.451611
C58	C	1.483898	0.398280	-0.366200
C59	C	1.482261	0.532941	-0.431470
H60	H	1.407134	0.286334	-0.493784
H61	H	1.553362	0.286184	-0.511641
H62	H	1.412122	0.392621	-0.306192
H63	H	1.558338	0.392517	-0.324023
H64	H	1.554044	0.538604	-0.491501
H65	H	1.407815	0.538738	-0.473641
H66	H	1.483846	0.612856	-0.373531
C67	C	1.648083	-0.638698	0.343676
C68	C	1.767621	-0.586067	0.365784
C69	C	1.797394	-0.635063	0.484049
H70	H	1.648133	-0.744030	0.345419
H71	H	1.587146	-0.602274	0.407168
H72	H	1.828542	-0.622499	0.302309
H73	H	1.767601	-0.480740	0.364066
H74	H	1.736457	-0.598639	0.547541
H75	H	1.797438	-0.740395	0.485782
H76	H	1.878497	-0.599350	0.499070
C77	C	1.405547	-0.643955	0.416539
C78	C	1.300180	-0.724591	0.466840
C79	C	1.321376	-0.777856	0.586426
H80	H	1.419327	-0.562833	0.470421
H81	H	1.477613	-0.706540	0.409650
H82	H	1.228134	-0.662009	0.473737
H83	H	1.286382	-0.805734	0.412994
H84	H	1.393443	-0.840442	0.579537
H85	H	1.335158	-0.696725	0.640297
H86	H	1.249894	-0.832585	0.620566
C87	C	1.332513	-0.643369	0.015211
C88	C	1.235320	-0.599750	0.105463
C89	C	1.120036	-0.652831	0.070886
H90	H	1.335105	-0.748539	0.010399
H91	H	1.317637	-0.603767	-0.064654
H92	H	1.250191	-0.639358	0.185306
H93	H	1.232687	-0.494587	0.110287
H94	H	1.105160	-0.613229	-0.008978
H95	H	1.122641	-0.758000	0.066075
H96	H	1.054075	-0.623232	0.132110
H97	H	1.400403	-0.373139	0.385013
H98	H	1.358030	-0.372995	0.031093
C99	C	1.547860	-0.356366	-0.052159
C100	C	1.635319	-0.262956	-0.001887
C101	C	1.721254	-0.210096	-0.099319
H102	H	1.503922	-0.302588	-0.110899
H103	H	1.590784	-0.437660	-0.093603
H104	H	1.592399	-0.181675	0.039536
H105	H	1.679287	-0.316701	0.056842
H106	H	1.764179	-0.291390	-0.140763
H107	H	1.677305	-0.156324	-0.158053
H108	H	1.780612	-0.146723	-0.065222
