data_functionalizedCrystal
_audit_creation_method	'MofGen! by Chris Wilmer'
_symmetry_space_group_name_H-M	'P1'
_symmetry_Int_Tables_number	1
_symmetry_cell_setting	triclinic
loop_
_symmetry_equiv_pos_as_xyz
  x,y,z
_cell_length_a	11.169416
_cell_length_b	12.594517
_cell_length_c	11.169409
_cell_angle_alpha	90.029349
_cell_angle_beta	89.968635
_cell_angle_gamma	89.994796
loop_
_atom_site_label
_atom_site_type_symbol
_atom_site_fract_x
_atom_site_fract_y
_atom_site_fract_z
Zn1	Zn	-0.477868	-1.627333	-0.678856
Zn2	Zn	0.022132	-1.127333	-0.178856
Zn3	Zn	-0.678609	-1.627236	-0.478176
Zn4	Zn	-0.178609	-1.127236	0.021824
Zn5	Zn	-0.477921	-1.449331	-0.478157
Zn6	Zn	0.022079	-0.949331	0.021843
Zn7	Zn	-0.678491	-1.449338	-0.678788
Zn8	Zn	-0.178491	-0.949338	-0.178788
O9	O	-0.578222	-1.538309	-0.578494
O10	O	-0.078222	-1.038309	-0.078494
O11	O	-0.504524	-1.776266	-0.652272
O12	O	-0.004524	-1.276266	-0.152272
O13	O	-0.652058	-1.603593	-0.310224
O14	O	-0.152058	-1.103593	0.189776
O15	O	-0.309964	-1.472981	-0.504800
O16	O	0.190036	-0.972981	-0.004800
O17	O	-0.652007	-1.776195	-0.504833
O18	O	-0.152007	-1.276195	-0.004833
O19	O	-0.309925	-1.603759	-0.652253
O20	O	0.190075	-1.103759	-0.152253
O21	O	-0.504614	-1.472886	-0.310210
O22	O	-0.004614	-0.972886	0.189790
O23	O	-0.504500	-1.300386	-0.504734
O24	O	-0.004500	-0.800386	-0.004734
O25	O	-0.651806	-1.472993	-0.846746
O26	O	-0.151806	-0.972993	-0.346746
O27	O	-0.651857	-1.300391	-0.652137
O28	O	-0.151857	-0.800391	-0.152137
O29	O	-0.504410	-1.603766	-0.846797
O30	O	-0.004410	-1.103766	-0.346797
O31	O	-0.846543	-1.603600	-0.504767
O32	O	-0.346543	-1.103600	-0.004767
O33	O	-0.846456	-1.472899	-0.652156
O34	O	-0.346456	-0.972899	-0.152156
C35	C	-0.890047	-1.538268	-0.578482
C36	C	-0.390047	-1.038268	-0.078482
C37	C	-1.023447	-1.538348	-0.578517
C38	C	-0.523447	-1.038348	-0.078517
C39	C	-0.578172	-1.261768	-0.578427
C40	C	-0.078172	-0.761768	-0.078427
C41	C	-0.578180	-1.143463	-0.578427
C42	C	-0.078180	-0.643463	-0.078427
C43	C	-0.497932	-1.003412	-0.498424
C44	C	0.002068	-0.503412	0.001576
C45	C	-0.468686	-1.074272	-0.607948
C46	C	0.031314	-0.574272	-0.107948
C47	C	-0.607372	-1.074175	-0.468914
C48	C	-0.107372	-0.574175	0.031086
C49	C	-0.548906	-1.003537	-0.688076
C50	C	-0.048906	-0.503537	-0.188076
C51	C	-0.687643	-1.003434	-0.548968
C52	C	-0.187643	-0.503434	-0.048968
C53	C	-0.658439	-1.074261	-0.658568
C54	C	-0.158439	-0.574261	-0.158568
C55	C	-0.265180	-1.538380	-0.578532
C56	C	0.234820	-1.038380	-0.078532
C57	C	-0.131780	-1.538410	-0.578548
C58	C	0.368220	-1.038410	-0.078548
C59	C	-0.578089	-1.538391	-0.891537
C60	C	-0.078089	-1.038391	-0.391537
C61	C	-0.578032	-1.538426	-1.024937
C62	C	-0.078032	-1.038426	-0.524937
C63	C	-0.578251	-0.815930	-0.578538
C64	C	-0.078251	-0.315930	-0.078538
C65	C	-0.578209	-0.934236	-0.578493
C66	C	-0.078209	-0.434236	-0.078493
C67	C	-0.578268	-1.538289	-0.266669
C68	C	-0.078268	-1.038289	0.233331
C69	C	-0.577987	-1.538461	-0.133270
C70	C	-0.077987	-1.038461	0.366730
H71	H	-0.430005	-0.972308	-0.430824
H72	H	0.069995	-0.472308	0.069176
H73	H	-0.726315	-1.105171	-0.726330
H74	H	-0.226315	-0.605171	-0.226330
Br75	Br	-0.314415	-1.126121	-0.649551
Br76	Br	0.185585	-0.626121	-0.149551
H77	H	-0.524120	-0.972637	-0.780744
H78	H	-0.024120	-0.472637	-0.280744
H79	H	-0.780175	-0.972295	-0.523984
H80	H	-0.280175	-0.472295	-0.023984
Br81	Br	-0.648505	-1.125901	-0.314509
Br82	Br	-0.148505	-0.625901	0.185491
