data_functionalizedCrystal
_audit_creation_method	'MofGen! by Chris Wilmer'
_symmetry_space_group_name_H-M	'P1'
_symmetry_Int_Tables_number	1
_symmetry_cell_setting	triclinic
loop_
_symmetry_equiv_pos_as_xyz
  x,y,z
_cell_length_a	19.188930
_cell_length_b	19.188930
_cell_length_c	7.540329
_cell_angle_alpha	89.991297
_cell_angle_beta	89.983165
_cell_angle_gamma	83.144779
loop_
_atom_site_label
_atom_site_type_symbol
_atom_site_fract_x
_atom_site_fract_y
_atom_site_fract_z
O1	O	0.926143	0.087167	-0.148072
O2	O	1.176143	0.337167	0.101928
O3	O	1.426143	0.587167	0.351928
O4	O	1.676143	0.837167	0.601928
O5	O	0.722832	0.098901	-0.147953
O6	O	0.972832	0.348901	0.102047
O7	O	1.222832	0.598901	0.352047
O8	O	1.472832	0.848901	0.602047
O9	O	0.830355	-0.008622	-0.147982
O10	O	1.080355	0.241378	0.102018
O11	O	1.330355	0.491378	0.352018
O12	O	1.580355	0.741378	0.602018
O13	O	0.818621	0.194689	-0.148044
O14	O	1.068621	0.444689	0.101956
O15	O	1.318621	0.694689	0.351956
O16	O	1.568621	0.944689	0.601956
O17	O	0.830348	-0.008623	0.146983
O18	O	1.080348	0.241377	0.396983
O19	O	1.330348	0.491377	0.646983
O20	O	1.580348	0.741377	0.896983
O21	O	0.722826	0.098900	0.147012
O22	O	0.972826	0.348900	0.397012
O23	O	1.222826	0.598900	0.647012
O24	O	1.472826	0.848900	0.897012
O25	O	0.926137	0.087165	0.146893
O26	O	1.176137	0.337165	0.396893
O27	O	1.426137	0.587165	0.646893
O28	O	1.676137	0.837165	0.896893
Cu29	Cu	0.824481	0.093032	0.173885
Cu30	Cu	1.074481	0.343032	0.423885
Cu31	Cu	1.324481	0.593032	0.673885
Cu32	Cu	1.574481	0.843032	0.923885
Cu33	Cu	0.824488	0.093034	-0.174946
Cu34	Cu	1.074488	0.343034	0.075054
Cu35	Cu	1.324488	0.593034	0.325054
Cu36	Cu	1.574488	0.843034	0.575054
O37	O	0.818614	0.194688	0.146921
O38	O	1.068614	0.444688	0.396921
O39	O	1.318614	0.694688	0.646921
O40	O	1.568614	0.944688	0.896921
C41	C	0.829972	-0.034634	-0.000494
C42	C	1.079972	0.215366	0.249506
C43	C	1.329972	0.465366	0.499506
C44	C	1.579972	0.715366	0.749506
C45	C	0.828831	-0.112138	-0.000478
C46	C	1.078831	0.137862	0.249522
C47	C	1.328831	0.387862	0.499522
C48	C	1.578831	0.637862	0.749522
C49	C	0.696818	0.098520	-0.000455
C50	C	0.946818	0.348520	0.249545
C51	C	1.196818	0.598520	0.499545
C52	C	1.446818	0.848520	0.749545
C53	C	0.619313	0.097380	-0.000408
C54	C	0.869313	0.347380	0.249592
C55	C	1.119313	0.597380	0.499592
C56	C	1.369313	0.847380	0.749592
C57	C	0.891922	-0.157062	-0.000506
C58	C	1.141922	0.092938	0.249494
C59	C	1.391922	0.342938	0.499494
C60	C	1.641922	0.592938	0.749494
C61	C	0.890850	-0.229886	-0.000534
C62	C	1.140850	0.020114	0.249466
C63	C	1.390850	0.270114	0.499466
C64	C	1.640850	0.520114	0.749466
C65	C	0.826684	-0.257782	-0.000498
C66	C	1.076684	-0.007782	0.249502
C67	C	1.326684	0.242218	0.499502
C68	C	1.576684	0.492218	0.749502
C69	C	0.763585	-0.212849	-0.000479
C70	C	1.013585	0.037151	0.249521
C71	C	1.263585	0.287151	0.499521
C72	C	1.513585	0.537151	0.749521
C73	C	0.764658	-0.140026	-0.000469
C74	C	1.014658	0.109974	0.249531
C75	C	1.264658	0.359974	0.499531
C76	C	1.514658	0.609974	0.749531
N77	N	0.777635	-0.365788	0.099913
N78	N	1.027635	-0.115788	0.349913
N79	N	1.277635	0.134212	0.599913
N80	N	1.527635	0.384212	0.849913
N81	N	0.776619	-0.434966	0.099907
N82	N	1.026619	-0.184966	0.349907
N83	N	1.276619	0.065034	0.599907
N84	N	1.526619	0.315034	0.849907
C85	C	0.823446	-0.477191	-0.000532
C86	C	1.073446	-0.227191	0.249468
C87	C	1.323446	0.022809	0.499468
C88	C	1.573446	0.272809	0.749468
N89	N	0.871337	-0.447625	-0.100943
N90	N	1.121337	-0.197625	0.149057
N91	N	1.371337	0.052375	0.399057
N92	N	1.621337	0.302375	0.649057
N93	N	0.872355	-0.378440	-0.100929
N94	N	1.122355	-0.128440	0.149071
N95	N	1.372355	0.121560	0.399071
N96	N	1.622355	0.371560	0.649071
C97	C	0.825513	-0.336745	-0.000510
C98	C	1.075513	-0.086745	0.249490
C99	C	1.325513	0.163255	0.499490
C100	C	1.575513	0.413255	0.749490
C101	C	0.885379	-0.601079	-0.000593
C102	C	1.135379	-0.351079	0.249407
C103	C	1.385379	-0.101079	0.499407
C104	C	1.635379	0.148921	0.749407
C105	C	0.884305	-0.673904	-0.000632
C106	C	1.134305	-0.423904	0.249368
C107	C	1.384305	-0.173904	0.499368
C108	C	1.634305	0.076096	0.749368
C109	C	0.757038	-0.656865	-0.000559
C110	C	1.007038	-0.406865	0.249441
C111	C	1.257038	-0.156865	0.499441
C112	C	1.507038	0.093135	0.749441
C113	C	0.758114	-0.584042	-0.000538
C114	C	1.008114	-0.334042	0.249462
C115	C	1.258114	-0.084042	0.499462
C116	C	1.508114	0.165958	0.749462
C117	C	0.822286	-0.556154	-0.000547
C118	C	1.072286	-0.306154	0.249453
C119	C	1.322286	-0.056154	0.499453
C120	C	1.572286	0.193846	0.749453
C121	C	0.574389	0.160470	-0.000455
C122	C	0.824389	0.410470	0.249545
C123	C	1.074389	0.660470	0.499545
C124	C	1.324389	0.910470	0.749545
C125	C	0.501566	0.159399	-0.000475
C126	C	0.751566	0.409399	0.249525
C127	C	1.001566	0.659399	0.499525
C128	C	1.251566	0.909399	0.749525
C129	C	0.473669	0.095233	-0.000482
C130	C	0.723669	0.345233	0.249518
C131	C	0.973669	0.595233	0.499518
C132	C	1.223669	0.845233	0.749518
C133	C	0.518603	0.032133	-0.000425
C134	C	0.768603	0.282133	0.249575
C135	C	1.018603	0.532133	0.499575
C136	C	1.268603	0.782133	0.749575
C137	C	0.591425	0.033207	-0.000388
C138	C	0.841425	0.283207	0.249612
C139	C	1.091425	0.533207	0.499612
C140	C	1.341425	0.783207	0.749612
N141	N	0.365691	0.046186	-0.100928
N142	N	0.615691	0.296186	0.149072
N143	N	0.865691	0.546186	0.399072
N144	N	1.115691	0.796186	0.649072
N145	N	0.296512	0.045171	-0.100967
N146	N	0.546512	0.295171	0.149033
N147	N	0.796512	0.545171	0.399033
N148	N	1.046512	0.795171	0.649033
C149	C	0.254260	0.091994	-0.000590
C150	C	0.504260	0.341994	0.249410
C151	C	0.754260	0.591994	0.499410
C152	C	1.004260	0.841994	0.749410
N153	N	0.283799	0.139883	0.099806
N154	N	0.533799	0.389883	0.349806
N155	N	0.783799	0.639883	0.599806
N156	N	1.033799	0.889883	0.849806
N157	N	0.352984	0.140900	0.099837
N158	N	0.602984	0.390900	0.349837
N159	N	0.852984	0.640900	0.599837
N160	N	1.102984	0.890900	0.849837
C161	C	0.394707	0.094062	-0.000521
C162	C	0.644707	0.344062	0.249479
C163	C	0.894707	0.594062	0.499479
C164	C	1.144707	0.844062	0.749479
C165	C	0.130372	0.153928	-0.000655
C166	C	0.380372	0.403928	0.249345
C167	C	0.630372	0.653928	0.499345
C168	C	0.880372	0.903928	0.749345
C169	C	0.057547	0.152853	-0.000663
C170	C	0.307547	0.402853	0.249337
C171	C	0.557547	0.652853	0.499337
C172	C	0.807547	0.902853	0.749337
C173	C	0.074586	0.025586	-0.000632
C174	C	0.324586	0.275586	0.249368
C175	C	0.574586	0.525586	0.499368
C176	C	0.824586	0.775586	0.749368
C177	C	0.147409	0.026662	-0.000605
C178	C	0.397409	0.276662	0.249395
C179	C	0.647409	0.526662	0.499395
C180	C	0.897409	0.776662	0.749395
C181	C	0.175298	0.090835	-0.000626
C182	C	0.425298	0.340835	0.249374
C183	C	0.675298	0.590835	0.499374
C184	C	0.925298	0.840835	0.749374
C185	C	0.952151	0.087546	-0.000609
C186	C	1.202151	0.337546	0.249391
C187	C	1.452151	0.587546	0.499391
C188	C	1.702151	0.837546	0.749391
C189	C	1.029656	0.088687	-0.000668
C190	C	1.279656	0.338687	0.249332
C191	C	1.529656	0.588687	0.499332
C192	C	1.779656	0.838687	0.749332
C193	C	0.818997	0.220700	-0.000571
C194	C	1.068997	0.470700	0.249429
C195	C	1.318997	0.720700	0.499429
C196	C	1.568997	0.970700	0.749429
C197	C	0.820138	0.298204	-0.000598
C198	C	1.070138	0.548204	0.249402
C199	C	1.320138	0.798204	0.499402
C200	C	1.570138	1.048204	0.749402
N201	N	0.824481	0.093031	0.419233
N202	N	1.074481	0.343031	0.669233
N203	N	1.324481	0.593031	0.919233
N204	N	1.574481	0.843031	1.169233
N205	N	0.824494	0.093030	-0.420294
N206	N	1.074494	0.343030	-0.170294
N207	N	1.324494	0.593030	0.079706
N208	N	1.574494	0.843030	0.329706
H209	H	0.944176	-0.134360	-0.000519
H210	H	1.194176	0.115640	0.249481
H211	H	1.444176	0.365640	0.499481
H212	H	1.694176	0.615640	0.749481
H213	H	0.153080	0.206181	-0.000646
H214	H	0.403080	0.456181	0.249354
H215	H	0.653080	0.706181	0.499354
H216	H	0.903080	0.956181	0.749354
H217	H	0.713281	-0.103449	-0.000446
H218	H	0.963281	0.146551	0.249554
H219	H	1.213281	0.396551	0.499554
H220	H	1.463281	0.646551	0.749554
H221	H	0.464982	0.210776	-0.000508
H222	H	0.714982	0.460776	0.249492
H223	H	0.964982	0.710776	0.499492
H224	H	1.214982	0.960776	0.749492
H225	H	0.937632	-0.578372	-0.000608
H226	H	1.187632	-0.328372	0.249392
H227	H	1.437632	-0.078372	0.499392
H228	H	1.687632	0.171628	0.749392
H229	H	0.935683	-0.710481	-0.000665
H230	H	1.185683	-0.460481	0.249335
H231	H	1.435683	-0.210481	0.499335
H232	H	1.685683	0.039519	0.749335
H233	H	0.704792	-0.679578	-0.000538
H234	H	0.954792	-0.429578	0.249462
H235	H	1.204792	-0.179578	0.499462
H236	H	1.454792	0.070422	0.749462
H237	H	0.051874	-0.026659	-0.000748
H238	H	0.301874	0.223341	0.249252
H239	H	0.551874	0.473341	0.499252
H240	H	0.801874	0.723341	0.749252
H241	H	0.942228	-0.266470	-0.000564
H242	H	1.192228	-0.016470	0.249436
H243	H	1.442228	0.233530	0.499436
H244	H	1.692228	0.483530	0.749436
H245	H	0.711340	-0.235567	-0.000454
H246	H	0.961340	0.014433	0.249546
H247	H	1.211340	0.264433	0.499546
H248	H	1.461340	0.514433	0.749546
H249	H	0.706738	-0.547464	-0.000505
H250	H	0.956738	-0.297464	0.249495
H251	H	1.206738	-0.047464	0.499495
H252	H	1.456738	0.202536	0.749495
H253	H	0.495885	-0.020111	-0.000455
H254	H	0.745885	0.229889	0.249545
H255	H	0.995885	0.479889	0.499545
H256	H	1.245885	0.729889	0.749545
H257	H	0.597091	0.212725	-0.000475
H258	H	0.847091	0.462725	0.249525
H259	H	1.097091	0.712725	0.499525
H260	H	1.347091	0.962725	0.749525
H261	H	0.628003	-0.018171	-0.000351
H262	H	0.878003	0.231829	0.249649
H263	H	1.128003	0.481829	0.499649
H264	H	1.378003	0.731829	0.749649
H265	H	0.020970	0.204232	-0.000692
H266	H	0.270970	0.454232	0.249308
H267	H	0.520970	0.704232	0.499308
H268	H	0.770970	0.954232	0.749308
H269	H	0.183988	-0.024713	-0.000577
H270	H	0.433988	0.225287	0.249423
H271	H	0.683988	0.475287	0.499423
H272	H	0.933988	0.725287	0.749423
