data_functionalizedCrystal
_audit_creation_method	'MofGen! by Chris Wilmer'
_symmetry_space_group_name_H-M	'P1'
_symmetry_Int_Tables_number	1
_symmetry_cell_setting	triclinic
loop_
_symmetry_equiv_pos_as_xyz
  x,y,z
_cell_length_a	10.654545
_cell_length_b	10.654549
_cell_length_c	9.130313
_cell_angle_alpha	89.996463
_cell_angle_beta	89.996934
_cell_angle_gamma	84.483928
loop_
_atom_site_label
_atom_site_type_symbol
_atom_site_fract_x
_atom_site_fract_y
_atom_site_fract_z
O1	O	1.667843	0.176372	-0.121781
O2	O	1.302363	0.193184	-0.121787
O3	O	1.493506	0.002038	-0.121778
O4	O	1.476700	0.367517	-0.121791
O5	O	1.493493	0.002033	0.121821
O6	O	1.302350	0.193178	0.121812
O7	O	1.667829	0.176366	0.121817
Cu8	Cu	1.485089	0.184772	0.144057
Cu9	Cu	1.485104	0.184778	-0.144027
O10	O	1.476686	0.367512	0.121808
C11	C	1.255559	0.191948	0.000011
C12	C	1.116115	0.188258	0.000009
C13	C	1.492266	-0.044762	0.000020
C14	C	1.488574	-0.184206	0.000015
C15	C	1.050603	0.186518	0.132796
C16	C	0.919584	0.183030	0.132796
C17	C	0.919599	0.183028	-0.132789
C18	C	1.050617	0.186507	-0.132787
C19	C	1.714634	0.177602	0.000016
C20	C	1.854078	0.181292	0.000008
C21	C	1.597638	-0.394722	0.000007
C22	C	1.601116	-0.263702	0.000018
C23	C	1.372546	-0.235736	0.000015
C24	C	1.369069	-0.366754	0.000014
C25	C	1.477927	0.414312	0.000007
C26	C	1.481619	0.553756	0.000002
N27	N	1.485087	0.184766	0.346680
N28	N	1.485116	0.184774	-0.346649
C29	C	1.569754	0.100163	0.423336
C30	C	1.569766	0.100163	0.576672
C31	C	1.400440	0.269381	0.576684
C32	C	1.400423	0.269374	0.423350
H33	H	1.103928	0.187944	0.240928
H34	H	1.280913	-0.171000	0.000021
Br35	Br	1.750382	-0.502598	-0.000006
H36	H	1.274587	-0.408703	0.000017
Br37	Br	1.758577	-0.193783	0.000024
H38	H	0.866250	0.181614	0.240924
H39	H	0.866254	0.181604	-0.240907
Br40	Br	1.285500	0.384190	0.319305
H41	H	1.638690	0.031269	0.360914
Br42	Br	1.285545	0.384204	0.680741
H43	H	1.638708	0.031270	0.639081
H44	H	1.103959	0.187920	-0.240925
