data_functionalizedCrystal
_audit_creation_method	'MofGen! by Chris Wilmer'
_symmetry_space_group_name_H-M	'P1'
_symmetry_Int_Tables_number	1
_symmetry_cell_setting	triclinic
loop_
_symmetry_equiv_pos_as_xyz
  x,y,z
_cell_length_a	29.839131
_cell_length_b	29.839135
_cell_length_c	13.032268
_cell_angle_alpha	97.158781
_cell_angle_beta	97.140540
_cell_angle_gamma	90.043950
loop_
_atom_site_label
_atom_site_type_symbol
_atom_site_fract_x
_atom_site_fract_y
_atom_site_fract_z
Zn1	Zn	-0.211069	0.654465	-0.590908
Zn2	Zn	-0.276664	0.663936	-0.416157
Zn3	Zn	-0.201553	0.588885	-0.416176
Zn4	Zn	-0.286172	0.579299	-0.590831
O5	O	-0.243865	0.621646	-0.503518
O6	O	-0.219774	0.718587	-0.567751
O7	O	-0.258738	0.661955	-0.269932
O8	O	-0.139950	0.597632	-0.439395
O9	O	-0.267966	0.725545	-0.439363
O10	O	-0.146942	0.645813	-0.567770
O11	O	-0.203555	0.606816	-0.269946
O12	O	-0.212775	0.524748	-0.439320
O13	O	-0.284172	0.581295	-0.737069
O14	O	-0.274944	0.517705	-0.567638
O15	O	-0.228994	0.636518	-0.737125
O16	O	-0.340790	0.652660	-0.439288
O17	O	-0.347776	0.590478	-0.567620
C18	C	-0.243859	0.504926	-0.503473
C19	C	-0.243868	0.454991	-0.503479
C20	C	-0.360584	0.621568	-0.503466
C21	C	-0.410520	0.621574	-0.503479
C22	C	-0.218820	0.141714	-0.570468
C23	C	-0.218825	-0.045961	-0.570498
O24	O	-0.197515	-0.073312	-0.627405
N25	N	-0.243867	-0.065798	-0.503556
C26	C	-0.268908	-0.038714	-0.436597
O27	O	-0.290204	-0.059892	-0.379652
C28	C	-0.268900	0.148961	-0.436563
C29	C	-0.243860	0.168795	-0.503517
C30	C	-0.193781	0.161549	-0.637416
C31	C	-0.193782	0.208465	-0.637412
C32	C	-0.218822	0.235546	-0.570460
C33	C	-0.243861	0.215711	-0.503513
C34	C	-0.293938	0.176044	-0.369600
C35	C	-0.293933	0.222966	-0.369595
C36	C	-0.268893	0.242800	-0.436549
C37	C	-0.268902	0.289707	-0.436557
N38	N	-0.243859	0.309545	-0.503499
C39	C	-0.218819	0.282464	-0.570451
C40	C	-0.268911	-0.137245	-0.436622
C41	C	-0.268913	-0.184164	-0.436631
C42	C	-0.218829	-0.191407	-0.570531
C43	C	-0.218830	-0.144489	-0.570526
C44	C	-0.243868	-0.117408	-0.503563
C45	C	-0.218824	0.380990	-0.570438
C46	C	-0.218829	0.427910	-0.570431
C47	C	-0.268910	0.435150	-0.436528
C48	C	-0.268908	0.388234	-0.436538
C49	C	-0.243861	0.361155	-0.503496
O50	O	-0.290197	0.317087	-0.379672
O51	O	-0.197518	0.303652	-0.627371
C52	C	-0.218819	0.094799	-0.570473
C53	C	-0.243858	0.074964	-0.503525
C54	C	-0.268898	0.102044	-0.436574
C55	C	-0.243860	0.028045	-0.503535
C56	C	-0.218821	0.000964	-0.570486
C57	C	-0.193778	0.020802	-0.637428
C58	C	-0.193779	0.067718	-0.637424
C59	C	-0.293940	0.082207	-0.369632
C60	C	-0.293937	0.035291	-0.369642
C61	C	-0.268898	0.008210	-0.436594
C62	C	-0.716520	0.654071	-0.436793
C63	C	-0.904195	0.654124	-0.436834
O64	O	-0.925361	0.681693	-0.380095
N65	N	-0.931311	0.621735	-0.503597
C66	C	-0.911505	0.589332	-0.570359
O67	O	-0.938876	0.561787	-0.627154
C68	C	-0.723831	0.589281	-0.570323
C69	C	-0.696717	0.621670	-0.503548
C70	C	-0.689407	0.686458	-0.370025
C71	C	-0.642490	0.686442	-0.370011
C72	C	-0.622688	0.654041	-0.436766
C73	C	-0.649801	0.621654	-0.503535
C74	C	-0.704027	0.556880	-0.637090
C75	C	-0.657105	0.556871	-0.637077
C76	C	-0.629991	0.589260	-0.570302
C77	C	-0.583082	0.589238	-0.570277
N78	N	-0.555967	0.621627	-0.503513
C79	C	-0.575770	0.654029	-0.436758
C80	C	-1.010037	0.589360	-0.570372
C81	C	-1.056955	0.589372	-0.570380
C82	C	-1.049642	0.654166	-0.436856
C83	C	-1.002722	0.654151	-0.436843
C84	C	-0.982921	0.621750	-0.503609
C85	C	-0.477242	0.653994	-0.436734
C86	C	-0.430322	0.653975	-0.436724
C87	C	-0.437640	0.589183	-0.570252
C88	C	-0.484556	0.589201	-0.570259
C89	C	-0.504356	0.621610	-0.503497
O90	O	-0.561887	0.561687	-0.626994
O91	O	-0.548393	0.681576	-0.379989
C92	C	-0.763436	0.654086	-0.436807
C93	C	-0.790550	0.621700	-0.503575
C94	C	-0.770747	0.589298	-0.570331
C95	C	-0.837468	0.621712	-0.503583
C96	C	-0.857271	0.654114	-0.436828
C97	C	-0.830155	0.686503	-0.370065
C98	C	-0.783239	0.686488	-0.370052
C99	C	-0.797863	0.556909	-0.637094
C100	C	-0.844779	0.556926	-0.637101
C101	C	-0.864581	0.589328	-0.570346
C102	C	-0.126690	0.621736	-0.503593
C103	C	-0.076758	0.621774	-0.503625
C104	C	-0.258705	0.606781	-0.776072
C105	C	-0.265029	0.600446	-0.892218
C106	C	-0.243871	0.738822	-0.503563
C107	C	-0.243874	0.788755	-0.503583
C108	C	-0.240548	0.624945	-0.944028
C109	C	-0.247084	0.618399	-1.064072
C110	C	-0.229049	0.636480	-0.232024
C111	C	-0.222599	0.642901	-0.115879
H112	H	-0.198437	0.444057	-0.624956
H113	H	-0.196796	0.668722	-1.071369
H114	H	-0.640986	0.530486	-0.691450
H115	H	-0.993918	0.562974	-0.624742
H116	H	-0.290824	0.574622	-0.936734
H117	H	-0.314322	0.245013	-0.315064
C118	C	-0.120529	0.003620	-0.688658
C119	C	-0.166253	-0.008970	-0.711024
H120	H	-0.103537	-0.014760	-0.734093
H121	H	-0.110091	-0.000243	-0.618484
H122	H	-0.116948	0.034401	-0.698246
H123	H	-0.169834	-0.039750	-0.701429
H124	H	-0.176694	-0.005111	-0.781215
C125	C	-0.318416	-0.172279	-0.304274
C126	C	-0.296442	-0.205963	-0.363040
H127	H	-0.335407	-0.185736	-0.258833
H128	H	-0.338103	-0.156468	-0.349727
H129	H	-0.296636	-0.151793	-0.264391
H130	H	-0.318222	-0.226448	-0.402929
H131	H	-0.276752	-0.221781	-0.317581
H132	H	-1.079027	0.562995	-0.624745
C133	C	-0.169325	0.378555	-0.702807
C134	C	-0.191297	0.351230	-0.644048
H135	H	-0.152336	0.360181	-0.748258
H136	H	-0.149635	0.399340	-0.657348
H137	H	-0.191105	0.394671	-0.742677
H138	H	-0.169516	0.335116	-0.604172
H139	H	-0.210989	0.330436	-0.689512
H140	H	-0.289298	0.457208	-0.382020
C141	C	-0.919946	0.528172	-0.696435
C142	C	-0.874580	0.521322	-0.710507
H143	H	-0.938342	0.506192	-0.741754
H144	H	-0.928433	0.557514	-0.711795
H145	H	-0.923830	0.525450	-0.626214
H146	H	-0.870695	0.524048	-0.780727
H147	H	-0.866090	0.491973	-0.695155
H148	H	-0.214748	0.650765	-0.899513
H149	H	-0.846286	0.712884	-0.315708
C150	C	-0.169327	-0.156372	-0.702880
C151	C	-0.191302	-0.122689	-0.644116
H152	H	-0.152329	-0.142914	-0.748308
H153	H	-0.191102	-0.176855	-0.742766
H154	H	-0.149640	-0.172186	-0.657416
H155	H	-0.210991	-0.106876	-0.689580
H156	H	-0.169524	-0.102198	-0.604227
C157	C	-0.144270	0.196578	-0.769745
C158	C	-0.166249	0.230263	-0.710994
H159	H	-0.127268	0.210035	-0.815166
H160	H	-0.166044	0.176096	-0.809639
H161	H	-0.124587	0.180764	-0.724273
H162	H	-0.185934	0.246075	-0.756467
H163	H	-0.144473	0.250754	-0.671098
H164	H	-0.173388	0.083862	-0.691944
H165	H	-0.272880	0.592572	-1.108583
H166	H	-0.705525	0.712845	-0.315664
C167	C	-0.195291	0.101145	-0.778025
C168	C	-0.166257	0.131785	-0.711023
H169	H	-0.178299	0.082771	-0.823470
H170	H	-0.217061	0.117266	-0.817892
H171	H	-0.210199	0.082613	-0.738151
H172	H	-0.151352	0.150320	-0.750897
H173	H	-0.144479	0.115663	-0.671152
H174	H	-0.198441	-0.213465	-0.625046
H175	H	-0.289302	-0.115200	-0.382090
C176	C	-0.706523	0.492845	-0.769090
C177	C	-0.733822	0.521279	-0.710500
H178	H	-0.724919	0.470867	-0.814418
H179	H	-0.685771	0.478156	-0.723517
H180	H	-0.690372	0.510227	-0.809084
H181	H	-0.749971	0.503897	-0.670500
H182	H	-0.754583	0.535969	-0.756079
H183	H	-0.314328	0.159904	-0.315078
H184	H	-0.761166	0.712862	-0.315677
C185	C	-0.318416	0.400109	-0.304189
C186	C	-0.296436	0.366429	-0.362950
H187	H	-0.335406	0.386649	-0.258750
H188	H	-0.338105	0.415917	-0.349646
H189	H	-0.296640	0.420599	-0.264304
H190	H	-0.318212	0.345941	-0.402841
H191	H	-0.276745	0.350614	-0.317487
C192	C	-0.343438	0.047176	-0.237271
C193	C	-0.321464	0.013493	-0.296037
H194	H	-0.360426	0.033720	-0.191824
H195	H	-0.363129	0.062984	-0.282725
H196	H	-0.321659	0.067666	-0.197397
H197	H	-0.343243	-0.006995	-0.335918
H198	H	-0.301771	-0.002322	-0.250577
H199	H	-0.314330	0.104252	-0.315109
C200	C	-0.427814	0.718025	-0.304742
C201	C	-0.400519	0.689581	-0.363324
H202	H	-0.409415	0.740007	-0.259436
H203	H	-0.443962	0.700653	-0.264734
H204	H	-0.448570	0.732710	-0.350329
H205	H	-0.379765	0.674893	-0.317737
H206	H	-0.384364	0.706955	-0.403335
H207	H	-0.620417	0.712817	-0.315640
C208	C	-0.529139	0.715249	-0.422367
C209	C	-0.498997	0.689625	-0.363356
H210	H	-0.542565	0.737248	-0.377065
H211	H	-0.552008	0.695968	-0.462108
H212	H	-0.513284	0.729916	-0.467939
H213	H	-0.514853	0.674956	-0.317789
H214	H	-0.476125	0.708910	-0.323597
H215	H	-0.980649	0.680525	-0.382470
H216	H	-0.506633	0.562829	-0.624636
H217	H	-1.065773	0.680548	-0.382501
H218	H	-0.421509	0.562801	-0.624600
H219	H	-0.781743	0.530524	-0.691455
