data_functionalizedCrystal
_audit_creation_method	'MofGen! by Chris Wilmer'
_symmetry_space_group_name_H-M	'P1'
_symmetry_Int_Tables_number	1
_symmetry_cell_setting	triclinic
loop_
_symmetry_equiv_pos_as_xyz
  x,y,z
_cell_length_a	14.519709
_cell_length_b	19.288813
_cell_length_c	17.766277
_cell_angle_alpha	89.984873
_cell_angle_beta	89.996216
_cell_angle_gamma	83.397823
loop_
_atom_site_label
_atom_site_type_symbol
_atom_site_fract_x
_atom_site_fract_y
_atom_site_fract_z
O1	O	1.223274	0.091052	-0.062513
O2	O	0.954727	0.101774	-0.062538
O3	O	1.096785	-0.004692	-0.062501
O4	O	1.081216	0.197518	-0.062550
O5	O	1.096759	-0.004695	0.062687
O6	O	0.954702	0.101771	0.062650
O7	O	1.223249	0.091049	0.062675
Cu8	Cu	1.088973	0.096410	0.074093
Cu9	Cu	1.089003	0.096413	-0.073957
O10	O	1.081191	0.197515	0.062638
C11	C	0.920358	0.101273	0.000053
C12	C	0.817986	0.099776	0.000045
C13	C	1.096279	-0.030572	0.000097
C14	C	1.094799	-0.107683	0.000111
N15	N	1.088959	0.096407	0.178224
C16	C	0.443127	0.094263	0.000080
C17	C	0.547425	0.095794	0.000070
C18	C	0.630553	0.097019	0.000062
C19	C	0.734858	0.098550	0.000053
C20	C	1.257618	0.091550	0.000082
C21	C	1.359990	0.093048	0.000086
C22	C	1.081697	0.223395	0.000038
C23	C	1.083177	0.300506	0.000019
C24	C	1.083882	0.336701	0.068264
C25	C	1.085298	0.409153	0.068277
C26	C	1.086028	0.445404	0.000042
C27	C	1.085318	0.409201	-0.068211
C28	C	1.083893	0.336752	-0.068223
C29	C	1.142315	0.554935	-0.052215
C30	C	1.143746	0.627383	-0.052201
C31	C	1.090421	0.668862	0.000073
C32	C	1.035676	0.637884	0.052347
C33	C	1.034251	0.565435	0.052335
C34	C	1.087573	0.523963	0.000046
C35	C	1.092660	0.783617	0.068336
C36	C	1.094070	0.856070	0.068346
C37	C	1.094099	0.856116	-0.068144
C38	C	1.092680	0.783665	-0.068152
C39	C	1.091964	0.747420	0.000090
N40	N	1.089025	0.096411	-0.178087
C41	C	1.144696	0.138632	0.217599
C42	C	1.144710	0.138630	0.296401
C43	C	1.088970	0.096411	0.335824
C44	C	1.033230	0.054177	0.296439
C45	C	1.033224	0.054175	0.217639
C46	C	1.005840	0.094355	0.460677
C47	C	1.005843	0.094362	0.539476
C48	C	1.088990	0.096413	0.578871
C49	C	1.172133	0.098472	0.539457
C50	C	1.172127	0.098470	0.460657
C51	C	1.088971	0.096408	0.421270
C52	C	1.144747	0.138639	0.703692
C53	C	1.144764	0.138632	0.782495
C54	C	1.033275	0.054182	0.782532
C55	C	1.033267	0.054185	0.703731
C56	C	1.089002	0.096417	0.664315
H57	H	1.083298	0.307194	0.123832
H58	H	1.185735	0.521169	-0.094792
F59	F	1.091894	0.745040	0.140964
H60	H	0.989676	0.540215	0.094898
H61	H	1.094642	0.885539	0.123921
F62	F	1.094847	0.894696	-0.140765
F63	F	1.204095	0.183573	0.824401
H64	H	0.987847	0.019801	0.328543
H65	H	1.190083	0.173018	0.185512
H66	H	1.190099	0.173017	0.328466
F67	F	1.086055	0.447681	0.140914
H68	H	1.083317	0.307282	-0.123797
F69	F	0.978923	0.682023	0.107989
H70	H	0.987834	0.019789	0.185580
F71	F	1.086098	0.447783	-0.140832
F72	F	1.091937	0.745142	-0.140788
F73	F	1.202013	0.660345	-0.107832
H74	H	1.239826	0.100145	0.428569
H75	H	1.239838	0.100146	0.571530
H76	H	1.190131	0.173026	0.671598
F77	F	0.973961	0.009242	0.824484
F78	F	0.973928	0.009254	0.661823
F79	F	0.917355	0.092177	0.581416
H80	H	0.938126	0.092689	0.428608
