data_functionalizedCrystal
_audit_creation_method	'MofGen! by Chris Wilmer'
_symmetry_space_group_name_H-M	'P1'
_symmetry_Int_Tables_number	1
_symmetry_cell_setting	triclinic
loop_
_symmetry_equiv_pos_as_xyz
  x,y,z
_cell_length_a	6.817900
_cell_length_b	11.168138
_cell_length_c	11.102193
_cell_angle_alpha	91.985749
_cell_angle_beta	108.604059
_cell_angle_gamma	108.508793
loop_
_atom_site_label
_atom_site_type_symbol
_atom_site_fract_x
_atom_site_fract_y
_atom_site_fract_z
V1	V	-4.111010	-0.174714	-0.396268
O2	O	-4.070572	0.008386	-0.388714
O3	O	-4.087292	-0.346419	-0.393568
O4	O	-4.087792	-0.172030	-0.569089
O5	O	-4.070068	-0.167210	-0.211978
V6	V	-4.588177	-0.152812	-0.374224
O7	O	-4.386212	-0.222756	-0.444623
O8	O	-4.763173	-0.104770	-0.325869
O9	O	-4.388689	0.018893	-0.376924
O10	O	-4.746012	-0.335913	-0.381778
O11	O	-4.746516	-0.160317	-0.558515
O12	O	-4.388189	-0.155496	-0.201403
C13	C	-3.937482	-0.388277	-0.387320
C14	C	-3.999544	-0.528648	-0.386264
C15	C	-3.852357	-0.585119	-0.379766
C16	C	-3.916497	-0.730200	-0.378675
C17	C	-3.938119	-0.165825	-0.611213
C18	C	-4.000582	-0.164768	-0.752495
C19	C	-4.120244	-0.396044	-0.788836
C20	C	-4.209411	-0.511180	-0.873379
C21	C	-4.268100	-0.510179	-1.006125
C22	C	-4.237623	-0.394029	-1.054329
C23	C	-4.148456	-0.278893	-0.969786
C24	C	-4.089766	-0.279907	-0.837039
C25	C	-4.028810	-0.047620	-0.933446
C26	C	-3.970105	-0.048618	-0.800699
C27	C	-3.998333	0.068529	-0.981650
C28	C	-3.909150	0.183669	-0.897106
C29	C	-3.850458	0.182663	-0.764353
C30	C	-3.880938	0.066518	-0.716156
C31	C	-4.201841	0.060744	-0.383169
C32	C	-4.119019	0.201114	-0.384233
C33	C	-4.201203	-0.161705	-0.159273
C34	C	-4.117977	-0.162756	-0.017989
H35	H	-4.244939	-0.750308	-0.389804
C36	C	-4.332780	-0.739665	-0.922606
C37	C	-4.242361	-0.638830	-0.820374
H38	H	-4.352974	-0.818463	-0.889877
H39	H	-4.235586	-0.730205	-0.969581
H40	H	-4.471124	-0.738722	-0.977679
H41	H	-4.104008	-0.639767	-0.765305
H42	H	-4.339558	-0.648293	-0.773377
H43	H	-3.678856	-0.526058	-0.375003
C44	C	-3.842947	-0.926807	-0.371527
C45	C	-3.746507	-0.795780	-0.371157
H46	H	-3.737991	-0.967290	-0.366876
H47	H	-3.966556	-0.962535	-0.448427
H48	H	-3.889667	-0.939455	-0.299512
H49	H	-3.699802	-0.783131	-0.443177
H50	H	-3.622859	-0.760041	-0.294248
C51	C	-4.221674	-0.667584	-0.282729
C52	C	-4.233764	-0.608363	-0.392679
H53	H	-4.366276	-0.716799	-0.286694
H54	H	-4.152935	-0.604323	-0.208416
H55	H	-4.137640	-0.721811	-0.278525
H56	H	-4.317785	-0.554129	-0.396879
H57	H	-4.302535	-0.671632	-0.467013
H58	H	-4.072430	-0.396870	-0.680748
H59	H	-3.777864	0.276421	-0.695524
H60	H	-4.285442	-0.393226	-1.162420
H61	H	-4.340710	-0.603933	-1.074962
C62	C	-4.223383	0.126960	-1.168018
C63	C	-4.062861	0.069627	-1.127567
H64	H	-4.263225	0.127631	-1.258103
H65	H	-4.165910	0.212144	-1.124575
H66	H	-4.349896	0.079972	-1.148828
H67	H	-3.936342	0.116621	-1.146750
H68	H	-4.120330	-0.015571	-1.171026
C69	C	-3.785015	0.412179	-0.847859
C70	C	-3.875678	0.311328	-0.950093
H71	H	-3.764369	0.490990	-0.880578
H72	H	-3.646897	0.411025	-0.792713
H73	H	-3.882319	0.402925	-0.800966
H74	H	-3.778366	0.320577	-0.996981
H75	H	-4.013817	0.312484	-1.005262
C76	C	-3.590785	0.133976	-0.509992
C77	C	-3.816436	0.065402	-0.570243
H78	H	-3.550976	0.133273	-0.419912
H79	H	-3.559886	0.219616	-0.526587
H80	H	-3.508460	0.095528	-0.542602
H81	H	-3.898763	0.103855	-0.537639
H82	H	-3.847356	-0.020254	-0.553637
