data_functionalizedCrystal
_audit_creation_method	'MofGen! by Chris Wilmer'
_symmetry_space_group_name_H-M	'P1'
_symmetry_Int_Tables_number	1
_symmetry_cell_setting	triclinic
loop_
_symmetry_equiv_pos_as_xyz
  x,y,z
_cell_length_a	17.699083
_cell_length_b	26.210047
_cell_length_c	17.699083
_cell_angle_alpha	89.996398
_cell_angle_beta	83.283015
_cell_angle_gamma	90.002990
loop_
_atom_site_label
_atom_site_type_symbol
_atom_site_fract_x
_atom_site_fract_y
_atom_site_fract_z
O1	O	1.004082	0.042358	0.095700
O2	O	0.783704	0.042375	0.108153
O3	O	0.900119	0.042362	-0.008263
O4	O	0.887667	0.042372	0.212116
O5	O	0.900097	-0.042496	-0.008244
O6	O	0.783681	-0.042483	0.108171
O7	O	1.004060	-0.042500	0.095719
Cu8	Cu	0.893868	-0.050239	0.101946
Cu9	Cu	0.893895	0.050115	0.101925
O10	O	0.887644	-0.042486	0.212134
C11	C	0.755495	-0.000052	0.107716
C12	C	0.671477	-0.000045	0.106377
N13	N	0.893855	-0.120823	0.101961
C14	C	0.622856	-0.000042	0.174711
C15	C	0.543913	-0.000049	0.173448
C16	C	0.513592	-0.000055	0.103852
C17	C	0.562219	-0.000059	0.035513
C18	C	0.641161	-0.000056	0.036776
C19	C	0.243856	-0.000072	0.030418
C20	C	0.164908	-0.000074	0.029160
C21	C	0.146608	-0.000065	0.167090
C22	C	0.225550	-0.000062	0.168353
C23	C	0.274170	-0.000069	0.100015
C24	C	0.359769	-0.000063	0.101384
C25	C	0.427995	-0.000058	0.102481
C26	C	0.945438	-0.473343	0.050388
C27	C	0.945455	-0.687002	0.050377
O28	O	0.989284	-0.714629	0.006531
N29	N	0.893899	-0.713717	0.101908
C30	C	0.842332	-0.687015	0.153442
O31	O	0.798475	-0.714640	0.197267
C32	C	0.842312	-0.473357	0.153449
C33	C	0.893877	-0.446644	0.101919
C34	C	0.996998	-0.446631	-0.001138
C35	C	0.996996	-0.393219	-0.001132
C36	C	0.945434	-0.366520	0.050400
C37	C	0.893875	-0.393233	0.101925
C38	C	0.790742	-0.446655	0.204978
C39	C	0.790740	-0.393238	0.204974
C40	C	0.842305	-0.366525	0.153445
C41	C	0.842311	-0.313123	0.153463
N42	N	0.893867	-0.286407	0.101932
C43	C	0.945429	-0.313106	0.050400
C44	C	0.842347	-0.799188	0.153436
C45	C	0.842352	-0.852602	0.153436
C46	C	0.945475	-0.852586	0.050370
C47	C	0.945472	-0.799171	0.050374
C48	C	0.893903	-0.772473	0.101905
C49	C	0.945421	-0.200938	0.050417
C50	C	0.945417	-0.147522	0.050429
C51	C	0.842292	-0.147543	0.153493
C52	C	0.842299	-0.200955	0.153483
C53	C	0.893866	-0.227651	0.101939
O54	O	0.798499	-0.285463	0.197280
O55	O	0.989268	-0.285471	0.006571
C56	C	0.945440	-0.526755	0.050382
C57	C	0.893880	-0.553467	0.101908
C58	C	0.842319	-0.526769	0.153439
C59	C	0.893886	-0.606881	0.101907
C60	C	0.945448	-0.633580	0.050375
C61	C	0.997004	-0.606865	-0.001156
C62	C	0.997002	-0.553454	-0.001150
C63	C	0.790763	-0.553484	0.204970
C64	C	0.790769	-0.606895	0.204961
C65	C	0.842331	-0.633594	0.153429
C66	C	1.032268	-0.000072	0.096156
C67	C	1.116286	-0.000074	0.097494
C68	C	0.899662	-0.000067	-0.036451
C69	C	0.898323	-0.000067	-0.120469
N70	N	0.893914	0.120699	0.101904
C71	C	0.966656	-0.000073	-0.169090
C72	C	0.965394	-0.000069	-0.248033
C73	C	0.895798	-0.000062	-0.278354
C74	C	0.827459	-0.000054	-0.229727
C75	C	0.828722	-0.000055	-0.150785
C76	C	0.822364	-0.000050	-0.548090
C77	C	0.821106	-0.000050	-0.627038
C78	C	0.959036	-0.000063	-0.645338
C79	C	0.960299	-0.000064	-0.566396
C80	C	0.891961	-0.000054	-0.517776
C81	C	0.893330	-0.000058	-0.432177
C82	C	0.894427	-0.000061	-0.363951
C83	C	0.888102	-0.000056	0.240322
C84	C	0.889440	-0.000053	0.324340
H85	H	0.647537	-0.000037	0.231384
C86	C	0.753558	-0.000048	-0.097298
H87	H	0.764277	-0.000044	-0.045941
H88	H	0.725002	-0.029637	-0.106469
H89	H	0.725026	0.029551	-0.106481
H90	H	1.038986	-0.468364	-0.043104
H91	H	0.140225	-0.000079	-0.027517
H92	H	0.748753	-0.468397	0.246938
H93	H	0.764429	-0.000046	-0.651721
C94	C	1.036854	-0.000069	-0.533047
H95	H	1.077372	-0.000067	-0.573311
H96	H	1.040209	-0.029661	-0.502627
H97	H	1.040217	0.029527	-0.502638
H98	H	0.504328	-0.000046	0.229092
C99	C	1.053709	-0.363842	-0.057823
H100	H	1.084408	-0.387399	-0.088516
H101	H	1.085167	-0.343002	-0.030646
H102	H	1.026536	-0.343009	-0.089300
H103	H	0.250232	-0.000055	0.225025
H104	H	0.987460	-0.777424	0.008415
C105	C	0.734016	-0.363873	0.261663
H106	H	0.703315	-0.387435	0.292352
H107	H	0.702561	-0.343034	0.234481
H108	H	0.761183	-0.343039	0.293144
C109	C	0.785551	-0.230340	0.210135
H110	H	0.754831	-0.206787	0.240814
H111	H	0.812679	-0.251194	0.241618
H112	H	0.754108	-0.251159	0.182904
H113	H	1.014680	-0.000069	-0.684934
H114	H	1.021038	-0.000075	-0.287617
H115	H	0.770792	-0.000045	-0.254420
C116	C	0.093124	-0.000064	0.242262
H117	H	0.041766	-0.000072	0.231546
H118	H	0.102301	0.029531	0.270798
H119	H	0.102304	-0.029657	0.270811
C120	C	0.297328	-0.000077	-0.044751
H121	H	0.267962	-0.000075	-0.086379
H122	H	0.328502	-0.029668	-0.047122
H123	H	0.328505	0.029519	-0.047134
H124	H	0.537526	-0.000072	-0.021154
C125	C	0.785573	-0.118168	0.210167
H126	H	0.792955	-0.082531	0.202779
H127	H	0.793685	-0.126920	0.260675
H128	H	0.735079	-0.126924	0.201997
C129	C	0.694644	-0.000055	-0.038390
H130	H	0.665282	-0.000053	-0.080021
H131	H	0.725821	-0.029644	-0.040761
H132	H	0.725818	0.029543	-0.040768
H133	H	0.766718	-0.000042	-0.508512
H134	H	0.800351	-0.777454	0.195401
H135	H	0.987411	-0.222668	0.008444
C136	C	1.002137	-0.118141	-0.006258
H137	H	1.032838	-0.141695	-0.036954
H138	H	1.033591	-0.097304	0.020927
H139	H	0.974966	-0.097304	-0.037732
H140	H	1.038991	-0.531708	-0.043110
H141	H	0.800372	-0.874348	0.195404
C142	C	1.002186	-0.881961	-0.006320
H143	H	0.994794	-0.917597	0.001060
H144	H	1.052684	-0.873208	0.001824
H145	H	0.994047	-0.873206	-0.056824
H146	H	1.038990	-0.628612	-0.043112
H147	H	0.748774	-0.531750	0.246932
C148	C	0.734041	-0.636273	0.261643
H149	H	0.703329	-0.612718	0.292326
H150	H	0.761194	-0.657115	0.293120
H151	H	0.702586	-0.657105	0.234443
H152	H	1.023330	-0.000082	-0.144409
