data_functionalizedCrystal
_audit_creation_method	'MofGen! by Chris Wilmer'
_symmetry_space_group_name_H-M	'P1'
_symmetry_Int_Tables_number	1
_symmetry_cell_setting	triclinic
loop_
_symmetry_equiv_pos_as_xyz
  x,y,z
_cell_length_a	14.044220
_cell_length_b	16.109301
_cell_length_c	14.586319
_cell_angle_alpha	90.000787
_cell_angle_beta	89.995213
_cell_angle_gamma	91.674821
loop_
_atom_site_label
_atom_site_type_symbol
_atom_site_fract_x
_atom_site_fract_y
_atom_site_fract_z
O1	O	0.121835	-1.112195	-0.076185
O2	O	0.621835	-0.612195	0.423815
O3	O	0.136997	-0.871261	-0.076199
O4	O	0.636997	-0.371261	0.423801
O5	O	-0.008568	-0.988112	-0.076183
O6	O	0.491432	-0.488112	0.423817
O7	O	0.267399	-0.995345	-0.076201
O8	O	0.767399	-0.495345	0.423799
O9	O	-0.008570	-0.988103	0.076298
O10	O	0.491430	-0.488103	0.576298
O11	O	0.136995	-0.871252	0.076281
O12	O	0.636995	-0.371252	0.576281
O13	O	0.121832	-1.112186	0.076296
O14	O	0.621832	-0.612186	0.576296
Cu15	Cu	0.129413	-0.991719	0.090212
Cu16	Cu	0.629413	-0.491719	0.590212
Cu17	Cu	0.129416	-0.991729	-0.090115
Cu18	Cu	0.629416	-0.491729	0.409885
O19	O	0.267397	-0.995336	0.076280
O20	O	0.767397	-0.495336	0.576280
C21	C	-0.043882	-0.984941	0.000058
C22	C	0.456118	-0.484941	0.500058
C23	C	-0.149105	-0.975498	0.000058
C24	C	0.350895	-0.475498	0.500058
C25	C	0.136381	-0.840236	0.000039
C26	C	0.636381	-0.340236	0.500039
C27	C	0.134540	-0.747804	0.000034
C28	C	0.634540	-0.247804	0.500034
C29	C	0.122448	-1.143211	0.000056
C30	C	0.622448	-0.643211	0.500056
C31	C	0.124289	-1.235644	0.000055
C32	C	0.624289	-0.735644	0.500055
C33	C	-0.341761	-0.958232	0.000044
C34	C	0.158239	-0.458232	0.500044
C35	C	-0.399415	-1.025212	0.000045
C36	C	0.100585	-0.525212	0.500045
C37	C	-0.506616	-1.015605	0.000037
C38	C	-0.006616	-0.515605	0.500037
C39	C	-0.234551	-0.967838	0.000052
C40	C	0.265449	-0.467838	0.500052
C41	C	0.302711	-0.998506	0.000037
C42	C	0.802711	-0.498506	0.500037
C43	C	0.407934	-1.007950	0.000031
C44	C	0.907934	-0.507950	0.500031
N45	N	0.129411	-0.991717	0.217043
N46	N	0.629411	-0.491717	0.717043
C47	C	0.216634	-0.531640	0.000039
C48	C	0.716634	-0.031640	0.500039
C49	C	0.214896	-0.444790	0.000045
C50	C	0.714896	0.055210	0.500045
C51	C	0.042189	-0.451815	0.000052
C52	C	0.542189	0.048185	0.500052
C53	C	0.043927	-0.538663	0.000053
C54	C	0.543927	-0.038663	0.500053
C55	C	0.131153	-0.578573	0.000042
C56	C	0.631153	-0.078573	0.500042
C57	C	0.127677	-0.404875	0.000047
C58	C	0.627677	0.095125	0.500047
C59	C	0.125792	-0.310709	0.000054
C60	C	0.625792	0.189291	0.500054
C61	C	0.133038	-0.672745	0.000037
C62	C	0.633038	-0.172745	0.500037
N63	N	0.129411	-0.991737	-0.216946
N64	N	0.629411	-0.491737	0.283054
C65	C	0.064976	-1.043479	0.452057
C66	C	0.564976	-0.543479	0.952057
C67	C	0.064974	-1.043481	0.548038
C68	C	0.564974	-0.543481	1.048038
C69	C	0.193848	-0.939969	0.548033
C70	C	0.693848	-0.439969	1.048033
C71	C	0.193845	-0.939963	0.452054
C72	C	0.693845	-0.439963	0.952054
C73	C	0.129410	-0.991723	0.404068
C74	C	0.629410	-0.491723	0.904068
C75	C	0.129411	-0.991731	0.596029
C76	C	0.629411	-0.491731	1.096029
C77	C	0.129409	-0.991733	0.700096
C78	C	0.629409	-0.491733	1.200096
C79	C	0.129411	-0.991720	0.299994
C80	C	0.629411	-0.491720	0.799994
H81	H	-0.372911	-0.893680	0.000038
H82	H	0.127089	-0.393680	0.500038
H83	H	0.246315	-0.897813	0.412979
H84	H	0.746315	-0.397813	0.912979
H85	H	-0.028827	-0.419309	0.000067
H86	H	0.471173	0.080691	0.500067
O87	O	0.002290	-1.093775	0.405585
O88	O	0.502290	-0.593775	0.905585
C89	C	-0.054566	-1.139470	0.468528
C90	C	0.445434	-0.639470	0.968528
H91	H	-0.055643	-1.105307	0.536948
H92	H	0.444357	-0.605307	1.036948
H93	H	-0.130261	-1.146537	0.440806
H94	H	0.369739	-0.646537	0.940806
H95	H	-0.023771	-1.203514	0.478727
H96	H	0.476229	-0.703514	0.978727
H97	H	0.287658	-0.564132	0.000037
H98	H	0.787658	-0.064132	0.500037
H99	H	0.284504	-0.406580	0.000045
H100	H	0.784504	0.093420	0.500045
O101	O	-0.362103	-1.102170	0.000100
O102	O	0.137897	-0.602170	0.500100
C103	C	-0.261822	-1.094757	0.000084
C104	C	0.238178	-0.594757	0.500084
H105	H	-0.238707	-1.031565	0.028942
H106	H	0.261293	-0.531565	0.528942
H107	H	-0.231393	-1.145914	0.044365
H108	H	0.268607	-0.645914	0.544365
H109	H	-0.234278	-1.100799	-0.073066
H110	H	0.265722	-0.600799	0.426934
H111	H	0.246311	-0.897829	0.587113
H112	H	0.746311	-0.397829	1.087113
O113	O	-0.039202	-0.584134	0.000014
O114	O	0.460798	-0.084134	0.500014
C115	C	-0.116562	-0.530288	0.000038
C116	C	0.383438	-0.030288	0.500038
H117	H	-0.092490	-0.467349	-0.028833
H118	H	0.407510	0.032651	0.471167
H119	H	-0.176451	-0.557842	-0.044227
H120	H	0.323549	-0.057842	0.455773
H121	H	-0.143301	-0.522130	0.073192
H122	H	0.356699	-0.022130	0.573192
O123	O	0.002291	-1.093637	0.594695
O124	O	0.502291	-0.593637	1.094695
C125	C	-0.056188	-1.044784	0.650238
C126	C	0.443812	-0.544784	1.150238
H127	H	-0.057812	-0.979098	0.621319
H128	H	0.442188	-0.479098	1.121319
H129	H	-0.131517	-1.073121	0.651330
H130	H	0.368483	-0.573121	1.151330
H131	H	-0.026526	-1.042629	0.722978
H132	H	0.473474	-0.542629	1.222978
