data_functionalizedCrystal
_audit_creation_method	'MofGen! by Chris Wilmer'
_symmetry_space_group_name_H-M	'P1'
_symmetry_Int_Tables_number	1
_symmetry_cell_setting	triclinic
loop_
_symmetry_equiv_pos_as_xyz
  x,y,z
_cell_length_a	13.339070
_cell_length_b	12.837943
_cell_length_c	11.892095
_cell_angle_alpha	94.310562
_cell_angle_beta	94.950121
_cell_angle_gamma	74.770883
loop_
_atom_site_label
_atom_site_type_symbol
_atom_site_fract_x
_atom_site_fract_y
_atom_site_fract_z
O1	O	0.264493	-1.458153	-0.093975
O2	O	0.251131	-1.152505	-0.093982
O3	O	0.107167	-1.270251	-0.093976
O4	O	0.408457	-1.340408	-0.093981
O5	O	0.119150	-1.260427	0.094031
O6	O	0.263114	-1.142682	0.094025
O7	O	0.276476	-1.448330	0.094032
Zn8	Zn	0.271697	-1.293946	0.123879
Zn9	Zn	0.255909	-1.306889	-0.123828
O10	O	0.420439	-1.330585	0.094026
C11	C	0.074327	-1.253488	0.000026
C12	C	-0.041381	-1.218164	0.000021
C13	C	0.252608	-1.107675	0.000021
C14	C	0.239146	-0.988726	0.000018
C15	C	0.274998	-1.493161	0.000027
C16	C	0.288460	-1.612110	0.000023
C17	C	-0.379696	-1.492830	0.000028
C18	C	-0.270983	-1.526022	0.000039
C19	C	-0.213577	-1.449060	0.000034
C20	C	-0.264895	-1.338901	0.000018
C21	C	-0.373618	-1.305705	0.000016
C22	C	-0.207499	-1.261935	0.000022
C23	C	-0.258817	-1.151776	0.000007
C24	C	-0.367530	-1.118585	0.000003
C25	C	-0.424936	-1.195547	0.000008
C26	C	-0.098776	-1.295131	0.000025
C27	C	-0.092698	-1.108006	0.000013
C28	C	-0.201411	-1.074814	0.000002
C29	C	0.453280	-1.347347	0.000022
C30	C	0.568986	-1.382672	0.000020
C31	C	0.400986	-0.794315	0.000032
C32	C	0.388342	-0.682553	0.000030
C33	C	0.201215	-0.653436	0.000021
C34	C	0.213859	-0.765199	0.000023
C35	C	0.313748	-0.835635	0.000026
C36	C	0.326390	-0.947400	0.000020
C37	C	0.139265	-0.918281	0.000019
C38	C	0.126621	-0.806519	0.000017
N39	N	0.282472	-1.285121	0.292933
N40	N	0.245127	-1.315720	-0.292882
C41	C	0.170089	-1.377114	0.529585
C42	C	0.177629	-1.370955	0.647927
C43	C	0.305086	-1.266638	0.647959
C44	C	0.297546	-1.272797	0.529618
C45	C	0.230047	-1.328038	0.470435
C46	C	0.222513	-1.334203	0.352091
C47	C	0.349963	-1.229880	0.352126
C48	C	0.357503	-1.223721	0.470468
H49	H	-0.057004	-1.384823	0.000038
H50	H	0.407725	-1.004748	0.000025
H51	H	0.045295	-0.749154	0.000027
O52	O	0.508718	-0.870288	0.000028
H53	H	0.502853	-0.954946	0.000021
H54	H	0.459381	-0.648916	0.000037
O55	O	0.093487	-0.577455	0.000038
H56	H	0.078362	-0.529838	-0.076588
O57	O	-0.215641	-1.644830	0.000055
H58	H	-0.130399	-1.654983	0.000070
O59	O	0.414628	-1.176935	0.288324
H60	H	0.466107	-1.239172	0.234393
H61	H	-0.045958	-1.045336	0.000015
O62	O	0.045166	-0.962849	0.000025
H63	H	-0.007004	-0.938426	-0.076608
H64	H	0.167555	-1.379187	0.303905
O65	O	0.097287	-1.436677	0.465727
H66	H	0.120031	-1.522436	0.488411
O67	O	0.112975	-1.423901	0.711730
H68	H	0.064784	-1.463356	0.650691
O69	O	0.377885	-1.207060	0.711800
H70	H	0.373054	-1.211029	0.804027
O71	O	0.430311	-1.164150	0.534301
H72	H	0.425489	-1.168118	0.626529
H73	H	-0.426445	-1.555480	0.000041
O74	O	-0.096322	-1.484853	0.000036
H75	H	-0.070282	-1.574382	0.000037
O76	O	-0.542194	-1.159740	0.000011
H77	H	-0.573484	-1.231765	0.000022
H78	H	-0.409309	-1.028886	-0.000001
H79	H	-0.243210	-0.985120	-0.000010
