data_functionalizedCrystal
_audit_creation_method	'MofGen! by Chris Wilmer'
_symmetry_space_group_name_H-M	'P1'
_symmetry_Int_Tables_number	1
_symmetry_cell_setting	triclinic
loop_
_symmetry_equiv_pos_as_xyz
  x,y,z
_cell_length_a	10.654550
_cell_length_b	14.044220
_cell_length_c	9.730223
_cell_angle_alpha	89.997406
_cell_angle_beta	89.996251
_cell_angle_gamma	88.836890
loop_
_atom_site_label
_atom_site_type_symbol
_atom_site_fract_x
_atom_site_fract_y
_atom_site_fract_z
O1	O	1.681222	0.133227	-0.114408
O2	O	1.317019	0.145921	-0.114387
O3	O	1.493654	0.001554	-0.114384
O4	O	1.504587	0.277595	-0.114411
O5	O	1.493652	0.001557	0.114196
O6	O	1.317017	0.145925	0.114193
O7	O	1.681220	0.133231	0.114172
Zn8	Zn	1.499118	0.139578	0.150474
Zn9	Zn	1.499121	0.139574	-0.150689
O10	O	1.504585	0.277598	0.114169
C11	C	1.270127	0.144991	-0.000094
C12	C	1.130403	0.142202	-0.000085
C13	C	1.488867	-0.033790	-0.000093
C14	C	1.474592	-0.139110	-0.000090
C15	C	1.059459	0.227203	-0.000114
C16	C	0.928175	0.224578	-0.000137
C17	C	0.938790	0.051942	-0.000109
C18	C	1.070072	0.054569	-0.000076
C19	C	1.053329	0.326873	-0.000136
C20	C	0.922045	0.324247	-0.000159
C21	C	1.448493	-0.331943	-0.000108
C22	C	1.549741	-0.388911	-0.000119
C23	C	1.535219	-0.496210	-0.000129
C24	C	1.463013	-0.224634	-0.000098
C25	C	1.728113	0.134161	-0.000124
C26	C	1.867836	0.136950	-0.000142
C27	C	1.509372	0.312942	-0.000125
C28	C	1.523648	0.418262	-0.000137
N29	N	1.499126	0.139581	0.356011
N30	N	1.499123	0.139563	-0.356226
C31	C	1.577364	0.075677	0.427938
C32	C	1.577359	0.075666	0.571821
C33	C	1.420876	0.203470	0.571837
C34	C	1.420875	0.203477	0.427956
C35	C	1.667713	0.001893	0.427931
C36	C	1.667708	0.001881	0.571814
H37	H	1.127830	-0.014647	-0.000033
H38	H	1.630271	-0.067018	0.616438
H39	H	1.647328	-0.357098	-0.000217
C40	C	1.316665	-0.374919	-0.000083
N41	N	1.217373	-0.407299	-0.000052
C42	C	0.864425	0.364962	0.133138
N43	N	0.821024	0.395633	0.233531
C44	C	1.334911	0.273849	0.348841
N45	N	1.270201	0.326885	0.289252
C46	C	1.334802	0.273750	0.650990
N47	N	1.269969	0.326686	0.710607
C48	C	1.628838	-0.096601	0.375176
N49	N	1.599554	-0.170784	0.335441
H50	H	1.765853	0.018134	0.610857
H51	H	0.889652	-0.019406	-0.000123
C52	C	1.098252	0.379533	0.129098
N53	N	1.132087	0.419194	0.226437
H54	H	1.092175	0.358608	-0.098826
C55	C	0.870760	0.374970	-0.129410
N56	N	0.832133	0.413170	-0.226761
C57	C	1.794036	0.033097	0.367625
N58	N	1.889183	0.056601	0.322202
