data_functionalizedCrystal
_audit_creation_method	'MofGen! by Chris Wilmer'
_symmetry_space_group_name_H-M	'P1'
_symmetry_Int_Tables_number	1
_symmetry_cell_setting	triclinic
loop_
_symmetry_equiv_pos_as_xyz
  x,y,z
_cell_length_a	16.974800
_cell_length_b	10.489741
_cell_length_c	16.053802
_cell_angle_alpha	87.407852
_cell_angle_beta	88.925812
_cell_angle_gamma	83.963381
loop_
_atom_site_label
_atom_site_type_symbol
_atom_site_fract_x
_atom_site_fract_y
_atom_site_fract_z
O1	O	1.050000	0.162593	-0.001544
O2	O	1.550000	0.662593	0.498456
O3	O	0.820649	0.182119	0.013960
O4	O	1.320649	0.682119	0.513960
O5	O	0.940543	-0.013302	0.005850
O6	O	1.440543	0.486698	0.505850
O7	O	0.930106	0.358013	0.006566
O8	O	1.430106	0.858013	0.506566
O9	O	0.933944	-0.002590	-0.132562
O10	O	1.433944	0.497410	0.367438
O11	O	0.814050	0.192831	-0.124452
O12	O	1.314050	0.692831	0.375548
O13	O	1.043401	0.173305	-0.139957
O14	O	1.543401	0.673305	0.360043
Zn15	Zn	0.927677	0.184769	-0.154181
Zn16	Zn	1.427677	0.684769	0.345819
Zn17	Zn	0.936373	0.170655	0.028184
Zn18	Zn	1.436373	0.670655	0.528184
O19	O	0.923507	0.368725	-0.131847
O20	O	1.423507	0.868725	0.368153
C21	C	0.787981	0.186536	-0.053261
C22	C	1.287981	0.686536	0.446739
C23	C	0.700473	0.183723	-0.047345
C24	C	1.200473	0.683723	0.452655
C25	C	0.655768	0.188238	-0.120017
C26	C	1.155768	0.688238	0.379983
C27	C	0.573546	0.185575	-0.114461
C28	C	1.073546	0.685575	0.385539
C29	C	0.536029	0.178406	-0.036233
C30	C	1.036029	0.678406	0.463767
C31	C	0.580740	0.173888	0.036444
C32	C	1.080740	0.673888	0.536444
C33	C	0.662961	0.176541	0.030887
C34	C	1.162961	0.676541	0.530887
C35	C	0.290510	0.169835	-0.011524
C36	C	0.790510	0.669835	0.488476
C37	C	0.208282	0.167185	-0.005972
C38	C	0.708282	0.667185	0.494028
C39	C	0.201094	0.178870	-0.156878
C40	C	0.701094	0.678870	0.343122
C41	C	0.283317	0.181531	-0.162428
C42	C	0.783317	0.681531	0.337572
C43	C	0.328021	0.177006	-0.089751
C44	C	0.828021	0.677006	0.410249
N45	N	0.451984	0.175688	-0.030552
N46	N	0.951984	0.675688	0.469448
N47	N	0.412065	0.179714	-0.095433
N48	N	0.912065	0.679714	0.404567
C49	C	0.936455	-0.055468	-0.063302
C50	C	1.436455	0.444532	0.436698
C51	C	0.934097	-0.197071	-0.063141
C52	C	1.434097	0.302929	0.436859
C53	C	0.857812	-0.264336	-0.057978
C54	C	1.357812	0.235664	0.442022
C55	C	0.890594	-0.351590	-0.128659
C56	C	1.390594	0.148410	0.371341
C57	C	0.897119	-0.362126	0.007804
C58	C	1.397119	0.137874	0.507804
C59	C	0.966908	-0.282456	-0.133880
C60	C	1.466908	0.217544	0.366120
C61	C	0.973425	-0.292987	0.002644
C62	C	1.473425	0.207013	0.502644
C63	C	1.006262	-0.380214	-0.068057
C64	C	1.506262	0.119786	0.431943
C65	C	1.076069	0.168888	-0.072734
C66	C	1.576069	0.668888	0.427266
C67	C	1.163578	0.171700	-0.078644
C68	C	1.663578	0.671700	0.421356
C69	C	0.927595	0.410892	-0.062692
C70	C	1.427595	0.910892	0.437308
C71	C	0.929953	0.552494	-0.062848
C72	C	1.429953	1.052494	0.437152
N73	N	0.921749	0.194400	-0.278640
N74	N	1.421749	0.694400	0.221360
C75	C	0.972783	0.111278	-0.325786
C76	C	1.472783	0.611278	0.174214
C77	C	0.968643	0.118028	-0.412913
C78	C	1.468643	0.618028	0.087087
C79	C	0.913473	0.207906	-0.452892
C80	C	1.413473	0.707906	0.047108
C81	C	0.862433	0.291031	-0.405739
C82	C	1.362433	0.791031	0.094261
C83	C	0.866570	0.284275	-0.318614
C84	C	1.366570	0.784275	0.181386
C85	C	0.895404	0.237383	-0.713079
C86	C	1.395404	0.737383	-0.213079
C87	C	0.891273	0.244135	-0.800211
C88	C	1.391273	0.744135	-0.300211
C89	C	0.997482	0.071129	-0.807378
C90	C	1.497482	0.571129	-0.307378
C91	C	1.001617	0.064386	-0.720251
C92	C	1.501617	0.564386	-0.220251
C93	C	0.950575	0.147507	-0.673106
C94	C	1.450575	0.647507	-0.173106
N95	N	0.909242	0.214810	-0.541949
N96	N	1.409242	0.714810	-0.041949
N97	N	0.954803	0.140596	-0.584050
N98	N	1.454803	0.640596	-0.084050
N99	N	0.942307	0.161014	0.152643
N100	N	1.442307	0.661014	0.652643
H101	H	0.177738	0.161351	0.057734
H102	H	0.677738	0.661351	0.557734
H103	H	0.537152	0.189230	-0.173638
H104	H	1.037152	0.689230	0.326362
H105	H	0.825012	0.351960	-0.280228
H106	H	1.325012	0.851960	0.219772
N107	N	0.860053	-0.406128	0.082913
N108	N	1.360053	0.093872	0.582913
N109	N	0.790030	-0.365126	0.099824
N110	N	1.290030	0.134874	0.599824
H111	H	0.763845	-0.396198	0.152867
H112	H	1.263845	0.103802	0.652867
H113	H	0.326898	0.166145	0.047655
H114	H	0.826898	0.666145	0.547655
N115	N	0.155443	0.183468	-0.231119
N116	N	0.655443	0.683468	0.268881
N117	N	0.188951	0.189860	-0.300960
N118	N	0.688951	0.689860	0.199040
H119	H	0.156712	0.193102	-0.353397
H120	H	0.656712	0.693102	0.146603
H121	H	1.010199	0.050342	-0.451299
H122	H	1.510199	0.550342	0.048701
H123	H	0.313858	0.187363	-0.226130
H124	H	0.813858	0.687363	0.273870
H125	H	0.686307	0.194086	-0.183719
H126	H	1.186307	0.694086	0.316281
N127	N	0.708631	0.171906	0.105119
N128	N	1.208631	0.671906	0.605119
N129	N	0.708614	0.077864	0.155795
N130	N	1.208614	0.577864	0.655795
H131	H	0.740869	0.074582	0.208224
H132	H	1.240869	0.574582	0.708224
N133	N	1.003893	-0.238642	-0.209086
N134	N	1.503893	0.261358	0.290914
N135	N	0.974822	-0.255984	-0.278120
N136	N	1.474822	0.244016	0.221880
H137	H	1.000939	-0.225038	-0.331235
H138	H	1.500939	0.274962	0.168765
N139	N	0.779123	-0.201149	-0.052747
N140	N	1.279123	0.298851	0.447253
N141	N	0.730293	-0.214778	-0.108143
N142	N	1.230293	0.285222	0.391857
H143	H	0.674719	-0.170152	-0.104453
H144	H	1.174719	0.329848	0.395547
H145	H	0.550188	0.168042	0.100139
H146	H	1.050188	0.668042	0.600139
H147	H	1.008427	-0.266778	0.058163
H148	H	1.508427	0.233222	0.558163
H149	H	0.855565	-0.377766	-0.184173
H150	H	1.355565	0.122234	0.315827
N151	N	0.806076	0.382824	-0.446587
N152	N	1.306076	0.882824	0.053413
N153	N	0.802390	0.388846	-0.524377
N154	N	1.302390	0.888846	-0.024377
H155	H	0.762587	0.453678	-0.553226
H156	H	1.262587	0.953678	-0.053226
N157	N	1.085010	-0.443125	-0.073442
N158	N	1.585010	0.056875	0.426558
N159	N	1.104730	-0.512855	-0.133045
N160	N	1.604730	-0.012855	0.366955
H161	H	1.160345	-0.557288	-0.136853
H162	H	1.660345	-0.057288	0.363147
N163	N	1.029101	0.019392	-0.284962
N164	N	1.529101	0.519392	0.215038
N165	N	1.074630	-0.054868	-0.327069
N166	N	1.574630	0.445132	0.172931
H167	H	1.114388	-0.119797	-0.298239
H168	H	1.614388	0.380203	0.201761
N169	N	0.843278	0.322277	-0.664913
N170	N	1.343278	0.822277	-0.164913
N171	N	0.796436	0.277830	-0.612989
N172	N	1.296436	0.777830	-0.112989
H173	H	0.759622	0.337791	-0.578965
H174	H	1.259622	0.837791	-0.078965
N175	N	1.058113	-0.027212	-0.679438
N176	N	1.558113	0.472788	-0.179438
N177	N	1.103766	-0.101278	-0.721550
N178	N	1.603766	0.398722	-0.221550
H179	H	1.143719	-0.165887	-0.692730
H180	H	1.643719	0.334113	-0.192730
N181	N	1.049612	-0.013762	-0.855548
N182	N	1.549612	0.486238	-0.355548
N183	N	1.045915	-0.007722	-0.933338
N184	N	1.545915	0.492278	-0.433338
H185	H	1.082731	-0.067682	-0.967359
H186	H	1.582731	0.432318	-0.467359
H187	H	0.846344	0.317330	-0.832758
H188	H	1.346344	0.817330	-0.332758
