data_functionalizedCrystal
_audit_creation_method	'MofGen! by Chris Wilmer'
_symmetry_space_group_name_H-M	'P1'
_symmetry_Int_Tables_number	1
_symmetry_cell_setting	triclinic
loop_
_symmetry_equiv_pos_as_xyz
  x,y,z
_cell_length_a	17.640112
_cell_length_b	19.805405
_cell_length_c	19.805399
_cell_angle_alpha	89.969291
_cell_angle_beta	101.179593
_cell_angle_gamma	101.251918
loop_
_atom_site_label
_atom_site_type_symbol
_atom_site_fract_x
_atom_site_fract_y
_atom_site_fract_z
Zn1	Zn	1.208314	-0.060065	-0.173858
Zn2	Zn	1.208221	-0.173272	-0.060682
Zn3	Zn	1.076146	-0.082991	-0.083527
Zn4	Zn	1.076097	-0.196131	-0.196666
O5	O	1.142194	-0.128115	-0.128683
O6	O	1.318909	-0.055920	-0.139738
O7	O	1.190682	-0.161324	0.031001
O8	O	1.093738	0.014777	-0.095525
O9	O	1.318841	-0.139093	-0.056589
O10	O	1.190841	0.031621	-0.161890
O11	O	1.093647	-0.094996	0.014217
O12	O	0.965532	-0.117161	-0.117641
O13	O	1.093654	-0.178053	-0.288354
O14	O	0.965496	-0.200284	-0.200764
O15	O	1.190794	-0.078086	-0.271597
O16	O	1.190635	-0.271031	-0.078705
O17	O	1.093564	-0.287825	-0.178612
C18	C	1.142106	-0.303986	-0.128666
C19	C	1.142140	-0.379212	-0.128669
C20	C	0.936835	-0.163691	-0.164157
C21	C	0.848981	-0.178927	-0.179349
C22	C	1.192734	-0.405781	-0.076684
C23	C	1.192767	-0.476463	-0.076693
C24	C	1.142202	-0.520577	-0.128685
C25	C	1.091606	-0.494004	-0.180675
C26	C	1.091577	-0.423322	-0.180668
C27	C	1.091723	-0.779057	-0.180705
C28	C	1.091754	-0.849744	-0.180706
C29	C	1.192913	-0.832198	-0.076730
C30	C	1.192884	-0.761516	-0.076723
C31	C	1.142291	-0.734949	-0.128715
C32	C	1.142256	-0.658306	-0.128705
C33	C	1.142233	-0.597219	-0.128692
C34	C	0.560025	-0.012356	-0.013277
C35	C	0.477473	-0.026686	-0.027561
C36	C	0.477490	-0.113361	-0.113968
C37	C	0.560043	-0.099036	-0.099693
C38	C	0.601304	-0.048533	-0.049346
C39	C	0.601323	-0.135213	-0.135762
C40	C	0.683869	-0.120891	-0.121486
C41	C	0.725136	-0.070392	-0.071140
C42	C	0.683851	-0.034211	-0.035070
C43	C	0.560060	-0.185719	-0.186105
C44	C	0.601340	-0.221896	-0.222175
C45	C	0.683888	-0.207571	-0.207902
C46	C	0.725155	-0.157072	-0.157556
C47	C	0.725173	-0.243752	-0.243972
C48	C	0.807720	-0.229430	-0.229696
C49	C	0.807701	-0.142750	-0.143280
C50	C	1.348356	-0.092400	-0.093071
C51	C	1.436210	-0.077180	-0.077895
C52	C	1.142229	-0.128062	-0.305220
C53	C	1.142244	-0.128039	-0.380450
C54	C	1.142305	0.048447	-0.128712
C55	C	1.142353	0.123688	-0.128724
C56	C	1.091732	-0.093495	-0.424530
C57	C	1.091743	-0.093480	-0.495217
C58	C	1.142270	-0.128005	-0.521821
C59	C	1.192784	-0.162554	-0.477735
C60	C	1.192769	-0.162572	-0.407050
C61	C	1.192847	-0.162479	-0.762797
C62	C	1.192860	-0.162456	-0.833487
C63	C	1.091821	-0.093387	-0.850964
C64	C	1.091806	-0.093406	-0.780279
C65	C	1.142316	-0.127957	-0.736200
C66	C	1.142303	-0.127974	-0.659554
C67	C	1.142288	-0.127985	-0.598465
C68	C	1.142205	-0.128111	0.047175
C69	C	1.142344	-0.127916	0.122430
H70	H	1.233906	-0.369867	-0.034344
Cl71	Cl	1.028183	-0.905201	-0.246074
Cl72	Cl	0.549462	-0.285391	-0.285457
H73	H	0.492846	-0.197378	-0.197727
H74	H	1.050439	-0.529926	-0.223010
Cl75	Cl	1.028203	-0.050089	-0.550636
Cl76	Cl	0.425611	-0.176856	-0.177250
H77	H	1.050664	-0.065289	-0.758622
H78	H	1.050380	-0.401691	-0.222999
Cl79	Cl	1.028318	-0.049954	-0.906383
Cl80	Cl	1.256384	-0.205864	-0.866931
H81	H	0.691566	-0.284876	-0.284959
Cl82	Cl	1.256454	-0.706062	-0.011360
H83	H	0.841331	-0.258889	-0.259068
Cl84	Cl	1.256377	-0.509860	-0.011339
Cl85	Cl	1.256352	-0.205909	-0.707391
Cl86	Cl	1.028212	-0.050085	-0.391092
Cl87	Cl	0.735728	0.029284	0.028220
Cl88	Cl	0.859579	-0.079255	-0.079990
H89	H	1.050527	-0.757432	-0.223037
Cl90	Cl	1.256521	-0.865601	-0.011371
H91	H	1.233920	-0.190669	-0.499402
H92	H	1.233907	-0.190696	-0.371159
H93	H	0.792351	-0.058733	-0.059516
H94	H	0.593622	0.028779	0.027710
H95	H	0.443866	0.002782	0.001810
