data_functionalizedCrystal
_audit_creation_method	'MofGen! by Chris Wilmer'
_symmetry_space_group_name_H-M	'P1'
_symmetry_Int_Tables_number	1
_symmetry_cell_setting	triclinic
loop_
_symmetry_equiv_pos_as_xyz
  x,y,z
_cell_length_a	16.120444
_cell_length_b	16.120566
_cell_length_c	16.120297
_cell_angle_alpha	89.874982
_cell_angle_beta	84.384883
_cell_angle_gamma	90.169144
loop_
_atom_site_label
_atom_site_type_symbol
_atom_site_fract_x
_atom_site_fract_y
_atom_site_fract_z
Zn1	Zn	0.422256	-1.224976	-0.554884
Zn2	Zn	0.755590	-0.891643	-0.221551
Zn3	Zn	1.088923	-0.558310	0.111782
Zn4	Zn	0.554941	-1.224869	-0.422191
Zn5	Zn	0.888274	-0.891536	-0.088857
Zn6	Zn	1.221608	-0.558203	0.244476
Zn7	Zn	0.408173	-1.093716	-0.408120
Zn8	Zn	0.741506	-0.760383	-0.074786
Zn9	Zn	1.074840	-0.427050	0.258547
Zn10	Zn	0.554175	-1.078867	-0.554115
Zn11	Zn	0.887508	-0.745534	-0.220782
Zn12	Zn	1.220841	-0.412200	0.112551
O13	O	0.484886	-1.155607	-0.484827
O14	O	0.818220	-0.822274	-0.151494
O15	O	1.151553	-0.488941	0.181839
O16	O	0.446072	-1.340998	-0.543493
O17	O	0.779405	-1.007664	-0.210159
O18	O	1.112739	-0.674331	0.123174
O19	O	0.529899	-1.213641	-0.303692
O20	O	0.863232	-0.880308	0.029642
O21	O	1.196565	-0.546975	0.362975
O22	O	0.293410	-1.117387	-0.422021
O23	O	0.626744	-0.784054	-0.088688
O24	O	0.960077	-0.450721	0.244645
O25	O	0.543555	-1.340919	-0.446003
O26	O	0.876888	-1.007586	-0.112670
O27	O	1.210222	-0.674252	0.220663
O28	O	0.303757	-1.213824	-0.529849
O29	O	0.637091	-0.880490	-0.196515
O30	O	0.970424	-0.547157	0.136818
O31	O	0.422069	-1.117284	-0.293354
O32	O	0.755402	-0.783950	0.039980
O33	O	1.088736	-0.450617	0.373313
O34	O	0.421326	-0.975711	-0.421276
O35	O	0.754659	-0.642378	-0.087942
O36	O	1.087993	-0.309044	0.245391
O37	O	0.542249	-1.092079	-0.670850
O38	O	0.875582	-0.758746	-0.337516
O39	O	1.208915	-0.425412	-0.004183
O40	O	0.528593	-0.964801	-0.528538
O41	O	0.861926	-0.631468	-0.195205
O42	O	1.195259	-0.298135	0.138129
O43	O	0.445329	-1.199425	-0.671415
O44	O	0.778662	-0.866092	-0.338081
O45	O	1.111996	-0.532758	-0.004748
O46	O	0.671470	-1.199243	-0.445258
O47	O	1.004804	-0.865909	-0.111925
O48	O	1.338137	-0.532576	0.221409
O49	O	0.670907	-1.091975	-0.542182
O50	O	1.004241	-0.758642	-0.208849
O51	O	1.337574	-0.425309	0.124484
C52	C	0.473348	-0.940169	-0.473297
C53	C	0.806682	-0.606836	-0.139964
C54	C	1.140015	-0.273503	0.193370
C55	C	0.468433	-0.848002	-0.468385
C56	C	0.801767	-0.514669	-0.135052
C57	C	1.135100	-0.181335	0.198282
C58	C	0.459441	-0.679251	-0.459423
C59	C	0.792774	-0.345918	-0.126090
C60	C	1.126108	-0.012585	0.207243
C61	C	0.510404	-0.632799	-0.510242
C62	C	0.843737	-0.299466	-0.176909
C63	C	1.177070	0.033867	0.156425
C64	C	0.505400	-0.538901	-0.505255
C65	C	0.838734	-0.205567	-0.171922
C66	C	1.172067	0.127766	0.161411
C67	C	0.464443	-0.773159	-0.464409
C68	C	0.797777	-0.439825	-0.131075
C69	C	1.131110	-0.106492	0.202258
C70	C	0.701432	-1.144008	-0.495183
C71	C	1.034765	-0.810674	-0.161850
C72	C	1.368099	-0.477341	0.171484
C73	C	0.794077	-1.139120	-0.499645
C74	C	1.127410	-0.805786	-0.166312
C75	C	1.460743	-0.472453	0.167022
C76	C	0.267497	-1.167274	-0.474451
C77	C	0.600830	-0.833941	-0.141118
C78	C	0.934164	-0.500607	0.192216
C79	C	0.174859	-1.172245	-0.470029
C80	C	0.508192	-0.838912	-0.136696
C81	C	0.841525	-0.505579	0.196637
C82	C	1.005235	-1.181158	-0.461871
C83	C	1.338568	-0.847824	-0.128537
C84	C	1.671901	-0.514491	0.204796
C85	C	0.963695	-1.130210	-0.507801
C86	C	1.297029	-0.796877	-0.174468
C87	C	1.630362	-0.463543	0.158866
C88	C	0.869311	-1.135169	-0.503262
C89	C	1.202644	-0.801836	-0.169928
C90	C	1.535977	-0.468502	0.163405
C91	C	1.099628	-1.176200	-0.466409
C92	C	1.432961	-0.842867	-0.133076
C93	C	1.766295	-0.509533	0.200258
C94	C	0.495274	-1.144108	-0.702219
C95	C	0.828608	-0.810774	-0.368886
C96	C	1.161941	-0.477441	-0.035553
C97	C	0.499701	-1.139207	-0.794859
C98	C	0.833034	-0.805874	-0.461525
C99	C	1.166368	-0.472540	-0.128192
C100	C	0.496472	-0.371887	-0.496390
C101	C	0.829805	-0.038553	-0.163057
C102	C	1.163139	0.294780	0.170277
C103	C	0.501414	-0.464054	-0.501283
C104	C	0.834747	-0.130720	-0.167949
C105	C	1.168081	0.202613	0.165384
C106	C	0.507763	-1.130231	-0.964470
C107	C	0.841096	-0.796897	-0.631136
C108	C	1.174429	-0.463564	-0.297803
C109	C	0.461769	-1.181161	-1.006034
C110	C	0.795102	-0.847827	-0.672701
C111	C	1.128436	-0.514494	-0.339367
C112	C	0.466255	-1.176166	-1.100411
C113	C	0.799588	-0.842833	-0.767078
C114	C	1.132921	-0.509499	-0.433745
C115	C	0.503278	-1.135224	-0.870084
C116	C	0.836611	-0.801891	-0.536750
C117	C	1.169945	-0.468557	-0.203417
C118	C	0.474481	-1.167113	-0.268281
C119	C	0.807815	-0.833780	0.065052
C120	C	1.141148	-0.500446	0.398386
C121	C	0.469828	-1.172187	-0.175639
C122	C	0.803162	-0.838853	0.157694
C123	C	1.136495	-0.505520	0.491027
H124	H	0.412057	-0.648502	-0.412174
H125	H	0.745390	-0.315168	-0.078841
H126	H	1.078724	0.018165	0.254492
N127	N	0.960927	-1.240527	-0.408249
N128	N	1.294261	-0.907194	-0.074915
N129	N	1.627594	-0.573861	0.258418
N130	N	0.966637	-1.238649	-0.331502
N131	N	1.299970	-0.905315	0.001831
N132	N	1.633303	-0.571982	0.335165
H133	H	0.935335	-1.280575	-0.293628
H134	H	1.268669	-0.947242	0.039705
H135	H	1.602002	-0.613908	0.373038
N136	N	1.008012	-1.070822	-0.561403
N137	N	1.341346	-0.737489	-0.228070
N138	N	1.674679	-0.404155	0.105263
N139	N	1.085733	-1.066825	-0.565059
N140	N	1.419067	-0.733491	-0.231726
N141	N	1.752400	-0.400158	0.101608
H142	H	1.117037	-1.024882	-0.602911
H143	H	1.450370	-0.691548	-0.269578
H144	H	1.783703	-0.358215	0.063755
N145	N	0.408145	-1.240559	-0.961751
N146	N	0.741478	-0.907226	-0.628417
N147	N	1.074812	-0.573893	-0.295084
N148	N	0.404531	-1.244584	-0.884035
N149	N	0.737864	-0.911250	-0.550702
N150	N	1.071197	-0.577917	-0.217368
H151	H	0.366661	-1.286533	-0.852755
H152	H	0.699995	-0.953200	-0.519422
H153	H	1.033328	-0.619866	-0.186089
H154	H	0.550505	-1.082881	-0.999763
H155	H	0.883839	-0.749548	-0.666429
H156	H	1.217172	-0.416215	-0.333096
H157	H	0.557791	-0.663551	-0.557495
H158	H	0.891124	-0.330218	-0.224162
H159	H	1.224458	0.003116	0.109172
