data_functionalizedCrystal
_audit_creation_method	'MofGen! by Chris Wilmer'
_symmetry_space_group_name_H-M	'P1'
_symmetry_Int_Tables_number	1
_symmetry_cell_setting	triclinic
loop_
_symmetry_equiv_pos_as_xyz
  x,y,z
_cell_length_a	14.908571
_cell_length_b	16.625546
_cell_length_c	16.625539
_cell_angle_alpha	89.971468
_cell_angle_beta	86.690369
_cell_angle_gamma	86.718495
loop_
_atom_site_label
_atom_site_type_symbol
_atom_site_fract_x
_atom_site_fract_y
_atom_site_fract_z
Zn1	Zn	1.379176	-0.392256	-0.526895
Zn2	Zn	1.379077	-0.527090	-0.392052
Zn3	Zn	1.228319	-0.384488	-0.384309
Zn4	Zn	1.228277	-0.519256	-0.519079
O5	O	1.303713	-0.455773	-0.455584
O6	O	1.505408	-0.416672	-0.515519
O7	O	1.359055	-0.508201	-0.278191
O8	O	1.248390	-0.272689	-0.403254
O9	O	1.505335	-0.515734	-0.416450
O10	O	1.359224	-0.278397	-0.508011
O11	O	1.248294	-0.403432	-0.272503
O12	O	1.102069	-0.395835	-0.395676
O13	O	1.248318	-0.502382	-0.632949
O14	O	1.102038	-0.494849	-0.494690
O15	O	1.359183	-0.409076	-0.638692
O16	O	1.359014	-0.638880	-0.408872
O17	O	1.248222	-0.633125	-0.502198
C18	C	1.069320	-0.443650	-0.443495
C19	C	0.969046	-0.438483	-0.438343
C20	C	0.780636	-0.532037	-0.531626
C21	C	0.686419	-0.527184	-0.526788
C22	C	0.686394	-0.423923	-0.423832
C23	C	0.780611	-0.428775	-0.428671
C24	C	0.827728	-0.482834	-0.482569
C25	C	0.921946	-0.487690	-0.487402
C26	C	0.921920	-0.384425	-0.384451
C27	C	0.827703	-0.379573	-0.379613
C28	C	1.303627	-0.665259	-0.455546
C29	C	1.303673	-0.754883	-0.455561
C30	C	1.303831	-1.083066	-0.455653
C31	C	1.303784	-0.991755	-0.455629
C32	C	1.303751	-0.918977	-0.455606
C33	C	1.303706	-0.827661	-0.455583
C34	C	1.539021	-0.467944	-0.467720
C35	C	1.639295	-0.473130	-0.472892
C36	C	1.303757	-0.455722	-0.665895
C37	C	1.303776	-0.455700	-0.755517
C38	C	1.303823	-0.245469	-0.455641
C39	C	1.303870	-0.155851	-0.455665
C40	C	1.303790	-0.455683	-0.828300
C41	C	1.303811	-0.455654	-0.919610
C42	C	1.303833	-0.455627	-0.992388
C43	C	1.303855	-0.455599	-1.083703
C44	C	1.303720	-0.455768	-0.246093
C45	C	1.303876	-0.455571	-0.156481
H46	H	0.648015	-0.379905	-0.379957
H47	H	0.960308	-0.531710	-0.531287
H48	H	0.648080	-0.567248	-0.566737
H49	H	0.789327	-0.335557	-0.335733
H50	H	0.960273	-0.344362	-0.344503
H51	H	0.818999	-0.576058	-0.575507
