data_functionalizedCrystal
_audit_creation_method	'MofGen! by Chris Wilmer'
_symmetry_space_group_name_H-M	'P1'
_symmetry_Int_Tables_number	1
_symmetry_cell_setting	triclinic
loop_
_symmetry_equiv_pos_as_xyz
  x,y,z
_cell_length_a	25.639242
_cell_length_b	16.120531
_cell_length_c	25.639233
_cell_angle_alpha	92.877249
_cell_angle_beta	90.022166
_cell_angle_gamma	87.071714
loop_
_atom_site_label
_atom_site_type_symbol
_atom_site_fract_x
_atom_site_fract_y
_atom_site_fract_z
Zn1	Zn	0.788686	0.332111	0.306288
Zn2	Zn	0.784186	0.471506	0.223279
Zn3	Zn	0.701263	0.332098	0.218852
Zn4	Zn	0.696785	0.471475	0.310668
O5	O	0.742730	0.401797	0.264771
O6	O	0.861254	0.350620	0.295296
O7	O	0.773177	0.453021	0.149526
O8	O	0.716617	0.215433	0.226765
O9	O	0.857948	0.453033	0.234310
O10	O	0.780846	0.215442	0.291004
O11	O	0.712253	0.350599	0.146274
O12	O	0.627504	0.350569	0.231011
O13	O	0.708985	0.452980	0.383252
O14	O	0.624214	0.452968	0.298468
O15	O	0.776505	0.350590	0.380034
O16	O	0.768835	0.588168	0.238556
O17	O	0.704622	0.588145	0.302761
C18	C	0.606889	0.401764	0.264735
C19	C	0.548774	0.401770	0.264732
C20	C	0.735768	0.618407	0.271626
C21	C	0.732838	0.711074	0.274575
C22	C	0.742747	0.401783	0.401144
C23	C	0.742755	0.401776	0.459258
C24	C	0.186703	0.455206	0.299867
C25	C	0.132099	0.455211	0.299876
O26	O	0.102411	0.500602	0.329717
N27	N	0.106490	0.401820	0.264806
C28	C	0.135489	0.348415	0.229730
O29	O	0.108693	0.303003	0.199902
C30	C	0.190093	0.348407	0.229724
C31	C	0.215698	0.401807	0.264792
C32	C	0.212309	0.508600	0.334933
C33	C	0.266910	0.508596	0.334924
C34	C	0.295905	0.455197	0.299849
C35	C	0.270299	0.401802	0.264783
C36	C	0.219091	0.294998	0.194651
C37	C	0.273698	0.294994	0.194648
C38	C	0.299303	0.348393	0.229716
C39	C	0.353894	0.348399	0.229699
N40	N	0.379503	0.401789	0.264768
C41	C	0.350508	0.455188	0.299843
C42	C	0.020818	0.348437	0.229745
C43	C	-0.033785	0.348449	0.229747
C44	C	-0.037171	0.455243	0.299894
C45	C	0.017432	0.455235	0.299888
C46	C	0.046426	0.401827	0.264814
C47	C	0.465174	0.455176	0.299821
C48	C	0.519779	0.455170	0.299807
C49	C	0.523161	0.348372	0.229663
C50	C	0.468560	0.348382	0.229674
C51	C	0.439568	0.401786	0.264758
O52	O	0.383616	0.303028	0.199874
O53	O	0.377312	0.500586	0.329671
C54	C	0.879102	0.401831	0.264808
C55	C	0.937216	0.401845	0.264824
C56	C	0.727491	0.880736	0.279972
C57	C	0.757989	0.922018	0.249542
C58	C	0.755014	1.016424	0.252544
C59	C	0.730465	0.786322	0.276970
C60	C	0.749714	1.184342	0.257892
C61	C	0.752643	1.091675	0.254936
C62	C	0.742745	0.401752	0.128927
C63	C	0.742846	0.401523	0.070806
C64	C	0.777959	0.348304	0.817946
C65	C	0.777967	0.348280	0.872550
O66	O	0.807854	0.302914	0.899366
N67	N	0.742819	0.401581	0.901534
C68	C	0.707657	0.454902	0.875912
O69	O	0.677762	0.500236	0.905580
C70	C	0.707648	0.454920	0.821310
C71	C	0.742802	0.401622	0.792328
C72	C	0.813110	0.295009	0.788965
C73	C	0.813104	0.295034	0.734365
C74	C	0.777946	0.348352	0.708747
C75	C	0.742795	0.401647	0.737728
C76	C	0.672485	0.508237	0.795688
C77	C	0.672478	0.508250	0.741082
C78	C	0.707632	0.454952	0.712100
C79	C	0.707631	0.454990	0.657510
N80	N	0.742779	0.401689	0.628526
C81	C	0.777937	0.348370	0.654144
C82	C	0.707679	0.454859	0.990582
C83	C	0.707690	0.454845	1.045184
C84	C	0.777999	0.348222	1.041817
C85	C	0.777990	0.348241	0.987215
C86	C	0.742827	0.401558	0.961597
C87	C	0.777920	0.348426	0.539481
C88	C	0.777912	0.348458	0.484876
C89	C	0.707602	0.455077	0.488247
C90	C	0.707612	0.455049	0.542847
C91	C	0.742773	0.401717	0.568462
O92	O	0.677758	0.500331	0.630659
O93	O	0.807823	0.303037	0.624470
H94	H	0.540625	0.498657	0.328365
N95	N	0.182689	0.563159	0.370753
N96	N	0.133936	0.563179	0.370758
H97	H	0.113018	0.601720	0.396055
H98	H	0.678991	0.498457	0.566445
N99	N	0.636569	0.562688	0.825270
N100	N	0.588503	0.557149	0.818973
H101	H	0.563135	0.595612	0.839863
N102	N	0.636553	0.562703	0.714914
N103	N	0.588488	0.557151	0.720826
H104	H	0.563116	0.595608	0.702345
H105	H	0.699148	0.916294	0.308276
N106	N	0.813831	0.293953	0.565650
N107	N	0.797156	0.240804	0.594428
H108	H	0.822518	0.202336	0.612911
N109	N	0.435572	0.509742	0.335655
N110	N	0.439211	0.586661	0.334536
H111	H	0.418305	0.625203	0.359841
N112	N	0.813829	0.294011	0.455281
N113	N	0.845215	0.246410	0.478165
H114	H	0.870581	0.207957	0.457266
H115	H	0.841729	0.251631	0.710773
N116	N	0.303323	0.240439	0.158826
N117	N	0.335505	0.187356	0.175594
H118	H	0.356428	0.148828	0.150295
N119	N	0.671698	0.509540	0.462065
N120	N	0.671702	0.509546	0.413312
H121	H	0.646343	0.548008	0.394819
N122	N	0.849027	0.240531	0.815119
N123	N	0.880404	0.192954	0.789226
H124	H	0.905776	0.154478	0.807694
H125	H	0.806614	0.304839	0.963621
H126	H	0.806625	0.304805	1.062685
H127	H	0.287753	0.552078	0.363481
N128	N	0.793543	0.877429	0.214020
N129	N	0.822215	0.916188	0.185404
H130	H	0.847323	0.884695	0.160315
N131	N	0.043577	0.509788	0.335711
N132	N	0.017676	0.557463	0.367021
H133	H	0.036137	0.595995	0.392324
N134	N	0.671785	0.509305	1.074776
N135	N	0.640400	0.556907	1.051890
H136	H	0.615039	0.595369	1.072788
N137	N	-0.059945	0.293906	0.193930
N138	N	-0.108698	0.293906	0.193939
H139	H	-0.127172	0.255380	0.168645
H140	H	0.679045	0.498281	0.969728
H141	H	-0.060789	0.498721	0.328455
H142	H	0.198252	0.251516	0.166093
N143	N	0.050425	0.293875	0.193910
N144	N	0.027548	0.246211	0.162603
H145	H	0.048455	0.207675	0.137295
H146	H	0.447711	0.304901	0.201118
H147	H	0.546778	0.304899	0.201104
