data_functionalizedCrystal
_audit_creation_method	'MofGen! by Chris Wilmer'
_symmetry_space_group_name_H-M	'P1'
_symmetry_Int_Tables_number	1
_symmetry_cell_setting	triclinic
loop_
_symmetry_equiv_pos_as_xyz
  x,y,z
_cell_length_a	17.077402
_cell_length_b	13.897449
_cell_length_c	17.077395
_cell_angle_alpha	90.019917
_cell_angle_beta	89.971476
_cell_angle_gamma	89.977189
loop_
_atom_site_label
_atom_site_type_symbol
_atom_site_fract_x
_atom_site_fract_y
_atom_site_fract_z
Zn1	Zn	-0.312519	-1.474609	-0.443925
Zn2	Zn	0.020814	-1.141276	-0.110592
Zn3	Zn	0.354147	-0.807943	0.222742
Zn4	Zn	-0.443791	-1.474506	-0.312656
Zn5	Zn	-0.110458	-1.141173	0.020677
Zn6	Zn	0.222875	-0.807839	0.354011
Zn7	Zn	-0.312543	-1.313316	-0.312663
Zn8	Zn	0.020790	-0.979982	0.020670
Zn9	Zn	0.354123	-0.646649	0.354003
Zn10	Zn	-0.443747	-1.313266	-0.443870
Zn11	Zn	-0.110414	-0.979932	-0.110537
Zn12	Zn	0.222920	-0.646599	0.222797
O13	O	-0.378150	-1.393924	-0.378279
O14	O	-0.044817	-1.060591	-0.044945
O15	O	0.288516	-0.727257	0.288388
O16	O	-0.329941	-1.609577	-0.426532
O17	O	0.003392	-1.276244	-0.093199
O18	O	0.336725	-0.942911	0.240135
O19	O	-0.426410	-1.453102	-0.202810
O20	O	-0.093076	-1.119768	0.130523
O21	O	0.240257	-0.786435	0.463857
O22	O	-0.202693	-1.334776	-0.330102
O23	O	0.130640	-1.001443	0.003232
O24	O	0.463973	-0.668109	0.336565
O25	O	-0.426386	-1.609501	-0.330089
O26	O	-0.093053	-1.276168	0.003244
O27	O	0.240280	-0.942835	0.336577
O28	O	-0.202676	-1.453278	-0.426539
O29	O	0.130658	-1.119944	-0.093206
O30	O	0.463991	-0.786611	0.240128
O31	O	-0.329982	-1.334676	-0.202815
O32	O	0.003351	-1.001342	0.130518
O33	O	0.336684	-0.668009	0.463851
O34	O	-0.329939	-1.178327	-0.330048
O35	O	0.003394	-0.844994	0.003285
O36	O	0.336727	-0.511661	0.336619
O37	O	-0.426311	-1.334690	-0.553724
O38	O	-0.092977	-1.001357	-0.220391
O39	O	0.240356	-0.668024	0.112942
O40	O	-0.426334	-1.178291	-0.426445
O41	O	-0.093001	-0.844957	-0.093112
O42	O	0.240333	-0.511624	0.240222
O43	O	-0.329898	-1.453229	-0.553765
O44	O	0.003435	-1.119896	-0.220431
O45	O	0.336768	-0.786562	0.112902
O46	O	-0.553632	-1.453053	-0.330036
O47	O	-0.220299	-1.119720	0.003297
O48	O	0.113034	-0.786386	0.336631
O49	O	-0.553600	-1.334590	-0.426438
O50	O	-0.220266	-1.001257	-0.093105
O51	O	0.113067	-0.667924	0.240229
C52	C	-0.378135	-1.143310	-0.378242
C53	C	-0.044802	-0.809976	-0.044908
C54	C	0.288532	-0.476643	0.288425
C55	C	-0.378147	-1.036096	-0.378245
C56	C	-0.044814	-0.702763	-0.044911
C57	C	0.288519	-0.369429	0.288422
C58	C	-0.378149	-0.949026	-0.378254
C59	C	-0.044816	-0.615693	-0.044921
C60	C	0.288518	-0.282359	0.288412
C61	C	-0.378153	-0.839794	-0.378274
C62	C	-0.044820	-0.506460	-0.044941
C63	C	0.288514	-0.173127	0.288393
C64	C	-0.582098	-1.393831	-0.378247
C65	C	-0.248765	-1.060498	-0.044914
C66	C	0.084568	-0.727164	0.288419
C67	C	-0.669348	-1.393879	-0.378260
C68	C	-0.336015	-1.060546	-0.044927
C69	C	-0.002681	-0.727213	0.288407
C70	C	-0.710329	-1.455626	-0.328117
C71	C	-0.376996	-1.122293	0.005216
C72	C	-0.043662	-0.788959	0.338549
C73	C	-0.792309	-1.455673	-0.328137
C74	C	-0.458976	-1.122340	0.005196
C75	C	-0.125643	-0.789006	0.338529
C76	C	-0.833307	-1.393968	-0.378297
C77	C	-0.499974	-1.060635	-0.044964
C78	C	-0.166641	-0.727302	0.288370
C79	C	-0.792321	-1.332219	-0.428445
C80	C	-0.458987	-0.998886	-0.095112
C81	C	-0.125654	-0.665552	0.238222
C82	C	-0.710342	-1.332177	-0.428428
C83	C	-0.377008	-0.998844	-0.095095
C84	C	-0.043675	-0.665511	0.238238
C85	C	-0.963191	-1.332308	-0.428475
C86	C	-0.629857	-0.998975	-0.095142
C87	C	-0.296524	-0.665642	0.238192
C88	C	-1.045175	-1.332348	-0.428491
C89	C	-0.711842	-0.999015	-0.095157
C90	C	-0.378508	-0.665682	0.238176
C91	C	-1.045158	-1.455804	-0.328184
C92	C	-0.711825	-1.122471	0.005149
C93	C	-0.378492	-0.789137	0.338483
C94	C	-0.963179	-1.455763	-0.328167
C95	C	-0.629846	-1.122429	0.005166
C96	C	-0.296513	-0.789096	0.338499
C97	C	-0.922198	-1.394012	-0.378315
C98	C	-0.588865	-1.060678	-0.044981
C99	C	-0.255532	-0.727345	0.288352
C100	C	-0.173406	-1.394044	-0.378327
C101	C	0.159927	-1.060711	-0.044994
C102	C	0.493261	-0.727377	0.288339
C103	C	-0.086156	-1.394095	-0.378348
C104	C	0.247177	-1.060762	-0.045015
C105	C	0.580511	-0.727428	0.288319
C106	C	-0.378097	-1.393966	-0.583023
C107	C	-0.044764	-1.060632	-0.249690
C108	C	0.288570	-0.727299	0.083644
C109	C	-0.378074	-1.393983	-0.670273
C110	C	-0.044741	-1.060650	-0.336940
C111	C	0.288592	-0.727317	-0.003606
C112	C	-0.378163	-0.645517	-0.378307
C113	C	-0.044830	-0.312184	-0.044973
C114	C	0.288504	0.021150	0.288360
C115	C	-0.378160	-0.752731	-0.378294
C116	C	-0.044827	-0.419398	-0.044961
C117	C	0.288506	-0.086064	0.288373
C118	C	-0.327766	-1.455813	-1.046110
C119	C	0.005568	-1.122480	-0.712777
C120	C	0.338901	-0.789147	-0.379443
C121	C	-0.327793	-1.455794	-0.964129
C122	C	0.005540	-1.122460	-0.630796
C123	C	0.338873	-0.789127	-0.297463
C124	C	-0.378000	-1.394063	-0.923122
C125	C	-0.044667	-1.060729	-0.589789
C126	C	0.288667	-0.727396	-0.256455
C127	C	-0.428188	-1.332354	-0.964099
C128	C	-0.094855	-0.999021	-0.630766
C129	C	0.238479	-0.665688	-0.297433
C130	C	-0.428164	-1.332380	-1.046078
C131	C	-0.094831	-0.999046	-0.712745
C132	C	0.238503	-0.665713	-0.379412
C133	C	-0.428233	-1.332304	-0.793229
C134	C	-0.094900	-0.998971	-0.459896
C135	C	0.238433	-0.665638	-0.126562
C136	C	-0.428257	-1.332278	-0.711244
C137	C	-0.094923	-0.998944	-0.377911
C138	C	0.238410	-0.665611	-0.044578
C139	C	-0.327863	-1.455718	-0.711280
C140	C	0.005471	-1.122385	-0.377947
C141	C	0.338804	-0.789052	-0.044614
C142	C	-0.327839	-1.455744	-0.793259
C143	C	0.005495	-1.122410	-0.459926
C144	C	0.338828	-0.789077	-0.126593
C145	C	-0.378026	-1.394034	-0.834231
C146	C	-0.044693	-1.060700	-0.500898
C147	C	0.288641	-0.727367	-0.167564
C148	C	-0.378147	-1.393938	-0.174331
C149	C	-0.044813	-1.060605	0.159003
C150	C	0.288520	-0.727272	0.492336
C151	C	-0.377948	-1.394108	-0.087081
C152	C	-0.044615	-1.060774	0.246252
C153	C	0.288718	-0.727441	0.579585
H154	H	-0.825673	-1.505953	-0.287306
H155	H	-0.492339	-1.172619	0.046028
H156	H	-0.159006	-0.839286	0.379361
O157	O	-0.836544	-1.265664	-0.482541
O158	O	-0.503211	-0.932331	-0.149207
O159	O	-0.169878	-0.598998	0.184126
H160	H	-0.820767	-1.282154	-0.544161
H161	H	-0.487434	-0.948820	-0.210828
H162	H	-0.154101	-0.615487	0.122506
O163	O	-0.918955	-1.522317	-0.274072
O164	O	-0.585622	-1.188983	0.059262
O165	O	-0.252288	-0.855650	0.392595
H166	H	-0.961223	-1.565271	-0.239210
H167	H	-0.627889	-1.231938	0.094123
H168	H	-0.294556	-0.898604	0.427456
H169	H	-0.469028	-1.282133	-1.079436
H170	H	-0.135695	-0.948800	-0.746103
H171	H	0.197638	-0.615467	-0.412770
H172	H	-1.078529	-1.506087	-0.287355
H173	H	-0.745196	-1.172754	0.045979
H174	H	-0.411862	-0.839420	0.379312
O175	O	-0.273671	-1.522353	-0.919939
O176	O	0.059662	-1.189020	-0.586605
O177	O	0.392996	-0.855686	-0.253272
H178	H	-0.212056	-1.505848	-0.935676
H179	H	0.121278	-1.172515	-0.602343
H180	H	0.454611	-0.839182	-0.269010
O181	O	-0.273602	-1.522376	-1.090343
O182	O	0.059731	-1.189043	-0.757010
O183	O	0.393064	-0.855709	-0.423677
H184	H	-0.308722	-1.571435	-1.127702
H185	H	0.024612	-1.238102	-0.794369
H186	H	0.357945	-0.904768	-0.461036
H187	H	-1.078553	-1.282121	-0.469350
H188	H	-0.745220	-0.948788	-0.136016
H189	H	-0.411887	-0.615454	0.197317
H190	H	-0.929826	-1.282027	-0.469313
H191	H	-0.596493	-0.948694	-0.135980
H192	H	-0.263160	-0.615361	0.197354
H193	H	-0.286953	-1.506006	-0.826645
H194	H	0.046381	-1.172673	-0.493312
H195	H	0.379714	-0.839340	-0.159979
H196	H	-0.676954	-1.505869	-0.287269
H197	H	-0.343621	-1.172536	0.046065
H198	H	-0.010287	-0.839202	0.379398
H199	H	-0.676976	-1.281898	-0.469261
H200	H	-0.343642	-0.948565	-0.135927
H201	H	-0.010309	-0.615232	0.197406
O202	O	-0.273736	-1.522287	-0.667097
O203	O	0.059598	-1.188954	-0.333764
O204	O	0.392931	-0.855621	-0.000430
H205	H	-0.282193	-1.511912	-0.603203
H206	H	0.051140	-1.178578	-0.269869
H207	H	0.384473	-0.845245	0.063464
H208	H	-0.469121	-1.281989	-0.677858
H209	H	-0.135788	-0.948655	-0.344525
H210	H	0.197545	-0.615322	-0.011192
H211	H	-0.469071	-1.282096	-0.930705
H212	H	-0.135737	-0.948763	-0.597371
H213	H	0.197596	-0.615430	-0.264038
H214	H	-0.469104	-1.282056	-0.826586
H215	H	-0.135770	-0.948723	-0.493252
H216	H	0.197563	-0.615390	-0.159919
