data_functionalizedCrystal
_audit_creation_method	'MofGen! by Chris Wilmer'
_symmetry_space_group_name_H-M	'P1'
_symmetry_Int_Tables_number	1
_symmetry_cell_setting	triclinic
loop_
_symmetry_equiv_pos_as_xyz
  x,y,z
_cell_length_a	27.731994
_cell_length_b	10.489716
_cell_length_c	9.565339
_cell_angle_alpha	89.998275
_cell_angle_beta	90.002574
_cell_angle_gamma	83.574835
loop_
_atom_site_label
_atom_site_type_symbol
_atom_site_fract_x
_atom_site_fract_y
_atom_site_fract_z
O1	O	0.641895	0.151419	-0.116067
O2	O	0.501243	0.174566	-0.116114
O3	O	0.574776	-0.022750	-0.116073
O4	O	0.568362	0.348735	-0.116108
O5	O	0.574770	-0.022738	0.116447
O6	O	0.501237	0.174578	0.116406
O7	O	0.641889	0.151431	0.116453
Zn8	Zn	0.571562	0.163007	0.153347
Zn9	Zn	0.571570	0.162991	-0.153008
O10	O	0.568356	0.348747	0.116412
C11	C	0.483230	0.174097	0.000140
C12	C	0.429564	0.172666	0.000123
C13	C	0.096786	0.163660	0.126924
C14	C	-0.104906	0.158221	0.126941
O15	O	-0.130986	0.157468	0.234734
N16	N	-0.130122	0.157539	0.000194
C17	C	-0.104911	0.158208	-0.126566
O18	O	-0.130986	0.157490	-0.234371
C19	C	0.096780	0.163638	-0.126580
C20	C	0.121993	0.164334	0.000174
C21	C	0.121999	0.164354	0.253669
C22	C	0.172419	0.165721	0.253663
C23	C	0.197626	0.166394	0.126913
C24	C	0.172413	0.165700	0.000169
C25	C	0.121991	0.164298	-0.253339
C26	C	0.172417	0.165653	-0.253331
C27	C	0.197630	0.166348	-0.126576
C28	C	0.248039	0.167740	-0.126586
N29	N	0.273255	0.168422	0.000160
C30	C	0.248048	0.167749	0.126910
C31	C	-0.210803	0.155360	-0.126549
C32	C	-0.261225	0.154004	-0.126545
C33	C	-0.261217	0.154015	0.126961
C34	C	-0.210793	0.155379	0.126956
C35	C	-0.185587	0.156042	0.000198
C36	C	0.353933	0.170621	0.126889
C37	C	0.404357	0.171993	0.126873
C38	C	0.404344	0.171976	-0.126633
C39	C	0.353925	0.170610	-0.126617
C40	C	0.328721	0.169929	0.000155
O41	O	0.274151	0.168479	-0.234323
O42	O	0.274133	0.168439	0.234699
C43	C	0.046366	0.162294	0.126930
C44	C	0.021154	0.161600	0.000185
C45	C	0.046361	0.162273	-0.126565
C46	C	-0.029269	0.160245	0.000188
C47	C	-0.054476	0.159572	0.126938
C48	C	-0.029260	0.160254	0.253685
C49	C	0.021159	0.161621	0.253679
C50	C	0.021145	0.161591	-0.253311
C51	C	-0.029275	0.160225	-0.253296
C52	C	-0.054482	0.159552	-0.126546
C53	C	0.574291	-0.070255	0.000188
C54	C	0.572849	-0.211821	0.000191
C55	C	0.659902	0.151900	0.000196
C56	C	0.713568	0.153331	0.000204
N57	N	0.571560	0.163017	0.362427
C58	C	0.568841	0.396252	0.000148
C59	C	0.570283	0.537819	0.000136
C60	C	0.525190	0.637498	0.000140
C61	C	0.549021	0.713807	-0.114485
C62	C	0.549026	0.713754	0.114762
C63	C	0.594095	0.612264	-0.114584
C64	C	0.594093	0.612205	0.114766
C65	C	0.617957	0.688464	0.000113
N66	N	0.571575	0.162970	-0.362087
C67	C	0.537544	0.254239	0.453611
C68	C	0.581306	0.278104	0.546802
C69	C	0.527817	0.139162	0.546791
C70	C	0.615345	0.186939	0.453566
C71	C	0.561827	0.047947	0.453547
C72	C	0.605621	0.071762	0.546696
H73	H	0.041683	0.162187	0.356896
C74	C	0.472203	0.606508	-0.000039
N75	N	0.432295	0.583164	-0.000182
H76	H	0.041663	0.162135	-0.356529
H77	H	0.613108	0.567836	0.211697
C78	C	0.550671	-0.083446	0.398156
N79	N	0.542264	-0.182410	0.356431
H80	H	0.529989	0.758154	-0.211412
H81	H	0.490817	0.119005	0.587745
H82	H	0.634426	-0.005407	0.587310
C83	C	0.592439	0.409538	0.602155
N84	N	0.600820	0.508536	0.643847
C85	C	0.432089	0.172752	0.266319
N86	N	0.452974	0.173319	0.371347
H87	H	0.529979	0.758061	0.211680
H88	H	0.101481	0.163803	0.356889
H89	H	0.613120	0.568122	-0.211612
C90	C	0.670985	0.719113	0.000057
N91	N	0.710925	0.742198	0.000009
H92	H	0.333418	0.170077	0.230119
C93	C	-0.057003	0.159455	-0.392746
N94	N	-0.077886	0.158861	-0.497778
H95	H	0.192943	0.166279	0.356880
C96	C	0.665341	0.214334	0.398482
N97	N	0.702996	0.234975	0.356989
C98	C	-0.183064	0.156132	0.266395
N99	N	-0.162180	0.156693	0.371427
C100	C	-0.288954	0.153250	-0.265986
N101	N	-0.309837	0.152672	-0.371017
H102	H	-0.281749	0.153470	0.230166
C103	C	0.094269	0.163513	-0.392782
N104	N	0.073390	0.162912	-0.497819
C105	C	-0.183082	0.156087	-0.266003
N106	N	-0.162205	0.156638	-0.371041
H107	H	0.192937	0.166193	-0.356556
C108	C	0.432082	0.172707	-0.266051
N109	N	0.452976	0.173247	-0.371062
C110	C	0.326189	0.169860	-0.266053
N111	N	0.305303	0.169284	-0.371079
H112	H	-0.049793	0.159712	0.356889
C113	C	0.498720	0.358549	0.398378
N114	N	0.469480	0.437118	0.356773
