data_functionalizedCrystal
_audit_creation_method	'MofGen! by Chris Wilmer'
_symmetry_space_group_name_H-M	'P1'
_symmetry_Int_Tables_number	1
_symmetry_cell_setting	triclinic
loop_
_symmetry_equiv_pos_as_xyz
  x,y,z
_cell_length_a	12.759401
_cell_length_b	13.897448
_cell_length_c	12.759393
_cell_angle_alpha	89.967728
_cell_angle_beta	89.979062
_cell_angle_gamma	90.019217
loop_
_atom_site_label
_atom_site_type_symbol
_atom_site_fract_x
_atom_site_fract_y
_atom_site_fract_z
Zn1	Zn	1.606245	-0.383929	-0.594007
Zn2	Zn	1.606126	-0.545255	-0.418322
Zn3	Zn	1.430543	-0.383980	-0.418342
Zn4	Zn	1.430526	-0.545188	-0.593959
O5	O	1.518360	-0.464588	-0.506158
O6	O	1.753250	-0.405336	-0.570714
O7	O	1.582793	-0.523912	-0.271303
O8	O	1.453907	-0.248992	-0.441673
O9	O	1.753163	-0.523862	-0.441638
O10	O	1.582994	-0.248954	-0.570734
O11	O	1.453793	-0.405423	-0.271318
O12	O	1.283520	-0.405358	-0.441627
O13	O	1.453878	-0.523747	-0.740987
O14	O	1.283507	-0.523797	-0.570652
O15	O	1.582977	-0.405271	-0.741022
O16	O	1.582776	-0.680228	-0.441592
O17	O	1.453763	-0.680179	-0.570632
C18	C	1.245393	-0.464576	-0.506137
C19	C	1.128616	-0.464595	-0.506153
C20	C	1.073775	-0.526359	-0.573230
C21	C	0.964051	-0.526363	-0.573251
C22	C	0.964019	-0.402834	-0.439108
C23	C	1.073741	-0.402827	-0.439093
C24	C	0.814153	-0.560974	-0.697110
C25	C	0.759308	-0.622754	-0.764179
C26	C	0.794901	-0.716889	-0.780123
C27	C	0.885336	-0.749263	-0.728984
C28	C	0.940175	-0.687488	-0.661908
C29	C	0.904584	-0.593340	-0.645984
C30	C	1.223641	-0.368225	-0.315232
C31	C	1.278482	-0.306455	-0.248150
C32	C	1.242892	-0.212318	-0.232195
C33	C	1.152453	-0.179948	-0.283315
C34	C	1.097612	-0.241718	-0.350397
C35	C	1.133209	-0.335854	-0.366354
C36	C	1.518283	-0.715203	-0.506127
C37	C	1.518347	-0.822416	-0.506149
C38	C	1.518457	-1.018711	-0.506215
C39	C	1.518393	-0.909479	-0.506182
C40	C	1.792393	-0.464601	-0.506179
C41	C	1.909170	-0.464606	-0.506188
C42	C	1.518439	-0.464496	-0.780191
C43	C	1.518472	-0.464456	-0.896968
C44	C	1.518466	-0.212995	-0.506211
C45	C	1.518511	-0.105781	-0.506234
C46	C	1.585699	-0.402756	-0.951850
C47	C	1.585717	-0.402714	-1.061574
C48	C	1.451278	-0.526082	-1.061524
C49	C	1.451255	-0.526118	-0.951802
C50	C	1.623336	-0.288908	-1.211556
C51	C	1.690579	-0.227216	-1.266442
C52	C	1.793093	-0.212425	-1.230851
C53	C	1.828384	-0.259340	-1.140376
C54	C	1.761146	-0.321039	-1.085496
C55	C	1.658618	-0.335812	-1.121085
C56	C	1.413648	-0.639925	-0.801818
C57	C	1.346414	-0.701630	-0.746936
C58	C	1.243899	-0.716431	-0.782525
C59	C	1.208612	-0.669533	-0.873003
C60	C	1.275845	-0.607828	-0.927885
C61	C	1.378359	-0.593026	-0.892289
C62	C	1.518342	-0.464611	-0.233190
C63	C	1.518512	-0.464379	-0.116414
H64	H	1.123462	-0.103300	-0.270307
F65	F	1.099504	-0.685287	-0.910885
H66	H	1.539859	-0.300938	-1.240538
F67	F	1.379749	-0.591706	-1.119892
F68	F	1.301254	-0.146583	-0.160785
F69	F	1.261451	-0.468457	-0.332107
F70	F	1.238286	-0.557914	-1.024181
H71	H	1.847843	-0.162193	-1.275547
H72	H	1.661836	-0.189018	-1.340107
F73	F	0.905607	-0.337102	-0.367741
F74	F	1.657235	-0.337128	-0.893495
H75	H	1.911865	-0.247298	-1.111410
F76	F	1.172352	-0.782121	-0.724122
H77	H	1.375158	-0.739825	-0.673271
H78	H	1.118451	-0.576652	-0.627837
H79	H	1.497122	-0.627871	-0.772827
F80	F	1.798699	-0.370968	-0.989213
F81	F	1.036415	-0.721938	-0.607482
H82	H	0.914301	-0.825921	-0.741963
H83	H	1.352122	-0.332819	-0.206525
F84	F	0.663066	-0.588295	-0.818606
F85	F	0.776276	-0.460779	-0.680161
F86	F	1.001353	-0.207266	-0.404800
F87	F	0.736531	-0.782636	-0.851508
