data_functionalizedCrystal
_audit_creation_method	'MofGen! by Chris Wilmer'
_symmetry_space_group_name_H-M	'P1'
_symmetry_Int_Tables_number	1
_symmetry_cell_setting	triclinic
loop_
_symmetry_equiv_pos_as_xyz
  x,y,z
_cell_length_a	10.540510
_cell_length_b	14.044220
_cell_length_c	12.503572
_cell_angle_alpha	86.156832
_cell_angle_beta	86.446316
_cell_angle_gamma	91.148906
loop_
_atom_site_label
_atom_site_type_symbol
_atom_site_fract_x
_atom_site_fract_y
_atom_site_fract_z
O1	O	1.706116	-0.128108	-0.089331
O2	O	1.337974	-0.140733	-0.089332
O3	O	1.516518	0.003600	-0.089321
O4	O	1.527572	-0.272442	-0.089342
O5	O	1.503093	-0.007273	0.089321
O6	O	1.324549	-0.151606	0.089309
O7	O	1.692690	-0.138981	0.089310
Cu8	Cu	1.507394	-0.146287	0.105621
Cu9	Cu	1.523271	-0.133428	-0.105643
O10	O	1.514146	-0.283315	0.089299
C11	C	1.283863	-0.145229	-0.000011
C12	C	1.142628	-0.142414	-0.000011
C13	C	0.935341	-0.242657	-0.000429
C14	C	1.082210	-0.245684	-0.000020
C15	C	1.084857	-0.095759	0.102003
C16	C	0.937861	-0.093492	0.102082
C17	C	0.953104	-0.078977	-0.101066
C18	C	1.100042	-0.083794	-0.102408
C19	C	1.504968	0.033510	0.000000
C20	C	1.490538	0.138833	0.000002
C21	C	1.746802	-0.134486	-0.000012
C22	C	1.888037	-0.137300	-0.000019
C23	C	1.525697	-0.313225	-0.000024
C24	C	1.540127	-0.418547	-0.000032
N25	N	1.496236	-0.155330	0.254213
C26	C	1.464158	0.331671	-0.000014
C27	C	1.566501	0.388620	-0.000017
C28	C	1.551823	0.495922	-0.000025
C29	C	1.478834	0.224359	-0.000005
N30	N	1.534438	-0.124377	-0.254234
C31	C	1.479823	-0.168641	0.473327
C32	C	1.550847	-0.111069	0.526659
C33	C	1.541715	-0.118476	0.648581
C34	C	1.488953	-0.161236	0.351393
H35	H	0.902954	-0.278437	-0.073590
F36	F	1.695435	0.347017	-0.000008
H37	H	0.895566	-0.134261	0.178334
F38	F	1.133219	-0.293928	-0.095604
H39	H	0.890412	-0.287086	0.072310
H40	H	1.365524	0.363501	-0.000017
H41	H	1.618513	-0.056219	0.480750
F42	F	0.909415	-0.115408	-0.202132
H43	H	1.412163	-0.223489	0.519230
H44	H	0.906708	-0.016535	0.106722
F45	F	1.117645	-0.305891	0.095720
H46	H	1.124275	-0.019964	0.105803
H47	H	1.138220	-0.117664	-0.177878
F48	F	1.122576	-0.149784	0.201230
F49	F	1.154809	0.015247	-0.110451
F50	F	0.913976	0.022422	-0.101958
