data_functionalizedCrystal
_audit_creation_method	'MofGen! by Chris Wilmer'
_symmetry_space_group_name_H-M	'P1'
_symmetry_Int_Tables_number	1
_symmetry_cell_setting	triclinic
loop_
_symmetry_equiv_pos_as_xyz
  x,y,z
_cell_length_a	17.038272
_cell_length_b	15.995350
_cell_length_c	16.098662
_cell_angle_alpha	86.950232
_cell_angle_beta	87.129654
_cell_angle_gamma	87.301965
loop_
_atom_site_label
_atom_site_type_symbol
_atom_site_fract_x
_atom_site_fract_y
_atom_site_fract_z
O1	O	-1.040528	-0.185367	0.069144
O2	O	-0.707194	0.147967	0.402477
O3	O	-0.373861	0.481300	0.735811
O4	O	-0.812897	-0.182481	0.069169
O5	O	-0.479564	0.150853	0.402502
O6	O	-0.146231	0.484186	0.735835
O7	O	-0.932935	-0.062479	0.069155
O8	O	-0.599602	0.270854	0.402488
O9	O	-0.266268	0.604188	0.735822
O10	O	-0.920490	-0.305368	0.069158
O11	O	-0.587157	0.027965	0.402491
O12	O	-0.253823	0.361299	0.735824
O13	O	-0.926682	-0.055377	-0.069355
O14	O	-0.593349	0.277957	0.263978
O15	O	-0.260015	0.611290	0.597312
O16	O	-0.806644	-0.175378	-0.069341
O17	O	-0.473311	0.157955	0.263992
O18	O	-0.139978	0.491288	0.597325
O19	O	-1.034275	-0.178264	-0.069366
O20	O	-0.700941	0.155069	0.263967
O21	O	-0.367608	0.488402	0.597301
Zn22	Zn	-0.919467	-0.175694	-0.091345
Zn23	Zn	-0.586133	0.157640	0.241988
Zn24	Zn	-0.252800	0.490973	0.575322
Zn25	Zn	-0.927705	-0.185051	0.091148
Zn26	Zn	-0.594372	0.148282	0.424481
Zn27	Zn	-0.261039	0.481615	0.757814
O28	O	-0.914237	-0.298266	-0.069352
O29	O	-0.580904	0.035068	0.263981
O30	O	-0.247570	0.368401	0.597314
C31	C	-0.780642	-0.176304	-0.000083
C32	C	-0.447309	0.157030	0.333250
C33	C	-0.113975	0.490363	0.666583
C34	C	-0.693848	-0.168470	-0.000074
C35	C	-0.360514	0.164863	0.333260
C36	C	-0.027181	0.498197	0.666593
C37	C	-1.066530	-0.184441	-0.000112
C38	C	-0.733197	0.148892	0.333221
C39	C	-0.399863	0.482225	0.666554
C40	C	-1.153325	-0.192275	-0.000116
C41	C	-0.819991	0.141058	0.333217
C42	C	-0.486658	0.474391	0.666550
C43	C	-0.929294	-0.027697	-0.000099
C44	C	-0.595961	0.305637	0.333235
C45	C	-0.262627	0.638970	0.666568
C46	C	-0.927752	0.065363	-0.000094
C47	C	-0.594418	0.398697	0.333240
C48	C	-0.261085	0.732030	0.666573
C49	C	-0.643751	-0.240398	-0.000073
C50	C	-0.310418	0.092935	0.333260
C51	C	0.022915	0.426268	0.666593
C52	C	-0.562198	-0.233032	-0.000085
C53	C	-0.228865	0.100302	0.333248
C54	C	0.104468	0.433635	0.666582
C55	C	-0.530744	-0.153736	-0.000091
C56	C	-0.197410	0.179597	0.333242
C57	C	0.135923	0.512931	0.666576
C58	C	-0.580847	-0.081802	-0.000094
C59	C	-0.247513	0.251532	0.333240
C60	C	0.085820	0.584865	0.666573
C61	C	-0.662398	-0.089169	-0.000088
C62	C	-0.329064	0.244164	0.333245
C63	C	0.004269	0.577498	0.666579
C64	C	-0.284979	-0.127709	-0.000113
C65	C	0.048355	0.205625	0.333220
C66	C	0.381688	0.538958	0.666553
C67	C	-0.203421	-0.120347	-0.000117
C68	C	0.129912	0.212987	0.333217
C69	C	0.463245	0.546320	0.666550
C70	C	-0.184778	-0.271577	-0.000110
C71	C	0.148555	0.061756	0.333224
C72	C	0.481888	0.395089	0.666557
C73	C	-0.266332	-0.278938	-0.000099
C74	C	0.067001	0.054395	0.333234
C75	C	0.400335	0.387729	0.666568
C76	C	-0.316427	-0.207004	-0.000106
C77	C	0.016906	0.126330	0.333227
C78	C	0.350239	0.459663	0.666561
C79	C	-0.447384	-0.146204	-0.000100
C80	C	-0.114051	0.187129	0.333233
C81	C	0.219283	0.520463	0.666567
C82	C	-0.399785	-0.214536	-0.000103
C83	C	-0.066452	0.118797	0.333231
C84	C	0.266881	0.452131	0.666564
C85	C	-0.917878	-0.333048	-0.000097
C86	C	-0.584545	0.000285	0.333236
C87	C	-0.251211	0.333618	0.666570
C88	C	-0.919421	-0.426109	-0.000096
C89	C	-0.586087	-0.092775	0.333237
C90	C	-0.252754	0.240558	0.666570
N91	N	-0.913850	-0.169307	-0.215892
N92	N	-0.580517	0.164026	0.117442
N93	N	-0.247183	0.497360	0.450775
C94	C	-0.922212	0.403506	-0.000096
C95	C	-0.588879	0.736839	0.333238
C96	C	-0.255546	1.070172	0.666571
C97	C	-0.836738	0.362145	0.000224
C98	C	-0.503404	0.695478	0.333557
C99	C	-0.170071	1.028811	0.666891
C100	C	-0.838266	0.265361	-0.000088
C101	C	-0.504933	0.598694	0.333245
C102	C	-0.171600	0.932027	0.666578
C103	C	-0.924960	0.235749	-0.000094
C104	C	-0.591627	0.569083	0.333239
C105	C	-0.258293	0.902416	0.666572
C106	C	-0.963555	0.277879	-0.079193
C107	C	-0.630222	0.611212	0.254140
C108	C	-0.296889	0.944546	0.587473
C109	C	-0.961405	0.374671	-0.079259
C110	C	-0.628071	0.708005	0.254074
C111	C	-0.294738	1.041338	0.587407
C112	C	-0.970282	0.366827	0.078252
C113	C	-0.636948	0.700160	0.411586
C114	C	-0.303615	1.033493	0.744919
C115	C	-0.970308	0.269829	0.079298
C116	C	-0.636975	0.603163	0.412631
C117	C	-0.303642	0.936496	0.745964
C118	C	-0.926517	0.140941	-0.000096
C119	C	-0.593184	0.474274	0.333237
C120	C	-0.259851	0.807608	0.666570
C121	C	-0.920657	0.498314	-0.000100
C122	C	-0.587324	0.831648	0.333234
C123	C	-0.253991	1.164981	0.666567
C124	C	-0.887878	-0.139492	-0.740699
C125	C	-0.554544	0.193842	-0.407366
C126	C	-0.221211	0.527175	-0.074033
C127	C	-0.891802	-0.143992	-0.653512
C128	C	-0.558468	0.189342	-0.320179
C129	C	-0.225135	0.522675	0.013155
C130	C	-0.941173	-0.200436	-0.609933
C131	C	-0.607839	0.132897	-0.276600
C132	C	-0.274506	0.466231	0.056734
C133	C	-0.986629	-0.252378	-0.653546
C134	C	-0.653296	0.080955	-0.320212
C135	C	-0.319962	0.414289	0.013121
C136	C	-0.982708	-0.247874	-0.740731
C137	C	-0.649375	0.085460	-0.407398
C138	C	-0.316042	0.418793	-0.074064
C139	C	-0.955386	-0.216745	-0.346690
C140	C	-0.622052	0.116589	-0.013356
C141	C	-0.288719	0.449922	0.319977
C142	C	-0.959301	-0.221247	-0.259498
C143	C	-0.625967	0.112086	0.073835
C144	C	-0.292634	0.445420	0.407169
C145	C	-0.864474	-0.112859	-0.259471
C146	C	-0.531141	0.220475	0.073863
C147	C	-0.197807	0.553808	0.407196
C148	C	-0.860555	-0.108363	-0.346658
C149	C	-0.527221	0.224971	-0.013325
C150	C	-0.193888	0.558304	0.320009
C151	C	-0.906014	-0.160302	-0.390263
C152	C	-0.572680	0.173032	-0.056930
C153	C	-0.239347	0.506365	0.276404
C154	C	-0.945183	-0.205039	-0.520814
C155	C	-0.611850	0.128294	-0.187480
C156	C	-0.278517	0.461628	0.145853
C157	C	-0.902007	-0.155694	-0.479380
C158	C	-0.568674	0.177639	-0.146047
C159	C	-0.235340	0.510973	0.187286
N160	N	-0.933328	-0.191432	0.215694
N161	N	-0.599995	0.141902	0.549028
N162	N	-0.266662	0.475235	0.882361
H163	H	-0.669354	-0.304970	-0.000068
H164	H	-0.336021	0.028364	0.333265
H165	H	-0.002688	0.361697	0.666599
Br166	Br	-0.778372	0.227724	-0.094741
Br167	Br	-0.445039	0.561058	0.238592
Br168	Br	-0.111706	0.894391	0.571926
H169	H	-0.847670	-0.093533	-0.776175
H170	H	-0.514337	0.239801	-0.442842
H171	H	-0.181003	0.573134	-0.109508
H172	H	-1.019720	-0.290168	-0.776234
H173	H	-0.686387	0.043165	-0.442901
H174	H	-0.353053	0.376498	-0.109568
Br175	Br	-0.802785	-0.042373	-0.200289
Br176	Br	-0.469451	0.290961	0.133045
Br177	Br	-0.136118	0.624294	0.466378
H178	H	-0.854793	-0.101694	-0.618012
H179	H	-0.521459	0.231639	-0.284678
H180	H	-0.188126	0.564973	0.048655
Br181	Br	-0.494212	-0.330654	-0.000082
Br182	Br	-0.160879	0.002679	0.333251
Br183	Br	0.172454	0.336013	0.666585
H184	H	-0.927988	0.398195	-0.138383
H185	H	-0.594655	0.731528	0.194951
H186	H	-0.261321	1.064861	0.528284
H187	H	-1.026832	-0.298333	-0.618057
H188	H	-0.693498	0.035001	-0.284723
H189	H	-0.360165	0.368334	0.048610
H190	H	-0.999503	-0.267217	-0.224018
H191	H	-0.666170	0.066116	0.109315
H192	H	-0.332836	0.399450	0.442648
Br193	Br	-0.116788	-0.369197	-0.000101
Br194	Br	0.216545	-0.035864	0.333232
Br195	Br	0.549878	0.297470	0.666566
Br196	Br	-0.835009	-0.079089	-0.538525
Br197	Br	-0.501676	0.254244	-0.205191
Br198	Br	-0.168343	0.587578	0.128142
H199	H	-0.291936	-0.343509	-0.000085
H200	H	0.041397	-0.010176	0.333249
H201	H	0.374731	0.323157	0.666582
Br202	Br	-1.012185	-0.281641	-0.461664
Br203	Br	-0.678852	0.051692	-0.128330
Br204	Br	-0.345518	0.385026	0.205003
H205	H	-0.177815	-0.055771	-0.000120
H206	H	0.155519	0.277562	0.333213
H207	H	0.488852	0.610895	0.666546
Br208	Br	-1.065742	0.421281	-0.085259
Br209	Br	-0.732408	0.754615	0.248075
Br210	Br	-0.399075	1.087948	0.581408
Br211	Br	-0.730387	0.008453	-0.000096
Br212	Br	-0.397054	0.341786	0.333238
Br213	Br	-0.063721	0.675119	0.666571
Br214	Br	-1.076040	0.236306	0.087259
Br215	Br	-0.742707	0.569639	0.420592
Br216	Br	-0.409374	0.902973	0.753926
H217	H	-0.805129	0.380202	0.056948
H218	H	-0.471796	0.713535	0.390281
H219	H	-0.138463	1.046868	0.723614
Br220	Br	-0.352955	-0.030082	-0.000125
Br221	Br	-0.019622	0.303251	0.333208
Br222	Br	0.313712	0.636584	0.666541
Br223	Br	-0.910317	0.239086	-0.177298
Br224	Br	-0.576983	0.572420	0.156035
Br225	Br	-0.243650	0.905753	0.489368
Br226	Br	-0.538159	0.025816	-0.000110
Br227	Br	-0.204826	0.359149	0.333224
Br228	Br	0.128507	0.692483	0.666557
H229	H	-0.992401	-0.259038	-0.382182
H230	H	-0.659068	0.074296	-0.048849
H231	H	-0.325734	0.407629	0.284484
Br232	Br	-0.793541	-0.031763	-0.405795
Br233	Br	-0.460208	0.301570	-0.072462
Br234	Br	-0.126875	0.634903	0.260871
H235	H	-0.425399	-0.279098	-0.000103
H236	H	-0.092066	0.054235	0.333231
H237	H	0.241268	0.387569	0.666564
Br238	Br	-1.075376	0.412234	0.079133
Br239	Br	-0.742042	0.745567	0.412466
Br240	Br	-0.408709	1.078901	0.745800
H241	H	-0.800174	0.387054	-0.056177
H242	H	-0.466841	0.720387	0.277157
H243	H	-0.133508	1.053721	0.610490
H244	H	-0.807681	0.236392	0.056613
H245	H	-0.474348	0.569725	0.389947
H246	H	-0.141014	0.903059	0.723280
Br247	Br	-1.069492	0.247031	-0.084108
Br248	Br	-0.736159	0.580364	0.249225
Br249	Br	-0.402826	0.913697	0.582558
Br250	Br	-0.928200	0.399243	0.178178
Br251	Br	-0.594866	0.732576	0.511511
Br252	Br	-0.261533	1.065910	0.844844
Br253	Br	-0.923760	0.222502	0.176844
Br254	Br	-0.590426	0.555835	0.510178
Br255	Br	-0.257093	0.889168	0.843511
H256	H	-0.421764	-0.081640	-0.000128
H257	H	-0.088430	0.251694	0.333205
H258	H	0.244903	0.585027	0.666538
