data_functionalizedCrystal
_audit_creation_method	'MofGen! by Chris Wilmer'
_symmetry_space_group_name_H-M	'P1'
_symmetry_Int_Tables_number	1
_symmetry_cell_setting	triclinic
loop_
_symmetry_equiv_pos_as_xyz
  x,y,z
_cell_length_a	14.048226
_cell_length_b	14.971486
_cell_length_c	14.971486
_cell_angle_alpha	83.614129
_cell_angle_beta	89.993360
_cell_angle_gamma	89.995336
loop_
_atom_site_label
_atom_site_type_symbol
_atom_site_fract_x
_atom_site_fract_y
_atom_site_fract_z
O1	O	-0.079121	1.186947	0.116565
O2	O	-0.079132	0.926547	0.130523
O3	O	-0.079120	1.063726	-0.006656
O4	O	-0.079134	1.049768	0.253744
O5	O	0.079202	1.063710	-0.006664
O6	O	0.079189	0.926530	0.130515
O7	O	0.079200	1.186930	0.116557
Zn8	Zn	0.104331	1.056728	0.123535
Zn9	Zn	-0.104264	1.056750	0.123545
O10	O	0.079188	1.049751	0.253736
C11	C	0.000027	0.893214	0.129895
C12	C	0.000023	0.793917	0.128024
C13	C	0.000041	1.063094	-0.039985
C14	C	0.000040	1.061223	-0.139282
N15	N	0.246692	1.056719	0.123527
N16	N	-0.246624	1.056765	0.123546
C17	C	0.296516	1.117482	0.062809
C18	C	0.396173	1.117488	0.062808
C19	C	0.446006	1.056735	0.123531
C20	C	0.396175	0.995966	0.184252
C21	C	0.296519	0.995957	0.184247
C22	C	0.603889	0.995992	0.184258
C23	C	0.703552	0.996003	0.184264
C24	C	0.703543	1.117523	0.062819
C25	C	0.603888	1.117514	0.062815
C26	C	0.554064	1.056746	0.123537
C27	C	0.000038	1.220263	0.117185
C28	C	0.000036	1.319561	0.119056
C29	C	0.000037	1.376786	0.038466
C30	C	0.000040	1.470085	0.040229
C31	C	0.000036	1.506158	0.122583
C32	C	0.000037	1.448925	0.203178
C33	C	0.000041	1.355627	0.201414
C34	C	0.000028	1.643387	0.206849
C35	C	0.000022	1.736692	0.208614
C36	C	0.000027	1.757845	0.045664
C37	C	0.000031	1.664548	0.043900
C38	C	0.000031	1.607322	0.124496
C39	C	0.000044	1.141812	-0.196507
C40	C	0.000034	1.140049	-0.289807
C41	C	0.000027	1.057696	-0.325879
C42	C	0.000020	0.977101	-0.268646
C43	C	0.000023	0.978865	-0.175349
C44	C	0.000017	0.973430	-0.463109
C45	C	0.000016	0.971665	-0.556413
C46	C	0.000028	1.134614	-0.577567
C47	C	0.000030	1.136378	-0.484269
C48	C	0.000025	1.055782	-0.427043
C49	C	0.000025	1.050384	0.287065
C50	C	0.000020	1.052254	0.386362
H51	H	0.255949	1.166957	0.013365
Br52	Br	0.000037	1.327840	-0.073305
Br53	Br	0.000011	0.859899	-0.605368
H54	H	0.000029	1.200238	-0.624165
Br55	Br	0.000052	1.547746	-0.069147
Br56	Br	0.463794	1.199949	-0.019599
Br57	Br	0.000037	1.248144	-0.435314
Br58	Br	0.000010	1.615593	-0.067866
H59	H	0.000025	1.804444	-0.019960
Br60	Br	0.228901	0.913484	0.266648
H61	H	0.000010	0.907800	-0.416517
H62	H	0.563326	0.946506	0.233702
Br63	Br	0.000021	1.785647	0.320380
H64	H	0.563314	1.166987	0.013375
Br65	Br	0.000038	1.565723	0.316230
Br66	Br	0.463801	0.913508	0.266657
H67	H	0.000039	1.478302	0.270232
H68	H	0.000043	1.309035	0.267038
H69	H	0.000055	1.208874	-0.167145
Br70	Br	0.771164	1.199996	-0.019584
H71	H	0.000039	1.205673	-0.336396
H72	H	0.000009	0.910047	-0.298024
Br73	Br	0.000010	0.869489	-0.097684
Br74	Br	0.771175	0.913549	0.266677
