data_functionalizedCrystal
_audit_creation_method	'MofGen! by Chris Wilmer'
_symmetry_space_group_name_H-M	'P1'
_symmetry_Int_Tables_number	1
_symmetry_cell_setting	triclinic
loop_
_symmetry_equiv_pos_as_xyz
  x,y,z
_cell_length_a	16.109301
_cell_length_b	16.109304
_cell_length_c	18.366186
_cell_angle_alpha	89.996570
_cell_angle_beta	89.993316
_cell_angle_gamma	83.462111
loop_
_atom_site_label
_atom_site_type_symbol
_atom_site_fract_x
_atom_site_fract_y
_atom_site_fract_z
O1	O	1.103138	0.106869	-0.060505
O2	O	0.861076	0.120168	-0.060515
O3	O	0.988756	-0.007512	-0.060510
O4	O	0.975459	0.234550	-0.060510
O5	O	0.988734	-0.007518	0.060589
O6	O	0.861055	0.120162	0.060585
O7	O	1.103116	0.106863	0.060594
Zn8	Zn	0.982082	0.113511	0.079817
Zn9	Zn	0.982111	0.113520	-0.079737
O10	O	0.975437	0.234543	0.060590
C11	C	0.830091	0.119626	0.000034
C12	C	0.737795	0.118011	0.000030
C13	C	0.988206	-0.038490	0.000038
C14	C	0.986590	-0.130785	0.000033
C15	C	0.428798	0.188494	0.000043
C16	C	0.515518	0.190020	0.000038
C17	C	0.535390	0.038531	0.000028
C18	C	0.448671	0.037007	0.000028
C19	C	0.395377	0.111991	0.000038
C20	C	0.568816	0.115040	0.000035
C21	C	0.662842	0.116694	0.000030
C22	C	0.301345	0.110338	0.000041
C23	C	0.982868	-0.343119	-0.065976
C24	C	0.981342	-0.429839	-0.065975
C25	C	0.981322	-0.429843	0.066054
C26	C	0.982842	-0.343124	0.066053
C27	C	0.983620	-0.299765	0.000036
C28	C	0.980573	-0.473204	0.000038
C29	C	0.978919	-0.567230	0.000039
C30	C	0.985273	-0.205733	0.000034
C31	C	1.134102	0.107405	0.000044
C32	C	1.226398	0.109020	0.000043
C33	C	0.975987	0.265521	0.000040
C34	C	0.977603	0.357816	0.000040
N35	N	0.982069	0.113505	0.188708
N36	N	0.982131	0.113519	-0.188628
C37	C	1.038624	0.056996	0.226810
C38	C	1.038629	0.056992	0.303038
C39	C	0.982087	0.113512	0.341161
C40	C	0.925522	0.170025	0.303049
C41	C	0.925512	0.170022	0.226822
C42	C	0.971175	0.189234	0.461921
C43	C	0.971190	0.189239	0.538146
C44	C	0.982111	0.113523	0.576268
C45	C	0.993035	0.037798	0.538156
C46	C	0.993025	0.037795	0.461930
C47	C	0.982090	0.113522	0.423815
C48	C	1.038675	0.057005	0.697025
C49	C	1.038674	0.057000	0.773255
C50	C	0.925571	0.170040	0.773264
C51	C	0.925567	0.170038	0.697036
C52	C	0.982124	0.113521	0.658922
H53	H	0.385408	0.249551	0.000051
H54	H	0.980728	-0.465135	-0.119728
O55	O	0.547844	0.264408	0.000077
C56	C	0.482207	0.330258	0.000067
H57	H	0.423303	0.306961	0.022993
H58	H	0.469933	0.353395	-0.058028
C59	C	0.579006	0.431021	0.019404
C60	C	0.506661	0.402408	0.047569
H61	H	0.594090	0.475528	0.048703
H62	H	0.623228	0.386657	0.019409
H63	H	0.568768	0.450295	-0.029008
H64	H	0.516902	0.383125	0.095976
H65	H	0.462441	0.446771	0.047574
O66	O	0.587279	-0.034228	0.000057
C67	C	0.670987	-0.016479	0.000043
H68	H	0.674289	0.048821	0.022973
H69	H	0.696077	-0.019631	-0.058053
C70	C	0.720018	-0.161248	0.019371
C71	C	0.724073	-0.081047	0.047539
H72	H	0.752765	-0.201078	0.048666
H73	H	0.663622	-0.173207	0.019378
H74	H	0.740925	-0.163863	-0.029042
H75	H	0.703157	-0.078431	0.095948
H76	H	0.780466	-0.069090	0.047542
O77	O	1.003495	-0.035746	0.575206
C78	C	0.932941	-0.042475	0.619323
H79	H	0.876961	-0.001043	0.596362
H80	H	0.946114	-0.021642	0.677092
C81	C	0.982455	-0.184824	0.648695
C82	C	0.913697	-0.133942	0.620490
H83	H	0.970586	-0.241245	0.649418
H84	H	1.029991	-0.180290	0.618975
H85	H	0.993426	-0.167453	0.696833
H86	H	0.902735	-0.151307	0.572350
H87	H	0.866159	-0.138481	0.650203
H88	H	0.879483	0.216043	0.334092
O89	O	0.416339	-0.037386	0.000056
C90	C	0.481971	-0.103242	0.000035
H91	H	0.540873	-0.079958	0.022965
H92	H	0.494257	-0.126361	-0.058064
C93	C	0.385157	-0.204001	0.019355
C94	C	0.457500	-0.175405	0.047524
H95	H	0.370062	-0.248517	0.048646
H96	H	0.340939	-0.159634	0.019367
H97	H	0.395405	-0.223261	-0.029060
H98	H	0.447249	-0.156137	0.095935
H99	H	0.501716	-0.219771	0.047522
O100	O	0.983750	-0.300972	-0.130080
C101	C	1.056574	-0.260219	-0.134034
H102	H	1.106424	-0.292950	-0.096587
H103	H	1.041451	-0.192367	-0.116290
C104	C	1.027989	-0.222945	-0.258902
C105	C	1.089217	-0.263150	-0.212914
H106	H	1.048123	-0.224748	-0.307559
H107	H	0.978923	-0.250398	-0.256238
H108	H	1.015391	-0.166405	-0.244106
H109	H	1.101805	-0.319690	-0.227704
H110	H	1.138285	-0.235706	-0.215582
O111	O	1.093635	0.002021	0.660108
C112	C	1.143563	-0.047850	0.710089
H113	H	1.109483	-0.048799	0.764432
H114	H	1.205315	-0.020837	0.718184
C115	C	1.202580	-0.136371	0.613598
C116	C	1.160719	-0.137542	0.680340
H117	H	1.213166	-0.191697	0.595247
H118	H	1.168945	-0.102770	0.579924
H119	H	1.254035	-0.113856	0.620353
H120	H	1.109260	-0.160048	0.673583
H121	H	1.194345	-0.171149	0.714012
H122	H	1.084725	0.010979	0.804278
O123	O	0.983539	-0.300871	0.130115
C124	C	0.985065	-0.215036	0.115955
H125	H	0.958975	-0.199745	0.059221
H126	H	1.052156	-0.199166	0.119084
C127	C	0.963390	-0.182146	0.242583
C128	C	0.931339	-0.163365	0.172903
H129	H	0.930252	-0.150273	0.277712
H130	H	0.962365	-0.239976	0.252124
H131	H	1.019298	-0.168921	0.245180
H132	H	0.875436	-0.176600	0.170304
H133	H	0.932353	-0.105536	0.163363
H134	H	0.980691	-0.465157	0.119803
O135	O	1.093586	0.002011	0.189900
C136	C	1.143518	-0.047853	0.239883
H137	H	1.109440	-0.048797	0.294227
H138	H	1.205269	-0.020836	0.247973
C139	C	1.202534	-0.136382	0.143396
C140	C	1.160676	-0.137548	0.210141
H141	H	1.213122	-0.191709	0.125050
H142	H	1.168897	-0.102786	0.109721
H143	H	1.253988	-0.113863	0.150147
H144	H	1.109218	-0.160056	0.203388
H145	H	1.194305	-0.171150	0.243814
H146	H	1.084684	0.010974	0.334067
H147	H	1.001918	-0.023862	0.430902
H148	H	0.879530	0.216056	0.804303
H149	H	0.879518	0.216056	0.666011
O150	O	0.960534	0.262867	0.575051
C151	C	0.950901	0.329696	0.525060
H152	H	0.928060	0.306689	0.470731
H153	H	1.013513	0.355020	0.516936
C154	C	0.914707	0.427823	0.621546
C155	C	0.886647	0.399567	0.554820
H156	H	0.875075	0.470925	0.639903
H157	H	0.921200	0.382800	0.655226
H158	H	0.966884	0.448920	0.614766
H159	H	0.834476	0.378460	0.561602
H160	H	0.880144	0.444588	0.521141
O161	O	0.960686	0.262739	0.424809
C162	C	1.031261	0.269467	0.380717
H163	H	1.064482	0.204455	0.369302
H164	H	1.075749	0.308374	0.410079
C165	C	0.962577	0.391930	0.322326
C166	C	1.003376	0.312080	0.308302
H167	H	0.945378	0.418219	0.277658
H168	H	0.915031	0.387400	0.352033
H169	H	0.999657	0.424342	0.346796
H170	H	0.966293	0.279667	0.283840
H171	H	1.050916	0.316606	0.278588
O172	O	0.870544	0.225002	0.189919
C173	C	0.820621	0.274872	0.239908
H174	H	0.854708	0.275823	0.294240
H175	H	0.758871	0.247855	0.248025
C176	C	0.761588	0.363389	0.143423
C177	C	0.803458	0.364563	0.210153
H178	H	0.750997	0.418714	0.125068
H179	H	0.795220	0.329789	0.109743
H180	H	0.710135	0.340871	0.150196
H181	H	0.854914	0.387070	0.203377
H182	H	0.769834	0.398169	0.243831
