data_functionalizedCrystal
_audit_creation_method	'MofGen! by Chris Wilmer'
_symmetry_space_group_name_H-M	'P1'
_symmetry_Int_Tables_number	1
_symmetry_cell_setting	triclinic
loop_
_symmetry_equiv_pos_as_xyz
  x,y,z
_cell_length_a	17.639617
_cell_length_b	13.897447
_cell_length_c	17.640968
_cell_angle_alpha	101.230028
_cell_angle_beta	109.666032
_cell_angle_gamma	101.205126
loop_
_atom_site_label
_atom_site_type_symbol
_atom_site_fract_x
_atom_site_fract_y
_atom_site_fract_z
Zn1	Zn	1.354381	0.127585	0.721243
Zn2	Zn	1.326420	-0.074626	0.583402
Zn3	Zn	1.188673	0.045840	0.555515
Zn4	Zn	1.216510	-0.074532	0.693284
O5	O	1.271496	0.006067	0.638361
O6	O	1.466019	0.134933	0.726329
O7	O	1.284797	-0.092896	0.464358
O8	O	1.210707	0.191685	0.577528
O9	O	1.445476	-0.013631	0.625058
O10	O	1.332452	0.251743	0.699288
O11	O	1.183595	-0.004390	0.443870
O12	O	1.077019	-0.004299	0.550418
O13	O	1.258150	-0.013471	0.812337
O14	O	1.097470	-0.092736	0.651637
O15	O	1.359443	0.135024	0.832878
O16	O	1.311788	-0.209615	0.597948
O17	O	1.231037	-0.209546	0.678679
C18	C	1.057336	-0.057378	0.594968
C19	C	0.965722	-0.084538	0.576424
C20	C	0.717937	0.212475	0.779441
C21	C	0.631848	0.186926	0.762000
C22	C	0.610448	0.032386	0.656394
C23	C	0.696538	0.057920	0.673830
C24	C	0.750276	0.147967	0.735353
C25	C	0.728877	-0.006588	0.629742
C26	C	0.814958	0.018947	0.647173
C27	C	0.868701	0.108991	0.708692
C28	C	0.836357	0.173502	0.752785
C29	C	0.675136	-0.096630	0.568214
C30	C	0.707475	-0.161139	0.524127
C31	C	0.793559	-0.135608	0.541562
C32	C	0.847302	-0.045564	0.603081
C33	C	0.825902	-0.200119	0.497469
C34	C	0.911984	-0.174584	0.514901
C35	C	0.933383	-0.020029	0.620512
C36	C	1.271425	-0.244573	0.638328
C37	C	1.271476	-0.351768	0.638357
C38	C	1.271519	-0.438820	0.638384
C39	C	1.271582	-0.548029	0.638417
C40	C	1.486492	0.069759	0.681923
C41	C	1.578111	0.096901	0.700487
C42	C	1.315020	0.069906	0.853351
C43	C	1.333568	0.097110	0.944968
C44	C	1.271593	0.257697	0.638416
C45	C	1.271635	0.364927	0.638440
C46	C	1.228188	-0.057440	0.424216
C47	C	1.209801	-0.084325	0.332633
C48	C	1.130909	-0.199983	1.192815
C49	C	1.148355	-0.174403	1.278906
C50	C	1.253823	-0.019789	1.300283
C51	C	1.236383	-0.045354	1.214192
C52	C	1.174926	-0.135452	1.160464
C53	C	1.280400	0.019177	1.181841
C54	C	1.262965	-0.006388	1.095758
C55	C	1.201512	-0.096485	1.042025
C56	C	1.157491	-0.161018	1.074381
C57	C	1.341861	0.109272	1.235570
C58	C	1.385878	0.173802	1.203220
C59	C	1.368439	0.148241	1.117134
C60	C	1.306986	0.058145	1.063402
C61	C	1.412460	0.212774	1.084778
C62	C	1.395025	0.187209	0.998695
C63	C	1.289551	0.032579	0.977318
H64	H	0.663710	-0.234452	0.474031
O65	O	0.558133	-0.055065	0.596685
C66	C	0.416029	-0.162871	0.522989
C67	C	0.475181	-0.063811	0.590642
H68	H	0.348948	-0.169962	0.518069
H69	H	0.435798	-0.231429	0.540770
H70	H	0.419549	-0.160520	0.459996
H71	H	0.471690	-0.066061	0.653661
H72	H	0.455394	0.004705	0.572790
O73	O	1.071308	-0.287544	1.140541
C74	C	1.040520	-0.449949	1.041103
C75	C	1.108087	-0.350831	1.100260
H76	H	1.070234	-0.501153	1.008532
H77	H	0.989284	-0.430453	0.992025
H78	H	1.012025	-0.491653	1.079008
H79	H	1.136648	-0.309079	1.062425
H80	H	1.159271	-0.370395	1.149339
H81	H	1.112506	-0.226959	1.305241
O82	O	0.985528	0.067396	0.680379
C83	C	1.040341	0.163391	0.826009
C84	C	0.981239	0.064354	0.758293
H85	H	1.036907	0.160956	0.889021
H86	H	1.020517	0.231953	0.808298
H87	H	1.107405	0.170553	0.830845
H88	H	0.914158	0.057093	0.753422
H89	H	1.001134	-0.004158	0.776032
H90	H	1.107427	-0.234368	1.030629
O91	O	0.952307	0.133931	0.725556
C92	C	1.071594	0.256872	0.729588
C93	C	0.976902	0.228743	0.710441
H94	H	1.091512	0.333539	0.717392
H95	H	1.085521	0.195363	0.687493
H96	H	1.107864	0.262566	0.798120
H97	H	0.940569	0.223062	0.641929
H98	H	0.963040	0.290262	0.752591
O99	O	1.358932	0.134067	1.319219
C100	C	1.462979	0.169448	1.458755
C101	C	1.443756	0.141341	1.364047
H102	H	1.531562	0.175358	1.495027
H103	H	1.421016	0.107855	1.472710
H104	H	1.450596	0.246017	1.478644
H105	H	1.456145	0.064798	1.344092
H106	H	1.485713	0.202996	1.350145
O107	O	0.773585	-0.287566	0.437756
C108	C	0.631477	-0.395357	0.364052
C109	C	0.690633	-0.296305	0.431712
H110	H	0.564395	-0.402444	0.359130
H111	H	0.651238	-0.463922	0.381825
H112	H	0.635000	-0.393000	0.301060
H113	H	0.687139	-0.298563	0.494728
H114	H	0.670853	-0.227783	0.413867
O115	O	0.770025	0.300001	0.839215
C116	C	0.782189	0.450559	0.942186
C117	C	0.723103	0.351489	0.874502
H118	H	0.744279	0.492205	0.970747
H119	H	0.814832	0.501880	0.912620
H120	H	0.831217	0.430894	0.993342
H121	H	0.674029	0.371060	0.823325
H122	H	0.690523	0.300197	0.904129
O123	O	0.600350	0.249442	0.804853
C124	C	0.525751	0.266461	0.896517
C125	C	0.561366	0.195548	0.848016
H126	H	0.494239	0.222922	0.931440
H127	H	0.477754	0.293774	0.850618
H128	H	0.578953	0.335220	0.943447
H129	H	0.508220	0.126741	0.801086
H130	H	0.609385	0.168317	0.893965
H131	H	0.605040	-0.117402	0.554006
H132	H	1.303863	0.053567	1.344040
H133	H	0.938314	-0.227114	0.479000
H134	H	1.430867	0.239757	0.972355
O135	O	1.229958	-0.055051	0.925168
C136	C	1.184562	-0.238826	0.890708
C137	C	1.252107	-0.139668	0.949821
H138	H	1.202436	-0.307263	0.910629
H139	H	1.179683	-0.246085	0.823623
H140	H	1.121522	-0.236528	0.894144
H141	H	1.315183	-0.141897	0.946458
H142	H	1.256912	-0.132446	1.016879
O143	O	0.888445	0.261028	0.812559
C144	C	0.900609	0.411586	0.915529
C145	C	0.841524	0.312516	0.847846
H146	H	0.862699	0.453232	0.944090
H147	H	0.933252	0.462906	0.885963
H148	H	0.949637	0.391921	0.966686
H149	H	0.792449	0.332087	0.796668
H150	H	0.808943	0.261223	0.877473
O151	O	1.184420	-0.121364	0.958372
C152	C	1.080394	-0.156622	0.818844
C153	C	1.099632	-0.128468	0.913555
H154	H	1.011848	-0.162353	0.782584
H155	H	1.092672	-0.233238	0.798866
H156	H	1.122447	-0.095039	0.804972
H157	H	1.057593	-0.189984	0.927498
H158	H	1.087379	-0.051823	0.933485
O159	O	1.445463	0.261400	1.255426
C160	C	1.476290	0.423767	1.354929
C161	C	1.408725	0.324620	1.295825
H162	H	1.446616	0.474899	1.387620
H163	H	1.504747	0.465577	1.317052
H164	H	1.527547	0.404188	1.403916
H165	H	1.357418	0.344109	1.246826
H166	H	1.380334	0.282837	1.333758
O167	O	1.472109	0.300272	1.137086
C168	C	1.545760	0.408142	1.279186
C169	C	1.478172	0.309033	1.220041
H170	H	1.550696	0.415247	1.346271
H171	H	1.527900	0.476662	1.259414
H172	H	1.608767	0.405854	1.275661
H173	H	1.415140	0.311221	1.223537
H174	H	1.496103	0.240556	1.239832
