data_functionalizedCrystal
_audit_creation_method	'MofGen! by Chris Wilmer'
_symmetry_space_group_name_H-M	'P1'
_symmetry_Int_Tables_number	1
_symmetry_cell_setting	triclinic
loop_
_symmetry_equiv_pos_as_xyz
  x,y,z
_cell_length_a	12.759394
_cell_length_b	12.759395
_cell_length_c	12.759387
_cell_angle_alpha	90.020674
_cell_angle_beta	89.968340
_cell_angle_gamma	89.987686
loop_
_atom_site_label
_atom_site_type_symbol
_atom_site_fract_x
_atom_site_fract_y
_atom_site_fract_z
Zn1	Zn	-0.418282	-1.606268	-0.594003
Zn2	Zn	-0.593999	-1.606158	-0.418321
Zn3	Zn	-0.418327	-1.430566	-0.418340
Zn4	Zn	-0.593912	-1.430558	-0.593960
O5	O	-0.506130	-1.518387	-0.506156
O6	O	-0.441609	-1.753274	-0.570709
O7	O	-0.570751	-1.582823	-0.271302
O8	O	-0.271300	-1.453922	-0.441668
O9	O	-0.570707	-1.753194	-0.441636
O10	O	-0.271267	-1.583010	-0.570727
O11	O	-0.441685	-1.453816	-0.271316
O12	O	-0.441601	-1.283544	-0.441626
O13	O	-0.570559	-1.453909	-0.740987
O14	O	-0.570602	-1.283538	-0.570653
O15	O	-0.441524	-1.583002	-0.741019
O16	O	-0.741008	-1.582815	-0.441594
O17	O	-0.740944	-1.453802	-0.570635
C18	C	-0.506098	-1.245420	-0.506137
C19	C	-0.506109	-1.128643	-0.506154
C20	C	-0.371896	-1.128708	-0.640775
C21	C	-0.304800	-1.073879	-0.708093
C22	C	-0.304814	-0.964158	-0.708103
C23	C	-0.371929	-0.909262	-0.640787
C24	C	-0.439025	-0.964091	-0.573469
C25	C	-0.439006	-1.073815	-0.573468
C26	C	-0.573232	-0.964026	-0.438845
C27	C	-0.573224	-1.073747	-0.438838
C28	C	-0.640347	-0.909130	-0.371528
C29	C	-0.707450	-0.963959	-0.304214
C30	C	-0.707434	-1.073687	-0.304207
C31	C	-0.640320	-1.128576	-0.371520
C32	C	-0.779097	-1.518324	-0.506131
C33	C	-0.895874	-1.518393	-0.506155
C34	C	-0.895887	-1.652835	-0.371885
C35	C	-0.950755	-1.720083	-0.304763
C36	C	-1.060476	-1.720145	-0.304791
C37	C	-1.115333	-1.652953	-0.371952
C38	C	-1.060465	-1.585705	-0.439074
C39	C	-0.950741	-1.585648	-0.439036
C40	C	-1.060452	-1.451270	-0.573348
C41	C	-0.950731	-1.451202	-0.573315
C42	C	-1.115309	-1.384079	-0.640508
C43	C	-1.060441	-1.316823	-0.707627
C44	C	-0.950713	-1.316764	-0.707595
C45	C	-0.895863	-1.383954	-0.640438
C46	C	-0.232096	-1.518479	-0.506205
C47	C	-0.115320	-1.518518	-0.506225
C48	C	-0.506027	-1.518467	-0.780190
C49	C	-0.505983	-1.518500	-0.896966
C50	C	-0.506152	-0.792421	-0.506170
C51	C	-0.506136	-0.909197	-0.506162
C52	C	-0.371628	-1.652934	-0.897020
C53	C	-0.304435	-1.720166	-0.951907
C54	C	-0.304397	-1.720192	-1.061629
C55	C	-0.371557	-1.652976	-1.116465
C56	C	-0.438750	-1.585744	-1.061578
C57	C	-0.438783	-1.585728	-0.951854
C58	C	-0.573098	-1.451307	-1.061525
C59	C	-0.573143	-1.451285	-0.951803
C60	C	-0.640257	-1.384091	-1.116362
C61	C	-0.707457	-1.316863	-1.061474
C62	C	-0.707494	-1.316841	-0.951746
C63	C	-0.640336	-1.384053	-0.896916
C64	C	-0.506157	-1.518369	-0.233189
C65	C	-0.505904	-1.518538	-0.116412
H66	H	-0.250154	-1.118588	-0.762898
Cl67	Cl	-0.219909	-1.804695	-1.130633
H68	H	-0.640363	-1.384046	-0.807575
H69	H	-0.249753	-1.774890	-0.907247
H70	H	-0.806522	-1.383905	-0.640398
H71	H	-0.371510	-1.652994	-1.205807
Cl72	Cl	-0.881788	-1.804553	-0.220342
Cl73	Cl	-0.371686	-1.652922	-0.759083
Cl74	Cl	-1.129456	-1.804691	-0.220414
H75	H	-0.371873	-1.218049	-0.640768
Cl76	Cl	-0.757951	-1.653058	-0.372139
Cl77	Cl	-0.220458	-0.895227	-0.792725
Cl78	Cl	-0.791965	-1.232310	-0.882754
Cl79	Cl	-1.129408	-1.232371	-0.792054
H80	H	-1.204674	-1.653018	-0.371978
H81	H	-0.762128	-1.262136	-1.106131
H82	H	-0.640351	-0.819789	-0.371539
H83	H	-0.640217	-1.384113	-1.205703
Cl84	Cl	-0.371932	-0.771325	-0.640789
Cl85	Cl	-0.881746	-1.232224	-0.791988
Cl86	Cl	-0.791784	-1.142605	-0.219570
Cl87	Cl	-0.640298	-1.266513	-0.371521
H88	H	-1.204650	-1.384138	-0.640531
H89	H	-0.762085	-0.919254	-0.249406
