data_functionalizedCrystal
_audit_creation_method	'MofGen! by Chris Wilmer'
_symmetry_space_group_name_H-M	'P1'
_symmetry_Int_Tables_number	1
_symmetry_cell_setting	triclinic
loop_
_symmetry_equiv_pos_as_xyz
  x,y,z
_cell_length_a	17.077404
_cell_length_b	10.685194
_cell_length_c	17.077396
_cell_angle_alpha	85.602381
_cell_angle_beta	89.980223
_cell_angle_gamma	94.372382
loop_
_atom_site_label
_atom_site_type_symbol
_atom_site_fract_x
_atom_site_fract_y
_atom_site_fract_z
Zn1	Zn	1.176173	-0.502562	-0.419884
Zn2	Zn	1.676173	-0.002562	0.080116
Zn3	Zn	1.166051	-0.713607	-0.278555
Zn4	Zn	1.666051	-0.213607	0.221445
Zn5	Zn	1.044903	-0.502588	-0.288630
Zn6	Zn	1.544903	-0.002588	0.211370
Zn7	Zn	1.034848	-0.713514	-0.409782
Zn8	Zn	1.534848	-0.213514	0.090218
O9	O	1.105494	-0.608068	-0.349213
O10	O	1.605494	-0.108068	0.150787
O11	O	1.284676	-0.530585	-0.401148
O12	O	1.784676	-0.030585	0.098852
O13	O	1.149953	-0.685665	-0.170042
O14	O	1.649953	-0.185665	0.329958
O15	O	1.070761	-0.325988	-0.314486
O16	O	1.570761	0.174012	0.185514
O17	O	1.277239	-0.685639	-0.297314
O18	O	1.777239	-0.185639	0.202686
O19	O	1.167204	-0.325969	-0.410918
O20	O	1.667204	0.174031	0.089082
O21	O	1.060946	-0.530630	-0.177445
O22	O	1.560946	-0.030630	0.322555
O23	O	0.933724	-0.530540	-0.304690
O24	O	1.433724	-0.030540	0.195310
O25	O	1.053623	-0.685481	-0.520972
O26	O	1.553623	-0.185481	-0.020972
O27	O	0.926337	-0.685507	-0.393700
O28	O	1.426337	-0.185507	0.106300
O29	O	1.157454	-0.530495	-0.528394
O30	O	1.657454	-0.030495	-0.028394
O31	O	1.140203	-0.890191	-0.287518
O32	O	1.640203	-0.390191	0.212482
O33	O	1.043809	-0.890123	-0.383930
O34	O	1.543809	-0.390123	0.116070
C35	C	0.901549	-0.608017	-0.349193
C36	C	1.401549	-0.108017	0.150807
C37	C	0.814298	-0.608026	-0.349201
C38	C	1.314298	-0.108026	0.150799
C39	C	0.434647	-0.688940	-0.395495
C40	C	0.934647	-0.188940	0.104505
C41	C	0.516628	-0.688923	-0.395484
C42	C	1.016628	-0.188923	0.104516
C43	C	0.561446	-0.608101	-0.349224
C44	C	1.061446	-0.108101	0.150776
C45	C	0.524278	-0.527300	-0.302966
C46	C	1.024278	-0.027300	0.197034
C47	C	0.442297	-0.527324	-0.302973
C48	C	0.942297	-0.027324	0.197027
C49	C	0.695150	-0.527254	-0.302955
C50	C	1.195150	-0.027254	0.197045
C51	C	0.777136	-0.527228	-0.302948
C52	C	1.277136	-0.027228	0.197052
C53	C	0.769481	-0.688853	-0.395466
C54	C	1.269481	-0.188853	0.104534
C55	C	0.687501	-0.688877	-0.395473
C56	C	1.187501	-0.188877	0.104527
C57	C	0.650338	-0.608074	-0.349216
C58	C	1.150338	-0.108074	0.150784
C59	C	1.089837	-0.935947	-0.333552
C60	C	1.589837	-0.435947	0.166448
C61	C	1.083211	-1.076215	-0.326878
C62	C	1.583211	-0.576215	0.173122
C63	C	1.310236	-0.608120	-0.349234
C64	C	1.810236	-0.108120	0.150766
C65	C	1.397484	-0.608142	-0.349243
C66	C	1.897484	-0.108142	0.150757
C67	C	1.105546	-0.607975	-0.553962
C68	C	1.605546	-0.107975	-0.053962
C69	C	1.105568	-0.607935	-0.641214
C70	C	1.605568	-0.107935	-0.141214
C71	C	1.121233	-0.278909	-0.364953
C72	C	1.621233	0.221091	0.135047
C73	C	1.127940	-0.138641	-0.371660
C74	C	1.627940	0.361359	0.128340
C75	C	1.159635	-0.527228	-0.686070
C76	C	1.659635	-0.027228	-0.186070
C77	C	1.159646	-0.527186	-0.768052
C78	C	1.659646	-0.027186	-0.268052
C79	C	1.105594	-0.607859	-0.805177
C80	C	1.605594	-0.107859	-0.305177
C81	C	1.051521	-0.688570	-0.760314
C82	C	1.551521	-0.188570	-0.260314
C83	C	1.051507	-0.688605	-0.678334
C84	C	1.551507	-0.188605	-0.178334
C85	C	1.051557	-0.688494	-0.931188
C86	C	1.551557	-0.188494	-0.431188
C87	C	1.051572	-0.688462	-1.013174
C88	C	1.551572	-0.188462	-0.513174
C89	C	1.159696	-0.527075	-1.020907
C90	C	1.659696	-0.027075	-0.520907
C91	C	1.159681	-0.527110	-0.938926
C92	C	1.659681	-0.027110	-0.438926
C93	C	1.105610	-0.607823	-0.894069
C94	C	1.605610	-0.107823	-0.394069
C95	C	1.105492	-0.608070	-0.145265
C96	C	1.605492	-0.108070	0.354735
C97	C	1.105639	-0.607754	-0.058031
C98	C	1.605639	-0.107754	0.441969
H99	H	0.799742	-0.754643	-0.433132
H100	H	1.299742	-0.254643	0.066868
Cl101	Cl	1.016246	-1.159376	-0.259800
Cl102	Cl	1.516246	-0.659376	0.240200
Cl103	Cl	1.227594	-0.425810	-0.639407
Cl104	Cl	1.727594	0.074190	-0.139407
Cl105	Cl	1.227651	-0.425775	-0.824437
Cl106	Cl	1.727651	0.074225	-0.324437
H107	H	1.203700	-0.461426	-0.908702
H108	H	1.703700	0.038574	-0.408702
H109	H	1.203722	-0.461353	-1.057433
H110	H	1.703722	0.038647	-0.557433
Cl111	Cl	0.983611	-0.789867	-1.059845
Cl112	Cl	1.483611	-0.289867	-0.559845
Cl113	Cl	0.983579	-0.789963	-0.874798
Cl114	Cl	1.483579	-0.289963	-0.374798
H115	H	0.664895	-0.461453	-0.265289
H116	H	1.164895	0.038547	0.234711
Cl117	Cl	0.983567	-0.789984	-0.806985
Cl118	Cl	1.483567	-0.289984	-0.306985
Cl119	Cl	0.395578	-0.425751	-0.244820
Cl120	Cl	0.895578	0.074249	0.255180
Cl121	Cl	0.378313	-0.790544	-0.453659
Cl122	Cl	0.878313	-0.290544	0.046341
Cl123	Cl	0.563344	-0.790505	-0.453632
Cl124	Cl	1.063344	-0.290505	0.046368
Cl125	Cl	0.983532	-0.790067	-0.621943
Cl126	Cl	1.483532	-0.290067	-0.121943
H127	H	0.813625	-0.461404	-0.265288
H128	H	1.313625	0.038596	0.234712
Cl129	Cl	0.580619	-0.425699	-0.244807
Cl130	Cl	1.080619	0.074301	0.255193
Cl131	Cl	0.631160	-0.790476	-0.453635
Cl132	Cl	1.131160	-0.290476	0.046365
H133	H	1.171305	-1.084779	-0.415109
H134	H	1.671305	-0.584779	0.084891
