data_functionalizedCrystal
_audit_creation_method	'MofGen! by Chris Wilmer'
_symmetry_space_group_name_H-M	'P1'
_symmetry_Int_Tables_number	1
_symmetry_cell_setting	triclinic
loop_
_symmetry_equiv_pos_as_xyz
  x,y,z
_cell_length_a	19.121102
_cell_length_b	21.395361
_cell_length_c	21.395364
_cell_angle_alpha	90.006881
_cell_angle_beta	92.454632
_cell_angle_gamma	87.584819
loop_
_atom_site_label
_atom_site_type_symbol
_atom_site_fract_x
_atom_site_fract_y
_atom_site_fract_z
Zn1	Zn	1.073674	-0.290546	0.395055
Zn2	Zn	1.073580	-0.395275	0.290268
Zn3	Zn	0.956229	-0.286040	0.285828
Zn4	Zn	0.956179	-0.390809	0.390546
O5	O	1.014915	-0.340667	0.340424
O6	O	1.171945	-0.308193	0.384900
O7	O	1.057995	-0.380769	0.202001
O8	O	0.971868	-0.198962	0.300345
O9	O	1.171876	-0.385137	0.307913
O10	O	1.058155	-0.202272	0.380594
O11	O	0.971778	-0.300514	0.198738
O12	O	0.857939	-0.296183	0.295974
O13	O	0.971783	-0.377525	0.478823
O14	O	0.857902	-0.373156	0.372910
O15	O	1.058106	-0.303862	0.482135
O16	O	1.057946	-0.482358	0.303542
O17	O	0.971692	-0.479077	0.377216
C18	C	1.014823	-0.503452	0.340386
C19	C	1.014847	-0.573094	0.340393
C20	C	0.832436	-0.333697	0.333471
C21	C	0.754371	-0.330730	0.330512
C22	C	1.059800	-0.607496	0.302073
C23	C	1.059832	-0.672933	0.302089
C24	C	1.014900	-0.703964	0.340416
C25	C	0.969945	-0.669554	0.378743
C26	C	0.969918	-0.604118	0.378732
C27	C	0.951661	-0.805269	0.342923
C28	C	0.951686	-0.870703	0.342930
C29	C	1.014982	-0.905788	0.340456
C30	C	1.078255	-0.875431	0.337962
C31	C	1.078228	-0.809996	0.337950
C32	C	1.014924	-0.774917	0.340434
C33	C	1.059973	-1.011144	0.302151
C34	C	1.060007	-1.076582	0.302171
C35	C	0.970113	-1.073201	0.378822
C36	C	0.970086	-1.007765	0.378806
C37	C	1.015015	-0.976740	0.340467
C38	C	0.717695	-0.369472	0.369115
C39	C	0.644344	-0.366676	0.366337
C40	C	0.607671	-0.325140	0.324952
C41	C	0.644352	-0.286394	0.286347
C42	C	0.717701	-0.289187	0.289129
C43	C	0.386203	-0.314695	0.314556
C44	C	0.312849	-0.311906	0.311776
C45	C	0.312846	-0.392187	0.391767
C46	C	0.386197	-0.394980	0.394542
C47	C	0.422871	-0.356231	0.355940
C48	C	0.532695	-0.322283	0.322110
C49	C	0.497846	-0.359086	0.358785
C50	C	1.198107	-0.347666	0.347405
C51	C	1.276173	-0.350648	0.350379
C52	C	1.014950	-0.340698	0.503849
C53	C	1.014964	-0.340711	0.573491
C54	C	1.015028	-0.177248	0.340477
C55	C	1.015075	-0.107609	0.340500
C56	C	1.059906	-0.302361	0.607929
C57	C	1.059895	-0.302350	0.673364
C58	C	1.014950	-0.340701	0.704358
C59	C	0.970000	-0.379053	0.669912
C60	C	0.970007	-0.379058	0.604478
C61	C	1.009357	-0.396929	0.807808
C62	C	1.009355	-0.396926	0.873241
C63	C	1.014925	-0.340685	0.906178
C64	C	1.020511	-0.284447	0.873675
C65	C	1.020518	-0.284452	0.808241
C66	C	1.014937	-0.340700	0.775310
C67	C	1.059857	-0.302321	1.011569
C68	C	1.059842	-0.302309	1.077005
C69	C	0.969950	-0.379017	1.073551
C70	C	0.969962	-0.379024	1.008116
C71	C	1.014919	-0.340676	0.977129
C72	C	1.014885	-0.340656	1.177635
C73	C	1.014896	-0.340659	1.107995
H74	H	1.096385	-0.582238	0.270857
O75	O	0.753222	-0.251533	0.251563
C76	C	0.745489	-0.171589	0.171951
C77	C	0.705176	-0.214210	0.214449
H78	H	0.706661	-0.141393	0.141943
H79	H	0.779779	-0.201575	0.140396
H80	H	0.779879	-0.140213	0.202090
H81	H	0.670747	-0.245593	0.184359
H82	H	0.670929	-0.184186	0.246008
H83	H	0.933407	-0.410286	0.576438
H84	H	0.527709	-0.392901	0.392483
O85	O	0.926286	-0.416339	0.974755
C86	C	0.837093	-0.492389	0.978236
C87	C	0.886537	-0.450173	1.016094
H88	H	0.804932	-0.519745	1.011641
H89	H	0.869283	-0.526425	0.948850
H90	H	0.800423	-0.462212	0.946180
H91	H	0.923217	-0.480300	1.048184
H92	H	0.854303	-0.416133	1.045438
H93	H	1.096440	-0.700949	0.270885
H94	H	0.747549	-0.403297	0.402813
H95	H	0.416051	-0.428804	0.428240
O96	O	1.003893	-0.451604	0.904714
C97	C	0.992858	-0.563171	0.897378
C98	C	0.999024	-0.501290	0.861659
H99	H	0.988935	-0.603360	0.862584
H100	H	0.943983	-0.560369	0.926122
H101	H	1.041147	-0.571599	0.929880
H102	H	0.950772	-0.492824	0.829124
H103	H	1.047929	-0.504122	0.832955
O104	O	0.608826	-0.404381	0.403853
C105	C	0.616564	-0.484294	0.483495
C106	C	0.656874	-0.441634	0.441035
H107	H	0.655393	-0.514414	0.513577
H108	H	0.582215	-0.515734	0.453388
H109	H	0.582231	-0.454276	0.514987
H110	H	0.691245	-0.471602	0.409535
H111	H	0.691179	-0.410190	0.471179
H112	H	1.025048	-0.238651	0.900491
O113	O	0.926275	-0.699596	0.416033
C114	C	0.837085	-0.689338	0.492033
C115	C	0.886516	-0.655237	0.449840
H116	H	0.804917	-0.653488	0.519368
H117	H	0.869287	-0.721149	0.526091
H118	H	0.800422	-0.718628	0.461839
H119	H	0.923189	-0.625913	0.479984
H120	H	0.854270	-0.623463	0.415779
O121	O	0.421858	-0.276996	0.277147
C122	C	0.504744	-0.195571	0.272014
C123	C	0.464391	-0.238217	0.314455
H124	H	0.539153	-0.164217	0.302160
H125	H	0.465966	-0.165362	0.241967
H126	H	0.539024	-0.225600	0.240489
H127	H	0.430109	-0.208237	0.346018
H128	H	0.503206	-0.268430	0.344459
H129	H	0.282977	-0.423734	0.423195
O130	O	0.926347	-0.570672	0.416025
C131	C	0.916807	-0.496381	0.500204
C132	C	0.966233	-0.534235	0.458023
H133	H	0.949034	-0.466902	0.534161
H134	H	0.884711	-0.529768	0.527650
H135	H	0.880076	-0.464413	0.469992
H136	H	1.003006	-0.566205	0.488188
H137	H	0.998280	-0.500811	0.430573
O138	O	0.497032	-0.282023	0.281846
C139	C	0.414126	-0.270284	0.194174
C140	C	0.454488	-0.315951	0.239715
H141	H	0.379709	-0.297696	0.160107
H142	H	0.452898	-0.243076	0.167007
H143	H	0.379853	-0.236261	0.221727
H144	H	0.488762	-0.350012	0.212210
H145	H	0.415679	-0.343114	0.266883
O146	O	0.608696	-0.246132	0.246081
C147	C	0.525815	-0.234395	0.158390
C148	C	0.566162	-0.280061	0.203942
H149	H	0.491405	-0.261807	0.124318
H150	H	0.564596	-0.207191	0.131231
H151	H	0.491536	-0.200368	0.185934
H152	H	0.600442	-0.314126	0.176448
H153	H	0.527342	-0.307220	0.231103
H154	H	1.004634	-0.442708	0.780989
O155	O	1.103593	-0.265049	0.577927
C156	C	1.192782	-0.188994	0.588262
C157	C	1.143332	-0.231210	0.622320
H158	H	1.224934	-0.161635	0.624139
H159	H	1.160596	-0.154962	0.556414
H160	H	1.229459	-0.219173	0.559014
H161	H	1.106645	-0.201082	0.651601
H162	H	1.175562	-0.265246	0.654131
H163	H	0.282991	-0.278076	0.278080
O164	O	1.103543	-0.265008	0.981561
C165	C	1.192727	-0.188949	0.991892
C166	C	1.143278	-0.231164	1.025952
H167	H	1.224876	-0.161585	1.027767
H168	H	1.160541	-0.154921	0.960039
H169	H	1.229407	-0.219129	0.962648
H170	H	1.106588	-0.201035	1.055229
H171	H	1.175508	-0.265196	1.057767
H172	H	1.096490	-0.271118	0.701409
O173	O	1.025912	-0.229768	0.776763
C174	C	1.037009	-0.118207	0.784091
C175	C	1.030893	-0.180091	0.819817
H176	H	1.041053	-0.078029	0.818885
H177	H	0.988703	-0.109710	0.751622
H178	H	1.085854	-0.121079	0.755310
H179	H	0.982077	-0.177265	0.848632
H180	H	1.079233	-0.188566	0.852247
O181	O	1.103397	-0.264978	1.110482
C182	C	1.112895	-0.180759	1.184745
C183	C	1.063490	-0.222987	1.146858
H184	H	1.080651	-0.146807	1.214174
H185	H	1.145011	-0.153309	1.151379
H186	H	1.149609	-0.210934	1.216763
H187	H	1.026734	-0.192858	1.114837
H188	H	1.031424	-0.250441	1.180259
O189	O	0.926393	-0.416347	1.103680
C190	C	0.916883	-0.500553	1.177208
C191	C	0.966294	-0.458327	1.143118
H192	H	0.949122	-0.534495	1.209111
H193	H	0.884781	-0.528013	1.141376
H194	H	0.880157	-0.470375	1.206409
H195	H	1.003063	-0.488458	1.113917
H196	H	0.998347	-0.430863	1.178982
O197	O	1.139752	-0.780606	0.335559
C198	C	1.265292	-0.792193	0.330603
C199	C	1.195668	-0.825556	0.333320
H200	H	1.310517	-0.828520	0.328779
H201	H	1.272708	-0.761842	0.373986
H202	H	1.264185	-0.761511	0.286983
H203	H	1.196725	-0.856271	0.376912
H204	H	1.188278	-0.855869	0.289907
O205	O	1.139742	-0.909529	0.335677
C206	C	1.218436	-0.986344	0.386661
C207	C	1.148795	-0.947755	0.389334
H208	H	1.225771	-1.017269	0.430030
H209	H	1.263679	-0.953434	0.384919
H210	H	1.217390	-1.016930	0.343024
H211	H	1.149773	-0.917166	0.432966
H212	H	1.103582	-0.980700	0.391042
O213	O	0.926276	-0.416326	0.699917
C214	C	0.837147	-0.492437	0.689588
C215	C	0.886621	-0.450246	0.655529
H216	H	0.805084	-0.519881	0.653716
H217	H	0.800393	-0.462295	0.718799
H218	H	0.869379	-0.526401	0.721473
H219	H	0.854446	-0.416275	0.623613
H220	H	0.923377	-0.480426	0.626357
O221	O	1.103584	-0.981069	0.264827
C222	C	1.137712	-0.962323	0.159569
C223	C	1.088293	-0.996431	0.201767
H224	H	1.125357	-0.974721	0.108575
H225	H	1.194355	-0.977308	0.172721
H226	H	1.129977	-0.909649	0.166172
H227	H	1.095965	-1.049111	0.195185
H228	H	1.031667	-0.981395	0.188604
O229	O	1.103802	-1.109911	0.264983
C230	C	1.223330	-1.134338	0.239263
C231	C	1.173794	-1.096564	0.281409
H232	H	1.279930	-1.123571	0.252537
H233	H	1.211090	-1.121008	0.188255
H234	H	1.215639	-1.186441	0.245824
H235	H	1.181457	-1.044452	0.274903
H236	H	1.186046	-1.109947	0.332401
H237	H	0.933479	-0.979753	0.410007
O238	O	0.926491	-1.103435	0.415999
C239	C	0.886730	-1.202745	0.450024
C240	C	0.936153	-1.168581	0.407876
H241	H	0.894535	-1.255421	0.443481
H242	H	0.830082	-1.187817	0.436821
H243	H	0.899018	-1.190283	0.501012
H244	H	0.923928	-1.181026	0.356875
H245	H	0.992786	-1.183511	0.421132
H246	H	0.900165	-0.895414	0.344955
H247	H	0.900113	-0.776709	0.344940
