data_functionalizedCrystal
_audit_creation_method	'MofGen! by Chris Wilmer'
_symmetry_space_group_name_H-M	'P1'
_symmetry_Int_Tables_number	1
_symmetry_cell_setting	triclinic
loop_
_symmetry_equiv_pos_as_xyz
  x,y,z
_cell_length_a	10.489741
_cell_length_b	10.654550
_cell_length_c	9.130313
_cell_angle_alpha	90.006582
_cell_angle_beta	90.000424
_cell_angle_gamma	95.487962
loop_
_atom_site_label
_atom_site_type_symbol
_atom_site_fract_x
_atom_site_fract_y
_atom_site_fract_z
O1	O	0.179153	-1.667923	-0.121919
O2	O	0.196222	-1.302453	-0.121895
O3	O	0.002086	-1.493504	-0.121899
O4	O	0.373290	-1.476872	-0.121915
O5	O	0.002097	-1.493491	0.121700
O6	O	0.196234	-1.302440	0.121703
O7	O	0.179165	-1.667910	0.121680
Cu8	Cu	0.187700	-1.485174	0.143934
Cu9	Cu	0.187687	-1.485189	-0.144150
O10	O	0.373301	-1.476859	0.121683
C11	C	0.194975	-1.255648	-0.000093
C12	C	0.191225	-1.116203	-0.000084
C13	C	-0.045439	-1.492241	-0.000100
C14	C	-0.187067	-1.488483	-0.000103
N15	N	0.187709	-1.485172	0.346557
C16	C	-0.255148	-1.366923	-0.000106
C17	C	-0.347293	-1.424340	0.119997
C18	C	-0.347279	-1.424382	-0.120172
C19	C	-0.277346	-1.545951	0.120099
C20	C	-0.277323	-1.545976	-0.120178
C21	C	-0.369440	-1.603481	-0.000045
C22	C	0.420826	-1.478122	-0.000118
C23	C	0.562454	-1.481880	-0.000126
C24	C	0.180412	-1.714715	-0.000126
C25	C	0.184162	-1.854160	-0.000145
C26	C	0.305530	-1.036771	-0.000110
C27	C	0.301999	-0.905748	-0.000135
C28	C	0.069849	-0.933603	-0.000114
C29	C	0.073381	-1.064623	-0.000078
C30	C	0.423374	-1.088351	-0.000116
C31	C	0.537688	-1.008917	-0.000144
C32	C	0.534157	-0.877895	-0.000169
C33	C	0.416312	-0.826306	-0.000166
N34	N	0.187668	-1.485201	-0.346772
C35	C	0.265788	-1.562038	0.423214
C36	C	0.265765	-1.562056	0.576551
C37	C	0.109580	-1.408332	0.576560
C38	C	0.109598	-1.408321	0.423226
C39	C	0.343900	-1.638889	0.346545
C40	C	0.421986	-1.715760	0.423202
C41	C	0.421963	-1.715778	0.576539
C42	C	0.343853	-1.638925	0.653219
H43	H	-0.205449	-1.266977	0.000022
C44	C	0.507892	-1.800304	0.338852
N45	N	0.572597	-1.863985	0.275321
H46	H	0.485535	-1.778379	0.638949
H47	H	0.045989	-1.345760	0.639004
C48	C	0.343826	-1.638955	0.821895
N49	N	0.343812	-1.638974	0.948940
C50	C	-0.389101	-1.354877	-0.257345
N51	N	-0.420595	-1.302518	-0.360659
H52	H	-0.019696	-1.129299	-0.000061
C53	C	0.427269	-1.232476	-0.000079
N54	N	0.430201	-1.341032	-0.000049
C55	C	0.667310	-1.065668	-0.000138
N56	N	0.764944	-1.108411	-0.000133
C57	C	0.023710	-1.323761	0.338898
N58	N	-0.040984	-1.260070	0.275382
C59	C	-0.235417	-1.615409	-0.257369
N60	N	-0.203850	-1.667698	-0.360714
H61	H	-0.378275	-1.372900	0.221542
C62	C	0.659903	-0.790522	-0.000181
N63	N	0.754619	-0.724714	-0.000193
C64	C	0.412435	-0.682175	-0.000188
N65	N	0.409516	-0.573618	-0.000213
H66	H	-0.246534	-1.597335	0.221751
C67	C	-0.059772	-0.876849	-0.000125
N68	N	-0.157404	-0.834102	-0.000140
H69	H	-0.418912	-1.703518	0.000015
H70	H	0.343931	-1.638879	0.221691
