data_functionalizedCrystal
_audit_creation_method	'MofGen! by Chris Wilmer'
_symmetry_space_group_name_H-M	'P1'
_symmetry_Int_Tables_number	1
_symmetry_cell_setting	triclinic
loop_
_symmetry_equiv_pos_as_xyz
  x,y,z
_cell_length_a	11.804365
_cell_length_b	11.026607
_cell_length_c	11.026607
_cell_angle_alpha	71.413983
_cell_angle_beta	75.515365
_cell_angle_gamma	75.502485
loop_
_atom_site_label
_atom_site_type_symbol
_atom_site_fract_x
_atom_site_fract_y
_atom_site_fract_z
O1	O	0.099024	-1.746857	0.513518
O2	O	0.099026	-1.380277	0.452754
O3	O	0.099021	-1.533184	0.299847
O4	O	0.099029	-1.593949	0.666425
O5	O	-0.099034	-1.492918	0.340050
O6	O	-0.099028	-1.340011	0.492957
O7	O	-0.099030	-1.706591	0.553721
Cu8	Cu	-0.117113	-1.519624	0.527010
Cu9	Cu	0.117109	-1.567243	0.479465
O10	O	-0.099025	-1.553684	0.706628
C11	C	-0.000001	-1.312485	0.461646
C12	C	-0.000000	-1.170471	0.428228
N13	N	-0.281853	-1.486141	0.560451
C14	C	-0.000005	-1.501842	0.272288
C15	C	-0.000000	-1.468426	0.130273
C16	C	-0.655808	-1.681136	0.365686
C17	C	-0.531147	-1.706464	0.340382
C18	C	-0.468817	-1.651385	0.395397
C19	C	-0.531161	-1.570974	0.475721
C20	C	-0.655834	-1.545652	0.501036
C21	C	-0.468843	-1.515901	0.530746
C22	C	-0.531187	-1.435491	0.611070
C23	C	-0.655847	-1.410172	0.636380
C24	C	-0.718177	-1.465251	0.581365
C25	C	-0.344170	-1.541223	0.505431
C26	C	-0.344196	-1.405740	0.640780
C27	C	-0.468857	-1.380412	0.666085
N28	N	0.281849	-1.600735	0.446016
C29	C	-0.000001	-1.774384	0.544829
C30	C	0.000006	-1.916399	0.578244
C31	C	0.000003	-1.116822	0.520497
C32	C	0.000004	-0.970043	0.485962
C33	C	0.000001	-1.560696	0.076624
C34	C	0.000005	-1.526161	-0.070156
C35	C	0.000003	-1.585027	0.734186
C36	C	0.000007	-1.618444	0.876199
H37	H	-0.293421	-1.606693	0.440032
Cl38	Cl	-0.312099	-1.683222	0.363581
H39	H	-0.819686	-1.444626	0.601963
H40	H	-0.480392	-1.771934	0.274985
Cl41	Cl	-0.734166	-1.750383	0.296546
H42	H	-0.706608	-1.344710	0.701796
H43	H	-0.293448	-1.360892	0.685582
Cl44	Cl	0.000011	-1.779895	-0.026964
H45	H	-0.519632	-1.314941	0.731487
Cl46	Cl	-0.000012	-1.073623	0.266789
Cl47	Cl	0.000003	-1.213667	0.681940
Cl48	Cl	0.000018	-1.364714	-0.166999
Cl49	Cl	0.000013	-1.306986	0.033426
Cl50	Cl	-0.000009	-0.873200	0.324515
Cl51	Cl	-0.000007	-1.013234	0.739697
Cl52	Cl	0.000008	-1.722139	0.173468
