data_functionalizedCrystal
_audit_creation_method	'MofGen! by Chris Wilmer'
_symmetry_space_group_name_H-M	'P1'
_symmetry_Int_Tables_number	1
_symmetry_cell_setting	triclinic
loop_
_symmetry_equiv_pos_as_xyz
  x,y,z
_cell_length_a	13.339070
_cell_length_b	19.288867
_cell_length_c	12.376442
_cell_angle_alpha	102.676409
_cell_angle_beta	99.042895
_cell_angle_gamma	99.383182
loop_
_atom_site_label
_atom_site_type_symbol
_atom_site_fract_x
_atom_site_fract_y
_atom_site_fract_z
O1	O	0.143372	0.961095	0.093962
O2	O	0.160381	0.762150	0.093972
O3	O	0.004717	0.838789	0.093965
O4	O	0.299037	0.884455	0.093969
O5	O	-0.029859	0.808415	-0.094048
O6	O	0.125805	0.731775	-0.094041
O7	O	0.108797	0.930720	-0.094051
Zn8	Zn	0.111811	0.826425	-0.123897
Zn9	Zn	0.157366	0.866445	0.123818
O10	O	0.264461	0.854080	-0.094044
C11	C	0.142546	0.720980	-0.000033
C12	C	0.140903	0.643556	-0.000029
C13	C	0.147908	0.102239	0.102444
C14	C	0.149447	0.174987	0.102448
C15	C	0.131374	0.194809	-0.000037
C16	C	0.111734	0.141874	-0.102535
C17	C	0.110185	0.069126	-0.102536
C18	C	0.178586	0.303466	-0.078554
C19	C	0.180142	0.376213	-0.078548
C20	C	0.136146	0.419185	-0.000038
C21	C	0.090610	0.389405	0.078486
C22	C	0.089061	0.316658	0.078485
C23	C	0.133051	0.273690	-0.000047
C24	C	0.157446	0.550992	0.102458
C25	C	0.158978	0.623740	0.102458
C26	C	0.121274	0.590625	-0.102528
C27	C	0.119733	0.517878	-0.102525
C28	C	0.137824	0.498067	-0.000029
C29	C	-0.050225	0.815888	-0.000039
C30	C	-0.162421	0.792897	-0.000034
C31	C	-0.528029	0.971675	-0.000044
C32	C	-0.422617	0.993278	-0.000055
C33	C	-0.357563	0.943185	-0.000050
C34	C	-0.397931	0.871484	-0.000033
C35	C	-0.503356	0.849877	-0.000030
C36	C	-0.332889	0.821387	-0.000036
C37	C	-0.373258	0.749687	-0.000019
C38	C	-0.478672	0.728084	-0.000015
C39	C	-0.543726	0.778177	-0.000021
C40	C	-0.227465	0.842994	-0.000039
C41	C	-0.202792	0.721196	-0.000025
C42	C	-0.308204	0.699593	-0.000013
C43	C	0.319403	0.876982	-0.000037
C44	C	0.431601	0.899975	-0.000035
C45	C	0.126632	0.971891	-0.000043
C46	C	0.128277	1.049315	-0.000040
N47	N	0.188449	0.893757	0.292877
N48	N	0.080720	0.799117	-0.292956
C49	C	0.008569	0.735713	0.647858
C50	C	-0.013171	0.716596	0.529518
C51	C	0.037232	0.760885	0.470352
C52	C	0.109379	0.824293	0.529538
C53	C	0.131128	0.843409	0.647890
C54	C	0.159790	0.868581	0.470384
C55	C	0.231938	0.931989	0.529570
C56	C	0.253682	0.951102	0.647910
C57	C	0.203279	0.906813	0.707076
C58	C	0.138042	0.849465	0.352032
C59	C	0.260601	0.957161	0.352063
C60	C	0.282341	0.976277	0.470404
H61	H	0.051983	0.292413	0.142420
H62	H	0.079300	0.797837	0.303854
H63	H	-0.194608	0.901373	-0.000053
H64	H	-0.581006	1.012452	-0.000058
H65	H	0.054788	0.424392	0.142420
H66	H	0.172174	0.534860	0.185916
H67	H	-0.629562	0.760592	-0.000007
C68	C	-0.352627	0.620721	-0.000011
N69	N	-0.386088	0.561314	-0.000013
C70	C	0.361701	1.046026	0.535524
N71	N	0.421475	1.098561	0.584573
H72	H	-0.511538	0.669699	-0.000010
C73	C	0.101383	0.612424	-0.215264
N74	N	0.086395	0.628845	-0.300180
H75	H	0.174958	0.666831	0.185916
H76	H	0.103750	0.474785	-0.185979
C77	C	0.088602	0.010908	-0.215281
N78	N	0.072352	-0.032943	-0.300203
C79	C	-0.131236	0.666089	-0.000015
N80	N	-0.077334	0.624587	-0.000009
H81	H	0.019526	0.745316	0.373994
C82	C	0.167789	0.080449	0.215193
N83	N	0.182756	0.064035	0.300117
H84	H	0.217249	0.400460	-0.142463
C85	C	-0.092527	0.646848	0.464422
N86	N	-0.152301	0.594309	0.415391
H87	H	-0.389756	1.051657	-0.000071
C88	C	0.226981	0.256201	-0.164933
N89	N	0.263428	0.220602	-0.229995
C90	C	-0.241605	0.966953	-0.000054
N91	N	-0.154260	0.984859	-0.000051
H92	H	0.312436	1.002729	0.696096
H93	H	-0.032456	0.699658	0.696042
H94	H	0.220972	0.922377	0.803438
C95	C	0.316046	1.005883	0.286986
N96	N	0.357804	1.042577	0.237962
H97	H	0.097017	0.158017	-0.185979
C98	C	0.171056	0.233215	0.215193
N99	N	0.187336	0.277071	0.300113
