data_functionalizedCrystal
_audit_creation_method	'MofGen! by Chris Wilmer'
_symmetry_space_group_name_H-M	'P1'
_symmetry_Int_Tables_number	1
_symmetry_cell_setting	triclinic
loop_
_symmetry_equiv_pos_as_xyz
  x,y,z
_cell_length_a	16.974829
_cell_length_b	10.723023
_cell_length_c	15.455320
_cell_angle_alpha	87.295656
_cell_angle_beta	96.314728
_cell_angle_gamma	83.931822
loop_
_atom_site_label
_atom_site_type_symbol
_atom_site_fract_x
_atom_site_fract_y
_atom_site_fract_z
O1	O	1.056950	0.147959	0.146321
O2	O	0.826084	0.169438	0.130117
O3	O	0.946842	-0.022986	0.138589
O4	O	0.936192	0.340384	0.137849
O5	O	0.939965	-0.011986	-0.006155
O6	O	0.819207	0.180438	-0.014628
O7	O	1.050072	0.158959	0.001576
Cu8	Cu	0.934012	0.170703	-0.019742
Cu9	Cu	0.942145	0.157694	0.151435
O10	O	0.929315	0.351384	-0.006896
C11	C	0.793085	0.174324	0.055670
C12	C	0.705003	0.172480	0.049487
C13	C	0.208786	0.162781	0.006218
C14	C	0.291549	0.164514	0.012029
C15	C	0.336680	0.159375	0.093835
C16	C	0.299043	0.152515	0.169837
C17	C	0.216281	0.150791	0.164025
C18	C	0.584604	0.163896	0.119677
C19	C	0.667371	0.165616	0.125483
C20	C	0.659871	0.177618	-0.032326
C21	C	0.577109	0.175886	-0.038130
C22	C	0.539478	0.169032	0.037871
N23	N	0.421277	0.161142	0.099777
N24	N	0.454882	0.167274	0.031929
C25	C	0.942629	-0.063970	0.066163
C26	C	0.940310	-0.202477	0.066003
C27	C	0.942839	-0.269920	0.140914
C28	C	0.940443	-0.413074	0.140750
C29	C	1.083072	0.154073	0.076025
C30	C	1.171155	0.155918	0.082213
C31	C	0.933528	0.392368	0.065532
C32	C	0.935847	0.530874	0.065697
N33	N	0.928298	0.179852	-0.140138
C34	C	0.896551	0.230263	-0.686373
C35	C	0.900891	0.223368	-0.595261
C36	C	0.956548	0.134751	-0.545945
C37	C	1.007865	0.053014	-0.587747
C38	C	1.003521	0.059904	-0.678857
C39	C	0.975270	0.105006	-0.273051
C40	C	0.979612	0.098124	-0.181934
C41	C	0.872636	0.268478	-0.189454
C42	C	0.868301	0.275365	-0.280566
C43	C	0.919614	0.193624	-0.322360
N44	N	0.960987	0.127703	-0.452814
N45	N	0.915172	0.200666	-0.415490
N46	N	0.947866	0.148536	0.271832
H47	H	0.540370	0.180043	-0.104746
H48	H	1.053180	-0.019146	-0.547589
H49	H	0.942608	-0.471053	0.204884
C50	C	0.932927	-0.390821	-0.020952
C51	C	0.864629	-0.285022	-0.047298
C52	C	0.861709	-0.206707	-0.133947
C53	C	0.927086	-0.234190	-0.194251
C54	C	0.995388	-0.339994	-0.167907
C55	C	0.998309	-0.418309	-0.081258
H56	H	0.816229	-0.264673	-0.002656
H57	H	0.811147	-0.128384	-0.153448
H58	H	0.924925	-0.176216	-0.258394
H59	H	1.043789	-0.360343	-0.212549
H60	H	1.048871	-0.496632	-0.061756
C61	C	1.059969	-0.029995	-0.724835
C62	C	1.121172	-0.127505	-0.670594
C63	C	1.177619	-0.217413	-0.716570
C64	C	1.172864	-0.209811	-0.816787
C65	C	1.111659	-0.112297	-0.871033
C66	C	1.055212	-0.022390	-0.825057
H67	H	1.124694	-0.133136	-0.596402
H68	H	1.222927	-0.289598	-0.676413
H69	H	1.214650	-0.276366	-0.850821
H70	H	1.108137	-0.106667	-0.945225
H71	H	1.009904	0.049796	-0.865215
C72	C	0.174883	0.143238	0.247621
C73	C	0.127426	0.032061	0.265910
C74	C	0.086028	0.024515	0.349508
C75	C	0.092087	0.128145	0.414817
C76	C	0.139546	0.239329	0.396529
C77	C	0.180944	0.246876	0.312931
H78	H	0.122939	-0.044659	0.217563
H79	H	0.050896	-0.057792	0.363045
H80	H	0.061442	0.122558	0.476701
H81	H	0.144033	0.316050	0.444876
H82	H	0.216076	0.329182	0.299394
C83	C	0.835326	0.327746	-0.740615
C84	C	0.778878	0.417638	-0.694636
C85	C	0.717649	0.515120	-0.748876
C86	C	0.712867	0.522710	-0.849095
C87	C	0.769317	0.432814	-0.895079
C88	C	0.830546	0.335332	-0.840840
H89	H	0.782416	0.412022	-0.620444
H90	H	0.675861	0.581666	-0.714835
H91	H	0.667541	0.594872	-0.889246
H92	H	0.765778	0.438430	-0.969272
H93	H	0.872333	0.268786	-0.874881
C94	C	0.717022	0.159973	0.215473
C95	C	0.717154	0.046449	0.280363
C96	C	0.766808	0.040803	0.370347
C97	C	0.816329	0.148681	0.395441
C98	C	0.816199	0.262213	0.330549
C99	C	0.766545	0.267859	0.240566
H100	H	0.680494	-0.033416	0.261789
H101	H	0.766904	-0.043241	0.418384
H102	H	0.853085	0.144502	0.462052
H103	H	0.852859	0.342079	0.349124
H104	H	0.766449	0.351903	0.192529
H105	H	0.822980	0.347524	-0.320717
C106	C	0.701268	0.185174	-0.115920
C107	C	0.748718	0.296361	-0.134203
C108	C	0.790115	0.303925	-0.217801
C109	C	0.784063	0.200301	-0.283115
C110	C	0.736612	0.089106	-0.264834
C111	C	0.695214	0.081542	-0.181236
H112	H	0.753199	0.373077	-0.085852
H113	H	0.825242	0.386240	-0.231333
H114	H	0.814708	0.205901	-0.344999
H115	H	0.732130	0.012390	-0.313185
H116	H	0.660088	-0.000773	-0.167704
C117	C	1.040838	0.000632	-0.127688
C118	C	1.038156	-0.140506	-0.140348
C119	C	1.099381	-0.237991	-0.086104
C120	C	1.163287	-0.194337	-0.019200
C121	C	1.165971	-0.053191	-0.006537
C122	C	1.104746	0.044293	-0.060781
H123	H	0.990847	-0.172828	-0.189877
H124	H	1.097393	-0.342476	-0.095479
H125	H	1.208609	-0.266501	0.020954
H126	H	1.213280	-0.020870	0.042992
H127	H	1.106734	0.148779	-0.051406
H128	H	0.553976	0.158311	0.181563
H129	H	0.172045	0.166971	-0.060398
H130	H	0.335795	0.148338	0.236446
C131	C	0.332929	0.172000	-0.071580
C132	C	0.310041	0.285012	-0.138098
C133	C	0.351414	0.292474	-0.221717
C134	C	0.415675	0.186923	-0.238818
C135	C	0.438567	0.073903	-0.172299
C136	C	0.397193	0.066442	-0.088680
H137	H	0.262468	0.363154	-0.125440
H138	H	0.334468	0.376139	-0.270959
H139	H	0.446302	0.192447	-0.300718
H140	H	0.486139	-0.004239	-0.184957
H141	H	0.414139	-0.017223	-0.039438
H142	H	0.946775	-0.221678	0.205168
H143	H	0.936366	-0.250717	0.001748
H144	H	0.859106	0.289916	-0.561232
H145	H	0.830858	0.335026	-0.155417
H146	H	1.017054	0.038451	-0.307072
