data_functionalizedCrystal
_audit_creation_method	'MofGen! by Chris Wilmer'
_symmetry_space_group_name_H-M	'P1'
_symmetry_Int_Tables_number	1
_symmetry_cell_setting	triclinic
loop_
_symmetry_equiv_pos_as_xyz
  x,y,z
_cell_length_a	12.759401
_cell_length_b	18.101395
_cell_length_c	12.759393
_cell_angle_alpha	89.965869
_cell_angle_beta	90.019596
_cell_angle_gamma	89.962310
loop_
_atom_site_label
_atom_site_type_symbol
_atom_site_fract_x
_atom_site_fract_y
_atom_site_fract_z
Zn1	Zn	1.606101	0.294788	0.593956
Zn2	Zn	1.605922	0.418648	0.418265
Zn3	Zn	1.430399	0.294825	0.418295
Zn4	Zn	1.430322	0.418593	0.593906
O5	O	1.518186	0.356714	0.506106
O6	O	1.753098	0.311226	0.570658
O7	O	1.582596	0.402260	0.271248
O8	O	1.453814	0.191187	0.441630
O9	O	1.752967	0.402225	0.441579
O10	O	1.582901	0.191160	0.570688
O11	O	1.453641	0.311289	0.271270
O12	O	1.283368	0.311236	0.441582
O13	O	1.453681	0.402132	0.740934
O14	O	1.283311	0.402168	0.570603
O15	O	1.582825	0.311173	0.740970
O16	O	1.582521	0.522273	0.441531
O17	O	1.453508	0.522233	0.570573
C18	C	1.245218	0.356700	0.506091
C19	C	1.128442	0.356712	0.506110
C20	C	0.963846	0.404144	0.573192
C21	C	1.073571	0.404136	0.573181
C22	C	1.073583	0.309300	0.439037
C23	C	0.963861	0.309312	0.439044
C24	C	1.518015	0.549124	0.506066
C25	C	1.518038	0.631438	0.506085
C26	C	1.518139	0.782147	0.506130
C27	C	1.436921	0.813506	0.587259
C28	C	1.437216	0.899124	0.587604
C29	C	1.518235	0.930529	0.506176
C30	C	1.629005	0.899344	0.535955
C31	C	1.628478	0.813699	0.536518
C32	C	1.489576	0.813792	0.395029
C33	C	1.487189	0.899444	0.395647
C34	C	1.518297	1.014389	0.506199
C35	C	1.518084	0.698287	0.506109
C36	C	1.792219	0.356727	0.506121
C37	C	1.908996	0.356733	0.506127
C38	C	1.518264	0.356642	0.780139
C39	C	1.518298	0.356612	0.896916
C40	C	1.518352	1.163552	0.506175
C41	C	1.518336	1.081237	0.506221
C42	C	1.518168	0.356731	0.233138
C43	C	1.518338	0.356553	0.116362
C44	C	1.585548	0.309242	0.951798
C45	C	1.585566	0.309210	1.061523
C46	C	1.451080	0.403925	1.061472
C47	C	1.451058	0.403952	0.951750
H48	H	1.118225	0.442743	0.627791
C49	C	0.903498	0.456284	0.647009
H50	H	0.951884	0.484516	0.686953
H51	H	0.860752	0.427977	0.692850
H52	H	0.860639	0.488534	0.606767
C53	C	0.903516	0.257153	0.365279
H54	H	0.830313	0.263957	0.374887
H55	H	0.921540	0.207407	0.380784
H56	H	0.921457	0.267930	0.294654
C57	C	1.713047	0.785658	0.460167
H58	H	1.713298	0.733174	0.459993
H59	H	1.779755	0.803237	0.481824
H60	H	1.698253	0.803257	0.391577
C61	C	1.326269	0.927619	0.562477
H62	H	1.280609	0.886852	0.551971
H63	H	1.328321	0.956906	0.500710
H64	H	1.301418	0.956668	0.619268
C65	C	1.661129	0.786624	0.646217
H66	H	1.661101	0.734147	0.647527
H67	H	1.612991	0.804764	0.696830
H68	H	1.729453	0.804251	0.661966
C69	C	1.133939	0.257134	0.365262
H70	H	1.207142	0.263910	0.374870
H71	H	1.115924	0.267912	0.294643
H72	H	1.115995	0.207389	0.380775
H73	H	1.640326	0.270636	1.106203
C74	C	1.325586	0.785781	0.562412
H75	H	1.327633	0.754827	0.502343
H76	H	1.281046	0.826800	0.549099
H77	H	1.299399	0.758592	0.620466
C78	C	1.713027	0.926814	0.458606
H79	H	1.681223	0.957623	0.407346
H80	H	1.744945	0.885682	0.425165
H81	H	1.764741	0.954097	0.495592
H82	H	1.653625	0.920733	0.616283
C83	C	1.462180	0.784365	0.697840
H84	H	1.522009	0.753172	0.694781
H85	H	1.404073	0.757147	0.723773
H86	H	1.476063	0.824803	0.743183
C87	C	1.377132	0.456001	1.121792
H88	H	1.386784	0.449206	1.195000
H89	H	1.306548	0.445165	1.103807
H90	H	1.392461	0.505766	1.103793
H91	H	1.405671	0.919837	0.373184
H92	H	1.410152	0.792262	0.367857
H93	H	1.542026	0.920832	0.331997
C94	C	1.569473	0.786386	0.313372
H95	H	1.619995	0.755807	0.346768
H96	H	1.603558	0.827551	0.282240
H97	H	1.534155	0.758873	0.260743
C98	C	1.377086	0.456066	0.891374
H99	H	1.337056	0.484265	0.939744
H100	H	1.331331	0.427748	0.848572
H101	H	1.417245	0.488348	0.848570
H102	H	1.456208	0.919556	0.669931
H103	H	1.640297	0.270693	0.907156
