data_functionalizedCrystal
_audit_creation_method	'MofGen! by Chris Wilmer'
_symmetry_space_group_name_H-M	'P1'
_symmetry_Int_Tables_number	1
_symmetry_cell_setting	triclinic
loop_
_symmetry_equiv_pos_as_xyz
  x,y,z
_cell_length_a	15.995350
_cell_length_b	10.654541
_cell_length_c	14.472311
_cell_angle_alpha	89.994365
_cell_angle_beta	90.007338
_cell_angle_gamma	96.011848
loop_
_atom_site_label
_atom_site_type_symbol
_atom_site_fract_x
_atom_site_fract_y
_atom_site_fract_z
O1	O	0.117599	-1.666311	0.076808
O2	O	0.128805	-1.300686	0.076815
O3	O	0.001372	-1.493493	0.076810
O4	O	0.245031	-1.473504	0.076812
O5	O	0.001357	-1.493469	-0.076872
O6	O	0.128790	-1.300662	-0.076867
O7	O	0.117583	-1.666287	-0.076874
Cu8	Cu	0.123185	-1.483472	-0.090903
Cu9	Cu	0.123203	-1.483501	0.090844
O10	O	0.245016	-1.473480	-0.076870
C11	C	0.127975	-1.253887	-0.000025
C12	C	0.125514	-1.114475	-0.000022
C13	C	-0.029835	-1.492655	-0.000029
C14	C	-0.122800	-1.490177	-0.000024
N15	N	0.123172	-1.483462	-0.218734
C16	C	-0.460599	-1.481280	-0.000027
C17	C	-0.413961	-1.343966	0.000321
C18	C	-0.317257	-1.346444	-0.000025
C19	C	-0.293013	-1.485693	-0.000025
C20	C	-0.333706	-1.553408	-0.087784
C21	C	-0.430362	-1.549958	-0.087858
C22	C	-0.430686	-1.552822	0.086907
C23	C	-0.333741	-1.552790	0.088067
C24	C	-0.198301	-1.488195	-0.000027
C25	C	-0.555311	-1.478783	-0.000031
C26	C	0.276223	-1.474318	-0.000028
C27	C	0.369188	-1.476796	-0.000027
C28	C	0.118413	-1.713087	-0.000032
C29	C	0.120874	-1.852498	-0.000029
C30	C	0.277895	-1.084514	-0.000009
C31	C	0.352926	-1.004039	0.000001
C32	C	0.350609	-0.873052	0.000002
C33	C	0.273253	-0.822537	-0.000010
C34	C	0.198222	-0.903011	-0.000020
C35	C	0.200547	-1.034000	-0.000018
C36	C	0.045843	-0.932972	-0.000040
C37	C	0.048158	-1.063961	-0.000034
C38	C	-0.031513	-0.882458	-0.000052
C39	C	-0.106546	-0.962933	-0.000055
C40	C	-0.104226	-1.093928	-0.000055
C41	C	-0.026873	-1.144435	-0.000044
N42	N	0.123210	-1.483522	0.218675
C43	C	0.123197	-1.483501	0.407175
C44	C	0.055150	-1.586864	0.446374
C45	C	0.054896	-1.586588	0.553462
C46	C	0.123185	-1.483482	0.592766
C47	C	0.103477	-1.352397	0.553869
C48	C	0.102995	-1.353015	0.446748
C49	C	0.211149	-1.510040	0.446672
C50	C	0.210575	-1.513008	0.553800
C51	C	0.123179	-1.483464	0.697654
C52	C	0.123201	-1.483511	0.302287
H53	H	-0.289137	-1.293215	0.062884
H54	H	0.415908	-1.045183	0.000009
H55	H	-0.289709	-1.292838	-0.063040
H56	H	-0.024976	-1.251090	-0.000033
H57	H	0.279789	-1.191169	0.000011
H58	H	0.225515	-1.609440	0.579223
H59	H	-0.033395	-0.775800	-0.000056
H60	H	0.261795	-1.434668	0.421317
H61	H	-0.010360	-1.569608	0.579078
H62	H	-0.306773	-1.503282	0.152990
H63	H	-0.432805	-1.289093	0.063255
H64	H	-0.448956	-1.500561	-0.153460
H65	H	-0.169523	-0.921792	-0.000064
H66	H	0.411706	-0.807528	0.000004
H67	H	0.271373	-0.715878	-0.000020
H68	H	-0.461860	-1.654063	0.087498
H69	H	-0.165325	-1.159444	-0.000067
H70	H	0.066724	-1.684023	0.579762
H71	H	0.038834	-1.329653	0.421751
H72	H	-0.462026	-1.650771	-0.091839
H73	H	-0.318987	-1.655710	-0.091047
H74	H	0.150640	-1.273778	0.420815
H75	H	0.229933	-1.603597	0.419667
H76	H	0.151694	-1.273616	0.579326
H77	H	0.066795	-1.684628	0.420624
H78	H	-0.009736	-1.570134	0.419443
H79	H	0.040043	-1.328465	0.580687
H80	H	0.263634	-1.442614	0.580557
H81	H	-0.305604	-1.506357	-0.153093
H82	H	-0.433879	-1.289317	-0.062260
H83	H	-0.451480	-1.507938	0.153424
H84	H	-0.317789	-1.654337	0.093367
