data_functionalizedCrystal
_audit_creation_method	'MofGen! by Chris Wilmer'
_symmetry_space_group_name_H-M	'P1'
_symmetry_Int_Tables_number	1
_symmetry_cell_setting	triclinic
loop_
_symmetry_equiv_pos_as_xyz
  x,y,z
_cell_length_a	16.959455
_cell_length_b	16.959453
_cell_length_c	16.959447
_cell_angle_alpha	89.968853
_cell_angle_beta	89.977004
_cell_angle_gamma	90.017008
loop_
_atom_site_label
_atom_site_type_symbol
_atom_site_fract_x
_atom_site_fract_y
_atom_site_fract_z
Zn1	Zn	1.208405	-0.314728	-0.447032
Zn2	Zn	1.208321	-0.446921	-0.314852
Zn3	Zn	1.076227	-0.314753	-0.314856
Zn4	Zn	1.076198	-0.446862	-0.446977
O5	O	1.142288	-0.380816	-0.380929
O6	O	1.319005	-0.332278	-0.429520
O7	O	1.190776	-0.429424	-0.204242
O8	O	1.093808	-0.204139	-0.332414
O9	O	1.318943	-0.429399	-0.332408
O10	O	1.190918	-0.204121	-0.429524
O11	O	1.093727	-0.332321	-0.204244
O12	O	0.965612	-0.332264	-0.332360
O13	O	1.093758	-0.429299	-0.557595
O14	O	0.965591	-0.429323	-0.429429
O15	O	1.190890	-0.332221	-0.557636
O16	O	1.190748	-0.557524	-0.332354
O17	O	1.093677	-0.557480	-0.429425
C18	C	0.936922	-0.380790	-0.380889
C19	C	0.849065	-0.380798	-0.380891
C20	C	0.477547	-0.431337	-0.330337
C21	C	0.477632	-0.330361	-0.431617
C22	C	0.560178	-0.330348	-0.431598
C23	C	0.601412	-0.380831	-0.380948
C24	C	0.560100	-0.431327	-0.330318
C25	C	0.601496	-0.279858	-0.482234
C26	C	0.684047	-0.279843	-0.482217
C27	C	0.725282	-0.330323	-0.431563
C28	C	0.683966	-0.380821	-0.380929
C29	C	0.725200	-0.431304	-0.330280
C30	C	0.683885	-0.481799	-0.279642
C31	C	0.601336	-0.481807	-0.279663
C32	C	0.807831	-0.330315	-0.431541
C33	C	0.807753	-0.431294	-0.330260
C34	C	1.142222	-0.586182	-0.380900
C35	C	1.142266	-0.674039	-0.380914
C36	C	1.192918	-1.045446	-0.431589
C37	C	1.091879	-1.045582	-0.330386
C38	C	1.091849	-0.963037	-0.330368
C39	C	1.142354	-0.921692	-0.380962
C40	C	1.192888	-0.962893	-0.431575
C41	C	1.041310	-0.921829	-0.279762
C42	C	1.041278	-0.839278	-0.279743
C43	C	1.091788	-0.797932	-0.330334
C44	C	1.142325	-0.839138	-0.380947
C45	C	1.192830	-0.797793	-0.431541
C46	C	1.243371	-0.838998	-0.482152
C47	C	1.243398	-0.921546	-0.482165
C48	C	1.091761	-0.715384	-0.330320
C49	C	1.192800	-0.715240	-0.431527
C50	C	1.348456	-0.380842	-0.380970
C51	C	1.436313	-0.380854	-0.380987
C52	C	1.142330	-0.380750	-0.587097
C53	C	1.142348	-0.380722	-0.674954
C54	C	1.142376	-0.174648	-0.380976
C55	C	1.142413	-0.086791	-0.380995
C56	C	1.091889	-0.330082	-1.046438
C57	C	1.192947	-0.431196	-1.046422
C58	C	1.192933	-0.431214	-0.963876
C59	C	1.142396	-0.380667	-0.922607
C60	C	1.091872	-0.330100	-0.963884
C61	C	1.243450	-0.481785	-0.922593
C62	C	1.243438	-0.481807	-0.840042
C63	C	1.192904	-0.431254	-0.798772
C64	C	1.142379	-0.380685	-0.840054
C65	C	1.091841	-0.330137	-0.798785
C66	C	1.041320	-0.279564	-0.840065
C67	C	1.041338	-0.279548	-0.922614
C68	C	1.192886	-0.431270	-0.716223
C69	C	1.091824	-0.330156	-0.716231
C70	C	1.142291	-0.380824	-0.175563
C71	C	1.142426	-0.380630	-0.087707
H72	H	0.443904	-0.472446	-0.289107
H73	H	1.234070	-1.078999	-0.472793
O74	O	0.433164	-0.275907	-0.486240
H75	H	0.368822	-0.284392	-0.477743
O76	O	0.557020	-0.225418	-0.536863
H77	H	0.599615	-0.190312	-0.572077
H78	H	1.050756	-1.079250	-0.289198
O79	O	1.037413	-0.275521	-1.090952
H80	H	1.045915	-0.283992	-1.155288
H81	H	0.717679	-0.238727	-0.523449
H82	H	0.717468	-0.522906	-0.238407
H83	H	1.000169	-0.238411	-0.806453
O84	O	0.986852	-0.966418	-0.225181
H85	H	0.995377	-1.030741	-0.233683
H86	H	1.000126	-0.805735	-0.238533
H87	H	1.000205	-0.238375	-0.956231
O88	O	0.556778	-0.536268	-0.225052
H89	H	0.492450	-0.527799	-0.233582
O90	O	1.297894	-0.965985	-0.536763
H91	H	1.289418	-1.030332	-0.528282
H92	H	1.234025	-0.472441	-0.682616
O93	O	0.852395	-0.275858	-0.486146
H94	H	0.809854	-0.240754	-0.521367
H95	H	1.284489	-0.805325	-0.523350
O96	O	1.297952	-0.536302	-0.967107
H97	H	1.333074	-0.571476	-0.924536
O98	O	1.247283	-0.670646	-0.486088
H99	H	1.282429	-0.713168	-0.521279
O100	O	1.037260	-0.670939	-0.275738
H101	H	1.002148	-0.713557	-0.240557
O102	O	1.037320	-0.275631	-0.671719
H103	H	1.002194	-0.240467	-0.714294
H104	H	1.284575	-0.522987	-0.806439
O105	O	0.852228	-0.485743	-0.275628
H106	H	0.809629	-0.520856	-0.240427
O107	O	1.247454	-0.485714	-1.090927
H108	H	1.238980	-0.477203	-1.155264
