data_functionalizedCrystal
_audit_creation_method	'MofGen! by Chris Wilmer'
_symmetry_space_group_name_H-M	'P1'
_symmetry_Int_Tables_number	1
_symmetry_cell_setting	triclinic
loop_
_symmetry_equiv_pos_as_xyz
  x,y,z
_cell_length_a	16.974800
_cell_length_b	16.974813
_cell_length_c	15.455313
_cell_angle_alpha	89.012317
_cell_angle_beta	90.973911
_cell_angle_gamma	83.627081
loop_
_atom_site_label
_atom_site_type_symbol
_atom_site_fract_x
_atom_site_fract_y
_atom_site_fract_z
O1	O	1.049303	0.100458	-0.005495
O2	O	1.382637	0.433791	0.327838
O3	O	1.715970	0.767124	0.661171
O4	O	0.819898	0.112492	-0.022451
O5	O	1.153232	0.445826	0.310882
O6	O	1.486565	0.779159	0.644215
O7	O	0.940611	-0.008229	-0.005496
O8	O	1.273944	0.325104	0.327838
O9	O	1.607278	0.658438	0.661171
O10	O	0.928591	0.221179	-0.022451
O11	O	1.261924	0.554512	0.310882
O12	O	1.595257	0.887845	0.644216
O13	O	0.933708	-0.001354	0.137799
O14	O	1.267041	0.331979	0.471132
O15	O	1.600375	0.665313	0.804466
O16	O	0.812995	0.119367	0.120843
O17	O	1.146329	0.452700	0.454177
O18	O	1.479662	0.786034	0.787510
O19	O	1.042400	0.107332	0.137799
O20	O	1.375734	0.440666	0.471133
O21	O	1.709067	0.773999	0.804466
Cu22	Cu	0.927068	0.113978	0.142405
Cu23	Cu	1.260401	0.447311	0.475738
Cu24	Cu	1.593734	0.780644	0.809072
Cu25	Cu	0.935231	0.105847	-0.027057
Cu26	Cu	1.268564	0.439180	0.306276
Cu27	Cu	1.601898	0.772514	0.639609
O28	O	0.921688	0.228054	0.120844
O29	O	1.255021	0.561387	0.454177
O30	O	1.588354	0.894720	0.787510
C31	C	0.787086	0.115346	0.047175
C32	C	1.120419	0.448679	0.380508
C33	C	1.453753	0.782013	0.713842
C34	C	0.699600	0.113597	0.041154
C35	C	1.032934	0.446931	0.374487
C36	C	1.366267	0.780264	0.707820
C37	C	0.654741	0.116521	0.116437
C38	C	0.988075	0.449855	0.449770
C39	C	1.321408	0.783188	0.783103
C40	C	0.572541	0.114866	0.110782
C41	C	0.905874	0.448199	0.444116
C42	C	1.239208	0.781533	0.777449
C43	C	0.535200	0.110292	0.029844
C44	C	0.868534	0.443625	0.363177
C45	C	1.201867	0.776959	0.696510
C46	C	0.580066	0.107365	-0.045445
C47	C	0.913399	0.440699	0.287889
C48	C	1.246732	0.774032	0.621222
C49	C	0.662265	0.109015	-0.039789
C50	C	0.995599	0.442348	0.293544
C51	C	1.328932	0.775682	0.626877
C52	C	0.289764	0.104950	0.004554
C53	C	0.623097	0.438284	0.337887
C54	C	0.956430	0.771617	0.671220
C55	C	0.207558	0.103303	-0.001096
C56	C	0.540891	0.436636	0.332237
C57	C	0.874224	0.769970	0.665570
C58	C	0.200039	0.110802	0.155132
C59	C	0.533372	0.444136	0.488465
C60	C	0.866705	0.777469	0.821798
C61	C	0.282240	0.112457	0.160780
C62	C	0.615573	0.445790	0.494113
C63	C	0.948906	0.779123	0.827446
C64	C	0.327098	0.109526	0.085492
C65	C	0.660432	0.442859	0.418825
C66	C	0.993765	0.776192	0.752158
N67	N	0.451178	0.108602	0.024062
N68	N	0.784511	0.441935	0.357395
N69	N	1.117845	0.775269	0.690729
N70	N	0.411120	0.111210	0.091275
N71	N	0.744453	0.444543	0.424608
N72	N	1.077787	0.777876	0.757941
C73	C	0.936574	-0.034153	0.068171
C74	C	1.269907	0.299181	0.401504
C75	C	1.603241	0.632514	0.734837
C76	C	0.934820	-0.121639	0.074186
C77	C	1.268153	0.211694	0.407520
C78	C	1.601487	0.545028	0.740853
C79	C	0.937761	-0.166483	-0.001097
C80	C	1.271094	0.166850	0.332237
C81	C	1.604427	0.500183	0.665570
C82	C	0.936108	-0.248685	0.004558
C83	C	1.269441	0.084648	0.337891
C84	C	1.602774	0.417981	0.671224
C85	C	0.931519	-0.286042	0.085496
C86	C	1.264853	0.047291	0.418830
C87	C	1.598186	0.380625	0.752163
C88	C	0.928576	-0.241192	0.160785
C89	C	1.261910	0.092142	0.494118
C90	C	1.595243	0.425475	0.827452
C91	C	0.930224	-0.158990	0.155129
C92	C	1.263557	0.174343	0.488463
C93	C	1.596890	0.507676	0.821796
C94	C	0.926183	-0.531485	0.110787
C95	C	1.259517	-0.198152	0.444120
C96	C	1.592850	0.135182	0.777454
C97	C	0.924538	-0.613692	0.116437
C98	C	1.257872	-0.280359	0.449771
C99	C	1.591205	0.052974	0.783104
C100	C	0.932068	-0.621180	-0.039791
C101	C	1.265402	-0.287847	0.293542
C102	C	1.598735	0.045486	0.626876
C103	C	0.933720	-0.538978	-0.045439
C104	C	1.267054	-0.205644	0.287894
C105	C	1.600387	0.127689	0.621228
C106	C	0.930773	-0.494134	0.029849
C107	C	1.264106	-0.160801	0.363182
C108	C	1.597439	0.172533	0.696516
N109	N	0.929832	-0.370066	0.091278
N110	N	1.263165	-0.036733	0.424612
N111	N	1.596499	0.296601	0.757945
N112	N	0.932454	-0.410111	0.024066
N113	N	1.265788	-0.076777	0.357399
N114	N	1.599121	0.256556	0.690732
C115	C	1.075213	0.104479	0.068171
C116	C	1.408546	0.437812	0.401504
C117	C	1.741879	0.771145	0.734838
C118	C	1.162699	0.106227	0.074187
C119	C	1.496032	0.439560	0.407520
C120	C	1.829365	0.772894	0.740853
C121	C	0.925725	0.253977	0.047175
C122	C	1.259058	0.587310	0.380509
C123	C	1.592391	0.920644	0.713842
C124	C	0.927479	0.341463	0.041154
C125	C	1.260812	0.674797	0.374488
C126	C	1.594146	1.008130	0.707821
N127	N	0.921331	0.119695	0.261596
N128	N	1.254665	0.453029	0.594930
N129	N	1.587998	0.786362	0.928263
N130	N	0.940973	0.100123	-0.146247
N131	N	1.274307	0.433456	0.187086
N132	N	1.607640	0.766790	0.520419
C133	C	0.972632	0.068428	0.314194
C134	C	1.305966	0.401761	0.647527
C135	C	1.639299	0.735094	0.980860
C136	C	0.968302	0.072759	0.404393
C137	C	1.301635	0.406093	0.737727
C138	C	1.634968	0.739426	1.071060
C139	C	0.912673	0.128363	0.441994
C140	C	1.246007	0.461696	0.775327
C141	C	1.579340	0.795030	1.108660
C142	C	0.861367	0.179633	0.389389
C143	C	1.194700	0.512966	0.722723
C144	C	1.528034	0.846299	1.056056
C145	C	0.865694	0.175297	0.299192
C146	C	1.199028	0.508630	0.632525
C147	C	1.532361	0.841964	0.965858
C148	C	0.893994	0.147057	0.710950
C149	C	1.227328	0.480390	1.044284
C150	C	1.560661	0.813724	1.377617
C151	C	0.889672	0.151391	0.801155
C152	C	1.223006	0.484724	1.134488
C153	C	1.556339	0.818057	1.467822
C154	C	0.996607	0.044516	0.816153
C155	C	1.329940	0.377849	1.149486
C156	C	1.663273	0.711182	1.482820
C157	C	1.000932	0.040188	0.725953
C158	C	1.334266	0.373521	1.059286
C159	C	1.667599	0.706855	1.392619
C160	C	0.949623	0.091455	0.673356
C161	C	1.282957	0.424788	1.006690
C162	C	1.616290	0.758122	1.340023
N163	N	0.908247	0.132793	0.534192
N164	N	1.241580	0.466127	0.867525
N165	N	1.574914	0.799460	1.200859
N166	N	0.954046	0.087020	0.581160
N167	N	1.287380	0.420353	0.914493
N168	N	1.620713	0.753687	1.247826
H169	H	0.685137	0.120253	0.182345
H170	H	1.018470	0.453586	0.515679
H171	H	1.351804	0.786919	0.849012
Br172	Br	0.332910	0.118673	0.270629
Br173	Br	0.666243	0.452007	0.603962
Br174	Br	0.999576	0.785340	0.937295
Br175	Br	0.936069	-0.682044	-0.141962
Br176	Br	1.269402	-0.348710	0.191372
Br177	Br	1.602735	-0.015377	0.524705
H178	H	0.536022	0.117234	0.172087
H179	H	0.869355	0.450567	0.505420
H180	H	1.202688	0.783901	0.838754
Br181	Br	0.824364	0.216633	0.639575
Br182	Br	1.157698	0.549966	0.972908
Br183	Br	1.491031	0.883300	1.306241
H184	H	0.920798	-0.644105	0.182350
H185	H	1.254131	-0.310772	0.515684
H186	H	1.587465	0.022562	0.849017
H187	H	0.927818	-0.122477	0.216432
H188	H	1.261151	0.210856	0.549765
H189	H	1.594485	0.544189	0.883099
Br190	Br	1.076431	-0.035271	0.674922
Br191	Br	1.409765	0.298062	1.008255
Br192	Br	1.743098	0.631395	1.341589
Br193	Br	0.940097	-0.309543	-0.097617
Br194	Br	1.273431	0.023791	0.235716
Br195	Br	1.606764	0.357124	0.569049
H196	H	0.941501	-0.136074	-0.067006
H197	H	1.274834	0.197259	0.266328
H198	H	1.608168	0.530593	0.599661
H199	H	0.823919	0.217044	0.256367
H200	H	1.157252	0.550377	0.589700
H201	H	1.490586	0.883710	0.923033
Br202	Br	0.139156	0.114778	0.257303
Br203	Br	0.472489	0.448111	0.590636
Br204	Br	0.805822	0.781445	0.923970
H205	H	0.923799	-0.494985	0.172093
H206	H	1.257132	-0.161651	0.505427
H207	H	1.590466	0.171682	0.838760
Br208	Br	0.156881	0.097100	-0.110950
Br209	Br	0.490214	0.430434	0.222384
Br210	Br	0.823547	0.763767	0.555717
Br211	Br	0.814173	0.226863	0.852178
Br212	Br	1.147507	0.560196	1.185511
Br213	Br	1.480840	0.893530	1.518845
H214	H	1.010074	0.031013	0.447218
H215	H	1.343408	0.364346	0.780552
H216	H	1.676741	0.697679	1.113885
H217	H	0.326278	0.102561	-0.056751
H218	H	0.659612	0.435894	0.276582
H219	H	0.992945	0.769228	0.609915
H220	H	0.816069	0.224904	0.420009
H221	H	1.149403	0.558237	0.753342
H222	H	1.482736	0.891571	1.086675
Br223	Br	0.939952	-0.488285	-0.155288
Br224	Br	1.273286	-0.154952	0.178045
Br225	Br	1.606619	0.178381	0.511378
H226	H	0.924836	-0.271613	0.226687
H227	H	1.258169	0.061720	0.560020
H228	H	1.591502	0.395053	0.893353
H229	H	0.549657	0.103635	-0.111346
H230	H	0.882990	0.436969	0.221987
H231	H	1.216324	0.770302	0.555320
Br232	Br	1.048138	-0.007033	0.263175
Br233	Br	1.381471	0.326301	0.596508
Br234	Br	1.714804	0.659634	0.929841
Br235	Br	1.066236	-0.025059	0.887536
Br236	Br	1.399569	0.308274	1.220869
Br237	Br	1.732902	0.641607	1.554203
Br238	Br	0.723148	0.105039	-0.141963
Br239	Br	1.056481	0.438373	0.191371
Br240	Br	1.389814	0.771706	0.524704
