data_functionalizedCrystal
_audit_creation_method	'MofGen! by Chris Wilmer'
_symmetry_space_group_name_H-M	'P1'
_symmetry_Int_Tables_number	1
_symmetry_cell_setting	triclinic
loop_
_symmetry_equiv_pos_as_xyz
  x,y,z
_cell_length_a	13.262533
_cell_length_b	11.804365
_cell_length_c	8.559649
_cell_angle_alpha	100.144259
_cell_angle_beta	102.603255
_cell_angle_gamma	86.417682
loop_
_atom_site_label
_atom_site_type_symbol
_atom_site_fract_x
_atom_site_fract_y
_atom_site_fract_z
O1	O	1.298064	-0.321396	-0.319321
O2	O	1.012804	-0.229004	-0.312753
O3	O	1.180565	-0.283341	-0.086255
O4	O	1.130302	-0.267059	-0.545819
O5	O	1.136405	-0.467094	-0.145818
O6	O	0.968644	-0.412757	-0.372316
O7	O	1.253903	-0.505149	-0.378885
Cu8	Cu	1.107241	-0.475731	-0.381039
Cu9	Cu	1.159466	-0.258422	-0.310598
O10	O	1.086142	-0.450812	-0.605383
C11	C	0.954542	-0.309162	-0.337424
C12	C	0.846735	-0.274244	-0.322177
N13	N	1.070517	-0.628576	-0.430583
C14	C	0.446545	-0.576472	-0.409093
C15	C	0.547833	-0.609284	-0.423428
C16	C	0.622563	-0.525527	-0.398116
C17	C	0.595996	-0.408952	-0.358468
C18	C	0.494696	-0.376136	-0.344144
C19	C	0.670714	-0.325191	-0.333167
C20	C	0.644146	-0.208616	-0.293519
C21	C	0.542856	-0.175806	-0.279196
C22	C	0.468126	-0.259563	-0.304509
C23	C	0.772014	-0.358007	-0.347490
C24	C	0.820165	-0.157671	-0.282541
C25	C	0.718877	-0.124859	-0.268207
C26	C	1.284391	-1.071798	-0.142038
C27	C	1.312173	-0.956135	-0.104551
C28	C	1.251761	-0.874240	-0.186056
C29	C	1.163563	-0.908019	-0.305054
C30	C	1.135783	-1.023695	-0.342554
C31	C	1.103153	-0.826137	-0.386572
C32	C	1.014955	-0.859916	-0.505570
C33	C	0.987179	-0.975581	-0.543063
C34	C	1.047591	-1.057476	-0.461558
C35	C	1.130933	-0.710461	-0.349072
C36	C	0.982325	-0.662358	-0.549588
C37	C	0.954543	-0.778021	-0.587075
C38	C	1.312166	-0.424989	-0.354213
C39	C	1.419975	-0.459899	-0.369458
C40	C	1.162295	-0.376449	-0.056933
C41	C	1.173634	-0.380115	0.119177
N42	N	1.196199	-0.105579	-0.261043
C43	C	1.104413	-0.357701	-0.634703
C44	C	1.093075	-0.354028	-0.810811
H45	H	0.793634	-0.452923	-0.379775
H46	H	0.881010	-0.089469	-0.261936
Cl47	Cl	0.749899	-0.566779	-0.416133
H48	H	0.933133	-0.595678	-0.615959
H49	H	1.251280	-0.405273	0.193969
H50	H	1.024970	-1.151659	-0.492075
Cl51	Cl	0.581225	-0.755827	-0.473274
H52	H	0.521227	-0.080883	-0.246930
Cl53	Cl	0.876312	-1.018052	-0.692679
Cl54	Cl	0.685468	0.021686	-0.218339
Cl55	Cl	1.286685	-0.728832	-0.138923
Cl56	Cl	0.352595	-0.681750	-0.440931
H57	H	0.385649	-0.232854	-0.292824
H58	H	1.333575	-1.138484	-0.075697
Cl59	Cl	1.241805	-0.668009	-0.199478
H60	H	0.882730	-0.805539	-0.683967
Cl61	Cl	0.973195	-0.315203	0.073728
Cl62	Cl	1.423044	-0.913670	0.045037
