data_functionalizedCrystal
_audit_creation_method	'MofGen! by Chris Wilmer'
_symmetry_space_group_name_H-M	'P1'
_symmetry_Int_Tables_number	1
_symmetry_cell_setting	triclinic
loop_
_symmetry_equiv_pos_as_xyz
  x,y,z
_cell_length_a	14.809374
_cell_length_b	21.606444
_cell_length_c	21.606444
_cell_angle_alpha	60.000398
_cell_angle_beta	89.998829
_cell_angle_gamma	52.845983
loop_
_atom_site_label
_atom_site_type_symbol
_atom_site_fract_x
_atom_site_fract_y
_atom_site_fract_z
Zr1	Zr	0.990994	0.527971	-0.006465
O2	O	0.826736	0.681868	-0.117674
O3	O	1.041350	0.391256	0.027624
O4	O	1.041349	0.520378	-0.101493
O5	O	0.826736	0.552744	0.113296
O6	O	1.210638	0.494843	-0.088726
O7	O	0.826737	0.552746	0.011443
O8	O	1.210639	0.263868	0.142241
O9	O	0.826734	0.783719	-0.117671
O10	O	1.189162	0.422068	0.051694
O11	O	1.062823	0.441123	0.118178
O12	O	1.062822	0.593147	-0.033841
O13	O	0.936483	0.612202	0.032643
Zr14	Zr	1.260989	0.487242	0.176341
Zr15	Zr	1.260990	0.487245	0.013897
Zr16	Zr	0.990993	0.527967	0.155979
Zr17	Zr	0.990991	0.690411	-0.006460
Zr18	Zr	1.260992	0.324801	0.176336
O19	O	1.210633	0.623956	0.142252
O20	O	1.210635	0.623961	-0.088722
O21	O	0.826733	0.681863	0.113300
O22	O	1.425247	0.333345	0.287550
O23	O	1.425250	0.333350	0.056576
O24	O	1.041347	0.391251	0.258598
O25	O	1.425247	0.462468	0.056580
O26	O	1.210634	0.494835	0.271369
O27	O	1.041345	0.520370	0.258602
O28	O	1.425246	0.462466	0.158433
O29	O	1.041345	0.751348	-0.101486
O30	O	1.210638	0.263865	0.271362
O31	O	1.425249	0.231494	0.287547
O32	O	1.425250	0.231496	0.158426
O33	O	0.826733	0.783716	0.011451
O34	O	1.041344	0.751345	0.027635
O35	O	1.189161	0.422065	0.203717
O36	O	1.315500	0.403010	0.137233
O37	O	1.189160	0.574089	0.051698
O38	O	1.062821	0.593144	0.118182
C39	C	1.125995	0.304418	0.084932
C40	C	1.125996	0.235457	0.084930
C41	C	0.788267	0.558548	0.059469
C42	C	0.673647	0.575837	0.050825
C43	C	1.191941	0.193114	0.050224
C44	C	1.191946	0.128313	0.050230
C45	C	1.125997	0.105863	0.084936
C46	C	1.060050	0.148209	0.119646
C47	C	1.060054	0.213003	0.119645
C48	C	1.060035	-0.113098	0.119651
C49	C	1.060034	-0.177895	0.119647
C50	C	1.191927	-0.197788	0.050236
C51	C	1.191931	-0.132994	0.050235
C52	C	1.125990	-0.090657	0.084948
C53	C	1.125988	-0.020395	0.084943
C54	C	1.125991	0.035607	0.084936
C55	C	0.685219	0.498678	0.089402
C56	C	0.566754	0.516545	0.080469
C57	C	1.463716	0.456665	0.110407
C58	C	1.578336	0.439376	0.119051
C59	C	1.125994	0.507611	-0.118254
C60	C	1.125994	0.507612	-0.187216
C61	C	1.125988	0.710795	0.084944
C62	C	1.125987	0.779755	0.084947
C63	C	1.219257	0.493546	-0.212581
C64	C	1.219260	0.493540	-0.277374
C65	C	1.125996	0.507606	-0.316804
C66	C	1.032728	0.521670	-0.291434
C67	C	1.032731	0.521669	-0.226638
C68	C	1.032718	0.521671	-0.552745
C69	C	1.032720	0.521673	-0.617545
C70	C	1.219247	0.493541	-0.603480
C71	C	1.219250	0.493541	-0.538685
C72	C	1.125987	0.507599	-0.513317
C73	C	1.125985	0.507604	-0.443061
C74	C	1.125991	0.507608	-0.387063
C75	C	1.125989	0.507602	0.288131
C76	C	1.125989	0.507600	0.357092
C77	C	1.463719	0.253476	0.110401
C78	C	1.578341	0.167227	0.119043
C79	C	1.125993	0.304413	0.288124
C80	C	1.125993	0.235451	0.357084
C81	C	1.463717	0.253472	0.313594
C82	C	1.578338	0.167221	0.391197
C83	C	0.788266	0.761741	-0.143717
C84	C	0.673645	0.847992	-0.221321
C85	C	0.788264	0.761736	0.059475
C86	C	0.673642	0.847985	0.050833
C87	C	1.125990	0.710799	-0.118248
C88	C	1.125989	0.779761	-0.187208
C89	C	1.566221	0.136671	0.078444
C90	C	1.673910	0.055642	0.086548
C91	C	1.793717	0.005164	0.135256
C92	C	1.805834	0.035726	0.175856
C93	C	1.698147	0.116759	0.167747
C94	C	1.191941	0.193118	0.434126
C95	C	1.191936	0.128331	0.498926
C96	C	1.125992	0.105873	0.486684
C97	C	1.060036	0.148214	0.409634
C98	C	1.060034	0.213005	0.344835
C99	C	1.698124	0.116768	0.392937
C100	C	1.805833	0.035734	0.465849
C101	C	1.793753	0.005149	0.537019
C102	C	1.673954	0.055610	0.535276
C103	C	1.566248	0.136647	0.462366
C104	C	0.553859	0.898452	-0.223061
C105	C	0.446150	0.979506	-0.295973
C106	C	0.458230	1.010095	-0.367143
C107	C	0.578029	0.959630	-0.365400
C108	C	0.685735	0.878581	-0.292490
C109	C	0.685761	0.878548	0.091426
C110	C	0.578073	0.959595	0.083304
C111	C	0.458265	1.010075	0.034593
C112	C	0.446149	0.979510	-0.006004
C113	C	0.553836	0.898468	0.002114
C114	C	1.191947	0.802197	-0.174940
C115	C	1.191971	0.866981	-0.239727
C116	C	1.126030	0.909335	-0.316781
C117	C	1.060070	0.886893	-0.329047
C118	C	1.060054	0.822104	-0.264261
H119	H	1.245638	0.211392	0.021958
F120	F	1.262138	0.217003	0.447173
H121	H	0.783267	0.837496	-0.291082
F122	F	0.343664	1.096326	0.025962
F123	F	1.262113	-0.242855	0.013293
F124	F	0.813259	0.824838	0.143270
F125	F	0.540918	0.865946	-0.041089
H126	H	0.576037	0.655122	0.011185
F127	F	1.262111	0.083267	0.013276
F128	F	1.318519	0.478582	-0.170625
H129	H	1.006382	0.921387	-0.391793
H130	H	1.245649	0.093862	0.561658
F131	F	1.438724	0.190382	0.026598
F132	F	0.989840	-0.201786	0.156589
H133	H	1.126052	0.962089	-0.369528
F134	F	0.540973	0.865912	-0.147325
H135	H	1.006336	0.247465	0.282106
H136	H	1.881465	-0.060838	0.596382
H137	H	1.903369	-0.005344	0.467254
F138	F	0.989859	-0.068051	0.156600
F139	F	0.705916	0.335734	0.170865
H140	H	0.587963	0.984467	0.116367
H141	H	1.295202	0.482085	-0.298025
F142	F	0.318630	1.033243	-0.057841
H143	H	1.245645	0.767721	-0.112204
F144	F	1.318510	0.478575	-0.496725
F145	F	1.262171	0.890857	-0.226656
F146	F	1.438765	0.190331	0.460526
H147	H	0.587850	0.984545	-0.423356
F148	F	0.318663	1.033199	-0.297811
F149	F	1.711065	0.149264	0.210967
H150	H	0.370518	1.076091	-0.426506
H151	H	0.956794	0.533117	-0.323539
F152	F	0.989838	0.798243	-0.277330
F153	F	0.933451	0.536644	-0.659509
F154	F	1.262116	-0.109100	0.013292
F155	F	0.933459	0.536637	-0.525754
F156	F	0.989880	0.124302	0.156595
F157	F	1.661117	0.023047	0.611028
H158	H	1.295191	0.482089	-0.624138
F159	F	0.933471	0.536636	-0.199642
H160	H	1.006351	0.247482	0.147903
H161	H	1.664020	0.030769	0.053485
H162	H	1.881394	-0.060817	0.141852
F163	F	1.933352	-0.018008	0.227695
F164	F	1.126006	0.036913	0.555658
H165	H	0.782829	0.419392	0.129046
H166	H	0.469143	0.595837	0.040827
H167	H	1.006346	0.129918	0.399678
H168	H	1.707984	0.141657	0.334995
