data_functionalizedCrystal
_audit_creation_method	'MofGen! by Chris Wilmer'
_symmetry_space_group_name_H-M	'P1'
_symmetry_Int_Tables_number	1
_symmetry_cell_setting	triclinic
loop_
_symmetry_equiv_pos_as_xyz
  x,y,z
_cell_length_a	18.050589
_cell_length_b	16.959455
_cell_length_c	16.959455
_cell_angle_alpha	89.997526
_cell_angle_beta	90.010492
_cell_angle_gamma	89.977010
loop_
_atom_site_label
_atom_site_type_symbol
_atom_site_fract_x
_atom_site_fract_y
_atom_site_fract_z
Zn1	Zn	-0.295867	-1.208239	0.446948
Zn2	Zn	-0.420033	-1.208173	0.314778
Zn3	Zn	-0.295850	-1.076097	0.314783
Zn4	Zn	-0.420008	-1.076014	0.446914
O5	O	-0.357940	-1.142131	0.380856
O6	O	-0.312355	-1.318841	0.429427
O7	O	-0.403564	-1.190660	0.204168
O8	O	-0.191928	-1.093689	0.332331
O9	O	-0.403580	-1.318792	0.332322
O10	O	-0.191940	-1.190773	0.429432
O11	O	-0.312327	-1.093624	0.204172
O12	O	-0.312303	-0.965475	0.332299
O13	O	-0.403537	-1.093547	0.557529
O14	O	-0.403521	-0.965414	0.429375
O15	O	-0.312331	-1.190692	0.557554
O16	O	-0.523955	-1.190579	0.332290
O17	O	-0.523936	-1.093482	0.429370
C18	C	-0.357908	-0.936765	0.380834
C19	C	-0.357912	-0.848908	0.380844
C20	C	-0.550892	-1.142035	0.380843
C21	C	-0.633438	-1.142067	0.380863
C22	C	-0.310380	-0.477440	0.330403
C23	C	-0.405513	-0.477425	0.431332
C24	C	-0.405506	-0.559971	0.431329
C25	C	-0.357935	-0.601255	0.380861
C26	C	-0.310372	-0.559993	0.330396
C27	C	-0.453073	-0.601238	0.481787
C28	C	-0.453068	-0.683789	0.481784
C29	C	-0.405493	-0.725075	0.431320
C30	C	-0.357927	-0.683809	0.380854
C31	C	-0.310357	-0.725093	0.330386
C32	C	-0.262787	-0.683828	0.279924
C33	C	-0.262797	-0.601279	0.279932
C34	C	-0.405483	-0.807624	0.431312
C35	C	-0.310349	-0.807646	0.330379
C36	C	-0.832905	-1.089318	0.433637
C37	C	-0.882328	-1.070071	0.361510
C38	C	-0.784568	-1.142145	0.380874
C39	C	-0.882226	-1.161430	0.453009
C40	C	-0.930553	-1.142218	0.380890
C41	C	-0.832904	-1.122860	0.308708
C42	C	-0.832798	-1.214253	0.400256
C43	C	-0.882199	-1.195033	0.328079
C44	C	-0.700470	-1.142100	0.380865
C45	C	-1.014650	-1.142263	0.380890
C46	C	-0.164234	-1.142248	0.380886
C47	C	-0.081688	-1.142298	0.380899
C48	C	-0.357933	-1.142118	0.587024
C49	C	-0.357930	-1.142112	0.674880
C50	C	-0.357963	-0.348299	0.380874
C51	C	-0.357950	-0.436156	0.380871
C52	C	-0.405437	-1.091545	1.046346
C53	C	-0.310463	-1.192703	1.046366
C54	C	-0.310457	-1.192701	0.963821
C55	C	-0.357942	-1.142120	0.922533
C56	C	-0.405434	-1.091542	0.963792
C57	C	-0.262972	-1.243283	0.922556
C58	C	-0.262964	-1.243283	0.840005
C59	C	-0.310447	-1.192698	0.798716
C60	C	-0.357939	-1.142117	0.839980
C61	C	-0.405424	-1.091537	0.798693
C62	C	-0.452914	-1.040952	0.839955
C63	C	-0.452916	-1.040957	0.922503
C64	C	-0.310445	-1.192693	0.716168
C65	C	-0.405421	-1.091534	0.716139
C66	C	-0.357960	-1.142133	1.175489
C67	C	-0.357952	-1.142125	1.087633
H68	H	-0.271607	-0.841254	0.289287
N69	N	-0.454113	-0.435256	0.482869
N70	N	-0.501403	-0.389178	0.454974
H71	H	-0.535729	-0.359393	0.491373
N72	N	-0.454057	-0.849773	0.482863
N73	N	-0.427996	-0.895845	0.533281
H74	H	-0.462302	-0.925613	0.569694
H75	H	-0.491807	-0.567619	0.522869
N76	N	-0.805852	-1.102344	0.232162
N77	N	-0.822147	-1.143974	0.173870
H78	H	-0.803039	-1.129482	0.119811
H79	H	-0.811027	-1.275184	0.416670
N80	N	-0.501662	-0.725924	0.533332
N81	N	-0.544132	-0.689053	0.578386
H82	H	-0.578452	-0.718811	0.614793
H83	H	-0.903891	-1.177713	0.514007
N84	N	-0.805757	-1.033189	0.489531
N85	N	-0.821666	-0.961824	0.482202
H86	H	-0.802492	-0.922181	0.521674
H87	H	-0.903706	-1.239739	0.283414
H88	H	-0.491580	-0.999773	0.806328
N89	N	-0.214195	-0.725988	0.228363
N90	N	-0.219012	-0.716757	0.155418
H91	H	-0.184693	-0.746534	0.119004
N92	N	-0.214215	-0.559116	0.228395
N93	N	-0.214233	-0.485412	0.228408
H94	H	-0.179923	-0.455631	0.192009
N95	N	-0.909614	-0.993609	0.340950
N96	N	-0.893835	-0.935336	0.382829
H97	H	-0.913103	-0.881332	0.368314
N98	N	-0.453926	-1.039854	0.673981
N99	N	-0.496317	-0.994695	0.710833
H100	H	-0.530574	-0.958195	0.681060
H101	H	-0.491582	-0.999776	0.956107
N102	N	-0.453934	-1.039875	1.088500
N103	N	-0.453930	-1.039876	1.162204
H104	H	-0.488181	-1.003383	1.191978
H105	H	-0.224317	-1.284468	0.956178
N106	N	-0.261973	-1.244370	1.088549
N107	N	-0.261988	-1.244370	1.162253
H108	H	-0.227741	-1.280862	1.192048
H109	H	-0.271782	-1.233881	0.682575
N110	N	-0.214462	-1.294945	0.797846
N111	N	-0.240594	-1.345293	0.751771
H112	H	-0.206338	-1.381778	0.721994
N113	N	-0.261791	-0.435282	0.278869
N114	N	-0.261796	-0.361578	0.278883
H115	H	-0.227479	-0.331802	0.242488
