data_functionalizedCrystal
_audit_creation_method	'MofGen! by Chris Wilmer'
_symmetry_space_group_name_H-M	'P1'
_symmetry_Int_Tables_number	1
_symmetry_cell_setting	triclinic
loop_
_symmetry_equiv_pos_as_xyz
  x,y,z
_cell_length_a	19.805405
_cell_length_b	21.395364
_cell_length_c	21.395355
_cell_angle_alpha	90.025298
_cell_angle_beta	89.980090
_cell_angle_gamma	89.956889
loop_
_atom_site_label
_atom_site_type_symbol
_atom_site_fract_x
_atom_site_fract_y
_atom_site_fract_z
Zn1	Zn	-0.269240	-0.957878	-0.354268
Zn2	Zn	0.064093	-0.624545	-0.020935
Zn3	Zn	0.397427	-0.291211	0.312399
Zn4	Zn	-0.382410	-0.957788	-0.249488
Zn5	Zn	-0.049076	-0.624455	0.083845
Zn6	Zn	0.284257	-0.291122	0.417179
Zn7	Zn	-0.269273	-0.853093	-0.249503
Zn8	Zn	0.064060	-0.519760	0.083830
Zn9	Zn	0.397394	-0.186426	0.417163
Zn10	Zn	-0.382425	-0.853070	-0.354227
Zn11	Zn	-0.049092	-0.519737	-0.020893
Zn12	Zn	0.284241	-0.186403	0.312440
O13	O	-0.325837	-0.905457	-0.301871
O14	O	0.007496	-0.572124	0.031462
O15	O	0.340830	-0.238791	0.364795
O16	O	-0.284232	-1.045544	-0.340379
O17	O	0.049102	-0.712211	-0.007046
O18	O	0.382435	-0.378877	0.326287
O19	O	-0.367409	-0.943872	-0.161812
O20	O	-0.034076	-0.610539	0.171521
O21	O	0.299257	-0.277206	0.504855
O22	O	-0.174552	-0.867040	-0.263424
O23	O	0.158781	-0.533707	0.069909
O24	O	0.492115	-0.200373	0.403242
O25	O	-0.367377	-1.045478	-0.263398
O26	O	-0.034044	-0.712145	0.069935
O27	O	0.299289	-0.378811	0.403269
O28	O	-0.174528	-0.944025	-0.340394
O29	O	0.158806	-0.610692	-0.007061
O30	O	0.492139	-0.277358	0.326272
O31	O	-0.284288	-0.866953	-0.161823
O32	O	0.049045	-0.533620	0.171510
O33	O	0.382378	-0.200286	0.504843
O34	O	-0.284303	-0.765412	-0.263384
O35	O	0.049030	-0.432079	0.069949
O36	O	0.382363	-0.098745	0.403282
O37	O	-0.367404	-0.867001	-0.441910
O38	O	-0.034070	-0.533668	-0.108577
O39	O	0.299263	-0.200334	0.224757
O40	O	-0.367436	-0.765395	-0.340324
O41	O	-0.034102	-0.432062	-0.006991
O42	O	0.299231	-0.098728	0.326343
O43	O	-0.284247	-0.944003	-0.441940
O44	O	0.049086	-0.610670	-0.108607
O45	O	0.382420	-0.277336	0.224726
O46	O	-0.477128	-0.943850	-0.263358
O47	O	-0.143795	-0.610517	0.069975
O48	O	0.189538	-0.277183	0.403309
O49	O	-0.477140	-0.866914	-0.340309
O50	O	-0.143807	-0.533581	-0.006976
O51	O	0.189527	-0.200247	0.326358
C52	C	-0.325875	-0.742670	-0.301852
C53	C	0.007458	-0.409336	0.031482
C54	C	0.340791	-0.076003	0.364815
C55	C	-0.325908	-0.673028	-0.301858
C56	C	0.007425	-0.339695	0.031475
C57	C	0.340759	-0.006362	0.364809
C58	C	-0.282686	-0.640372	-0.342004
C59	C	0.050647	-0.307039	-0.008671
C60	C	0.383980	0.026295	0.324663
C61	C	-0.282670	-0.574936	-0.342005
C62	C	0.050663	-0.241603	-0.008672
C63	C	0.383996	0.091730	0.324661
C64	C	-0.325888	-0.542160	-0.301868
C65	C	0.007445	-0.208827	0.031466
C66	C	0.340778	0.124507	0.364799
C67	C	-0.369113	-0.574824	-0.261714
C68	C	-0.035780	-0.241491	0.071619
C69	C	0.297553	0.091842	0.404952
C70	C	-0.369123	-0.640259	-0.261709
C71	C	-0.035790	-0.306925	0.071624
C72	C	0.297544	0.026408	0.404957
C73	C	-0.386846	-0.438440	-0.296828
C74	C	-0.053513	-0.105107	0.036506
C75	C	0.279820	0.228227	0.369839
C76	C	-0.386838	-0.373007	-0.296837
C77	C	-0.053504	-0.039674	0.036497
C78	C	0.279829	0.293660	0.369830
C79	C	-0.325858	-0.340339	-0.301879
C80	C	0.007475	-0.007006	0.031454
C81	C	0.340809	0.326327	0.364788
C82	C	-0.264885	-0.373113	-0.306925
C83	C	0.068448	-0.039779	0.026408
C84	C	0.401782	0.293554	0.359741
C85	C	-0.264895	-0.438547	-0.306921
C86	C	0.068439	-0.105214	0.026413
C87	C	0.401772	0.228120	0.359746
C88	C	-0.325882	-0.471208	-0.301868
C89	C	0.007451	-0.137874	0.031465
C90	C	0.340784	0.195459	0.364798
C91	C	-0.282615	-0.236730	-0.342029
C92	C	0.050718	0.096603	-0.008695
C93	C	0.384052	0.429936	0.324638
C94	C	-0.282598	-0.171294	-0.342026
C95	C	0.050735	0.162040	-0.008693
C96	C	0.384069	0.495373	0.324641
C97	C	-0.369047	-0.171183	-0.261738
C98	C	-0.035714	0.162150	0.071595
C99	C	0.297619	0.495484	0.404929
C100	C	-0.369058	-0.236618	-0.261738
C101	C	-0.035725	0.096715	0.071596
C102	C	0.297609	0.430048	0.404929
C103	C	-0.325843	-0.269388	-0.301886
C104	C	0.007490	0.063945	0.031447
C105	C	0.340824	0.397279	0.364780
C106	C	-0.501693	-0.905387	-0.301841
C107	C	-0.168360	-0.572053	0.031492
C108	C	0.164974	-0.238720	0.364826
C109	C	-0.576925	-0.905414	-0.301849
C110	C	-0.243592	-0.572081	0.031484
C111	C	0.089742	-0.238747	0.364818
C112	C	-0.612241	-0.945513	-0.261823
C113	C	-0.278907	-0.612180	0.071511
C114	C	0.054426	-0.278847	0.404844
C115	C	-0.682929	-0.945540	-0.261836
C116	C	-0.349596	-0.612207	0.071497
C117	C	-0.016263	-0.278873	0.404830
C118	C	-0.718301	-0.905464	-0.301874
C119	C	-0.384967	-0.572130	0.031459
C120	C	-0.051634	-0.238797	0.364793
C121	C	-0.682980	-0.865362	-0.341905
C122	C	-0.349647	-0.532029	-0.008572
C123	C	-0.016313	-0.198696	0.324762
C124	C	-0.612293	-0.865339	-0.341894
C125	C	-0.278959	-0.532006	-0.008561
C126	C	0.054374	-0.198673	0.324773
C127	C	-0.968053	-0.865455	-0.341951
C128	C	-0.634720	-0.532121	-0.008618
C129	C	-0.301386	-0.198788	0.324715
C130	C	-1.038745	-0.865479	-0.341958
C131	C	-0.705412	-0.532146	-0.008625
C132	C	-0.372079	-0.198813	0.324708
C133	C	-1.038690	-0.945655	-0.261894
C134	C	-0.705356	-0.612322	0.071439
C135	C	-0.372023	-0.278989	0.404773
C136	C	-0.968002	-0.945632	-0.261883
C137	C	-0.634669	-0.612299	0.071450
C138	C	-0.301336	-0.278966	0.404784
C139	C	-0.932688	-0.905534	-0.301916
C140	C	-0.599355	-0.572200	0.031418
C141	C	-0.266021	-0.238867	0.364751
C142	C	-0.856040	-0.905506	-0.301901
C143	C	-0.522706	-0.572173	0.031432
C144	C	-0.189373	-0.238840	0.364765
C145	C	-0.794948	-0.905487	-0.301886
C146	C	-0.461614	-0.572154	0.031447
C147	C	-0.128281	-0.238821	0.364781
C148	C	-0.149294	-0.905545	-0.301916
C149	C	0.184039	-0.572212	0.031418
C150	C	0.517372	-0.238878	0.364751
C151	C	-0.074062	-0.905583	-0.301934
C152	C	0.259271	-0.572249	0.031399
C153	C	0.592604	-0.238916	0.364732
C154	C	-0.325823	-0.905509	-0.465295
C155	C	0.007510	-0.572176	-0.131961
C156	C	0.340843	-0.238843	0.201372
C157	C	-0.325817	-0.905531	-0.534936
C158	C	0.007516	-0.572198	-0.201603
C159	C	0.340849	-0.238865	0.131731
C160	C	-0.325807	-0.068881	-0.301888
C161	C	0.007526	0.264453	0.031445
C162	C	0.340859	0.597786	0.364778
C163	C	-0.325816	-0.138522	-0.301887
C164	C	0.007517	0.194812	0.031446
C165	C	0.340851	0.528145	0.364780
C166	C	-0.282516	-0.945625	-0.567666
C167	C	0.050817	-0.612291	-0.234333
C168	C	0.384151	-0.278958	0.099001
C169	C	-0.282487	-0.945624	-0.633101
C170	C	0.050847	-0.612290	-0.299768
C171	C	0.384180	-0.278957	0.033565
C172	C	-0.325771	-0.905536	-0.665804
C173	C	0.007562	-0.572203	-0.332471
C174	C	0.340895	-0.238870	0.000862
C175	C	-0.369076	-0.865435	-0.633067
C176	C	-0.035743	-0.532102	-0.299733
C177	C	0.297591	-0.198769	0.033600
C178	C	-0.369099	-0.865433	-0.567632
C179	C	-0.035766	-0.532100	-0.234299
C180	C	0.297568	-0.198766	0.099034
C181	C	-0.386717	-0.900565	-0.769469
C182	C	-0.053384	-0.567231	-0.436135
C183	C	0.279949	-0.233898	-0.102802
C184	C	-0.386695	-0.900571	-0.834902
C185	C	-0.053362	-0.567238	-0.501568
C186	C	0.279971	-0.233905	-0.168235
C187	C	-0.325700	-0.905540	-0.867625
C188	C	0.007633	-0.572207	-0.534292
C189	C	0.340967	-0.238874	-0.200959
C190	C	-0.264724	-0.910515	-0.834908
C191	C	0.068609	-0.577182	-0.501575
C192	C	0.401942	-0.243849	-0.168241
C193	C	-0.264748	-0.910513	-0.769474
C194	C	0.068586	-0.577179	-0.436140
C195	C	0.401919	-0.243846	-0.102807
C196	C	-0.325751	-0.905534	-0.736757
C197	C	0.007582	-0.572201	-0.403424
C198	C	0.340916	-0.238868	-0.070090
C199	C	-0.282363	-0.945635	-0.971308
C200	C	0.050970	-0.612301	-0.637974
C201	C	0.384304	-0.278968	-0.304641
C202	C	-0.282333	-0.945629	-1.036744
C203	C	0.051001	-0.612296	-0.703411
C204	C	0.384334	-0.278963	-0.370078
C205	C	-0.368928	-0.865444	-1.036708
C206	C	-0.035595	-0.532111	-0.703375
C207	C	0.297739	-0.198778	-0.370042
C208	C	-0.368952	-0.865446	-0.971273
C209	C	-0.035619	-0.532113	-0.637940
C210	C	0.297714	-0.198779	-0.304606
C211	C	-0.325671	-0.905545	-0.938577
C212	C	0.007663	-0.572211	-0.605243
C213	C	0.340996	-0.238878	-0.271910
C214	C	-0.325802	-0.905442	-0.139084
C215	C	0.007531	-0.572108	0.194249
C216	C	0.340865	-0.238775	0.527583
C217	C	-0.325617	-0.905541	-0.069443
C218	C	0.007716	-0.572207	0.263890
C219	C	0.341050	-0.238874	0.597224
H220	H	-0.404301	-0.548134	-0.229033
H221	H	-0.070968	-0.214800	0.104300
H222	H	0.262365	0.118533	0.437633
H223	H	-0.247067	-0.978277	-1.063392
H224	H	0.086266	-0.644944	-0.730059
H225	H	0.419599	-0.311610	-0.396725
H226	H	-0.247471	-0.548342	-0.374696
H227	H	0.085863	-0.215009	-0.041363
H228	H	0.419196	0.118324	0.291971
H229	H	-0.247398	-0.144706	-0.374716
H230	H	0.085936	0.188627	-0.041383
H231	H	0.419269	0.521961	0.291950
N232	N	-0.415609	-0.822201	-1.071971
N233	N	-0.082276	-0.488867	-0.738638
N234	N	0.251057	-0.155534	-0.405305
H235	H	-0.409023	-0.828284	-1.118391
H236	H	-0.075690	-0.494950	-0.785057
H237	H	0.257643	-0.161617	-0.451724
H238	H	-0.463952	-0.831926	-1.060538
H239	H	-0.130619	-0.498593	-0.727205
H240	H	0.202715	-0.165260	-0.393872
N241	N	-0.929968	-0.822201	-0.385121
N242	N	-0.596635	-0.488868	-0.051787
N243	N	-0.263302	-0.155534	0.281546
H244	H	-0.942237	-0.831910	-0.429899
H245	H	-0.608903	-0.498576	-0.096565
H246	H	-0.275570	-0.165243	0.236768
H247	H	-0.942347	-0.777462	-0.375291
H248	H	-0.609014	-0.444129	-0.041957
H249	H	-0.275680	-0.110795	0.291376
N250	N	-0.721127	-0.822138	-0.385092
N251	N	-0.387793	-0.488804	-0.051758
N252	N	-0.054460	-0.155471	0.281575
H253	H	-0.771266	-0.828234	-0.379024
H254	H	-0.437933	-0.494901	-0.045691
H255	H	-0.104599	-0.161568	0.287643
H256	H	-0.708827	-0.777392	-0.375295
H257	H	-0.375494	-0.444058	-0.041962
H258	H	-0.042161	-0.110725	0.291371
H259	H	-0.215248	-0.465228	-0.311027
H260	H	0.118085	-0.131895	0.022306
H261	H	0.451418	0.201438	0.355639
N262	N	-0.415668	-0.822212	-0.935969
N263	N	-0.082335	-0.488878	-0.602635
N264	N	0.250998	-0.155545	-0.269302
H265	H	-0.409116	-0.828293	-0.889555
H266	H	-0.075783	-0.494960	-0.556221
H267	H	0.257551	-0.161627	-0.222888
H268	H	-0.405142	-0.777469	-0.947387
H269	H	-0.071809	-0.444136	-0.614054
H270	H	0.261524	-0.110802	-0.280720
H271	H	-0.247272	-0.978275	-0.541049
H272	H	0.086062	-0.644942	-0.207715
H273	H	0.419395	-0.311609	0.125618
N274	N	-0.574095	-0.988745	-0.218642
N275	N	-0.240762	-0.655412	0.114691
N276	N	0.092572	-0.322078	0.448024
H277	H	-0.523956	-0.982647	-0.224707
H278	H	-0.190622	-0.649314	0.108626
H279	H	0.142711	-0.315980	0.441960
H280	H	-0.586487	-0.979022	-0.173887
H281	H	-0.253154	-0.645689	0.159446
H282	H	0.080179	-0.312355	0.492780
N283	N	-0.574206	-0.822083	-0.385064
N284	N	-0.240872	-0.488750	-0.051731
N285	N	0.092461	-0.155416	0.281603
H286	H	-0.544926	-0.793051	-0.359570
H287	H	-0.211592	-0.459718	-0.026237
H288	H	0.121741	-0.126384	0.307097
H289	H	-0.544871	-0.847565	-0.414112
H290	H	-0.211537	-0.514231	-0.080779
H291	H	0.121796	-0.180898	0.252554
N292	N	-0.235781	-0.988868	-0.668414
N293	N	0.097552	-0.655535	-0.335080
N294	N	0.430886	-0.322202	-0.001747
H295	H	-0.208366	-1.014269	-0.637772
H296	H	0.124968	-0.680935	-0.304438
H297	H	0.458301	-0.347602	0.028895
H298	H	-0.263323	-1.017847	-0.695573
H299	H	0.070011	-0.684514	-0.362240
H300	H	0.403344	-0.351180	-0.028906
N301	N	-0.198988	-0.915880	-0.734185
N302	N	0.134345	-0.582547	-0.400851
N303	N	0.467679	-0.249213	-0.067518
H304	H	-0.160341	-0.919030	-0.764839
H305	H	0.172992	-0.585697	-0.431506
H306	H	0.506325	-0.252364	-0.098173
H307	H	-0.192722	-0.877708	-0.707019
H308	H	0.140612	-0.544374	-0.373686
H309	H	0.473945	-0.211041	-0.040352
N310	N	-0.198930	-0.915881	-0.870192
N311	N	0.134403	-0.582548	-0.536859
N312	N	0.467736	-0.249214	-0.203525
H313	H	-0.208165	-0.915125	-0.916609
H314	H	0.125168	-0.581792	-0.583275
H315	H	0.458502	-0.248459	-0.249942
H316	H	-0.168681	-0.879665	-0.858738
H317	H	0.164652	-0.546331	-0.525405
H318	H	0.497986	-0.212998	-0.192071
H319	H	-1.067543	-0.832845	-0.374566
H320	H	-0.734209	-0.499512	-0.041233
H321	H	-0.400876	-0.166178	0.292100
H322	H	-0.215229	-0.346516	-0.311032
H323	H	0.118104	-0.013183	0.022302
H324	H	0.451437	0.320150	0.355635
H325	H	-0.247117	-0.978282	-0.944685
H326	H	0.086216	-0.644948	-0.611352
H327	H	0.419550	-0.311615	-0.278018
N328	N	-0.236006	-0.272081	-0.385327
N329	N	0.097327	0.061253	-0.051994
N330	N	0.430661	0.394586	0.281340
H331	H	-0.208617	-0.241461	-0.410757
H332	H	0.124716	0.091872	-0.077424
H333	H	0.458049	0.425206	0.255910
H334	H	-0.204648	-0.299246	-0.359875
H335	H	0.128685	0.034088	-0.026541
H336	H	0.462018	0.367421	0.306792
H337	H	-0.404321	-0.666847	-0.229017
H338	H	-0.070987	-0.333514	0.104316
H339	H	0.262346	-0.000180	0.437650
N340	N	-0.415688	-0.271843	-0.218447
N341	N	-0.082355	0.061490	0.114887
N342	N	0.250978	0.394823	0.448220
H343	H	-0.409138	-0.318269	-0.224534
H344	H	-0.075804	0.015065	0.108799
H345	H	0.257529	0.348398	0.442133
H346	H	-0.405083	-0.260393	-0.173717
H347	H	-0.071750	0.072940	0.159617
H348	H	0.261584	0.406274	0.492950
N349	N	-0.415657	-0.135841	-0.218440
N350	N	-0.082324	0.197492	0.114893
N351	N	0.251010	0.530826	0.448226
H352	H	-0.409091	-0.089433	-0.224533
H353	H	-0.075758	0.243901	0.108800
H354	H	0.257575	0.577234	0.442134
H355	H	-0.464015	-0.147242	-0.228108
H356	H	-0.130682	0.186091	0.105225
H357	H	0.202652	0.519425	0.438558
H358	H	-0.436485	-0.346328	-0.292731
H359	H	-0.103152	-0.012995	0.040603
H360	H	0.230181	0.320339	0.373936
H361	H	-0.404360	-0.832781	-0.540984
H362	H	-0.071026	-0.499448	-0.207651
H363	H	0.262307	-0.166115	0.125683
H364	H	-0.436345	-0.896524	-0.861535
H365	H	-0.103012	-0.563191	-0.528202
H366	H	0.230321	-0.229858	-0.194868
H367	H	-0.711680	-0.978193	-0.229242
H368	H	-0.378347	-0.644859	0.104091
H369	H	-0.045013	-0.311526	0.437424
N370	N	-0.929856	-0.988862	-0.218702
N371	N	-0.596522	-0.655529	0.114632
N372	N	-0.263189	-0.322196	0.447965
H373	H	-0.900480	-1.017873	-0.244191
H374	H	-0.567147	-0.684539	0.089142
H375	H	-0.233813	-0.351206	0.422475
H376	H	-0.900612	-0.963363	-0.189645
H377	H	-0.567278	-0.630030	0.143688
H378	H	-0.233945	-0.296696	0.477022
H379	H	-1.067451	-0.978308	-0.229300
H380	H	-0.734118	-0.644975	0.104034
H381	H	-0.400784	-0.311642	0.437367
H382	H	-0.436374	-0.896351	-0.742830
H383	H	-0.103041	-0.563018	-0.409497
H384	H	0.230292	-0.229684	-0.076164
N385	N	-0.415751	-0.822187	-0.668334
N386	N	-0.082418	-0.488854	-0.335001
N387	N	0.250915	-0.155521	-0.001668
H388	H	-0.409165	-0.828271	-0.714754
H389	H	-0.075832	-0.494938	-0.381421
H390	H	0.257502	-0.161604	-0.048087
H391	H	-0.464096	-0.831905	-0.656903
H392	H	-0.130763	-0.498572	-0.323570
H393	H	0.202570	-0.165238	0.009764
H394	H	-0.247497	-0.667049	-0.374696
H395	H	0.085837	-0.333716	-0.041362
H396	H	0.419170	-0.000382	0.291971
H397	H	-0.436507	-0.465032	-0.292721
H398	H	-0.103173	-0.131699	0.040612
H399	H	0.230160	0.201634	0.373946
