data_functionalizedCrystal
_audit_creation_method	'MofGen! by Chris Wilmer'
_symmetry_space_group_name_H-M	'P1'
_symmetry_Int_Tables_number	1
_symmetry_cell_setting	triclinic
loop_
_symmetry_equiv_pos_as_xyz
  x,y,z
_cell_length_a	16.109301
_cell_length_b	8.559649
_cell_length_c	14.586319
_cell_angle_alpha	89.997976
_cell_angle_beta	89.999213
_cell_angle_gamma	76.620073
loop_
_atom_site_label
_atom_site_type_symbol
_atom_site_fract_x
_atom_site_fract_y
_atom_site_fract_z
O1	O	1.090046	0.205389	-0.076179
O2	O	0.846355	0.230950	-0.076193
O3	O	0.989670	-0.014444	-0.076183
O4	O	0.946731	0.450783	-0.076188
O5	O	0.989661	-0.014447	0.076297
O6	O	0.846347	0.230946	0.076288
O7	O	1.090037	0.205386	0.076302
Cu8	Cu	0.968191	0.218165	0.090218
Cu9	Cu	0.968201	0.218170	-0.090108
O10	O	0.946722	0.450779	0.076293
C11	C	0.815442	0.229912	0.000046
C12	C	0.723344	0.226808	0.000040
C13	C	0.492255	0.365202	0.000050
C14	C	0.405721	0.362273	0.000056
C15	C	0.444145	0.071122	0.000054
C16	C	0.530677	0.074053	0.000055
C17	C	0.554729	0.221098	0.000048
C18	C	0.381663	0.215238	0.000053
C19	C	0.287840	0.212061	0.000060
C20	C	0.648558	0.224275	0.000043
C21	C	0.992919	-0.073977	0.000055
C22	C	1.002605	-0.251362	0.000051
C23	C	1.120950	0.206423	0.000062
C24	C	1.213048	0.209527	0.000061
C25	C	0.943473	0.510312	0.000052
C26	C	0.933787	0.687697	0.000051
N27	N	0.968190	0.218161	0.217050
N28	N	0.968210	0.218161	-0.216940
C29	C	1.031666	0.109538	0.452060
C30	C	1.031669	0.109534	0.548041
C31	C	0.904727	0.326790	0.548043
C32	C	0.904722	0.326785	0.452063
C33	C	0.968196	0.218161	0.404074
C34	C	0.968204	0.218162	0.596035
C35	C	0.968206	0.218158	0.700102
C36	C	0.968193	0.218162	0.300001
H37	H	0.424550	-0.048597	0.000066
H38	H	0.853033	0.415240	0.412990
H39	H	1.083349	0.021087	0.412990
C40	C	0.799803	-0.228145	0.078425
C41	C	0.844241	-0.199546	0.000041
H42	H	0.744523	-0.158519	0.078420
H43	H	0.794784	-0.336543	0.078422
H44	H	0.829960	-0.208742	0.131593
H45	H	0.814088	-0.218962	-0.053127
H46	H	0.849256	-0.091123	0.000036
C47	C	1.102031	-0.461117	-0.078324
C48	C	1.092157	-0.364121	0.000057
H49	H	1.157318	-0.530720	-0.078322
H50	H	1.060163	-0.523112	-0.078314
H51	H	1.095323	-0.395295	-0.131494
H52	H	1.098859	-0.429943	0.053227
H53	H	1.134038	-0.302120	0.000055
H54	H	0.581547	-0.043302	0.000056
H55	H	1.083351	0.021081	0.587109
H56	H	0.853049	0.415232	0.587125
H57	H	0.354857	0.479618	0.000059
C58	C	0.445581	0.652695	0.000062
C59	C	0.518694	0.526831	0.000054
H60	H	0.461903	0.752479	0.000073
H61	H	0.412632	0.645506	-0.053108
H62	H	0.412629	0.645472	0.053239
H63	H	0.551643	0.534047	-0.053126
H64	H	0.551657	0.534023	0.053231
