data_functionalizedCrystal
_audit_creation_method	'MofGen! by Chris Wilmer'
_symmetry_space_group_name_H-M	'P1'
_symmetry_Int_Tables_number	1
_symmetry_cell_setting	triclinic
loop_
_symmetry_equiv_pos_as_xyz
  x,y,z
_cell_length_a	15.995350
_cell_length_b	15.944551
_cell_length_c	15.072220
_cell_angle_alpha	89.997918
_cell_angle_beta	89.991149
_cell_angle_gamma	83.495557
loop_
_atom_site_label
_atom_site_type_symbol
_atom_site_fract_x
_atom_site_fract_y
_atom_site_fract_z
O1	O	1.111002	0.108264	-0.073709
O2	O	1.611002	0.608264	0.426291
O3	O	0.867227	0.121634	-0.073728
O4	O	1.367227	0.621634	0.426272
O5	O	0.995772	-0.007326	-0.073710
O6	O	1.495772	0.492674	0.426290
O7	O	0.982458	0.237224	-0.073727
O8	O	1.482458	0.737224	0.426273
O9	O	0.995740	-0.007319	0.073855
O10	O	1.495740	0.492681	0.573855
O11	O	0.867196	0.121641	0.073837
O12	O	1.367196	0.621641	0.573837
O13	O	1.110970	0.108271	0.073856
O14	O	1.610970	0.608271	0.573856
Zn15	Zn	0.989078	0.114957	0.097276
Zn16	Zn	1.489078	0.614957	0.597276
Zn17	Zn	0.989120	0.114948	-0.097148
Zn18	Zn	1.489120	0.614948	0.402852
O19	O	0.982426	0.237232	0.073838
O20	O	1.482426	0.737232	0.573838
C21	C	0.836017	0.121085	0.000053
C22	C	1.336017	0.621085	0.500053
C23	C	0.743066	0.119428	0.000046
C24	C	1.243066	0.619428	0.500046
C25	C	0.405318	0.113477	0.000065
C26	C	0.905318	0.613477	0.500065
C27	C	0.452747	0.021634	0.000400
C28	C	0.952747	0.521634	0.500400
C29	C	0.549438	0.023291	0.000061
C30	C	1.049438	0.523291	0.500061
C31	C	0.572879	0.116429	0.000056
C32	C	1.072879	0.616429	0.500056
C33	C	0.531813	0.161725	-0.084211
C34	C	1.031813	0.661725	0.415789
C35	C	0.435177	0.159417	-0.084275
C36	C	0.935177	0.659417	0.415725
C37	C	0.434802	0.161323	0.083534
C38	C	0.934802	0.661323	0.583534
C39	C	0.531747	0.161301	0.084642
C40	C	1.031747	0.661301	0.584642
C41	C	0.667577	0.118102	0.000048
C42	C	1.167577	0.618102	0.500048
C43	C	0.310620	0.111806	0.000067
C44	C	0.810620	0.611806	0.500067
C45	C	0.995203	-0.038616	0.000073
C46	C	1.495203	0.461384	0.500073
C47	C	0.993546	-0.131862	0.000073
C48	C	1.493546	0.368138	0.500073
C49	C	0.909908	-0.346714	0.000054
C50	C	1.409908	0.153286	0.500054
C51	C	0.948731	-0.407730	0.072816
C52	C	1.448731	0.092270	0.572816
C53	C	0.990548	-0.302588	0.000066
C54	C	1.490548	0.197412	0.500066
C55	C	0.948781	-0.407721	-0.072672
C56	C	1.448781	0.092279	0.427328
C57	C	0.987647	-0.467501	0.000055
C58	C	1.487647	0.032499	0.500055
C59	C	1.029394	-0.362376	0.072888
C60	C	1.529394	0.137624	0.572888
C61	C	1.029433	-0.362360	-0.072665
C62	C	1.529433	0.137640	0.427335
C63	C	1.068315	-0.423358	0.000114
C64	C	1.568315	0.076642	0.500114
C65	C	0.992217	-0.207586	0.000073
C66	C	1.492217	0.292414	0.500073
C67	C	0.985984	-0.562502	0.000055
C68	C	1.485984	-0.062502	0.500055
C69	C	1.142181	0.108821	0.000074
C70	C	1.642181	0.608821	0.500074
C71	C	1.235131	0.110478	0.000075
C72	C	1.735131	0.610478	0.500075
C73	C	0.982995	0.268522	0.000053
C74	C	1.482995	0.768522	0.500053
C75	C	0.984652	0.361768	0.000047
C76	C	1.484652	0.861768	0.500047
N77	N	0.989055	0.114963	0.229965
N78	N	1.489055	0.614963	0.729965
N79	N	0.989149	0.114935	-0.229836
N80	N	1.489149	0.614935	0.270164
C81	C	0.989118	0.114945	0.589166
C82	C	1.489118	0.614945	1.089166
C83	C	0.920105	0.183717	0.551550
C84	C	1.420105	0.683717	1.051550
C85	C	0.920264	0.183968	0.448724
C86	C	1.420264	0.683968	0.948724
C87	C	0.989086	0.114954	0.410962
C88	C	1.489086	0.614954	0.910962
C89	C	1.076452	0.134096	0.448258
C90	C	1.576452	0.634096	0.948258
C91	C	1.076065	0.134585	0.551116
C92	C	1.576065	0.634585	1.051116
C93	C	0.971544	0.026826	0.551271
C94	C	1.471544	0.526826	1.051271
C95	C	0.969539	0.027414	0.448407
C96	C	1.469539	0.527414	0.948407
C97	C	0.989074	0.114958	0.310249
C98	C	1.489074	0.614958	0.810249
C99	C	0.989136	0.114943	0.689879
C100	C	1.489136	0.614943	1.189879
H101	H	0.402933	0.226847	-0.088103
H102	H	0.902933	0.726847	0.411897
H103	H	0.905272	0.012886	0.424031
H104	H	1.405272	0.512886	0.924031
Cl105	Cl	1.049243	-0.052190	0.588827
Cl106	Cl	1.549243	0.447810	1.088827
H107	H	1.063459	-0.342384	0.134469
H108	H	1.563459	0.157616	0.634469
H109	H	0.577852	-0.012314	0.060467
H110	H	1.077852	0.487686	0.560467
H111	H	0.842972	-0.313403	0.000122
H112	H	1.342972	0.186597	0.500122
Cl113	Cl	0.896120	-0.438741	-0.167637
Cl114	Cl	1.396120	0.061259	0.332363
H115	H	0.545942	0.230150	-0.087348
H116	H	1.045942	0.730150	0.412652
Cl117	Cl	0.573794	0.110166	0.180890
Cl118	Cl	1.073794	0.610166	0.680890
Cl119	Cl	0.819985	0.166415	0.409790
Cl120	Cl	1.319985	0.666415	0.909790
Cl121	Cl	0.424122	-0.035044	0.093702
Cl122	Cl	0.924122	0.464956	0.593702
Cl123	Cl	1.042111	-0.055305	0.408741
Cl124	Cl	1.542111	0.444695	0.908741
H125	H	0.560199	0.130258	-0.146920
H126	H	1.060199	0.630258	0.353080
H127	H	0.416880	0.126380	-0.147262
H128	H	0.916880	0.626380	0.352738
Cl129	Cl	0.385771	0.265869	0.084409
Cl130	Cl	0.885771	0.765869	0.584409
H131	H	0.433164	-0.014912	-0.059693
H132	H	0.933164	0.485088	0.440307
H133	H	0.914610	-0.427834	0.134325
H134	H	1.414610	0.072166	0.634325
H135	H	0.414251	0.131301	0.147406
H136	H	0.914251	0.631301	0.647406
H137	H	0.931174	0.248741	0.577385
H138	H	1.431174	0.748741	1.077385
Cl139	Cl	1.082069	-0.331284	-0.167636
Cl140	Cl	1.582069	0.168716	0.332364
H141	H	0.547115	0.229220	0.089727
H142	H	1.047115	0.729220	0.589727
H143	H	0.931487	0.249360	0.424107
H144	H	1.431487	0.749360	0.924107
H145	H	0.577307	-0.012561	-0.060445
H146	H	1.077307	0.487439	0.439555
Cl147	Cl	1.171746	-0.474563	0.000181
Cl148	Cl	1.671746	0.025437	0.500181
Cl149	Cl	0.819511	0.166388	0.589751
Cl150	Cl	1.319511	0.666388	1.089751
Cl151	Cl	1.157637	0.058818	0.410497
Cl152	Cl	1.657637	0.558818	0.910497
Cl153	Cl	1.099973	0.233804	0.588141
Cl154	Cl	1.599973	0.733804	1.088141
Cl155	Cl	1.157658	0.060109	0.589537
Cl156	Cl	1.657658	0.560109	1.089537
H157	H	1.092308	0.197628	0.422486
H158	H	1.592308	0.697628	0.922486
H159	H	0.909220	0.008419	0.577258
H160	H	1.409220	0.508419	1.077258
