data_functionalizedCrystal
_audit_creation_method	'MofGen! by Chris Wilmer'
_symmetry_space_group_name_H-M	'P1'
_symmetry_Int_Tables_number	1
_symmetry_cell_setting	triclinic
loop_
_symmetry_equiv_pos_as_xyz
  x,y,z
_cell_length_a	6.817900
_cell_length_b	11.102244
_cell_length_c	10.773894
_cell_angle_alpha	95.421915
_cell_angle_beta	96.645922
_cell_angle_gamma	108.604870
loop_
_atom_site_label
_atom_site_type_symbol
_atom_site_fract_x
_atom_site_fract_y
_atom_site_fract_z
V1	V	-3.974355	-0.171168	-0.388941
O2	O	-3.936005	0.013031	-0.381540
O3	O	-3.952066	-0.344020	-0.386278
O4	O	-3.891312	-0.166427	-0.558573
O5	O	-3.997179	-0.165792	-0.208052
V6	V	-4.459089	-0.149385	-0.367306
O7	O	-4.232958	-0.218952	-0.436400
O8	O	-4.650684	-0.101602	-0.319847
O9	O	-4.258172	0.023467	-0.369969
O10	O	-4.614837	-0.333584	-0.374706
O11	O	-4.553663	-0.154762	-0.548194
O12	O	-4.318926	-0.154127	-0.197674
C13	C	-3.804539	-0.386223	-0.380141
C14	C	-3.867370	-0.527518	-0.379094
C15	C	-3.877003	-0.577130	-0.264371
C16	C	-3.936050	-0.709894	-0.263402
C17	C	-3.975818	-0.743423	-0.491890
C18	C	-3.916787	-0.610662	-0.492858
C19	C	-3.854035	-0.557774	-0.132454
C20	C	-3.913082	-0.690537	-0.131485
C21	C	-3.727041	-0.159684	-0.599919
C22	C	-3.740600	-0.156951	-0.738594
C23	C	-3.919391	-0.161687	-0.806457
C24	C	-3.933409	-0.158863	-0.949785
C25	C	-4.069043	0.065663	-0.376102
C26	C	-3.985448	0.206957	-0.377157
C27	C	-4.146541	-0.160874	-0.156321
C28	C	-4.112219	-0.163600	-0.017644
H29	H	-3.968781	-0.519226	-0.086841
H30	H	-4.254927	-0.169752	-0.969642
H31	H	-3.684584	-0.505519	-0.086895
C32	C	-3.906757	-0.556990	-0.617523
C33	C	-4.104715	-0.605471	-0.692079
C34	C	-4.095556	-0.556075	-0.806942
H35	H	-3.864654	-0.466025	-0.601999
H36	H	-3.808379	-0.581585	-0.660402
H37	H	-4.203061	-0.580869	-0.649209
H38	H	-4.146856	-0.696431	-0.707638
H39	H	-3.997178	-0.580669	-0.849821
H40	H	-4.053447	-0.465111	-0.791405
H41	H	-4.229861	-0.588971	-0.857547
C42	C	-3.550395	-0.148556	-0.802731
C43	C	-3.496421	-0.037091	-0.860389
C44	C	-3.321226	-0.029323	-0.919494
H45	H	-3.436220	-0.145877	-0.741697
H46	H	-3.582359	-0.221575	-0.864770
H47	H	-3.464446	0.035910	-0.798356
H48	H	-3.610545	-0.039745	-0.921441
H49	H	-3.353191	-0.102342	-0.981533
H50	H	-3.207066	-0.026647	-0.858452
H51	H	-3.284594	0.046299	-0.958631
H52	H	-4.016060	-0.811134	-0.584512
H53	H	-4.068289	-0.730775	-0.095176
H54	H	-3.780698	-0.714225	-0.075804
H55	H	-3.790701	-0.152708	-0.997789
C56	C	-4.109721	-0.170146	-0.742425
C57	C	-4.163755	-0.281641	-0.684817
C58	C	-4.339097	-0.289484	-0.625836
H59	H	-4.077953	-0.097180	-0.680372
H60	H	-4.223799	-0.172824	-0.803559
H61	H	-4.049702	-0.278952	-0.623689
H62	H	-4.195563	-0.354627	-0.746842
H63	H	-4.453176	-0.292163	-0.686971
H64	H	-4.307312	-0.216513	-0.563790
H65	H	-4.375794	-0.365139	-0.586753
