data_functionalizedCrystal
_audit_creation_method	'MofGen! by Chris Wilmer'
_symmetry_space_group_name_H-M	'P1'
_symmetry_Int_Tables_number	1
_symmetry_cell_setting	triclinic
loop_
_symmetry_equiv_pos_as_xyz
  x,y,z
_cell_length_a	9.065215
_cell_length_b	10.723024
_cell_length_c	9.798715
_cell_angle_alpha	90.001978
_cell_angle_beta	90.003160
_cell_angle_gamma	84.741283
loop_
_atom_site_label
_atom_site_type_symbol
_atom_site_fract_x
_atom_site_fract_y
_atom_site_fract_z
O1	O	1.959364	0.182966	0.113471
O2	O	1.529993	0.197979	0.113477
O3	O	1.754582	0.008936	0.113469
O4	O	1.734774	0.372008	0.113479
O5	O	1.754566	0.008936	-0.113513
O6	O	1.529976	0.197978	-0.113505
O7	O	1.959347	0.182965	-0.113511
Zn8	Zn	1.744659	0.190472	-0.149546
Zn9	Zn	1.744681	0.190473	0.149513
O10	O	1.734757	0.372008	-0.113503
C11	C	1.475006	0.196537	-0.000013
C12	C	1.311187	0.192225	-0.000011
C13	C	1.753132	-0.037569	-0.000020
C14	C	1.748820	-0.176141	-0.000015
C15	C	1.874488	-0.250614	-0.000015
C16	C	1.870033	-0.393836	-0.000010
C17	C	2.014334	0.184408	-0.000017
C18	C	2.178152	0.188719	-0.000011
C19	C	1.736207	0.418514	-0.000010
C20	C	1.740520	0.557085	-0.000006
N21	N	1.744654	0.190471	-0.353646
C22	C	1.838953	0.110745	-0.421426
C23	C	1.838977	0.110741	-0.578589
N24	N	1.744697	0.190464	0.353612
H25	H	1.977615	-0.457832	-0.000016
H26	H	1.632932	-0.378926	-0.000016
H27	H	1.663965	0.258728	-0.588108
H28	H	1.663933	0.258719	-0.411967
C29	C	1.948049	0.018526	-0.657322
C30	C	1.889023	-0.077312	-0.755649
C31	C	1.998100	-0.169531	-0.834384
C32	C	2.166202	-0.165912	-0.814793
C33	C	2.225237	-0.070070	-0.716461
C34	C	2.116160	0.022148	-0.637725
H35	H	1.764576	-0.079995	-0.770156
H36	H	1.954398	-0.240479	-0.907176
H37	H	2.246947	-0.234178	-0.873077
H38	H	2.349684	-0.067388	-0.701954
H39	H	2.159862	0.093097	-0.564934
C40	C	1.599008	-0.233232	-0.000011
C41	C	1.488759	-0.204436	-0.117875
C42	C	1.338943	-0.261523	-0.117870
C43	C	1.299376	-0.347407	-0.000001
C44	C	1.409628	-0.376207	0.117872
C45	C	1.559444	-0.319120	0.117867
H46	H	1.518046	-0.140856	-0.205137
H47	H	1.257327	-0.240202	-0.205129
H48	H	1.188473	-0.389666	0.000002
H49	H	1.380341	-0.439788	0.205134
H50	H	1.641060	-0.340441	0.205126
H51	H	1.919665	0.042487	-0.363106
H52	H	1.985375	-0.208343	-0.000025
