data_functionalizedCrystal
_audit_creation_method	'MofGen! by Chris Wilmer'
_symmetry_space_group_name_H-M	'P1'
_symmetry_Int_Tables_number	1
_symmetry_cell_setting	triclinic
loop_
_symmetry_equiv_pos_as_xyz
  x,y,z
_cell_length_a	12.759395
_cell_length_b	13.897448
_cell_length_c	13.897441
_cell_angle_alpha	90.030599
_cell_angle_beta	90.019501
_cell_angle_gamma	90.019229
loop_
_atom_site_label
_atom_site_type_symbol
_atom_site_fract_x
_atom_site_fract_y
_atom_site_fract_z
Zn1	Zn	1.606236	-0.383945	0.545349
Zn2	Zn	2.106236	0.116055	1.045349
Zn3	Zn	1.606121	-0.545266	0.384051
Zn4	Zn	2.106121	-0.045266	0.884051
Zn5	Zn	1.430538	-0.383991	0.384071
Zn6	Zn	1.930538	0.116009	0.884071
Zn7	Zn	1.430518	-0.545204	0.545307
Zn8	Zn	1.930518	-0.045204	1.045307
O9	O	1.518353	-0.464601	0.464695
O10	O	2.018353	0.035399	0.964695
O11	O	1.753242	-0.405351	0.523962
O12	O	2.253242	0.094649	1.023962
O13	O	1.582789	-0.523919	0.249072
O14	O	2.082789	-0.023919	0.749072
O15	O	1.453901	-0.249003	0.405492
O16	O	1.953901	0.250997	0.905492
O17	O	1.753157	-0.523873	0.405457
O18	O	2.253157	-0.023873	0.905457
O19	O	1.582986	-0.248969	0.523982
O20	O	2.082986	0.251031	1.023982
O21	O	1.453789	-0.405430	0.249087
O22	O	1.953789	0.094570	0.749087
O23	O	1.283514	-0.405370	0.405450
O24	O	1.783514	0.094630	0.905450
O25	O	1.453867	-0.523767	0.680294
O26	O	1.953867	-0.023767	1.180294
O27	O	1.283499	-0.523812	0.523909
O28	O	1.783499	-0.023812	1.023909
O29	O	1.582967	-0.405290	0.680326
O30	O	2.082967	0.094710	1.180326
O31	O	1.582770	-0.680240	0.405415
O32	O	2.082770	-0.180240	0.905415
O33	O	1.453755	-0.680194	0.523890
O34	O	1.953755	-0.180194	1.023890
C35	C	1.245386	-0.464590	0.464678
C36	C	1.745386	0.035410	0.964678
C37	C	1.128609	-0.464608	0.464694
C38	C	1.628609	0.035392	0.964694
C39	C	1.128632	-0.588141	0.587846
C40	C	1.628632	-0.088141	1.087846
C41	C	1.073783	-0.649915	0.649424
C42	C	1.573783	-0.149915	1.149424
C43	C	0.964062	-0.649927	0.649436
C44	C	1.464062	-0.149927	1.149436
C45	C	0.909187	-0.588156	0.587865
C46	C	1.409187	-0.088156	1.087865
C47	C	0.964036	-0.526382	0.526286
C48	C	1.464036	-0.026382	1.026286
C49	C	1.073760	-0.526379	0.526279
C50	C	1.573760	-0.026379	1.026279
C51	C	0.964012	-0.402845	0.403141
C52	C	1.464012	0.097155	0.903141
C53	C	1.073734	-0.402837	0.403122
C54	C	1.573734	0.097163	0.903122
C55	C	0.909137	-0.341074	0.341569
C56	C	1.409137	0.158926	0.841569
C57	C	0.963987	-0.279303	0.279984
C58	C	1.463987	0.220697	0.779984
C59	C	1.073715	-0.279295	0.279974
C60	C	1.573715	0.220705	0.779974
C61	C	1.128583	-0.341063	0.341544
C62	C	1.628583	0.158937	0.841544
C63	C	1.518277	-0.715216	0.464667
C64	C	2.018277	-0.215216	0.964667
C65	C	1.518340	-0.822430	0.464687
C66	C	2.018340	-0.322430	0.964687
C67	C	1.518450	-1.018725	0.464748
C68	C	2.018450	-0.518725	0.964748
C69	C	1.518386	-0.909492	0.464717
C70	C	2.018386	-0.409492	0.964717
C71	C	1.792387	-0.464614	0.464712
C72	C	2.292387	0.035386	0.964712
C73	C	1.909163	-0.464619	0.464719
C74	C	2.409163	0.035381	0.964719
C75	C	1.518428	-0.464516	0.716288
C76	C	2.018428	0.035484	1.216288
C77	C	1.518459	-0.464480	0.823502
C78	C	2.018459	0.035520	1.323502
C79	C	1.518459	-0.213008	0.464744
C80	C	2.018459	0.286992	0.964744
C81	C	1.518504	-0.105795	0.464765
C82	C	2.018504	0.394205	0.964765
C83	C	1.518339	-0.464617	0.214080
C84	C	2.018339	0.035383	0.714080
C85	C	1.518511	-0.464381	0.106867
C86	C	2.018511	0.035619	0.606867
C87	C	1.518488	-0.464415	1.019797
C88	C	2.018488	0.035585	1.519797
C89	C	1.518469	-0.464454	0.910564
C90	C	2.018469	0.035546	1.410564
H91	H	1.217973	-0.588145	0.587835
H92	H	1.717973	-0.088145	1.087835
H93	H	0.919299	-0.229010	0.229862
H94	H	1.419299	0.270990	0.729862
Br95	Br	1.148259	-0.733749	0.732977
Br96	Br	1.648259	-0.233749	1.232977
Br97	Br	0.889619	-0.733755	0.733016
Br98	Br	1.389619	-0.233755	1.233016
Br99	Br	0.760278	-0.588156	0.587899
Br100	Br	1.260278	-0.088156	1.087899
H101	H	0.819796	-0.341084	0.341587
H102	H	1.319796	0.158916	0.841587
Br103	Br	1.277492	-0.341063	0.341528
Br104	Br	1.777492	0.158937	0.841528
Br105	Br	1.148144	-0.195445	0.196406
Br106	Br	1.648144	0.304555	0.696406
