data_functionalizedCrystal
_audit_creation_method	'MofGen! by Chris Wilmer'
_symmetry_space_group_name_H-M	'P1'
_symmetry_Int_Tables_number	1
_symmetry_cell_setting	triclinic
loop_
_symmetry_equiv_pos_as_xyz
  x,y,z
_cell_length_a	17.038272
_cell_length_b	13.330367
_cell_length_c	14.853559
_cell_angle_alpha	89.997552
_cell_angle_beta	87.371505
_cell_angle_gamma	89.998118
loop_
_atom_site_label
_atom_site_type_symbol
_atom_site_fract_x
_atom_site_fract_y
_atom_site_fract_z
O1	O	1.037622	-0.083290	0.195789
O2	O	0.809988	-0.083320	0.192680
O3	O	0.929889	-0.083303	0.063462
O4	O	0.917721	-0.083307	0.325007
O5	O	0.929871	0.083544	0.063457
O6	O	0.809970	0.083528	0.192675
O7	O	1.037605	0.083557	0.195784
Cu8	Cu	0.923786	0.098777	0.194230
Cu9	Cu	0.923807	-0.098539	0.194235
O10	O	0.917704	0.083540	0.325002
C11	C	0.780847	0.000100	0.189850
C12	C	0.694043	0.000089	0.181414
N13	N	0.923777	0.237558	0.194226
N14	N	0.923821	-0.237321	0.194232
C15	C	0.644029	0.000088	0.258867
C16	C	0.562468	0.000102	0.250935
C17	C	0.530923	0.000109	0.165549
C18	C	0.580944	0.000113	0.088090
C19	C	0.662503	0.000106	0.096023
C20	C	0.285129	0.000137	0.137524
C21	C	0.203564	0.000140	0.129597
C22	C	0.185093	0.000132	0.292443
C23	C	0.266655	0.000119	0.300368
C24	C	0.316668	0.000128	0.222909
C25	C	0.447555	0.000120	0.157439
C26	C	0.400035	0.000124	0.231020
C27	C	1.066745	0.000135	0.198614
C28	C	1.153549	0.000140	0.207050
C29	C	0.929330	0.000119	0.029829
C30	C	0.927681	0.000113	-0.070379
C31	C	0.870712	0.710174	0.251428
C32	C	0.976922	0.710157	0.137036
C33	C	0.976913	0.605138	0.137032
C34	C	0.923804	0.552633	0.194229
C35	C	0.870703	0.605146	0.251428
C36	C	1.030018	0.552617	0.079840
C37	C	1.030012	0.447593	0.079835
C38	C	0.976898	0.395085	0.137028
C39	C	0.923795	0.447605	0.194229
C40	C	0.870685	0.395099	0.251425
C41	C	0.817577	0.447617	0.308623
C42	C	0.817589	0.552638	0.308621
C43	C	0.976887	0.290064	0.137029
C44	C	0.870676	0.290071	0.251426
C45	C	0.920697	-0.090837	-0.494078
C46	C	0.920678	0.091067	-0.494077
C47	C	0.922233	0.091068	-0.399927
C48	C	0.923020	0.000115	-0.352847
C49	C	0.922250	-0.090838	-0.399918
C50	C	0.922995	0.182020	-0.352848
C51	C	0.924550	0.182024	-0.258692
C52	C	0.925341	0.091071	-0.211611
C53	C	0.924573	0.000113	-0.258688
C54	C	0.925359	-0.090839	-0.211609
C55	C	0.924596	-0.181797	-0.258684
C56	C	0.923042	-0.181792	-0.352838
C57	C	0.926895	0.091065	-0.117458
C58	C	0.926912	-0.090841	-0.117450
C59	C	0.918262	0.000117	0.358635
C60	C	0.919911	0.000116	0.458843
H61	H	0.669705	0.000082	0.328398
H62	H	0.920033	0.165116	-0.532414
H63	H	0.521749	0.000101	0.314006
H64	H	1.073263	0.595371	0.033277
F65	F	1.086531	0.391707	0.018960
F66	F	0.547370	0.000127	-0.002785
F67	F	0.131860	0.000125	0.374874
F68	F	0.761061	0.391726	0.369499
F69	F	0.925358	0.278829	-0.208599
F70	F	0.927754	-0.187647	-0.067352
F71	F	1.033409	0.234177	0.076165
F72	F	0.925434	-0.278592	-0.208568
F73	F	0.922233	-0.278587	-0.402945
F74	F	0.922143	0.278810	-0.402956
F75	F	0.919892	-0.187636	-0.544179
H76	H	0.292332	0.000102	0.369899
F77	F	0.169994	0.000165	0.038713
H78	H	0.927499	0.165122	-0.079132
F79	F	0.761074	0.608535	0.369492
H80	H	0.325841	0.000144	0.074451
F81	F	0.715733	0.000110	0.013586
H82	H	0.827470	0.752936	0.297995
H83	H	0.425722	0.000123	0.300541
F84	F	0.814145	0.234199	0.312299
F85	F	0.413976	0.000124	0.066567
H86	H	1.020166	0.752910	0.090473
