data_functionalizedCrystal
_audit_creation_method	'MofGen! by Chris Wilmer'
_symmetry_space_group_name_H-M	'P1'
_symmetry_Int_Tables_number	1
_symmetry_cell_setting	triclinic
loop_
_symmetry_equiv_pos_as_xyz
  x,y,z
_cell_length_a	27.731994
_cell_length_b	26.809956
_cell_length_c	14.971486
_cell_angle_alpha	89.980527
_cell_angle_beta	96.882669
_cell_angle_gamma	90.014414
loop_
_atom_site_label
_atom_site_type_symbol
_atom_site_fract_x
_atom_site_fract_y
_atom_site_fract_z
O1	O	0.641445	0.041409	-0.106213
O2	O	1.141445	0.541409	0.393787
O3	O	0.500722	0.041425	-0.122446
O4	O	1.000722	0.541425	0.377554
O5	O	0.574855	0.041413	0.015932
O6	O	1.074855	0.541413	0.515932
O7	O	0.567312	0.041421	-0.244590
O8	O	1.067312	0.541421	0.255410
O9	O	0.574828	-0.041546	0.015969
O10	O	1.074828	0.458454	0.515969
O11	O	0.500696	-0.041534	-0.122409
O12	O	1.000696	0.458466	0.377591
O13	O	0.641418	-0.041550	-0.106176
O14	O	1.141418	0.458450	0.393824
Zn15	Zn	0.571052	-0.054714	-0.114286
Zn16	Zn	1.071052	0.445286	0.385714
Zn17	Zn	0.571088	0.054589	-0.114335
Zn18	Zn	1.071088	0.554589	0.385665
O19	O	0.567285	-0.041538	-0.244553
O20	O	1.067285	0.458462	0.255447
C21	C	0.482700	-0.000052	-0.122094
C22	C	0.982700	0.499948	0.377906
C23	C	0.429039	-0.000046	-0.121091
C24	C	0.929039	0.499954	0.378909
N25	N	0.571032	-0.129310	-0.114252
N26	N	1.071032	0.370690	0.385748
C27	C	0.096277	-0.045286	-0.114750
C28	C	0.596277	0.454714	0.385250
C29	C	-0.105399	-0.045292	-0.110935
C30	C	0.394601	0.454708	0.389065
O31	O	-0.131486	-0.083751	-0.110386
O32	O	0.368514	0.416249	0.389614
N33	N	-0.130601	-0.000071	-0.110482
N34	N	0.369399	0.499929	0.389518
C35	C	-0.105381	0.045155	-0.110976
C36	C	0.394619	0.545155	0.389024
O37	O	-0.131445	0.083618	-0.110494
O38	O	0.368555	0.583618	0.389506
C39	C	0.096294	0.045160	-0.114784
C40	C	0.596294	0.545160	0.385216
C41	C	0.121493	-0.000064	-0.115247
C42	C	0.621493	0.499936	0.384753
C43	C	0.121476	-0.090507	-0.115211
C44	C	0.621476	0.409493	0.384789
C45	C	0.171892	-0.090505	-0.116170
C46	C	0.671892	0.409495	0.383830
C47	C	0.197108	-0.045283	-0.116667
C48	C	0.697108	0.454717	0.383333
C49	C	0.171909	-0.000062	-0.116205
C50	C	0.671909	0.499938	0.383795
C51	C	0.121513	0.090385	-0.115272
C52	C	0.621513	0.590385	0.384728
C53	C	0.171936	0.090382	-0.116222
C54	C	0.671936	0.590382	0.383778
C55	C	0.197135	0.045158	-0.116685
C56	C	0.697135	0.545158	0.383315
C57	C	0.247540	0.045162	-0.117661
C58	C	0.747540	0.545162	0.382339
N59	N	0.272743	-0.000059	-0.118114
N60	N	0.772743	0.499941	0.381886
C61	C	0.247527	-0.045281	-0.117617
C62	C	0.747527	0.454719	0.382383
C63	C	-0.211264	0.045149	-0.108979
C64	C	0.288736	0.545149	0.391021
C65	C	-0.261683	0.045147	-0.108028
C66	C	0.238317	0.545147	0.391972
C67	C	-0.261697	-0.045299	-0.107985
C68	C	0.238303	0.454701	0.392015
C69	C	-0.211277	-0.045298	-0.108942
C70	C	0.288723	0.454702	0.391058
C71	C	-0.186061	-0.000072	-0.109432
C72	C	0.313939	0.499928	0.390568
C73	C	0.353403	-0.045274	-0.119631
C74	C	0.853403	0.454726	0.380369
C75	C	0.403823	-0.045268	-0.120594
C76	C	0.903823	0.454732	0.379406
C77	C	0.403833	0.045179	-0.120631
C78	C	0.903833	0.545179	0.379369
C79	C	0.353417	0.045173	-0.119674
C80	C	0.853417	0.545173	0.380326
C81	C	0.328204	-0.000057	-0.119171
C82	C	0.828204	0.499943	0.380829
O83	O	0.273660	0.083600	-0.118201
O84	O	0.773660	0.583600	0.381799
O85	O	0.273600	-0.083739	-0.118080
O86	O	0.773600	0.416261	0.381920
C87	C	0.045861	-0.045288	-0.113791
C88	C	0.545861	0.454712	0.386209
C89	C	0.020662	-0.000068	-0.113330
C90	C	0.520662	0.499932	0.386670
C91	C	0.045878	0.045154	-0.113827
C92	C	0.545878	0.545154	0.386173
C93	C	-0.029757	-0.000069	-0.112379
C94	C	0.470243	0.499931	0.387621
C95	C	-0.054973	-0.045291	-0.111882
C96	C	0.445027	0.454709	0.388118
C97	C	-0.029771	-0.090512	-0.112336
C98	C	0.470229	0.409488	0.387664
C99	C	0.020645	-0.090510	-0.113294
C100	C	0.520645	0.409490	0.386706
C101	C	0.020676	0.090375	-0.113374
C102	C	0.520676	0.590375	0.386626
C103	C	-0.029740	0.090370	-0.112416
C104	C	0.470260	0.590370	0.387584
C105	C	-0.054956	0.045147	-0.111919
C106	C	0.445044	0.545147	0.388081
C107	C	0.541733	-0.526201	-0.060428
C108	C	1.041733	-0.026201	0.439572
C109	C	0.541710	-0.317323	-0.060403
C110	C	1.041710	0.182677	0.439597
O111	O	0.516766	-0.290329	-0.014564
O112	O	1.016766	0.209671	0.485436
N113	N	0.571052	-0.291188	-0.114266
N114	N	1.071052	0.208812	0.385734
C115	C	0.600403	-0.317276	-0.168134
C116	C	1.100403	0.182724	0.331866
O117	O	0.625363	-0.290254	-0.213940
O118	O	1.125363	0.209746	0.286060
C119	C	0.600429	-0.526153	-0.168153
C120	C	1.100429	-0.026153	0.331847
C121	C	0.571081	-0.552285	-0.114294
C122	C	1.071081	-0.052285	0.385706
C123	C	0.512388	-0.552333	-0.006572
C124	C	1.012388	-0.052333	0.493428
C125	C	0.512392	-0.604550	-0.006582
C126	C	1.012392	-0.104550	0.493418
C127	C	0.541741	-0.630633	-0.060448
C128	C	1.041741	-0.130633	0.439552
C129	C	0.571085	-0.604501	-0.114304
C130	C	1.071085	-0.104501	0.385696
C131	C	0.629783	-0.552239	-0.222016
C132	C	1.129783	-0.052239	0.277984
C133	C	0.629787	-0.604462	-0.222014
C134	C	1.129787	-0.104462	0.277986
C135	C	0.600440	-0.630594	-0.168155
C136	C	1.100440	-0.130594	0.331845
C137	C	0.600438	-0.682801	-0.168181
C138	C	1.100438	-0.182801	0.331819
N139	N	0.571096	-0.708936	-0.114318
N140	N	1.071096	-0.208936	0.385682
C141	C	0.541748	-0.682852	-0.060452
C142	C	1.041748	-0.182852	0.439548
C143	C	0.600387	-0.207613	-0.168122
C144	C	1.100387	0.292387	0.331878
C145	C	0.600381	-0.155394	-0.168118
C146	C	1.100381	0.344606	0.331882
C147	C	0.541688	-0.155445	-0.060386
C148	C	1.041688	0.344555	0.439614
C149	C	0.541692	-0.207664	-0.060395
C150	C	1.041692	0.292336	0.439605
C151	C	0.571046	-0.233748	-0.114259
C152	C	1.071046	0.266252	0.385741
C153	C	0.541758	-0.792510	-0.060478
C154	C	1.041758	-0.292510	0.439522
C155	C	0.541763	-0.844731	-0.060496
C156	C	1.041763	-0.344731	0.439504
C157	C	0.600458	-0.844676	-0.168225
C158	C	1.100458	-0.344676	0.331775
C159	C	0.600451	-0.792459	-0.168211
C160	C	1.100451	-0.292459	0.331789
C161	C	0.571100	-0.766378	-0.114330
C162	C	1.071100	-0.266378	0.385670
O163	O	0.625373	-0.709828	-0.213988
O164	O	1.125373	-0.209828	0.286012
O165	O	0.516800	-0.709884	-0.014638
O166	O	1.016800	-0.209884	0.485362
C167	C	0.541729	-0.473985	-0.060417
C168	C	1.041729	0.026015	0.439583
C169	C	0.571073	-0.447852	-0.114273
C170	C	1.071073	0.052148	0.385727
C171	C	0.600422	-0.473936	-0.168139
C172	C	1.100422	0.026064	0.331861
C173	C	0.571066	-0.395633	-0.114270
C174	C	1.071066	0.104367	0.385730
C175	C	0.541718	-0.369549	-0.060404
C176	C	1.041718	0.130451	0.439596
C177	C	0.512376	-0.395684	-0.006541
C178	C	1.012376	0.104316	0.493459
C179	C	0.512380	-0.447901	-0.006551
C180	C	1.012380	0.052099	0.493449
C181	C	0.629763	-0.447801	-0.222002
C182	C	1.129763	0.052199	0.277998
C183	C	0.629757	-0.395585	-0.221988
C184	C	1.129757	0.104415	0.278012
C185	C	0.600408	-0.369501	-0.168122
C186	C	1.100408	0.130499	0.331878
C187	C	0.659440	-0.000072	-0.106527
C188	C	1.159440	0.499928	0.393473
C189	C	0.713101	-0.000075	-0.107531
C190	C	1.213101	0.499925	0.392469
C191	C	0.574504	-0.000066	0.049269
C192	C	1.074504	0.499934	0.549269
C193	C	0.573493	-0.000066	0.148550
C194	C	1.073493	0.499934	0.648550
N195	N	0.571112	0.129185	-0.114362
N196	N	1.071112	0.629185	0.385638
C197	C	0.567636	-0.000058	-0.277891
C198	C	1.067636	0.499942	0.222109
C199	C	0.568647	-0.000055	-0.377172
C200	C	1.068647	0.499945	0.122828
C201	C	0.617045	-0.000071	0.206479
C202	C	1.117045	0.499929	0.706479
C203	C	0.616092	-0.000066	0.299763
C204	C	1.116092	0.499934	0.799763
C205	C	0.571587	-0.000059	0.335117
C206	C	1.071587	0.499941	0.835117
C207	C	0.528033	-0.000052	0.277180
C208	C	1.028033	0.499948	0.777180
C209	C	0.528986	-0.000054	0.183898
C210	C	1.028986	0.499946	0.683898
C211	C	0.526049	-0.000050	0.471610
C212	C	1.026049	0.499950	0.971610
C213	C	0.525096	-0.000049	0.564899
C214	C	1.025096	0.499951	1.064899
C215	C	0.613155	-0.000062	0.587476
C216	C	1.113155	0.499938	1.087476
C217	C	0.614108	-0.000064	0.494194
C218	C	1.114108	0.499936	0.994194
C219	C	0.570553	-0.000058	0.436264
C220	C	1.070553	0.499942	0.936264
H221	H	0.332880	-0.082105	-0.119230
H222	H	0.832880	0.417895	0.380770
H223	H	0.041158	-0.127337	-0.113671
H224	H	0.541158	0.372663	0.386329
H225	H	0.101005	0.127211	-0.114895
H226	H	0.601005	0.627211	0.385105
O227	O	0.655420	-0.000041	0.643871
O228	O	1.155420	0.499959	1.143871
C229	C	0.645038	-0.000046	0.733786
C230	C	1.145038	0.499954	1.233786
H231	H	0.607073	0.015665	0.736813
H232	H	1.107073	0.515665	1.236813
H233	H	0.672802	0.024039	0.776430
H234	H	1.172802	0.524039	1.276430
H235	H	0.646842	-0.039844	0.760823
H236	H	1.146842	0.460156	1.260823
O237	O	0.483696	-0.000065	0.415463
O238	O	0.983696	0.499935	0.915463
C239	C	0.444210	-0.000047	0.466667
C240	C	0.944210	0.499953	0.966667
H241	H	0.456432	-0.015754	0.536481
H242	H	0.956432	0.484246	1.036481
H243	H	0.413684	-0.024129	0.431830
H244	H	0.913684	0.475871	0.931830
H245	H	0.430584	0.039755	0.473093
H246	H	0.930584	0.539755	0.973093
H247	H	0.488489	-0.531101	0.037297
H248	H	0.988489	-0.031101	0.537297
H249	H	0.624341	-0.771181	-0.212080
H250	H	1.124341	-0.271181	0.287920
H251	H	0.488856	-0.000052	0.593680
H252	H	0.988856	0.499948	1.093680
O253	O	0.628953	-0.870096	-0.220464
O254	O	1.128953	-0.370096	0.279536
C255	C	0.622653	-0.921789	-0.208931
C256	C	1.122653	-0.421789	0.291069
H257	H	0.608832	-0.928936	-0.141368
H258	H	1.108832	-0.428936	0.358632
H259	H	0.658883	-0.941624	-0.210699
H260	H	1.158883	-0.441624	0.289301
H261	H	0.595151	-0.936605	-0.265397
H262	H	1.095151	-0.436605	0.234603
H263	H	0.653285	-0.000080	0.177703
H264	H	1.153285	0.499920	0.677703
O265	O	0.658292	-0.370147	-0.274187
O266	O	1.158292	0.129853	0.225813
C267	C	0.691249	-0.339955	-0.219204
C268	C	1.191249	0.160045	0.280796
H269	H	0.676167	-0.332151	-0.153035
H270	H	1.176167	0.167849	0.346965
H271	H	0.696655	-0.303225	-0.255085
H272	H	1.196655	0.196775	0.244915
H273	H	0.727574	-0.360073	-0.205032
H274	H	1.227574	0.139927	0.294968
H275	H	0.488497	-0.625822	0.037279
H276	H	0.988497	-0.125822	0.537279
O277	O	0.658220	-0.526843	-0.274442
O278	O	1.158220	-0.026843	0.225558
C279	C	0.628787	-0.496625	-0.335858
C280	C	1.128787	0.003375	0.164142
H281	H	0.590330	-0.512367	-0.345969
H282	H	1.090330	-0.012367	0.154031
H283	H	0.644274	-0.496023	-0.403031
H284	H	1.144274	0.003977	0.096969
H285	H	0.627958	-0.457053	-0.308238
H286	H	1.127958	0.042947	0.191762
H287	H	0.650347	-0.000073	0.465413
H288	H	1.150347	0.499927	0.965413
H289	H	0.491797	-0.000043	0.305972
H290	H	0.991797	0.499957	0.805972
O291	O	0.486636	-0.000070	0.127749
O292	O	0.986636	0.499930	0.627749
C293	C	0.447150	-0.000051	0.178953
C294	C	0.947150	0.499949	0.678953
H295	H	0.459372	-0.015760	0.248766
H296	H	0.959372	0.484240	0.748766
H297	H	0.416623	-0.024130	0.144115
H298	H	0.916623	0.475870	0.644115
H299	H	0.433527	0.039751	0.185383
H300	H	0.933527	0.539751	0.685383
O301	O	0.513243	-0.233025	-0.007937
O302	O	1.013243	0.266975	0.492063
C303	C	0.526574	-0.220265	0.083026
C304	C	1.026574	0.279735	0.583026
H305	H	0.565546	-0.205899	0.092186
H306	H	1.065546	0.294101	0.592186
H307	H	0.523735	-0.254615	0.126998
H308	H	1.023735	0.245385	0.626998
H309	H	0.501220	-0.189967	0.103450
H310	H	1.001220	0.310033	0.603450
O311	O	0.428229	-0.089245	-0.120998
O312	O	0.928229	0.410755	0.379002
C313	C	0.395156	-0.129158	-0.120373
C314	C	0.895156	0.370842	0.379627
H315	H	0.361206	-0.115900	-0.091369
H316	H	0.861206	0.384100	0.408631
H317	H	0.412762	-0.160788	-0.077193
H318	H	0.912762	0.339212	0.422807
H319	H	0.384755	-0.143061	-0.192049
H320	H	0.884755	0.356939	0.307951
H321	H	0.517789	-0.134198	-0.016528
H322	H	1.017789	0.365802	0.483472
O323	O	-0.054248	0.134291	-0.112127
O324	O	0.445752	0.634291	0.387873
C325	C	-0.088858	0.137003	-0.189053
C326	C	0.411142	0.637003	0.310947
H327	H	-0.077474	0.111344	-0.243501
H328	H	0.422526	0.611344	0.256499
H329	H	-0.091242	0.177002	-0.215064
H330	H	0.408758	0.677002	0.284936
H331	H	-0.125843	0.124856	-0.170798
H332	H	0.374157	0.624856	0.329202
O333	O	0.196296	-0.134480	-0.116569
O334	O	0.696296	0.365520	0.383431
C335	C	0.163218	-0.174389	-0.115945
C336	C	0.663218	0.325611	0.384055
H337	H	0.129268	-0.161126	-0.086947
H338	H	0.629268	0.338874	0.413053
H339	H	0.180819	-0.206020	-0.072761
H340	H	0.680819	0.293980	0.427239
H341	H	0.152818	-0.188293	-0.187621
H342	H	0.652818	0.311707	0.312379
O343	O	0.628929	-0.130089	-0.220469
O344	O	1.128929	0.369911	0.279531
C345	C	0.654824	-0.164316	-0.268024
C346	C	1.154824	0.335684	0.231976
H347	H	0.657624	-0.201545	-0.230958
H348	H	1.157624	0.298455	0.269042
H349	H	0.692834	-0.149216	-0.273072
H350	H	1.192834	0.350784	0.226928
H351	H	0.634952	-0.169863	-0.338497
H352	H	1.134952	0.330137	0.161503
O353	O	0.658285	-0.473058	-0.274418
O354	O	1.158285	0.026942	0.225582
C355	C	0.684188	-0.438787	-0.321932
C356	C	1.184188	0.061213	0.178068
H357	H	0.664176	-0.401571	-0.327395
H358	H	1.164176	0.098429	0.172605
H359	H	0.687224	-0.453850	-0.392237
H360	H	1.187224	0.046150	0.107763
H361	H	0.722107	-0.433229	-0.284588
H362	H	1.222107	0.066771	0.215412
O363	O	0.096923	-0.134407	-0.114846
O364	O	0.596923	0.365593	0.385154
C365	C	0.062335	-0.137121	-0.191801
C366	C	0.562335	0.362879	0.308199
H367	H	0.052971	-0.097857	-0.217510
H368	H	0.552971	0.402143	0.282490
H369	H	0.028102	-0.156269	-0.173697
H370	H	0.528102	0.343731	0.326303
H371	H	0.077962	-0.159431	-0.246423
H372	H	0.577962	0.340569	0.253577
H373	H	-0.190764	-0.082123	-0.109320
H374	H	0.309236	0.417877	0.390680
H375	H	0.651555	-0.000072	0.346926
H376	H	1.151555	0.499928	0.846926
O377	O	0.628832	-0.233002	-0.220504
O378	O	1.128832	0.266998	0.279496
C379	C	0.599400	-0.263196	-0.281946
C380	C	1.099400	0.236804	0.218054
H381	H	0.563523	-0.271046	-0.254582
H382	H	1.063523	0.228954	0.245418
H383	H	0.618844	-0.299904	-0.291664
H384	H	1.118844	0.200096	0.208336
H385	H	0.592033	-0.243057	-0.349275
H386	H	1.092033	0.256943	0.150725
O387	O	0.658315	-0.629721	-0.274424
O388	O	1.158315	-0.129721	0.225576
C389	C	0.684223	-0.595454	-0.321936
C390	C	1.184223	-0.095454	0.178064
H391	H	0.664211	-0.558237	-0.327413
H392	H	1.164211	-0.058237	0.172587
H393	H	0.687266	-0.610520	-0.392235
H394	H	1.187266	-0.110520	0.107765
H395	H	0.722140	-0.589894	-0.284582
H396	H	1.222140	-0.089894	0.215418
H397	H	0.488483	-0.469173	0.037307
H398	H	0.988483	0.030827	0.537307
O399	O	0.483838	-0.370287	0.045657
O400	O	0.983838	0.129713	0.545657
C401	C	0.450879	-0.340090	-0.009319
C402	C	0.950879	0.159910	0.490681
H403	H	0.465958	-0.332250	-0.075489
H404	H	0.965958	0.167750	0.424511
H405	H	0.445474	-0.303378	0.026566
H406	H	0.945474	0.196622	0.526566
H407	H	0.414554	-0.360222	-0.023490
H408	H	0.914554	0.139778	0.476510
O409	O	-0.286205	-0.089217	-0.107333
O410	O	0.213795	0.410783	0.392667
C411	C	-0.309943	-0.091909	-0.029294
C412	C	0.190057	0.408091	0.470706
H413	H	-0.290943	-0.066243	0.024559
H414	H	0.209057	0.433757	0.524559
H415	H	-0.308701	-0.131903	-0.003237
H416	H	0.191299	0.368097	0.496763
H417	H	-0.349380	-0.079757	-0.046098
H418	H	0.150620	0.420243	0.453902
H419	H	-0.282197	0.081973	-0.107666
H420	H	0.217803	0.581973	0.392334
H421	H	0.192464	0.127211	-0.116621
H422	H	0.692464	0.627211	0.383379
O423	O	-0.186851	0.089128	-0.109498
O424	O	0.313149	0.589128	0.390502
C425	C	-0.219911	0.129035	-0.108873
C426	C	0.280089	0.629035	0.391127
H427	H	-0.257837	0.115771	-0.136516
H428	H	0.242163	0.615771	0.363484
H429	H	-0.208389	0.160668	-0.152605
H430	H	0.291611	0.660668	0.347395
H431	H	-0.220240	0.142938	-0.036994
H432	H	0.279760	0.642938	0.463006
O433	O	0.329012	0.089147	-0.119203
O434	O	0.829012	0.589147	0.380797
C435	C	0.362080	0.129061	-0.119881
C436	C	0.862080	0.629061	0.380119
H437	H	0.400005	0.115804	-0.092228
H438	H	0.900005	0.615804	0.407772
H439	H	0.350567	0.160691	-0.076183
H440	H	0.850567	0.660691	0.423817
H441	H	0.362409	0.142964	-0.191776
H442	H	0.862409	0.642964	0.308224
H443	H	0.424372	0.081997	-0.121040
H444	H	0.924372	0.581997	0.378960
H445	H	-0.050311	-0.127334	-0.111936
H446	H	0.449689	0.372666	0.388064
O447	O	0.045089	0.134351	-0.113898
O448	O	0.545089	0.634351	0.386102
C449	C	0.012030	0.174259	-0.113267
C450	C	0.512030	0.674259	0.386733
H451	H	-0.025898	0.160994	-0.140903
H452	H	0.474102	0.660994	0.359097
H453	H	0.023550	0.205890	-0.157004
H454	H	0.523550	0.705890	0.342996
H455	H	0.011704	0.188162	-0.041389
H456	H	0.511704	0.688162	0.458611
O457	O	0.513243	-0.870039	-0.008090
O458	O	1.013243	-0.370039	0.491910
C459	C	0.487331	-0.835816	0.039441
C460	C	0.987331	-0.335816	0.539441
H461	H	0.507335	-0.798587	0.044929
H462	H	1.007335	-0.298587	0.544929
H463	H	0.484294	-0.850922	0.109735
H464	H	0.984294	-0.350922	0.609735
H465	H	0.449411	-0.830266	0.002094
H466	H	0.949411	-0.330266	0.502094
O467	O	0.513216	-0.767125	-0.008273
O468	O	1.013216	-0.267125	0.491727
C469	C	0.480253	-0.736930	-0.063246
C470	C	0.980253	-0.236930	0.436754
H471	H	0.495335	-0.729078	-0.129408
H472	H	0.995335	-0.229078	0.370592
H473	H	0.474836	-0.700224	-0.027349
H474	H	0.974836	-0.200224	0.472651
H475	H	0.443933	-0.757071	-0.077432
H476	H	0.943933	-0.257071	0.422568
