data_functionalizedCrystal
_audit_creation_method	'MofGen! by Chris Wilmer'
_symmetry_space_group_name_H-M	'P1'
_symmetry_Int_Tables_number	1
_symmetry_cell_setting	triclinic
loop_
_symmetry_equiv_pos_as_xyz
  x,y,z
_cell_length_a	11.169417
_cell_length_b	16.625546
_cell_length_c	16.625527
_cell_angle_alpha	89.912139
_cell_angle_beta	89.943455
_cell_angle_gamma	90.023347
loop_
_atom_site_label
_atom_site_type_symbol
_atom_site_fract_x
_atom_site_fract_y
_atom_site_fract_z
Zn1	Zn	1.835296	-0.320524	-0.455827
Zn2	Zn	1.835014	-0.455502	-0.320989
Zn3	Zn	1.634453	-0.320690	-0.321015
Zn4	Zn	1.634547	-0.455320	-0.455787
O5	O	1.734828	-0.388009	-0.388405
O6	O	2.003209	-0.338436	-0.437946
O7	O	1.808252	-0.437765	-0.208160
O8	O	1.661174	-0.207835	-0.338926
O9	O	2.003002	-0.437604	-0.338881
O10	O	1.808733	-0.207714	-0.437972
O11	O	1.660901	-0.338718	-0.208179
O12	O	1.466516	-0.338542	-0.338887
O13	O	1.661334	-0.437294	-0.568625
O14	O	1.466585	-0.437454	-0.437903
O15	O	1.808824	-0.338260	-0.568654
O16	O	1.808343	-0.568311	-0.338843
O17	O	1.661061	-0.568177	-0.437878
C18	C	1.423003	-0.387997	-0.388394
C19	C	1.289603	-0.388011	-0.388409
C20	C	1.734714	-0.597500	-0.388371
C21	C	1.734775	-0.687121	-0.388383
C22	C	1.734985	-1.015297	-0.388467
C23	C	1.734923	-0.923988	-0.388446
C24	C	1.734879	-0.851212	-0.388425
C25	C	1.734819	-0.759898	-0.388405
C26	C	2.047870	-0.388022	-0.388415
C27	C	2.181270	-0.388027	-0.388420
C28	C	1.735121	-0.387738	-0.598714
C29	C	1.735246	-0.387623	-0.688335
C30	C	1.734975	-0.177700	-0.388456
C31	C	1.735037	-0.088079	-0.388478
C32	C	1.734605	-0.388221	-0.178913
C33	C	1.734713	-0.388109	-0.089292
C34	C	1.735158	-0.387714	0.238882
C35	C	1.735038	-0.387827	0.147574
C36	C	1.734935	-0.387912	0.074798
C37	C	1.734816	-0.388024	-0.016516
