data_functionalizedCrystal
_audit_creation_method	'MofGen! by Chris Wilmer'
_symmetry_space_group_name_H-M	'P1'
_symmetry_Int_Tables_number	1
_symmetry_cell_setting	triclinic
loop_
_symmetry_equiv_pos_as_xyz
  x,y,z
_cell_length_a	16.992701
_cell_length_b	14.044190
_cell_length_c	16.053802
_cell_angle_alpha	92.795827
_cell_angle_beta	87.243340
_cell_angle_gamma	91.929473
loop_
_atom_site_label
_atom_site_type_symbol
_atom_site_fract_x
_atom_site_fract_y
_atom_site_fract_z
O1	O	1.057573	0.198288	-0.069451
O2	O	1.557573	0.698288	0.430549
O3	O	0.829133	0.196073	-0.069451
O4	O	1.329133	0.696073	0.430549
O5	O	0.939921	0.058937	-0.069435
O6	O	1.439921	0.558937	0.430565
O7	O	0.946786	0.335424	-0.069468
O8	O	1.446786	0.835424	0.430532
O9	O	0.933820	0.066452	0.069423
O10	O	1.433820	0.566452	0.569423
O11	O	0.823033	0.203589	0.069407
O12	O	1.323033	0.703589	0.569407
O13	O	1.051473	0.205803	0.069407
O14	O	1.551473	0.705803	0.569407
Zn15	Zn	0.936284	0.205889	0.091454
Zn16	Zn	1.436284	0.705889	0.591454
Zn17	Zn	0.944322	0.195987	-0.091498
Zn18	Zn	1.444322	0.695987	0.408502
O19	O	0.940685	0.342939	0.069390
O20	O	1.440685	0.842939	0.569390
C21	C	0.796671	0.196980	-0.000022
C22	C	1.296671	0.696980	0.499978
C23	C	0.709031	0.188472	-0.000021
C24	C	1.209031	0.688472	0.499979
C25	C	0.216072	0.131308	-0.000018
C26	C	0.716072	0.631308	0.499982
C27	C	0.298418	0.139309	-0.000014
C28	C	0.798418	0.639309	0.499986
C29	C	0.336266	0.229407	-0.000028
C30	C	0.836266	0.729407	0.499972
C31	C	0.291762	0.311509	-0.000038
C32	C	0.791762	0.811509	0.499962
C33	C	0.209418	0.303507	-0.000036
C34	C	0.709418	0.803507	0.499964
C35	C	0.582183	0.262572	-0.000030
C36	C	1.082183	0.762572	0.499970
C37	C	0.664534	0.270568	-0.000034
C38	C	1.164534	0.770568	0.499966
C39	C	0.671184	0.098367	-0.000008
C40	C	1.171184	0.598367	0.499992
C41	C	0.588838	0.090373	-0.000011
C42	C	1.088838	0.590373	0.499989
C43	C	0.544341	0.172475	-0.000017
C44	C	1.044341	0.672475	0.499983
N45	N	0.420437	0.237588	-0.000026
N46	N	0.920437	0.737588	0.499974
N47	N	0.460172	0.164294	-0.000012
N48	N	0.960172	0.664294	0.499988
C49	C	0.933868	0.027152	-0.000003
C50	C	1.433868	0.527152	0.499997
C51	C	0.924911	-0.078751	0.000004
C52	C	1.424911	0.421249	0.500004
C53	C	0.972059	-0.325469	-0.000029
C54	C	1.472059	0.174531	0.499971
C55	C	0.908551	-0.272650	-0.000023
C56	C	1.408551	0.227350	0.499977
C57	C	0.917656	-0.164755	-0.000008
C58	C	1.417656	0.335245	0.499992
C59	C	0.962955	-0.433374	-0.000044
C60	C	1.462955	0.066626	0.499956
C61	C	1.083935	0.204896	-0.000024
C62	C	1.583935	0.704896	0.499976
C63	C	1.171575	0.213404	-0.000030
C64	C	1.671575	0.713404	0.499970
C65	C	0.946738	0.374724	-0.000043
C66	C	1.446738	0.874724	0.499957
C67	C	0.955695	0.480627	-0.000056
C68	C	1.455695	0.980627	0.499944
N69	N	0.930805	0.212646	0.216313
N70	N	1.430805	0.712646	0.716313
N71	N	0.949807	0.189223	-0.216357
N72	N	1.449807	0.689223	0.283643
C73	C	0.977965	0.154318	0.260014
C74	C	1.477965	0.654318	0.760014
C75	C	0.974140	0.159054	0.347420
C76	C	1.474140	0.659054	0.847420
C77	C	0.923158	0.222125	0.391124
C78	C	1.423158	0.722125	0.891124
C79	C	0.875992	0.280455	0.347417
C80	C	1.375992	0.780455	0.847417
C81	C	0.879814	0.275713	0.260012
C82	C	1.379814	0.775713	0.760012
C83	C	0.906463	0.242811	0.652531
C84	C	1.406463	0.742811	1.152531
C85	C	0.902647	0.247551	0.739942
C86	C	1.402647	0.747551	1.239942
C87	C	1.000794	0.126148	0.739939
C88	C	1.500794	0.626148	1.239939
C89	C	1.004614	0.121416	0.652533
C90	C	1.504614	0.621416	1.152533
C91	C	0.957446	0.179743	0.608833
C92	C	1.457446	0.679743	1.108833
N93	N	0.919249	0.226970	0.480467
N94	N	1.419249	0.726970	0.980467
N95	N	0.961351	0.174892	0.519492
N96	N	1.461351	0.674892	1.019492
H97	H	0.334644	0.072458	0.000000
H98	H	0.834644	0.572458	0.500000
C99	C	1.054743	-0.277101	-0.000010
C100	C	1.554743	0.222899	0.499990
H101	H	1.093396	-0.324428	-0.000019
H102	H	1.593396	0.175572	0.499981
H103	H	1.058789	-0.235915	0.048419
H104	H	1.558789	0.264085	0.548419
H105	H	1.063058	-0.241123	-0.048432
H106	H	1.563058	0.258877	0.451568
H107	H	0.545964	0.329426	-0.000038
H108	H	1.045964	0.829426	0.499962
H109	H	0.847342	-0.308461	-0.000028
H110	H	1.347342	0.191539	0.499972
H111	H	1.019484	0.102964	0.224436
H112	H	1.519484	0.602964	0.724436
C113	C	0.333393	0.410615	-0.000056
C114	C	0.833393	0.910615	0.499944
H115	H	0.388808	0.403624	-0.000064
H116	H	0.888808	0.903624	0.499936
H117	H	0.316405	0.447307	0.048360
H118	H	0.816405	0.947307	0.548360
H119	H	0.320655	0.442051	-0.048491
H120	H	0.820655	0.942051	0.451509
H121	H	0.868057	0.290305	0.616958
H122	H	1.368057	0.790305	1.116958
H123	H	0.558028	0.017006	0.000001
H124	H	1.058028	0.517006	0.500001
C125	C	0.720131	0.008064	0.000009
C126	C	1.220131	0.508064	0.500009
H127	H	0.774593	0.025730	0.000013
H128	H	1.274593	0.525730	0.500013
H129	H	0.710130	-0.031252	-0.048405
H130	H	1.210130	0.468748	0.451595
H131	H	0.705873	-0.025993	0.048447
H132	H	1.205873	0.474007	0.548447
C133	C	0.827940	0.339875	0.211937
C134	C	1.327940	0.839875	0.711937
H135	H	0.837512	0.328011	0.153623
H136	H	1.337512	0.828011	0.653623
H137	H	0.840320	0.404905	0.226243
H138	H	1.340320	0.904905	0.726243
H139	H	0.773978	0.326273	0.226278
H140	H	1.273978	0.826273	0.726278
H141	H	0.173189	0.370359	-0.000044
H142	H	0.673189	0.870359	0.499956
C143	C	0.706169	0.369678	-0.000045
C144	C	1.206169	0.869678	0.499955
H145	H	0.761583	0.362680	-0.000055
H146	H	1.261583	0.862680	0.499945
H147	H	0.689185	0.406366	0.048375
H148	H	1.189185	0.906366	0.548375
H149	H	0.693433	0.401122	-0.048477
H150	H	1.193433	0.901122	0.451523
H151	H	1.012541	0.111558	0.383001
H152	H	1.512541	0.611558	0.883001
C153	C	1.060690	0.052033	0.604465
C154	C	1.560690	0.552033	1.104465
H155	H	1.088225	0.017966	0.643011
H156	H	1.588225	0.517966	1.143011
H157	H	1.097391	0.086968	0.570350
H158	H	1.597391	0.586968	1.070350
H159	H	1.031043	0.008345	0.570387
H160	H	1.531043	0.508345	1.070387
H161	H	1.039196	0.078660	0.775527
H162	H	1.539196	0.578660	1.275527
C163	C	0.846518	0.316877	0.788015
C164	C	1.346518	0.816877	1.288015
H165	H	0.818955	0.350915	0.749471
H166	H	1.318955	0.850915	1.249471
H167	H	0.876118	0.360582	0.822117
H168	H	1.376118	0.860582	1.322117
H169	H	0.809833	0.281881	0.822105
H170	H	1.309833	0.781881	1.322105
H171	H	0.834477	0.331805	0.383005
H172	H	1.334477	0.831805	0.883005
H173	H	0.185263	0.057940	-0.000011
H174	H	0.685263	0.557940	0.499989
