data_functionalizedCrystal
_audit_creation_method	'MofGen! by Chris Wilmer'
_symmetry_space_group_name_H-M	'P1'
_symmetry_Int_Tables_number	1
_symmetry_cell_setting	triclinic
loop_
_symmetry_equiv_pos_as_xyz
  x,y,z
_cell_length_a	6.817900
_cell_length_b	16.418042
_cell_length_c	9.582860
_cell_angle_alpha	93.122023
_cell_angle_beta	111.206767
_cell_angle_gamma	103.389568
loop_
_atom_site_label
_atom_site_type_symbol
_atom_site_fract_x
_atom_site_fract_y
_atom_site_fract_z
V1	V	-4.065734	-0.260999	-0.208271
O2	O	-4.011405	-0.256189	0.008757
O3	O	-4.056512	-0.259062	-0.411763
O4	O	-4.016296	-0.374899	-0.205617
O5	O	-4.051900	-0.139550	-0.198817
V6	V	-4.544419	-0.246491	-0.182247
O7	O	-4.337603	-0.292823	-0.265357
O8	O	-4.722747	-0.214667	-0.125162
O9	O	-4.330434	-0.248428	0.021245
O10	O	-4.716145	-0.251302	-0.399275
O11	O	-4.675650	-0.367941	-0.191702
O12	O	-4.370650	-0.132591	-0.184902
C13	C	-3.911078	-0.254906	-0.461353
C14	C	-3.984818	-0.254081	-0.627714
C15	C	-3.859777	-0.402666	-0.198391
C16	C	-3.900899	-0.495779	-0.197567
C17	C	-4.178993	-0.714261	-0.203134
C18	C	-4.217610	-0.801749	-0.202347
C19	C	-3.850514	-0.793218	-0.187377
C20	C	-3.811895	-0.705730	-0.188153
C21	C	-3.976145	-0.666255	-0.196040
C22	C	-4.053381	-0.841230	-0.194476
C23	C	-4.095250	-0.936089	-0.193623
C24	C	-3.934273	-0.571390	-0.196890
C25	C	-4.139212	-0.252583	0.070826
C26	C	-4.044710	-0.253413	0.237186
C27	C	-4.190513	-0.104820	-0.192133
C28	C	-4.128628	-0.011706	-0.192949
H29	H	-4.312738	-0.682123	-0.209553
C30	C	-3.669785	-0.836636	-0.178560
N31	N	-3.533629	-0.869334	-0.171868
C32	C	-3.588740	-0.652921	-0.180356
N33	N	-3.420666	-0.613145	-0.174484
H34	H	-4.382785	-0.840832	-0.208122
