data_functionalizedCrystal
_audit_creation_method	'MofGen! by Chris Wilmer'
_symmetry_space_group_name_H-M	'P1'
_symmetry_Int_Tables_number	1
_symmetry_cell_setting	triclinic
loop_
_symmetry_equiv_pos_as_xyz
  x,y,z
_cell_length_a	12.594517
_cell_length_b	12.594516
_cell_length_c	12.594509
_cell_angle_alpha	90.027875
_cell_angle_beta	90.022214
_cell_angle_gamma	90.011248
loop_
_atom_site_label
_atom_site_type_symbol
_atom_site_fract_x
_atom_site_fract_y
_atom_site_fract_z
Zn1	Zn	1.627298	-0.423726	0.601888
Zn2	Zn	1.627202	-0.601736	0.423910
Zn3	Zn	1.449302	-0.423770	0.423914
Zn4	Zn	1.449298	-0.601661	0.601838
O5	O	1.538275	-0.512724	0.512888
O6	O	1.776231	-0.447352	0.578298
O7	O	1.603565	-0.578179	0.274965
O8	O	1.472956	-0.274819	0.447545
O9	O	1.776161	-0.578136	0.447539
O10	O	1.603729	-0.274786	0.578302
O11	O	1.472863	-0.447428	0.274968
O12	O	1.300356	-0.447355	0.447496
O13	O	1.472948	-0.578008	0.750790
O14	O	1.300352	-0.578051	0.578216
O15	O	1.603724	-0.447280	0.750827
O16	O	1.603561	-0.750672	0.447490
O17	O	1.472855	-0.750617	0.578213
C18	C	1.261734	-0.512700	0.512852
C19	C	1.143429	-0.512716	0.512862
C20	C	1.538226	-0.789265	0.512869
C21	C	1.538302	-0.907570	0.512897
C22	C	1.003383	-0.441553	0.441926
C23	C	1.074240	-0.415620	0.539052
C24	C	1.074144	-0.538602	0.415746
C25	C	1.003500	-0.486775	0.610117
C26	C	1.003398	-0.609802	0.486746
C27	C	1.074222	-0.583905	0.583939
C28	C	1.609476	-0.976814	0.441873
C29	C	1.635486	-1.047511	0.539022
C30	C	1.512425	-1.047672	0.415809
C31	C	1.564362	-0.976708	0.610097
C32	C	1.441256	-0.976863	0.486818
C33	C	1.467229	-1.047528	0.584035
C34	C	1.815896	-0.512748	0.512924
C35	C	1.934201	-0.512758	0.512939
C36	C	1.538346	-0.512630	0.790509
C37	C	1.538377	-0.512591	0.908814
C38	C	1.538354	-0.235103	0.512929
C39	C	1.538387	-0.116797	0.512947
C40	C	1.538265	-0.512740	0.236347
C41	C	1.538441	-0.512479	0.118042
C42	C	1.467270	-0.583653	0.978047
C43	C	1.564392	-0.609660	1.048839
C44	C	1.441330	-0.486519	1.048821
C45	C	1.635550	-0.538649	0.978048
C46	C	1.512422	-0.415462	0.978024
C47	C	1.609612	-0.441433	1.048784
H48	H	0.972283	-0.381309	0.381979
H49	H	1.105338	-0.333530	0.561193
H50	H	1.586203	-0.945670	0.692295
H51	H	1.105128	-0.644104	0.644029
H52	H	1.407077	-1.078381	0.644189
H53	H	1.359173	-0.945805	0.464703
H54	H	0.972597	-0.464802	0.692303
H55	H	1.586380	-0.691752	1.079945
H56	H	0.972257	-0.691864	0.464589
H57	H	1.105178	-0.560477	0.333584
H58	H	1.407184	-0.643842	0.946989
H59	H	1.490502	-1.078842	0.333682
H60	H	1.359232	-0.464514	1.079910
H61	H	1.717672	-0.560747	0.947090
H62	H	1.717593	-1.078547	0.561108
H63	H	1.669841	-0.381290	1.079646
H64	H	1.669674	-0.945764	0.381864
H65	H	1.490406	-0.333394	0.946894
