data_functionalizedCrystal
_audit_creation_method	'MofGen! by Chris Wilmer'
_symmetry_space_group_name_H-M	'P1'
_symmetry_Int_Tables_number	1
_symmetry_cell_setting	triclinic
loop_
_symmetry_equiv_pos_as_xyz
  x,y,z
_cell_length_a	17.052862
_cell_length_b	17.052832
_cell_length_c	17.052862
_cell_angle_alpha	102.027225
_cell_angle_beta	61.493325
_cell_angle_gamma	78.839794
loop_
_atom_site_label
_atom_site_type_symbol
_atom_site_fract_x
_atom_site_fract_y
_atom_site_fract_z
Zr1	Zr	0.867850	0.912567	-0.034718
O2	O	0.990869	0.825611	-0.178639
O3	O	0.717550	0.920078	0.020837
O4	O	0.837719	0.962271	-0.132313
O5	O	0.903982	0.771914	0.082308
O6	O	0.844984	1.091849	-0.108778
O7	O	0.870701	0.783419	-0.025490
O8	O	0.630024	1.016374	0.165178
O9	O	1.118942	0.847390	-0.191648
O10	O	0.794897	1.043115	0.048278
O11	O	0.814313	0.937827	0.111163
O12	O	0.955796	0.987503	-0.069151
O13	O	0.975212	0.882216	-0.006266
Zr14	Zr	0.932518	1.100880	0.174742
Zr15	Zr	0.879437	1.119228	0.002817
Zr16	Zr	0.920931	0.894219	0.137207
Zr17	Zr	1.072112	0.947300	-0.055466
Zr18	Zr	0.728256	1.066147	0.195490
O19	O	1.082819	1.093369	0.119187
O20	O	1.007345	1.119457	-0.125269
O21	O	1.066343	0.799523	0.065817
O22	O	0.809499	1.187836	0.318663
O23	O	0.734025	1.213924	0.074207
O24	O	0.793024	0.893990	0.265293
O25	O	0.896386	1.241533	0.057715
O26	O	0.962650	1.051176	0.272337
O27	O	0.955385	0.921598	0.248802
O28	O	0.929668	1.230029	0.165514
O29	O	1.128152	1.011658	-0.161813
O30	O	0.672216	1.001789	0.301837
O31	O	0.681426	1.166058	0.331672
O32	O	0.639234	1.180642	0.195014
O33	O	1.161134	0.832805	-0.054990
O34	O	1.170345	0.997074	-0.025155
O35	O	0.844573	1.025944	0.209175
O36	O	0.825157	1.131232	0.146290
O37	O	0.986056	1.075620	0.028861
O38	O	1.005472	0.970332	0.091746
C39	C	0.644684	0.963277	0.095964
C40	C	0.557970	0.948532	0.104772
C41	C	0.273001	1.126803	-0.001715
C42	C	0.354476	1.140656	-0.009996
C43	C	0.405353	1.092626	0.018695
C44	C	0.374748	1.030741	0.055669
C45	C	0.293269	1.016883	0.063945
C46	C	0.425621	0.982706	0.084355
C47	C	0.395015	0.920821	0.121329
C48	C	0.313544	0.906966	0.129603
C49	C	0.262667	0.954995	0.100912
C50	C	0.507100	0.996564	0.076079
C51	C	0.527368	0.886644	0.141739
C52	C	0.445892	0.872792	0.150020
C53	C	0.885691	0.748222	0.023061
C54	C	0.880772	0.660488	0.007127
C55	C	0.940242	0.387837	0.199775
C56	C	0.944858	0.470269	0.214752
C57	C	0.928837	0.517827	0.162847
C58	C	0.908199	0.482947	0.095963
C59	C	0.903575	0.400510	0.080990
C60	C	0.892170	0.530500	0.044061
C61	C	0.871531	0.495620	-0.022823
C62	C	0.866909	0.413190	-0.037794
C63	C	0.882930	0.365632	0.014111
C64	C	0.896794	0.612937	0.059034
C65	C	0.860127	0.625610	-0.059751
C66	C	0.855511	0.543179	-0.074728
C67	C	1.155684	1.050170	0.044060
C68	C	1.242399	1.064915	0.035252
C69	C	0.833788	1.029674	-0.145041
C70	C	0.811254	1.037463	-0.218028
C71	C	0.914678	1.265226	0.116963
C72	C	0.919597	1.352959	0.132897
C73	C	1.083693	0.943293	-0.668961
C74	C	1.104867	0.935969	-0.600389
C75	C	1.031466	0.961342	-0.504796
C76	C	0.936886	0.994040	-0.477781
C77	C	0.915709	1.001358	-0.546360
C78	C	0.863482	1.019407	-0.382196
C79	C	0.768902	1.052105	-0.355180
C80	C	0.747729	1.059422	-0.423755
C81	C	0.821131	1.034049	-0.519347
C82	C	0.884660	1.012089	-0.313616
C83	C	0.716676	1.070154	-0.191015
C84	C	0.695501	1.077478	-0.259587
C85	C	0.966580	0.983773	0.285065
C86	C	0.989114	0.975984	0.358052
C87	C	0.659178	1.221779	0.142914
C88	C	0.577382	1.294767	0.167657
C89	C	0.711080	0.940327	0.311017
C90	C	0.646900	0.917792	0.392812
C91	C	0.725574	1.198829	0.357967
C92	C	0.666312	1.264027	0.455697
C93	C	1.074795	0.814619	-0.217943
C94	C	1.134056	0.749420	-0.315673
C95	C	1.141191	0.791668	-0.002890
C96	C	1.222986	0.718680	-0.027633
C97	C	1.089289	1.073121	-0.170993
C98	C	1.153469	1.095655	-0.252788
C99	C	0.523173	1.283048	0.128107
C100	C	0.446323	1.351623	0.151337
C101	C	0.423681	1.431916	0.214121
C102	C	0.477898	1.443635	0.253670
C103	C	0.554751	1.375061	0.230436
C104	C	0.632557	0.953205	0.482392
C105	C	0.572267	0.932029	0.559252
C106	C	0.526313	0.875445	0.546531
C107	C	0.540661	0.840028	0.456940
C108	C	0.600956	0.861199	0.380081
C109	C	0.628348	1.349613	0.468768
C110	C	0.572676	1.410885	0.560589
C111	C	0.554963	1.386568	0.639338
C112	C	0.592934	1.300974	0.626263
C113	C	0.648611	1.239705	0.534443
C114	C	1.172030	0.663836	-0.328745
C115	C	1.227728	0.602569	-0.420568
C116	C	1.245445	0.626886	-0.499318
C117	C	1.207469	0.712479	-0.486242
C118	C	1.151778	0.773746	-0.394421
C119	C	1.277202	0.730402	0.011908
C120	C	1.354068	0.661832	-0.011342
C121	C	1.376713	0.581540	-0.074129
C122	C	1.322492	0.569820	-0.113675
C123	C	1.245632	0.638391	-0.090429
C124	C	1.199405	1.152242	-0.240037
C125	C	1.259701	1.173432	-0.316880
C126	C	1.274066	1.138029	-0.406476
C127	C	1.228122	1.081439	-0.419225
C128	C	1.167822	1.060255	-0.342381
H129	H	0.231576	1.165899	-0.025079
H130	H	0.670715	1.086038	-0.401753
C131	C	0.614367	1.387964	0.273960
N132	N	0.659266	1.397689	0.306748
C133	C	0.844178	0.374834	-0.111348
N134	N	0.827050	0.345948	-0.166745
H135	H	0.679514	1.170017	0.523812
H136	H	0.361099	1.487746	0.233033
C137	C	0.591465	1.113436	-0.229884
N138	N	0.513105	1.140518	-0.207514
C139	C	1.208903	0.900010	-0.630109
N140	N	1.287268	0.872927	-0.652497
C141	C	0.530906	1.505031	0.574951
N142	N	0.499444	1.575941	0.585766
C143	C	1.152561	0.637067	-0.242133
N144	N	1.137906	0.616899	-0.176901
C145	C	0.459980	0.852172	0.631091
N146	N	0.410013	0.834651	0.694787
C147	C	0.452973	1.531963	0.322740
N148	N	0.434192	1.598492	0.374770
H149	H	0.288633	0.856568	0.159701
C150	C	1.164422	0.915383	-0.774110
N151	N	1.225233	0.894360	-0.853314
H152	H	1.120857	0.843432	-0.383787
H153	H	0.541603	1.217677	0.076974
H154	H	1.221901	0.732270	-0.550371
H155	H	1.258774	0.795773	0.063039
H156	H	1.340942	0.504437	-0.164798
C157	C	1.461262	0.506117	-0.099686
N158	N	1.524942	0.449311	-0.118928
H159	H	0.669969	0.999279	0.492767
C160	C	0.173045	0.939752	0.110007
N161	N	0.105545	0.928269	0.116850
C162	C	1.269491	0.508421	-0.434930
N163	N	1.300946	0.437510	-0.445745
C164	C	1.413692	0.674740	0.032177
N165	N	1.458597	0.684464	0.064959
C166	C	0.556488	0.971006	0.657796
N167	N	0.544602	1.000367	0.732018
H168	H	1.290794	0.576991	-0.574080
C169	C	0.493706	1.453975	0.740338
N170	N	0.447563	1.504749	0.816410
H171	H	0.961668	0.985465	-0.335621
H172	H	1.048712	0.955377	-0.448965
C173	C	0.797843	1.042094	-0.594788
N174	N	0.780305	1.048148	-0.651613
H175	H	0.838706	0.514769	-0.129186
H176	H	0.503237	0.793955	0.446596
H177	H	1.130426	1.014174	-0.352777
H178	H	0.578504	1.281186	0.690393
H179	H	1.187721	1.181075	-0.167090
C180	C	0.616712	0.822246	0.281547
N181	N	0.628575	0.792904	0.207332
C182	C	0.919495	0.651296	0.132607
N183	N	0.936596	0.680187	0.188026
H184	H	1.201490	0.628834	-0.122629
H185	H	0.642760	1.369428	0.404657
H186	H	1.297105	1.219509	-0.306483
H187	H	1.323169	1.155286	-0.469040
H188	H	1.239828	1.052619	-0.492184
C189	C	0.877848	0.274952	-0.002356
N190	N	0.874018	0.206652	-0.014755
H191	H	0.471694	1.103909	0.011950
C192	C	0.540752	1.064641	0.035415
N193	N	0.566096	1.115923	0.004788
H194	H	0.379393	1.191041	-0.040102
C195	C	0.842503	0.677922	-0.116851
N196	N	0.829229	0.717328	-0.159855
H197	H	0.568794	0.847532	0.165099
H198	H	0.420962	0.822404	0.180124
H199	H	0.961660	0.498666	0.269210
C200	C	0.386689	1.338711	0.107831
N201	N	0.341772	1.328983	0.075064
C202	C	0.957811	0.335536	0.256900
N203	N	0.971028	0.296146	0.299942
H204	H	0.932597	0.584947	0.175044
H205	H	0.656906	1.090812	-0.113180
