data_functionalizedCrystal
_audit_creation_method	'MofGen! by Chris Wilmer'
_symmetry_space_group_name_H-M	'P1'
_symmetry_Int_Tables_number	1
_symmetry_cell_setting	triclinic
loop_
_symmetry_equiv_pos_as_xyz
  x,y,z
_cell_length_a	12.594516
_cell_length_b	19.121224
_cell_length_c	12.594509
_cell_angle_alpha	92.468632
_cell_angle_beta	89.969161
_cell_angle_gamma	87.554143
loop_
_atom_site_label
_atom_site_type_symbol
_atom_site_fract_x
_atom_site_fract_y
_atom_site_fract_z
Zn1	Zn	-0.354484	-1.073816	-0.671493
Zn2	Zn	-0.532498	-1.073749	-0.493502
Zn3	Zn	-0.362102	-0.956360	-0.485903
Zn4	Zn	-0.539993	-0.956353	-0.663817
O5	O	-0.447269	-1.015069	-0.578679
O6	O	-0.371773	-1.172094	-0.654274
O7	O	-0.509946	-1.058152	-0.343546
O8	O	-0.212144	-0.971971	-0.510554
O9	O	-0.502559	-1.172044	-0.523505
O10	O	-0.206546	-1.058266	-0.646906
O11	O	-0.384757	-0.971906	-0.337963
O12	O	-0.392024	-0.858072	-0.503111
O13	O	-0.515333	-0.971960	-0.813783
O14	O	-0.522720	-0.858067	-0.633824
O15	O	-0.379040	-1.058259	-0.819422
O16	O	-0.682440	-1.058145	-0.516062
O17	O	-0.687947	-0.971895	-0.641192
C18	C	-0.459013	-0.832585	-0.566811
C19	C	-0.464063	-0.754517	-0.561759
C20	C	-0.496033	-0.312981	-0.529800
C21	C	-0.491283	-0.386334	-0.534539
C22	C	-0.420925	-0.423038	-0.605104
C23	C	-0.355306	-0.386385	-0.670927
C24	C	-0.360052	-0.313034	-0.666182
C25	C	-0.403190	-0.644513	-0.622837
C26	C	-0.398451	-0.717870	-0.627579
C27	C	-0.534427	-0.717813	-0.491189
C28	C	-0.539171	-0.644461	-0.486455
C29	C	-0.473548	-0.607814	-0.552274
C30	C	-0.416070	-0.498016	-0.609952
C31	C	-0.478399	-0.532837	-0.547420
C32	C	-0.723813	-1.015031	-0.578643
C33	C	-0.842115	-1.015079	-0.578668
C34	C	-0.979092	-1.062077	-0.510739
C35	C	-0.912540	-0.997983	-0.480423
C36	C	-0.907096	-1.079166	-0.608935
C37	C	-0.986346	-0.951023	-0.548396
C38	C	-0.980905	-1.032250	-0.676957
C39	C	-0.914388	-0.968111	-0.646675
C40	C	-0.169645	-1.015127	-0.578739
C41	C	-0.051338	-1.015151	-0.578764
C42	C	-0.447173	-1.015116	-0.856303
C43	C	-0.447132	-1.015136	-0.974610
C44	C	-0.435471	-0.198266	-0.590581
C45	C	-0.430421	-0.276334	-0.595621
C46	C	-0.521220	-0.968213	-1.040796
C47	C	-0.543095	-1.032302	-1.115743
C48	C	-0.425190	-0.951098	-1.110466
C49	C	-0.469055	-1.079259	-1.048000
C50	C	-0.351108	-0.998011	-1.042714
C51	C	-0.372943	-1.062144	-1.117631
C52	C	-0.447286	-1.015063	-0.302137
C53	C	-0.447018	-1.015179	-0.183840
H54	H	-0.349760	-0.614685	-0.676436
H55	H	-1.020887	-0.896841	-0.522744
N56	N	-1.020794	-1.051487	-0.786964
H57	H	-0.958390	-1.060655	-0.836766
H58	H	-1.063226	-1.095026	-0.784386
H59	H	-1.007605	-1.101742	-0.453204
H60	H	-0.535680	-0.502950	-0.489964
N61	N	-0.493809	-1.151021	-1.011654
H62	H	-0.504930	-1.183541	-1.075639
H63	H	-0.432605	-1.170009	-0.968143
N64	N	-0.289893	-1.114788	-1.161959
H65	H	-0.306567	-1.163135	-1.139215
H66	H	-0.289939	-1.114161	-1.242103
N67	N	-0.861181	-1.150916	-0.642795
H68	H	-0.887101	-1.164223	-0.716501
H69	H	-0.781045	-1.150202	-0.643112
N70	N	-0.604324	-0.915691	-0.996234
H71	H	-0.676793	-0.928738	-1.022836
H72	H	-0.603227	-0.915754	-0.916056
N73	N	-0.289279	-0.273503	-0.737165
H74	H	-0.243986	-0.307884	-0.782588
H75	H	-0.334629	-0.243080	-0.784378
H76	H	-0.358787	-0.527909	-0.667408
H77	H	-0.882471	-0.983485	-0.397342
N78	N	-0.615053	-0.604874	-0.410342
H79	H	-0.655896	-0.639221	-0.369361
H80	H	-0.573628	-0.574428	-0.359198
H81	H	-0.886077	-0.928351	-0.704157
H82	H	-0.624251	-1.046809	-1.147785
H83	H	-0.269977	-0.983485	-1.010647
H84	H	-0.406678	-0.896923	-1.138043
H85	H	-0.553331	-0.283102	-0.472344
H86	H	-0.587852	-0.747659	-0.437603
N87	N	-0.562063	-0.425852	-0.463549
H88	H	-0.609471	-0.456298	-0.508686
H89	H	-0.516715	-0.456230	-0.416271
N90	N	-0.322579	-0.757470	-0.703697
H91	H	-0.247324	-0.744721	-0.686489
H92	H	-0.329647	-0.809483	-0.696671
N93	N	-0.279438	-0.425969	-0.747056
H94	H	-0.286396	-0.477999	-0.740086
H95	H	-0.296954	-0.413161	-0.822205
