data_functionalizedCrystal
_audit_creation_method	'MofGen! by Chris Wilmer'
_symmetry_space_group_name_H-M	'P1'
_symmetry_Int_Tables_number	1
_symmetry_cell_setting	triclinic
loop_
_symmetry_equiv_pos_as_xyz
  x,y,z
_cell_length_a	6.394989
_cell_length_b	16.109301
_cell_length_c	14.586319
_cell_angle_alpha	89.998857
_cell_angle_beta	89.999285
_cell_angle_gamma	84.979647
loop_
_atom_site_label
_atom_site_type_symbol
_atom_site_fract_x
_atom_site_fract_y
_atom_site_fract_z
O1	O	0.268483	1.105973	-0.076184
O2	O	0.301894	0.864265	-0.076196
O3	O	-0.018878	0.988550	-0.076190
O4	O	0.589255	0.981688	-0.076189
O5	O	-0.018883	0.988541	0.076290
O6	O	0.301889	0.864256	0.076285
O7	O	0.268478	1.105964	0.076297
Cu8	Cu	0.285183	0.985109	0.090214
Cu9	Cu	0.285189	0.985119	-0.090112
O10	O	0.589250	0.981679	0.076292
C11	C	0.300538	0.833271	0.000043
C12	C	0.296480	0.740933	0.000038
C13	C	0.473555	0.433809	0.000054
C14	C	0.477387	0.520570	0.000049
C15	C	0.096802	0.536414	0.000036
C16	C	0.092972	0.449655	0.000035
C17	C	0.281355	0.398354	0.000049
C18	C	0.289017	0.571874	0.000045
C19	C	0.293171	0.665944	0.000039
C20	C	0.277202	0.304278	0.000053
C21	C	0.667073	0.983040	0.000047
C22	C	0.903305	0.987186	0.000045
C23	C	0.269834	1.136958	0.000056
C24	C	0.273892	1.229296	0.000055
N25	N	0.285178	0.985108	0.217046
N26	N	0.285177	0.985127	-0.216944
C27	C	0.143187	1.040160	0.452054
C28	C	0.143182	1.040162	0.548036
C29	C	0.427175	0.930069	0.548040
C30	C	0.427168	0.930063	0.452061
C31	C	0.285177	0.985113	0.404070
C32	C	0.285178	0.985121	0.596031
C33	C	0.285174	0.985124	0.700098
C34	C	0.285178	0.985110	0.299997
H35	H	0.626949	0.392042	0.000065
C36	C	0.652252	0.646527	0.000027
C37	C	0.688659	0.559542	0.000042
H38	H	0.782691	0.670585	0.000012
H39	H	0.574718	0.664002	0.053198
H40	H	0.574682	0.663988	-0.053149
H41	H	0.766215	0.542082	0.053223
H42	H	0.766226	0.542061	-0.053134
C43	C	-0.132113	0.361285	-0.078365
C44	C	-0.118315	0.410679	0.000025
H45	H	-0.262553	0.337228	-0.078375
H46	H	-0.020486	0.318320	-0.078354
H47	H	-0.122693	0.394814	-0.131529
H48	H	-0.127719	0.377149	0.053190
H49	H	-0.229973	0.453649	0.000023
C50	C	0.016935	1.088981	0.304922
C51	C	-0.012998	1.100624	0.399301
H52	H	-0.079517	1.126301	0.272359
H53	H	-0.005688	1.033249	0.289228
H54	H	0.156307	1.099513	0.289174
H55	H	-0.152366	1.090086	0.415051
H56	H	0.009609	1.156370	0.415002
C57	C	0.788738	0.885025	0.577579
C58	C	0.583258	0.869560	0.600789
H59	H	0.885097	0.847664	0.610138
H60	H	0.811457	0.940740	0.593310
H61	H	0.809020	0.877144	0.513547
H62	H	0.562971	0.877447	0.664821
H63	H	0.560531	0.813831	0.585064
C64	C	-0.218375	1.085208	0.577577
C65	C	-0.012893	1.100675	0.600778
H66	H	-0.314731	1.122571	0.610134
H67	H	-0.241092	1.029494	0.593316
H68	H	-0.238663	1.093084	0.513544
H69	H	0.007400	1.092793	0.664810
H70	H	0.009832	1.156402	0.585044
C71	C	0.711419	0.914993	0.344113
C72	C	0.583261	0.869554	0.399308
H73	H	0.807767	0.877637	0.311543
H74	H	0.786578	0.950380	0.381551
H75	H	0.626822	0.947770	0.301800
H76	H	0.667857	0.836781	0.441626
H77	H	0.508097	0.834153	0.361867
H78	H	-0.056572	0.578193	0.000027
