data_functionalizedCrystal
_audit_creation_method	'MofGen! by Chris Wilmer'
_symmetry_space_group_name_H-M	'P1'
_symmetry_Int_Tables_number	1
_symmetry_cell_setting	triclinic
loop_
_symmetry_equiv_pos_as_xyz
  x,y,z
_cell_length_a	13.897447
_cell_length_b	12.759401
_cell_length_c	12.759393
_cell_angle_alpha	90.017571
_cell_angle_beta	90.031252
_cell_angle_gamma	90.022474
loop_
_atom_site_label
_atom_site_type_symbol
_atom_site_fract_x
_atom_site_fract_y
_atom_site_fract_z
Zn1	Zn	-0.383890	1.606217	0.593961
Zn2	Zn	0.116110	2.106217	1.093961
Zn3	Zn	-0.545217	1.606097	0.418279
Zn4	Zn	-0.045217	2.106097	0.918279
Zn5	Zn	-0.383946	1.430520	0.418302
Zn6	Zn	0.116054	1.930520	0.918302
Zn7	Zn	-0.545153	1.430493	0.593923
Zn8	Zn	-0.045153	1.930493	1.093923
O9	O	-0.464552	1.518332	0.506116
O10	O	0.035448	2.018332	1.006116
O11	O	-0.405294	1.753222	0.570663
O12	O	0.094706	2.253222	1.070663
O13	O	-0.523875	1.582768	0.271261
O14	O	-0.023875	2.082768	0.771261
O15	O	-0.248957	1.453888	0.441629
O16	O	0.251043	1.953888	0.941629
O17	O	-0.523820	1.753134	0.441590
O18	O	-0.023820	2.253134	0.941590
O19	O	-0.248916	1.582972	0.570685
O20	O	0.251084	2.082972	1.070685
O21	O	-0.405389	1.453772	0.271278
O22	O	0.094611	1.953772	0.771278
O23	O	-0.405327	1.283495	0.441592
O24	O	0.094673	1.783495	0.941592
O25	O	-0.523711	1.453841	0.740949
O26	O	-0.023711	1.953841	1.240949
O27	O	-0.523765	1.283475	0.570620
O28	O	-0.023765	1.783475	1.070620
O29	O	-0.405232	1.582945	0.740977
O30	O	0.094768	2.082945	1.240977
O31	O	-0.680190	1.582742	0.441553
O32	O	-0.180190	2.082742	0.941553
O33	O	-0.680143	1.453726	0.570598
O34	O	-0.180143	1.953726	1.070598
C35	C	-0.464546	1.245364	0.506105
C36	C	0.035454	1.745364	1.006105
C37	C	-0.464567	1.128588	0.506125
C38	C	0.035433	1.628588	1.006125
C39	C	-0.715166	1.518246	0.506092
C40	C	-0.215166	2.018246	1.006092
C41	C	-0.822380	1.518306	0.506117
C42	C	-0.322380	2.018306	1.006117
C43	C	-0.464458	1.518404	0.780150
C44	C	0.035542	2.018404	1.280150
C45	C	-0.464418	1.518434	0.896926
C46	C	0.035582	2.018434	1.396926
C47	C	-0.909450	1.518357	0.506141
C48	C	-0.409450	2.018357	1.006141
C49	C	-1.018682	1.518430	0.506168
C50	C	-0.518682	2.018430	1.006168
C51	C	-0.212959	1.518446	0.506164
C52	C	0.287041	2.018446	1.006164
C53	C	-0.105745	1.518495	0.506184
C54	C	0.394255	2.018495	1.006184
C55	C	-0.464558	1.792365	0.506128
C56	C	0.035442	2.292365	1.006128
C57	C	-0.464561	1.909141	0.506133
C58	C	0.035439	2.409141	1.006133
C59	C	-0.402850	1.964051	0.573328
C60	C	0.097150	2.464051	1.073328
C61	C	-0.402855	2.073775	0.573327
C62	C	0.097145	2.573775	1.073327
C63	C	-0.526285	2.073671	0.438927
C64	C	-0.026285	2.573671	0.938927
C65	C	-0.526284	1.963948	0.438934
C66	C	-0.026284	2.463948	0.938934
C67	C	-0.341126	1.909244	0.640527
C68	C	0.158874	2.409244	1.140527
C69	C	-0.279409	1.964153	0.707727
C70	C	0.220591	2.464153	1.207727
C71	C	-0.279415	2.073877	0.707725
C72	C	0.220585	2.573877	1.207725
C73	C	-0.341137	2.128692	0.640525
C74	C	0.158863	2.628692	1.140525
C75	C	-0.464575	1.518320	0.233149
C76	C	0.035425	2.018320	0.733149
C77	C	-0.464344	1.518493	0.116373
C78	C	0.035656	2.018493	0.616373
C79	C	-0.526049	1.451264	1.061501
C80	C	-0.026049	1.951264	1.561501
C81	C	-0.526084	1.451232	0.951776
C82	C	-0.026084	1.951232	1.451776
C83	C	-0.402705	1.585666	0.951806
C84	C	0.097295	2.085666	1.451806
C85	C	-0.402666	1.585693	1.061528
C86	C	0.097334	2.085693	1.561528
C87	C	-0.587727	1.384064	1.116345
C88	C	-0.087727	1.884064	1.616345
C89	C	-0.649438	1.316831	1.061472
C90	C	-0.149438	1.816831	1.561472
C91	C	-0.649473	1.316798	0.951748
C92	C	-0.149473	1.816798	1.451748
C93	C	-0.587797	1.383999	0.896896
C94	C	-0.087797	1.883999	1.396896
H95	H	-0.341111	1.819901	0.640531
H96	H	0.158889	2.319901	1.140531
O97	O	-0.336196	1.658149	0.892644
O98	O	0.163804	2.158149	1.392644
H99	H	-0.293275	1.704899	0.949234
H100	H	0.206725	2.204899	1.449234
H101	H	-0.341129	2.218037	0.640522
H102	H	0.158871	2.718037	1.140522
H103	H	-0.587707	1.384085	1.205688
H104	H	-0.087707	1.884085	1.705688
O105	O	-0.587835	1.383974	0.778550
O106	O	-0.087835	1.883974	1.278550
H107	H	-0.641109	1.325939	0.749605
H108	H	-0.141109	1.825939	1.249605
H109	H	-0.229168	2.118582	0.762449
H110	H	0.270832	2.618582	1.262449
O111	O	-0.592842	2.132784	0.366436
O112	O	-0.092842	2.632784	0.866436
H113	H	-0.582466	2.218306	0.377710
H114	H	-0.082466	2.718306	0.877710
H115	H	-0.576536	1.919240	0.384221
H116	H	-0.076536	2.419240	0.884221
O117	O	-0.715952	1.244344	1.120624
O118	O	-0.215952	1.744344	1.620624
H119	H	-0.705568	1.255663	1.206140
H120	H	-0.205568	1.755663	1.706140
H121	H	-0.699714	1.262045	0.907074
H122	H	-0.199714	1.762045	1.407074
O123	O	-0.336120	1.658208	1.120725
O124	O	0.163880	2.158208	1.620725
H125	H	-0.293250	1.704944	1.064157
H126	H	0.206750	2.204944	1.564157
O127	O	-0.212842	1.905031	0.780200
O128	O	0.287158	2.405031	1.280200
H129	H	-0.229359	1.926099	0.862656
H130	H	0.270641	2.426099	1.362656
