data_functionalizedCrystal
_audit_creation_method	'MofGen! by Chris Wilmer'
_symmetry_space_group_name_H-M	'P1'
_symmetry_Int_Tables_number	1
_symmetry_cell_setting	triclinic
loop_
_symmetry_equiv_pos_as_xyz
  x,y,z
_cell_length_a	13.635800
_cell_length_b	9.108908
_cell_length_c	11.102188
_cell_angle_alpha	82.516257
_cell_angle_beta	108.603875
_cell_angle_gamma	68.235111
loop_
_atom_site_label
_atom_site_type_symbol
_atom_site_fract_x
_atom_site_fract_y
_atom_site_fract_z
V1	V	2.093011	-0.507870	0.231237
O2	O	2.071823	-0.498202	0.045894
O3	O	2.081140	-0.504397	0.403678
O4	O	2.097647	-0.729369	0.252693
O5	O	2.055201	-0.271672	0.197924
V6	V	2.329491	-0.479619	0.206112
O7	O	2.235226	-0.569841	0.286350
O8	O	2.412374	-0.417647	0.150999
O9	O	2.229758	-0.483092	0.033671
O10	O	2.409377	-0.489287	0.391456
O11	O	2.425999	-0.715817	0.239425
O12	O	2.213251	-0.258119	0.184656
V13	V	2.593011	-0.507870	0.231237
O14	O	2.571823	-0.498202	0.045894
O15	O	2.581140	-0.504397	0.403678
O16	O	2.597647	-0.729369	0.252693
O17	O	2.555201	-0.271672	0.197924
V18	V	2.829491	-0.479619	0.206112
O19	O	2.735226	-0.569841	0.286350
O20	O	2.912374	-0.417647	0.150999
O21	O	2.729758	-0.483092	0.033671
O22	O	2.909377	-0.489287	0.391456
O23	O	2.925999	-0.715817	0.239425
O24	O	2.713251	-0.258119	0.184656
C25	C	2.026763	-0.783358	0.252336
C26	C	2.071277	-0.964435	0.271020
C27	C	2.005706	-0.496385	0.444934
C28	C	2.036836	-0.495021	0.586068
C29	C	2.136862	-0.491099	-0.007578
C30	C	2.095353	-0.492473	-0.148710
C31	C	2.115805	-0.204122	0.185017
C32	C	2.060910	-0.023044	0.166326
C33	C	2.505706	-0.496385	0.444934
C34	C	2.536836	-0.495021	0.586068
C35	C	2.526763	-0.783358	0.252336
C36	C	2.571277	-0.964435	0.271020
C37	C	2.010436	-0.345214	0.617953
C38	C	2.039698	-0.343940	0.750565
C39	C	2.121758	-0.642292	0.819399
C40	C	2.092503	-0.643566	0.686789
C41	C	2.089906	-0.168207	0.895174
C42	C	2.063487	-0.018390	0.927060
C43	C	1.958240	0.118126	0.848907
C44	C	1.879387	0.104833	0.738867
C45	C	1.905799	-0.044985	0.706987
C46	C	2.011067	-0.181497	0.785139
C47	C	2.042283	-0.819287	0.542175
C48	C	2.068688	-0.969107	0.510293
C49	C	2.173931	-1.105636	0.588446
C50	C	2.252775	-1.092359	0.698493
C51	C	2.226370	-0.942539	0.730375
C52	C	2.121126	-0.806010	0.652213
C53	C	2.636862	-0.491099	-0.007578
C54	C	2.595353	-0.492473	-0.148710
C55	C	2.615805	-0.204122	0.185017
C56	C	2.560910	-0.023044	0.166326
C57	C	2.684804	-1.057773	0.287036
C58	C	2.726640	-1.227912	0.304575
C59	C	2.654949	-1.304711	0.306106
C60	C	2.541411	-1.211360	0.290084
C61	C	2.499575	-1.041222	0.272536
C62	C	2.450375	0.053714	0.164785
C63	C	2.398775	0.223858	0.147208
C64	C	2.457716	0.317241	0.131182
C65	C	2.568260	0.240473	0.132720
C66	C	2.619854	0.070333	0.150287
C67	C	2.510436	-0.345214	0.617953
C68	C	2.539698	-0.343940	0.750565
C69	C	2.621758	-0.642292	0.819399
C70	C	2.592503	-0.643566	0.686789
C71	C	2.589906	-0.168207	0.895174
C72	C	2.563487	-0.018390	0.927060
C73	C	2.458240	0.118126	0.848907
C74	C	2.379387	0.104833	0.738867
C75	C	2.405799	-0.044985	0.706987
C76	C	2.511067	-0.181497	0.785139
C77	C	2.542283	-0.819287	0.542175
C78	C	2.568688	-0.969107	0.510293
C79	C	2.673931	-1.105636	0.588446
C80	C	2.752775	-1.092359	0.698493
C81	C	2.726370	-0.942539	0.730375
C82	C	2.621126	-0.806010	0.652213
H83	H	2.017971	-0.934692	0.062403
Cl84	Cl	1.940462	-0.158474	0.491337
H85	H	1.841596	-0.055809	0.617399
Cl86	Cl	2.662616	-0.001681	1.065388
H87	H	2.114205	-1.052795	0.374949
H88	H	2.709863	0.007850	0.151547
H89	H	2.338470	-1.203534	0.762134
H90	H	1.793682	0.215998	0.675248
H91	H	2.689030	-1.443250	0.320396
Cl92	Cl	2.869377	-1.345236	0.324724
Cl93	Cl	2.707119	-1.293987	0.548371
H94	H	2.402365	-0.022297	0.177831
H95	H	1.936732	0.240109	0.874878
Cl96	Cl	2.356852	-0.923906	0.252421
H97	H	2.127699	-0.007579	1.016658
H98	H	2.167082	-0.763231	0.901421
H99	H	2.175617	-0.279353	0.958806
Cl100	Cl	2.722234	-0.339820	0.993419
Cl101	Cl	2.642348	0.357889	0.112587
Cl102	Cl	2.410037	-0.647581	0.443806
Cl103	Cl	2.259812	0.320327	0.145290
Cl104	Cl	2.325489	-0.925849	0.868725
Cl105	Cl	2.440462	-0.158474	0.491337
Cl106	Cl	2.451304	-1.307936	0.292031
H107	H	2.195419	-1.227629	0.562484
H108	H	2.415697	0.455775	0.116894
Cl109	Cl	1.969564	-0.985801	0.371952
H110	H	1.956581	-0.708118	0.478528
H111	H	2.341596	-0.055809	0.617399
Cl112	Cl	2.774952	-0.961263	0.285113
Cl113	Cl	2.247063	0.276459	0.640634
H114	H	2.436732	0.240109	0.874878
Cl115	Cl	2.691732	-0.829022	0.946026
H116	H	2.790574	-0.931738	0.819986
H117	H	2.838470	-1.203534	0.762134
H118	H	2.504476	-0.979915	0.420694
