data_functionalizedCrystal
_audit_creation_method	'MofGen! by Chris Wilmer'
_symmetry_space_group_name_H-M	'P1'
_symmetry_Int_Tables_number	1
_symmetry_cell_setting	triclinic
loop_
_symmetry_equiv_pos_as_xyz
  x,y,z
_cell_length_a	12.827893
_cell_length_b	16.959454
_cell_length_c	12.827885
_cell_angle_alpha	89.970356
_cell_angle_beta	89.980728
_cell_angle_gamma	90.020046
loop_
_atom_site_label
_atom_site_type_symbol
_atom_site_fract_x
_atom_site_fract_y
_atom_site_fract_z
Zn1	Zn	1.597636	-0.314644	-0.590850
Zn2	Zn	1.597515	-0.446843	-0.416110
Zn3	Zn	1.422877	-0.314682	-0.416123
Zn4	Zn	1.422848	-0.446784	-0.590810
O5	O	1.510219	-0.380738	-0.503473
O6	O	1.743856	-0.332189	-0.567681
O7	O	1.574311	-0.429352	-0.269876
O8	O	1.446122	-0.204066	-0.439323
O9	O	1.743767	-0.429315	-0.439301
O10	O	1.574516	-0.204038	-0.567694
O11	O	1.446005	-0.332254	-0.269885
O12	O	1.276637	-0.332197	-0.439285
O13	O	1.446072	-0.429215	-0.737052
O14	O	1.276616	-0.429252	-0.567627
O15	O	1.574488	-0.332132	-0.737081
O16	O	1.574283	-0.557446	-0.439263
O17	O	1.445956	-0.557403	-0.567614
C18	C	1.238709	-0.380723	-0.503454
C19	C	1.122556	-0.380736	-0.503470
C20	C	1.070788	-0.428836	-0.566880
C21	C	0.950738	-0.428850	-0.566898
C22	C	1.510131	-0.586105	-0.503456
C23	C	1.510190	-0.673961	-0.503483
C24	C	1.443496	-1.045444	-0.570299
C25	C	1.577233	-1.045429	-0.436755
C26	C	1.577197	-0.962883	-0.436745
C27	C	1.510308	-0.921614	-0.503512
C28	C	1.443455	-0.962891	-0.570289
C29	C	1.644041	-0.921601	-0.369962
C30	C	1.644006	-0.839050	-0.369949
C31	C	1.577121	-0.797779	-0.436722
C32	C	1.510267	-0.839061	-0.503502
C33	C	1.443378	-0.797791	-0.570270
C34	C	1.376528	-0.839071	-0.637056
C35	C	1.376571	-0.921620	-0.637062
C36	C	1.577079	-0.715231	-0.436716
C37	C	1.443337	-0.715238	-0.570260
C38	C	1.782789	-0.380754	-0.503494
C39	C	1.898942	-0.380761	-0.503503
C40	C	1.510290	-0.380662	-0.776044
C41	C	1.510320	-0.380630	-0.892197
C42	C	1.510335	-0.174570	-0.503514
C43	C	1.510385	-0.086714	-0.503532
C44	C	1.573871	-0.332581	-0.943996
C45	C	1.573904	-0.332546	-1.064046
C46	C	1.510208	-0.380757	-0.231964
C47	C	1.510380	-0.380567	-0.115811
H48	H	0.906219	-0.470034	-0.621182
O49	O	1.378593	-1.085660	-0.635073
C50	C	1.319429	-1.212833	-0.694333
C51	C	1.392966	-1.167387	-0.620907
H52	H	1.331040	-1.278917	-0.682921
H53	H	1.235144	-1.196717	-0.675902
H54	H	1.337714	-1.196501	-0.778598
H55	H	1.374775	-1.183694	-0.536617
H56	H	1.477229	-1.183507	-0.639427
H57	H	1.628252	-0.291467	-0.899466
O58	O	1.445437	-0.429727	-1.062845
C59	C	1.312764	-0.529979	-1.074098
C60	C	1.386271	-0.474357	-1.134221
H61	H	1.264893	-0.566065	-1.131779
H62	H	1.360709	-0.571344	-1.023028
H63	H	1.258218	-0.493659	-1.022966
H64	H	1.440831	-0.510613	-1.185410
H65	H	1.338261	-0.432989	-1.185225
H66	H	1.628316	-0.291412	-1.108592
H67	H	1.455930	-0.421736	-0.936727
O68	O	0.952153	-0.331738	-0.438680
C69	C	1.075396	-0.321054	-0.297664
C70	C	1.015208	-0.376659	-0.371026
H71	H	1.126374	-0.357351	-0.242933
H72	H	1.126604	-0.279809	-0.345715
H73	H	1.017701	-0.284831	-0.249984
H74	H	1.072828	-0.412934	-0.418721
H75	H	0.963985	-0.417852	-0.322915
H76	H	1.631685	-1.079036	-0.382389
O77	O	1.708996	-0.798866	-0.305227
C78	C	1.850096	-0.705636	-0.291296
C79	C	1.776541	-0.751082	-0.364706
H80	H	1.904739	-0.667005	-0.339356
H81	H	1.802190	-0.666983	-0.236624
H82	H	1.897860	-0.749327	-0.243553
H83	H	1.728761	-0.707448	-0.412516
H84	H	1.824507	-0.789748	-0.419308
H85	H	1.631502	-0.681624	-0.382334
H86	H	1.077999	-0.339562	-0.449200
H87	H	1.115345	-0.470004	-0.621157
O88	O	1.311406	-0.799016	-0.701805
C89	C	1.133616	-0.773861	-0.752427
C90	C	1.207242	-0.819261	-0.679019
H91	H	1.049386	-0.790225	-0.734046
H92	H	1.144979	-0.707762	-0.740938
H93	H	1.151990	-0.790028	-0.836703
H94	H	1.188914	-0.803160	-0.594715
H95	H	1.195865	-0.885349	-0.690598
O96	O	1.378264	-0.675274	-0.635156
C97	C	1.245674	-0.684001	-0.767673
C98	C	1.319295	-0.729357	-0.694214
H99	H	1.197994	-0.727707	-0.815456
H100	H	1.190963	-0.645429	-0.719697
H101	H	1.293623	-0.645279	-0.822303
H102	H	1.271431	-0.768122	-0.639569
H103	H	1.374009	-0.767880	-0.742255
H104	H	1.322144	-0.955238	-0.691435
O105	O	1.708886	-0.961810	-0.305115
C106	C	1.767962	-1.088980	-0.245700
C107	C	1.694544	-1.043537	-0.319270
H108	H	1.756376	-1.155064	-0.257103
H109	H	1.852276	-1.072806	-0.263996
H110	H	1.749533	-1.072704	-0.161473
H111	H	1.712879	-1.059789	-0.403521
H112	H	1.610251	-1.059716	-0.300884
