data_functionalizedCrystal
_audit_creation_method	'MofGen! by Chris Wilmer'
_symmetry_space_group_name_H-M	'P1'
_symmetry_Int_Tables_number	1
_symmetry_cell_setting	triclinic
loop_
_symmetry_equiv_pos_as_xyz
  x,y,z
_cell_length_a	16.625547
_cell_length_b	25.639240
_cell_length_c	16.625539
_cell_angle_alpha	90.038438
_cell_angle_beta	90.024822
_cell_angle_gamma	90.032694
loop_
_atom_site_label
_atom_site_type_symbol
_atom_site_fract_x
_atom_site_fract_y
_atom_site_fract_z
Zn1	Zn	1.232623	-0.208151	0.455944
Zn2	Zn	1.232502	-0.295589	0.321087
Zn3	Zn	1.097785	-0.208169	0.321115
Zn4	Zn	1.097731	-0.295557	0.455867
O5	O	1.165160	-0.251866	0.388503
O6	O	1.345439	-0.219755	0.438076
O7	O	1.214603	-0.284013	0.208259
O8	O	1.115744	-0.135001	0.339043
O9	O	1.345350	-0.283995	0.338997
O10	O	1.214809	-0.134988	0.438102
O11	O	1.115627	-0.219786	0.208279
O12	O	0.984945	-0.219755	0.338969
O13	O	1.115653	-0.283941	0.568710
O14	O	0.984906	-0.283959	0.437971
O15	O	1.214757	-0.219724	0.568766
O16	O	1.214551	-0.368750	0.338923
O17	O	1.115535	-0.368726	0.437945
C18	C	0.955669	-0.251856	0.388465
C19	C	0.866048	-0.251864	0.388468
C20	C	0.793266	-0.251865	0.388478
C21	C	0.701957	-0.251868	0.388498
C22	C	0.629181	-0.251873	0.388519
C23	C	0.537866	-0.251877	0.388538
C24	C	1.165046	-0.387709	0.388440
C25	C	1.165071	-0.445823	0.388440
C26	C	1.216769	-0.806140	0.440176
C27	C	1.216793	-0.860745	0.440193
O28	O	1.260612	-0.888943	0.484116
N29	N	1.165272	-0.888105	0.388581
C30	C	1.113718	-0.860859	0.336956
O31	O	1.069898	-0.889145	0.293059
C32	C	1.113691	-0.806255	0.336944
C33	C	1.165221	-0.778898	0.388553
C34	C	1.268294	-0.778783	0.491782
C35	C	1.268271	-0.724182	0.491764
C36	C	1.216723	-0.696939	0.440141
C37	C	1.165198	-0.724297	0.388536
C38	C	1.062134	-0.779010	0.285324
C39	C	1.062111	-0.724403	0.285317
C40	C	1.113641	-0.697045	0.336926
C41	C	1.113627	-0.642454	0.336895
N42	N	1.165148	-0.615093	0.388506
C43	C	1.216696	-0.642336	0.440129
C44	C	1.113778	-0.975529	0.336986
C45	C	1.113809	-1.030132	0.336993
C46	C	1.216883	-1.030014	0.440230
C47	C	1.216855	-0.975411	0.440219
C48	C	1.165299	-0.948169	0.388597
C49	C	1.216644	-0.527671	0.440088
C50	C	1.216619	-0.473066	0.440063
C51	C	1.113543	-0.473188	0.336829
C52	C	1.113571	-0.527789	0.336850
C53	C	1.165124	-0.555029	0.388486
O54	O	1.069827	-0.614221	0.292997
O55	O	1.260502	-0.614043	0.484027
C56	C	1.375469	-0.251877	0.388542
C57	C	1.465090	-0.251881	0.388559
C58	C	1.165212	-0.251827	0.598812
C59	C	1.165235	-0.251811	0.688434
C60	C	1.165296	-0.115493	0.388584
C61	C	1.165354	-0.057379	0.388619
C62	C	1.165154	-0.251867	0.179013
C63	C	1.165288	-0.251737	0.089392
C64	C	1.165272	-0.251752	1.016609
C65	C	1.165259	-0.251770	0.925301
C66	C	1.165254	-0.251782	0.852524
C67	C	1.165240	-0.251799	0.761210
H68	H	1.258618	-0.549843	0.482140
H69	H	1.020125	-0.702225	0.243281
H70	H	1.071617	-0.550065	0.294819
H71	H	1.071576	-0.450999	0.294795
O72	O	1.063717	-1.056760	0.286967
C73	C	0.954841	-1.118440	0.276029
C74	C	1.011541	-1.088329	0.332769
H75	H	0.912632	-1.143962	0.313038
H76	H	0.991843	-1.144043	0.233921
H77	H	0.918036	-1.089572	0.239117
H78	H	1.048358	-1.117158	0.369734
H79	H	0.974493	-1.062717	0.374825
O80	O	1.318259	-0.805265	0.542016
C81	C	1.329108	-0.866863	0.650880
C82	C	1.272420	-0.836902	0.594054
H83	H	1.292071	-0.892457	0.692955
H84	H	1.365909	-0.837945	0.687814
H85	H	1.371322	-0.892397	0.613892
H86	H	1.230158	-0.811368	0.630979
H87	H	1.235676	-0.865848	0.557117
O88	O	1.011997	-0.805496	0.235168
C89	C	0.909780	-0.799826	0.132752
C90	C	0.966511	-0.769767	0.189527
H91	H	0.873001	-0.770952	0.095825
H92	H	0.867554	-0.825377	0.169698
H93	H	0.946834	-0.825407	0.090660
H94	H	0.929522	-0.744157	0.231631
H95	H	1.008739	-0.744249	0.152531
H96	H	1.258584	-0.450793	0.482089
O97	O	1.318349	-0.697692	0.541978
C98	C	1.420617	-0.703358	0.644343
C99	C	1.363930	-0.733419	0.587526
H100	H	1.457497	-0.732231	0.681172
H101	H	1.383605	-0.677808	0.686519
H102	H	1.462758	-0.677776	0.607354
H103	H	1.321778	-0.759029	0.624451
H104	H	1.400993	-0.758936	0.545348
O105	O	1.266992	-0.948815	0.490242
C106	C	1.375789	-0.887079	0.501203
C107	C	1.319072	-0.917170	0.444455
H108	H	1.417898	-0.861479	0.464208
H109	H	1.412692	-0.915912	0.538082
H110	H	1.338718	-0.861540	0.543341
H111	H	1.356081	-0.942710	0.402268
H112	H	1.282166	-0.888309	0.407632
H113	H	1.258854	-1.052205	0.482266
O114	O	1.063675	-0.949149	0.286753
C115	C	0.961413	-0.955040	0.184389
C116	C	1.018127	-0.984976	0.241220
H117	H	0.924560	-0.983993	0.147573
H118	H	0.998402	-0.929493	0.142202
H119	H	0.919248	-0.929467	0.221366
H120	H	1.060303	-1.010578	0.204308
H121	H	0.981088	-1.010491	0.283409
