data_functionalizedCrystal
_audit_creation_method	'MofGen! by Chris Wilmer'
_symmetry_space_group_name_H-M	'P1'
_symmetry_Int_Tables_number	1
_symmetry_cell_setting	triclinic
loop_
_symmetry_equiv_pos_as_xyz
  x,y,z
_cell_length_a	11.792241
_cell_length_b	11.792241
_cell_length_c	10.868271
_cell_angle_alpha	90.005737
_cell_angle_beta	90.004182
_cell_angle_gamma	95.806584
loop_
_atom_site_label
_atom_site_type_symbol
_atom_site_fract_x
_atom_site_fract_y
_atom_site_fract_z
O1	O	-1.506902	0.155570	0.102185
O2	O	-1.006902	0.655570	0.602185
O3	O	-1.176561	0.171603	0.102218
O4	O	-0.676561	0.671603	0.602218
O5	O	-1.349748	-0.001584	0.102192
O6	O	-0.849748	0.498416	0.602192
O7	O	-1.333715	0.328757	0.102211
O8	O	-0.833715	0.828757	0.602211
O9	O	-1.349746	-0.001594	-0.102453
O10	O	-0.849746	0.498406	0.397547
O11	O	-1.176559	0.171593	-0.102427
O12	O	-0.676559	0.671593	0.397573
O13	O	-1.506900	0.155560	-0.102460
O14	O	-1.006900	0.655560	0.397540
Zn15	Zn	-1.341729	0.163575	-0.134935
Zn16	Zn	-0.841729	0.663575	0.365065
Zn17	Zn	-1.341732	0.163588	0.134693
Zn18	Zn	-0.841732	0.663588	0.634693
O19	O	-1.333713	0.328747	-0.102434
O20	O	-0.833713	0.828747	0.397566
C21	C	-1.134269	0.170591	-0.000101
C22	C	-0.634269	0.670591	0.499899
C23	C	-1.008255	0.167576	-0.000088
C24	C	-0.508255	0.667576	0.499912
C25	C	-1.348740	-0.043880	-0.000130
C26	C	-0.848740	0.456120	0.499870
C27	C	-1.345726	-0.169894	-0.000129
C28	C	-0.845726	0.330106	0.499871
C29	C	-0.777543	0.162034	-0.000121
C30	C	-0.277543	0.662034	0.499879
C31	C	-0.905928	0.165113	-0.000103
C32	C	-0.405928	0.665113	0.499897
C33	C	-1.340183	-0.400606	-0.000107
C34	C	-0.840183	0.099394	0.499893
C35	C	-1.343262	-0.272221	-0.000119
C36	C	-0.843262	0.227779	0.499881
C37	C	-0.549192	0.156572	-0.000136
C38	C	-0.049192	0.656572	0.499864
C39	C	-0.675206	0.159587	-0.000131
C40	C	-0.175206	0.659587	0.499869
C41	C	-1.334721	0.371043	-0.000109
C42	C	-0.834721	0.871043	0.499891
C43	C	-1.337736	0.497057	-0.000103
C44	C	-0.837736	0.997057	0.499897
N45	N	-1.341735	0.163588	0.318707
N46	N	-0.841735	0.663588	0.818707
N47	N	-1.341736	0.163566	-0.318949
N48	N	-0.841736	0.663566	0.181051
C49	C	-1.341731	0.163581	0.569713
C50	C	-0.841731	0.663581	1.069713
C51	C	-1.341730	0.163589	0.430036
C52	C	-0.841730	0.663589	0.930036
