data_functionalizedCrystal
_audit_creation_method	'MofGen! by Chris Wilmer'
_symmetry_space_group_name_H-M	'P1'
_symmetry_Int_Tables_number	1
_symmetry_cell_setting	triclinic
loop_
_symmetry_equiv_pos_as_xyz
  x,y,z
_cell_length_a	8.597340
_cell_length_b	10.540539
_cell_length_c	7.681481
_cell_angle_alpha	84.202085
_cell_angle_beta	103.474906
_cell_angle_gamma	84.930270
loop_
_atom_site_label
_atom_site_type_symbol
_atom_site_fract_x
_atom_site_fract_y
_atom_site_fract_z
O1	O	2.101845	0.175543	0.172468
O2	O	1.638015	0.195768	0.102093
O3	O	1.880512	0.000872	0.138888
O4	O	1.859348	0.370439	0.135673
O5	O	1.910359	-0.023171	0.436275
O6	O	1.667862	0.171725	0.399480
O7	O	2.131692	0.151500	0.469854
Zn8	Zn	1.904516	0.157795	0.481884
Zn9	Zn	1.865191	0.189472	0.090064
O10	O	1.889195	0.346396	0.433059
C11	C	1.593545	0.182914	0.241775
C12	C	1.416573	0.180417	0.214924
C13	C	1.893848	-0.058441	0.287337
C14	C	1.889099	-0.199354	0.286607
C15	C	1.707076	-0.381405	0.258333
C16	C	1.711956	-0.234876	0.259733
C17	C	1.991392	-0.275360	0.469364
C18	C	1.985360	-0.421872	0.468590
C19	C	1.955022	-0.395076	0.130952
C20	C	1.956428	-0.247924	0.128955
C21	C	2.176161	0.164354	0.330168
C22	C	2.353133	0.166851	0.357008
C23	C	1.875858	0.405709	0.284606
C24	C	1.880607	0.546623	0.285324
N25	N	1.931365	0.136175	0.749292
N26	N	1.838354	0.211082	-0.177342
H27	H	1.434211	0.157137	0.499201
C28	C	1.710076	0.314369	0.701618
C29	C	1.601944	0.400846	0.786389
C30	C	1.473664	0.504135	0.665337
C31	C	1.453515	0.520946	0.459514
C32	C	1.561650	0.434467	0.374732
C33	C	1.689931	0.331178	0.495784
H34	H	1.616857	0.388403	0.938762
H35	H	1.393615	0.568152	0.728099
H36	H	1.358554	0.597407	0.369904
H37	H	1.546738	0.446910	0.222360
H38	H	1.769979	0.267161	0.433022
H39	H	1.632660	-0.181943	0.127820
C40	C	1.307046	0.193534	0.022812
C41	C	1.205065	0.085360	-0.036417
C42	C	1.095539	0.098477	-0.228525
C43	C	1.087993	0.219768	-0.361405
C44	C	1.189978	0.327951	-0.302180
C45	C	1.299504	0.314834	-0.110071
H46	H	1.210647	-0.004434	0.061951
H47	H	1.020043	0.018392	-0.272367
H48	H	1.006915	0.229477	-0.503616
H49	H	1.184395	0.417745	-0.400548
H50	H	1.374999	0.394919	-0.066229
C51	C	1.637314	-0.191249	0.410745
C52	C	1.711765	-0.248656	0.608267
C53	C	1.637152	-0.205098	0.759346
C54	C	1.488089	-0.104133	0.712903
C55	C	1.413630	-0.046720	0.515371
C56	C	1.488242	-0.090278	0.364292
H57	H	1.822118	-0.323401	0.642655
H58	H	1.692272	-0.247599	0.905572
H59	H	1.432856	-0.071888	0.824741
H60	H	1.303277	0.028025	0.480983
H61	H	1.433122	-0.047777	0.218066
C62	C	1.855256	-0.178288	-0.053544
C63	C	1.712170	-0.077788	-0.059468
C64	C	1.610997	-0.008141	-0.241963
C65	C	1.652910	-0.038995	-0.418533
C66	C	1.796003	-0.139500	-0.412615
C67	C	1.897176	-0.209146	-0.230120
H68	H	1.681138	-0.054943	0.071245
H69	H	1.505070	0.066259	-0.246343
H70	H	1.578016	0.012562	-0.553627
H71	H	1.827036	-0.162344	-0.543328
H72	H	2.003103	-0.283547	-0.225740
C73	C	2.059650	0.032883	0.870339
C74	C	2.080187	0.016370	1.076222
C75	C	2.208469	-0.086920	1.197269
C76	C	2.316215	-0.173697	1.112433
C77	C	2.295682	-0.157186	0.906540
C78	C	2.167400	-0.053896	0.785493
H79	H	2.000424	0.080609	1.139033
H80	H	2.223668	-0.099142	1.349686
H81	H	2.411177	-0.250158	1.202039
H82	H	2.375445	-0.221426	0.843729
H83	H	2.152200	-0.041674	0.633076
H84	H	1.944857	-0.242548	0.586755
H85	H	1.624878	-0.399651	0.125934
H86	H	1.649539	-0.420897	0.368859
H87	H	1.935098	-0.459877	0.585976
H88	H	2.113532	-0.471389	0.495623
H89	H	2.122114	-0.254462	0.495416
H90	H	1.884771	-0.415806	-0.006461
H91	H	2.084549	-0.223812	0.138295
H92	H	2.082857	-0.443139	0.149223
