data_functionalizedCrystal
_audit_creation_method	'MofGen! by Chris Wilmer'
_symmetry_space_group_name_H-M	'P1'
_symmetry_Int_Tables_number	1
_symmetry_cell_setting	triclinic
loop_
_symmetry_equiv_pos_as_xyz
  x,y,z
_cell_length_a	10.967926
_cell_length_b	19.188924
_cell_length_c	18.266242
_cell_angle_alpha	90.007204
_cell_angle_beta	77.879694
_cell_angle_gamma	83.944562
loop_
_atom_site_label
_atom_site_type_symbol
_atom_site_fract_x
_atom_site_fract_y
_atom_site_fract_z
O1	O	1.655097	0.097916	-0.147930
O2	O	1.988430	0.431249	0.185404
O3	O	2.321764	0.764582	0.518737
O4	O	1.291763	0.107290	-0.102088
O5	O	1.625097	0.440624	0.231245
O6	O	1.958430	0.773957	0.564579
O7	O	1.483920	0.001015	-0.126341
O8	O	1.817253	0.334348	0.206992
O9	O	2.150586	0.667682	0.540326
O10	O	1.462941	0.204191	-0.123677
O11	O	1.796274	0.537524	0.209657
O12	O	2.129607	0.870858	0.542990
O13	O	1.483887	0.001012	-0.248099
O14	O	1.817220	0.334345	0.085234
O15	O	2.150554	0.667679	0.418568
O16	O	1.291731	0.107287	-0.223846
O17	O	1.625064	0.440621	0.109487
O18	O	1.958397	0.773954	0.442821
O19	O	1.655064	0.097912	-0.269688
O20	O	1.988398	0.431246	0.063646
O21	O	2.321731	0.764579	0.396979
Zn22	Zn	1.473392	0.102599	-0.266098
Zn23	Zn	1.806726	0.435933	0.067235
Zn24	Zn	2.140059	0.769266	0.400568
Zn25	Zn	1.473435	0.102603	-0.105677
Zn26	Zn	1.806769	0.435937	0.227656
Zn27	Zn	2.140102	0.769270	0.560989
O28	O	1.462908	0.204188	-0.245435
O29	O	1.796241	0.537521	0.087899
O30	O	2.129575	0.870854	0.421232
C31	C	1.245263	0.106607	-0.157102
C32	C	1.578597	0.439940	0.176231
C33	C	1.911930	0.773274	0.509564
C34	C	1.106757	0.104567	-0.139627
C35	C	1.440090	0.437900	0.193706
C36	C	1.773423	0.771234	0.527039
C37	C	1.044989	0.103656	-0.194911
C38	C	1.378322	0.436989	0.138423
C39	C	1.711656	0.770322	0.471756
C40	C	0.901835	0.101547	-0.176851
C41	C	1.235169	0.434880	0.156483
C42	C	1.568502	0.768214	0.489816
C43	C	1.483225	-0.025002	-0.187135
C44	C	1.816559	0.308331	0.146198
C45	C	2.149892	0.641665	0.479532
C46	C	1.481190	-0.102520	-0.186880
C47	C	1.814524	0.230813	0.146453
C48	C	2.147857	0.564147	0.479786
C49	C	1.480258	-0.138923	-0.120390
C50	C	1.813592	0.194410	0.212943
C51	C	2.146925	0.527743	0.546277
C52	C	1.478328	-0.211759	-0.120141
C53	C	1.811662	0.121575	0.213192
C54	C	2.144995	0.454908	0.546526
C55	C	1.477356	-0.248189	-0.186389
C56	C	1.810689	0.085144	0.146944
C57	C	2.144022	0.418477	0.480278
C58	C	1.478281	-0.211777	-0.252887
C59	C	1.811614	0.121557	0.080446
C60	C	2.144947	0.454890	0.413779
C61	C	1.480198	-0.138942	-0.253133
C62	C	1.813531	0.194391	0.080201
C63	C	2.146865	0.527725	0.413534
N64	N	1.545337	-0.367412	-0.244364
N65	N	1.878670	-0.034079	0.088969
N66	N	2.212004	0.299254	0.422302
N67	N	1.543518	-0.436602	-0.244127
N68	N	1.876851	-0.103269	0.089206
N69	N	2.210185	0.230064	0.422540
C70	C	1.471576	-0.467636	-0.185653
C71	C	1.804910	-0.134303	0.147681
C72	C	2.138243	0.199031	0.481014
N73	N	1.401537	-0.426867	-0.127416
N74	N	1.734871	-0.093533	0.205917
N75	N	2.068204	0.239800	0.539251
N76	N	1.403362	-0.357671	-0.127652
N77	N	1.736695	-0.024337	0.205681
N78	N	2.070029	0.308996	0.539015
C79	C	1.475276	-0.327166	-0.186130
C80	C	1.808609	0.006167	0.147203
C81	C	2.141943	0.339500	0.480537
C82	C	1.468550	-0.583016	-0.118888
C83	C	1.801883	-0.249682	0.214446
C84	C	2.135216	0.083651	0.547779
C85	C	1.466612	-0.655852	-0.118640
C86	C	1.799945	-0.322518	0.214693
C87	C	2.133279	0.010815	0.548026
C88	C	1.466577	-0.655869	-0.251390
C89	C	1.799910	-0.322536	0.081943
C90	C	2.133244	0.010797	0.415276
C91	C	1.468502	-0.583034	-0.251634
C92	C	1.801836	-0.249700	0.081699
C93	C	2.135169	0.083633	0.415033
C94	C	1.469494	-0.546612	-0.185381
C95	C	1.802828	-0.213278	0.147952
C96	C	2.136161	0.120055	0.481285
C97	C	1.701564	0.098596	-0.214672
C98	C	2.034898	0.431929	0.118662
C99	C	2.368231	0.765262	0.451995
C100	C	1.840071	0.100636	-0.232142
C101	C	2.173404	0.433969	0.101191
C102	C	2.506738	0.767303	0.434525
C103	C	1.463602	0.230205	-0.184639
C104	C	1.796936	0.563538	0.148694
C105	C	2.130269	0.896871	0.482028
C106	C	1.465637	0.307723	-0.184889
C107	C	1.798971	0.641056	0.148444
C108	C	2.132304	0.974389	0.481778
N109	N	1.473372	0.102596	-0.375583
N110	N	1.806705	0.435929	-0.042249
N111	N	2.140039	0.769263	0.291084
C112	C	1.548801	0.145331	-0.423399
C113	C	1.882135	0.478665	-0.090065
C114	C	2.215468	0.811998	0.243268
C115	C	1.548822	0.145330	-0.500046
C116	C	1.882155	0.478663	-0.166713
C117	C	2.215489	0.811996	0.166621
C118	C	1.473390	0.102600	-0.528872
C119	C	1.806724	0.435934	-0.195539
C120	C	2.140057	0.769267	0.137795
C121	C	1.397956	0.059856	-0.481046
C122	C	1.731290	0.393190	-0.147713
C123	C	2.064623	0.726523	0.185620
C124	C	1.397947	0.059854	-0.404402
C125	C	1.731281	0.393187	-0.071068
C126	C	2.064614	0.726521	0.262265
N127	N	1.364115	0.100171	-0.635438
N128	N	1.697448	0.433504	-0.302104
N129	N	2.030781	0.766837	0.031229
N130	N	1.364126	0.100177	-0.708247
N131	N	1.697460	0.433510	-0.374914
N132	N	2.030793	0.766843	-0.041581
C133	C	1.473415	0.102603	-0.759798
C134	C	1.806748	0.435936	-0.426464
C135	C	2.140082	0.769270	-0.093131
N136	N	1.582693	0.105037	-0.735788
N137	N	1.916026	0.438370	-0.402455
N138	N	2.249359	0.771703	-0.069121
N139	N	1.582679	0.105034	-0.662971
N140	N	1.916012	0.438368	-0.329638
N141	N	2.249346	0.771701	0.003695
C142	C	1.473392	0.102598	-0.611979
C143	C	1.806726	0.435931	-0.278646
C144	C	2.140059	0.769264	0.054687
C145	C	1.548873	0.145339	-0.890724
C146	C	1.882206	0.478672	-0.557391
C147	C	2.215540	0.812005	-0.224057
C148	C	1.548896	0.145332	-0.967373
C149	C	1.882230	0.478665	-0.634040
C150	C	2.215563	0.811999	-0.300707
C151	C	1.398019	0.059863	-0.948371
C152	C	1.731353	0.393196	-0.615037
C153	C	2.064686	0.726529	-0.281704
C154	C	1.398008	0.059865	-0.871724
C155	C	1.731341	0.393199	-0.538391
C156	C	2.064674	0.726532	-0.205058
C157	C	1.473432	0.102607	-0.842905
C158	C	1.806766	0.435941	-0.509572
C159	C	2.140099	0.769274	-0.176239
N160	N	1.473466	0.102601	0.003806
N161	N	1.806799	0.435935	0.337139
N162	N	2.140132	0.769268	0.670473
H163	H	1.098089	0.104433	-0.255611
H164	H	1.431423	0.437766	0.077722
H165	H	1.764756	0.771099	0.411056
H166	H	0.848741	0.100764	-0.116147
H167	H	1.182075	0.434098	0.217187
H168	H	1.515408	0.767431	0.550520
F169	F	1.477335	-0.250509	-0.049370
F170	F	1.810668	0.082824	0.283963
F171	F	2.144002	0.416157	0.617297
H172	H	0.893164	0.101414	-0.292847
H173	H	1.226498	0.434748	0.040487
H174	H	1.559831	0.768081	0.373820
F175	F	1.037360	0.103541	-0.060286
F176	F	1.370693	0.436874	0.273047
F177	F	1.704027	0.770208	0.606381
H178	H	1.481063	-0.109273	-0.066442
H179	H	1.814396	0.224061	0.266892
H180	H	2.147729	0.557394	0.600225
H181	H	1.477485	-0.241443	-0.306826
H182	H	1.810818	0.091890	0.026507
H183	H	2.144152	0.425223	0.359840
F184	F	1.317750	0.014380	-0.979046
F185	F	1.651084	0.347713	-0.645712
F186	F	1.984417	0.681046	-0.312379
H187	H	1.480952	-0.109303	-0.307278
H188	H	1.814285	0.224031	0.026055
H189	H	2.147618	0.557364	0.359389
H190	H	1.465775	-0.685530	-0.305330
H191	H	1.799109	-0.352197	0.028004
H192	H	2.132442	-0.018863	0.361337
F193	F	1.465612	-0.694594	-0.047867
F194	F	1.798945	-0.361261	0.285466
F195	F	2.132278	-0.027927	0.618799
H196	H	1.469350	-0.553359	-0.064940
H197	H	1.802684	-0.220025	0.268393
H198	H	2.136017	0.113308	0.601727
F199	F	1.629189	0.190816	-1.018264
F200	F	1.962523	0.524149	-0.684931
F201	F	2.295856	0.857483	-0.351598
H202	H	1.610289	0.180141	-0.867259
H203	H	1.943623	0.513475	-0.533925
H204	H	2.276956	0.846808	-0.200592
F205	F	1.317704	0.014391	-0.820830
F206	F	1.651038	0.347724	-0.487497
F207	F	1.984371	0.681058	-0.154164
H208	H	1.469272	-0.553395	-0.305779
H209	H	1.802605	-0.220061	0.027554
H210	H	2.135938	0.113272	0.360888
H211	H	1.610223	0.180132	-0.399940
H212	H	1.943557	0.513466	-0.066607
H213	H	2.276890	0.846799	0.266726
H214	H	1.610246	0.180132	-0.538985
H215	H	1.943579	0.513465	-0.205652
H216	H	2.276913	0.846798	0.127682
F217	F	1.317680	0.014379	-0.511726
F218	F	1.651013	0.347712	-0.178393
F219	F	1.984347	0.681046	0.154940
H220	H	1.336521	0.025053	-0.365469
H221	H	1.669855	0.358386	-0.032136
H222	H	2.003188	0.691720	0.301198
