data_functionalizedCrystal
_audit_creation_method	'MofGen! by Chris Wilmer'
_symmetry_space_group_name_H-M	'P1'
_symmetry_Int_Tables_number	1
_symmetry_cell_setting	triclinic
loop_
_symmetry_equiv_pos_as_xyz
  x,y,z
_cell_length_a	25.639242
_cell_length_b	25.639240
_cell_length_c	12.759393
_cell_angle_alpha	89.956840
_cell_angle_beta	89.968488
_cell_angle_gamma	90.028283
loop_
_atom_site_label
_atom_site_type_symbol
_atom_site_fract_x
_atom_site_fract_y
_atom_site_fract_z
Zn1	Zn	0.799295	-0.208188	-0.594224
Zn2	Zn	0.799213	-0.295633	-0.418505
Zn3	Zn	0.711857	-0.208206	-0.418527
Zn4	Zn	0.711825	-0.295587	-0.594110
O5	O	0.755548	-0.251904	-0.506341
O6	O	0.872449	-0.219799	-0.570953
O7	O	0.787604	-0.284063	-0.271487
O8	O	0.723503	-0.135039	-0.441890
O9	O	0.872389	-0.284044	-0.441853
O10	O	0.787743	-0.135025	-0.570974
O11	O	0.723424	-0.219831	-0.271503
O12	O	0.638688	-0.219786	-0.441780
O13	O	0.723449	-0.283967	-0.741146
O14	O	0.638664	-0.283985	-0.570780
O15	O	0.787713	-0.219755	-0.741230
O16	O	0.787574	-0.368792	-0.441743
O17	O	0.723370	-0.368759	-0.570759
C18	C	0.619705	-0.251883	-0.506270
C19	C	0.561591	-0.251887	-0.506265
C20	C	0.201225	-0.285388	-0.573448
C21	C	0.146620	-0.285391	-0.573465
O22	O	0.118381	-0.313849	-0.630526
N23	N	0.119308	-0.251918	-0.506410
C24	C	0.146604	-0.218436	-0.439342
O25	O	0.118359	-0.189965	-0.382309
C26	C	0.201207	-0.218431	-0.439331
C27	C	0.228516	-0.251909	-0.506383
C28	C	0.228534	-0.318863	-0.640495
C29	C	0.283134	-0.318860	-0.640477
C30	C	0.310426	-0.285382	-0.573412
C31	C	0.283117	-0.251907	-0.506365
C32	C	0.228501	-0.184947	-0.372269
C33	C	0.283108	-0.184944	-0.372265
C34	C	0.310417	-0.218422	-0.439317
C35	C	0.365009	-0.218426	-0.439281
N36	N	0.392321	-0.251899	-0.506336
C37	C	0.365029	-0.285377	-0.573401
C38	C	0.031933	-0.218449	-0.439370
C39	C	-0.022669	-0.218457	-0.439375
C40	C	-0.022649	-0.285411	-0.573499
C41	C	0.031955	-0.285406	-0.573489
C42	C	0.059245	-0.251922	-0.506425
C43	C	0.479694	-0.285369	-0.573357
C44	C	0.534300	-0.285365	-0.573330
C45	C	0.534274	-0.218409	-0.439210
C46	C	0.479674	-0.218415	-0.439233
C47	C	0.452385	-0.251897	-0.506315
O48	O	0.393283	-0.189981	-0.382252
O49	O	0.393281	-0.313838	-0.630435
C50	C	0.755474	-0.387746	-0.506259
C51	C	0.755490	-0.445860	-0.506259
C52	C	0.789014	-0.806178	-0.573677
C53	C	0.789030	-0.860782	-0.573698
O54	O	0.817445	-0.888980	-0.630934
N55	N	0.755620	-0.888143	-0.506443
C56	C	0.722189	-0.860896	-0.439170
O57	O	0.693773	-0.889183	-0.381967
C58	C	0.722172	-0.806293	-0.439154
C59	C	0.755587	-0.778935	-0.506406
C60	C	0.822426	-0.778820	-0.640924
C61	C	0.822411	-0.724219	-0.640901
C62	C	0.788984	-0.696977	-0.573631
C63	C	0.755572	-0.724334	-0.506383
C64	C	0.688739	-0.779047	-0.371887
C65	C	0.688724	-0.724440	-0.371878
C66	C	0.722139	-0.697083	-0.439130
C67	C	0.722130	-0.642491	-0.439090
N68	N	0.755540	-0.615131	-0.506345
C69	C	0.788967	-0.642373	-0.573615
C70	C	0.722228	-0.975567	-0.439208
C71	C	0.722248	-1.030169	-0.439217
C72	C	0.789088	-1.030051	-0.573747
C73	C	0.789070	-0.975448	-0.573732
C74	C	0.755638	-0.948206	-0.506463
C75	C	0.788933	-0.527708	-0.573561
C76	C	0.788917	-0.473103	-0.573529
C77	C	0.722076	-0.473226	-0.439004
C78	C	0.722094	-0.527826	-0.439031
C79	C	0.755524	-0.555066	-0.506319
O80	O	0.693728	-0.614259	-0.381886
O81	O	0.817373	-0.614080	-0.630819
C82	C	0.891921	-0.251925	-0.506414
C83	C	0.950035	-0.251934	-0.506444
C84	C	0.755587	-0.251853	-0.780375
C85	C	0.755603	-0.251832	-0.897152
C86	C	0.755636	-0.115531	-0.506447
C87	C	0.755674	-0.057416	-0.506492
C88	C	0.789068	-0.218392	-0.952059
C89	C	0.789077	-0.218369	-1.061783
C90	C	0.722155	-0.285232	-1.061683
C91	C	0.722144	-0.285251	-0.951961
C92	C	0.755539	-0.251916	-0.233374
C93	C	0.755623	-0.251790	-0.116598
H94	H	0.457482	-0.312632	-0.627984
Cl95	Cl	0.831110	-1.064309	-0.658319
Cl96	Cl	0.066280	-0.327493	-0.657788
H97	H	0.206319	-0.346125	-0.695114
H98	H	0.695044	-1.052439	-0.384443
Cl99	Cl	-0.056968	-0.327493	-0.657821
H100	H	0.816311	-0.191178	-0.907436
Cl101	Cl	0.831078	-0.941061	-0.658283
Cl102	Cl	0.317413	-0.142847	-0.287951
H103	H	-0.044900	-0.191201	-0.384764
Cl104	Cl	0.680068	-0.327292	-0.882929
Cl105	Cl	0.830962	-0.561944	-0.658149
Cl106	Cl	0.680055	-0.438968	-0.354440
H107	H	0.695005	-0.953389	-0.384421
Cl108	Cl	0.568594	-0.176324	-0.354905
H109	H	0.694915	-0.312442	-1.106322
H110	H	0.556532	-0.312629	-0.627932
Cl111	Cl	0.646726	-0.813427	-0.287340
Cl112	Cl	0.831153	-0.176332	-1.130805
H113	H	0.305365	-0.346121	-0.695080
H114	H	0.206276	-0.157686	-0.317666
Cl115	Cl	0.066236	-0.176356	-0.355044
Cl116	Cl	0.830929	-0.438713	-0.658080
Cl117	Cl	0.864417	-0.689835	-0.725460
Cl118	Cl	0.864453	-0.813058	-0.725508
Cl119	Cl	0.445341	-0.176335	-0.354921
Cl120	Cl	0.646692	-0.690197	-0.287306
H121	H	0.694888	-0.550102	-0.384261
