data_functionalizedCrystal
_audit_creation_method	'MofGen! by Chris Wilmer'
_symmetry_space_group_name_H-M	'P1'
_symmetry_Int_Tables_number	1
_symmetry_cell_setting	triclinic
loop_
_symmetry_equiv_pos_as_xyz
  x,y,z
_cell_length_a	6.817900
_cell_length_b	17.982783
_cell_length_c	16.306216
_cell_angle_alpha	95.650181
_cell_angle_beta	103.467292
_cell_angle_gamma	102.448572
loop_
_atom_site_label
_atom_site_type_symbol
_atom_site_fract_x
_atom_site_fract_y
_atom_site_fract_z
V1	V	-4.021272	-0.106009	-0.263378
O2	O	-4.014156	0.004481	-0.258004
O3	O	-3.967761	-0.209608	-0.261923
O4	O	-3.972788	-0.104647	-0.378088
O5	O	-4.009095	-0.101206	-0.141035
V6	V	-4.505573	-0.092761	-0.248703
O7	O	-4.280823	-0.135068	-0.295570
O8	O	-4.696218	-0.063701	-0.216511
O9	O	-4.335877	0.010838	-0.250157
O10	O	-4.630085	-0.203251	-0.254077
O11	O	-4.635147	-0.097564	-0.371046
O12	O	-4.330850	-0.094123	-0.133993
C13	C	-3.811521	-0.234854	-0.257858
C14	C	-3.849056	-0.319550	-0.257433
C15	C	-3.827080	-0.348284	-0.179943
C16	C	-3.862368	-0.427865	-0.179547
C17	C	-3.919617	-0.478710	-0.256641
C18	C	-3.941600	-0.449971	-0.334137
C19	C	-3.906327	-0.370391	-0.334533
C20	C	-4.083857	-0.770905	-0.332543
C21	C	-4.119123	-0.850489	-0.332141
C22	C	-4.039898	-0.828379	-0.177557
C23	C	-4.004624	-0.748799	-0.177953
C24	C	-4.026621	-0.720067	-0.255449
C25	C	-3.988361	-0.633777	-0.255877
C26	C	-3.957862	-0.564999	-0.256213
C27	C	-3.817932	-0.100966	-0.406037
C28	C	-3.859541	-0.100538	-0.499815
C29	C	-4.010573	-0.099003	-0.840562
C30	C	-4.214746	-0.104057	-0.810131
C31	C	-4.171469	-0.104210	-0.712540
C32	C	-3.935646	-0.099765	-0.671514
C33	C	-3.803619	-0.024198	-0.691469
C34	C	-3.848269	-0.023728	-0.789066
C35	C	-3.920564	-0.169247	-0.814678
C36	C	-3.881926	-0.170739	-0.717366
C37	C	-3.893287	-0.100193	-0.575974
C38	C	-4.052922	-0.098570	-0.936101
C39	C	-4.155459	0.036081	-0.254221
C40	C	-4.097162	0.120775	-0.254651
C41	C	-4.149048	-0.097806	-0.106040
C42	C	-4.086678	-0.098230	-0.012261
H43	H	-4.274151	-0.158526	-0.699852
H44	H	-4.339096	-0.158194	-0.844872
H45	H	-3.712984	-0.171905	-0.689960
H46	H	-3.695686	-0.016919	-0.808269
H47	H	-3.839919	0.028519	-0.659257
H48	H	-3.907143	0.029407	-0.804049
H49	H	-3.630183	-0.018197	-0.663960
H50	H	-4.031057	-0.226032	-0.850710
H51	H	-4.283996	-0.053602	-0.827514
H52	H	-3.844475	-0.451256	-0.116447
N53	N	-3.942797	-0.693958	-0.094801
H54	H	-3.934211	-0.724237	-0.045649
H55	H	-4.050119	-0.663089	-0.094451
H56	H	-4.165743	-0.891887	-0.394925
N57	N	-4.003342	-0.504798	-0.417296
H58	H	-4.138236	-0.498422	-0.454024
H59	H	-4.022236	-0.559550	-0.405227
N60	N	-3.765351	-0.293450	-0.096789
H61	H	-3.746336	-0.238675	-0.108795
H62	H	-3.630504	-0.299889	-0.060093
H63	H	-3.924244	-0.346999	-0.397633
H64	H	-3.768848	-0.166145	-0.833828
H65	H	-3.979792	-0.226604	-0.705629
N66	N	-4.235265	-0.037193	-0.672084
H67	H	-4.291631	-0.007434	-0.717650
H68	H	-4.110394	-0.002170	-0.628870
H69	H	-4.101743	-0.747521	-0.395644
H70	H	-4.021998	-0.851781	-0.114457
