data_functionalizedCrystal
_audit_creation_method	'MofGen! by Chris Wilmer'
_symmetry_space_group_name_H-M	'P1'
_symmetry_Int_Tables_number	1
_symmetry_cell_setting	triclinic
loop_
_symmetry_equiv_pos_as_xyz
  x,y,z
_cell_length_a	19.121063
_cell_length_b	16.625548
_cell_length_c	16.625539
_cell_angle_alpha	89.977655
_cell_angle_beta	87.591339
_cell_angle_gamma	87.531074
loop_
_atom_site_label
_atom_site_type_symbol
_atom_site_fract_x
_atom_site_fract_y
_atom_site_fract_z
Zn1	Zn	-0.279615	-1.218958	0.469616
Zn2	Zn	-0.397073	-1.213097	0.340525
Zn3	Zn	-0.279639	-1.084118	0.334794
Zn4	Zn	-0.397030	-1.078328	0.475308
O5	O	-0.338339	-1.148625	0.405061
O6	O	-0.295204	-1.331012	0.452508
O7	O	-0.381523	-1.195958	0.226934
O8	O	-0.181352	-1.106882	0.347897
O9	O	-0.381499	-1.326706	0.357665
O10	O	-0.181334	-1.205947	0.446951
O11	O	-0.295245	-1.101198	0.222723
O12	O	-0.295204	-0.970518	0.353417
O13	O	-0.381426	-1.097012	0.587384
O14	O	-0.381450	-0.966264	0.456653
O15	O	-0.295162	-1.200332	0.583202
O16	O	-0.495351	-1.190343	0.363185
O17	O	-0.495320	-1.091329	0.462210
C18	C	-0.338325	-0.939135	0.405031
C19	C	-0.338336	-0.849513	0.405038
C20	C	-0.520820	-1.139593	0.413955
C21	C	-0.598886	-1.135803	0.417787
C22	C	-0.338335	-0.521338	0.405062
C23	C	-0.338333	-0.612646	0.405053
C24	C	-0.338336	-0.685423	0.405050
C25	C	-0.338334	-0.776737	0.405042
C26	C	-0.635554	-1.185614	0.368073
C27	C	-0.708906	-1.182054	0.371681
C28	C	-0.745587	-1.128679	0.425000
C29	C	-0.708913	-1.078866	0.474720
C30	C	-0.635563	-1.082430	0.471115
C31	C	-0.967056	-1.115339	0.438466
C32	C	-1.040412	-1.111777	0.442066
C33	C	-1.040399	-1.214966	0.339028
C34	C	-0.967048	-1.218523	0.335424
C35	C	-0.930380	-1.168713	0.385147
C36	C	-0.820564	-1.125037	0.428688
C37	C	-0.855405	-1.172359	0.381462
C38	C	-0.155146	-1.157714	0.396150
C39	C	-0.077080	-1.161587	0.392352
C40	C	-0.338287	-1.148680	0.615367
C41	C	-0.338265	-1.148703	0.704987
C42	C	-0.338349	-0.358933	0.405083
C43	C	-0.338341	-0.448555	0.405072
C44	C	-0.338341	-1.148619	0.195570
C45	C	-0.338165	-1.148762	0.105941
C46	C	-0.338186	-1.148745	1.033159
C47	C	-0.338210	-1.148731	0.941852
C48	C	-0.338226	-1.148724	0.869076
C49	C	-0.338249	-1.148710	0.777763
H50	H	-0.605693	-1.229074	0.324651
C51	C	-0.926732	-1.060587	0.493204
N52	N	-0.896357	-1.019361	0.534451
C53	C	-0.749265	-1.020150	0.533369
N54	N	-0.779658	-0.975920	0.577541
C55	C	-0.595228	-1.027635	0.525805
N56	N	-0.564849	-0.986363	0.567001
C57	C	-0.815053	-1.231069	0.322811
N58	N	-0.784654	-1.275286	0.278632
H59	H	-0.738758	-1.222615	0.331198
H60	H	-0.937183	-1.261985	0.292008
C61	C	-1.080739	-1.269756	0.284340
N62	N	-1.111123	-1.311027	0.243148
C63	C	-1.080759	-1.053062	0.500729
N64	N	-1.111150	-1.008842	0.544913
H65	H	-0.850438	-1.081577	0.472100
