data_functionalizedCrystal
_audit_creation_method	'MofGen! by Chris Wilmer'
_symmetry_space_group_name_H-M	'P1'
_symmetry_Int_Tables_number	1
_symmetry_cell_setting	triclinic
loop_
_symmetry_equiv_pos_as_xyz
  x,y,z
_cell_length_a	12.837942
_cell_length_b	12.811457
_cell_length_c	11.892095
_cell_angle_alpha	91.498327
_cell_angle_beta	94.302569
_cell_angle_gamma	89.411937
loop_
_atom_site_label
_atom_site_type_symbol
_atom_site_fract_x
_atom_site_fract_y
_atom_site_fract_z
O1	O	0.143175	1.403418	0.049870
O2	O	0.156192	1.101350	0.018901
O3	O	-0.001296	1.245685	0.033706
O4	O	0.300663	1.259082	0.035066
O5	O	0.011815	1.233649	0.220479
O6	O	0.169303	1.089313	0.205674
O7	O	0.156286	1.391381	0.236643
Zn8	Zn	0.164876	1.238436	0.250813
Zn9	Zn	0.147602	1.254295	0.004732
O10	O	0.313774	1.247046	0.221838
C11	C	0.161616	1.056400	0.108296
C12	C	0.158233	0.940394	0.096403
C13	C	0.166152	0.709282	0.277697
C14	C	0.162973	0.600284	0.266528
C15	C	0.148690	0.613398	0.062897
C16	C	0.151869	0.722396	0.074066
C17	C	0.160601	0.770334	0.181470
C18	C	0.163787	0.879334	0.192638
C19	C	0.149497	0.892446	-0.010992
C20	C	0.146318	0.783448	-0.022161
C21	C	-0.033413	1.235142	0.126628
C22	C	-0.148646	1.221645	0.125242
C23	C	-0.387735	1.383903	0.141854
C24	C	-0.496007	1.371227	0.140552
C25	C	-0.473465	1.183617	0.121330
C26	C	-0.365193	1.196293	0.122631
C27	C	-0.322332	1.296440	0.132895
C28	C	-0.214057	1.309115	0.134205
C29	C	-0.191518	1.121506	0.114974
C30	C	-0.299790	1.108830	0.113673
C31	C	0.345891	1.257590	0.128914
C32	C	0.461124	1.271087	0.130292
C33	C	0.150862	1.436332	0.147246
C34	C	0.154244	1.552338	0.159132
N35	N	0.176664	1.227621	0.418758
N36	N	0.135806	1.265118	-0.163212
C37	C	0.053718	1.340371	0.666970
C38	C	0.061965	1.332819	0.784538
C39	C	0.201401	1.204961	0.771461
C40	C	0.193154	1.212513	0.653894
C41	C	0.119311	1.280221	0.601653
C42	C	0.111069	1.287778	0.484084
C43	C	0.250499	1.159914	0.471009
C44	C	0.258747	1.152363	0.588576
H45	H	0.141563	0.574348	-0.024546
O46	O	-0.172594	1.406469	0.144127
C47	C	-0.206382	1.591211	0.163104
C48	C	-0.253473	1.481016	0.151854
H49	H	-0.271748	1.651510	0.169379
H50	H	-0.161776	1.606933	0.086016
H51	H	-0.150739	1.596758	0.242334
H52	H	-0.309160	1.475389	0.072670
H53	H	-0.298015	1.465342	0.228999
H54	H	-0.138254	1.050286	0.107688
H55	H	0.167498	0.550579	0.344887
H56	H	0.144984	0.942166	-0.089348
O57	O	0.273006	1.139035	0.822158
C58	C	0.334163	0.961373	0.840162
C59	C	0.252997	1.035918	0.782682
H60	H	0.318028	0.877990	0.808250
H61	H	0.328774	0.966218	0.935412
H62	H	0.415831	0.984743	0.819319
H63	H	0.171293	1.012599	0.803435
H64	H	0.258478	1.031062	0.687447
H65	H	-0.006402	1.395509	0.624436
O66	O	0.137886	0.736707	-0.126403
C67	C	0.126597	0.574604	-0.233858
C68	C	0.136169	0.627398	-0.115736
H69	H	0.125183	0.486221	-0.225274
H70	H	0.196191	0.596849	-0.282128
H71	H	0.051249	0.601672	-0.281629
H72	H	0.211475	0.600358	-0.067871
H73	H	0.066521	0.605155	-0.067552
H74	H	-0.352836	1.465446	0.150222
O75	O	-0.559387	1.456297	0.149319
C76	C	-0.570320	1.643723	0.168451
C77	C	-0.498421	1.547465	0.158562
H78	H	-0.521060	1.717458	0.175903
H79	H	-0.616071	1.637520	0.246513
H80	H	-0.627076	1.647449	0.090170
H81	H	-0.441604	1.543679	0.236784
H82	H	-0.452744	1.553707	0.080452
O83	O	-0.515279	1.086413	0.111414
C84	C	-0.672102	0.983756	0.100812
C85	C	-0.624885	1.093896	0.112072
H86	H	-0.760726	0.989770	0.101316
H87	H	-0.639857	0.934930	0.174510
H88	H	-0.650674	0.945029	0.018184
H89	H	-0.646295	1.132714	0.194656
H90	H	-0.657129	1.142646	0.038314
H91	H	-0.334703	1.027293	0.105312
O92	O	0.039252	1.353562	0.433511
C93	C	-0.098142	1.479622	0.458899
C94	C	-0.016868	1.405146	0.516312
H95	H	-0.143523	1.521364	0.525819
H96	H	-0.154459	1.433014	0.398760
H97	H	-0.056555	1.539679	0.409608
H98	H	-0.058366	1.345073	0.565663
H99	H	0.039444	1.451823	0.576387
H100	H	0.008552	1.381798	0.837716
H101	H	0.318866	1.097233	0.631124
O102	O	0.314371	1.101593	0.407625
C103	C	0.491578	1.060658	0.367301
C104	C	0.419360	1.126782	0.439139
H105	H	0.576477	1.080982	0.392771
H106	H	0.473099	1.077691	0.274284
H107	H	0.478617	0.974281	0.381720
H108	H	0.432281	1.213178	0.424818
H109	H	0.437856	1.109660	0.532131
H110	H	0.173275	0.748313	0.365149
O111	O	0.172222	0.925738	0.297048
C112	C	0.186101	0.901220	0.497842
C113	C	0.176532	0.848538	0.379663
H114	H	0.189611	0.838827	0.564668
H115	H	0.115459	0.954228	0.508470
H116	H	0.260399	0.949616	0.507872
H117	H	0.102276	0.800089	0.369552
H118	H	0.247227	0.795591	0.369089
