data_functionalizedCrystal
_audit_creation_method	'MofGen! by Chris Wilmer'
_symmetry_space_group_name_H-M	'P1'
_symmetry_Int_Tables_number	1
_symmetry_cell_setting	triclinic
loop_
_symmetry_equiv_pos_as_xyz
  x,y,z
_cell_length_a	19.805404
_cell_length_b	19.805407
_cell_length_c	19.805399
_cell_angle_alpha	90.018378
_cell_angle_beta	89.971482
_cell_angle_gamma	89.971422
loop_
_atom_site_label
_atom_site_type_symbol
_atom_site_fract_x
_atom_site_fract_y
_atom_site_fract_z
Zn1	Zn	-0.269488	-1.034703	-0.382749
Zn2	Zn	0.230512	-0.534703	0.117251
Zn3	Zn	-0.382679	-1.034617	-0.269561
Zn4	Zn	0.117321	-0.534617	0.230439
Zn5	Zn	-0.269507	-0.921523	-0.269570
Zn6	Zn	0.230493	-0.421523	0.230430
Zn7	Zn	-0.382638	-0.921475	-0.382705
Zn8	Zn	0.117362	-0.421475	0.117295
O9	O	-0.326078	-0.978079	-0.326146
O10	O	0.173922	-0.478079	0.173854
O11	O	-0.284512	-1.129408	-0.367749
O12	O	0.215488	-0.629408	0.132251
O13	O	-0.367692	-1.019599	-0.174846
O14	O	0.132308	-0.519599	0.325154
O15	O	-0.174788	-0.936592	-0.284606
O16	O	0.325212	-0.436592	0.215394
O17	O	-0.367673	-1.129345	-0.284590
O18	O	0.132327	-0.629345	0.215410
O19	O	-0.174774	-1.019745	-0.367757
O20	O	0.325226	-0.519745	0.132243
O21	O	-0.284545	-0.936509	-0.174853
O22	O	0.215455	-0.436509	0.325147
O23	O	-0.284505	-0.826800	-0.284564
O24	O	0.215495	-0.326800	0.215436
O25	O	-0.367603	-0.936511	-0.477428
O26	O	0.132397	-0.436511	0.022572
O27	O	-0.367622	-0.826764	-0.367683
O28	O	0.132378	-0.326764	0.132317
O29	O	-0.284472	-1.019699	-0.477460
O30	O	0.215528	-0.519699	0.022540
O31	O	-0.477390	-1.019552	-0.284548
O32	O	0.022610	-0.519552	0.215452
O33	O	-0.477360	-0.936427	-0.367675
O34	O	0.022640	-0.436427	0.132325
C35	C	-0.326062	-0.802223	-0.326120
C36	C	0.173938	-0.302223	0.173880
C37	C	-0.326071	-0.726991	-0.326125
C38	C	0.173929	-0.226991	0.173875
C39	C	-0.369415	-0.691646	-0.369334
C40	C	0.130585	-0.191646	0.130666
C41	C	-0.369415	-0.620958	-0.369342
C42	C	0.130585	-0.120958	0.130658
C43	C	-0.326074	-0.585616	-0.326136
C44	C	0.173926	-0.085616	0.173864
C45	C	-0.282726	-0.620965	-0.282925
C46	C	0.217274	-0.120965	0.217075
C47	C	-0.282723	-0.691653	-0.282921
C48	C	0.217277	-0.191653	0.217079
C49	C	-0.282736	-0.335892	-0.282940
C50	C	0.217264	0.164108	0.217060
C51	C	-0.282743	-0.265200	-0.282946
C52	C	0.217257	0.234800	0.217054
C53	C	-0.369428	-0.265197	-0.369361
C54	C	0.130572	0.234803	0.130639
C55	C	-0.369425	-0.335885	-0.369357
C56	C	0.130575	0.164115	0.130643
C57	C	-0.326074	-0.371228	-0.326148
C58	C	0.173926	0.128772	0.173852
C59	C	-0.326074	-0.447877	-0.326141
C60	C	0.173926	0.052123	0.173859
C61	C	-0.326077	-0.508968	-0.326139
C62	C	0.173923	-0.008968	0.173861
C63	C	-0.501934	-0.977993	-0.326120
C64	C	-0.001934	-0.477993	0.173880
C65	C	-0.577166	-0.978018	-0.326132
C66	C	-0.077166	-0.478018	0.173868
C67	C	-1.038950	-1.021529	-0.282957
C68	C	-0.538950	-0.521529	0.217043
C69	C	-0.968262	-1.021497	-0.282944
C70	C	-0.468262	-0.521497	0.217056
C71	C	-0.932928	-0.978168	-0.326182
C72	C	-0.432928	-0.478168	0.173818
C73	C	-0.968286	-0.934863	-0.369432
C74	C	-0.468286	-0.434863	0.130568
C75	C	-1.038973	-0.934892	-0.369441
C76	C	-0.538973	-0.434892	0.130559
C77	C	-0.683213	-0.934745	-0.369395
C78	C	-0.183213	-0.434745	0.130605
C79	C	-0.612521	-0.934721	-0.369383
C80	C	-0.112521	-0.434721	0.130617
C81	C	-0.612501	-1.021350	-0.282898
C82	C	-0.112501	-0.521350	0.217102
C83	C	-0.683188	-1.021379	-0.282907
C84	C	-0.183188	-0.521379	0.217093
C85	C	-0.718540	-0.978072	-0.326154
C86	C	-0.218540	-0.478072	0.173846
C87	C	-0.795189	-0.978106	-0.326166
C88	C	-0.295189	-0.478106	0.173834
C89	C	-0.856281	-0.978137	-0.326173
C90	C	-0.356281	-0.478137	0.173827
C91	C	-0.149535	-0.978184	-0.326187
C92	C	0.350465	-0.478184	0.173813
C93	C	-0.074303	-0.978228	-0.326205
C94	C	0.425697	-0.478228	0.173795
C95	C	-0.326031	-0.978109	-0.502689
C96	C	0.173969	-0.478109	-0.002689
C97	C	-0.326011	-0.978122	-0.577921
C98	C	0.173989	-0.478122	-0.077921
C99	C	-0.326090	-0.154622	-0.326167
C100	C	0.173910	0.345378	0.173833
C101	C	-0.326084	-0.229854	-0.326159
C102	C	0.173916	0.270146	0.173841
C103	C	-0.282712	-0.934869	-0.613268
C104	C	0.217288	-0.434869	-0.113268
C105	C	-0.282699	-0.934878	-0.683957
C106	C	0.217301	-0.434878	-0.183957
C107	C	-0.325982	-0.978144	-0.719297
C108	C	0.174018	-0.478144	-0.219297
C109	C	-0.369285	-1.021398	-0.683945
C110	C	0.130715	-0.521398	-0.183945
C111	C	-0.369301	-1.021385	-0.613258
C112	C	0.130699	-0.521385	-0.113258
C113	C	-0.369222	-1.021452	-0.969018
C114	C	0.130778	-0.521452	-0.469018
C115	C	-0.369201	-1.021463	-1.039711
C116	C	0.130799	-0.521463	-0.539711
C117	C	-0.282620	-0.934945	-1.039717
C118	C	0.217380	-0.434945	-0.539717
C119	C	-0.282636	-0.934932	-0.969030
C120	C	0.217364	-0.434932	-0.469030
C121	C	-0.325942	-0.978184	-0.933684
C122	C	0.174058	-0.478184	-0.433684
C123	C	-0.325956	-0.978172	-0.857036
C124	C	0.174044	-0.478172	-0.357036
C125	C	-0.325964	-0.978160	-0.795944
C126	C	0.174036	-0.478160	-0.295944
C127	C	-0.326076	-0.978089	-0.150290
C128	C	0.173924	-0.478089	0.349710
C129	C	-0.325905	-0.978207	-0.075059
C130	C	0.174095	-0.478207	0.424941
H131	H	-1.067714	-1.056816	-0.247751
H132	H	-0.567714	-0.556816	0.252249
H133	H	-0.404530	-1.056623	-0.712724
H134	H	0.095470	-0.556623	-0.212724
H135	H	-0.939477	-1.056755	-0.247728
H136	H	-0.439477	-0.556755	0.252272
H137	H	-0.711954	-1.056664	-0.247700
H138	H	-0.211954	-0.556664	0.252300
C139	C	-0.416601	-0.226860	-0.416200
C140	C	0.083399	0.273140	0.083800
C141	C	-0.483550	-0.244005	-0.401330
C142	C	0.016450	0.255995	0.098670
C143	C	-0.527024	-0.208699	-0.444457
C144	C	-0.027024	0.291301	0.055543
H145	H	-0.406842	-0.238443	-0.461717
H146	H	0.093158	0.261557	0.038283
H147	H	-0.410442	-0.179693	-0.410016
H148	H	0.089558	0.320307	0.089984
H149	H	-0.489706	-0.291162	-0.407520
H150	H	0.010294	0.208838	0.092480
H151	H	-0.493331	-0.232420	-0.355821
H152	H	0.006669	0.267580	0.144179
H153	H	-0.520866	-0.161531	-0.438272
H154	H	-0.020866	0.338469	0.061728
H155	H	-0.517259	-0.220284	-0.489971
H156	H	-0.017259	0.279716	0.010029
H157	H	-0.572454	-0.220321	-0.434369
H158	H	-0.072454	0.279679	0.065631
H159	H	-0.247463	-0.899641	-0.584500
H160	H	0.252537	-0.399641	-0.084500
H161	H	-0.583710	-1.056611	-0.247682
H162	H	-0.083710	-0.556611	0.252318
C163	C	-0.235728	-0.887843	-0.930698
C164	C	0.264272	-0.387843	-0.430698
C165	C	-0.250470	-0.820869	-0.947867
C166	C	0.249530	-0.320869	-0.447867
C167	C	-0.207279	-0.777469	-0.912563
C168	C	0.292721	-0.277469	-0.412563
H169	H	-0.190224	-0.897686	-0.942266
H170	H	0.309776	-0.397686	-0.442266
H171	H	-0.241944	-0.893984	-0.883530
H172	H	0.258056	-0.393984	-0.383530
H173	H	-0.244248	-0.814731	-0.995024
H174	H	0.255752	-0.314731	-0.495024
H175	H	-0.295966	-0.811005	-0.936297
H176	H	0.204034	-0.311005	-0.436297
H177	H	-0.213496	-0.783610	-0.865395
H178	H	0.286504	-0.283610	-0.365395
H179	H	-0.161778	-0.787318	-0.924133
H180	H	0.338222	-0.287318	-0.424133
H181	H	-0.217280	-0.732022	-0.924202
H182	H	0.282720	-0.232022	-0.424202
H183	H	-0.711988	-0.899477	-0.404603
H184	H	-0.211988	-0.399477	0.095397
H185	H	-0.404450	-1.056697	-1.068482
H186	H	0.095550	-0.556697	-0.568482
H187	H	-0.247360	-0.899726	-1.068505
H188	H	0.252640	-0.399726	-0.568505
C189	C	-0.574278	-0.887599	-0.416354
C190	C	-0.074278	-0.387599	0.083646
C191	C	-0.620367	-0.849665	-0.454217
C192	C	-0.120367	-0.349665	0.045783
C193	C	-0.585163	-0.806248	-0.497485
C194	C	-0.085163	-0.306248	0.002515
H195	H	-0.546661	-0.913386	-0.445928
H196	H	-0.046661	-0.413386	0.054072
H197	H	-0.546758	-0.858082	-0.390442
H198	H	-0.046758	-0.358082	0.109558
H199	H	-0.647875	-0.879179	-0.480127
H200	H	-0.147875	-0.379179	0.019873
H201	H	-0.647986	-0.823865	-0.424661
H202	H	-0.147986	-0.323865	0.075339
H203	H	-0.557643	-0.776730	-0.471573
H204	H	-0.057643	-0.276730	0.028427
H205	H	-0.557546	-0.832039	-0.527055
H206	H	-0.057546	-0.332039	-0.027055
H207	H	-0.616428	-0.780500	-0.523176
H208	H	-0.116428	-0.280500	-0.023176
H209	H	-0.404554	-1.056611	-0.584479
H210	H	0.095446	-0.556611	-0.084479
H211	H	-0.939513	-0.899580	-0.404635
H212	H	-0.439513	-0.399580	0.095365
C213	C	-0.235607	-0.226949	-0.236012
C214	C	0.264393	0.273051	0.263988
C215	C	-0.197627	-0.273030	-0.198184
C216	C	0.302373	0.226970	0.301816
C217	C	-0.154196	-0.237817	-0.154951
C218	C	0.345804	0.262183	0.345049
H219	H	-0.261385	-0.199349	-0.206414
H220	H	0.238615	0.300651	0.293586
H221	H	-0.206119	-0.199410	-0.261948
H222	H	0.293881	0.300590	0.238052
H223	H	-0.227112	-0.300557	-0.172250
H224	H	0.272888	0.199443	0.327750
H225	H	-0.171835	-0.300631	-0.227764
H226	H	0.328165	0.199369	0.272236
H227	H	-0.124708	-0.210279	-0.180887
H228	H	0.375292	0.289721	0.319113
H229	H	-0.179979	-0.210219	-0.125358
H230	H	0.320021	0.289781	0.374642
H231	H	-0.128417	-0.269078	-0.129284
H232	H	0.371583	0.230922	0.370716
C233	C	-1.077237	-0.887856	-0.416472
C234	C	-0.577237	-0.387856	0.083528
C235	C	-1.031166	-0.849917	-0.454351
C236	C	-0.531166	-0.349917	0.045649
C237	C	-1.066389	-0.806585	-0.497689
C238	C	-0.566389	-0.306585	0.002311
H239	H	-1.104858	-0.858333	-0.390631
H240	H	-0.604858	-0.358333	0.109369
H241	H	-1.104756	-0.913725	-0.446029
H242	H	-0.604756	-0.413725	0.053971
H243	H	-1.003659	-0.824050	-0.424798
H244	H	-0.503659	-0.324050	0.075202
H245	H	-1.003544	-0.879423	-0.480206
H246	H	-0.503544	-0.379423	0.019794
H247	H	-1.093907	-0.832454	-0.527245
H248	H	-0.593907	-0.332454	-0.027245
H249	H	-1.094008	-0.777066	-0.471842
H250	H	-0.594008	-0.277066	0.028158
H251	H	-1.035135	-0.780843	-0.523399
H252	H	-0.535135	-0.280843	-0.023399
H253	H	-0.404491	-1.056663	-0.940248
H254	H	0.095509	-0.556663	-0.440248
C255	C	-0.416387	-0.729979	-0.416359
C256	C	0.083613	-0.229979	0.083641
C257	C	-0.401721	-0.712829	-0.483354
C258	C	0.098279	-0.212829	0.016646
C259	C	-0.444972	-0.748132	-0.526695
C260	C	0.055028	-0.248132	-0.026695
H261	H	-0.461877	-0.718399	-0.406464
H262	H	0.038123	-0.218399	0.093536
H263	H	-0.410174	-0.777147	-0.410214
H264	H	0.089826	-0.277147	0.089786
H265	H	-0.407940	-0.665672	-0.489495
H266	H	0.092060	-0.165672	0.010505
H267	H	-0.356240	-0.724411	-0.493270
H268	H	0.143760	-0.224411	0.006730
H269	H	-0.438759	-0.795300	-0.520551
H270	H	0.061241	-0.295300	-0.020551
H271	H	-0.490459	-0.736549	-0.516794
H272	H	0.009541	-0.236549	-0.016794
H273	H	-0.435023	-0.736505	-0.572156
H274	H	0.064977	-0.236505	-0.072156
C275	C	-0.416367	-0.582552	-0.416338
C276	C	0.083633	-0.082552	0.083662
C277	C	-0.378107	-0.542019	-0.459811
C278	C	0.121893	-0.042019	0.040189
C279	C	-0.421338	-0.506640	-0.503121
C280	C	0.078662	-0.006640	-0.003121
H281	H	-0.445839	-0.554898	-0.390474
H282	H	0.054161	-0.054898	0.109526
H283	H	-0.442168	-0.613707	-0.442103
H284	H	0.057832	-0.113707	0.057897
H285	H	-0.352318	-0.510868	-0.434048
H286	H	0.147682	-0.010868	0.065952
H287	H	-0.348637	-0.569657	-0.485690
H288	H	0.151363	-0.069657	0.014310
H289	H	-0.447139	-0.537795	-0.528887
H290	H	0.052861	-0.037795	-0.028887
H291	H	-0.450808	-0.478989	-0.477252
H292	H	0.049192	0.021011	0.022748
H293	H	-0.395385	-0.479139	-0.532627
H294	H	0.104615	0.020861	-0.032627
C295	C	-0.235612	-0.887895	-0.722212
C296	C	0.264388	-0.387895	-0.222212
C297	C	-0.197694	-0.850019	-0.676133
C298	C	0.302306	-0.350019	-0.176133
C299	C	-0.154302	-0.806736	-0.711348
C300	C	0.345698	-0.306736	-0.211348
H301	H	-0.261416	-0.858330	-0.749777
H302	H	0.238584	-0.358330	-0.249777
H303	H	-0.206083	-0.913797	-0.749784
H304	H	0.293917	-0.413797	-0.249784
H305	H	-0.227219	-0.824119	-0.648572
H306	H	0.272781	-0.324119	-0.148572
H307	H	-0.171876	-0.879566	-0.648566
H308	H	0.328124	-0.379566	-0.148566
H309	H	-0.124773	-0.832637	-0.738921
H310	H	0.375227	-0.332637	-0.238921
H311	H	-0.180111	-0.777175	-0.738912
H312	H	0.319889	-0.277175	-0.238912
H313	H	-0.128565	-0.781036	-0.680089
H314	H	0.371435	-0.281036	-0.180089
H315	H	-0.247442	-0.364660	-0.247752
H316	H	0.252558	0.135340	0.252248
C317	C	-0.235643	-0.729908	-0.235929
C318	C	0.264357	-0.229908	0.264071
C319	C	-0.197701	-0.683829	-0.198077
C320	C	0.302299	-0.183829	0.301923
C321	C	-0.154328	-0.719044	-0.154774
C322	C	0.345672	-0.219044	0.345226
H323	H	-0.206123	-0.757509	-0.261794
H324	H	0.293877	-0.257509	0.238206
H325	H	-0.261483	-0.757444	-0.206355
H326	H	0.238517	-0.257444	0.293645
H327	H	-0.171863	-0.656304	-0.227647
H328	H	0.328137	-0.156304	0.272353
H329	H	-0.227203	-0.656226	-0.172198
H330	H	0.272797	-0.156226	0.327802
H331	H	-0.180168	-0.746580	-0.125200
H332	H	0.319832	-0.246580	0.374800
H333	H	-0.124813	-0.746644	-0.180645
H334	H	0.375187	-0.246644	0.319355
H335	H	-0.128584	-0.687785	-0.129082
H336	H	0.371416	-0.187785	0.370918
C337	C	-0.235739	-0.582474	-0.236044
C338	C	0.264261	-0.082474	0.263956
C339	C	-0.245030	-0.513004	-0.245282
C340	C	0.254970	-0.013004	0.254718
C341	C	-0.201763	-0.477526	-0.202100
C342	C	0.298237	0.022474	0.297900
H343	H	-0.190248	-0.594002	-0.245991
H344	H	0.309752	-0.094002	0.254009
H345	H	-0.245589	-0.593997	-0.190533
H346	H	0.254411	-0.093997	0.309467
H347	H	-0.235175	-0.501485	-0.290783
H348	H	0.264825	-0.001485	0.209217
H349	H	-0.290512	-0.501455	-0.235330
H350	H	0.209488	-0.001455	0.264670
H351	H	-0.211613	-0.489050	-0.156589
H352	H	0.288387	0.010950	0.343411
H353	H	-0.156274	-0.489060	-0.212051
H354	H	0.343726	0.010940	0.287949
H355	H	-0.208065	-0.430387	-0.208358
H356	H	0.291935	0.069613	0.291642
C357	C	-0.416396	-0.374219	-0.416381
C358	C	0.083604	0.125781	0.083619
C359	C	-0.401730	-0.357068	-0.483377
C360	C	0.098270	0.142932	0.016623
C361	C	-0.444979	-0.392374	-0.526718
C362	C	0.055021	0.107626	-0.026718
H363	H	-0.461886	-0.362640	-0.406487
H364	H	0.038114	0.137360	0.093513
H365	H	-0.410181	-0.421387	-0.410237
H366	H	0.089819	0.078613	0.089763
H367	H	-0.407950	-0.309911	-0.489518
H368	H	0.092050	0.190089	0.010482
H369	H	-0.356248	-0.368649	-0.493292
H370	H	0.143752	0.131351	0.006708
H371	H	-0.438764	-0.439541	-0.520573
H372	H	0.061236	0.060459	-0.020573
H373	H	-0.490466	-0.380792	-0.516817
H374	H	0.009534	0.119208	-0.016817
H375	H	-0.435030	-0.380747	-0.572179
H376	H	0.064970	0.119253	-0.072179
