data_functionalizedCrystal
_audit_creation_method	'MofGen! by Chris Wilmer'
_symmetry_space_group_name_H-M	'P1'
_symmetry_Int_Tables_number	1
_symmetry_cell_setting	triclinic
loop_
_symmetry_equiv_pos_as_xyz
  x,y,z
_cell_length_a	16.109318
_cell_length_b	10.654551
_cell_length_c	14.586319
_cell_angle_alpha	89.999036
_cell_angle_beta	90.000075
_cell_angle_gamma	83.976962
loop_
_atom_site_label
_atom_site_type_symbol
_atom_site_fract_x
_atom_site_fract_y
_atom_site_fract_z
O1	O	1.104083	0.161523	-0.076158
O2	O	0.862142	0.181588	-0.076176
O3	O	0.988674	-0.011259	-0.076167
O4	O	0.977550	0.354369	-0.076167
O5	O	0.988666	-0.011262	0.076314
O6	O	0.862133	0.181585	0.076305
O7	O	1.104074	0.161520	0.076323
Cu8	Cu	0.983103	0.171552	0.090236
Cu9	Cu	0.983113	0.171556	-0.090090
O10	O	0.977541	0.354367	0.076314
C11	C	0.831158	0.180770	0.000062
C12	C	0.738849	0.178322	0.000055
C13	C	0.439733	0.170416	-0.083046
C14	C	0.526468	0.172708	-0.083052
C15	C	0.526477	0.172688	0.083191
C16	C	0.439744	0.170387	0.083196
C17	C	0.396374	0.169257	0.000074
C18	C	0.569842	0.173850	0.000064
C19	C	0.663883	0.176336	0.000059
C20	C	0.302326	0.166770	0.000079
C21	C	0.987853	-0.058047	0.000071
C22	C	0.985409	-0.197457	0.000065
C23	C	0.984267	-0.262952	-0.083051
C24	C	0.981963	-0.393942	-0.083047
C25	C	0.981946	-0.393930	0.083196
C26	C	0.984244	-0.262942	0.083191
C27	C	0.985431	-0.197468	-0.166177
C28	C	0.984290	-0.262963	-0.249300
C29	C	0.981986	-0.393952	-0.249296
C30	C	0.980823	-0.459446	-0.166169
C31	C	1.135058	0.162338	0.000083
C32	C	1.227367	0.164786	0.000084
C33	C	0.978363	0.401155	0.000073
C34	C	0.980807	0.540565	0.000074
N35	N	0.983101	0.171549	0.217068
N36	N	0.983121	0.171549	-0.216922
C37	C	1.039149	0.086185	0.452078
C38	C	1.039151	0.086182	0.548060
C39	C	0.927067	0.256917	0.548061
C40	C	0.927062	0.256913	0.452082
C41	C	0.983107	0.171549	0.404093
C42	C	0.983115	0.171549	0.596054
C43	C	0.983117	0.171547	0.700121
C44	C	0.983104	0.171549	0.300019
H45	H	0.404441	0.169442	0.150887
Br46	Br	0.980426	-0.482834	-0.362102
H47	H	0.404424	0.169495	-0.150729
H48	H	0.985229	-0.209627	-0.316978
Br49	Br	0.988566	-0.019699	-0.166187
Br50	Br	0.585310	0.174271	-0.195863
H51	H	0.881438	0.326421	0.587143
Br52	Br	1.115208	-0.029669	0.386954
Br53	Br	0.585341	0.174232	0.195993
Br54	Br	0.977685	-0.637217	-0.166166
H55	H	0.881422	0.326427	0.413009
Br56	Br	0.980368	-0.482814	0.196003
H57	H	1.084784	0.016670	0.587127
H58	H	0.985156	-0.209611	0.150871
