data_functionalizedCrystal
_audit_creation_method	'MofGen! by Chris Wilmer'
_symmetry_space_group_name_H-M	'P1'
_symmetry_Int_Tables_number	1
_symmetry_cell_setting	triclinic
loop_
_symmetry_equiv_pos_as_xyz
  x,y,z
_cell_length_a	15.297475
_cell_length_b	12.594516
_cell_length_c	15.296720
_cell_angle_alpha	80.349469
_cell_angle_beta	88.382886
_cell_angle_gamma	80.319586
loop_
_atom_site_label
_atom_site_type_symbol
_atom_site_fract_x
_atom_site_fract_y
_atom_site_fract_z
Zn1	Zn	1.253466	-0.828402	0.726662
Zn2	Zn	1.278741	-0.981670	0.580189
Zn3	Zn	1.132339	-0.768606	0.554898
Zn4	Zn	1.106966	-0.971207	0.701317
O5	O	1.192878	-0.887471	0.640767
O6	O	1.379399	-0.878137	0.728424
O7	O	1.280516	-0.932761	0.454258
O8	O	1.148448	-0.627605	0.577705
O9	O	1.397968	-0.990742	0.620811
O10	O	1.237439	-0.671537	0.703900
O11	O	1.172956	-0.776223	0.435677
O12	O	1.006393	-0.766078	0.553130
O13	O	1.105203	-0.972910	0.827255
O14	O	0.987752	-0.914928	0.660703
O15	O	1.212836	-0.867992	0.845876
O16	O	1.255913	-1.129215	0.596235
O17	O	1.129711	-1.121528	0.685227
C18	C	0.965289	-0.832880	0.601422
C19	C	0.867921	-0.809554	0.584611
C20	C	0.554794	-1.054189	0.760920
C21	C	0.646276	-1.076112	0.776712
C22	C	0.701692	-1.009475	0.728689
C23	C	0.665617	-0.920910	0.664869
C24	C	0.574127	-0.898991	0.649070
C25	C	0.721024	-0.854276	0.616839
C26	C	0.684949	-0.765712	0.553020
C27	C	0.593468	-0.743795	0.537225
C28	C	0.538052	-0.810433	0.585248
C29	C	0.812514	-0.876196	0.632638
C30	C	0.831847	-0.720997	0.520789
C31	C	0.740365	-0.699074	0.504996
C32	C	1.192822	-1.163997	0.640748
C33	C	1.192873	-1.282320	0.640783
C34	C	1.124233	-1.347423	0.689144
C35	C	1.116732	-1.399680	0.605532
C36	C	1.200452	-1.440883	0.724423
C37	C	1.185337	-1.333002	0.557122
C38	C	1.269085	-1.374217	0.676073
C39	C	1.261623	-1.426440	0.592411
C40	C	1.421356	-0.942277	0.680265
C41	C	1.518720	-0.965632	0.697097
C42	C	1.153370	-0.925954	0.869237
C43	C	1.136534	-0.942353	0.966597
C44	C	1.192955	-0.609875	0.640809
C45	C	1.192987	-0.491580	0.640826
C46	C	1.232282	-0.849074	0.413194
C47	C	1.249288	-0.832416	0.315863
C48	C	1.313239	-0.770087	1.279821
C49	C	1.329063	-0.754682	1.188347
C50	C	1.280932	-0.801598	1.132905
C51	C	1.216975	-0.863922	1.168946
C52	C	1.201155	-0.879335	1.260430
C53	C	1.168847	-0.910847	1.113514
C54	C	1.104891	-0.973170	1.149555
C55	C	1.089073	-0.988580	1.241030
C56	C	1.137203	-0.941664	1.296472
C57	C	1.184668	-0.895433	1.022030
C58	C	1.072583	-1.004682	1.002639
C59	C	1.056760	-1.020086	1.094113
H60	H	0.841877	-0.948305	0.684601
F61	F	0.799055	-1.032808	0.745499
H62	H	0.675642	-1.148223	0.828672
H63	H	1.052334	-1.411643	0.575714
H64	H	0.710979	-0.626964	0.453034
F65	F	0.555078	-0.649544	0.469296
F66	F	0.440684	-0.787100	0.568448
F67	F	1.353230	-1.358586	0.715094
F68	F	1.252733	-0.829106	0.983683
F69	F	0.890820	-0.650075	0.469671
F70	F	0.495816	-1.125115	0.812007
F71	F	1.048266	-1.302215	0.742487
F72	F	1.208772	-1.502013	0.816852
F73	F	1.176921	-1.272020	0.464648
H74	H	1.319729	-1.460800	0.551475
F75	F	1.297773	-0.785199	1.035550
H76	H	1.381139	-0.703941	1.159010
F77	F	1.364462	-0.720173	1.338831
F78	F	1.120369	-0.958061	1.393832
F79	F	1.021359	-1.054623	0.943639
F80	F	1.021016	-1.054929	1.279387
F81	F	0.988695	-1.086416	1.132482
