data_functionalizedCrystal
_audit_creation_method	'MofGen! by Chris Wilmer'
_symmetry_space_group_name_H-M	'P1'
_symmetry_Int_Tables_number	1
_symmetry_cell_setting	triclinic
loop_
_symmetry_equiv_pos_as_xyz
  x,y,z
_cell_length_a	12.759401
_cell_length_b	13.033855
_cell_length_c	12.759393
_cell_angle_alpha	97.207876
_cell_angle_beta	90.020993
_cell_angle_gamma	82.825951
loop_
_atom_site_label
_atom_site_type_symbol
_atom_site_fract_x
_atom_site_fract_y
_atom_site_fract_z
Zn1	Zn	1.659418	-0.415996	0.540946
Zn2	Zn	1.681640	-0.590771	0.342967
Zn3	Zn	1.483723	-0.416045	0.365275
Zn4	Zn	1.506029	-0.590691	0.518615
O5	O	1.582702	-0.503376	0.441951
O6	O	1.809388	-0.439194	0.514694
O7	O	1.655350	-0.567647	0.198898
O8	O	1.488394	-0.269805	0.407260
O9	O	1.825715	-0.567600	0.369240
O10	O	1.617476	-0.269769	0.536325
O11	O	1.509941	-0.439277	0.215288
O12	O	1.339659	-0.439199	0.385606
O13	O	1.526412	-0.567464	0.668605
O14	O	1.356047	-0.567511	0.498264
O15	O	1.639106	-0.439116	0.685012
O16	O	1.676980	-0.736994	0.347586
O17	O	1.547959	-0.736936	0.476633
C18	C	1.309732	-0.503353	0.441933
C19	C	1.192957	-0.503368	0.441947
C20	C	1.019792	-0.436492	0.383432
C21	C	1.129513	-0.436468	0.383420
C22	C	1.146675	-0.570289	0.500499
C23	C	1.036955	-0.570307	0.500517
C24	C	1.263696	-0.313156	0.361801
C25	C	1.309976	-0.246247	0.303238
C26	C	1.272245	-0.230087	0.202820
C27	C	1.188238	-0.280851	0.160942
C28	C	1.141964	-0.347768	0.219498
C29	C	1.179691	-0.363908	0.319933
C30	C	0.902770	-0.693620	0.522124
C31	C	0.856495	-0.760543	0.580675
C32	C	0.894225	-0.776714	0.681093
C33	C	0.978238	-0.725968	0.722965
C34	C	1.024513	-0.659045	0.664415
C35	C	0.986775	-0.642873	0.563998
C36	C	1.617330	-0.774882	0.407288
C37	C	1.632240	-0.891033	0.392495
C38	C	1.575003	-0.942823	0.449693
C39	C	1.590411	-1.062871	0.434404
C40	C	1.856739	-0.503400	0.441969
C41	C	1.973517	-0.503410	0.441977
C42	C	1.582768	-0.503276	0.715997
C43	C	1.582796	-0.503233	0.832779
C44	C	1.547968	-0.230810	0.476772
C45	C	1.533166	-0.114658	0.491610
C46	C	1.582688	-0.503400	0.168980
C47	C	1.582825	-0.503149	0.052236
C48	C	1.641480	-0.436392	0.896187
C49	C	1.641492	-0.436346	1.005917
C50	C	1.524135	-0.569993	0.988820
C51	C	1.524118	-0.570032	0.879093
C52	C	1.663351	-0.313055	1.171626
C53	C	1.722052	-0.246223	1.235036
C54	C	1.822518	-0.230203	1.201489
C55	C	1.864305	-0.281030	1.104531
C56	C	1.805611	-0.347869	1.041125
C57	C	1.705128	-0.363870	1.074673
C58	C	1.502269	-0.693325	0.713382
C59	C	1.443580	-0.760171	0.649974
C60	C	1.343114	-0.776202	0.683517
C61	C	1.301332	-0.725393	0.780477
C62	C	1.360022	-0.658547	0.843885
C63	C	1.460486	-0.642515	0.810334
H64	H	1.092922	-0.617726	0.698516
H65	H	1.839636	-0.389256	0.962186
C66	C	1.314061	-0.602653	0.950537
H67	H	1.245817	-0.621767	0.961434
H68	H	1.359043	-0.622333	1.005888
H69	H	1.308952	-0.529369	0.950075
H70	H	1.514588	-0.898289	0.509977
H71	H	1.219526	-0.738450	0.807791
H72	H	1.008962	-0.739138	0.804733
C73	C	0.861266	-0.675829	0.411662
H74	H	0.900849	-0.628695	0.382794
H75	H	0.868435	-0.740361	0.366894
H76	H	0.788905	-0.647435	0.417157
H77	H	1.477613	-0.801552	0.571030
H78	H	1.692647	-0.935570	0.332204
C79	C	1.974823	-0.263409	1.067636
H80	H	2.003790	-0.216316	1.119280
H81	H	2.019469	-0.327992	1.058338
H82	H	1.969384	-0.235025	1.002527
H83	H	1.309934	-0.175608	0.155139
C84	C	1.887084	-0.156685	1.271236
H85	H	1.847807	-0.128707	1.333779
H86	H	1.951668	-0.194470	1.289387
H87	H	1.901587	-0.101504	1.233572
C88	C	0.843325	-0.850332	0.745496
H89	H	0.787886	-0.878242	0.706181
H90	H	0.895101	-0.905542	0.759894
H91	H	0.815568	-0.812614	0.810145
C92	C	1.451547	-1.054514	0.573059
H93	H	1.417630	-1.102576	0.606955
H94	H	1.486271	-1.011864	0.624265
H95	H	1.400369	-1.012009	0.538194
H96	H	1.650823	-1.107404	0.374109
C97	C	1.706008	-0.362903	0.845247
H98	H	1.740949	-0.323080	0.898731
H99	H	1.756874	-0.402889	0.797339
H100	H	1.659997	-0.317380	0.808258
H101	H	1.688019	-0.204839	1.313980
H102	H	1.581539	-0.326085	1.198945
C103	C	1.146743	-0.263079	0.050477
H104	H	1.186327	-0.215949	0.021604
H105	H	1.153912	-0.327615	0.005715
H106	H	1.074383	-0.234684	0.055968
H107	H	1.294417	-0.326298	0.443574
C108	C	1.459602	-0.643476	1.039763
H109	H	1.424642	-0.683284	0.986282
H110	H	1.505600	-0.688997	1.076756
H111	H	1.408733	-0.603477	1.087668
C112	C	1.278559	-0.849736	0.613769
H113	H	1.317828	-0.877703	0.551219
H114	H	1.264052	-0.904910	0.651432
H115	H	1.213973	-0.811945	0.595614
C116	C	1.612784	-0.675692	0.676480
H117	H	1.629268	-0.715538	0.609662
H118	H	1.613595	-0.603859	0.670597
H119	H	1.663676	-0.696824	0.726414
H120	H	1.073569	-0.389100	0.185401
C121	C	0.950012	-0.362899	0.319054
H122	H	0.993289	-0.323035	0.284194
H123	H	0.912279	-0.402820	0.268120
H124	H	0.901428	-0.317420	0.365144
H125	H	1.378376	-0.204915	0.337345
H126	H	0.788089	-0.801866	0.546572
C127	C	1.216460	-0.643877	0.564877
H128	H	1.288435	-0.634290	0.556474
H129	H	1.196578	-0.628673	0.637438
H130	H	1.207432	-0.714077	0.540418
