data_functionalizedCrystal
_audit_creation_method	'MofGen! by Chris Wilmer'
_symmetry_space_group_name_H-M	'P1'
_symmetry_Int_Tables_number	1
_symmetry_cell_setting	triclinic
loop_
_symmetry_equiv_pos_as_xyz
  x,y,z
_cell_length_a	13.339070
_cell_length_b	15.625429
_cell_length_c	12.376457
_cell_angle_alpha	83.658771
_cell_angle_beta	75.589755
_cell_angle_gamma	99.150231
loop_
_atom_site_label
_atom_site_type_symbol
_atom_site_fract_x
_atom_site_fract_y
_atom_site_fract_z
O1	O	1.397552	0.417076	-0.264988
O2	O	1.897552	0.917076	0.235012
O3	O	1.098183	0.360785	-0.241910
O4	O	1.598183	0.860785	0.258090
O5	O	1.245374	0.266309	-0.203185
O6	O	1.745374	0.766309	0.296815
O7	O	1.250361	0.511552	-0.303714
O8	O	1.750361	1.011552	0.196286
O9	O	1.208587	0.289887	-0.024837
O10	O	1.708587	0.789887	0.475163
O11	O	1.061396	0.384362	-0.063562
O12	O	1.561396	0.884362	0.436438
O13	O	1.360764	0.440654	-0.086641
O14	O	1.860764	0.940654	0.413359
Zn15	Zn	1.205239	0.416251	-0.046785
Zn16	Zn	1.705239	0.916251	0.453215
Zn17	Zn	1.253708	0.385187	-0.281766
Zn18	Zn	1.753708	0.885187	0.218234
O19	O	1.213574	0.535129	-0.125366
O20	O	1.713574	1.035129	0.374634
C21	C	1.041283	0.363065	-0.148838
C22	C	1.541283	0.863065	0.351162
C23	C	0.926543	0.334721	-0.137219
C24	C	1.426543	0.834721	0.362781
C25	C	0.580705	0.555103	-0.227575
C26	C	1.080705	1.055103	0.272425
C27	C	0.688509	0.581735	-0.238496
C28	C	1.188509	1.081735	0.261504
C29	C	0.748023	0.519984	-0.213177
C30	C	1.248023	1.019984	0.286823
C31	C	0.699722	0.431596	-0.176936
C32	C	1.199722	0.931596	0.323064
C33	C	0.591910	0.404960	-0.166022
C34	C	1.091910	0.904960	0.333978
C35	C	0.759227	0.369841	-0.151624
C36	C	1.259227	0.869841	0.348376
C37	C	0.710927	0.281453	-0.115383
C38	C	1.210927	0.781453	0.384617
C39	C	0.603125	0.254822	-0.104470
C40	C	1.103125	0.754822	0.395530
C41	C	0.543611	0.316573	-0.129789
C42	C	1.043611	0.816573	0.370211
C43	C	0.867040	0.396477	-0.162539
C44	C	1.367040	0.896477	0.337461
C45	C	0.878245	0.246334	-0.100986
C46	C	1.378245	0.746334	0.399014
C47	C	0.770441	0.219702	-0.090064
C48	C	1.270441	0.719702	0.409936
C49	C	1.223561	0.246068	-0.100884
C50	C	1.723561	0.746068	0.399116
C51	C	1.213360	0.150626	-0.061768
C52	C	1.713360	0.650626	0.438232
C53	C	1.280035	-0.227532	-0.419164
C54	C	1.780035	0.272468	0.080836
C55	C	1.270438	-0.317210	-0.382375
C56	C	1.770438	0.182790	0.117625
C57	C	1.230335	-0.291494	-0.187953
C58	C	1.730335	0.208506	0.312047
C59	C	1.239934	-0.201811	-0.224726
C60	C	1.739934	0.298189	0.275274
C61	C	1.264783	-0.169838	-0.340333
C62	C	1.764783	0.330162	0.159667
C63	C	1.224682	-0.144117	-0.145895
C64	C	1.724682	0.355883	0.354105
C65	C	1.234275	-0.054443	-0.182665
C66	C	1.734275	0.445557	0.317335
C67	C	1.259120	-0.022463	-0.298267
C68	C	1.759120	0.477537	0.201733
C69	C	1.274376	-0.080164	-0.377103
C70	C	1.774376	0.419836	0.122897
C71	C	1.199826	-0.176093	-0.030288
C72	C	1.699826	0.323907	0.469712
C73	C	1.184574	-0.118399	0.048543
C74	C	1.684574	0.381601	0.548543
C75	C	1.194174	-0.028722	0.011773
C76	C	1.694174	0.471278	0.511773
C77	C	1.219019	0.003258	-0.103829
C78	C	1.719019	0.503258	0.396171
C79	C	1.178918	0.028979	0.090609
C80	C	1.678918	0.528979	0.590609
C81	C	1.188511	0.118653	0.053839
C82	C	1.688511	0.618653	0.553839
C83	C	1.228612	0.092932	-0.140599
C84	C	1.728612	0.592932	0.359401
C85	C	1.417666	0.438373	-0.179715
C86	C	1.917666	0.938373	0.320285
C87	C	1.532406	0.466716	-0.191342
C88	C	2.032406	0.966716	0.308658
C89	C	1.235387	0.555370	-0.227669
C90	C	1.735387	1.055370	0.272331
C91	C	1.245590	0.650811	-0.266793
C92	C	1.745590	1.150811	0.233207
N93	N	1.172168	0.437453	0.113583
N94	N	1.672168	0.937453	0.613583
N95	N	1.286787	0.363980	-0.442132
N96	N	1.786787	0.863980	0.057868
C97	C	1.363555	0.314747	0.518865
C98	C	1.863555	0.814747	1.018865
C99	C	1.386696	0.299907	0.406608
C100	C	1.886696	0.799907	0.906608
C101	C	1.333066	0.334292	0.333346
C102	C	1.833066	0.834292	0.833346
C103	C	1.256291	0.383521	0.372352
C104	C	1.756291	0.883521	0.872352
C105	C	1.233154	0.398368	0.484617
C106	C	1.733154	0.898368	0.984617
C107	C	1.202664	0.417913	0.299099
C108	C	1.702664	0.917913	0.799099
C109	C	1.125890	0.467142	0.338105
C110	C	1.625890	0.967142	0.838105
C111	C	1.102756	0.481986	0.450360
C112	C	1.602756	0.981986	0.950360
C113	C	1.156386	0.447601	0.523621
C114	C	1.656386	0.947601	1.023621
C115	C	1.225802	0.403065	0.186834
C116	C	1.725802	0.903065	0.686834
C117	C	1.095400	0.486686	0.152587
C118	C	1.595400	0.986686	0.652587
C119	C	1.072259	0.501527	0.264843
C120	C	1.572259	1.001527	0.764843
H121	H	0.532242	0.605369	-0.248194
H122	H	1.032242	1.105369	0.251806
Cl123	Cl	1.289609	-0.389740	-0.481491
Cl124	Cl	1.789609	0.110260	0.018509
H125	H	1.351911	0.322206	0.241943
H126	H	1.851911	0.822206	0.741943
Cl127	Cl	1.483207	0.238023	0.357573
Cl128	Cl	1.983207	0.738023	0.857573
Cl129	Cl	1.430978	0.271535	0.610960
Cl130	Cl	1.930978	0.771535	1.110960
Cl131	Cl	0.749223	0.692845	-0.284059
Cl132	Cl	1.249223	1.192845	0.215941
Cl133	Cl	1.127289	0.466255	0.664752
Cl134	Cl	1.627289	0.966255	1.164752
H135	H	1.248856	0.118967	-0.234738
H136	H	1.748856	0.618967	0.265262
Cl137	Cl	1.199089	-0.331699	-0.042624
Cl138	Cl	1.699089	0.168301	0.457376
Cl139	Cl	1.271185	0.090272	-0.344496
Cl140	Cl	1.771185	0.590272	0.155504
Cl141	Cl	1.187764	-0.288829	0.015937
Cl142	Cl	1.687764	0.211171	0.515937
H143	H	1.294620	-0.054129	-0.471242
H144	H	1.794620	0.445871	0.028758
Cl145	Cl	1.322314	0.341179	0.137813
Cl146	Cl	1.822314	0.841179	0.637813
H147	H	0.926702	0.196051	-0.080373
H148	H	1.426702	0.696051	0.419627
Cl149	Cl	1.006252	0.543886	0.499392
Cl150	Cl	1.506252	1.043886	0.999392
H151	H	0.455828	0.294893	-0.120898
H152	H	0.955828	0.794893	0.379102
H153	H	1.051732	0.514688	0.092936
H154	H	1.551732	1.014688	0.592936
Cl155	Cl	0.927747	0.507589	-0.208096
Cl156	Cl	1.427747	1.007589	0.291904
Cl157	Cl	0.883549	0.553467	-0.226904
Cl158	Cl	1.383549	1.053467	0.273096
H159	H	0.563804	0.182849	-0.074972
H160	H	1.063804	0.682849	0.425028
H161	H	1.158675	0.002931	0.184737
H162	H	1.658675	0.502931	0.684737
Cl163	Cl	0.709708	0.108589	-0.044507
Cl164	Cl	1.209708	0.608589	0.455493
H165	H	1.300279	-0.201497	-0.513303
H166	H	1.800279	0.298503	-0.013303
Cl167	Cl	1.153327	-0.158604	0.193873
Cl168	Cl	1.653327	0.341396	0.693873
Cl169	Cl	1.169343	0.191188	0.152942
Cl170	Cl	1.669343	0.691188	0.652942
Cl171	Cl	0.975746	0.563414	0.313891
Cl172	Cl	1.475746	1.063414	0.813891
