data_functionalizedCrystal
_audit_creation_method	'MofGen! by Chris Wilmer'
_symmetry_space_group_name_H-M	'P1'
_symmetry_Int_Tables_number	1
_symmetry_cell_setting	triclinic
loop_
_symmetry_equiv_pos_as_xyz
  x,y,z
_cell_length_a	17.699083
_cell_length_b	16.776229
_cell_length_c	17.699083
_cell_angle_alpha	89.995692
_cell_angle_beta	96.716985
_cell_angle_gamma	89.999727
loop_
_atom_site_label
_atom_site_type_symbol
_atom_site_fract_x
_atom_site_fract_y
_atom_site_fract_z
O1	O	1.004077	0.066178	-0.095710
O2	O	1.504077	0.566178	0.404290
O3	O	0.783699	0.066204	-0.108162
O4	O	1.283699	0.566204	0.391838
O5	O	0.900114	0.066183	0.008253
O6	O	1.400114	0.566183	0.508253
O7	O	0.887662	0.066199	-0.212125
O8	O	1.387662	0.566199	0.287875
O9	O	0.900101	-0.066393	0.008254
O10	O	1.400101	0.433607	0.508254
O11	O	0.783686	-0.066372	-0.108162
O12	O	1.283686	0.433628	0.391838
O13	O	1.004064	-0.066398	-0.095709
O14	O	1.504064	0.433602	0.404291
Zn15	Zn	0.893873	-0.087435	-0.101935
Zn16	Zn	1.393873	0.412565	0.398065
Zn17	Zn	0.893890	0.087241	-0.101936
Zn18	Zn	1.393890	0.587241	0.398064
O19	O	0.887649	-0.066378	-0.212125
O20	O	1.387649	0.433622	0.287875
C21	C	0.755495	-0.000081	-0.107716
C22	C	1.255495	0.499919	0.392284
C23	C	0.671477	-0.000071	-0.106377
C24	C	1.171477	0.499929	0.393623
N25	N	0.893867	-0.206646	-0.101935
N26	N	1.393867	0.293354	0.398065
C27	C	0.622856	-0.000066	-0.174710
C28	C	1.122856	0.499934	0.325290
C29	C	0.543913	-0.000077	-0.173448
C30	C	1.043913	0.499923	0.326552
C31	C	0.513592	-0.000086	-0.103852
C32	C	1.013592	0.499914	0.396148
C33	C	0.562219	-0.000093	-0.035513
C34	C	1.062219	0.499907	0.464487
C35	C	0.641161	-0.000088	-0.036776
C36	C	1.141161	0.499912	0.463224
C37	C	0.243856	-0.000113	-0.030418
C38	C	0.743856	0.499887	0.469582
C39	C	0.164908	-0.000115	-0.029160
C40	C	0.664908	0.499885	0.470840
C41	C	0.146608	-0.000101	-0.167090
C42	C	0.646608	0.499899	0.332910
C43	C	0.225550	-0.000097	-0.168353
C44	C	0.725550	0.499903	0.331647
C45	C	0.274170	-0.000108	-0.100015
C46	C	0.774170	0.499892	0.399985
C47	C	0.359769	-0.000098	-0.101384
C48	C	0.859769	0.499902	0.398616
C49	C	0.427995	-0.000090	-0.102481
C50	C	0.927995	0.499910	0.397519
C51	C	0.939682	-0.248362	-0.147783
C52	C	1.439682	0.251638	0.352217
C53	C	0.939690	-0.331814	-0.147781
C54	C	1.439690	0.168186	0.352219
C55	C	0.893879	-0.373549	-0.101933
C56	C	1.393879	0.126451	0.398067
C57	C	0.848062	-0.331827	-0.056079
C58	C	1.348062	0.168173	0.443921
C59	C	0.848058	-0.248376	-0.056078
C60	C	1.348058	0.251624	0.443922
C61	C	0.848077	-0.668374	-0.056080
C62	C	1.348077	-0.168374	0.443920
C63	C	0.848083	-0.751831	-0.056085
C64	C	1.348083	-0.251831	0.443915
C65	C	0.939709	-0.751812	-0.147782
C66	C	1.439709	-0.251812	0.352218
C67	C	0.939705	-0.668361	-0.147781
C68	C	1.439705	-0.168361	0.352219
C69	C	0.893892	-0.626647	-0.101925
C70	C	1.393892	-0.126647	0.398075
C71	C	0.893884	-0.536158	-0.101927
C72	C	1.393884	-0.036158	0.398073
C73	C	0.893882	-0.464036	-0.101933
C74	C	1.393882	0.035964	0.398067
C75	C	1.032268	-0.000112	-0.096156
C76	C	1.532268	0.499888	0.403844
C77	C	1.116286	-0.000116	-0.097494
C78	C	1.616286	0.499884	0.402506
C79	C	0.899662	-0.000105	0.036451
C80	C	1.399662	0.499895	0.536451
C81	C	0.898323	-0.000105	0.120469
C82	C	1.398323	0.499895	0.620469
N83	N	0.893903	0.206452	-0.101931
N84	N	1.393903	0.706452	0.398069
C85	C	0.888102	-0.000087	-0.240322
C86	C	1.388102	0.499913	0.259678
C87	C	0.889440	-0.000082	-0.324340
C88	C	1.389440	0.499918	0.175660
C89	C	0.966656	-0.000114	0.169090
C90	C	1.466656	0.499886	0.669090
C91	C	0.965394	-0.000107	0.248033
C92	C	1.465394	0.499893	0.748033
C93	C	0.895798	-0.000096	0.278354
C94	C	1.395798	0.499904	0.778354
C95	C	0.827459	-0.000085	0.229727
C96	C	1.327459	0.499915	0.729727
C97	C	0.828722	-0.000086	0.150785
C98	C	1.328722	0.499914	0.650785
C99	C	0.822364	-0.000078	0.548090
C100	C	1.322364	0.499922	1.048090
C101	C	0.821106	-0.000078	0.627038
C102	C	1.321106	0.499922	1.127038
C103	C	0.959036	-0.000099	0.645338
C104	C	1.459036	0.499901	1.145338
C105	C	0.960299	-0.000100	0.566396
C106	C	1.460299	0.499900	1.066396
C107	C	0.891961	-0.000084	0.517776
C108	C	1.391961	0.499916	1.017776
C109	C	0.893330	-0.000090	0.432177
C110	C	1.393330	0.499910	0.932177
C111	C	0.894427	-0.000096	0.363951
C112	C	1.394427	0.499904	0.863951
H113	H	0.647537	-0.000058	-0.231384
H114	H	1.147537	0.499942	0.268616
Br115	Br	1.001871	-0.388426	-0.210006
Br116	Br	1.501871	0.111574	0.289994
Br117	Br	0.477929	-0.000068	-0.266191
Br118	Br	0.977929	0.499932	0.233809
Br119	Br	1.001855	-0.191730	-0.210012
Br120	Br	1.501855	0.308270	0.289988
H121	H	0.107012	-0.000097	-0.222734
H122	H	0.607012	0.499903	0.277266
H123	H	0.764429	-0.000071	0.651721
H124	H	1.264429	0.499929	1.151721
H125	H	0.810776	-0.785809	-0.018748
H126	H	1.310776	-0.285809	0.481252
Br127	Br	1.058137	-0.000120	0.314016
Br128	Br	1.558137	0.499880	0.814016
H129	H	0.810751	-0.214412	-0.018743
H130	H	1.310751	0.285588	0.481257
Br131	Br	0.266696	-0.000077	-0.262808
Br132	Br	0.766696	0.499923	0.237192
H133	H	0.140225	-0.000124	0.027517
H134	H	0.640225	0.499876	0.527517
Br135	Br	0.733005	-0.000057	0.270875
Br136	Br	1.233005	0.499943	0.770875
Br137	Br	0.309831	-0.000130	0.062327
Br138	Br	0.809831	0.499870	0.562327
Br139	Br	1.061114	-0.000140	0.127948
Br140	Br	1.561114	0.499860	0.627948
H141	H	1.016971	-0.000113	0.541714
H142	H	1.516971	0.499887	1.041714
H143	H	0.537526	-0.000112	0.021154
H144	H	1.037526	0.499888	0.521154
Br145	Br	0.707148	-0.000101	0.055966
Br146	Br	1.207148	0.499899	0.555966
Br147	Br	1.001867	-0.611725	-0.210018
Br148	Br	1.501867	-0.111725	0.289982
Br149	Br	0.785870	-0.611772	0.006123
Br150	Br	1.285870	-0.111772	0.506123
H151	H	0.977015	-0.785786	-0.185119
H152	H	1.477015	-0.285786	0.314881
H153	H	0.766718	-0.000065	0.508512
H154	H	1.266718	0.499935	1.008512
Br155	Br	0.785892	-0.388466	0.006148
Br156	Br	1.285892	0.111534	0.506148
H157	H	1.014680	-0.000107	0.684934
H158	H	1.514680	0.499893	1.184934
H159	H	0.773078	-0.000078	0.111198
H160	H	1.273078	0.499922	0.611198
