data_functionalizedCrystal
_audit_creation_method	'MofGen! by Chris Wilmer'
_symmetry_space_group_name_H-M	'P1'
_symmetry_Int_Tables_number	1
_symmetry_cell_setting	triclinic
loop_
_symmetry_equiv_pos_as_xyz
  x,y,z
_cell_length_a	14.519731
_cell_length_b	23.532357
_cell_length_c	13.596369
_cell_angle_alpha	89.988481
_cell_angle_beta	89.994584
_cell_angle_gamma	83.258572
loop_
_atom_site_label
_atom_site_type_symbol
_atom_site_fract_x
_atom_site_fract_y
_atom_site_fract_z
O1	O	1.222951	0.074713	-0.081806
O2	O	0.954370	0.083492	-0.081809
O3	O	1.096783	-0.003794	-0.081787
O4	O	1.080537	0.161999	-0.081828
O5	O	1.096769	-0.003799	0.081796
O6	O	0.954356	0.083488	0.081774
O7	O	1.222937	0.074709	0.081777
Zn8	Zn	1.088644	0.079097	0.107748
Zn9	Zn	1.088663	0.079104	-0.107780
O10	O	1.080523	0.161995	0.081755
C11	C	0.920009	0.083079	-0.000018
C12	C	0.817643	0.081846	-0.000018
C13	C	0.734511	0.080844	-0.000021
C14	C	0.630218	0.079593	-0.000022
C15	C	0.547091	0.078600	-0.000021
C16	C	0.442790	0.077348	-0.000023
C17	C	1.096370	-0.025015	0.000007
C18	C	1.095148	-0.088239	0.000017
C19	C	1.087486	-0.480282	-0.089206
C20	C	1.086324	-0.539687	-0.089211
O21	O	1.085699	-0.570404	-0.165046
N22	N	1.085741	-0.569404	-0.000043
C23	C	1.086309	-0.539711	0.089136
O24	O	1.085705	-0.570442	0.164980
C25	C	1.087464	-0.480307	0.089140
C26	C	1.088057	-0.450595	-0.000033
C27	C	1.088078	-0.450570	-0.178372
C28	C	1.089241	-0.391169	-0.178366
C29	C	1.089812	-0.361481	-0.089194
C30	C	1.089220	-0.391194	-0.000027
C31	C	1.088026	-0.450616	0.178319
C32	C	1.089180	-0.391207	0.178316
C33	C	1.089773	-0.361495	0.089142
C34	C	1.090954	-0.302106	0.089151
N35	N	1.091538	-0.272389	-0.000017
C36	C	1.090967	-0.302077	-0.089189
C37	C	1.083883	-0.664464	0.089119
C38	C	1.082735	-0.723868	0.089116
C39	C	1.082748	-0.723839	-0.089232
C40	C	1.083903	-0.664435	-0.089227
C41	C	1.084466	-0.634748	-0.000048
C42	C	1.093410	-0.177332	-0.089170
C43	C	1.094577	-0.117927	-0.089156
C44	C	1.094559	-0.117960	0.089191
C45	C	1.093397	-0.177360	0.089178
C46	C	1.092819	-0.207045	-0.000011
O47	O	1.091577	-0.271351	0.164947
O48	O	1.091559	-0.271338	-0.165020
C49	C	1.257298	0.075122	-0.000017
C50	C	1.359663	0.076355	-0.000023
C51	C	1.080937	0.183216	-0.000042
C52	C	1.082158	0.246440	-0.000057
N53	N	1.088638	0.079093	0.254840
N54	N	1.088676	0.079104	-0.254872
C55	C	1.088661	0.079104	0.656131
C56	C	1.088652	0.079103	0.544479
C57	C	1.088650	0.079099	0.455489
C58	C	1.088640	0.079097	0.343830
H59	H	1.095062	-0.093737	-0.161775
F60	F	1.095169	-0.086354	0.184090
H61	H	1.092935	-0.201494	-0.161795
F62	F	1.089779	-0.359615	0.273235
H63	H	1.084384	-0.640247	-0.161840
F64	F	1.092782	-0.208985	0.184086
F65	F	1.082134	-0.755445	-0.184138
H66	H	1.089720	-0.366982	-0.250980
F67	F	1.082120	-0.755485	0.184027
H68	H	1.087545	-0.474797	0.250934
H69	H	1.087609	-0.474735	-0.250991
F70	F	1.084490	-0.632874	0.184042
