data_functionalizedCrystal
_audit_creation_method	'MofGen! by Chris Wilmer'
_symmetry_space_group_name_H-M	'P1'
_symmetry_Int_Tables_number	1
_symmetry_cell_setting	triclinic
loop_
_symmetry_equiv_pos_as_xyz
  x,y,z
_cell_length_a	12.759401
_cell_length_b	17.077396
_cell_length_c	17.077402
_cell_angle_alpha	90.029784
_cell_angle_beta	89.981038
_cell_angle_gamma	89.982079
loop_
_atom_site_label
_atom_site_type_symbol
_atom_site_fract_x
_atom_site_fract_y
_atom_site_fract_z
Zn1	Zn	-1.606174	0.443802	-0.312590
Zn2	Zn	-1.606050	0.312533	-0.443865
Zn3	Zn	-1.430482	0.312554	-0.312608
Zn4	Zn	-1.430439	0.443761	-0.443809
O5	O	-1.518286	0.378163	-0.378218
O6	O	-1.753178	0.426398	-0.330020
O7	O	-1.582726	0.202689	-0.426485
O8	O	-1.453858	0.329991	-0.202759
O9	O	-1.753087	0.329955	-0.426467
O10	O	-1.582938	0.426418	-0.202746
O11	O	-1.453738	0.202704	-0.330051
O12	O	-1.283456	0.329950	-0.329996
O13	O	-1.453785	0.553613	-0.426372
O14	O	-1.283424	0.426347	-0.426389
O15	O	-1.582896	0.553644	-0.329966
O16	O	-1.582685	0.329915	-0.553705
O17	O	-1.453665	0.426327	-0.553663
C18	C	-1.245319	0.378147	-0.378189
C19	C	-1.128542	0.378158	-0.378196
C20	C	-1.073721	0.428453	-0.328068
C21	C	-0.963997	0.428456	-0.328079
C22	C	-0.963925	0.327867	-0.428351
C23	C	-1.073647	0.327861	-0.428336
C24	C	-1.128616	0.478750	-0.277928
C25	C	-1.073794	0.529049	-0.227797
C26	C	-0.964070	0.529052	-0.227808
C27	C	-0.909168	0.478756	-0.277950
C28	C	-1.518185	0.378131	-0.582166
C29	C	-1.518238	0.378144	-0.669416
C30	C	-1.518350	0.582907	-0.378160
C31	C	-1.518377	0.670157	-0.378136
C32	C	-0.792320	0.378175	-0.378238
C33	C	-0.909096	0.378167	-0.378222
C34	C	-1.518283	0.174215	-0.378219
C35	C	-1.518460	0.086965	-0.378023
C36	C	-1.585608	0.711164	-0.327933
C37	C	-1.585620	0.793145	-0.327907
C38	C	-1.518407	0.834116	-0.378088
C39	C	-1.451169	0.793103	-0.428293
C40	C	-1.451152	0.711124	-0.428315
C41	C	-1.451211	0.963973	-0.428246
C42	C	-1.451229	1.045958	-0.428225
C43	C	-1.585680	1.045994	-0.327838
C44	C	-1.585663	0.964015	-0.327860
C45	C	-1.518426	0.923007	-0.378066
C46	C	-1.585487	0.327996	-0.710401
C47	C	-1.585538	0.328016	-0.792382
C48	C	-1.518334	0.378181	-0.833375
C49	C	-1.451082	0.428334	-0.792384
C50	C	-1.451037	0.428318	-0.710405
C51	C	-1.451179	0.428364	-0.963254
C52	C	-1.451223	0.428380	-1.045239
C53	C	-1.585681	0.328063	-1.045231
C54	C	-1.585636	0.328046	-0.963252
C55	C	-1.518382	0.378199	-0.922266
C56	C	-1.518417	0.378211	-0.173474
C57	C	-1.518472	0.378232	-0.086224
H58	H	-1.640344	0.677811	-0.287072
O59	O	-1.650619	0.279181	-0.670548
C60	C	-1.664789	0.173222	-0.578026
C61	C	-1.590903	0.228442	-0.623122
H62	H	-1.616540	0.132197	-0.539658
H63	H	-1.712846	0.137327	-0.621369
H64	H	-1.719695	0.209307	-0.539623
H65	H	-1.535933	0.192418	-0.661525
H66	H	-1.542920	0.264340	-0.579736
H67	H	-0.919438	0.570002	-0.186984
H68	H	-1.640445	0.287229	-1.078605
O69	O	-1.651032	0.832858	-0.279118
C70	C	-1.784351	0.824242	-0.179524
C71	C	-1.710341	0.779171	-0.234753
H72	H	-1.832305	0.780856	-0.143629
H73	H	-1.839337	0.862600	-0.215523
H74	H	-1.736137	0.862647	-0.138493
H75	H	-1.758469	0.740723	-0.275795
H76	H	-1.655351	0.740863	-0.198704
H77	H	-1.396368	0.469182	-0.825767
H78	H	-1.640400	0.930658	-0.287002
H79	H	-1.396418	0.469206	-0.929886
O80	O	-1.385765	0.477141	-0.670673
C81	C	-1.334709	0.610633	-0.645484
C82	C	-1.408672	0.555423	-0.690542
H83	H	-1.353218	0.673936	-0.661519
H84	H	-1.249992	0.596865	-0.661670
H85	H	-1.346208	0.601965	-0.579855
H86	H	-1.397267	0.564060	-0.756181
H87	H	-1.493363	0.569204	-0.674292
O88	O	-1.235200	0.478893	-0.277918
C89	C	-1.392684	0.554097	-0.298218
C90	C	-1.271979	0.554047	-0.298238
H91	H	-1.422456	0.614848	-0.314660
H92	H	-1.422540	0.537975	-0.237402
H93	H	-1.422415	0.509478	-0.342635
H94	H	-1.242159	0.598667	-0.253859
H95	H	-1.242194	0.570135	-0.359082
O96	O	-1.127007	0.578012	-0.179131
C97	C	-1.160699	0.711609	-0.141232
C98	C	-1.100355	0.656246	-0.196384
H99	H	-1.139190	0.774873	-0.155173
H100	H	-1.139117	0.698007	-0.077907
H101	H	-1.248532	0.702929	-0.149823
H102	H	-1.012508	0.664895	-0.187864
H103	H	-1.122024	0.669862	-0.259689
H104	H	-0.819823	0.478746	-0.277938
O105	O	-1.126863	0.279095	-0.477145
C106	C	-1.160357	0.240722	-0.610613
C107	C	-1.100042	0.296013	-0.555429
H108	H	-1.138678	0.254369	-0.673917
H109	H	-1.248219	0.249362	-0.602053
H110	H	-1.138772	0.177455	-0.596712
H111	H	-1.121540	0.359300	-0.569296
H112	H	-1.012195	0.287304	-0.564000
O113	O	-0.910643	0.278907	-0.476978
C114	C	-0.877035	0.145320	-0.514954
C115	C	-0.937421	0.200676	-0.459820
H116	H	-0.898679	0.082060	-0.501113
H117	H	-0.789184	0.153898	-0.506353
H118	H	-0.898593	0.159033	-0.578259
H119	H	-0.915950	0.186997	-0.396494
H120	H	-1.025257	0.192088	-0.468489
O121	O	-1.385919	0.477190	-1.084940
C122	C	-1.252531	0.576675	-1.076301
C123	C	-1.326447	0.521448	-1.031243
H124	H	-1.204413	0.612460	-1.032907
H125	H	-1.300721	0.617804	-1.114603
H126	H	-1.197684	0.540601	-1.114761
H127	H	-1.381309	0.557458	-0.992740
H128	H	-1.278192	0.480317	-0.992991
O129	O	-1.385928	0.832815	-0.477148
C130	C	-1.334892	0.857894	-0.610663
C131	C	-1.408823	0.812860	-0.555420
H132	H	-1.353390	0.841790	-0.673959
H133	H	-1.250163	0.841757	-0.596938
H134	H	-1.346437	0.923527	-0.601986
H135	H	-1.397371	0.747217	-0.564067
H136	H	-1.493525	0.829063	-0.569159
H137	H	-1.396443	0.930588	-0.469117
O138	O	-1.650882	1.085945	-0.279082
C139	C	-1.710519	1.212255	-0.234569
C140	C	-1.636612	1.167104	-0.289810
H141	H	-1.699022	1.277879	-0.243236
H142	H	-1.692097	1.196200	-0.171262
H143	H	-1.795215	1.196103	-0.248354
H144	H	-1.551891	1.183232	-0.276097
H145	H	-1.655124	1.183163	-0.353101
H146	H	-1.396395	0.677737	-0.469187
H147	H	-1.640353	0.287195	-0.929875
O148	O	-1.385836	1.085638	-0.476992
C149	C	-1.252510	1.076956	-0.576590
C150	C	-1.326497	1.031922	-0.521389
H151	H	-1.204532	1.033546	-0.612511
H152	H	-1.197545	1.115320	-0.540567
H153	H	-1.300744	1.115352	-0.617599
H154	H	-1.278349	0.993484	-0.480369
H155	H	-1.381465	0.993607	-0.557461
H156	H	-1.640299	0.287180	-0.825749
