data_functionalizedCrystal
_audit_creation_method	'MofGen! by Chris Wilmer'
_symmetry_space_group_name_H-M	'P1'
_symmetry_Int_Tables_number	1
_symmetry_cell_setting	triclinic
loop_
_symmetry_equiv_pos_as_xyz
  x,y,z
_cell_length_a	18.050591
_cell_length_b	19.121063
_cell_length_c	19.121175
_cell_angle_alpha	94.951770
_cell_angle_beta	87.536935
_cell_angle_gamma	92.465257
loop_
_atom_site_label
_atom_site_type_symbol
_atom_site_fract_x
_atom_site_fract_y
_atom_site_fract_z
Zn1	Zn	1.140383	-0.297186	-0.409891
Zn2	Zn	1.640383	0.202814	0.090109
Zn3	Zn	1.130131	-0.409834	-0.297240
Zn4	Zn	1.630131	0.090166	0.202760
Zn5	Zn	1.011119	-0.292179	-0.292230
Zn6	Zn	1.511119	0.207821	0.207770
Zn7	Zn	1.011069	-0.414804	-0.414849
Zn8	Zn	1.511069	0.085196	0.085151
O9	O	1.073176	-0.353501	-0.353553
O10	O	1.573176	0.146499	0.146447
O11	O	1.242948	-0.312144	-0.394970
O12	O	1.742948	0.187856	0.105030
O13	O	1.110074	-0.390051	-0.198113
O14	O	1.610074	0.109949	0.301887
O15	O	1.032578	-0.194381	-0.303666
O16	O	1.532578	0.305619	0.196334
O17	O	1.235415	-0.394906	-0.312205
O18	O	1.735415	0.105094	0.187795
O19	O	1.127548	-0.198060	-0.390112
O20	O	1.627548	0.301940	0.109888
O21	O	1.022637	-0.303611	-0.194433
O22	O	1.522637	0.196389	0.305567
O23	O	0.907188	-0.308430	-0.308474
O24	O	1.407188	0.191570	0.191526
O25	O	1.032493	-0.403378	-0.512653
O26	O	1.532493	0.096622	-0.012653
O27	O	0.907151	-0.398522	-0.398562
O28	O	1.407151	0.101478	0.101438
O29	O	1.127499	-0.316964	-0.509011
O30	O	1.627499	0.183036	-0.009011
O31	O	1.110025	-0.508955	-0.317013
O32	O	1.610025	-0.008955	0.182987
O33	O	1.022551	-0.512607	-0.403420
O34	O	1.522551	-0.012607	0.096580
C35	C	0.880223	-0.353473	-0.353513
C36	C	1.380223	0.146527	0.146487
C37	C	0.797677	-0.353479	-0.353513
C38	C	1.297677	0.146521	0.146487
C39	C	0.598232	-0.304437	-0.304629
C40	C	1.098232	0.195563	0.195371
C41	C	0.545293	-0.367876	-0.290047
C42	C	1.045293	0.132124	0.209953
C43	C	0.646547	-0.353501	-0.353546
C44	C	1.146547	0.146499	0.146454
C45	C	0.552403	-0.290085	-0.368127
C46	C	1.052403	0.209915	0.131873
C47	C	0.500562	-0.353518	-0.353576
C48	C	1.000562	0.146482	0.146424
C49	C	0.594692	-0.416973	-0.338931
C50	C	1.094692	0.083027	0.161069
C51	C	0.601810	-0.339140	-0.417039
C52	C	1.101810	0.160860	0.082961
C53	C	0.548893	-0.402624	-0.402484
C54	C	1.048893	0.097376	0.097516
C55	C	0.730645	-0.353491	-0.353526
C56	C	1.230645	0.146509	0.146474
C57	C	0.416466	-0.353535	-0.353595
C58	C	0.916466	0.146465	0.146405
C59	C	1.065191	-0.536312	-0.361313
C60	C	1.565191	-0.036312	0.138687
C61	C	1.061844	-0.614521	-0.364657
C62	C	1.561844	-0.114521	0.135343
C63	C	1.105853	-0.649340	-0.321278
C64	C	1.605853	-0.149340	0.178722
C65	C	1.102710	-0.722826	-0.324426
C66	C	1.602710	-0.222826	0.175574
C67	C	1.055554	-0.761490	-0.370952
C68	C	1.555554	-0.261490	0.129048
C69	C	1.011543	-0.726666	-0.414336
C70	C	1.511543	-0.226666	0.085664
C71	C	1.014690	-0.653182	-0.411190
C72	C	1.514690	-0.153182	0.088810
C73	C	1.043773	-0.983461	-0.382702
C74	C	1.543773	-0.483461	0.117298
C75	C	1.040628	-1.056950	-0.385843
C76	C	1.540628	-0.556950	0.114157
C77	C	1.131796	-1.053105	-0.295934
C78	C	1.631796	-0.553105	0.204066
C79	C	1.134936	-0.979619	-0.292789
C80	C	1.634936	-0.479619	0.207211
C81	C	1.090929	-0.944801	-0.336176
C82	C	1.590929	-0.444801	0.163824
C83	C	1.052338	-0.836604	-0.374170
C84	C	1.552338	-0.336604	0.125830
C85	C	1.094149	-0.869689	-0.332961
C86	C	1.594149	-0.369689	0.167039
C87	C	1.266882	-0.353529	-0.353593
C88	C	1.766882	0.146471	0.146407
C89	C	1.349428	-0.353542	-0.353610
C90	C	1.849428	0.146458	0.146390
C91	C	1.081134	-0.361284	-0.537076
C92	C	1.581134	0.138716	-0.037076
C93	C	1.084525	-0.364600	-0.615283
C94	C	1.584525	0.135400	-0.115283
C95	C	1.081212	-0.169976	-0.345777
C96	C	1.581212	0.330024	0.154223
C97	C	1.084637	-0.091769	-0.342463
C98	C	1.584637	0.408231	0.157537
C99	C	1.040597	-0.321155	-0.650108
C100	C	1.540597	0.178845	-0.150108
C101	C	1.043781	-0.324277	-0.723591
C102	C	1.543781	0.175723	-0.223591
C103	C	1.090897	-0.370842	-0.762249
C104	C	1.590897	0.129158	-0.262249
C105	C	1.134827	-0.414292	-0.727419
C106	C	1.634827	0.085708	-0.227419
C107	C	1.131639	-0.411173	-0.653937
C108	C	1.631639	0.088827	-0.153937
C109	C	1.102796	-0.382514	-0.984214
C110	C	1.602796	0.117486	-0.484214
C111	C	1.105982	-0.385628	-1.057701
C112	C	1.605982	0.114372	-0.557701
C113	C	1.014935	-0.295614	-1.053868
C114	C	1.514935	0.204386	-0.553868
C115	C	1.011754	-0.292496	-0.980385
C116	C	1.511754	0.207504	-0.480385
C117	C	1.055681	-0.335949	-0.945562
C118	C	1.555681	0.164051	-0.445562
C119	C	1.094154	-0.374033	-0.837361
C120	C	1.594154	0.125967	-0.337361
C121	C	1.052420	-0.332761	-0.870451
C122	C	1.552420	0.167239	-0.370451
C123	C	1.065293	-0.345697	-0.170741
C124	C	1.565293	0.154303	0.329259
C125	C	1.062054	-0.342183	-0.092526
C126	C	1.562054	0.157817	0.407474
H127	H	0.520585	-0.380035	-0.236364
H128	H	1.020585	0.119965	0.263636
N129	N	0.528964	-0.222793	-0.383583
N130	N	1.028964	0.277207	0.116417
N131	N	0.576069	-0.174597	-0.394089
N132	N	1.076069	0.325403	0.105911
H133	H	0.559518	-0.127070	-0.404999
H134	H	1.059518	0.372930	0.095001
N135	N	1.147670	-0.758376	-0.280106
N136	N	1.647670	-0.258376	0.219894
N137	N	1.140336	-0.747445	-0.214826
N138	N	1.640336	-0.247445	0.285174
H139	H	1.172094	-0.772550	-0.183523
H140	H	1.672094	-0.272550	0.316477
H141	H	1.014056	-0.294850	-0.838973
H142	H	1.514056	0.205150	-0.338973
N143	N	0.998817	-0.947912	-0.427023
N144	N	1.498817	-0.447912	0.072977
N145	N	0.956716	-0.982445	-0.468558
N146	N	1.456716	-0.482445	0.031442
H147	H	0.924962	-0.957337	-0.499862
H148	H	1.424962	-0.457337	0.000138
N149	N	0.970073	-0.251234	-1.089451
N150	N	1.470073	0.248766	-0.589451
N151	N	0.972924	-0.254021	-1.155060
N152	N	1.472924	0.245979	-0.655060
H153	H	0.941238	-0.222678	-1.180191
H154	H	1.441238	0.277322	-0.680191
N155	N	0.632848	-0.323856	-0.484354
N156	N	1.132848	0.176144	0.015646
N157	N	0.701655	-0.321923	-0.495242
N158	N	1.201655	0.178077	0.004758
H159	H	0.723579	-0.311121	-0.542783
H160	H	1.223579	0.188879	-0.042783
H161	H	0.527365	-0.444169	-0.443866
H162	H	1.027365	0.055831	0.056134
H163	H	1.132515	-0.411947	-0.868844
H164	H	1.632515	0.088053	-0.368844
N165	N	0.992479	-0.273588	-0.610610
N166	N	1.492479	0.226412	-0.110610
N167	N	1.018795	-0.227016	-0.567713
N168	N	1.518795	0.272984	-0.067713
H169	H	0.984811	-0.193422	-0.539818
H170	H	1.484811	0.306578	-0.039818
H171	H	1.173335	-0.948140	-0.254905
H172	H	1.673335	-0.448140	0.245095
H173	H	1.002237	-1.088429	-0.423742
H174	H	1.502237	-0.588429	0.076258
N175	N	0.625398	-0.252439	-0.252679
N176	N	1.125398	0.247561	0.247321
N177	N	0.606487	-0.256114	-0.189404
N178	N	1.106487	0.243886	0.310596
H179	H	0.625673	-0.219393	-0.152713
H180	H	1.125673	0.280607	0.347287
H181	H	0.978855	-0.624833	-0.446515
H182	H	1.478855	-0.124833	0.053485
N183	N	0.998899	-0.279897	-0.759153
N184	N	1.498899	0.220103	-0.259153
N185	N	0.956835	-0.238323	-0.724629
N186	N	1.456835	0.261677	-0.224629
H187	H	0.925134	-0.206979	-0.749743
H188	H	1.425134	0.293021	-0.249743
H189	H	0.613293	-0.470624	-0.326551
H190	H	1.113293	0.029376	0.173449
H191	H	0.973150	-0.758152	-0.452221
H192	H	1.473150	-0.258152	0.047779
H193	H	1.144250	-0.617864	-0.283389
H194	H	1.644250	-0.117864	0.216611
H195	H	1.144353	-0.423548	-1.089175
H196	H	1.644353	0.076452	-0.589175
H197	H	0.973385	-0.254579	-0.948915
H198	H	1.473385	0.245421	-0.448915
N199	N	1.004152	-0.876089	-0.421685
N200	N	1.504152	-0.376089	0.078315
N201	N	0.964851	-0.844996	-0.460409
N202	N	1.464851	-0.344996	0.039591
H203	H	0.930819	-0.872883	-0.493967
H204	H	1.430819	-0.372883	0.006033
N205	N	1.142313	-0.830208	-0.285428
N206	N	1.642313	-0.330208	0.214572
N207	N	1.181602	-0.861301	-0.246691
N208	N	1.681602	-0.361301	0.253309
H209	H	1.215616	-0.833413	-0.213117
H210	H	1.715616	-0.333413	0.286883
N211	N	1.176741	-1.088682	-0.251622
N212	N	1.676741	-0.588682	0.248378
N213	N	1.173926	-1.154292	-0.254434
N214	N	1.673926	-0.654292	0.245566
H215	H	1.205670	-1.179419	-0.223138
H216	H	1.705670	-0.679419	0.276862
N217	N	1.147669	-0.426905	-0.948660
N218	N	1.647669	0.073095	-0.448660
N219	N	1.189734	-0.468475	-0.983187
N220	N	1.689734	0.031525	-0.483187
H221	H	1.221428	-0.499829	-0.958076
H222	H	1.721428	0.000171	-0.458076
H223	H	1.173186	-0.452210	-0.758900
H224	H	1.673186	0.047790	-0.258900
H225	H	1.167416	-0.446546	-0.625584
H226	H	1.667416	0.053454	-0.125584
