data_functionalizedCrystal
_audit_creation_method	'MofGen! by Chris Wilmer'
_symmetry_space_group_name_H-M	'P1'
_symmetry_Int_Tables_number	1
_symmetry_cell_setting	triclinic
loop_
_symmetry_equiv_pos_as_xyz
  x,y,z
_cell_length_a	11.792241
_cell_length_b	13.101039
_cell_length_c	11.792241
_cell_angle_alpha	93.385153
_cell_angle_beta	95.806584
_cell_angle_gamma	93.376518
loop_
_atom_site_label
_atom_site_type_symbol
_atom_site_fract_x
_atom_site_fract_y
_atom_site_fract_z
O1	O	1.513107	0.085115	-0.149349
O2	O	1.846440	0.418448	0.183984
O3	O	2.179774	0.751782	0.517318
O4	O	1.182768	0.085139	-0.165380
O5	O	1.516101	0.418472	0.167953
O6	O	1.849434	0.751806	0.501286
O7	O	1.355953	0.085119	0.007805
O8	O	1.689286	0.418453	0.341139
O9	O	2.022620	0.751786	0.674472
O10	O	1.339921	0.085135	-0.322535
O11	O	1.673255	0.418468	0.010799
O12	O	2.006588	0.751801	0.344132
O13	O	1.343527	-0.085309	-0.004641
O14	O	1.676861	0.248024	0.328692
O15	O	2.010194	0.581357	0.662025
O16	O	1.170342	-0.085289	-0.177827
O17	O	1.503675	0.248044	0.155507
O18	O	1.837008	0.581377	0.488840
O19	O	1.500681	-0.085313	-0.161796
O20	O	1.834014	0.248020	0.171538
O21	O	2.167348	0.581353	0.504871
Zn22	Zn	1.333539	-0.112361	-0.171787
Zn23	Zn	1.666872	0.220973	0.161546
Zn24	Zn	2.000205	0.554306	0.494879
Zn25	Zn	1.349910	0.112186	-0.155388
Zn26	Zn	1.683243	0.445520	0.177945
Zn27	Zn	2.016577	0.778853	0.511278
O28	O	1.327496	-0.085294	-0.334981
O29	O	1.660829	0.248040	-0.001648
O30	O	1.994162	0.581373	0.331686
C31	C	1.134264	-0.000072	-0.170596
C32	C	1.467597	0.333261	0.162737
C33	C	1.800931	0.666594	0.496070
C34	C	1.008251	-0.000063	-0.167581
C35	C	1.341584	0.333270	0.165752
C36	C	1.674918	0.666603	0.499086
C37	C	0.777537	-0.000093	-0.162040
C38	C	1.110870	0.333240	0.171293
C39	C	1.444203	0.666574	0.504626
C40	C	0.905923	-0.000077	-0.165119
C41	C	1.239256	0.333257	0.168214
C42	C	1.572590	0.666590	0.501548
N43	N	1.322374	-0.265608	-0.182978
N44	N	1.655707	0.067725	0.150355
N45	N	1.989040	0.401059	0.483688
C46	C	1.307184	-0.474649	-0.198215
C47	C	1.640517	-0.141315	0.135118
C48	C	1.973850	0.192018	0.468452
C49	C	1.376270	-0.525532	-0.128956
C50	C	1.709604	-0.192199	0.204378
C51	C	2.042937	0.141134	0.537711
C52	C	1.367818	-0.641850	-0.137433
C53	C	1.701152	-0.308516	0.195900
C54	C	2.034485	0.024817	0.529233
C55	C	1.315634	-0.358321	-0.189739
C56	C	1.648968	-0.024987	0.143595
C57	C	1.982301	0.308346	0.476928
C58	C	1.549185	-0.000100	-0.156579
C59	C	1.882518	0.333233	0.176754
C60	C	2.215852	0.666567	0.510087
C61	C	1.675198	-0.000102	-0.159594
C62	C	2.008532	0.333231	0.173739
C63	C	2.341865	0.666565	0.507073
N64	N	1.361084	0.265433	-0.144188
N65	N	1.694417	0.598767	0.189145
N66	N	2.027750	0.932100	0.522478
C67	C	1.348733	-0.000095	0.043873
C68	C	1.682066	0.333239	0.377206
C69	C	2.015400	0.666572	0.710540
C70	C	1.345719	-0.000093	0.169887
C71	C	1.679052	0.333240	0.503220
C72	C	2.012385	0.666573	0.836553
C73	C	1.334716	-0.000078	-0.371049
C74	C	1.668049	0.333256	-0.037715
C75	C	2.001382	0.666589	0.295618
C76	C	1.337730	-0.000072	-0.497062
C77	C	1.671064	0.333261	-0.163729
C78	C	2.004397	0.666595	0.169605
C79	C	1.340177	-0.000076	0.400600
C80	C	1.673510	0.333258	0.733934
C81	C	2.006844	0.666591	1.067267
C82	C	1.343256	-0.000085	0.272214
C83	C	1.676590	0.333248	0.605548
C84	C	2.009923	0.666581	0.938881
H85	H	1.241694	-0.518438	-0.263873
H86	H	1.575028	-0.185105	0.069461
H87	H	1.908361	0.148228	0.402794
H88	H	1.441765	-0.481737	-0.063295
H89	H	1.775099	-0.148404	0.270038
H90	H	2.108432	0.184929	0.603372
