data_functionalizedCrystal
_audit_creation_method	'MofGen! by Chris Wilmer'
_symmetry_space_group_name_H-M	'P1'
_symmetry_Int_Tables_number	1
_symmetry_cell_setting	triclinic
loop_
_symmetry_equiv_pos_as_xyz
  x,y,z
_cell_length_a	19.805407
_cell_length_b	12.827892
_cell_length_c	19.805399
_cell_angle_alpha	89.977471
_cell_angle_beta	90.019197
_cell_angle_gamma	89.988458
loop_
_atom_site_label
_atom_site_type_symbol
_atom_site_fract_x
_atom_site_fract_y
_atom_site_fract_z
Zn1	Zn	-1.034787	-0.416165	-0.382737
Zn2	Zn	-1.034724	-0.590920	-0.269558
Zn3	Zn	-0.921602	-0.416182	-0.269562
Zn4	Zn	-0.921587	-0.590853	-0.382706
O5	O	-0.978175	-0.503530	-0.326141
O6	O	-1.129496	-0.439367	-0.367735
O7	O	-1.019698	-0.567776	-0.174842
O8	O	-0.936649	-0.269943	-0.284589
O9	O	-1.129449	-0.567759	-0.284583
O10	O	-1.019806	-0.269931	-0.367738
O11	O	-0.936588	-0.439396	-0.174845
O12	O	-0.826884	-0.439331	-0.284559
O13	O	-0.936624	-0.567645	-0.477427
O14	O	-0.826873	-0.567661	-0.367686
O15	O	-1.019792	-0.439302	-0.477449
O16	O	-1.019684	-0.737147	-0.284553
O17	O	-0.936563	-0.737098	-0.367682
C18	C	-0.802319	-0.503491	-0.326120
C19	C	-0.727087	-0.503500	-0.326127
C20	C	-0.691768	-0.436764	-0.369489
C21	C	-0.621080	-0.436767	-0.369490
C22	C	-0.585712	-0.503513	-0.326132
C23	C	-0.621036	-0.570252	-0.282765
C24	C	-0.691723	-0.570243	-0.282761
C25	C	-0.335963	-0.570290	-0.282779
C26	C	-0.265271	-0.570297	-0.282787
C27	C	-0.265319	-0.436814	-0.369508
C28	C	-0.336006	-0.436805	-0.369504
C29	C	-0.371324	-0.503540	-0.326135
C30	C	-0.447973	-0.503534	-0.326134
C31	C	-0.509065	-0.503525	-0.326136
C32	C	-0.978133	-0.775040	-0.326129
C33	C	-0.978177	-0.891193	-0.326146
C34	C	-0.978213	-0.503464	-0.502683
C35	C	-0.978229	-0.503436	-0.577915
C36	C	-0.154718	-0.503561	-0.326156
C37	C	-0.229950	-0.503554	-0.326147
C38	C	-0.937082	-1.063032	-0.367268
C39	C	-0.937036	-0.942981	-0.367251
C40	C	-0.978236	-0.230960	-0.326167
C41	C	-0.978262	-0.114806	-0.326179
C42	C	-1.021536	-0.436605	-0.613273
C43	C	-1.021543	-0.436574	-0.683961
C44	C	-0.978246	-0.503381	-0.719291
C45	C	-0.934935	-0.570215	-0.683929
C46	C	-0.934925	-0.570240	-0.613242
C47	C	-0.934973	-0.570118	-0.969003
C48	C	-0.934988	-0.570091	-1.039695
C49	C	-1.021591	-0.436453	-1.039722
C50	C	-1.021581	-0.436477	-0.969034
C51	C	-0.978268	-0.503307	-0.933679
C52	C	-0.978260	-0.503337	-0.857030
C53	C	-0.978257	-0.503357	-0.795938
C54	C	-0.978176	-0.503520	-0.150285
C55	C	-0.978291	-0.503253	-0.075053
H56	H	-0.592326	-0.382425	-0.404801
H57	H	-0.364710	-0.624631	-0.247466
H58	H	-0.901864	-1.107582	-0.402461
H59	H	-1.013486	-1.070257	-0.290991
H60	H	-0.899680	-0.624607	-0.712701
H61	H	-0.236476	-0.624652	-0.247477
O62	O	-0.582894	-0.642243	-0.235996
H63	H	-0.527807	-0.631045	-0.243287
O64	O	-1.024879	-0.950159	-0.279543
H65	H	-1.055004	-0.893954	-0.249427
H66	H	-0.901778	-0.898458	-0.402427
H67	H	-0.899654	-0.624650	-0.584455
H68	H	-1.056795	-0.382206	-0.584512
O69	O	-0.374155	-0.364806	-0.416262
H70	H	-0.337719	-0.318389	-0.446409
O71	O	-1.068255	-0.364499	-0.722099
H72	H	-1.098367	-0.318060	-0.685656
H73	H	-0.720560	-0.382414	-0.404798
H74	H	-1.056856	-0.382033	-1.068517
H75	H	-1.056840	-0.382079	-0.940272
H76	H	-0.899728	-0.624495	-1.068459
H77	H	-0.720479	-0.624586	-0.247451
H78	H	-0.236555	-0.382472	-0.404818
O79	O	-0.888225	-0.642141	-0.930872
H80	H	-0.858113	-0.688577	-0.967317
