data_functionalizedCrystal
_audit_creation_method	'MofGen! by Chris Wilmer'
_symmetry_space_group_name_H-M	'P1'
_symmetry_Int_Tables_number	1
_symmetry_cell_setting	triclinic
loop_
_symmetry_equiv_pos_as_xyz
  x,y,z
_cell_length_a	14.971486
_cell_length_b	15.995350
_cell_length_c	14.048226
_cell_angle_alpha	89.995798
_cell_angle_beta	89.998499
_cell_angle_gamma	83.553252
loop_
_atom_site_label
_atom_site_type_symbol
_atom_site_fract_x
_atom_site_fract_y
_atom_site_fract_z
O1	O	1.186822	0.109116	-0.079046
O2	O	0.926407	0.122183	-0.079072
O3	O	1.063733	-0.006231	-0.079057
O4	O	1.049496	0.237530	-0.079061
O5	O	1.063717	-0.006238	0.079264
O6	O	0.926391	0.122176	0.079250
O7	O	1.186806	0.109109	0.079275
Zn8	Zn	1.056596	0.115641	0.104399
Zn9	Zn	1.056617	0.115651	-0.104196
O10	O	1.049480	0.237523	0.079261
C11	C	0.893075	0.121595	0.000086
C12	C	0.793780	0.119844	0.000076
C13	C	0.736468	0.195284	0.000076
C14	C	0.643171	0.193633	0.000090
C15	C	0.607187	0.116542	0.000098
C16	C	0.664505	0.041097	0.000100
C17	C	0.757801	0.042748	0.000093
C18	C	0.470047	0.037660	0.000113
C19	C	0.376745	0.036008	0.000119
C20	C	0.355417	0.188545	0.000111
C21	C	0.448712	0.190197	0.000104
C22	C	0.506025	0.114751	0.000104
C23	C	1.063137	-0.037430	0.000101
C24	C	1.061372	-0.130382	0.000096
C25	C	1.055035	-0.468136	0.000098
C26	C	0.957234	-0.420800	-0.000266
C27	C	0.958999	-0.324108	0.000091
C28	C	1.058178	-0.300572	0.000097
C29	C	1.106408	-0.341606	0.090509
C30	C	1.103951	-0.438244	0.090584
C31	C	1.105990	-0.438591	-0.089456
C32	C	1.105967	-0.341646	-0.090651
C33	C	1.059960	-0.205873	0.000099
C34	C	1.053256	-0.562835	0.000103
C35	C	1.220138	0.109697	0.000116
C36	C	1.319433	0.111448	0.000119
C37	C	1.050077	0.268722	0.000100
C38	C	1.051841	0.361674	0.000099
N39	N	1.056587	0.115634	0.246760
N40	N	1.056633	0.115652	-0.246557
C41	C	1.117414	0.058795	0.296584
C42	C	1.117421	0.058795	0.396242
C43	C	1.056603	0.115637	0.446073
C44	C	0.995769	0.172478	0.396242
C45	C	0.995760	0.172474	0.296586
C46	C	0.995795	0.172484	0.603956
C47	C	0.995806	0.172490	0.703619
C48	C	1.117456	0.058805	0.703612
C49	C	1.117446	0.058801	0.603956
C50	C	1.056614	0.115643	0.554132
H51	H	0.921086	-0.295721	-0.064720
O52	O	0.930169	0.233790	0.550229
H53	H	0.886690	0.198467	0.504852
O54	O	1.202922	-0.322791	0.094979
H55	H	1.248188	-0.382702	0.093992
H56	H	1.166973	0.012520	0.563384
O57	O	0.293607	0.269922	0.000125
H58	H	0.250577	0.272820	-0.064394
O59	O	0.905458	-0.445394	-0.086148
H60	H	0.836730	-0.411193	-0.084801
O61	O	1.201776	-0.321211	-0.097876
H62	H	1.210571	-0.286909	-0.165311
O63	O	0.905670	-0.446791	0.085134
H64	H	0.949396	-0.493275	0.127839
O65	O	0.531869	-0.043710	0.000116
H66	H	0.519082	-0.080592	-0.064416
H67	H	1.178098	-0.470280	-0.090060
H68	H	1.166943	0.012511	0.256018
H69	H	1.166950	0.012513	0.436809
H70	H	1.166988	0.012522	0.744185
O71	O	0.337927	-0.047137	0.000139
H72	H	0.393451	-0.099322	0.000155
O73	O	0.908445	-0.287242	0.086087
H74	H	0.882647	-0.338489	0.127586
H75	H	1.068768	-0.456584	0.158165
O76	O	0.930210	0.233791	0.757376
H77	H	0.886766	0.198466	0.802799
O78	O	0.625700	-0.042055	0.000116
H79	H	0.583709	-0.046461	-0.064414
O80	O	0.487531	0.273342	0.000091
H81	H	0.529536	0.277730	0.064613
O82	O	1.199055	-0.480878	0.096053
H83	H	1.237719	-0.462321	0.033579
H84	H	0.804464	-0.018683	0.000092
H85	H	0.765759	0.258060	0.000070
O86	O	1.062021	-0.304068	0.179631
H87	H	1.111983	-0.273959	0.222315
H88	H	1.074021	-0.459160	-0.157983
O89	O	1.059332	-0.305529	-0.179258
H90	H	1.002357	-0.258516	-0.158762
O91	O	0.930180	0.233793	0.449990
H92	H	0.887878	0.273313	0.398598
O93	O	0.581353	0.274999	0.000091
H94	H	0.622049	0.328882	0.000074
O95	O	0.930159	0.233781	0.242839
H96	H	0.887876	0.273315	0.294231
