data_functionalizedCrystal
_audit_creation_method	'MofGen! by Chris Wilmer'
_symmetry_space_group_name_H-M	'P1'
_symmetry_Int_Tables_number	1
_symmetry_cell_setting	triclinic
loop_
_symmetry_equiv_pos_as_xyz
  x,y,z
_cell_length_a	25.639242
_cell_length_b	25.639239
_cell_length_c	10.686551
_cell_angle_alpha	85.590021
_cell_angle_beta	85.594372
_cell_angle_gamma	90.034185
loop_
_atom_site_label
_atom_site_type_symbol
_atom_site_fract_x
_atom_site_fract_y
_atom_site_fract_z
Zn1	Zn	0.821978	-0.185496	-0.713753
Zn2	Zn	0.815173	-0.279653	-0.502724
Zn3	Zn	0.727826	-0.192226	-0.502727
Zn4	Zn	0.734495	-0.272898	-0.713643
O5	O	0.774868	-0.232568	-0.608212
O6	O	0.894242	-0.197997	-0.685804
O7	O	0.797947	-0.273699	-0.326139
O8	O	0.740373	-0.118166	-0.530768
O9	O	0.889242	-0.267174	-0.530762
O10	O	0.809546	-0.113222	-0.685808
O11	O	0.733774	-0.209466	-0.326142
O12	O	0.655544	-0.202916	-0.530661
O13	O	0.751738	-0.255661	-0.890242
O14	O	0.660444	-0.262186	-0.685620
O15	O	0.816012	-0.191447	-0.890323
O16	O	0.804413	-0.351924	-0.530655
O17	O	0.745140	-0.346961	-0.685616
C18	C	0.639023	-0.232549	-0.608130
C19	C	0.580909	-0.232552	-0.608124
C20	C	0.774777	-0.368413	-0.608151
C21	C	0.774787	-0.426526	-0.608167
C22	C	0.327163	-0.201646	-0.527664
C23	C	0.381766	-0.201642	-0.527648
O24	O	0.407830	-0.175336	-0.459167
N25	N	0.411637	-0.232557	-0.608188
C26	C	0.386901	-0.263474	-0.688758
O27	O	0.417322	-0.289768	-0.757262
C28	C	0.332298	-0.263475	-0.688779
C29	C	0.302430	-0.232562	-0.608225
C30	C	0.297295	-0.170736	-0.447118
C31	C	0.242695	-0.170741	-0.447133
C32	C	0.217962	-0.201657	-0.527694
C33	C	0.247830	-0.232567	-0.608240
C34	C	0.307563	-0.294389	-0.769354
C35	C	0.252957	-0.294387	-0.769370
C36	C	0.223089	-0.263474	-0.688816
C37	C	0.168498	-0.263488	-0.688816
N38	N	0.138627	-0.232574	-0.608276
C39	C	0.163360	-0.201658	-0.527715
C40	C	0.501570	-0.263468	-0.688708
C41	C	0.556171	-0.263470	-0.688681
C42	C	0.551033	-0.201638	-0.527573
C43	C	0.496430	-0.201639	-0.527595
C44	C	0.471700	-0.232553	-0.608169
C45	C	0.048696	-0.201671	-0.527751
C46	C	-0.005909	-0.201681	-0.527769
C47	C	-0.000766	-0.263511	-0.688882
C48	C	0.053834	-0.263504	-0.688859
C49	C	0.078563	-0.232580	-0.608290
O50	O	0.142398	-0.289779	-0.757265
O51	O	0.132933	-0.175362	-0.459234
C52	C	0.743997	-0.675148	-0.688874
C53	C	0.743977	-0.620544	-0.688860
O54	O	0.717711	-0.590121	-0.757438
N55	N	0.774855	-0.595798	-0.608233
C56	C	0.805758	-0.625659	-0.527625
O57	O	0.832020	-0.599597	-0.459045
C58	C	0.805780	-0.680262	-0.527647
C59	C	0.774897	-0.705005	-0.608270
C60	C	0.713116	-0.699891	-0.769492
C61	C	0.713136	-0.754491	-0.769504
C62	C	0.744035	-0.784348	-0.688900
C63	C	0.774916	-0.759605	-0.608282
C64	C	0.836686	-0.710121	-0.447046
C65	C	0.836706	-0.764727	-0.447075
C66	C	0.805823	-0.789470	-0.527698
C67	C	0.805835	-0.844062	-0.527690
N68	N	0.774957	-0.868807	-0.608317
C69	C	0.744058	-0.838950	-0.688922
C70	C	0.805709	-0.510990	-0.527586
C71	C	0.805685	-0.456388	-0.527557
C72	C	0.743904	-0.451277	-0.688794
C73	C	0.743927	-0.505879	-0.688816
C74	C	0.774832	-0.535735	-0.608213
C75	C	0.744100	-0.953615	-0.688941
C76	C	0.744120	-1.008220	-0.688943
C77	C	0.805902	-1.013327	-0.527711
C78	C	0.805880	-0.958726	-0.527704
C79	C	0.774978	-0.928871	-0.608330
O80	O	0.832089	-0.874518	-0.459151
O81	O	0.717805	-0.865019	-0.757502
C82	C	0.911244	-0.232588	-0.608295
C83	C	0.969359	-0.232597	-0.608330
C84	C	0.785378	-0.222050	-0.937350
C85	C	0.789857	-0.217568	-1.077609
C86	C	0.774975	-0.096192	-0.608301
C87	C	0.775020	-0.038077	-0.608338
C88	C	0.764429	-0.243008	-0.280354
C89	C	0.760052	-0.247343	-0.140096
H90	H	-0.030225	-0.176507	-0.462169
H91	H	0.481437	-0.288647	-0.754319
H92	H	0.818805	-0.188648	-1.131419
Cl93	Cl	0.844505	-0.425290	-0.426183
Cl94	Cl	0.221870	-0.333252	-0.870672
H95	H	0.068824	-0.176487	-0.462150
H96	H	0.218381	-0.145568	-0.381538
Cl97	Cl	0.328377	-0.131864	-0.345829
H98	H	0.472115	-0.176465	-0.462005
Cl99	Cl	0.715365	-0.291997	-1.057030
H100	H	0.861875	-0.789034	-0.381441
H101	H	0.831023	-0.938581	-0.462041
H102	H	0.831058	-1.037646	-0.462081
H103	H	0.687986	-0.774631	-0.835154
Cl104	Cl	0.593712	-0.302342	-0.789935
H105	H	0.718745	-0.426957	-0.754429
Cl106	Cl	0.582135	-0.162771	-0.426297
H107	H	0.331873	-0.319561	-0.834949
Cl108	Cl	0.705101	-0.536979	-0.790176
H109	H	0.078154	-0.288680	-0.754443
H110	H	-0.020913	-0.288684	-0.754468
Cl111	Cl	0.705293	-1.039322	-0.790306
H112	H	0.718937	-0.929313	-0.754595
H113	H	0.687954	-0.675585	-0.835136
H114	H	0.861835	-0.689983	-0.381396
Cl115	Cl	0.844561	-0.548518	-0.426235
