data_functionalizedCrystal
_audit_creation_method	'MofGen! by Chris Wilmer'
_symmetry_space_group_name_H-M	'P1'
_symmetry_Int_Tables_number	1
_symmetry_cell_setting	triclinic
loop_
_symmetry_equiv_pos_as_xyz
  x,y,z
_cell_length_a	25.639242
_cell_length_b	25.639240
_cell_length_c	17.077396
_cell_angle_alpha	90.038257
_cell_angle_beta	90.020548
_cell_angle_gamma	90.025061
loop_
_atom_site_label
_atom_site_type_symbol
_atom_site_fract_x
_atom_site_fract_y
_atom_site_fract_z
Zn1	Zn	0.799279	-0.208258	0.443811
Zn2	Zn	1.132612	0.125075	0.777145
Zn3	Zn	1.465945	0.458409	1.110478
Zn4	Zn	0.799202	-0.295696	0.312523
Zn5	Zn	1.132535	0.037638	0.645856
Zn6	Zn	1.465868	0.370971	0.979189
Zn7	Zn	0.711845	-0.208264	0.312557
Zn8	Zn	1.045179	0.125069	0.645890
Zn9	Zn	1.378512	0.458402	0.979223
Zn10	Zn	0.711809	-0.295653	0.443744
Zn11	Zn	1.045142	0.037681	0.777077
Zn12	Zn	1.378476	0.371014	1.110411
O13	O	0.755534	-0.251968	0.378159
O14	O	1.088867	0.081366	0.711492
O15	O	1.422200	0.414699	1.044825
O16	O	0.872434	-0.219872	0.426409
O17	O	1.205767	0.113461	0.759743
O18	O	1.539100	0.446794	1.093076
O19	O	0.787597	-0.284118	0.202680
O20	O	1.120930	0.049215	0.536014
O21	O	1.454263	0.382548	0.869347
O22	O	0.723491	-0.135098	0.330010
O23	O	1.056824	0.198235	0.663344
O24	O	1.390158	0.531568	0.996677
O25	O	0.872377	-0.284112	0.329952
O26	O	1.205710	0.049221	0.663286
O27	O	1.539044	0.382554	0.996619
O28	O	0.787728	-0.135094	0.426442
O29	O	1.121061	0.198240	0.759776
O30	O	1.454394	0.531573	1.093109
O31	O	0.723416	-0.219883	0.202705
O32	O	1.056750	0.113450	0.536039
O33	O	1.390083	0.446784	0.869372
O34	O	0.638675	-0.219841	0.329945
O35	O	0.972009	0.113492	0.663278
O36	O	1.305342	0.446825	0.996612
O37	O	0.723429	-0.284039	0.553600
O38	O	1.056762	0.049294	0.886933
O39	O	1.390096	0.382628	1.220267
O40	O	0.638649	-0.284045	0.426328
O41	O	0.971982	0.049288	0.759661
O42	O	1.305315	0.382622	1.092994
O43	O	0.787693	-0.219831	0.553649
O44	O	1.121026	0.113503	0.886983
O45	O	1.454359	0.446836	1.220316
O46	O	0.787561	-0.368855	0.329887
O47	O	1.120895	-0.035522	0.663221
O48	O	1.454228	0.297811	0.996554
O49	O	0.723354	-0.368824	0.426295
O50	O	1.056688	-0.035490	0.759628
O51	O	1.390021	0.297843	1.092962
C52	C	0.619691	-0.251939	0.378133
C53	C	0.953024	0.081394	0.711467
C54	C	1.286358	0.414727	1.044800
C55	C	0.561577	-0.251940	0.378141
C56	C	0.894910	0.081393	0.711474
C57	C	1.228244	0.414727	1.044808
C58	C	0.310421	-0.218577	0.428475
C59	C	0.643754	0.114756	0.761809
C60	C	0.977088	0.448089	1.095142
C61	C	0.365025	-0.218572	0.428471
C62	C	0.698359	0.114761	0.761804
C63	C	1.031692	0.448094	1.095138
O64	O	0.393294	-0.190183	0.471262
O65	O	0.726627	0.143150	0.804595
O66	O	1.059961	0.476483	1.137928
N67	N	0.392303	-0.251962	0.378168
N68	N	0.725636	0.081372	0.711501
N69	N	1.058970	0.414705	1.044834
C70	C	0.364974	-0.285362	0.327871
C71	C	0.698307	0.047971	0.661204
C72	C	1.031640	0.381304	0.994538
O73	O	0.393190	-0.313763	0.285084
O74	O	0.726523	0.019571	0.618418
O75	O	1.059856	0.352904	0.951751
C76	C	0.310370	-0.285370	0.327880
C77	C	0.643704	0.047964	0.661214
C78	C	0.977037	0.381297	0.994547
C79	C	0.283096	-0.251974	0.378181
C80	C	0.616429	0.081359	0.711515
C81	C	0.949762	0.414692	1.044848
C82	C	0.283146	-0.185185	0.478773
C83	C	0.616479	0.148148	0.812106
C84	C	0.949813	0.481482	1.145440
C85	C	0.228546	-0.185190	0.478776
C86	C	0.561879	0.148144	0.812110
C87	C	0.895212	0.481477	1.145443
C88	C	0.201220	-0.218587	0.428482
C89	C	0.534553	0.114747	0.761815
C90	C	0.867887	0.448080	1.095149
C91	C	0.228495	-0.251979	0.378184
C92	C	0.561828	0.081354	0.711518
C93	C	0.895162	0.414688	1.044851
C94	C	0.283042	-0.318772	0.277588
C95	C	0.616375	0.014561	0.610922
C96	C	0.949709	0.347894	0.944255
C97	C	0.228435	-0.318777	0.277602
C98	C	0.561768	0.014556	0.610935
C99	C	0.895102	0.347889	0.944269
C100	C	0.201160	-0.285382	0.327903
C101	C	0.534493	0.047951	0.661236
C102	C	0.867827	0.381285	0.994570
C103	C	0.146569	-0.285380	0.327893
C104	C	0.479902	0.047953	0.661227
C105	C	0.813236	0.381286	0.994560
N106	N	0.119291	-0.251991	0.378197
N107	N	0.452624	0.081342	0.711530
N108	N	0.785958	0.414676	1.044863
C109	C	0.146617	-0.218594	0.428491
C110	C	0.479950	0.114739	0.761824
C111	C	0.813283	0.448073	1.095158
C112	C	0.479644	-0.285345	0.327857
C113	C	0.812978	0.047989	0.661190
C114	C	1.146311	0.381322	0.994524
C115	C	0.534247	-0.285335	0.327843
C116	C	0.867580	0.047998	0.661177
C117	C	1.200913	0.381331	0.994510
C118	C	0.534295	-0.218546	0.428445
C119	C	0.867628	0.114788	0.761778
C120	C	1.200961	0.448121	1.095111
C121	C	0.479691	-0.218553	0.428454
C122	C	0.813025	0.114780	0.761787
C123	C	1.146358	0.448114	1.095120
C124	C	0.452367	-0.251955	0.378160
C125	C	0.785700	0.081378	0.711494
C126	C	1.119033	0.414711	1.044827
C127	C	0.031952	-0.218606	0.428493
C128	C	0.365285	0.114728	0.761827
C129	C	0.698618	0.448061	1.095160
C130	C	-0.022654	-0.218612	0.428490
C131	C	0.310680	0.114721	0.761823
C132	C	0.644013	0.448055	1.095157
C133	C	-0.022697	-0.285403	0.327892
C134	C	0.310636	0.047930	0.661225
C135	C	0.643970	0.381264	0.994559
C136	C	0.031904	-0.285395	0.327892
C137	C	0.365237	0.047938	0.661226
C138	C	0.698570	0.381271	0.994559
C139	C	0.059227	-0.251995	0.378199
C140	C	0.392560	0.081338	0.711533
C141	C	0.725893	0.414672	1.044866
O142	O	0.118266	-0.313756	0.285127
O143	O	0.451599	0.019577	0.618460
O144	O	0.784932	0.352910	0.951794
O145	O	0.118394	-0.190203	0.471278
O146	O	0.451728	0.143130	0.804611
O147	O	0.785061	0.476463	1.137945
C148	C	0.755460	-0.387810	0.378097
C149	C	1.088793	-0.054477	0.711431
C150	C	1.422126	0.278856	1.044764
C151	C	0.755476	-0.445924	0.378097
C152	C	1.088809	-0.112591	0.711430
C153	C	1.422143	0.220742	1.044764
C154	C	0.788998	-0.806247	0.428461
C155	C	1.122332	-0.472913	0.761795
C156	C	1.455665	-0.139580	1.095128
C157	C	0.789014	-0.860851	0.428477
C158	C	1.122347	-0.527517	0.761811
C159	C	1.455680	-0.194184	1.095144
O160	O	0.817428	-0.889053	0.471236
O161	O	1.150761	-0.555719	0.804569
O162	O	1.484094	-0.222386	1.137902
N163	N	0.755606	-0.888207	0.378235
N164	N	1.088940	-0.554873	0.711568
N165	N	1.422273	-0.221540	1.044901
C166	C	0.722177	-0.860956	0.327978
C167	C	1.055511	-0.527622	0.661311
C168	C	1.388844	-0.194289	0.994645
O169	O	0.693763	-0.889238	0.285245
O170	O	1.027096	-0.555905	0.618578
O171	O	1.360429	-0.222571	0.951911
C172	C	0.722160	-0.806352	0.327967
C173	C	1.055493	-0.473019	0.661300
C174	C	1.388826	-0.139686	0.994633
C175	C	0.755573	-0.778999	0.378207
C176	C	1.088906	-0.445666	0.711541
C177	C	1.422240	-0.112332	1.044874
C178	C	0.822409	-0.778893	0.478698
C179	C	1.155742	-0.445560	0.812032
C180	C	1.489075	-0.112227	1.145365
C181	C	0.822394	-0.724293	0.478681
C182	C	1.155727	-0.390959	0.812015
C183	C	1.489060	-0.057626	1.145348
C184	C	0.788969	-0.697045	0.428427
C185	C	1.122302	-0.363712	0.761760
C186	C	1.455635	-0.030379	1.095094
C187	C	0.755558	-0.724399	0.378190
C188	C	1.088892	-0.391065	0.711523
C189	C	1.422225	-0.057732	1.044857
C190	C	0.688728	-0.779102	0.277715
C191	C	1.022062	-0.445769	0.611048
C192	C	1.355395	-0.112435	0.944381
C193	C	0.688713	-0.724495	0.277708
C194	C	1.022047	-0.391162	0.611041
C195	C	1.355380	-0.057828	0.944375
C196	C	0.722127	-0.697142	0.327949
C197	C	1.055460	-0.363809	0.661282
C198	C	1.388794	-0.030475	0.994615
C199	C	0.722118	-0.642551	0.327919
C200	C	1.055451	-0.309217	0.661252
C201	C	1.388785	0.024116	0.994585
N202	N	0.755526	-0.615195	0.378161
N203	N	1.088859	-0.281861	0.711495
N204	N	1.422192	0.051472	1.044828
C205	C	0.788951	-0.642442	0.428416
C206	C	1.122284	-0.309109	0.761749
C207	C	1.455618	0.024225	1.095082
C208	C	0.722216	-0.975626	0.328007
C209	C	1.055550	-0.642293	0.661340
C210	C	1.388883	-0.308960	0.994674
C211	C	0.722236	-1.030229	0.328014
C212	C	1.055570	-0.696895	0.661347
C213	C	1.388903	-0.363562	0.994680
C214	C	0.789072	-1.030120	0.428514
C215	C	1.122405	-0.696787	0.761848
C216	C	1.455739	-0.363453	1.095181
C217	C	0.789054	-0.975517	0.428503
C218	C	1.122388	-0.642183	0.761836
C219	C	1.455721	-0.308850	1.095170
C220	C	0.755624	-0.948270	0.378250
C221	C	1.088957	-0.614937	0.711583
C222	C	1.422291	-0.281604	1.044916
C223	C	0.788918	-0.527777	0.428375
C224	C	1.122251	-0.194444	0.761709
C225	C	1.455584	0.138890	1.095042
C226	C	0.788901	-0.473172	0.428351
C227	C	1.122235	-0.139838	0.761685
C228	C	1.455568	0.193495	1.095018
C229	C	0.722064	-0.473285	0.327854
C230	C	1.055397	-0.139952	0.661187
C231	C	1.388730	0.193382	0.994521
C232	C	0.722082	-0.527886	0.327875
C233	C	1.055415	-0.194552	0.661208
C234	C	1.388748	0.138781	0.994541
C235	C	0.755510	-0.555130	0.378142
C236	C	1.088844	-0.221797	0.711475
C237	C	1.422177	0.111536	1.044808
O238	O	0.693717	-0.614314	0.285184
O239	O	1.027050	-0.280981	0.618518
O240	O	1.360384	0.052353	0.951851
O241	O	0.817356	-0.614153	0.471149
O242	O	1.150689	-0.280820	0.804483
O243	O	1.484023	0.052514	1.137816
C244	C	0.891907	-0.251996	0.378185
C245	C	1.225240	0.081337	0.711518
C246	C	1.558573	0.414670	1.044851
C247	C	0.950021	-0.252009	0.378196
C248	C	1.283354	0.081325	0.711529
C249	C	1.616687	0.414658	1.044862
C250	C	0.755565	-0.251929	0.582903
C251	C	1.088899	0.081404	0.916236
C252	C	1.422232	0.414737	1.249570
C253	C	0.755579	-0.251913	0.670153
C254	C	1.088912	0.081421	1.003486
C255	C	1.422245	0.414754	1.336820
C256	C	0.755622	-0.115595	0.378238
C257	C	1.088955	0.217739	0.711571
C258	C	1.422289	0.551072	1.044904
C259	C	0.755660	-0.057481	0.378271
C260	C	1.088993	0.275853	0.711605
C261	C	1.422326	0.609186	1.044938
C262	C	0.755532	-0.251968	0.174211
C263	C	1.088866	0.081365	0.507544
C264	C	1.422199	0.414698	0.840878
C265	C	0.755620	-0.251838	0.086962
C266	C	1.088953	0.081496	0.420295
C267	C	1.422287	0.414829	0.753628
C268	C	0.789042	-0.218477	0.711170
C269	C	1.122375	0.114857	1.044503
C270	C	1.455709	0.448190	1.377837
C271	C	0.789048	-0.218459	0.793151
C272	C	1.122382	0.114874	1.126484
C273	C	1.455715	0.448207	1.459817
C274	C	0.755594	-0.251881	0.834112
C275	C	1.088927	0.081452	1.167446
C276	C	1.422260	0.414786	1.500779
C277	C	0.722127	-0.285319	0.793090
C278	C	1.055460	0.048015	1.126423
C279	C	1.388793	0.381348	1.459756
C280	C	0.722118	-0.285333	0.711111
C281	C	1.055451	0.048000	1.044444
C282	C	1.388785	0.381334	1.377777
C283	C	0.722148	-0.285287	0.963960
C284	C	1.055481	0.048046	1.297293
C285	C	1.388814	0.381380	1.630626
C286	C	0.722157	-0.285274	1.045944
C287	C	1.055490	0.048060	1.379278
C288	C	1.388824	0.381393	1.712611
C289	C	0.789078	-0.218414	1.046000
C290	C	1.122411	0.114920	1.379333
C291	C	1.455745	0.448253	1.712666
C292	C	0.789069	-0.218428	0.964021
C293	C	1.122403	0.114905	1.297354
C294	C	1.455736	0.448239	1.630687
C295	C	0.755603	-0.251866	0.923003
C296	C	1.088936	0.081467	1.256337
C297	C	1.422270	0.414800	1.589670
H298	H	0.457488	-0.191359	0.469412
H299	H	0.790821	0.141974	0.802746
H300	H	1.124154	0.475308	1.136079
H301	H	0.457400	-0.312544	0.286896
H302	H	0.790733	0.020789	0.620229
H303	H	1.124067	0.354123	0.953562
H304	H	0.816286	-0.191262	0.677825
H305	H	1.149620	0.142071	1.011158
H306	H	1.482953	0.475404	1.344491
F307	F	0.312220	-0.149637	0.532310
F308	F	0.645553	0.183696	0.865643
F309	F	0.978887	0.517029	1.198976
H310	H	0.816299	-0.191234	0.826543
H311	H	1.149632	0.142100	1.159876
H312	H	1.482965	0.475433	1.493210
F313	F	0.653131	-0.695501	0.224221
F314	F	0.986464	-0.362167	0.557554
F315	F	1.319797	-0.028834	0.890887
H316	H	0.305240	-0.345967	0.236628
H317	H	0.638573	-0.012633	0.569961
H318	H	0.971907	0.320700	0.903294
F319	F	0.060933	-0.320940	0.274359
F320	F	0.394266	0.012394	0.607693
F321	F	0.727599	0.345727	0.941026
H322	H	0.556553	-0.191352	0.469397
H323	H	0.889886	0.141981	0.802731
H324	H	1.223220	0.475314	1.136064
F325	F	0.686528	-0.320875	0.920308
F326	F	1.019861	0.012458	1.253641
F327	F	1.353194	0.345792	1.586975
F328	F	0.199357	-0.354333	0.224076
F329	F	0.532691	-0.020999	0.557409
F330	F	0.866024	0.312334	0.890742
F331	F	-0.051788	-0.320943	0.274366
F332	F	0.281545	0.012390	0.607699
F333	F	0.614878	0.345723	0.941033
F334	F	0.824679	-0.182860	0.920428
F335	F	1.158012	0.150473	1.253761
F336	F	1.491345	0.483807	1.587094
F337	F	0.824467	-0.444064	0.481825
F338	F	1.157800	-0.110730	0.815158
F339	F	1.491134	0.222603	1.148492
H340	H	0.816135	-0.549953	0.469313
H341	H	1.149468	-0.216620	0.802646
H342	H	1.482801	0.116713	1.135979
F343	F	0.857954	-0.695188	0.532159
F344	F	1.191288	-0.361855	0.865493
F345	F	1.524621	-0.028522	1.198826
F346	F	0.824696	-0.182826	1.089654
F347	F	1.158029	0.150507	1.422987
F348	F	1.491363	0.483841	1.756321
H349	H	0.694914	-0.312487	1.079293
H350	H	1.028247	0.020846	1.412627
H351	H	1.361581	0.354179	1.745960
F352	F	0.686519	-0.320887	0.836686
F353	F	1.019853	0.012447	1.170020
F354	F	1.353186	0.345780	1.503353
F355	F	0.857986	-0.807884	0.532194
F356	F	1.191319	-0.474551	0.865527
F357	F	1.524652	-0.141217	1.198860
H358	H	0.694864	-0.312555	0.677715
H359	H	1.028197	0.020779	1.011049
H360	H	1.361530	0.354112	1.344382
H361	H	0.816262	-0.953249	0.469413
H362	H	1.149596	-0.619916	0.802747
H363	H	1.482929	-0.286582	1.136080
H364	H	-0.044859	-0.191415	0.469451
H365	H	0.288475	0.141919	0.802784
H366	H	0.621808	0.475252	1.136118
F367	F	0.563269	-0.320870	0.274293
F368	F	0.896602	0.012463	0.607627
F369	F	1.229936	0.345796	0.940960
H370	H	0.816288	-1.052315	0.469435
H371	H	1.149621	-0.718981	0.802769
H372	H	1.482955	-0.385648	1.136102
H373	H	0.054191	-0.191408	0.469458
H374	H	0.387525	0.141926	0.802791
H375	H	0.720858	0.475259	1.136125
F376	F	0.686680	-1.059334	0.274531
F377	F	1.020013	-0.726001	0.607864
F378	F	1.353346	-0.392667	0.941198
F379	F	0.686635	-0.946633	0.274512
F380	F	1.019969	-0.613300	0.607846
F381	F	1.353302	-0.279966	0.941179
H382	H	0.661520	-0.801364	0.236803
H383	H	0.994853	-0.468030	0.570137
H384	H	1.328186	-0.134697	0.903470
H385	H	0.694851	-0.451092	0.286935
H386	H	1.028184	-0.117758	0.620269
H387	H	1.361517	0.215575	0.953602
F388	F	0.199524	-0.149649	0.532320
F389	F	0.532858	0.183684	0.865653
F390	F	0.866191	0.517018	1.198986
F391	F	0.686526	-0.556998	0.274394
F392	F	1.019859	-0.223664	0.607727
F393	F	1.353193	0.109669	0.941061
