data_functionalizedCrystal
_audit_creation_method	'MofGen! by Chris Wilmer'
_symmetry_space_group_name_H-M	'P1'
_symmetry_Int_Tables_number	1
_symmetry_cell_setting	triclinic
loop_
_symmetry_equiv_pos_as_xyz
  x,y,z
_cell_length_a	19.805407
_cell_length_b	19.805405
_cell_length_c	19.805398
_cell_angle_alpha	89.972361
_cell_angle_beta	89.988649
_cell_angle_gamma	90.024042
loop_
_atom_site_label
_atom_site_type_symbol
_atom_site_fract_x
_atom_site_fract_y
_atom_site_fract_z
Zn1	Zn	1.034691	-0.269521	-0.382692
Zn2	Zn	1.034618	-0.382711	-0.269506
Zn3	Zn	0.921518	-0.269536	-0.269520
Zn4	Zn	0.921469	-0.382668	-0.382656
O5	O	0.978074	-0.326109	-0.326094
O6	O	1.129398	-0.284547	-0.367687
O7	O	1.019605	-0.367723	-0.174791
O8	O	0.936582	-0.174817	-0.284554
O9	O	1.129344	-0.367708	-0.284529
O10	O	1.019730	-0.174806	-0.367701
O11	O	0.936512	-0.284573	-0.174802
O12	O	0.826795	-0.284531	-0.284519
O13	O	0.936498	-0.367634	-0.477378
O14	O	0.826759	-0.367649	-0.367639
O15	O	1.019682	-0.284505	-0.477404
O16	O	1.019557	-0.477422	-0.284494
O17	O	0.936427	-0.477390	-0.367625
C18	C	0.802218	-0.326088	-0.326077
C19	C	0.726986	-0.326095	-0.326086
C20	C	0.691670	-0.282870	-0.369452
C21	C	0.620982	-0.282873	-0.369455
C22	C	0.585610	-0.326106	-0.326094
C23	C	0.620931	-0.369333	-0.282724
C24	C	0.691618	-0.369325	-0.282718
C25	C	0.335858	-0.369363	-0.282744
C26	C	0.265166	-0.369369	-0.282755
C27	C	0.265222	-0.282911	-0.369481
C28	C	0.335909	-0.282904	-0.369476
C29	C	0.371223	-0.326128	-0.326103
C30	C	0.447871	-0.326123	-0.326099
C31	C	0.508963	-0.326115	-0.326100
C32	C	0.977997	-0.501965	-0.326069
C33	C	0.978026	-0.577197	-0.326081
C34	C	1.021295	-0.612477	-0.369410
C35	C	1.021320	-0.683165	-0.369422
C36	C	0.978078	-0.718572	-0.326103
C37	C	0.934804	-0.683287	-0.282772
C38	C	0.934776	-0.612600	-0.282763
C39	C	0.934912	-0.968361	-0.282807
C40	C	0.934944	-1.039053	-0.282817
C41	C	1.021456	-1.038926	-0.369466
C42	C	1.021428	-0.968238	-0.369457
C43	C	0.978152	-0.932960	-0.326129
C44	C	0.978125	-0.856311	-0.326117
C45	C	0.978107	-0.795219	-0.326111
C46	C	1.154617	-0.326130	-0.326111
C47	C	1.229849	-0.326140	-0.326118
C48	C	0.978092	-0.326063	-0.502636
C49	C	0.978100	-0.326043	-0.577868
C50	C	0.978170	-0.149566	-0.326133
C51	C	0.978211	-0.074334	-0.326150
C52	C	1.021473	-0.369232	-1.039652
C53	C	1.021455	-0.369250	-0.968963
C54	C	0.978184	-0.325967	-0.933630
C55	C	0.934924	-0.282668	-0.968990
C56	C	0.934940	-0.282653	-1.039677
C57	C	0.934859	-0.282726	-0.683916
C58	C	0.934848	-0.282742	-0.613224
C59	C	1.021374	-0.369322	-0.613203
C60	C	1.021389	-0.369308	-0.683890
C61	C	0.978127	-0.326012	-0.719243
C62	C	0.978147	-0.325993	-0.795891
C63	C	0.978167	-0.325982	-0.856983
C64	C	0.978095	-0.326105	-0.150238
C65	C	0.978218	-0.325934	-0.075006
H66	H	0.720465	-0.247666	-0.404763
C67	C	0.887278	-0.722238	-0.235079
N68	N	0.851498	-0.751574	-0.199138
C69	C	0.887292	-0.929563	-0.235160
N70	N	0.851416	-0.900338	-0.199277
C71	C	0.582138	-0.235324	-0.417163
N72	N	0.552881	-0.199508	-0.453099
C73	C	1.069056	-1.077739	-0.417133
N74	N	1.104907	-1.106971	-0.453034
C75	C	0.730465	-0.416878	-0.235014
N76	N	0.759723	-0.452695	-0.199080
C77	C	0.226370	-0.235352	-0.417182
N78	N	0.197107	-0.199530	-0.453108
H79	H	0.899631	-0.247472	-0.712692
H80	H	1.056713	-0.404474	-1.068415
H81	H	1.056598	-0.404579	-0.584410
C82	C	0.374694	-0.416914	-0.235036
N83	N	0.403948	-0.452732	-0.199100
C84	C	0.887358	-0.235021	-1.078566
N85	N	0.851516	-0.199144	-1.107857
H86	H	1.056669	-0.404515	-0.940181
H87	H	0.899541	-0.583876	-0.247482
H88	H	1.056559	-0.711887	-0.404700
C89	C	0.374813	-0.235342	-0.417173
N90	N	0.404116	-0.199515	-0.453096
C91	C	1.068989	-0.416924	-0.722752
N92	N	1.104840	-0.452792	-0.752022
H93	H	0.899609	-0.247494	-0.584458
H94	H	0.236368	-0.404576	-0.247443
H95	H	1.056511	-0.583653	-0.404683
H96	H	0.899728	-1.067879	-0.247540
C97	C	0.582020	-0.416888	-0.235026
N98	N	0.552712	-0.452710	-0.199100
H99	H	1.056642	-0.939412	-0.404730
C100	C	0.887331	-0.235051	-0.930121
N101	N	0.851488	-0.199180	-0.900846
