data_functionalizedCrystal
_audit_creation_method	'MofGen! by Chris Wilmer'
_symmetry_space_group_name_H-M	'P1'
_symmetry_Int_Tables_number	1
_symmetry_cell_setting	triclinic
loop_
_symmetry_equiv_pos_as_xyz
  x,y,z
_cell_length_a	11.792254
_cell_length_b	10.489763
_cell_length_c	10.868271
_cell_angle_alpha	89.997533
_cell_angle_beta	90.001586
_cell_angle_gamma	95.626521
loop_
_atom_site_label
_atom_site_type_symbol
_atom_site_fract_x
_atom_site_fract_y
_atom_site_fract_z
O1	O	0.160252	-1.693500	0.102269
O2	O	0.660252	-1.193500	0.602269
O3	O	0.175256	-1.322257	0.102284
O4	O	0.675256	-0.822257	0.602284
O5	O	0.002609	-1.516879	0.102267
O6	O	0.502609	-1.016879	0.602267
O7	O	0.332899	-1.498878	0.102286
O8	O	0.832899	-0.998878	0.602286
O9	O	0.002615	-1.516861	-0.102377
O10	O	0.502615	-1.016861	0.397623
O11	O	0.175262	-1.322239	-0.102361
O12	O	0.675262	-0.822239	0.397639
O13	O	0.160257	-1.693482	-0.102375
O14	O	0.660257	-1.193482	0.397625
Zn15	Zn	0.167760	-1.507858	-0.134860
Zn16	Zn	0.667760	-1.007858	0.365140
Zn17	Zn	0.167753	-1.507881	0.134768
Zn18	Zn	0.667753	-1.007881	0.634768
O19	O	0.332904	-1.498860	-0.102359
O20	O	0.832904	-0.998860	0.397641
C21	C	0.174120	-1.274721	-0.000037
C22	C	0.674120	-0.774721	0.499963
C23	C	0.170714	-1.133104	-0.000032
C24	C	0.670714	-0.633104	0.499968
C25	C	0.060850	-1.065334	-0.000050
C26	C	0.560850	-0.565334	0.499950
C27	C	0.112737	-0.973042	0.100849
C28	C	0.612737	-0.473042	0.600849
C29	C	0.112768	-0.973059	-0.100914
C30	C	0.612768	-0.473059	0.399086
C31	C	0.222646	-1.042678	0.100951
C32	C	0.722646	-0.542678	0.600951
C33	C	0.222662	-1.042704	-0.100903
C34	C	0.722662	-0.542704	0.399097
C35	C	0.274629	-0.950440	0.000021
C36	C	0.774629	-0.450440	0.500021
C37	C	-0.039682	-1.515736	-0.000054
C38	C	0.460318	-1.015736	0.499946
C39	C	-0.165704	-1.512342	-0.000053
C40	C	0.334296	-1.012342	0.499947
C41	C	-0.268048	-1.509584	-0.000049
C42	C	0.231952	-1.009584	0.499951
C43	C	-0.396445	-1.506136	-0.000037
C44	C	0.103555	-1.006136	0.499963
C45	C	0.375195	-1.500003	-0.000034
C46	C	0.875195	-1.000003	0.499966
C47	C	0.501218	-1.503397	-0.000028
C48	C	1.001218	-1.003397	0.499972
N49	N	0.167765	-1.507851	-0.318874
N50	N	0.667765	-1.007851	0.181126
C51	C	0.161375	-0.741021	-0.000055
C52	C	0.661375	-0.241021	0.499945
C53	C	0.164728	-0.882645	-0.000062
C54	C	0.664728	-0.382645	0.499938
C55	C	0.167765	-1.507861	-0.430212
C56	C	0.667765	-1.007861	0.069788
C57	C	0.167755	-1.507878	-0.569889
C58	C	0.667755	-1.007878	-0.069889
N59	N	0.167740	-1.507898	0.318782
N60	N	0.667740	-1.007898	0.818782
H61	H	-0.029458	-1.115326	0.000072
H62	H	0.470542	-0.615326	0.500072
H63	H	0.066248	-0.942192	0.186150
H64	H	0.566248	-0.442192	0.686150
F65	F	0.283356	-1.082773	0.212577
F66	F	0.783356	-0.582773	0.712577
H67	H	0.365032	-0.900713	0.000081
H68	H	0.865032	-0.400713	0.500081
H69	H	0.269113	-1.073587	-0.186207
H70	H	0.769113	-0.573587	0.313793
F71	F	0.051988	-0.932765	-0.212416
F72	F	0.551988	-0.432765	0.287584
