data_functionalizedCrystal
_audit_creation_method	'MofGen! by Chris Wilmer'
_symmetry_space_group_name_H-M	'P1'
_symmetry_Int_Tables_number	1
_symmetry_cell_setting	triclinic
loop_
_symmetry_equiv_pos_as_xyz
  x,y,z
_cell_length_a	10.723022
_cell_length_b	14.044190
_cell_length_c	9.798715
_cell_angle_alpha	89.992011
_cell_angle_beta	89.996609
_cell_angle_gamma	88.829502
loop_
_atom_site_label
_atom_site_type_symbol
_atom_site_fract_x
_atom_site_fract_y
_atom_site_fract_z
O1	O	1.670502	0.133033	-0.113499
O2	O	1.308624	0.145769	-0.113506
O3	O	1.484127	0.001381	-0.113476
O4	O	1.495000	0.277421	-0.113529
O5	O	1.484113	0.001380	0.113507
O6	O	1.308610	0.145769	0.113477
O7	O	1.670488	0.133032	0.113483
Zn8	Zn	1.489547	0.139400	0.149518
Zn9	Zn	1.489566	0.139401	-0.149541
O10	O	1.494985	0.277421	0.113453
C11	C	1.262025	0.144842	-0.000015
C12	C	1.123193	0.142070	-0.000016
C13	C	0.912813	0.219995	-0.000034
C14	C	1.056303	0.222862	-0.000033
C15	C	1.479363	-0.033965	0.000019
C16	C	1.465175	-0.139283	0.000031
C17	C	1.539861	-0.389084	-0.000021
C18	C	1.439257	-0.332109	-0.000013
C19	C	1.453681	-0.224811	0.000011
C20	C	1.525438	-0.496392	-0.000046
C21	C	1.717088	0.133959	-0.000011
C22	C	1.855919	0.136731	-0.000018
C23	C	1.499749	0.312766	-0.000045
C24	C	1.513937	0.418084	-0.000066
N25	N	1.489543	0.139400	0.353618
N26	N	1.489578	0.139394	-0.353640
C27	C	1.563205	0.078508	0.421407
C28	C	1.563225	0.078505	0.578570
H29	H	0.913440	0.067569	-0.000013
H30	H	1.074255	0.070777	-0.000039
C31	C	1.308265	-0.375071	-0.000013
C32	C	1.217235	-0.352845	-0.117866
C33	C	1.086250	-0.395814	-0.117857
C34	C	1.046293	-0.461010	0.000004
C35	C	1.137324	-0.483240	0.117866
C36	C	1.268310	-0.440271	0.117857
H37	H	1.246812	-0.304580	-0.205122
H38	H	1.018863	-0.379358	-0.205107
H39	H	0.949330	-0.492819	0.000011
H40	H	1.107748	-0.531505	0.205122
H41	H	1.335697	-0.456727	0.205107
H42	H	1.636816	-0.357280	-0.000005
C43	C	1.404360	0.209828	0.432382
C44	C	1.461585	0.282519	0.530625
C45	C	1.376399	0.352950	0.609386
C46	C	1.233989	0.350689	0.589904
C47	C	1.176758	0.277994	0.491656
C48	C	1.261943	0.207564	0.412896
H49	H	1.567011	0.284196	0.545051
H50	H	1.418766	0.406763	0.682115
H51	H	1.170930	0.402826	0.648207
H52	H	1.071331	0.276318	0.477231
H53	H	1.219576	0.153750	0.340167
C54	C	1.648389	0.008079	0.342646
C55	C	1.648123	0.008091	0.185489
C56	C	1.733310	-0.062341	0.106733
C57	C	1.818763	-0.132785	0.185133
C58	C	1.819032	-0.132799	0.342298
C59	C	1.733845	-0.062367	0.421054
H60	H	1.584862	0.060239	0.127445
H61	H	1.733110	-0.062330	-0.009611
H62	H	1.881824	-0.184923	0.126833
H63	H	1.882293	-0.184948	0.400343
H64	H	1.734045	-0.062378	0.537399
C65	C	1.648427	0.008073	0.657313
C66	C	1.591232	-0.064593	0.755652
C67	C	1.676437	-0.135027	0.834398
C68	C	1.818838	-0.132795	0.814806
C69	C	1.876041	-0.060126	0.716462
C70	C	1.790835	0.010308	0.637716
H71	H	1.485811	-0.066248	0.770160
H72	H	1.634091	-0.188822	0.907198
H73	H	1.881912	-0.184934	0.873098
H74	H	1.981461	-0.058471	0.701955
H75	H	1.833182	0.064103	0.564916
H76	H	0.855293	0.289157	-0.000056
H77	H	1.426515	0.191533	0.588072
H78	H	1.105250	0.294152	-0.000038
