data_functionalizedCrystal
_audit_creation_method	'MofGen! by Chris Wilmer'
_symmetry_space_group_name_H-M	'P1'
_symmetry_Int_Tables_number	1
_symmetry_cell_setting	triclinic
loop_
_symmetry_equiv_pos_as_xyz
  x,y,z
_cell_length_a	11.792241
_cell_length_b	19.288864
_cell_length_c	10.868271
_cell_angle_alpha	89.981822
_cell_angle_beta	90.001559
_cell_angle_gamma	96.335169
loop_
_atom_site_label
_atom_site_type_symbol
_atom_site_fract_x
_atom_site_fract_y
_atom_site_fract_z
O1	O	0.141575	-0.922153	0.102718
O2	O	0.160674	-0.720001	0.102634
O3	O	-0.014120	-0.825982	0.102669
O4	O	0.316370	-0.816171	0.102682
O5	O	-0.014115	-0.825973	-0.101976
O6	O	0.160680	-0.719991	-0.102011
O7	O	0.141581	-0.922143	-0.101927
Zn8	Zn	0.151131	-0.821066	-0.134461
Zn9	Zn	0.151124	-0.821078	0.135167
O10	O	0.316375	-0.816161	-0.101962
C11	C	0.160063	-0.694116	0.000300
C12	C	0.158218	-0.617002	0.000268
C13	C	-0.056399	-0.825361	0.000347
C14	C	-0.182385	-0.823517	0.000347
C15	C	0.142192	-0.948028	0.000409
C16	C	0.144037	-1.025142	0.000449
C17	C	-0.413046	-0.820125	0.000366
C18	C	-0.284689	-0.822009	0.000356
C19	C	0.358654	-0.816782	0.000362
C20	C	0.484640	-0.818627	0.000370
N21	N	0.151136	-0.821062	-0.318475
C22	C	0.260779	-0.572888	0.000292
C23	C	0.259046	-0.500431	0.000305
C24	C	0.154746	-0.472091	0.000320
C25	C	0.052171	-0.516215	0.000290
C26	C	0.053907	-0.588670	0.000264
C27	C	0.072752	-0.363367	0.072054
C28	C	0.071020	-0.290912	0.072088
C29	C	0.149387	-0.248615	0.000394
C30	C	0.229504	-0.278780	-0.071317
C31	C	0.231241	-0.351235	-0.071343
C32	C	0.152852	-0.393526	0.000347
C33	C	0.250076	-0.125935	0.000431
C34	C	0.248339	-0.053477	0.000436
C35	C	0.041460	-0.069262	0.000433
C36	C	0.043201	-0.141718	0.000415
C37	C	0.147512	-0.170050	0.000419
C38	C	0.151136	-0.821067	-0.429813
C39	C	0.151125	-0.821076	-0.569490
N40	N	0.151110	-0.821087	0.319181
H41	H	0.345717	-0.595951	0.000298
C42	C	-0.062560	-0.485039	0.000307
N43	N	-0.148979	-0.461558	0.000317
C44	C	-0.069627	-0.190246	0.000404
N45	N	-0.154614	-0.226796	0.000393
H46	H	0.342567	-0.464507	0.000321
C47	C	0.361171	-0.004951	0.000444
N48	N	0.446158	0.031600	0.000447
H49	H	0.296472	-0.375792	-0.129736
C50	C	0.364819	-0.157102	0.000420
N51	N	0.451245	-0.180576	0.000410
H52	H	0.293318	-0.244342	-0.129697
C53	C	-0.073272	-0.038092	0.000448
N54	N	-0.159692	-0.014612	0.000457
C55	C	-0.017117	-0.257739	0.150962
N56	N	-0.083508	-0.232755	0.210368
C57	C	-0.013459	-0.409887	0.150934
N58	N	-0.078390	-0.444925	0.210346
C59	C	-0.058924	-0.637197	0.000246
N60	N	-0.143910	-0.673749	0.000237
