data_functionalizedCrystal
_audit_creation_method	'MofGen! by Chris Wilmer'
_symmetry_space_group_name_H-M	'P1'
_symmetry_Int_Tables_number	1
_symmetry_cell_setting	triclinic
loop_
_symmetry_equiv_pos_as_xyz
  x,y,z
_cell_length_a	11.792241
_cell_length_b	13.262508
_cell_length_c	12.376457
_cell_angle_alpha	116.815184
_cell_angle_beta	78.632725
_cell_angle_gamma	84.317960
loop_
_atom_site_label
_atom_site_type_symbol
_atom_site_fract_x
_atom_site_fract_y
_atom_site_fract_z
O1	O	1.518878	0.132559	-0.053135
O2	O	1.187390	0.148417	-0.048285
O3	O	1.373031	-0.022939	-0.100952
O4	O	1.333237	0.303914	-0.000468
O5	O	1.326640	0.019842	0.100209
O6	O	1.140999	0.191197	0.152875
O7	O	1.472487	0.175339	0.148026
Zn8	Zn	1.299378	0.190061	0.182389
Zn9	Zn	1.360500	0.133696	-0.082649
O10	O	1.286846	0.346695	0.200692
C11	C	1.121977	0.168810	0.051985
C12	C	0.996182	0.165825	0.051057
C13	C	1.351871	-0.043393	-0.013238
C14	C	1.357923	-0.168078	-0.051578
C15	C	1.273821	-0.426277	0.278975
C16	C	1.268126	-0.309128	0.314998
C17	C	1.290575	-0.273859	0.223357
C18	C	1.318720	-0.355752	0.095687
C19	C	1.324406	-0.472911	0.059660
C20	C	1.341160	-0.320494	0.004043
C21	C	1.369304	-0.402387	-0.123627
C22	C	1.374990	-0.519534	-0.159648
C23	C	1.352542	-0.554803	-0.068007
C24	C	1.335473	-0.203335	0.040069
C25	C	1.386058	-0.249969	-0.179245
C26	C	1.391753	-0.367118	-0.215268
C27	C	0.765861	0.160348	0.049406
C28	C	0.894029	0.163391	0.050324
C29	C	1.537901	0.154946	0.047753
C30	C	1.663697	0.157929	0.048672
C31	C	1.308007	0.367149	0.112976
C32	C	1.301957	0.491832	0.151308
N33	N	1.257672	0.228527	0.363270
N34	N	1.402215	0.095220	-0.263533
C35	C	1.499029	0.005904	0.649832
C36	C	1.528212	-0.021019	0.523217
C37	C	1.460579	0.041365	0.483224
C38	C	1.363759	0.130677	0.569858
C39	C	1.334578	0.157609	0.696487
C40	C	1.296128	0.193070	0.529879
C41	C	1.199307	0.282382	0.616514
C42	C	1.170131	0.309309	0.743130
C43	C	1.237764	0.246925	0.783123
C44	C	1.325309	0.166138	0.403250
C45	C	1.160858	0.317843	0.449906
C46	C	1.131674	0.344766	0.576521
H47	H	1.285935	-0.178470	0.252695
C48	C	1.358764	-0.683663	-0.107634
H49	H	1.378730	-0.727385	-0.196793
H50	H	1.284016	-0.693370	-0.072772
H51	H	1.417398	-0.709737	-0.077799
C52	C	1.063648	0.407567	0.838430
H53	H	1.027543	0.440862	0.796480
H54	H	1.089974	0.465087	0.902268
H55	H	1.007721	0.377362	0.875320
C56	C	1.086453	0.386474	0.405934
H57	H	1.024623	0.443532	0.475667
H58	H	1.053302	0.335256	0.344027
H59	H	1.135543	0.422992	0.370991
H60	H	1.312548	-0.136667	0.144020
H61	H	1.404141	0.093420	0.332723
C62	C	1.410763	-0.211188	-0.280056
H63	H	1.403359	-0.129690	-0.240317
H64	H	1.355405	-0.231805	-0.328518
H65	H	1.488780	-0.248129	-0.333511
H66	H	1.484345	0.019440	0.380127
H67	H	1.052841	0.417487	0.647074
C68	C	1.237183	-0.219058	0.455421
H69	H	1.224641	-0.256839	0.504840
H70	H	1.167229	-0.164225	0.476540
H71	H	1.300610	-0.180552	0.471525
H72	H	1.414668	-0.433811	-0.319219
H73	H	1.397897	-0.586209	-0.263605
H74	H	1.554092	-0.044875	0.682406
C75	C	1.249133	-0.465075	0.379762
H76	H	1.256557	-0.546577	0.340019
H77	H	1.171126	-0.428139	0.433226
H78	H	1.304505	-0.444462	0.428216
H79	H	1.214000	0.268842	0.886222
C80	C	1.634699	-0.119260	0.427928
H81	H	1.670793	-0.152565	0.469876
H82	H	1.690618	-0.089054	0.391041
H83	H	1.608375	-0.176789	0.364084
