data_functionalizedCrystal
_audit_creation_method	'MofGen! by Chris Wilmer'
_symmetry_space_group_name_H-M	'P1'
_symmetry_Int_Tables_number	1
_symmetry_cell_setting	triclinic
loop_
_symmetry_equiv_pos_as_xyz
  x,y,z
_cell_length_a	25.639239
_cell_length_b	21.395362
_cell_length_c	21.395355
_cell_angle_alpha	89.956060
_cell_angle_beta	90.019334
_cell_angle_gamma	89.945436
loop_
_atom_site_label
_atom_site_type_symbol
_atom_site_fract_x
_atom_site_fract_y
_atom_site_fract_z
Zn1	Zn	-0.207990	-0.957825	0.354582
Zn2	Zn	-0.295409	-0.957713	0.249803
Zn3	Zn	-0.208014	-0.853040	0.249783
Zn4	Zn	-0.295420	-0.852994	0.354508
O5	O	-0.251708	-0.905393	0.302169
O6	O	-0.219571	-1.045488	0.340722
O7	O	-0.283822	-0.943800	0.162122
O8	O	-0.134846	-0.867006	0.263708
O9	O	-0.283798	-1.045405	0.263742
O10	O	-0.134828	-0.943991	0.340703
O11	O	-0.219613	-0.866897	0.162108
O12	O	-0.219623	-0.765356	0.263636
O13	O	-0.283817	-0.866928	0.442196
O14	O	-0.283840	-0.765322	0.340576
O15	O	-0.219582	-0.943947	0.442250
O16	O	-0.368576	-0.943756	0.263669
O17	O	-0.368584	-0.866820	0.340596
C18	C	-0.251736	-0.742605	0.302096
C19	C	-0.251760	-0.672964	0.302080
C20	C	-0.251698	-0.905445	0.465592
C21	C	-0.251693	-0.905467	0.535234
C22	C	-0.387551	-0.905288	0.302140
C23	C	-0.445665	-0.905300	0.302149
C24	C	-0.806011	-0.945558	0.262182
C25	C	-0.860616	-0.945582	0.262190
O26	O	-0.888838	-0.979702	0.228177
N27	N	-0.887947	-0.905503	0.302211
C28	C	-0.860672	-0.865401	0.342230
O29	O	-0.888934	-0.831313	0.376271
C30	C	-0.806069	-0.865381	0.342224
C31	C	-0.778740	-0.905458	0.302196
C32	C	-0.778682	-0.985633	0.222158
C33	C	-0.724082	-0.985608	0.222149
C34	C	-0.696810	-0.945508	0.262164
C35	C	-0.724139	-0.905433	0.302187
C36	C	-0.778794	-0.825282	0.382246
C37	C	-0.724187	-0.825266	0.382237
C38	C	-0.696858	-0.865343	0.342209
C39	C	-0.642267	-0.865308	0.342193
N40	N	-0.614935	-0.905387	0.302173
C41	C	-0.642207	-0.945487	0.262158
C42	C	-0.975343	-0.865448	0.342239
C43	C	-1.029945	-0.865465	0.342242
C44	C	-1.029885	-0.945648	0.262204
C45	C	-0.975281	-0.945627	0.262198
C46	C	-0.948011	-0.905528	0.302219
C47	C	-0.527542	-0.945430	0.262142
C48	C	-0.472937	-0.945400	0.262134
C49	C	-0.473002	-0.865220	0.342175
C50	C	-0.527602	-0.865248	0.342180
C51	C	-0.554871	-0.905358	0.302162
O52	O	-0.614010	-0.831207	0.376190
O53	O	-0.613939	-0.979575	0.228128
C54	C	-0.115335	-0.905516	0.302212
C55	C	-0.057221	-0.905568	0.302230
C56	C	-0.251681	-1.068816	0.302242
C57	C	-0.251669	-1.138458	0.302274
C58	C	-0.285243	-0.640250	0.342083
C59	C	-0.285230	-0.574814	0.342111
C60	C	-0.251740	-0.542096	0.302125
C61	C	-0.218252	-0.574818	0.262119
C62	C	-0.218262	-0.640252	0.262097
C63	C	-0.247528	-0.438372	0.245720
C64	C	-0.247522	-0.372939	0.245741
C65	C	-0.251706	-0.340275	0.302194
C66	C	-0.255908	-0.373052	0.358627
C67	C	-0.255918	-0.438486	0.358605
C68	C	-0.251725	-0.471143	0.302145
C69	C	-0.285176	-0.236608	0.342231
C70	C	-0.285160	-0.171172	0.342260
C71	C	-0.218185	-0.171176	0.262262
C72	C	-0.218198	-0.236612	0.262239
C73	C	-0.251697	-0.269324	0.302222
C74	C	-0.251681	-0.905377	0.139381
C75	C	-0.251538	-0.905476	0.069741
C76	C	-0.218245	-0.945569	0.567976
C77	C	-0.218222	-0.945568	0.633412
C78	C	-0.251658	-0.905472	0.666102
C79	C	-0.285108	-0.865362	0.633352
C80	C	-0.285126	-0.865360	0.567917
C81	C	-0.298736	-0.900488	0.769765
C82	C	-0.298719	-0.900495	0.835198
C83	C	-0.251602	-0.905476	0.867923
C84	C	-0.204501	-0.910463	0.835207
C85	C	-0.204519	-0.910461	0.769773
C86	C	-0.251642	-0.905470	0.737054
C87	C	-0.218127	-0.945579	0.971618
C88	C	-0.218103	-0.945574	1.037055
C89	C	-0.284994	-0.865371	1.036993
C90	C	-0.285013	-0.865373	0.971558
C91	C	-0.251580	-0.905480	0.938874
H92	H	-0.450687	-0.978036	0.229537
Br93	Br	-0.172713	-1.000012	1.081493
Br94	Br	-0.564541	-0.999866	0.207830
Br95	Br	-0.362642	-0.893735	0.879592
H96	H	-0.191020	-0.978227	0.541369
H97	H	-0.801036	-0.792644	0.414837
Br98	Br	-0.564693	-0.810842	0.396488
Br99	Br	-0.435980	-0.810804	0.396480
Br100	Br	-0.172812	-0.999980	0.677858
Br101	Br	-0.330703	-0.684642	0.396348
Br102	Br	-0.938198	-1.000019	0.207873
Br103	Br	-0.687180	-0.770844	0.436557
Br104	Br	-0.261618	-0.482968	0.435189
Br105	Br	-0.362688	-0.893747	0.725360
H106	H	-0.166167	-0.914520	0.743138
H107	H	-1.052099	-0.978301	0.229624
Br108	Br	-0.938338	-0.811019	0.396555
H109	H	-0.190984	-0.548174	0.229563
H110	H	-0.312330	-0.832714	0.659972
H111	H	-0.312450	-0.263244	0.374791
Br112	Br	-0.140552	-0.917228	0.879610
H113	H	-0.312253	-0.832722	0.944899
H114	H	-0.312495	-0.548173	0.374689
Br115	Br	-0.330599	-0.126772	0.396560
H116	H	-0.800881	-1.018290	0.189573
Br117	Br	-0.330365	-0.810946	1.081352
Br118	Br	-0.261585	-0.328732	0.435248
H119	H	-0.701834	-1.018244	0.189557
H120	H	-0.312363	-0.832701	0.541259
H121	H	-0.190914	-0.144537	0.229707
Br122	Br	-0.241821	-0.328462	0.169154
H123	H	-0.190936	-0.263248	0.229661
H124	H	-0.244119	-0.464961	0.199746
Br125	Br	-1.067027	-0.811063	0.396558
H126	H	-0.190995	-0.666887	0.229521
H127	H	-0.190901	-0.978233	0.945006
