data_functionalizedCrystal
_audit_creation_method	'MofGen! by Chris Wilmer'
_symmetry_space_group_name_H-M	'P1'
_symmetry_Int_Tables_number	1
_symmetry_cell_setting	triclinic
loop_
_symmetry_equiv_pos_as_xyz
  x,y,z
_cell_length_a	16.120530
_cell_length_b	10.686285
_cell_length_c	10.686551
_cell_angle_alpha	99.084519
_cell_angle_beta	82.496591
_cell_angle_gamma	97.480717
loop_
_atom_site_label
_atom_site_type_symbol
_atom_site_fract_x
_atom_site_fract_y
_atom_site_fract_z
Zn1	Zn	1.341629	0.545926	-0.774571
Zn2	Zn	1.841629	1.045926	-0.274571
Zn3	Zn	1.341561	0.774501	-0.546064
Zn4	Zn	1.841561	1.274501	-0.046064
Zn5	Zn	1.191183	0.551541	-0.551616
Zn6	Zn	1.691183	1.051541	-0.051616
Zn7	Zn	1.211200	0.748813	-0.748982
Zn8	Zn	1.711200	1.248813	-0.248982
O9	O	1.271394	0.655195	-0.655308
O10	O	1.771394	1.155195	-0.155308
O11	O	1.459139	0.584647	-0.752644
O12	O	1.959139	1.084647	-0.252644
O13	O	1.313208	0.758025	-0.368571
O14	O	1.813208	1.258025	0.131429
O15	O	1.202791	0.372578	-0.594225
O16	O	1.702791	0.872578	-0.094225
O17	O	1.459089	0.752580	-0.584761
O18	O	1.959089	1.252580	-0.084761
O19	O	1.313323	0.368452	-0.758028
O20	O	1.813323	0.868452	-0.258028
O21	O	1.202726	0.594218	-0.372651
O22	O	1.702726	1.094218	0.127349
O23	O	1.076320	0.569310	-0.569412
O24	O	1.576320	1.069310	-0.069412
O25	O	1.236908	0.708800	-0.930605
O26	O	1.736908	1.208800	-0.430605
O27	O	1.091026	0.714245	-0.714415
O28	O	1.591026	1.214245	-0.214415
O29	O	1.332733	0.559739	-0.949405
O30	O	1.832733	1.059739	-0.449405
O31	O	1.332618	0.949312	-0.559948
O32	O	1.832618	1.449312	-0.059948
O33	O	1.236842	0.930440	-0.709031
O34	O	1.736842	1.430440	-0.209031
C35	C	1.286919	0.986085	-0.631140
C36	C	1.786919	1.486085	-0.131140
C37	C	1.293639	1.127644	-0.620848
C38	C	1.793639	1.627644	-0.120848
C39	C	1.053202	0.639600	-0.639740
C40	C	1.553202	1.139600	-0.139740
C41	C	0.959862	0.632956	-0.633108
C42	C	1.459862	1.132956	-0.133108
C43	C	1.287061	0.630778	-0.987510
C44	C	1.787061	1.130778	-0.487510
C45	C	1.293737	0.620372	-1.129075
C46	C	1.793737	1.120372	-0.629075
C47	C	0.788967	0.620797	-0.621013
C48	C	1.288967	1.120797	-0.121013
C49	C	0.754669	0.689681	-0.689689
C50	C	1.254669	1.189681	-0.189689
C51	C	0.659578	0.682916	-0.682960
C52	C	1.159578	1.182916	-0.182960
C53	C	0.884067	0.627561	-0.627741
C54	C	1.384067	1.127561	-0.127741
C55	C	1.490437	0.670853	-0.670937
C56	C	1.990437	1.170853	-0.170937
C57	C	1.583781	0.677525	-0.677598
C58	C	2.083781	1.177525	-0.177598
C59	C	1.255832	0.323013	-0.679600
C60	C	1.755832	0.823013	-0.179600
C61	C	1.249201	0.181457	-0.689952
C62	C	1.749201	0.681457	-0.189952
C63	C	1.255831	0.679430	-0.324409
C64	C	1.755831	1.179430	0.175591
C65	C	1.249300	0.689488	-0.182882
C66	C	1.749300	1.189488	0.317118
H67	H	0.796721	0.753735	-0.753541
H68	H	1.296721	1.253735	-0.253541
H69	H	1.206015	1.119233	-0.756991
H70	H	1.706015	1.619233	-0.256991
N71	N	1.350909	0.531446	-1.211505
N72	N	1.850909	1.031446	-0.711505
H73	H	1.347740	0.536368	-1.304344
H74	H	1.847740	1.036368	-0.804344
H75	H	1.332497	0.441240	-1.194042
H76	H	1.832497	0.941240	-0.694042
H77	H	0.746918	0.556748	-0.557167
H78	H	1.246918	1.056748	-0.057167
H79	H	1.336822	1.189876	-0.553797
H80	H	1.836822	1.689876	-0.053797
H81	H	1.206151	0.756626	-1.120648
H82	H	1.706151	1.256626	-0.620648
