data_functionalizedCrystal
_audit_creation_method	'MofGen! by Chris Wilmer'
_symmetry_space_group_name_H-M	'P1'
_symmetry_Int_Tables_number	1
_symmetry_cell_setting	triclinic
loop_
_symmetry_equiv_pos_as_xyz
  x,y,z
_cell_length_a	17.019330
_cell_length_b	17.038272
_cell_length_c	15.500227
_cell_angle_alpha	93.033254
_cell_angle_beta	96.715470
_cell_angle_gamma	92.753247
loop_
_atom_site_label
_atom_site_type_symbol
_atom_site_fract_x
_atom_site_fract_y
_atom_site_fract_z
O1	O	-1.060551	0.092032	-0.150968
O2	O	-0.830924	0.105585	-0.133860
O3	O	-0.944373	-0.015000	-0.142306
O4	O	-0.947103	0.212617	-0.142523
O5	O	-0.937486	-0.007711	0.002096
O6	O	-0.824038	0.112874	0.010541
O7	O	-1.053665	0.099321	-0.006567
Cu8	Cu	-0.938223	0.106763	0.015172
Cu9	Cu	-0.946366	0.098143	-0.155599
O10	O	-0.940216	0.219906	0.001878
C11	C	-0.797955	0.108857	-0.059460
C12	C	-0.709976	0.107739	-0.052905
C13	C	-0.212192	0.101642	-0.011884
C14	C	-0.294858	0.102692	-0.018045
C15	C	-0.339946	0.099238	-0.099840
C16	C	-0.302362	0.094741	-0.175479
C17	C	-0.219698	0.093697	-0.169318
C18	C	-0.589728	0.102198	-0.122382
C19	C	-0.672398	0.103241	-0.128538
C20	C	-0.664888	0.111193	0.028897
C21	C	-0.582222	0.110143	0.035051
C22	C	-0.544646	0.105651	-0.040588
C23	C	-0.424444	0.100309	-0.106139
C24	C	-0.460149	0.104585	-0.034288
C25	C	-0.938447	-0.040473	-0.069920
C26	C	-0.931040	-0.127232	-0.069369
C27	C	-0.999042	-0.177656	-0.074434
C28	C	-0.992078	-0.259176	-0.073924
C29	C	-0.917112	-0.290268	-0.068341
C30	C	-0.849106	-0.239837	-0.063278
C31	C	-0.856071	-0.158320	-0.063795
C32	C	-0.892508	-0.535914	-0.066520
C33	C	-0.885548	-0.617438	-0.066001
C34	C	-1.028521	-0.636771	-0.076648
C35	C	-1.035479	-0.555251	-0.077159
C36	C	-0.967473	-0.504827	-0.072101
C37	C	-0.909992	-0.373594	-0.067816
C38	C	-0.974593	-0.421504	-0.072632
C39	C	-0.086635	0.096043	-0.080966
C40	C	-0.174615	0.097143	-0.087518
C41	C	-0.946142	0.245379	-0.070509
C42	C	-0.953549	0.332137	-0.071066
N43	N	-0.932500	0.112825	0.135283
N44	N	-0.952094	0.092075	-0.275711
C45	C	-0.980592	0.061748	0.176979
C46	C	-0.976272	0.066340	0.267874
C47	C	-0.923864	0.122013	0.317070
C48	C	-0.875768	0.173093	0.275367
C49	C	-0.880084	0.168497	0.184475
C50	C	-0.908314	0.138558	0.591694
C51	C	-0.904003	0.143152	0.682593
C52	C	-1.004507	0.036397	0.675093
C53	C	-1.008822	0.031809	0.584199
C54	C	-0.960722	0.082886	0.542505
C55	C	-0.919449	0.126710	0.409978
C56	C	-0.965134	0.078185	0.449598
H57	H	-0.325450	0.106353	0.043544
H58	H	-0.695492	0.114852	0.090477
Br59	Br	-1.079950	-0.043746	0.517431
Br60	Br	-0.804635	0.248647	0.342130
Br61	Br	-0.814809	0.237815	0.127887
H62	H	-0.423435	0.107402	0.032309
Br63	Br	-0.363551	0.090057	-0.286488
Br64	Br	-1.137223	-0.513061	-0.084763
Br65	Br	-1.051726	-0.013808	0.110222
H66	H	-1.007801	0.032852	0.409540
Br67	Br	-0.168698	0.087599	-0.271967
Br68	Br	-0.848325	0.202267	0.476748
H69	H	-0.788067	-0.265160	-0.058738
H70	H	-0.545519	0.112939	0.101657
H71	H	-0.559143	0.098537	-0.183973
H72	H	-0.175488	0.104458	0.054722
H73	H	-0.861325	0.188492	0.722645
H74	H	-1.083887	-0.677834	-0.080768
Br75	Br	-0.485641	0.095613	-0.217144
H76	H	-0.709106	0.100434	-0.195149
H77	H	-0.800696	-0.117264	-0.059670
Br78	Br	-1.100785	-0.135467	-0.081998
H79	H	-1.035631	-0.396186	-0.077196
H80	H	-1.047452	-0.300229	-0.078046
H81	H	-0.824498	-0.642749	-0.061441
H82	H	-0.837132	-0.494869	-0.062401
Br83	Br	-0.808256	-0.415798	-0.060249
H84	H	-1.015431	0.024748	0.301823
Br85	Br	-1.069780	-0.032920	0.731682
H86	H	-0.869151	0.180149	0.557754
