data_functionalizedCrystal
_audit_creation_method	'MofGen! by Chris Wilmer'
_symmetry_space_group_name_H-M	'P1'
_symmetry_Int_Tables_number	1
_symmetry_cell_setting	triclinic
loop_
_symmetry_equiv_pos_as_xyz
  x,y,z
_cell_length_a	16.109318
_cell_length_b	9.130313
_cell_length_c	16.109301
_cell_angle_alpha	89.995758
_cell_angle_beta	96.534978
_cell_angle_gamma	90.001161
loop_
_atom_site_label
_atom_site_type_symbol
_atom_site_fract_x
_atom_site_fract_y
_atom_site_fract_z
O1	O	1.103123	0.121682	-0.106933
O2	O	0.861063	0.121712	-0.120218
O3	O	0.988743	0.121682	0.007455
O4	O	0.975444	0.121713	-0.234606
O5	O	0.988731	-0.121917	0.007454
O6	O	0.861051	-0.121886	-0.120218
O7	O	1.103111	-0.121917	-0.106934
Cu8	Cu	0.982080	-0.144144	-0.113576
Cu9	Cu	0.982095	0.143940	-0.113575
O10	O	0.975432	-0.121886	-0.234607
C11	C	0.830083	-0.000083	-0.119677
C12	C	0.737788	-0.000072	-0.118057
N13	N	0.982076	-0.346767	-0.113577
C14	C	0.438721	0.132687	-0.112821
C15	C	0.525442	0.132696	-0.114339
C16	C	0.525448	-0.132889	-0.114328
C17	C	0.438729	-0.132896	-0.112805
C18	C	0.395367	-0.000104	-0.112056
C19	C	0.568807	-0.000087	-0.115096
C20	C	0.662835	-0.000078	-0.116742
C21	C	0.301334	-0.000113	-0.110409
C22	C	0.925532	-0.423443	-0.170085
C23	C	0.925548	-0.576779	-0.170084
C24	C	1.038655	-0.576751	-0.057057
C25	C	1.038642	-0.423417	-0.057064
C26	C	0.868966	-0.346792	-0.226598
C27	C	0.812417	-0.423468	-0.283111
C28	C	0.812433	-0.576805	-0.283109
C29	C	0.868999	-0.653466	-0.226595
C30	C	1.134092	-0.000118	-0.107474
C31	C	1.226387	-0.000119	-0.109095
C32	C	0.988198	-0.000119	0.038430
C33	C	0.986583	-0.000120	0.130725
N34	N	0.982105	0.346562	-0.113569
C35	C	0.975976	-0.000083	-0.265581
C36	C	0.977592	-0.000071	-0.357877
C37	C	1.058590	-0.000106	0.352993
C38	C	1.057066	-0.000094	0.439713
C39	C	0.905579	-0.000081	0.419848
C40	C	0.907104	-0.000083	0.333130
C41	C	0.983612	-0.000103	0.299704
C42	C	0.980563	-0.000089	0.473144
C43	C	0.978910	-0.000075	0.567170
C44	C	0.985265	-0.000113	0.205672
H45	H	0.403419	0.240815	-0.112210
H46	H	1.084686	-0.360987	-0.011050
C47	C	0.632347	-0.286951	-0.044614
C48	C	0.573116	-0.278846	-0.115161
H49	H	0.661777	-0.377057	-0.045134
H50	H	0.604870	-0.281446	0.004427
H51	H	0.670574	-0.207854	-0.045297
H52	H	0.534886	-0.357937	-0.114475
H53	H	0.600594	-0.284365	-0.164214
H54	H	1.120888	-0.000120	0.325781
H55	H	0.766395	-0.639233	-0.329129
H56	H	0.846043	-0.000075	0.289740
C57	C	0.762167	-0.188429	-0.333299
C58	C	0.750245	-0.339209	-0.345230
H59	H	0.723780	-0.136417	-0.371648
H60	H	0.817638	-0.163287	-0.342354
H61	H	0.753154	-0.163325	-0.277804
H62	H	0.759264	-0.364314	-0.400724
H63	H	0.694760	-0.364361	-0.336182
H64	H	0.869013	-0.778323	-0.226604
C65	C	1.087520	-0.623951	0.086857
C66	C	1.100819	-0.661014	0.005069
H67	H	1.125900	-0.675967	0.125213
H68	H	1.032046	-0.649095	0.095899
H69	H	1.095611	-0.521656	0.094931
H70	H	1.092722	-0.763309	-0.003006
H71	H	1.156307	-0.635880	-0.003976
H72	H	0.403429	-0.241037	-0.112180
C73	C	1.206956	-0.000129	0.450632
C74	C	1.139485	-0.000108	0.498288
H75	H	1.257839	-0.000146	0.486796
H76	H	1.204405	0.084812	0.416393
H77	H	1.204387	-0.085086	0.416398
H78	H	1.142050	0.084854	0.532518
H79	H	1.142037	-0.085058	0.532542
H80	H	0.843288	-0.000067	0.447074
H81	H	0.560737	0.240828	-0.114961
H82	H	0.868946	-0.221938	-0.226603
