data_functionalizedCrystal
_audit_creation_method	'MofGen! by Chris Wilmer'
_symmetry_space_group_name_H-M	'P1'
_symmetry_Int_Tables_number	1
_symmetry_cell_setting	triclinic
loop_
_symmetry_equiv_pos_as_xyz
  x,y,z
_cell_length_a	29.839131
_cell_length_b	21.395364
_cell_length_c	21.395355
_cell_angle_alpha	90.025600
_cell_angle_beta	89.979828
_cell_angle_gamma	89.961079
loop_
_atom_site_label
_atom_site_type_symbol
_atom_site_fract_x
_atom_site_fract_y
_atom_site_fract_z
Zn1	Zn	-0.178935	-0.957812	-0.354272
Zn2	Zn	0.321065	-0.457812	0.145728
Zn3	Zn	-0.254051	-0.957695	-0.249491
Zn4	Zn	0.245949	-0.457695	0.250509
Zn5	Zn	-0.178932	-0.853027	-0.249506
Zn6	Zn	0.321068	-0.353027	0.250494
Zn7	Zn	-0.254036	-0.852977	-0.354229
Zn8	Zn	0.245964	-0.352977	0.145771
O9	O	-0.216488	-0.905378	-0.301875
O10	O	0.283512	-0.405378	0.198125
O11	O	-0.188907	-1.045475	-0.340384
O12	O	0.311093	-0.545475	0.159616
O13	O	-0.244091	-0.943783	-0.161815
O14	O	0.255909	-0.443783	0.338185
O15	O	-0.116065	-0.866997	-0.263428
O16	O	0.383935	-0.366997	0.236572
O17	O	-0.244094	-1.045389	-0.263402
O18	O	0.255906	-0.545389	0.236598
O19	O	-0.116068	-0.943982	-0.340398
O20	O	0.383932	-0.443982	0.159602
O21	O	-0.188902	-0.866884	-0.161827
O22	O	0.311098	-0.366884	0.338173
O23	O	-0.188887	-0.765343	-0.263387
O24	O	0.311113	-0.265343	0.236613
O25	O	-0.244069	-0.866911	-0.441913
O26	O	0.255931	-0.366911	0.058087
O27	O	-0.244066	-0.765306	-0.340326
O28	O	0.255934	-0.265306	0.159674
O29	O	-0.188893	-0.943934	-0.441944
O30	O	0.311107	-0.443934	0.058056
O31	O	-0.316916	-0.943734	-0.263361
O32	O	0.183084	-0.443734	0.236639
O33	O	-0.316905	-0.866798	-0.340312
O34	O	0.183095	-0.366798	0.159688
C35	C	-0.216475	-0.742590	-0.301854
C36	C	0.283525	-0.242590	0.198146
C37	C	-0.216480	-0.672949	-0.301860
C38	C	0.283520	-0.172949	0.198140
C39	C	-0.333211	-0.905265	-0.301844
C40	C	0.166789	-0.405265	0.198156
C41	C	-0.383145	-0.905274	-0.301851
C42	C	0.116855	-0.405274	0.198149
C43	C	-0.245265	-0.171150	-0.341887
C44	C	0.254735	0.328850	0.158113
C45	C	-0.245266	-0.236585	-0.341882
C46	C	0.254734	0.263415	0.158118
C47	C	-0.216492	-0.269311	-0.301885
C48	C	0.283508	0.230689	0.198115
C49	C	-0.187723	-0.236595	-0.261879
C50	C	0.312277	0.263405	0.238121
C51	C	-0.187726	-0.171161	-0.261882
C52	C	0.312274	0.328839	0.238118
C53	C	-0.176006	-0.373010	-0.297037
C54	C	0.323994	0.126990	0.202963
C55	C	-0.176002	-0.438443	-0.297039
C56	C	0.323998	0.061557	0.202961
C57	C	-0.216482	-0.471132	-0.301874
C58	C	0.283518	0.028868	0.198126
C59	C	-0.256967	-0.438379	-0.306720
C60	C	0.243033	0.061621	0.193280
C61	C	-0.256970	-0.372945	-0.306723
C62	C	0.243030	0.127055	0.193277
C63	C	-0.216485	-0.340263	-0.301878
C64	C	0.283515	0.159737	0.198122
C65	C	-0.245252	-0.574792	-0.341868
C66	C	0.254748	-0.074792	0.158132
C67	C	-0.245253	-0.640228	-0.341858
C68	C	0.254747	-0.140228	0.158142
C69	C	-0.187707	-0.640237	-0.261859
C70	C	0.312293	-0.140237	0.238141
C71	C	-0.187709	-0.574802	-0.261866
C72	C	0.312291	-0.074802	0.238134
C73	C	-0.216481	-0.542083	-0.301874
C74	C	0.283519	-0.042083	0.198126
C75	C	-0.692782	-0.945511	-0.261865
C76	C	-0.192782	-0.445511	0.238135
C77	C	-0.880455	-0.945589	-0.261889
C78	C	-0.380455	-0.445589	0.238111
O79	O	-0.904714	-0.979711	-0.227868
O80	O	-0.404714	-0.479711	0.272132
N81	N	-0.903930	-0.905508	-0.301922
N82	N	-0.403930	-0.405508	0.198078
C83	C	-0.880485	-0.865408	-0.341954
C84	C	-0.380485	-0.365408	0.158046
O85	O	-0.904759	-0.831323	-0.376010
O86	O	-0.404759	-0.331323	0.123990
C87	C	-0.692813	-0.865334	-0.341933
C88	C	-0.192813	-0.365334	0.158067
C89	C	-0.669340	-0.905413	-0.301893
C90	C	-0.169340	-0.405413	0.198107
C91	C	-0.669309	-0.985588	-0.221829
C92	C	-0.169309	-0.485588	0.278171
C93	C	-0.622393	-0.985566	-0.221821
C94	C	-0.122393	-0.485566	0.278179
C95	C	-0.598951	-0.945467	-0.261849
C96	C	-0.098951	-0.445467	0.238151
C97	C	-0.622424	-0.905391	-0.301885
C98	C	-0.122424	-0.405391	0.198115
C99	C	-0.669368	-0.825237	-0.381968
C100	C	-0.169368	-0.325237	0.118032
C101	C	-0.622447	-0.825224	-0.381960
C102	C	-0.122447	-0.325224	0.118040
C103	C	-0.598974	-0.865303	-0.341920
C104	C	-0.098974	-0.365303	0.158080
C105	C	-0.552066	-0.865270	-0.341905
C106	C	-0.052066	-0.365270	0.158095
N107	N	-0.528591	-0.905351	-0.301872
N108	N	-0.028591	-0.405351	0.198128
C109	C	-0.552033	-0.945450	-0.261844
C110	C	-0.052033	-0.445450	0.238156
C111	C	-0.979016	-0.865448	-0.341962
C112	C	-0.479016	-0.365448	0.158038
C113	C	-1.025933	-0.865466	-0.341967
C114	C	-0.525933	-0.365466	0.158033
C115	C	-1.025900	-0.945648	-0.261902
C116	C	-0.525900	-0.445648	0.238098
C117	C	-0.978981	-0.945627	-0.261895
C118	C	-0.478981	-0.445627	0.238105
C119	C	-0.955540	-0.905529	-0.301929
C120	C	-0.455540	-0.405529	0.198071
C121	C	-0.453507	-0.945400	-0.261830
C122	C	0.046493	-0.445400	0.238170
C123	C	-0.406588	-0.945372	-0.261823
C124	C	0.093412	-0.445372	0.238177
C125	C	-0.406625	-0.865193	-0.341890
C126	C	0.093375	-0.365193	0.158110
C127	C	-0.453541	-0.865218	-0.341894
C128	C	0.046459	-0.365218	0.158106
C129	C	-0.476981	-0.905326	-0.301862
C130	C	0.023019	-0.405326	0.198138
O131	O	-0.527779	-0.831171	-0.375913
O132	O	-0.027779	-0.331171	0.124087
O133	O	-0.527751	-0.979539	-0.227804
O134	O	-0.027751	-0.479539	0.272196
C135	C	-0.739697	-0.945534	-0.261873
C136	C	-0.239697	-0.445534	0.238127
C137	C	-0.763171	-0.905457	-0.301909
C138	C	-0.263171	-0.405457	0.198091
C139	C	-0.739728	-0.865359	-0.341937
C140	C	-0.239728	-0.365359	0.158063
C141	C	-0.810088	-0.905475	-0.301914
C142	C	-0.310088	-0.405475	0.198086
C143	C	-0.833531	-0.945573	-0.261886
C144	C	-0.333531	-0.445573	0.238114
C145	C	-0.810055	-0.985654	-0.221853
C146	C	-0.310055	-0.485654	0.278147
C147	C	-0.763140	-0.985632	-0.221845
C148	C	-0.263140	-0.485632	0.278155
C149	C	-0.763204	-0.825278	-0.381970
C150	C	-0.263204	-0.325278	0.118030
C151	C	-0.810119	-0.825303	-0.381974
C152	C	-0.310119	-0.325303	0.118026
C153	C	-0.833562	-0.865401	-0.341946
C154	C	-0.333562	-0.365401	0.158054
C155	C	-0.099310	-0.905509	-0.301920
C156	C	0.400690	-0.405509	0.198080
C157	C	-0.049376	-0.905564	-0.301939
C158	C	0.450624	-0.405564	0.198061
C159	C	-0.216479	-0.905430	-0.465298
C160	C	0.283521	-0.405430	0.034702
C161	C	-0.216475	-0.905452	-0.534939
C162	C	0.283525	-0.405452	-0.034939
C163	C	-0.216500	-0.068801	-0.301892
C164	C	0.283500	0.431199	0.198108
C165	C	-0.216498	-0.138442	-0.301889
C166	C	0.283502	0.361558	0.198111
C167	C	-0.187744	-0.945556	-0.567670
C168	C	0.312256	-0.445556	-0.067670
C169	C	-0.187725	-0.945555	-0.633105
C170	C	0.312275	-0.445555	-0.133105
C171	C	-0.216445	-0.905457	-0.665808
C172	C	0.283555	-0.405457	-0.165808
C173	C	-0.245178	-0.865346	-0.633070
C174	C	0.254822	-0.365346	-0.133070
C175	C	-0.245194	-0.865343	-0.567635
C176	C	0.254806	-0.365343	-0.067635
C177	C	-0.256896	-0.900471	-0.769472
C178	C	0.243104	-0.400471	-0.269472
C179	C	-0.256881	-0.900477	-0.834905
C180	C	0.243119	-0.400477	-0.334905
C181	C	-0.216397	-0.905461	-0.867629
C182	C	0.283603	-0.405461	-0.367629
C183	C	-0.175927	-0.910451	-0.834912
C184	C	0.324073	-0.410451	-0.334912
C185	C	-0.175942	-0.910448	-0.769477
C186	C	0.324058	-0.410448	-0.269477
C187	C	-0.216431	-0.905455	-0.736760
C188	C	0.283569	-0.405455	-0.236760
C189	C	-0.187643	-0.945566	-0.971311
C190	C	0.312357	-0.445566	-0.471311
C191	C	-0.187623	-0.945561	-1.036748
C192	C	0.312377	-0.445561	-0.536748
C193	C	-0.245080	-0.865354	-1.036711
C194	C	0.254920	-0.365354	-0.536711
C195	C	-0.245096	-0.865356	-0.971276
C196	C	0.254904	-0.365356	-0.471276
C197	C	-0.216378	-0.905465	-0.938580
C198	C	0.283622	-0.405465	-0.438580
C199	C	-0.216465	-0.905362	-0.139087
C200	C	0.283535	-0.405362	0.360913
C201	C	-0.216342	-0.905462	-0.069446
C202	C	0.283658	-0.405462	0.430554
H203	H	-0.268695	-0.144515	-0.374462
H204	H	0.231305	0.355485	0.125538
H205	H	-0.472653	-0.832584	-0.374500
H206	H	0.027347	-0.332584	0.125500
F207	F	-0.275743	-0.822669	-0.667875
F208	F	0.224257	-0.322669	-0.167875
H209	H	-0.829150	-1.018302	-0.189259
H210	H	-0.329150	-0.518302	0.310741
F211	F	-0.835096	-0.782640	-0.424591
F212	F	-0.335096	-0.282640	0.075409
H213	H	-0.164280	-0.666881	-0.229291
H214	H	0.335720	-0.166881	0.270709
H215	H	-0.268691	-0.263221	-0.374455
H216	H	0.231309	0.236779	0.125545
H217	H	-0.164359	-0.978215	-0.541053
H218	H	0.335641	-0.478215	-0.041053
F219	F	-0.275678	-0.822674	-0.936441
F220	F	0.224322	-0.322674	-0.436441
H221	H	-0.143040	-0.346401	-0.293089
H222	H	0.356960	0.153599	0.206911
H223	H	-0.289935	-0.346280	-0.310667
H224	H	0.210065	0.153720	0.189333
H225	H	-0.744031	-1.018268	-0.189241
H226	H	-0.244031	-0.518268	0.310759
F227	F	-0.299988	-0.895180	-0.734650
F228	F	0.200012	-0.395180	-0.234650
H229	H	-0.289835	-0.896418	-0.861538
H230	H	0.210165	-0.396418	-0.361538
F231	F	-0.157101	-0.271425	-0.219310
F232	F	0.342899	0.228575	0.280690
F233	F	-0.157088	-0.539990	-0.219298
F234	F	0.342912	-0.039990	0.280702
H235	H	-0.688472	-0.792598	-0.414569
H236	H	-0.188472	-0.292598	0.085431
F237	F	-1.050857	-0.988322	-0.219300
F238	F	-0.550857	-0.488322	0.280700
F239	F	-0.132837	-0.915757	-0.869733
F240	F	0.367163	-0.415757	-0.369733
H241	H	-1.045041	-0.832824	-0.374565
H242	H	-0.545041	-0.332824	0.125435
H243	H	-0.744121	-0.792626	-0.414566
H244	H	-0.244121	-0.292626	0.085434
H245	H	-0.143036	-0.465105	-0.293100
H246	H	0.356964	0.034895	0.206900
F247	F	-0.300053	-0.473163	-0.311865
F248	F	0.199947	0.026837	0.188135
F249	F	-0.381668	-0.822521	-0.384490
F250	F	0.118332	-0.322521	0.115510
F251	F	-0.694251	-1.028271	-0.179223
F252	F	-0.194251	-0.528271	0.320777
F253	F	-0.597417	-1.028231	-0.179212
F254	F	-0.097417	-0.528231	0.320788
F255	F	-0.275875	-0.539968	-0.384445
F256	F	0.224125	-0.039968	0.115555
F257	F	-0.954004	-0.988284	-0.219280
F258	F	-0.454004	-0.488284	0.280720
H259	H	-0.268589	-0.832683	-0.540987
H260	H	0.231411	-0.332683	-0.040987
H261	H	-0.268682	-0.666858	-0.374427
H262	H	0.231318	-0.166858	0.125573
H263	H	-0.164326	-0.978211	-0.659759
H264	H	0.335674	-0.478211	-0.159759
F265	F	-0.157107	-0.136350	-0.219309
F266	F	0.342893	0.363650	0.280691
F267	F	-0.381608	-0.988031	-0.219205
F268	F	0.118392	-0.488031	0.280795
H269	H	-0.472587	-0.978061	-0.229233
H270	H	0.027413	-0.478061	0.270767
H271	H	-0.164256	-0.978222	-0.944689
H272	H	0.335744	-0.478222	-0.444689
F273	F	-0.954073	-0.822767	-0.384574
F274	F	-0.454073	-0.322767	0.115426
F275	F	-0.275643	-0.822674	-1.071512
F276	F	0.224357	-0.322674	-0.571512
H277	H	-0.603363	-0.792572	-0.414563
H278	H	-0.103363	-0.292572	0.085437
F279	F	-0.132872	-0.915756	-0.734660
F280	F	0.367128	-0.415756	-0.234660
F281	F	-0.157046	-0.988254	-1.071582
F282	F	0.342954	-0.488254	-0.571582
