data_functionalizedCrystal
_audit_creation_method	'MofGen! by Chris Wilmer'
_symmetry_space_group_name_H-M	'P1'
_symmetry_Int_Tables_number	1
_symmetry_cell_setting	triclinic
loop_
_symmetry_equiv_pos_as_xyz
  x,y,z
_cell_length_a	19.077105
_cell_length_b	29.839131
_cell_length_c	19.077174
_cell_angle_alpha	92.270061
_cell_angle_beta	85.483752
_cell_angle_gamma	87.737628
loop_
_atom_site_label
_atom_site_type_symbol
_atom_site_fract_x
_atom_site_fract_y
_atom_site_fract_z
Zn1	Zn	1.093604	-0.218280	-0.441818
Zn2	Zn	1.426938	0.115053	-0.108485
Zn3	Zn	1.760271	0.448386	0.224848
Zn4	Zn	1.088756	-0.290261	-0.323922
Zn5	Zn	1.422089	0.043072	0.009411
Zn6	Zn	1.755423	0.376406	0.342744
Zn7	Zn	0.970992	-0.212000	-0.319217
Zn8	Zn	1.304326	0.121333	0.014117
Zn9	Zn	1.637659	0.454666	0.347450
Zn10	Zn	0.975650	-0.290232	-0.437040
Zn11	Zn	1.308983	0.043102	-0.103707
Zn12	Zn	1.642316	0.376435	0.229626
O13	O	1.032251	-0.252693	-0.380499
O14	O	1.365584	0.080640	-0.047166
O15	O	1.698917	0.413973	0.286167
O16	O	1.191610	-0.230469	-0.430148
O17	O	1.524943	0.102864	-0.096815
O18	O	1.858277	0.436198	0.236518
O19	O	1.069156	-0.277264	-0.224649
O20	O	1.402489	0.056070	0.108685
O21	O	1.735823	0.389403	0.442018
O22	O	0.987337	-0.149969	-0.335510
O23	O	1.320670	0.183364	-0.002177
O24	O	1.654004	0.516698	0.331156
O25	O	1.188048	-0.283353	-0.343531
O26	O	1.521381	0.049980	-0.010197
O27	O	1.854715	0.383314	0.323136
O28	O	1.077420	-0.154583	-0.425585
O29	O	1.410753	0.178750	-0.092252
O30	O	1.744086	0.512084	0.241081
O31	O	0.982636	-0.219766	-0.221191
O32	O	1.315969	0.113567	0.112142
O33	O	1.649302	0.446901	0.445475
O34	O	0.872961	-0.219737	-0.330877
O35	O	1.206295	0.113596	0.002456
O36	O	1.539628	0.446929	0.335789
O37	O	0.995275	-0.283303	-0.536324
O38	O	1.328608	0.050030	-0.202990
O39	O	1.661942	0.383364	0.130343
O40	O	0.876383	-0.277214	-0.417442
O41	O	1.209716	0.056120	-0.084108
O42	O	1.543050	0.389453	0.249225
O43	O	1.081936	-0.230441	-0.539834
O44	O	1.415269	0.102893	-0.206501
O45	O	1.748602	0.436226	0.126833
O46	O	1.073672	-0.353121	-0.338898
O47	O	1.407005	-0.019788	-0.005564
O48	O	1.740339	0.313545	0.327769
O49	O	0.990574	-0.353100	-0.422005
O50	O	1.323907	-0.019766	-0.088671
O51	O	1.657240	0.313567	0.244662
C52	C	0.849094	-0.247791	-0.373131
C53	C	1.182427	0.085542	-0.039797
C54	C	1.515760	0.418875	0.293536
C55	C	0.770739	-0.245705	-0.369995
C56	C	1.104072	0.087628	-0.036662
C57	C	1.437406	0.420961	0.296672
C58	C	0.735725	-0.274692	-0.413521
C59	C	1.069058	0.058642	-0.080187
C60	C	1.402391	0.391975	0.253146
C61	C	0.662102	-0.272726	-0.410578
C62	C	0.995436	0.060608	-0.077244
C63	C	1.328769	0.393941	0.256089
C64	C	0.623495	-0.241776	-0.364105
C65	C	0.956829	0.091558	-0.030772
C66	C	1.290162	0.424891	0.302561
C67	C	0.658514	-0.212786	-0.320578
C68	C	0.991848	0.120547	0.012755
C69	C	1.325181	0.453880	0.346089
C70	C	0.732136	-0.214750	-0.323525
C71	C	1.065469	0.118583	0.009808
C72	C	1.398802	0.451916	0.343142
C73	C	0.403119	-0.232687	-0.350470
C74	C	0.736452	0.100647	-0.017136
C75	C	1.069785	0.433980	0.316197
C76	C	0.329492	-0.230726	-0.347525
C77	C	0.662826	0.102607	-0.014191
C78	C	0.996159	0.435941	0.319142
C79	C	0.333085	-0.290665	-0.437525
C80	C	0.666419	0.042668	-0.104192
C81	C	0.999752	0.376002	0.229141
C82	C	0.406708	-0.292628	-0.440465
C83	C	0.740041	0.040705	-0.107132
C84	C	1.073374	0.374039	0.226201
C85	C	0.441721	-0.263637	-0.396941
C86	C	0.775054	0.069696	-0.063607
C87	C	1.108387	0.403030	0.269726
N88	N	0.548241	-0.239767	-0.361094
N89	N	0.881575	0.093567	-0.027761
N90	N	1.214908	0.426900	0.305572
N91	N	0.516973	-0.265644	-0.399956
N92	N	0.850307	0.067689	-0.066622
N93	N	1.183640	0.401022	0.266711
C94	C	1.032122	-0.369412	-0.380459
C95	C	1.365455	-0.036078	-0.047126
C96	C	1.698789	0.297255	0.286207
C97	C	1.032132	-0.419346	-0.380468
C98	C	1.365466	-0.086013	-0.047135
C99	C	1.698799	0.247320	0.286198
C100	C	1.075605	-0.728996	-0.337295
C101	C	1.408938	-0.395663	-0.003961
C102	C	1.742271	-0.062330	0.329372
C103	C	1.075693	-0.916672	-0.337326
C104	C	1.409026	-0.583339	-0.003992
C105	C	1.742359	-0.250006	0.329341
O106	O	1.112552	-0.940939	-0.300587
O107	O	1.445886	-0.607606	0.032746
O108	O	1.779219	-0.274272	0.366080
N109	N	1.032399	-0.940141	-0.380559
N110	N	1.365732	-0.606807	-0.047225
N111	N	1.699066	-0.273474	0.286108
C112	C	0.989083	-0.916687	-0.423790
C113	C	1.322417	-0.583354	-0.090457
C114	C	1.655750	-0.250021	0.242876
O115	O	0.952267	-0.940955	-0.460568
O116	O	1.285600	-0.607622	-0.127235
O117	O	1.618933	-0.274288	0.206098
C118	C	0.988999	-0.729012	-0.423763
C119	C	1.322333	-0.395679	-0.090429
C120	C	1.655666	-0.062346	0.242904
C121	C	1.032291	-0.705546	-0.380522
C122	C	1.365624	-0.372213	-0.047188
C123	C	1.698957	-0.038879	0.286145
C124	C	1.118893	-0.705530	-0.294058
C125	C	1.452226	-0.372197	0.039275
C126	C	1.785560	-0.038863	0.372609
C127	C	1.118868	-0.658614	-0.294048
C128	C	1.452201	-0.325280	0.039286
C129	C	1.785534	0.008053	0.372619
C130	C	1.075554	-0.635163	-0.337275
C131	C	1.408887	-0.301830	-0.003941
C132	C	1.742221	0.031503	0.329392
C133	C	1.032266	-0.658630	-0.380511
C134	C	1.365599	-0.325296	-0.047178
C135	C	1.698932	0.008037	0.286155
C136	C	0.945688	-0.705560	-0.466997
C137	C	1.279021	-0.372227	-0.133664
C138	C	1.612355	-0.038893	0.199669
C139	C	0.945672	-0.658638	-0.466988
C140	C	1.279006	-0.325305	-0.133655
C141	C	1.612339	0.008028	0.199679
C142	C	0.988964	-0.635172	-0.423747
C143	C	1.322297	-0.301839	-0.090414
C144	C	1.655630	0.031495	0.242920
C145	C	0.988926	-0.588263	-0.423728
C146	C	1.322260	-0.254930	-0.090395
C147	C	1.655593	0.078404	0.242939
N148	N	1.032220	-0.564795	-0.380495
N149	N	1.365554	-0.231461	-0.047162
N150	N	1.698887	0.101872	0.286171
C151	C	1.075534	-0.588245	-0.337268
C152	C	1.408867	-0.254912	-0.003935
C153	C	1.742201	0.078422	0.329398
C154	C	0.989129	-1.015219	-0.423801
C155	C	1.322463	-0.681886	-0.090467
C156	C	1.655796	-0.348553	0.242866
C157	C	0.989149	-1.062138	-0.423807
C158	C	1.322483	-0.728804	-0.090473
C159	C	1.655816	-0.395471	0.242860
C160	C	1.075760	-1.062120	-0.337343
C161	C	1.409093	-0.728786	-0.004010
C162	C	1.742427	-0.395453	0.329324
C163	C	1.075736	-1.015200	-0.337334
C164	C	1.409069	-0.681867	-0.004000
C165	C	1.742402	-0.348533	0.329333
C166	C	1.032423	-0.991751	-0.380568
C167	C	1.365757	-0.658418	-0.047234
C168	C	1.699090	-0.325084	0.286099
C169	C	1.075477	-0.489717	-0.337250
C170	C	1.408811	-0.156384	-0.003917
C171	C	1.742144	0.176949	0.329417
C172	C	1.075446	-0.442797	-0.337242
C173	C	1.408779	-0.109463	-0.003908
C174	C	1.742113	0.223870	0.329425
C175	C	0.988839	-0.442819	-0.423708
C176	C	1.322172	-0.109486	-0.090375
C177	C	1.655505	0.223848	0.242959
C178	C	0.988867	-0.489735	-0.423714
C179	C	1.322200	-0.156402	-0.090381
C180	C	1.655533	0.176931	0.242953
C181	C	1.032192	-0.513183	-0.380483
C182	C	1.365525	-0.179850	-0.047149
C183	C	1.698858	0.153483	0.286184
O184	O	0.952092	-0.563968	-0.460453
O185	O	1.285425	-0.230634	-0.127120
O186	O	1.618759	0.102699	0.206213
O187	O	1.112357	-0.563970	-0.300507
O188	O	1.445690	-0.230636	0.032826
O189	O	1.779023	0.102697	0.366160
C190	C	1.075630	-0.775913	-0.337305
C191	C	1.408963	-0.442579	-0.003972
C192	C	1.742297	-0.109246	0.329362
C193	C	1.032341	-0.799379	-0.380542
C194	C	1.365675	-0.466045	-0.047208
C195	C	1.699008	-0.132712	0.286125
C196	C	0.989028	-0.775929	-0.423769
C197	C	1.322361	-0.442595	-0.090435
C198	C	1.655694	-0.109262	0.242898
C199	C	1.032361	-0.846297	-0.380548
C200	C	1.365695	-0.512964	-0.047215
C201	C	1.699028	-0.179631	0.286119
C202	C	1.075675	-0.869747	-0.337321
C203	C	1.409008	-0.536414	-0.003988
C204	C	1.742342	-0.203081	0.329346
C205	C	1.118969	-0.846279	-0.294088
C206	C	1.452302	-0.512946	0.039245
C207	C	1.785636	-0.179612	0.372579
C208	C	1.118944	-0.799363	-0.294078
C209	C	1.452277	-0.466029	0.039255
C210	C	1.785610	-0.132696	0.372589
C211	C	0.945734	-0.799397	-0.467001
C212	C	1.279067	-0.466064	-0.133668
C213	C	1.612400	-0.132730	0.199665
C214	C	0.945762	-0.846313	-0.467007
C215	C	1.279095	-0.512980	-0.133674
C216	C	1.612429	-0.179647	0.199659
C217	C	0.989076	-0.869763	-0.423781
C218	C	1.322409	-0.536430	-0.090447
C219	C	1.655742	-0.203097	0.242886
C220	C	1.216123	-0.257615	-0.387897
C221	C	1.549456	0.075718	-0.054564
C222	C	1.882789	0.409052	0.278769
C223	C	1.294478	-0.259712	-0.391050
C224	C	1.627811	0.073621	-0.057717
C225	C	1.961145	0.406955	0.275617
C226	C	1.039666	-0.257569	-0.564373
C227	C	1.372999	0.075764	-0.231039
C228	C	1.706332	0.409098	0.102294
C229	C	1.042826	-0.259647	-0.642729
C230	C	1.376159	0.073687	-0.309395
C231	C	1.709492	0.407020	0.023938
C232	C	1.032400	-0.135520	-0.380556
C233	C	1.365733	0.197813	-0.047223
C234	C	1.699066	0.531147	0.286111
C235	C	1.032463	-0.085588	-0.380580
C236	C	1.365796	0.247745	-0.047247
C237	C	1.699130	0.581079	0.286087
C238	C	0.999266	-0.230687	-0.677740
C239	C	1.332599	0.102646	-0.344406
C240	C	1.665932	0.435979	-0.011073
C241	C	1.002232	-0.232643	-0.751363
C242	C	1.335565	0.100690	-0.418030
C243	C	1.668899	0.434023	-0.084697
C244	C	1.048762	-0.263557	-0.789974
C245	C	1.382096	0.069777	-0.456641
C246	C	1.715429	0.403110	-0.123308
C247	C	1.092324	-0.292519	-0.754958
C248	C	1.425657	0.040814	-0.421625
C249	C	1.758991	0.374148	-0.088291
C250	C	1.089354	-0.290565	-0.681336
C251	C	1.422687	0.042768	-0.348002
C252	C	1.756020	0.376102	-0.014669
C253	C	1.062473	-0.272613	-1.010355
C254	C	1.395806	0.060720	-0.677021
C255	C	1.729140	0.394054	-0.343688
C256	C	1.065442	-0.274564	-1.083982
C257	C	1.398775	0.058769	-0.750649
C258	C	1.732108	0.392103	-0.417315
C259	C	0.975348	-0.214688	-1.080382
C260	C	1.308681	0.118645	-0.747049
C261	C	1.642015	0.451978	-0.413716
C262	C	0.972385	-0.212735	-1.006759
C263	C	1.305718	0.120598	-0.673425
C264	C	1.639052	0.453931	-0.340092
C265	C	1.015944	-0.241699	-0.971749
C266	C	1.349277	0.091634	-0.638415
C267	C	1.682611	0.424967	-0.305082
N268	N	1.051797	-0.265556	-0.865230
N269	N	1.385130	0.067778	-0.531896
N270	N	1.718464	0.401111	-0.198563
N271	N	1.012905	-0.239702	-0.896495
N272	N	1.346238	0.093631	-0.563161
N273	N	1.679572	0.426965	-0.229828
C274	C	1.024905	-0.247805	-0.197343
C275	C	1.358238	0.085528	0.135990
C276	C	1.691572	0.418861	0.469323
C277	C	1.021882	-0.245605	-0.118993
C278	C	1.355215	0.087729	0.214340
C279	C	1.688548	0.421062	0.547673
H280	H	0.304570	-0.314267	-0.472962
H281	H	0.637903	0.019066	-0.139628
H282	H	0.971237	0.352399	0.193705
H283	H	1.130207	-0.317692	-0.786401
H284	H	1.463540	0.015642	-0.453068
H285	H	1.796873	0.348975	-0.119734
H286	H	0.438137	-0.317832	-0.478307
H287	H	0.771470	0.015501	-0.144973
H288	H	1.104803	0.348835	0.188360
Cl289	Cl	0.947435	-0.196256	-0.795373
Cl290	Cl	1.280768	0.137078	-0.462040
Cl291	Cl	1.614102	0.470411	-0.128706
Cl292	Cl	0.609980	-0.173874	-0.262160
Cl293	Cl	0.943313	0.159459	0.071174
Cl294	Cl	1.276646	0.492792	0.404507
H295	H	1.154196	-0.780260	-0.258867
H296	H	1.487529	-0.446927	0.074466
H297	H	1.820862	-0.113593	0.407799
H298	H	0.910503	-0.865415	-0.502219
H299	H	1.243836	-0.532082	-0.168885
H300	H	1.577169	-0.198749	0.164448
Cl301	Cl	1.144114	-0.326975	-0.637321
Cl302	Cl	1.477448	0.006359	-0.303988
Cl303	Cl	1.810781	0.339692	0.029345
Cl304	Cl	0.913888	-0.173870	-0.958224
Cl305	Cl	1.247222	0.159463	-0.624891
Cl306	Cl	1.580555	0.492796	-0.291558
Cl307	Cl	0.940770	-0.191821	-0.629207
Cl308	Cl	1.274104	0.141513	-0.295874
Cl309	Cl	1.607437	0.474846	0.037459
H310	H	0.767154	-0.299896	-0.451361
H311	H	1.100487	0.033437	-0.118028
H312	H	1.433820	0.366771	0.215306
Cl313	Cl	0.920589	-0.178281	-1.124399
Cl314	Cl	1.253922	0.155053	-0.791065
Cl315	Cl	1.587256	0.488386	-0.457732
Cl316	Cl	0.934428	-0.519236	-0.478059
Cl317	Cl	1.267761	-0.185902	-0.144726
Cl318	Cl	1.601094	0.147431	0.188607
H319	H	1.097934	-0.296202	-0.981858
H320	H	1.431268	0.037131	-0.648525
H321	H	1.764601	0.370465	-0.315192
H322	H	0.633597	-0.296330	-0.446020
H323	H	0.966931	0.037003	-0.112687
H324	H	1.300264	0.370337	0.220647
H325	H	1.103335	-0.299738	-1.115418
H326	H	1.436669	0.033595	-0.782084
H327	H	1.770002	0.366929	-0.448751
Cl328	Cl	1.130162	-0.985705	-0.282973
Cl329	Cl	1.463495	-0.652371	0.050361
Cl330	Cl	1.796829	-0.319038	0.383694
Cl331	Cl	0.280958	-0.191817	-0.289092
Cl332	Cl	0.614291	0.141516	0.044241
Cl333	Cl	0.947625	0.474849	0.377574
H334	H	0.431617	-0.209083	-0.315023
H335	H	0.764950	0.124250	0.018310
H336	H	1.098284	0.457583	0.351643
H337	H	1.110699	-0.423692	-0.302027
H338	H	1.444032	-0.090358	0.031306
H339	H	1.777366	0.242975	0.364639
Cl340	Cl	0.776154	-0.178308	-0.268807
Cl341	Cl	1.109487	0.155026	0.064527
Cl342	Cl	1.442820	0.488359	0.397860
Cl343	Cl	0.891276	-0.769924	-0.521349
Cl344	Cl	1.224609	-0.436591	-0.188016
Cl345	Cl	1.557943	-0.103257	0.145317
Cl346	Cl	1.129942	-0.519187	-0.282900
Cl347	Cl	1.463276	-0.185854	0.050433
Cl348	Cl	1.796609	0.147479	0.383766
Cl349	Cl	1.173352	-0.735002	-0.239708
Cl350	Cl	1.506686	-0.401668	0.093625
Cl351	Cl	1.840019	-0.068335	0.426959
Cl352	Cl	1.173306	-0.629121	-0.239696
Cl353	Cl	1.506639	-0.295788	0.093638
Cl354	Cl	1.839972	0.037546	0.426971
H355	H	1.111028	-1.081221	-0.302146
H356	H	1.444361	-0.747887	0.031187
H357	H	1.777695	-0.414554	0.364521
Cl358	Cl	0.934715	-1.091632	-0.478161
Cl359	Cl	1.268048	-0.758299	-0.144827
Cl360	Cl	1.601381	-0.424965	0.188506
H361	H	0.910432	-0.724658	-0.502205
H362	H	1.243765	-0.391325	-0.168872
H363	H	1.577099	-0.057991	0.164461
Cl364	Cl	0.891220	-0.629162	-0.521344
Cl365	Cl	1.224553	-0.295829	-0.188011
Cl366	Cl	1.557886	0.037504	0.145323
Cl367	Cl	0.934672	-0.985747	-0.478156
Cl368	Cl	1.268005	-0.652414	-0.144823
Cl369	Cl	1.601338	-0.319080	0.188511
H370	H	0.953571	-0.423718	-0.458901
H371	H	1.286904	-0.090385	-0.125567
H372	H	1.620237	0.242948	0.207766
H373	H	1.154235	-0.865380	-0.258889
H374	H	1.487568	-0.532047	0.074444
H375	H	1.820901	-0.198714	0.407777
