data_functionalizedCrystal
_audit_creation_method	'MofGen! by Chris Wilmer'
_symmetry_space_group_name_H-M	'P1'
_symmetry_Int_Tables_number	1
_symmetry_cell_setting	triclinic
loop_
_symmetry_equiv_pos_as_xyz
  x,y,z
_cell_length_a	15.995350
_cell_length_b	27.731996
_cell_length_c	14.472310
_cell_angle_alpha	89.992904
_cell_angle_beta	89.990621
_cell_angle_gamma	83.056881
loop_
_atom_site_label
_atom_site_type_symbol
_atom_site_fract_x
_atom_site_fract_y
_atom_site_fract_z
O1	O	1.110170	0.062303	-0.076775
O2	O	0.866293	0.069997	-0.076796
O3	O	0.995829	-0.004216	-0.076765
O4	O	0.980635	0.136516	-0.076806
O5	O	0.995795	-0.004212	0.076917
O6	O	0.866260	0.070001	0.076886
O7	O	1.110137	0.062307	0.076907
Cu8	Cu	0.988195	0.066154	0.090929
Cu9	Cu	0.988235	0.066149	-0.090818
O10	O	0.980601	0.136520	0.076876
C11	C	0.835086	0.069681	0.000043
C12	C	0.742148	0.068727	0.000036
C13	C	0.404446	0.065303	0.000056
C14	C	0.452581	0.012450	0.000415
C15	C	0.549259	0.013403	0.000062
C16	C	0.571984	0.067001	0.000047
C17	C	0.530570	0.093068	-0.087717
C18	C	0.433952	0.091740	-0.087784
C19	C	0.433561	0.092837	0.086981
C20	C	0.530506	0.092824	0.088135
C21	C	0.666669	0.067964	0.000038
C22	C	0.309761	0.064341	0.000059
C23	C	0.995500	-0.022223	0.000079
C24	C	0.994560	-0.075883	0.000089
C25	C	0.988663	-0.408627	-0.083729
C26	C	0.985093	-0.610301	-0.083746
O27	O	0.984611	-0.636375	-0.154991
N28	N	0.984632	-0.635517	0.000026
C29	C	0.985057	-0.610312	0.083807
O30	O	0.984574	-0.636387	0.155059
C31	C	0.988621	-0.408639	0.083823
C32	C	0.989091	-0.383426	0.000046
C33	C	0.989132	-0.383413	-0.167499
C34	C	0.990029	-0.332998	-0.167494
C35	C	0.990457	-0.307797	-0.083719
C36	C	0.989988	-0.333011	0.000051
C37	C	0.989041	-0.383434	0.167603
C38	C	0.989930	-0.333013	0.167599
C39	C	0.990399	-0.307799	0.083823
C40	C	0.991313	-0.257394	0.083831
N41	N	0.991775	-0.232177	0.000060
C42	C	0.991347	-0.257379	-0.083715
C43	C	0.983188	-0.716194	0.083793
C44	C	0.982298	-0.766612	0.083789
C45	C	0.982333	-0.766597	-0.083764
C46	C	0.983228	-0.716178	-0.083759
C47	C	0.983649	-0.690977	0.000022
C48	C	0.993231	-0.151504	-0.083699
C49	C	0.994132	-0.101084	-0.083686
C50	C	0.994093	-0.101104	0.083866
C51	C	0.993197	-0.151519	0.083854
C52	C	0.992763	-0.176717	0.000064
O53	O	0.991786	-0.231287	0.155039
O54	O	0.991811	-0.231293	-0.154957
C55	C	0.987766	-0.459042	-0.083734
C56	C	0.987297	-0.484256	0.000036
C57	C	0.987725	-0.459054	0.083811
C58	C	0.986407	-0.534674	0.000032
C59	C	0.985979	-0.559875	-0.083743
C60	C	0.986441	-0.534659	-0.167514
C61	C	0.987338	-0.484244	-0.167509
C62	C	0.987264	-0.484271	0.167582
C63	C	0.986367	-0.534686	0.167570
C64	C	0.985939	-0.559888	0.083795
C65	C	1.141344	0.062623	0.000066
C66	C	1.234282	0.063577	0.000067
C67	C	0.980930	0.154526	0.000030
C68	C	0.981870	0.208187	0.000014
N69	N	0.988174	0.066158	0.218760
N70	N	0.988263	0.066142	-0.218649
C71	C	0.988233	0.066147	0.592851
C72	C	0.918693	0.105724	0.553669
C73	C	0.918850	0.105868	0.446581
C74	C	0.988203	0.066153	0.407260
C75	C	1.075422	0.077168	0.446101
C76	C	1.075030	0.077450	0.553222
C77	C	0.971337	0.015438	0.553394
C78	C	0.969329	0.015776	0.446266
C79	C	0.988192	0.066154	0.302372
C80	C	0.988251	0.066147	0.697739
H81	H	0.415910	0.072728	-0.153379
Br82	Br	0.988550	-0.417606	-0.281209
H83	H	1.128358	0.049761	0.579140
H84	H	0.401282	0.131805	0.087564
Br85	Br	0.422151	-0.022761	0.105320
Br86	Br	0.988400	-0.417639	0.281308
H87	H	0.433280	-0.008582	-0.062166
Br88	Br	0.994775	-0.066869	-0.197391
Br89	Br	0.936678	0.168596	0.403830
Br90	Br	0.862397	0.001840	0.403960
Br91	Br	0.810741	0.094963	0.402809
Br92	Br	0.379341	0.156413	-0.094439
H93	H	0.577404	-0.007228	-0.062949
Br94	Br	0.553267	0.158694	-0.093200
H95	H	0.853628	0.099269	0.579454
H96	H	0.986096	-0.555187	-0.235726
H97	H	0.985991	-0.555211	0.235796
Br98	Br	0.990499	-0.298814	0.281309
H99	H	1.128378	0.049110	0.420629
H100	H	1.016741	-0.015055	0.419504
H101	H	0.559199	0.074960	-0.153022
Br102	Br	0.990661	-0.298788	-0.281197
Br103	Br	1.055874	-0.033651	0.595624
Br104	Br	0.555242	0.157972	0.096953
H105	H	0.992822	-0.172049	0.152072
Br106	Br	1.100018	0.139089	0.594840
Br107	Br	0.994676	-0.066892	0.197555
H108	H	1.090789	0.113729	0.419254
Br109	Br	0.399697	0.064040	0.197858
H110	H	0.577946	-0.007086	0.062975
Br111	Br	0.576316	0.061055	0.196352
H112	H	0.992874	-0.172014	-0.151928
H113	H	0.909154	0.004845	0.580460
H114	H	0.983610	-0.695652	-0.151977
H115	H	0.981985	-0.787124	-0.151976
H116	H	0.981928	-0.787137	0.152009
H117	H	0.987613	-0.463757	0.235803
Br118	Br	0.983752	-0.681999	0.197507
Br119	Br	0.936314	0.168095	0.598481
H120	H	0.987720	-0.463719	-0.235729
