data_functionalizedCrystal
_audit_creation_method	'MofGen! by Chris Wilmer'
_symmetry_space_group_name_H-M	'P1'
_symmetry_Int_Tables_number	1
_symmetry_cell_setting	triclinic
loop_
_symmetry_equiv_pos_as_xyz
  x,y,z
_cell_length_a	13.897449
_cell_length_b	19.805405
_cell_length_c	19.805398
_cell_angle_alpha	90.027637
_cell_angle_beta	89.986236
_cell_angle_gamma	89.972310
loop_
_atom_site_label
_atom_site_type_symbol
_atom_site_fract_x
_atom_site_fract_y
_atom_site_fract_z
Zn1	Zn	1.474578	0.269467	-0.382674
Zn2	Zn	1.474467	0.382652	-0.269482
Zn3	Zn	1.313287	0.269485	-0.269502
Zn4	Zn	1.313224	0.382622	-0.382633
O5	O	1.393889	0.326056	-0.326073
O6	O	1.609545	0.284486	-0.367667
O7	O	1.453066	0.367660	-0.174768
O8	O	1.334755	0.174766	-0.284540
O9	O	1.609463	0.367643	-0.284506
O10	O	1.453255	0.174753	-0.367687
O11	O	1.334647	0.284517	-0.174783
O12	O	1.178297	0.284488	-0.284501
O13	O	1.334648	0.367591	-0.477355
O14	O	1.178251	0.367609	-0.367617
O15	O	1.453194	0.284457	-0.477385
O16	O	1.453005	0.477365	-0.284466
O17	O	1.334541	0.477342	-0.367598
C18	C	1.393780	0.501912	-0.326040
C19	C	1.393822	0.577144	-0.326049
C20	C	1.143275	0.326047	-0.326057
C21	C	1.036061	0.326060	-0.326067
C22	C	1.393927	0.326019	-0.502615
C23	C	1.393943	0.326003	-0.577848
C24	C	0.839765	0.326062	-0.326084
C25	C	0.948998	0.326059	-0.326073
C26	C	1.645482	0.326066	-0.326089
C27	C	1.752696	0.326070	-0.326095
C28	C	1.394024	0.149514	-0.326120
C29	C	1.394082	0.074282	-0.326141
C30	C	1.455566	0.612478	-0.282807
C31	C	1.455607	0.683166	-0.282822
C32	C	1.393898	0.718520	-0.326076
C33	C	1.332151	0.683182	-0.369322
C34	C	1.332116	0.612495	-0.369310
C35	C	1.332294	0.968255	-0.369372
C36	C	1.332332	1.038947	-0.369379
C37	C	1.455785	1.038926	-0.282885
C38	C	1.455750	0.968239	-0.282872
C39	C	1.394007	0.932907	-0.326121
C40	C	1.393964	0.856259	-0.326105
C41	C	1.393935	0.795167	-0.326089
C42	C	1.455786	0.282595	-1.039655
C43	C	1.455771	0.282616	-0.968967
C44	C	1.394042	0.325909	-0.933609
C45	C	1.332331	0.369189	-0.968944
C46	C	1.332351	0.369171	-1.039631
C47	C	1.332247	0.369262	-0.683871
C48	C	1.332229	0.369275	-0.613178
C49	C	1.455666	0.282707	-0.613206
C50	C	1.455687	0.282689	-0.683894
C51	C	1.393980	0.325971	-0.719222
C52	C	1.393998	0.325949	-0.795870
C53	C	1.394018	0.325928	-0.856962
C54	C	1.393907	0.326045	-0.150217
C55	C	1.394077	0.325870	-0.074985
H56	H	1.505813	0.583697	-0.247583
H57	H	1.282074	0.404442	-0.940150
H58	H	1.282000	0.404504	-0.712627
H59	H	1.506063	1.067702	-0.247672
O60	O	1.272375	0.411435	-0.578859
C61	C	1.293408	0.478889	-0.596125
H62	H	1.370468	0.482296	-0.615563
H63	H	1.241690	0.496580	-0.637146
C64	C	1.187505	0.519888	-0.509442
C65	C	1.282154	0.524073	-0.533311
H66	H	1.180559	0.547761	-0.470697
H67	H	1.173331	0.474443	-0.497811
H68	H	1.144417	0.534629	-0.543631
H69	H	1.325239	0.509325	-0.499125
H70	H	1.296335	0.569517	-0.544935
H71	H	1.505885	0.711931	-0.247610
H72	H	1.282082	1.067730	-0.404606
H73	H	1.505950	0.247433	-0.712678
O74	O	1.515785	0.934002	-0.240835
C75	C	1.570277	0.980347	-0.202660
H76	H	1.573615	1.030716	-0.230393
H77	H	1.535009	0.987917	-0.151232
C78	C	1.668834	0.890840	-0.158907
C79	C	1.672940	0.952703	-0.192971
H80	H	1.732160	0.873787	-0.152927
H81	H	1.632119	0.859616	-0.184624
H82	H	1.639439	0.897157	-0.116054
H83	H	1.702323	0.946383	-0.235826
H84	H	1.709662	0.983925	-0.167261
O85	O	1.272214	0.934044	-0.411393
C86	C	1.217768	0.980409	-0.449576
H87	H	1.214494	1.030817	-0.421858
H88	H	1.253034	0.987870	-0.501010
C89	C	1.119099	0.890970	-0.493292
C90	C	1.115071	0.952881	-0.459246
H91	H	1.055751	0.873989	-0.499261
H92	H	1.155782	0.859733	-0.467570
H93	H	1.148491	0.897197	-0.536150
H94	H	1.085690	0.946653	-0.416386
H95	H	1.078380	0.984117	-0.484962
H96	H	1.282103	0.404411	-1.068396
O97	O	1.272312	0.717493	-0.411436
C98	C	1.293306	0.700153	-0.478905
H99	H	1.370352	0.680674	-0.482368
H100	H	1.241554	0.659141	-0.496560
C101	C	1.187442	0.786850	-0.519827
C102	C	1.282074	0.762930	-0.524080
H103	H	1.180509	0.825572	-0.547694
H104	H	1.173294	0.798531	-0.474372
H105	H	1.144326	0.752667	-0.534538
H106	H	1.325186	0.797109	-0.509361
H107	H	1.296228	0.751256	-0.569534
O108	O	1.515841	0.240517	-1.073894
C109	C	1.570286	0.202315	-1.027549
H110	H	1.573589	0.230052	-0.977155
H111	H	1.535000	0.150910	-1.020042
C112	C	1.668906	0.158488	-1.117036
C113	C	1.672969	0.192559	-1.055142
H114	H	1.732245	0.152467	-1.134057
H115	H	1.632223	0.184223	-1.148260
H116	H	1.639497	0.115654	-1.110771
H117	H	1.702367	0.235395	-1.061409
H118	H	1.709660	0.166830	-1.023920
H119	H	1.505914	0.247466	-0.584433
H120	H	1.281839	0.583727	-0.404522
H121	H	1.506022	0.247378	-0.940205
