data_functionalizedCrystal
_audit_creation_method	'MofGen! by Chris Wilmer'
_symmetry_space_group_name_H-M	'P1'
_symmetry_Int_Tables_number	1
_symmetry_cell_setting	triclinic
loop_
_symmetry_equiv_pos_as_xyz
  x,y,z
_cell_length_a	31.640172
_cell_length_b	23.096457
_cell_length_c	31.640172
_cell_angle_alpha	119.986200
_cell_angle_beta	89.986812
_cell_angle_gamma	59.998714
loop_
_atom_site_label
_atom_site_type_symbol
_atom_site_fract_x
_atom_site_fract_y
_atom_site_fract_z
Zr1	Zr	0.407191	0.633643	0.055385
O2	O	0.339699	0.754422	0.122868
O3	O	0.427879	0.512860	0.034700
O4	O	0.427876	0.633621	0.122860
O5	O	0.339706	0.633680	-0.034838
O6	O	0.497433	0.633609	0.122851
O7	O	0.339702	0.633661	0.034708
O8	O	0.497438	0.417589	-0.034852
O9	O	0.339701	0.849700	0.122866
O10	O	0.488613	0.562533	0.025868
O11	O	0.436707	0.562556	-0.026026
O12	O	0.436704	0.704737	0.077772
O13	O	0.384797	0.704760	0.025878
Zr14	Zr	0.518132	0.633655	-0.055547
Zr15	Zr	0.518126	0.633624	0.055370
Zr16	Zr	0.407197	0.633675	-0.055532
Zr17	Zr	0.407193	0.785601	0.055380
Zr18	Zr	0.518129	0.481698	-0.055542
O19	O	0.497444	0.754439	-0.034862
O20	O	0.497435	0.754394	0.122847
O21	O	0.339708	0.754466	-0.034841
O22	O	0.585624	0.512877	-0.123031
O23	O	0.585615	0.512832	0.034679
O24	O	0.427888	0.512904	-0.123010
O25	O	0.585617	0.633618	0.034675
O26	O	0.497447	0.633678	-0.123023
O27	O	0.427890	0.633690	-0.123013
O28	O	0.585621	0.633638	-0.034870
O29	O	0.427880	0.849684	0.122854
O30	O	0.497443	0.417614	-0.123016
O31	O	0.585622	0.417599	-0.123028
O32	O	0.585617	0.417574	-0.034864
O33	O	0.339706	0.849724	0.034701
O34	O	0.427885	0.849709	0.034690
O35	O	0.488619	0.562562	-0.077934
O36	O	0.540526	0.562538	-0.026040
O37	O	0.488616	0.704742	0.025864
O38	O	0.436709	0.704766	-0.026030
C39	C	0.462658	0.443574	-0.000075
C40	C	0.462657	0.379064	-0.000073
C41	C	0.489748	0.348751	0.027017
C42	C	0.489753	0.288128	0.027013
C43	C	0.462657	0.257833	-0.000075
C44	C	0.435564	0.288151	-0.027171
C45	C	0.435564	0.348766	-0.027170
N46	N	0.418560	0.195444	0.003688
N47	N	0.418561	0.137863	0.003690
C48	C	0.462656	0.075201	-0.000080
N49	N	0.506750	0.072303	-0.003841
N50	N	0.506748	0.129891	-0.003840
C51	C	0.462654	0.192106	-0.000079
C52	C	0.489755	-0.020846	0.027007
C53	C	0.489762	-0.081473	0.026999
C54	C	0.435568	-0.081444	-0.027181
C55	C	0.435567	-0.020824	-0.027176
C56	C	0.462659	0.009474	-0.000079
C57	C	0.323898	0.633673	-0.000063
C58	C	0.276803	0.633681	-0.000056
C59	C	0.011894	0.559413	-0.027185
C60	C	-0.165092	0.559398	-0.027195
O61	O	-0.164933	0.496269	-0.050256
N62	N	-0.214318	0.633627	-0.000101
C63	C	-0.219297	0.707864	0.026994
O64	O	-0.265228	0.771000	0.050035
C65	C	-0.042312	0.707877	0.027001
C66	C	0.006913	0.633644	-0.000090
C67	C	0.061117	0.485185	-0.054274
C68	C	0.105360	0.485190	-0.054269
C69	C	0.100380	0.559421	-0.027174
C70	C	0.051157	0.633648	-0.000085
C71	C	-0.047292	0.782114	0.054093
C72	C	-0.003041	0.782111	0.054092
C73	C	0.046185	0.707877	0.027000
C74	C	0.090420	0.707884	0.027015
N75	N	0.139646	0.633656	-0.000079
C76	C	0.144626	0.559424	-0.027174
C77	C	-0.312214	0.707852	0.026990
C78	C	-0.356460	0.707849	0.026989
C79	C	-0.302252	0.559383	-0.027201
C80	C	-0.258005	0.559387	-0.027197
C81	C	-0.262988	0.633623	-0.000104
C82	C	0.237538	0.559439	-0.027160
C83	C	0.281783	0.559450	-0.027151
C84	C	0.227571	0.707915	0.027037
C85	C	0.183330	0.707905	0.027030
C86	C	0.188317	0.633660	-0.000073
O87	O	0.090301	0.770981	0.050059
O88	O	0.190561	0.496298	-0.050220
C89	C	-0.032350	0.559408	-0.027190
C90	C	-0.081573	0.633636	-0.000100
C91	C	-0.086553	0.707867	0.026994
C92	C	-0.125819	0.633632	-0.000101
C93	C	-0.120839	0.559401	-0.027196
C94	C	-0.071613	0.485172	-0.054290
C95	C	-0.027370	0.485177	-0.054285
C96	C	-0.135780	0.782096	0.054088
C97	C	-0.180021	0.782085	0.054081
C98	C	-0.175041	0.707854	0.026987
C99	C	0.601425	0.633625	-0.000100
C100	C	0.648520	0.633617	-0.000106
C101	C	0.462654	0.633610	0.138659
C102	C	0.462651	0.633597	0.185746
C103	C	0.462665	0.823725	-0.000087
C104	C	0.462666	0.888235	-0.000089
C105	C	0.489760	0.559409	0.494957
C106	C	0.489755	0.559386	0.317959
O107	O	0.512816	0.496255	0.272033
N108	N	0.462658	0.633613	0.322918
C109	C	0.435562	0.707852	0.372132
O110	O	0.412518	0.770986	0.372289
C111	C	0.435570	0.707874	0.549129
C112	C	0.462665	0.633641	0.544166
C113	C	0.516853	0.485182	0.489996
C114	C	0.516852	0.485189	0.534243
C115	C	0.489757	0.559422	0.583452
C116	C	0.462664	0.633648	0.588413
C117	C	0.408478	0.782111	0.598342
C118	C	0.408484	0.782110	0.642592
C119	C	0.435579	0.707878	0.637628
C120	C	0.435568	0.707887	0.681869
N121	N	0.462665	0.633660	0.676910
C122	C	0.489760	0.559427	0.627701
C123	C	0.435559	0.707835	0.279204
C124	C	0.435556	0.707829	0.234955
C125	C	0.489750	0.559363	0.180785
C126	C	0.489750	0.559369	0.225035
C127	C	0.462657	0.633607	0.274244
C128	C	0.489755	0.559446	0.720626
C129	C	0.489749	0.559459	0.764879
C130	C	0.435558	0.707925	0.819045
C131	C	0.435561	0.707912	0.774796
C132	C	0.462663	0.633666	0.725585
O133	O	0.412524	0.770984	0.727810
O134	O	0.512810	0.496302	0.627555
C135	C	0.489761	0.559402	0.450710
C136	C	0.462668	0.633628	0.455671
C137	C	0.435573	0.707861	0.504880
C138	C	0.462665	0.633623	0.411422
C139	C	0.489760	0.559390	0.362214
C140	C	0.516858	0.485163	0.357254
C141	C	0.516856	0.485169	0.401502
C142	C	0.408476	0.782088	0.509839
C143	C	0.408479	0.782076	0.465590
C144	C	0.435574	0.707843	0.416381
C145	C	0.462665	0.633686	0.861178
C146	C	0.462654	0.633692	0.814088
C147	C	0.601421	0.443550	-0.000094
C148	C	0.648515	0.379032	-0.000098
C149	C	0.462666	0.443613	-0.138816
C150	C	0.462667	0.379117	-0.185901
C151	C	0.601429	0.443589	-0.138834
C152	C	0.648526	0.379084	-0.185926
C153	C	0.323894	0.823709	0.138672
C154	C	0.276797	0.888214	0.185763
C155	C	0.323902	0.823749	-0.000069
C156	C	0.276808	0.888267	-0.000064
C157	C	0.462657	0.823686	0.138653
C158	C	0.462656	0.888182	0.185738
C159	C	0.643533	0.348731	0.027000
C160	C	0.687778	0.288117	0.027006
C161	C	0.737005	0.257803	-0.000089
C162	C	0.741986	0.288110	-0.027188
C163	C	0.697742	0.348726	-0.027191
C164	C	0.489766	0.348831	-0.235112
C165	C	0.489765	0.288238	-0.279358
C166	C	0.462669	0.257928	-0.274391
C167	C	0.435567	0.288219	-0.225174
C168	C	0.435565	0.348815	-0.180930
C169	C	0.697742	0.348780	-0.180952
C170	C	0.741998	0.288179	-0.225195
C171	C	0.737037	0.257880	-0.274411
C172	C	0.687816	0.288191	-0.279384
C173	C	0.643560	0.348794	-0.235141
C174	C	0.227581	0.918526	0.180790
C175	C	0.183324	0.979145	0.225033
C176	C	0.188286	1.009448	0.274249
C177	C	0.237507	0.979133	0.279222
C178	C	0.281763	0.918519	0.234979
C179	C	0.281790	0.918574	-0.027158
C180	C	0.237545	0.979204	-0.027152
C181	C	0.188318	1.009521	-0.000055
C182	C	0.183336	0.979211	0.027042
C183	C	0.227581	0.918586	0.027038
C184	C	0.489757	0.918474	0.180755
C185	C	0.489766	0.979067	0.224992
C186	C	0.462670	1.009372	0.274212
C187	C	0.435567	0.979074	0.279195
C188	C	0.435562	0.918478	0.234958
H189	H	0.413502	0.373448	-0.049230
H190	H	0.511837	0.263582	-0.319428
H191	H	0.773028	0.208444	-0.000083
H192	H	0.241541	1.003813	0.319299
C193	C	0.405748	0.789485	0.240419
H194	H	0.389618	0.833692	0.276066
H195	H	0.380104	0.792583	0.224296
H196	H	0.429141	0.792562	0.224275
C197	C	0.519565	0.012471	0.056802
H198	H	0.535708	-0.014278	0.072928
H199	H	0.496179	0.069692	0.082444
H200	H	0.545208	0.002534	0.033409
H201	H	0.241610	1.003873	-0.049219
H202	H	0.413503	0.263480	-0.049226
C203	C	0.066605	0.403523	-0.084078
H204	H	0.102260	0.359324	-0.100205
H205	H	0.050477	0.400428	-0.109719
H206	H	0.050471	0.400429	-0.060689
H207	H	0.462678	1.058713	0.310229
H208	H	0.511826	-0.106159	0.049057
H209	H	0.321836	0.893840	0.239035
C210	C	0.378677	0.863774	0.696721
H211	H	0.362538	0.907977	0.693335
H212	H	0.402063	0.866860	0.715102
H213	H	0.353030	0.866870	0.715116
H214	H	0.511810	0.373415	0.049079
H215	H	0.782073	0.263419	-0.049247
H216	H	0.321869	0.893895	-0.049226
H217	H	0.603454	0.373412	0.049070
C218	C	0.405759	1.012422	0.333339
H219	H	0.409642	1.052856	0.358967
H220	H	0.419131	0.968917	0.337231
H221	H	0.370107	1.036087	0.337226
H222	H	-0.396539	0.768297	0.049056
C223	C	0.519551	0.254781	0.056816
H224	H	0.535683	0.281511	0.072956
H225	H	0.545194	0.197558	0.033433
H226	H	0.496153	0.264720	0.082456
H227	H	0.683784	0.263512	-0.319462
C228	C	0.682290	0.254782	0.056810
H229	H	0.646635	0.281510	0.072936
H230	H	0.698416	0.264709	0.082452
H231	H	0.698426	0.197557	0.033422
H232	H	0.462675	0.208587	-0.310422
H233	H	0.701805	0.373390	-0.049260
H234	H	0.152246	1.058803	0.310270
H235	H	0.413490	0.893821	0.239023
C236	C	0.139653	1.076204	-0.000057
H237	H	0.149675	1.089903	-0.020079
H238	H	0.119631	1.123495	0.034458
H239	H	0.119635	1.056343	-0.014566
H240	H	0.511810	0.498920	0.140710
H241	H	0.538920	0.424722	0.397454
H242	H	0.511831	0.373503	-0.239167
C243	C	0.519554	0.477715	0.219571
H244	H	0.535689	0.433508	0.183925
H245	H	0.496165	0.474638	0.235717
H246	H	0.545203	0.474617	0.235693
H247	H	-0.067565	0.424730	-0.076348
H248	H	0.511835	1.003729	0.220925
H249	H	-0.298204	0.498940	-0.049260
C250	C	0.129186	1.012560	0.056841
H251	H	0.103553	1.052998	0.052954
H252	H	0.125292	1.036200	0.092485
H253	H	0.125301	0.969049	0.043456
C254	C	0.519567	0.885144	0.126617
H255	H	0.515683	0.844719	0.100980
H256	H	0.555215	0.861489	0.122733
H257	H	0.506186	0.928665	0.122737
C258	C	0.405763	-0.114762	-0.056976
H259	H	0.409640	-0.155201	-0.053095
H260	H	0.419144	-0.138396	-0.092620
H261	H	0.370111	-0.071242	-0.043589
C262	C	0.405759	0.012532	-0.056969
H263	H	0.389618	-0.014187	-0.073098
H264	H	0.429146	0.002606	-0.082607
H265	H	0.380114	0.069757	-0.033576
H266	H	0.511824	0.498988	0.680561
C267	C	0.335930	0.477790	-0.056956
H268	H	0.332556	0.433582	-0.073098
H269	H	0.354316	0.474692	-0.033573
H270	H	0.354320	0.474714	-0.082595
H271	H	0.701791	0.373441	-0.140882
H272	H	0.223518	0.893912	0.049100
C273	C	0.243030	0.477772	-0.056969
H274	H	0.278685	0.433571	-0.073096
H275	H	0.226904	0.474680	-0.082611
H276	H	0.226894	0.474677	-0.033582
H277	H	-0.217926	0.498939	-0.049262
C278	C	0.159503	0.403532	-0.084076
H279	H	0.156125	0.359328	-0.100215
H280	H	0.177892	0.400429	-0.060696
H281	H	0.177892	0.400454	-0.109717
C282	C	0.546657	0.403509	0.303120
H283	H	0.542775	0.414145	0.277481
H284	H	0.533274	0.373016	0.299251
H285	H	0.582310	0.373000	0.299228
H286	H	0.773077	0.208533	-0.310432
H287	H	0.413490	0.768358	0.778838
H288	H	-0.316280	0.768308	0.049056
H289	H	-0.087367	0.842563	0.076153
C290	C	0.519555	0.477803	0.759419
H291	H	0.515672	0.488433	0.792818
H292	H	0.555204	0.447295	0.741028
H293	H	0.506168	0.447311	0.741046
C294	C	-0.008525	0.863773	0.083898
H295	H	-0.044179	0.907978	0.100033
H296	H	0.007613	0.866870	0.060516
H297	H	0.007602	0.866856	0.109541
H298	H	0.223531	0.893857	0.140719
C299	C	0.129182	0.789559	0.056829
H300	H	0.132555	0.833768	0.072964
H301	H	0.110783	0.792644	0.082464
H302	H	0.110806	0.792645	0.033435
H303	H	0.413500	0.373465	-0.140861
C304	C	0.405765	0.254871	-0.219714
H305	H	0.389621	0.281586	-0.184069
H306	H	0.429159	0.197645	-0.235855
H307	H	0.380124	0.264821	-0.235845
C308	C	0.222101	0.789564	0.056865
H309	H	0.255504	0.778928	0.052989
H310	H	0.203712	0.820030	0.092505
H311	H	0.203719	0.820100	0.043500
C312	C	0.378674	0.863737	0.471057
H313	H	0.362543	0.907944	0.506703
H314	H	0.353030	0.866839	0.454931
H315	H	0.402070	0.866811	0.454914
H316	H	0.603488	0.373460	-0.239198
C317	C	-0.234166	0.863748	0.083883
H318	H	-0.230790	0.907954	0.100014
H319	H	-0.252565	0.866837	0.109520
H320	H	-0.252544	0.866835	0.060490
C321	C	-0.141265	0.863755	0.083898
H322	H	-0.176921	0.907956	0.100035
H323	H	-0.125129	0.866861	0.060522
H324	H	-0.125139	0.866834	0.109541
C325	C	0.546669	0.403533	0.528778
H326	H	0.562809	0.359328	0.493131
H327	H	0.523290	0.400436	0.544920
H328	H	0.572315	0.400450	0.544902
C329	C	0.796135	0.254841	-0.219716
H330	H	0.792748	0.281558	-0.184068
H331	H	0.814530	0.264780	-0.235844
H332	H	0.814523	0.197613	-0.235850
C333	C	0.129188	1.012473	0.219554
H334	H	0.132575	0.985731	0.183905
H335	H	0.110796	1.069695	0.235678
H336	H	0.110797	1.002536	0.235691
H337	H	0.012709	0.424728	-0.076346
C338	C	0.378676	0.863768	0.603812
H339	H	0.362548	0.907972	0.639460
H340	H	0.353030	0.866873	0.587690
H341	H	0.402070	0.866845	0.587669
C342	C	0.405750	0.789502	0.333331
H343	H	0.389609	0.833701	0.329941
H344	H	0.429134	0.792595	0.351714
H345	H	0.380104	0.792596	0.351727
C346	C	0.546657	0.403519	0.435871
H347	H	0.562787	0.359321	0.439262
H348	H	0.572301	0.400410	0.417465
H349	H	0.523262	0.400437	0.417497
C350	C	0.405755	0.789576	0.873177
H351	H	0.389613	0.833788	0.869799
H352	H	0.429146	0.792652	0.891553
H353	H	0.380110	0.792668	0.891572
H354	H	0.386412	0.842539	0.549904
