data_functionalizedCrystal
_audit_creation_method	'MofGen! by Chris Wilmer'
_symmetry_space_group_name_H-M	'P1'
_symmetry_Int_Tables_number	1
_symmetry_cell_setting	triclinic
loop_
_symmetry_equiv_pos_as_xyz
  x,y,z
_cell_length_a	11.169417
_cell_length_b	13.032721
_cell_length_c	11.169417
_cell_angle_alpha	82.831859
_cell_angle_beta	90.000863
_cell_angle_gamma	97.204996
loop_
_atom_site_label
_atom_site_type_symbol
_atom_site_fract_x
_atom_site_fract_y
_atom_site_fract_z
Zn1	Zn	1.773924	-0.416203	0.739203
Zn2	Zn	2.107257	-0.082870	1.072536
Zn3	Zn	2.440591	0.250463	1.405870
Zn4	Zn	1.748350	-0.590926	0.563986
Zn5	Zn	2.081683	-0.257592	0.897319
Zn6	Zn	2.415017	0.075741	1.230652
Zn7	Zn	1.573278	-0.416192	0.538536
Zn8	Zn	1.906611	-0.082858	0.871869
Zn9	Zn	2.239945	0.250475	1.205203
Zn10	Zn	1.547689	-0.590916	0.764629
Zn11	Zn	1.881022	-0.257583	1.097962
Zn12	Zn	2.214356	0.075751	1.431295
O13	O	1.660810	-0.503559	0.651588
O14	O	1.994144	-0.170226	0.984922
O15	O	2.327477	0.163107	1.318255
O16	O	1.938480	-0.439390	0.715970
O17	O	2.271813	-0.106056	1.049303
O18	O	2.605147	0.227277	1.382637
O19	O	1.725133	-0.567746	0.392660
O20	O	2.058466	-0.234413	0.725993
O21	O	2.391799	0.098921	1.059326
O22	O	1.621306	-0.269949	0.543863
O23	O	1.954639	0.063385	0.877197
O24	O	2.287973	0.396718	1.210530
O25	O	1.919691	-0.567757	0.587239
O26	O	2.253024	-0.234424	0.920572
O27	O	2.586358	0.098909	1.253905
O28	O	1.768720	-0.269957	0.691292
O29	O	2.102053	0.063376	1.024626
O30	O	2.435386	0.396709	1.357959
O31	O	1.596508	-0.439370	0.373962
O32	O	1.929841	-0.106036	0.707295
O33	O	2.263175	0.227297	1.040629
O34	O	1.401935	-0.439360	0.568518
O35	O	1.735269	-0.106027	0.901851
O36	O	2.068602	0.227306	1.235184
O37	O	1.577693	-0.567741	0.929206
O38	O	1.911027	-0.234408	1.262539
O39	O	2.244360	0.098926	1.595873
O40	O	1.383135	-0.567730	0.734627
O41	O	1.716468	-0.234396	1.067960
O42	O	2.049802	0.098937	1.401294
O43	O	1.743907	-0.439380	0.910526
O44	O	2.077240	-0.106047	1.243859
O45	O	2.410574	0.227286	1.577192
O46	O	1.700320	-0.737169	0.611893
O47	O	2.033654	-0.403836	0.945226
O48	O	2.366987	-0.070502	1.278560
O49	O	1.552895	-0.737162	0.759305
O50	O	1.886229	-0.403829	1.092638
O51	O	2.219562	-0.070495	1.425971
C52	C	1.348988	-0.503543	0.651571
C53	C	1.682321	-0.170210	0.984904
C54	C	2.015655	0.163123	1.318237
C55	C	1.215585	-0.503562	0.651595
C56	C	1.548919	-0.170228	0.984928
C57	C	1.882252	0.163105	1.318262
C58	C	1.621089	-0.775085	0.691146
C59	C	1.954422	-0.441752	1.024479
C60	C	2.287755	-0.108418	1.357812
C61	C	1.604205	-0.891245	0.708109
C62	C	1.937539	-0.557912	1.041442
C63	C	2.270872	-0.224578	1.374775
C64	C	1.669686	-0.943002	0.642789
C65	C	2.003019	-0.609668	0.976123
C66	C	2.336352	-0.276335	1.309456
C67	C	1.652237	-1.063059	0.660320
C68	C	1.985571	-0.729726	0.993653
C69	C	2.318904	-0.396392	1.326986
C70	C	1.973850	-0.503576	0.651607
C71	C	2.307183	-0.170243	0.984940
C72	C	2.640517	0.163091	1.318274
C73	C	2.107249	-0.503583	0.651615
C74	C	2.440582	-0.170250	0.984948
C75	C	2.773916	0.163084	1.318282
C76	C	1.660799	-0.503561	0.964631
C77	C	1.994132	-0.170228	1.297964
C78	C	2.327465	0.163106	1.631298
C79	C	1.660794	-0.503562	1.098031
C80	C	1.994127	-0.170228	1.431364
C81	C	2.327460	0.163105	1.764698
C82	C	1.700720	-0.230973	0.611903
C83	C	2.034053	0.102360	0.945236
C84	C	2.367386	0.435694	1.278569
C85	C	1.717727	-0.114813	0.594991
C86	C	2.051060	0.218520	0.928325
C87	C	2.384393	0.551854	1.261658
C88	C	1.660805	-0.503577	1.339766
C89	C	1.994138	-0.170243	1.673099
C90	C	2.327472	0.163090	2.006433
C91	C	1.660797	-0.503563	1.206364
C92	C	1.994130	-0.170230	1.539698
C93	C	2.327463	0.163104	1.873031
H94	H	1.738668	-0.898433	0.573893
H95	H	2.072002	-0.565100	0.907226
H96	H	2.405335	-0.231766	1.240559
H97	H	1.786714	-1.070247	0.526090
H98	H	2.120047	-0.736914	0.859424
H99	H	2.453381	-0.403580	1.192757
H100	H	1.535233	-0.935816	0.777014
H101	H	1.868566	-0.602483	1.110347
H102	H	2.201899	-0.269149	1.443680
Cl103	Cl	1.545739	-1.131861	0.766712
Cl104	Cl	1.879073	-0.798527	1.100045
Cl105	Cl	2.212406	-0.465194	1.433379
