data_functionalizedCrystal
_audit_creation_method	'MofGen! by Chris Wilmer'
_symmetry_space_group_name_H-M	'P1'
_symmetry_Int_Tables_number	1
_symmetry_cell_setting	triclinic
loop_
_symmetry_equiv_pos_as_xyz
  x,y,z
_cell_length_a	12.837943
_cell_length_b	7.540329
_cell_length_c	9.065218
_cell_angle_alpha	89.998243
_cell_angle_beta	89.922413
_cell_angle_gamma	89.998130
loop_
_atom_site_label
_atom_site_type_symbol
_atom_site_fract_x
_atom_site_fract_y
_atom_site_fract_z
O1	O	1.379057	-0.147437	0.384029
O2	O	1.879057	0.352563	0.884029
O3	O	1.077074	-0.147448	0.365058
O4	O	1.577074	0.352552	0.865058
O5	O	1.234307	-0.147439	0.160660
O6	O	1.734307	0.352561	0.660660
O7	O	1.221824	-0.147446	0.588427
O8	O	1.721824	0.352554	1.088427
O9	O	1.234298	0.147526	0.160656
O10	O	1.734298	0.647526	0.660656
O11	O	1.077064	0.147517	0.365054
O12	O	1.577064	0.647517	0.865054
O13	O	1.379048	0.147528	0.384024
O14	O	1.879048	0.647528	0.884024
Cu15	Cu	1.228055	0.174455	0.374539
Cu16	Cu	1.728055	0.674455	0.874539
Cu17	Cu	1.228066	-0.174375	0.374544
Cu18	Cu	1.728066	0.325625	0.874544
O19	O	1.221814	0.147519	0.588423
O20	O	1.721814	0.647519	1.088423
C21	C	1.038388	0.000033	0.358647
C22	C	1.538388	0.500033	0.858647
C23	C	0.923132	0.000029	0.339534
C24	C	1.423132	0.500029	0.839534
C25	C	1.233103	0.000041	0.105525
C26	C	1.733103	0.500041	0.605525
C27	C	1.229515	0.000032	-0.058754
C28	C	1.729515	0.500032	0.441246
N29	N	1.228055	0.419804	0.374536
N30	N	1.728055	0.919804	0.874536
C31	C	0.684331	0.000050	0.569311
C32	C	1.184331	0.500050	1.069311
C33	C	0.576036	0.000047	0.551359
C34	C	1.076036	0.500047	1.051359
C35	C	0.598246	0.000033	0.285680
C36	C	1.098246	0.500033	0.785680
C37	C	0.706541	0.000036	0.303632
C38	C	1.206541	0.500036	0.803632
C39	C	0.749579	0.000042	0.445452
C40	C	1.249579	0.500042	0.945452
C41	C	0.857875	0.000032	0.463402
C42	C	1.357875	0.500032	0.963402
C43	C	0.880083	0.000030	0.197725
C44	C	1.380083	0.500030	0.697725
C45	C	0.771789	0.000027	0.179773
C46	C	1.271789	0.500027	0.679773
C47	C	1.417733	0.000043	0.390435
C48	C	1.917733	0.500043	0.890435
C49	C	1.532990	0.000036	0.409548
C50	C	2.032990	0.500036	0.909548
N51	N	1.228075	-0.419724	0.374536
N52	N	1.728075	0.080276	0.874536
C53	C	1.223019	0.000035	0.643557
C54	C	1.723019	0.500035	1.143557
C55	C	1.226606	0.000032	0.807836
C56	C	1.726606	0.500032	1.307836
H57	H	0.719372	0.000052	0.684786
H58	H	1.219372	0.500052	1.184786
H59	H	0.522914	0.000059	0.652219
H60	H	1.022914	0.500059	1.152219
H61	H	0.563185	0.000175	0.170217
H62	H	1.063185	0.500175	0.670217
O63	O	0.904291	0.000054	0.616363
O64	O	1.404291	0.500054	1.116363
H65	H	0.953094	-0.120173	0.630924
H66	H	1.453094	0.379827	1.130924
H67	H	0.736732	0.000043	0.064307
H68	H	1.236732	0.500043	0.564307
O69	O	0.950456	0.000031	0.064118
O70	O	1.450456	0.500031	0.564118
H71	H	1.032992	0.000044	0.100421
H72	H	1.532992	0.500044	0.600421
