data_functionalizedCrystal
_audit_creation_method	'MofGen! by Chris Wilmer'
_symmetry_space_group_name_H-M	'P1'
_symmetry_Int_Tables_number	1
_symmetry_cell_setting	triclinic
loop_
_symmetry_equiv_pos_as_xyz
  x,y,z
_cell_length_a	12.759401
_cell_length_b	15.299816
_cell_length_c	12.759393
_cell_angle_alpha	80.350187
_cell_angle_beta	90.018335
_cell_angle_gamma	80.350473
loop_
_atom_site_label
_atom_site_type_symbol
_atom_site_fract_x
_atom_site_fract_y
_atom_site_fract_z
Zn1	Zn	1.678541	-0.358994	0.666395
Zn2	Zn	1.708810	-0.509838	0.521143
Zn3	Zn	1.502853	-0.359042	0.490744
Zn4	Zn	1.533192	-0.509768	0.696770
O5	O	1.605849	-0.434410	0.593763
O6	O	1.829579	-0.379013	0.647137
O7	O	1.681460	-0.489884	0.370099
O8	O	1.500794	-0.232828	0.488611
O9	O	1.851818	-0.489837	0.540421
O10	O	1.629871	-0.232792	0.617661
O11	O	1.530145	-0.379095	0.347766
O12	O	1.359855	-0.379027	0.518064
O13	O	1.552502	-0.489718	0.839752
O14	O	1.382144	-0.489764	0.669430
O15	O	1.659289	-0.378945	0.817436
O16	O	1.710878	-0.636037	0.569874
O17	O	1.581852	-0.635985	0.698906
C18	C	1.332878	-0.434394	0.593746
C19	C	1.216105	-0.434408	0.593767
C20	C	1.172895	-0.492162	0.672491
C21	C	1.063173	-0.492173	0.672505
C22	C	1.039880	-0.376675	0.515061
C23	C	1.149599	-0.376660	0.515053
C24	C	1.186343	-0.558846	0.763387
C25	C	1.076621	-0.558858	0.763401
C26	C	1.652971	-0.668735	0.641008
C27	C	1.673225	-0.768980	0.661254
C28	C	1.461773	-1.051926	0.449415
C29	C	1.442738	-0.957741	0.430395
C30	C	1.500358	-0.910546	0.488108
C31	C	1.577017	-0.957546	0.564845
C32	C	1.596049	-1.051740	0.583872
C33	C	1.634634	-0.910360	0.622565
C34	C	1.711293	-0.957360	0.699302
C35	C	1.730322	-1.051545	0.718326
C36	C	1.672702	-1.098740	0.660613
C37	C	1.615602	-0.816166	0.603537
C38	C	1.749878	-0.815979	0.737995
C39	C	1.768914	-0.910165	0.757015
C40	C	1.879886	-0.434428	0.593782
C41	C	1.996664	-0.434435	0.593789
C42	C	1.605903	-0.434318	0.867778
C43	C	1.605926	-0.434279	0.984547
C44	C	1.558572	-0.199171	0.546357
C45	C	1.538426	-0.098926	0.526155
C46	C	1.605842	-0.434437	0.320801
C47	C	1.605972	-0.434223	0.203982
C48	C	1.527178	-0.376557	1.137505
C49	C	1.527157	-0.376583	1.027786
C50	C	1.684729	-0.491947	1.051031
C51	C	1.684753	-0.491916	1.160747
C52	C	1.436202	-0.309956	1.124085
C53	C	1.436181	-0.309981	1.014366
H54	H	1.060887	-0.628691	0.755555
H55	H	1.688200	-1.175433	0.676091
Cl56	Cl	1.016370	-0.520364	0.875057
Cl57	Cl	1.226582	-0.530088	0.883268
H58	H	1.358560	-0.328686	0.988351
H59	H	1.184774	-0.329626	0.450954
H60	H	1.553185	-0.777907	0.541058
Cl61	Cl	1.259490	-0.661263	0.738934
Cl62	Cl	1.826673	-1.110628	0.814816
Cl63	Cl	1.448206	-0.202109	1.148341
Cl64	Cl	1.822318	-0.756656	0.810554
H65	H	1.484855	-0.833856	0.472616
H66	H	1.831330	-0.948445	0.819495
Cl67	Cl	1.324654	-0.348578	1.184412
H68	H	1.748922	-0.538865	1.214868
Cl69	Cl	1.346359	-0.898663	0.333941
Cl70	Cl	0.956266	-0.304081	0.416113
Cl71	Cl	1.460575	-0.207554	0.941186
H72	H	1.414862	-1.090361	0.402438
Cl73	Cl	1.783763	-0.564470	0.996671
