data_functionalizedCrystal
_audit_creation_method	'MofGen! by Chris Wilmer'
_symmetry_space_group_name_H-M	'P1'
_symmetry_Int_Tables_number	1
_symmetry_cell_setting	triclinic
loop_
_symmetry_equiv_pos_as_xyz
  x,y,z
_cell_length_a	11.792241
_cell_length_b	11.792241
_cell_length_c	13.930277
_cell_angle_alpha	89.995317
_cell_angle_beta	89.996987
_cell_angle_gamma	84.193416
loop_
_atom_site_label
_atom_site_type_symbol
_atom_site_fract_x
_atom_site_fract_y
_atom_site_fract_z
O1	O	1.506913	0.155567	-0.079738
O2	O	1.176572	0.171600	-0.079760
O3	O	1.349759	-0.001587	-0.079742
O4	O	1.333726	0.328754	-0.079757
O5	O	1.349735	-0.001591	0.079920
O6	O	1.176548	0.171596	0.079901
O7	O	1.506889	0.155563	0.079924
Zn8	Zn	1.341715	0.163579	0.105262
Zn9	Zn	1.341747	0.163584	-0.105099
O10	O	1.333702	0.328750	0.079905
C11	C	1.134269	0.170591	0.000068
C12	C	1.008255	0.167576	0.000059
C13	C	1.348740	-0.043880	0.000089
C14	C	1.345726	-0.169894	0.000087
C15	C	0.777543	0.162034	0.000087
C16	C	0.905928	0.165113	0.000072
C17	C	1.340183	-0.400606	0.000071
C18	C	1.343262	-0.272221	0.000080
C19	C	1.549192	0.156572	0.000094
C20	C	1.675206	0.159587	0.000096
C21	C	1.334721	0.371043	0.000073
C22	C	1.337736	0.497057	0.000068
N23	N	1.341701	0.163575	0.248828
N24	N	1.341769	0.163579	-0.248665
C25	C	1.265056	0.240241	0.701090
C26	C	1.418468	0.086919	0.701075
C27	C	1.418455	0.086915	0.600580
C28	C	1.341742	0.163577	0.550334
C29	C	1.265043	0.240242	0.600585
C30	C	1.495160	0.010259	0.550322
C31	C	1.495151	0.010253	0.449820
C32	C	1.418432	0.086910	0.399573
C33	C	1.341728	0.163578	0.449829
C34	C	1.265016	0.240239	0.399584
C35	C	1.188306	0.316902	0.449838
C36	C	1.188324	0.316899	0.550337
C37	C	1.418414	0.086913	0.299074
C38	C	1.265002	0.240240	0.299079
H39	H	1.202529	0.302664	0.258175
H40	H	1.202597	0.302656	0.742009
H41	H	1.480875	0.024500	0.258161
H42	H	1.125851	0.379326	0.408917
H43	H	1.125870	0.379316	0.591261
N44	N	1.501214	0.004246	0.755263
H45	H	1.489587	0.015882	0.826554
H46	H	1.487610	-0.076364	0.737709
N47	N	1.577905	-0.072412	0.604511
H48	H	1.566269	-0.060781	0.675802
H49	H	1.564309	-0.153023	0.586952
H50	H	1.557610	-0.052171	0.408909
