data_functionalizedCrystal
_audit_creation_method	'MofGen! by Chris Wilmer'
_symmetry_space_group_name_H-M	'P1'
_symmetry_Int_Tables_number	1
_symmetry_cell_setting	triclinic
loop_
_symmetry_equiv_pos_as_xyz
  x,y,z
_cell_length_a	18.050591
_cell_length_b	18.050589
_cell_length_c	16.120297
_cell_angle_alpha	87.124343
_cell_angle_beta	87.117317
_cell_angle_gamma	90.027061
loop_
_atom_site_label
_atom_site_type_symbol
_atom_site_fract_x
_atom_site_fract_y
_atom_site_fract_z
Zn1	Zn	1.114037	-0.316990	0.471313
Zn2	Zn	1.364037	-0.066990	0.721313
Zn3	Zn	1.614037	0.183010	0.971313
Zn4	Zn	1.864037	0.433010	1.221313
Zn5	Zn	1.120235	-0.434885	0.331911
Zn6	Zn	1.370235	-0.184885	0.581911
Zn7	Zn	1.620235	0.065115	0.831911
Zn8	Zn	1.870235	0.315115	1.081911
Zn9	Zn	0.996142	-0.310711	0.331926
Zn10	Zn	1.246142	-0.060711	0.581926
Zn11	Zn	1.496142	0.189289	0.831926
Zn12	Zn	1.746142	0.439289	1.081926
Zn13	Zn	0.989805	-0.441139	0.471288
Zn14	Zn	1.239805	-0.191139	0.721288
Zn15	Zn	1.489805	0.058861	0.971288
Zn16	Zn	1.739805	0.308861	1.221288
O17	O	1.055055	-0.375931	0.401610
O18	O	1.305055	-0.125931	0.651610
O19	O	1.555055	0.124069	0.901610
O20	O	1.805055	0.374069	1.151610
O21	O	1.218784	-0.332639	0.452825
O22	O	1.468784	-0.082639	0.702825
O23	O	1.718784	0.167361	0.952825
O24	O	1.968784	0.417361	1.202825
O25	O	1.109019	-0.413168	0.215249
O26	O	1.359019	-0.163168	0.465249
O27	O	1.609019	0.086832	0.715249
O28	O	1.859019	0.336832	0.965249
O29	O	1.011840	-0.207620	0.350434
O30	O	1.261840	0.042380	0.600434
O31	O	1.511840	0.292380	0.850434
O32	O	1.761840	0.542380	1.100434
O33	O	1.223337	-0.419256	0.350407
O34	O	1.473337	-0.169256	0.600407
O35	O	1.723337	0.080744	0.850407
O36	O	1.973337	0.330744	1.100407
O37	O	1.098456	-0.212233	0.452840
O38	O	1.348456	0.037767	0.702840
O39	O	1.598456	0.287767	0.952840
O40	O	1.848456	0.537767	1.202840
O41	O	1.017849	-0.321938	0.215261
O42	O	1.267849	-0.071938	0.465261
O43	O	1.517849	0.178062	0.715261
O44	O	1.767849	0.428062	0.965261
O45	O	0.891377	-0.328003	0.350409
O46	O	1.141377	-0.078003	0.600409
O47	O	1.391377	0.171997	0.850409
O48	O	1.641377	0.421997	1.100409
O49	O	1.001039	-0.429915	0.587955
O50	O	1.251039	-0.179915	0.837955
O51	O	1.501039	0.070085	1.087955
O52	O	1.751039	0.320085	1.337955
O53	O	0.886722	-0.423827	0.452797
O54	O	1.136722	-0.173827	0.702797
O55	O	1.386722	0.076173	0.952797
O56	O	1.636722	0.326173	1.202797
O57	O	1.092312	-0.338703	0.587974
O58	O	1.342312	-0.088703	0.837974
O59	O	1.592312	0.161297	1.087974
O60	O	1.842312	0.411297	1.337974
O61	O	1.102874	-0.539638	0.350382
O62	O	1.352874	-0.289638	0.600382
O63	O	1.602874	-0.039638	0.850382
O64	O	1.852874	0.210362	1.100382
O65	O	1.007049	-0.544233	0.452782
O66	O	1.257049	-0.294233	0.702782
O67	O	1.507049	-0.044233	0.952782
O68	O	1.757049	0.205767	1.202782
C69	C	0.862103	-0.375913	0.401603
C70	C	1.112103	-0.125913	0.651603
C71	C	1.362103	0.124087	0.901603
C72	C	1.612103	0.374087	1.151603
C73	C	0.779556	-0.375924	0.401620
C74	C	1.029556	-0.125924	0.651620
C75	C	1.279556	0.124076	0.901620
C76	C	1.529556	0.374076	1.151620
C77	C	0.528224	-0.428132	0.457222
C78	C	0.778224	-0.178132	0.707222
C79	C	1.028224	0.071868	0.957222
C80	C	1.278224	0.321868	1.207222
C81	C	0.581026	-0.442771	0.381129
C82	C	0.831026	-0.192771	0.631129
C83	C	1.081026	0.057229	0.881129
C84	C	1.331026	0.307229	1.131129
C85	C	0.482436	-0.375947	0.401618
C86	C	0.732436	-0.125947	0.651618
C87	C	0.982436	0.124053	0.901618
C88	C	1.232436	0.374053	1.151618
C89	C	0.576716	-0.361332	0.477708
C90	C	0.826716	-0.111332	0.727708
C91	C	1.076716	0.138668	0.977708
C92	C	1.326716	0.388668	1.227708
C93	C	0.628421	-0.375937	0.401623
C94	C	0.878421	-0.125937	0.651623
C95	C	1.128421	0.124063	0.901623
C96	C	1.378421	0.374063	1.151623
C97	C	0.534152	-0.390619	0.325484
C98	C	0.784152	-0.140619	0.575484
C99	C	1.034152	0.109381	0.825484
C100	C	1.284152	0.359381	1.075484
C101	C	0.529836	-0.309151	0.422115
C102	C	0.779836	-0.059151	0.672115
C103	C	1.029836	0.190849	0.922115
C104	C	1.279836	0.440849	1.172115
C105	C	0.582618	-0.323761	0.345968
C106	C	0.832618	-0.073761	0.595968
C107	C	1.082618	0.176239	0.845968
C108	C	1.332618	0.426239	1.095968
C109	C	0.398338	-0.375954	0.401616
C110	C	0.648338	-0.125954	0.651616
C111	C	0.898338	0.124046	0.901616
C112	C	1.148338	0.374046	1.151616
C113	C	0.712518	-0.375930	0.401616
C114	C	0.962518	-0.125930	0.651616
C115	C	1.212518	0.124070	0.901616
C116	C	1.462518	0.374070	1.151616
C117	C	1.054966	-0.568883	0.401596
C118	C	1.304966	-0.318883	0.651596
C119	C	1.554966	-0.068883	0.901596
C120	C	1.804966	0.181117	1.151596
C121	C	1.054994	-0.651429	0.401618
C122	C	1.304994	-0.401429	0.651618
C123	C	1.554994	-0.151429	0.901618
C124	C	1.804994	0.098571	1.151618
C125	C	1.002934	-0.853405	0.457283
C126	C	1.252934	-0.603405	0.707283
C127	C	1.502934	-0.353405	0.957283
C128	C	1.752934	-0.103405	1.207283
C129	C	0.988267	-0.899407	0.381211
C130	C	1.238267	-0.649407	0.631211
C131	C	1.488267	-0.399407	0.881211
C132	C	1.738267	-0.149407	1.131211
C133	C	1.055067	-0.802560	0.401629
C134	C	1.305067	-0.552560	0.651629
C135	C	1.555067	-0.302560	0.901629
C136	C	1.805067	-0.052560	1.151629
C137	C	1.069770	-0.903640	0.477710
C138	C	1.319770	-0.653640	0.727710
C139	C	1.569770	-0.403640	0.977710
C140	C	1.819770	-0.153640	1.227710
C141	C	1.055135	-0.948546	0.401646
C142	C	1.305135	-0.698546	0.651646
C143	C	1.555135	-0.448546	0.901646
C144	C	1.805135	-0.198546	1.151646
C145	C	1.040366	-0.847473	0.325516
C146	C	1.290366	-0.597473	0.575516
C147	C	1.540366	-0.347473	0.825516
C148	C	1.790366	-0.097473	1.075516
C149	C	1.121898	-0.851705	0.422066
C150	C	1.371898	-0.601705	0.672066
C151	C	1.621898	-0.351705	0.922066
C152	C	1.871898	-0.101705	1.172066
C153	C	1.107259	-0.897682	0.345941
C154	C	1.357259	-0.647682	0.595941
C155	C	1.607259	-0.397682	0.845941
C156	C	1.857259	-0.147682	1.095941
C157	C	1.055026	-0.718462	0.401620
C158	C	1.305026	-0.468462	0.651620
C159	C	1.555026	-0.218462	0.901620
C160	C	1.805026	0.031538	1.151620
C161	C	1.055177	-1.032643	0.401646
C162	C	1.305177	-0.782643	0.651646
C163	C	1.555177	-0.532643	0.901646
C164	C	1.805177	-0.282643	1.151646
C165	C	1.248760	-0.375950	0.401617
C166	C	1.498760	-0.125950	0.651617
C167	C	1.748760	0.124050	0.901617
C168	C	1.998760	0.374050	1.151617
C169	C	1.331306	-0.375958	0.401620
C170	C	1.581306	-0.125958	0.651620
C171	C	1.831306	0.124042	0.901620
C172	C	2.081306	0.374042	1.151620
C173	C	1.045277	-0.385707	0.619060
C174	C	1.295277	-0.135707	0.869060
C175	C	1.545277	0.114293	1.119060
C176	C	1.795277	0.364293	1.369060
C177	C	1.041111	-0.389873	0.711724
C178	C	1.291111	-0.139873	0.961724
C179	C	1.541111	0.110127	1.211724
C180	C	1.791111	0.360127	1.461724
C181	C	1.055164	-0.182227	0.401642
C182	C	1.305164	0.067773	0.651642
C183	C	1.555164	0.317773	0.901642
C184	C	1.805164	0.567773	1.151642
C185	C	1.055210	-0.099682	0.401655
C186	C	1.305210	0.150318	0.651655
C187	C	1.555210	0.400318	0.901655
C188	C	1.805210	0.650318	1.151655
C189	C	1.064837	-0.366140	0.185005
C190	C	1.314837	-0.116140	0.435005
C191	C	1.564837	0.133860	0.685005
C192	C	1.814837	0.383860	0.935005
C193	C	1.069148	-0.361765	0.092342
C194	C	1.319148	-0.111765	0.342342
C195	C	1.569148	0.138235	0.592342
C196	C	1.819148	0.388235	0.842342
C197	C	1.033476	-0.397462	0.881383
C198	C	1.283476	-0.147462	1.131383
C199	C	1.533476	0.102538	1.381383
C200	C	1.783476	0.352538	1.631383
C201	C	1.076780	-0.354178	0.922688
C202	C	1.326780	-0.104178	1.172688
C203	C	1.576780	0.145822	1.422688
C204	C	1.826780	0.395822	1.672688
C205	C	1.072532	-0.358400	1.017092
C206	C	1.322532	-0.108400	1.267092
C207	C	1.572532	0.141600	1.517092
C208	C	1.822532	0.391600	1.767092
C209	C	1.037723	-0.393240	0.786970
C210	C	1.287723	-0.143240	1.036970
C211	C	1.537723	0.106760	1.286970
C212	C	1.787723	0.356760	1.536970
H213	H	0.507363	-0.252684	0.439477
H214	H	0.757363	-0.002684	0.689477
H215	H	1.007363	0.247316	0.939477
H216	H	1.257363	0.497316	1.189477
H217	H	0.993217	-0.437688	0.916917
H218	H	1.243217	-0.187688	1.166917
H219	H	1.493217	0.062312	1.416917
H220	H	1.743217	0.312312	1.666917
H221	H	0.504426	-0.472297	0.504184
H222	H	0.754426	-0.222297	0.754184
H223	H	1.004426	0.027703	1.004184
H224	H	1.254426	0.277703	1.254184
H225	H	0.515435	-0.403045	0.261120
H226	H	0.765435	-0.153045	0.511120
H227	H	1.015435	0.096955	0.761120
H228	H	1.265435	0.346955	1.011120
F229	F	1.129420	-0.301608	0.876242
F230	F	1.379420	-0.051608	1.126242
F231	F	1.629420	0.198392	1.376242
F232	F	1.879420	0.448392	1.626242
H233	H	0.606284	-0.279623	0.298893
H234	H	0.856284	-0.029623	0.548893
H235	H	1.106284	0.220377	0.798893
H236	H	1.356284	0.470377	1.048893
F237	F	0.610381	-0.516598	0.358465
F238	F	0.860381	-0.266598	0.608465
F239	F	1.110381	-0.016598	0.858465
F240	F	1.360381	0.233402	1.108465
H241	H	0.595526	-0.348973	0.542054
H242	H	0.845526	-0.098973	0.792054
H243	H	1.095526	0.151027	1.042054
H244	H	1.345526	0.401027	1.292054
F245	F	0.945235	-0.827879	0.518715
F246	F	1.195235	-0.577879	0.768715
F247	F	1.445235	-0.327879	1.018715
F248	F	1.695235	-0.077879	1.268715
F249	F	0.914434	-0.926831	0.358617
F250	F	1.164434	-0.676831	0.608617
F251	F	1.414434	-0.426831	0.858617
F252	F	1.664434	-0.176831	1.108617
H253	H	1.027891	-0.823004	0.261164
H254	H	1.277891	-0.573004	0.511164
H255	H	1.527891	-0.323004	0.761164
H256	H	1.777891	-0.073004	1.011164
F257	F	1.164928	-0.923021	0.284365
F258	F	1.414928	-0.673021	0.534365
F259	F	1.664928	-0.423021	0.784365
F260	F	1.914928	-0.173021	1.034365
H261	H	1.082179	-0.928198	0.542044
H262	H	1.332179	-0.678198	0.792044
H263	H	1.582179	-0.428198	1.042044
H264	H	1.832179	-0.178198	1.292044
F265	F	1.195710	-0.824259	0.444687
F266	F	1.445710	-0.574259	0.694687
F267	F	1.695710	-0.324259	0.944687
F268	F	1.945710	-0.074259	1.194687
