data_functionalizedCrystal
_audit_creation_method	'MofGen! by Chris Wilmer'
_symmetry_space_group_name_H-M	'P1'
_symmetry_Int_Tables_number	1
_symmetry_cell_setting	triclinic
loop_
_symmetry_equiv_pos_as_xyz
  x,y,z
_cell_length_a	11.792241
_cell_length_b	9.065218
_cell_length_c	7.540329
_cell_angle_alpha	89.998628
_cell_angle_beta	89.997406
_cell_angle_gamma	95.395350
loop_
_atom_site_label
_atom_site_type_symbol
_atom_site_fract_x
_atom_site_fract_y
_atom_site_fract_z
O1	O	1.508026	-0.202221	0.147302
O2	O	2.008026	0.297779	0.647302
O3	O	1.177800	-0.223062	0.147343
O4	O	1.677800	0.276938	0.647343
O5	O	1.349739	0.002065	0.147318
O6	O	1.849739	0.502065	0.647318
O7	O	1.336087	-0.427348	0.147327
O8	O	1.836087	0.072652	0.647327
O9	O	1.349733	0.002066	-0.147647
O10	O	1.849733	0.502066	0.352353
O11	O	1.177794	-0.223061	-0.147622
O12	O	1.677794	0.276939	0.352378
O13	O	1.508020	-0.202219	-0.147663
O14	O	2.008020	0.297781	0.352337
Cu15	Cu	1.342906	-0.212640	-0.174575
Cu16	Cu	1.842906	0.287360	0.325425
Cu17	Cu	1.342914	-0.212642	0.174255
Cu18	Cu	1.842914	0.287358	0.674255
O19	O	1.336081	-0.427346	-0.147638
O20	O	1.836081	0.072654	0.352362
C21	C	1.348424	0.057040	-0.000161
C22	C	1.848424	0.557040	0.499839
C23	C	1.344501	0.220846	-0.000152
C24	C	1.844501	0.720846	0.499848
C25	C	1.135499	-0.221752	-0.000134
C26	C	1.635499	0.278248	0.499866
C27	C	1.009464	-0.217834	-0.000119
C28	C	1.509464	0.282166	0.499881
N29	N	1.342910	-0.212638	-0.419923
N30	N	1.842910	0.287362	0.080077
C31	C	0.778711	-0.210629	-0.000170
C32	C	1.278711	0.289371	0.499830
C33	C	0.907119	-0.214632	-0.000142
C34	C	1.407119	0.285368	0.499858
C35	C	1.550321	-0.203529	-0.000181
C36	C	2.050321	0.296471	0.499819
C37	C	1.676356	-0.207448	-0.000185
C38	C	2.176356	0.292552	0.499815
C39	C	1.337396	-0.482322	-0.000154
C40	C	1.837396	0.017678	0.499846
C41	C	1.341319	-0.646128	-0.000152
C42	C	1.841319	-0.146128	0.499848
N43	N	1.342919	-0.212633	0.419604
N44	N	1.842919	0.287367	0.919604
