data_functionalizedCrystal
_audit_creation_method	'MofGen! by Chris Wilmer'
_symmetry_space_group_name_H-M	'P1'
_symmetry_Int_Tables_number	1
_symmetry_cell_setting	triclinic
loop_
_symmetry_equiv_pos_as_xyz
  x,y,z
_cell_length_a	6.817900
_cell_length_b	11.168152
_cell_length_c	11.168130
_cell_angle_alpha	92.019895
_cell_angle_beta	108.508653
_cell_angle_gamma	108.508980
loop_
_atom_site_label
_atom_site_type_symbol
_atom_site_fract_x
_atom_site_fract_y
_atom_site_fract_z
V1	V	-4.109886	-0.393709	-0.174724
O2	O	-4.069470	-0.386204	0.008377
O3	O	-4.086174	-0.391027	-0.346429
O4	O	-4.086178	-0.565415	-0.172045
O5	O	-4.069466	-0.210609	-0.167215
V6	V	-4.587115	-0.371808	-0.152822
O7	O	-4.384950	-0.441752	-0.222767
O8	O	-4.762249	-0.323765	-0.104778
O9	O	-4.387621	-0.374491	0.018883
O10	O	-4.744928	-0.379313	-0.335922
O11	O	-4.744932	-0.554908	-0.160331
O12	O	-4.387617	-0.200102	-0.155501
C13	C	-3.936382	-0.384818	-0.388286
C14	C	-3.998446	-0.383769	-0.528658
C15	C	-4.033446	-0.272327	-0.719172
C16	C	-3.969299	-0.273409	-0.574091
C17	C	-3.936385	-0.607266	-0.165841
C18	C	-3.998448	-0.747637	-0.164786
C19	C	-3.851279	-0.804107	-0.158327
C20	C	-3.915420	-0.949187	-0.157238
C21	C	-4.200755	-0.380696	0.060734
C22	C	-4.117931	-0.381753	0.201104
C23	C	-4.200751	-0.158244	-0.161709
C24	C	-4.117925	-0.017873	-0.162757
H25	H	-4.142760	-0.476236	-0.759741
O26	O	-3.883138	-0.161734	-0.492269
C27	C	-4.020708	-0.161458	-0.421041
H28	H	-4.122227	-0.264029	-0.419113
H29	H	-4.136012	-0.108138	-0.467167
C30	C	-3.753402	0.031354	-0.285897
C31	C	-3.878076	-0.094626	-0.283521
H32	H	-3.665424	0.072583	-0.201070
H33	H	-3.660721	0.031172	-0.333888
H34	H	-3.849511	0.075770	-0.324341
H35	H	-3.781967	-0.139044	-0.245092
H36	H	-3.970739	-0.094450	-0.235520
H37	H	-3.789525	-0.997773	-0.151697
O38	O	-4.085214	-0.495588	-0.610315
C39	C	-4.282162	-0.572220	-0.595238
H40	H	-4.353308	-0.509061	-0.552618
H41	H	-4.246158	-0.643640	-0.528653
C42	C	-4.362441	-0.722341	-0.778635
C43	C	-4.449834	-0.644767	-0.726298
H44	H	-4.465868	-0.767097	-0.859477
H45	H	-4.229750	-0.670716	-0.788791
H46	H	-4.332441	-0.781847	-0.723135
H47	H	-4.479807	-0.585252	-0.781790
H48	H	-4.582535	-0.696384	-0.716154
H49	H	-4.171935	-0.806698	-0.169517
H50	H	-4.008597	-0.177843	-0.758326
H51	H	-4.243827	-0.969294	-0.168287
H52	H	-3.677800	-0.745048	-0.153611
