data_functionalizedCrystal
_audit_creation_method	'MofGen! by Chris Wilmer'
_symmetry_space_group_name_H-M	'P1'
_symmetry_Int_Tables_number	1
_symmetry_cell_setting	triclinic
loop_
_symmetry_equiv_pos_as_xyz
  x,y,z
_cell_length_a	18.050591
_cell_length_b	18.050589
_cell_length_c	18.050568
_cell_angle_alpha	89.906844
_cell_angle_beta	89.933494
_cell_angle_gamma	90.024227
loop_
_atom_site_label
_atom_site_type_symbol
_atom_site_fract_x
_atom_site_fract_y
_atom_site_fract_z
Zn1	Zn	1.135627	-0.295236	-0.420055
Zn2	Zn	1.135439	-0.419582	-0.295874
Zn3	Zn	1.011347	-0.295402	-0.295866
Zn4	Zn	1.011394	-0.419380	-0.420010
O5	O	1.073452	-0.357400	-0.357951
O6	O	1.239527	-0.311746	-0.403605
O7	O	1.118879	-0.403263	-0.191948
O8	O	1.027892	-0.191455	-0.312355
O9	O	1.239388	-0.403102	-0.312369
O10	O	1.119200	-0.191333	-0.403596
O11	O	1.027710	-0.312028	-0.191942
O12	O	0.907429	-0.311832	-0.312311
O13	O	1.027972	-0.402759	-0.523941
O14	O	0.907463	-0.402919	-0.403520
O15	O	1.119246	-0.311550	-0.523974
O16	O	1.118925	-0.523480	-0.312326
O17	O	1.027790	-0.523332	-0.403528
C18	C	0.880500	-0.357372	-0.357910
C19	C	0.797954	-0.357378	-0.357910
C20	C	1.073362	-0.550352	-0.357939
C21	C	1.073392	-0.632898	-0.357958
C22	C	0.598463	-0.307788	-0.308425
C23	C	0.549029	-0.375548	-0.290155
C24	C	0.646824	-0.357401	-0.357944
C25	C	0.549176	-0.289665	-0.376213
C26	C	0.500838	-0.357417	-0.357975
C27	C	0.598476	-0.425196	-0.339637
C28	C	0.598628	-0.339268	-0.425727
C29	C	0.549216	-0.407074	-0.407482
C30	C	0.730922	-0.357391	-0.357924
C31	C	0.416742	-0.357434	-0.357995
C32	C	1.023881	-0.832295	-0.407537
C33	C	1.005729	-0.881816	-0.339767
C34	C	1.073465	-0.784028	-0.357968
C35	C	1.091653	-0.881588	-0.425745
C36	C	1.073534	-0.930013	-0.357984
C37	C	1.055277	-0.832462	-0.290163
C38	C	1.141232	-0.832230	-0.376187
C39	C	1.123106	-0.881729	-0.308370
C40	C	1.073423	-0.699930	-0.357960
C41	C	1.073576	-1.014110	-0.357984
C42	C	1.267157	-0.357428	-0.357993
C43	C	1.349703	-0.357440	-0.358011
C44	C	1.073635	-0.357114	-0.551657
C45	C	1.073713	-0.356992	-0.634204
C46	C	1.073562	-0.163694	-0.357980
C47	C	1.073609	-0.081148	-0.357992
C48	C	1.073312	-0.357632	-0.164999
C49	C	1.073378	-0.357544	-0.082453
C50	C	1.123507	-0.406499	0.166406
C51	C	1.141185	-0.338678	0.116789
C52	C	1.073600	-0.357176	0.214667
C53	C	1.055848	-0.425175	0.117203
C54	C	1.073493	-0.357361	0.068682
C55	C	1.091314	-0.289318	0.166136
C56	C	1.005945	-0.375861	0.166555
C57	C	1.023596	-0.307994	0.116959
C58	C	1.073664	-0.357071	0.298765
C59	C	1.073429	-0.357458	-0.015415
H60	H	0.620087	-0.265877	-0.266504
O61	O	1.173155	-0.907592	-0.258371
C62	C	1.173054	-0.985695	-0.259339
H63	H	1.150984	-1.005947	-0.314884
H64	H	1.136147	-1.007376	-0.212813
C65	C	1.279718	-0.989492	-0.179994
C66	C	1.252618	-1.014366	-0.248217
H67	H	1.328796	-1.007179	-0.173130
H68	H	1.279785	-0.936873	-0.179339
H69	H	1.248956	-1.007562	-0.141229
H70	H	1.283375	-0.996288	-0.286981
H71	H	1.252558	-1.066983	-0.248879
H72	H	0.527481	-0.232382	-0.391626
H73	H	0.620429	-0.323898	-0.483020
H74	H	0.948793	-0.391610	0.188424
H75	H	0.981341	-0.266315	0.095392
O76	O	1.036855	-0.806705	-0.221822
C77	C	1.037028	-0.728597	-0.222643
H78	H	1.028767	-0.708058	-0.281813
H79	H	1.092289	-0.707440	-0.200639
C80	C	0.983873	-0.724830	-0.100659
C81	C	0.973720	-0.699603	-0.173332
H82	H	0.944824	-0.706943	-0.070239
H83	H	0.983758	-0.777452	-0.100104
H84	H	1.029926	-0.707197	-0.082333
H85	H	0.927672	-0.717244	-0.191660
H86	H	0.973825	-0.646983	-0.173888
H87	H	1.198496	-0.810436	-0.391614
O88	O	0.973687	-0.806430	-0.457391
C89	C	0.902351	-0.831717	-0.437918
H90	H	0.900948	-0.845678	-0.376317
H91	H	0.888454	-0.883354	-0.471433
C92	C	0.846815	-0.753576	-0.530245
C93	C	0.845091	-0.770718	-0.454584
H94	H	0.811494	-0.715952	-0.540528
H95	H	0.894876	-0.736542	-0.543367
H96	H	0.835237	-0.796613	-0.558165
H97	H	0.856679	-0.727685	-0.426665
H98	H	0.797031	-0.787744	-0.441458
O99	O	1.209331	-0.319892	0.090589
C100	C	1.208150	-0.319615	0.012489
H101	H	1.148855	-0.311413	-0.007581
H102	H	1.230259	-0.374686	-0.009040
C103	C	1.329917	-0.266073	0.008018
C104	C	1.257091	-0.255992	-0.016632
H105	H	1.360109	-0.226830	-0.009946
H106	H	1.330715	-0.266262	0.060635
H107	H	1.348332	-0.311968	-0.009924
H108	H	1.238675	-0.210103	0.001318
H109	H	1.256292	-0.255794	-0.069247
H110	H	0.527245	-0.390897	-0.232845
O111	O	1.109891	-0.907249	-0.494172
C112	C	1.057419	-0.882074	-0.546240
H113	H	1.029103	-0.830137	-0.524200
H114	H	1.014191	-0.927084	-0.555914
C115	C	1.131528	-0.927722	-0.646888
C116	C	1.096753	-0.863928	-0.619822
H117	H	1.155790	-0.916531	-0.692278
H118	H	1.166878	-0.944685	-0.611810
H119	H	1.095498	-0.965224	-0.654944
H120	H	1.132784	-0.826431	-0.611758
H121	H	1.061410	-0.846958	-0.654901
H122	H	0.620043	-0.482504	-0.324135
O123	O	0.523608	-0.457290	-0.457372
C124	C	0.548879	-0.528591	-0.437862
H125	H	0.562583	-0.529997	-0.376241
H126	H	0.600670	-0.542381	-0.471304
C127	C	0.471177	-0.584222	-0.530297
C128	C	0.488003	-0.585951	-0.454613
H129	H	0.433629	-0.619606	-0.540633
H130	H	0.454154	-0.536186	-0.543444
H131	H	0.514342	-0.595712	-0.558157
H132	H	0.444842	-0.574452	-0.426755
H133	H	0.505018	-0.633987	-0.441462
O134	O	1.173889	-0.456094	0.192436
C135	C	1.172819	-0.455784	0.270540
H136	H	1.117066	-0.434079	0.290769
H137	H	1.219010	-0.418467	0.291971
C138	C	1.253042	-0.561834	0.274730
C139	C	1.184563	-0.535181	0.299577
H140	H	1.260289	-0.610809	0.292643
H141	H	1.253765	-0.562042	0.222111
H142	H	1.291527	-0.530730	0.292592
H143	H	1.146079	-0.566280	0.281708
H144	H	1.183833	-0.534981	0.352195
O145	O	1.109274	-0.220837	0.191797
C146	C	1.109125	-0.221568	0.269905
H147	H	1.117798	-0.280662	0.290505
H148	H	1.053718	-0.199880	0.291092
C149	C	1.161442	-0.099256	0.273479
C150	C	1.172100	-0.171836	0.298780
H151	H	1.200285	-0.068577	0.291292
H152	H	1.161540	-0.098762	0.220856
H153	H	1.115267	-0.081193	0.291137
H154	H	1.218269	-0.189901	0.281115
H155	H	1.172011	-0.172332	0.351401
H156	H	0.948453	-0.903613	-0.324372
H157	H	1.040878	-0.482603	0.095699
