data_functionalizedCrystal
_audit_creation_method	'MofGen! by Chris Wilmer'
_symmetry_space_group_name_H-M	'P1'
_symmetry_Int_Tables_number	1
_symmetry_cell_setting	triclinic
loop_
_symmetry_equiv_pos_as_xyz
  x,y,z
_cell_length_a	27.732048
_cell_length_b	8.559649
_cell_length_c	7.681481
_cell_angle_alpha	85.086760
_cell_angle_beta	84.300807
_cell_angle_gamma	103.789340
loop_
_atom_site_label
_atom_site_type_symbol
_atom_site_fract_x
_atom_site_fract_y
_atom_site_fract_z
O1	O	-0.011272	-2.105302	-0.146396
O2	O	0.013714	-1.639479	-0.146414
O3	O	-0.069681	-1.886861	-0.146371
O4	O	0.072123	-1.857919	-0.146440
O5	O	-0.079967	-1.917311	0.146492
O6	O	0.003429	-1.669928	0.146449
O7	O	-0.021558	-2.135751	0.146467
Zn8	Zn	-0.010697	-1.907674	0.192956
Zn9	Zn	0.002854	-1.867556	-0.192904
O10	O	0.061838	-1.888369	0.146424
C11	C	0.010465	-1.595127	0.000015
C12	C	0.016101	-1.417607	0.000010
C13	C	-0.092810	-1.901479	0.000065
C14	C	-0.146402	-1.899652	0.000079
C15	C	-0.018308	-2.180103	0.000033
C16	C	-0.023944	-2.357621	0.000027
C17	C	-0.489909	-2.034313	-0.000006
C18	C	-0.691331	-2.027524	-0.000031
O19	O	-0.726877	-2.150663	-0.000103
N20	N	-0.705341	-1.880839	-0.000035
C21	C	-0.668990	-1.735840	-0.000044
O22	O	-0.685527	-1.610917	-0.000066
C23	C	-0.467569	-1.742628	-0.000032
C24	C	-0.453563	-1.889325	-0.000010
C25	C	-0.475902	-2.180997	0.000014
C26	C	-0.425550	-2.182694	0.000030
C27	C	-0.389204	-2.037706	0.000026
C28	C	-0.403211	-1.891021	0.000006
C29	C	-0.431219	-1.597629	-0.000054
C30	C	-0.380861	-1.599339	-0.000055
C31	C	-0.366856	-1.746035	-0.000033
C32	C	-0.316513	-1.747730	0.000018
N33	N	-0.302503	-1.894415	0.000022
C34	C	-0.338849	-2.039403	0.000026
C35	C	-0.774740	-1.732286	-0.000047
C36	C	-0.825096	-1.730589	-0.000047
C37	C	-0.847433	-2.022274	-0.000037
C38	C	-0.797077	-2.023971	-0.000024
C39	C	-0.760731	-1.878971	-0.000043
C40	C	-0.233105	-2.042955	0.000060
C41	C	-0.182747	-2.044640	0.000083
C42	C	-0.160414	-1.752954	0.000064
C43	C	-0.210768	-1.751270	0.000050
C44	C	-0.247112	-1.896283	0.000042
O45	O	-0.280940	-1.624655	0.000070
O46	O	-0.322300	-2.164303	0.000009
C47	C	-0.540261	-2.032616	-0.000022
C48	C	-0.554268	-1.885932	-0.000041
C49	C	-0.517922	-1.740944	-0.000046
C50	C	-0.604623	-1.884235	-0.000041
C51	C	-0.640969	-2.029222	-0.000037
C52	C	-0.626959	-2.175908	-0.000033
C53	C	-0.576607	-2.177604	-0.000018
C54	C	-0.531932	-1.594259	-0.000050
C55	C	-0.582285	-1.592574	-0.000063
C56	C	-0.618631	-1.737562	-0.000059
C57	C	0.084967	-1.873750	-0.000017
C58	C	0.138559	-1.875577	-0.000043
N59	N	-0.019946	-1.935065	0.456295
N60	N	0.012099	-1.840177	-0.456243
H61	H	-0.171348	-2.164103	0.000106
H62	H	-0.414152	-2.302148	0.000040
H63	H	0.044808	-1.743316	0.468543
H64	H	0.054701	-1.333145	-0.000018
H65	H	-0.656561	-2.293963	-0.000022
H66	H	-0.062541	-1.442072	0.000037
H67	H	-0.052655	-2.031944	0.531518
H68	H	-0.262691	-2.161038	0.000047
H69	H	-0.785678	-2.143424	-0.000008
H70	H	-0.877034	-2.140329	-0.000033
H71	H	-0.505491	-2.299070	0.000011
H72	H	-0.593683	-1.473109	-0.000066
H73	H	-0.745150	-1.614203	-0.000062
H74	H	-0.442612	-1.478172	-0.000082
H75	H	-0.836495	-1.611137	-0.000034
H76	H	-0.351269	-1.481259	-0.000073
H77	H	-0.222173	-1.631823	0.000082
H78	H	-0.130813	-1.634910	0.000067
H79	H	-0.565209	-2.297060	-0.000000
H80	H	-0.502342	-1.476189	-0.000057
