data_functionalizedCrystal
_audit_creation_method	'MofGen! by Chris Wilmer'
_symmetry_space_group_name_H-M	'P1'
_symmetry_Int_Tables_number	1
_symmetry_cell_setting	triclinic
loop_
_symmetry_equiv_pos_as_xyz
  x,y,z
_cell_length_a	16.120530
_cell_length_b	11.169416
_cell_length_c	11.169409
_cell_angle_alpha	89.969184
_cell_angle_beta	87.078668
_cell_angle_gamma	87.106171
loop_
_atom_site_label
_atom_site_type_symbol
_atom_site_fract_x
_atom_site_fract_y
_atom_site_fract_z
Zn1	Zn	1.274677	-0.570870	-0.771607
Zn2	Zn	1.274598	-0.771605	-0.570923
Zn3	Zn	1.135247	-0.560750	-0.560763
Zn4	Zn	1.135254	-0.761320	-0.761396
O5	O	1.204944	-0.666136	-0.666172
O6	O	1.391334	-0.606037	-0.753511
O7	O	1.256077	-0.743703	-0.401623
O8	O	1.153773	-0.394145	-0.588753
O9	O	1.391276	-0.753516	-0.606069
O10	O	1.256211	-0.401580	-0.743659
O11	O	1.153697	-0.588789	-0.394158
O12	O	1.018581	-0.578816	-0.578852
O13	O	1.153785	-0.735988	-0.930703
O14	O	1.018586	-0.726175	-0.726256
O15	O	1.256218	-0.596065	-0.938205
O16	O	1.256084	-0.938188	-0.596168
O17	O	1.153709	-0.930632	-0.736108
C18	C	1.204911	-0.977959	-0.666160
C19	C	1.204973	-1.111363	-0.666201
C20	C	0.988333	-0.650282	-0.650344
C21	C	0.895666	-0.643529	-0.643601
C22	C	0.726001	-0.631171	-0.631301
C23	C	0.684728	-0.701190	-0.701131
C24	C	0.590321	-0.694314	-0.694287
C25	C	0.820417	-0.638045	-0.638143
C26	C	1.422402	-0.682053	-0.682063
C27	C	1.515069	-0.688836	-0.688834
C28	C	1.205011	-0.666008	-0.979219
C29	C	1.205040	-0.665954	-1.112622
C30	C	1.205000	-0.353098	-0.666211
C31	C	1.205024	-0.219700	-0.666228
C32	C	1.204926	-0.666181	-0.354346
C33	C	1.205059	-0.665909	-0.220956
H34	H	0.720294	-0.766299	-0.766056
H35	H	0.690437	-0.566067	-0.566381
