data_functionalizedCrystal
_audit_creation_method	'MofGen! by Chris Wilmer'
_symmetry_space_group_name_H-M	'P1'
_symmetry_Int_Tables_number	1
_symmetry_cell_setting	triclinic
loop_
_symmetry_equiv_pos_as_xyz
  x,y,z
_cell_length_a	14.853567
_cell_length_b	11.792241
_cell_length_c	13.930277
_cell_angle_alpha	89.995317
_cell_angle_beta	89.995755
_cell_angle_gamma	83.914173
loop_
_atom_site_label
_atom_site_type_symbol
_atom_site_fract_x
_atom_site_fract_y
_atom_site_fract_z
O1	O	1.196945	0.148181	-0.079765
O2	O	0.934554	0.165833	-0.079782
O3	O	1.072117	-0.008203	-0.079766
O4	O	1.059382	0.322217	-0.079780
O5	O	1.072098	-0.008206	0.079896
O6	O	0.934535	0.165829	0.079880
O7	O	1.196926	0.148177	0.079897
Zn8	Zn	1.065728	0.157003	0.105238
Zn9	Zn	1.065753	0.157008	-0.105123
O10	O	1.059363	0.322213	0.079881
C11	C	0.900953	0.165032	0.000047
C12	C	0.800860	0.162635	0.000041
C13	C	0.387884	0.049122	0.000068
C14	C	0.367408	0.255880	0.000058
C15	C	0.461451	0.258134	0.000055
C16	C	0.518715	0.155880	0.000056
C17	C	0.481936	0.051372	0.000062
C18	C	0.498237	0.362640	0.000040
C19	C	0.592285	0.364898	0.000035
C20	C	0.649550	0.262642	0.000044
C21	C	0.612766	0.158131	0.000050
C22	C	0.670030	0.055877	0.000052
C23	C	0.633248	-0.048637	0.000065
C24	C	0.539201	-0.050883	0.000070
C25	C	0.743596	0.264889	0.000039
C26	C	0.764081	0.058127	0.000046
C27	C	1.071308	-0.050491	0.000064
C28	C	1.068913	-0.176489	0.000063
C29	C	1.064511	-0.407174	0.000047
C30	C	1.066957	-0.278804	0.000056
C31	C	1.230527	0.148979	0.000066
C32	C	1.330621	0.151376	0.000066
C33	C	1.060173	0.364501	0.000049
C34	C	1.062567	0.490500	0.000044
N35	N	1.065717	0.156999	0.248804
N36	N	1.065771	0.157003	-0.248689
C37	C	1.004838	0.234041	0.701067
C38	C	1.126693	0.079966	0.701050
C39	C	1.126682	0.079963	0.600554
C40	C	1.065749	0.157000	0.550310
C41	C	1.004827	0.234042	0.600562
C42	C	1.187610	0.002930	0.550295
C43	C	1.187602	0.002925	0.449793
C44	C	1.126664	0.079958	0.399547
C45	C	1.065738	0.157001	0.449805
C46	C	1.004805	0.234039	0.399561
C47	C	0.943875	0.311078	0.449817
C48	C	0.943889	0.311075	0.550316
C49	C	1.126650	0.079961	0.299048
C50	C	1.004794	0.234040	0.299056
H51	H	0.509244	-0.135972	0.000104
O52	O	0.819833	-0.041100	0.000089
C53	C	0.910730	-0.016709	0.000051
H54	H	0.914777	0.072443	0.030271
H55	H	0.953014	-0.081878	0.046403
H56	H	0.937899	-0.020971	-0.076551
O57	O	1.186001	0.005239	0.749804
C58	C	1.275332	0.023859	0.725208
H59	H	1.276223	0.114732	0.697580
H60	H	1.320520	0.010891	0.791291
H61	H	1.301489	-0.038989	0.666867
H62	H	0.320779	0.339131	0.000048
H63	H	0.622224	0.449998	0.000025
H64	H	1.176263	0.017242	0.258135
H65	H	1.237214	-0.059805	0.408881
O66	O	0.688970	-0.147888	-0.000063
C67	C	0.743961	-0.152776	-0.082774
H68	H	0.749147	-0.062679	-0.110350
H69	H	0.814434	-0.194934	-0.064184
H70	H	0.712772	-0.204666	-0.140667
H71	H	0.773540	0.349982	0.000030
O72	O	0.442519	0.461885	-0.000090
C73	C	0.387517	0.466775	-0.082784
H74	H	0.382326	0.376679	-0.110346
H75	H	0.317047	0.508934	-0.064179
H76	H	0.418699	0.518665	-0.140695
H77	H	0.955172	0.296770	0.258153
O78	O	0.884811	0.385960	0.400900
C79	C	0.933430	0.456112	0.342777
H80	H	1.003756	0.411072	0.327723
H81	H	0.895892	0.473976	0.272105
H82	H	0.939958	0.540012	0.381501
H83	H	0.357932	-0.035970	0.000082
O84	O	0.884673	0.385753	0.599243
C85	C	0.828759	0.324838	0.657380
H86	H	0.864235	0.236105	0.672428
H87	H	0.814745	0.372176	0.728054
H88	H	0.762085	0.316978	0.618670
O89	O	0.945740	0.308832	0.750028
C90	C	0.958791	0.292295	0.849506
H91	H	1.030259	0.250041	0.863227
H92	H	0.949179	0.378225	0.887697
H93	H	0.907491	0.235250	0.878035
O94	O	1.246666	-0.072009	0.599151
C95	C	1.198040	-0.142115	0.657311
H96	H	1.126939	-0.144198	0.627022
H97	H	1.234382	-0.232245	0.658465
H98	H	1.193480	-0.106596	0.733472
