data_functionalizedCrystal
_audit_creation_method	'MofGen! by Chris Wilmer'
_symmetry_space_group_name_H-M	'P1'
_symmetry_Int_Tables_number	1
_symmetry_cell_setting	triclinic
loop_
_symmetry_equiv_pos_as_xyz
  x,y,z
_cell_length_a	13.897449
_cell_length_b	13.897448
_cell_length_c	12.759387
_cell_angle_alpha	89.967288
_cell_angle_beta	89.975598
_cell_angle_gamma	90.018519
loop_
_atom_site_label
_atom_site_type_symbol
_atom_site_fract_x
_atom_site_fract_y
_atom_site_fract_z
Zn1	Zn	1.474712	-0.383943	-0.594100
Zn2	Zn	1.974712	0.116057	-0.094100
Zn3	Zn	1.474603	-0.545270	-0.418415
Zn4	Zn	1.974603	-0.045270	0.081585
Zn5	Zn	1.313399	-0.383993	-0.418425
Zn6	Zn	1.813399	0.116007	0.081575
Zn7	Zn	1.313383	-0.545200	-0.594042
Zn8	Zn	1.813383	-0.045200	-0.094042
O9	O	1.394024	-0.464602	-0.506246
O10	O	1.894024	0.035398	-0.006246
O11	O	1.609679	-0.405352	-0.570815
O12	O	2.109679	0.094648	-0.070815
O13	O	1.453180	-0.523927	-0.271395
O14	O	1.953180	-0.023927	0.228605
O15	O	1.334849	-0.249005	-0.441758
O16	O	1.834849	0.250995	0.058242
O17	O	1.609599	-0.523878	-0.441740
O18	O	2.109599	-0.023878	0.058260
O19	O	1.453366	-0.248968	-0.570825
O20	O	1.953366	0.251032	-0.070825
O21	O	1.334744	-0.405438	-0.271403
O22	O	1.834744	0.094562	0.228597
O23	O	1.178415	-0.405369	-0.441701
O24	O	1.678415	0.094631	0.058299
O25	O	1.334823	-0.523758	-0.741071
O26	O	1.834823	-0.023758	-0.241071
O27	O	1.178404	-0.523807	-0.570726
O28	O	1.678404	-0.023807	-0.070726
O29	O	1.453351	-0.405283	-0.741114
O30	O	1.953351	0.094717	-0.241114
O31	O	1.453165	-0.680243	-0.441683
O32	O	1.953165	-0.180243	0.058317
O33	O	1.334717	-0.680191	-0.570716
O34	O	1.834717	-0.180191	-0.070716
C35	C	1.143410	-0.464587	-0.506209
C36	C	1.643410	0.035413	-0.006209
C37	C	1.036196	-0.464604	-0.506218
C38	C	1.536196	0.035396	-0.006218
C39	C	0.949126	-0.464607	-0.506236
C40	C	1.449126	0.035393	-0.006236
C41	C	0.839894	-0.464614	-0.506268
C42	C	1.339894	0.035386	-0.006268
C43	C	1.393954	-0.715216	-0.506215
C44	C	1.893954	-0.215216	-0.006215
C45	C	1.394012	-0.822430	-0.506237
C46	C	1.894012	-0.322430	-0.006237
C47	C	1.394113	-1.018725	-0.506303
C48	C	1.894113	-0.518725	-0.006303
C49	C	1.394054	-0.909492	-0.506270
C50	C	1.894054	-0.409492	-0.006270
C51	C	1.645617	-0.464617	-0.506283
C52	C	2.145617	0.035383	-0.006283
C53	C	1.752831	-0.464624	-0.506299
C54	C	2.252831	0.035376	-0.006299
C55	C	1.394097	-0.464507	-0.780279
C56	C	1.894097	0.035493	-0.280279
C57	C	1.394128	-0.464467	-0.897056
C58	C	1.894128	0.035533	-0.397056
C59	C	1.394121	-0.213009	-0.506299
C60	C	1.894121	0.286991	-0.006299
C61	C	1.394163	-0.105795	-0.506322
C62	C	1.894163	0.394205	-0.006322
C63	C	1.517560	-0.341107	-0.897120
C64	C	2.017560	0.158893	-0.397120
C65	C	1.579289	-0.279413	-0.952013
C66	C	2.079289	0.220587	-0.452013
C67	C	1.579312	-0.279377	-1.061735
C68	C	2.079312	0.220623	-0.561735
C69	C	1.517598	-0.341041	-1.116566
C70	C	2.017598	0.158959	-0.616566
C71	C	1.455869	-0.402736	-1.061673
C72	C	1.955869	0.097264	-0.561673
C73	C	1.455854	-0.402766	-0.951949
C74	C	1.955854	0.097234	-0.451949
C75	C	1.332434	-0.526089	-1.061609
C76	C	1.832434	-0.026089	-0.561609
C77	C	1.332414	-0.526130	-0.951887
C78	C	1.832414	-0.026130	-0.451887
C79	C	1.270720	-0.587753	-1.116440
C80	C	1.770720	-0.087753	-0.616440
C81	C	1.208994	-0.649453	-1.061547
C82	C	1.708994	-0.149453	-0.561547
C83	C	1.208974	-0.649487	-0.951819
C84	C	1.708974	-0.149487	-0.451819
C85	C	1.270685	-0.587825	-0.896994
C86	C	1.770685	-0.087825	-0.396994
C87	C	1.394007	-0.464626	-0.233278
C88	C	1.894007	0.035374	0.266722
C89	C	1.394163	-0.464395	-0.116502
C90	C	1.894163	0.035605	0.383498
H91	H	1.517556	-0.341138	-0.807779
H92	H	2.017556	0.158862	-0.307779
H93	H	1.629571	-0.229135	-1.106429
H94	H	2.129571	0.270865	-0.606429
H95	H	1.270739	-0.587716	-1.205781
H96	H	1.770739	-0.087716	-0.705781
H97	H	1.158696	-0.699716	-0.907131
H98	H	1.658696	-0.199716	-0.407131
H99	H	1.270678	-0.587850	-0.807653
H100	H	1.770678	-0.087850	-0.307653
C101	C	1.647166	-0.211581	-0.891703
C102	C	2.147166	0.288419	-0.391703
H103	H	1.683925	-0.174827	-0.940111
H104	H	2.183925	0.325173	-0.440111
H105	H	1.689170	-0.248493	-0.848897
H106	H	2.189170	0.251507	-0.348897
H107	H	1.610270	-0.169557	-0.848908
H108	H	2.110270	0.330443	-0.348908
H109	H	1.517614	-0.340999	-1.205907
H110	H	2.017614	0.159001	-0.705907
C111	C	1.141119	-0.717275	-1.121861
C112	C	1.641119	-0.217275	-0.621861
H113	H	1.149975	-0.708419	-1.195068
H114	H	1.649975	-0.208419	-0.695068
H115	H	1.076312	-0.703161	-1.103865
H116	H	1.576312	-0.203161	-0.603865
H117	H	1.155213	-0.782097	-1.103872
H118	H	1.655213	-0.282097	-0.603872
