data_functionalizedCrystal
_audit_creation_method	'MofGen! by Chris Wilmer'
_symmetry_space_group_name_H-M	'P1'
_symmetry_Int_Tables_number	1
_symmetry_cell_setting	triclinic
loop_
_symmetry_equiv_pos_as_xyz
  x,y,z
_cell_length_a	17.699077
_cell_length_b	14.519731
_cell_length_c	16.176319
_cell_angle_alpha	89.992219
_cell_angle_beta	89.993140
_cell_angle_gamma	83.484715
loop_
_atom_site_label
_atom_site_type_symbol
_atom_site_fract_x
_atom_site_fract_y
_atom_site_fract_z
O1	O	1.004423	0.116597	-0.068737
O2	O	0.784088	0.131776	-0.068742
O3	O	0.900089	-0.010076	-0.068732
O4	O	0.888422	0.258448	-0.068747
O5	O	0.900073	-0.010085	0.068761
O6	O	0.784072	0.131767	0.068751
O7	O	1.004407	0.116588	0.068756
Cu8	Cu	0.894238	0.124177	0.081308
Cu9	Cu	0.894257	0.124187	-0.081294
O10	O	0.888406	0.258439	0.068746
C11	C	0.755881	0.131228	0.000004
C12	C	0.671858	0.129599	0.000003
C13	C	0.632380	0.128827	0.074951
C14	C	0.553433	0.127282	0.074952
C15	C	0.513965	0.126516	0.000004
C16	C	0.553449	0.127285	-0.074950
C17	C	0.632395	0.128824	-0.074950
C18	C	0.235068	0.121079	-0.074951
C19	C	0.156116	0.119543	-0.074946
C20	C	0.156105	0.119537	0.074951
C21	C	0.235052	0.121076	0.074951
C22	C	0.274529	0.121840	-0.000002
C23	C	0.360133	0.123514	-0.000003
C24	C	0.428362	0.124849	0.000003
C25	C	0.899534	-0.044437	0.000015
C26	C	0.897896	-0.146811	0.000015
C27	C	0.896565	-0.229949	0.000013
C28	C	0.894902	-0.334251	0.000007
C29	C	0.893582	-0.417384	0.000002
C30	C	0.891919	-0.521692	-0.000003
C31	C	1.032613	0.117136	0.000008
C32	C	1.116636	0.118764	0.000004
C33	C	0.888961	0.292801	-0.000003
C34	C	0.890599	0.395174	-0.000008
N35	N	0.894230	0.124168	0.195673
N36	N	0.894271	0.124188	-0.195659
C37	C	0.945611	0.061382	0.238942
C38	C	0.945615	0.061381	0.325489
C39	C	0.894241	0.124172	0.368766
C40	C	0.842855	0.186961	0.325491
C41	C	0.842848	0.186957	0.238946
C42	C	0.842881	0.186978	0.674519
C43	C	0.842893	0.186979	0.761071
C44	C	0.945648	0.061403	0.761062
C45	C	0.945641	0.061399	0.674517
C46	C	0.894252	0.124184	0.631250
C47	C	0.894248	0.124183	0.537406
C48	C	0.894248	0.124178	0.462608
H49	H	0.521295	0.126637	0.135983
O50	O	0.995441	0.000242	0.196962
C51	C	1.039576	-0.160206	0.170600
C52	C	0.983090	-0.091050	0.218163
H53	H	1.029620	-0.234030	0.187736
H54	H	1.030765	-0.149533	0.101295
H55	H	1.100204	-0.148242	0.187600
H56	H	0.922439	-0.102972	0.201232
H57	H	0.991967	-0.101739	0.287456
O58	O	0.995665	0.000491	0.803054
C59	C	1.127189	-0.053797	0.829468
C60	C	1.070630	0.015248	0.781881
H61	H	1.187810	-0.041903	0.812354
H62	H	1.118438	-0.043021	0.898769
H63	H	1.117183	-0.127637	0.812468
H64	H	1.080602	0.089116	0.798812
H65	H	1.079395	0.004392	0.712591
H66	H	0.267182	0.121704	0.135982
H67	H	0.987452	0.010256	0.360718
H68	H	0.987476	0.010272	0.639283
H69	H	0.664508	0.129458	0.135983
O70	O	0.792940	0.248059	0.632625
C71	C	0.690990	0.372584	0.641775
C72	C	0.747522	0.303471	0.689327
H73	H	0.654245	0.417389	0.687597
H74	H	0.723683	0.418668	0.601262
H75	H	0.653156	0.332808	0.601252
H76	H	0.785371	0.343171	0.729895
H77	H	0.714782	0.257387	0.729788
H78	H	0.123953	0.118910	0.135982
O79	O	0.793022	0.247921	0.367656
C80	C	0.747464	0.303552	0.500984
C81	C	0.803950	0.234475	0.453339
H82	H	0.756268	0.292692	0.570268
H83	H	0.757425	0.377422	0.484013
H84	H	0.686836	0.291637	0.483936
H85	H	0.864599	0.246306	0.470362
H86	H	0.793922	0.160629	0.470315
O87	O	0.792910	0.248039	0.197040
C88	C	0.690958	0.372562	0.206176
C89	C	0.747487	0.303453	0.253736
H90	H	0.654208	0.417368	0.251994
H91	H	0.723653	0.418645	0.165664
H92	H	0.653127	0.332781	0.165652
H93	H	0.785332	0.343157	0.294305
H94	H	0.714746	0.257370	0.294196
H95	H	0.123983	0.118919	-0.135981
H96	H	0.664538	0.129455	-0.135981
H97	H	0.267201	0.121699	-0.135983
H98	H	0.521309	0.126655	-0.135974
H99	H	0.801055	0.238113	0.796306
