data_functionalizedCrystal
_audit_creation_method	'MofGen! by Chris Wilmer'
_symmetry_space_group_name_H-M	'P1'
_symmetry_Int_Tables_number	1
_symmetry_cell_setting	triclinic
loop_
_symmetry_equiv_pos_as_xyz
  x,y,z
_cell_length_a	18.215407
_cell_length_b	25.639239
_cell_length_c	18.215399
_cell_angle_alpha	90.030035
_cell_angle_beta	90.019833
_cell_angle_gamma	90.039134
loop_
_atom_site_label
_atom_site_type_symbol
_atom_site_fract_x
_atom_site_fract_y
_atom_site_fract_z
Zn1	Zn	1.125001	-0.208150	0.416105
Zn2	Zn	1.124880	-0.295586	0.293034
Zn3	Zn	1.001934	-0.208167	0.293053
Zn4	Zn	1.001870	-0.295557	0.416059
O5	O	1.063421	-0.251865	0.354563
O6	O	1.227970	-0.219754	0.399791
O7	O	1.108547	-0.284009	0.190052
O8	O	1.018337	-0.135000	0.309403
O9	O	1.227880	-0.283992	0.309372
O10	O	1.108754	-0.134987	0.399809
O11	O	1.018219	-0.219783	0.190066
O12	O	0.898941	-0.219754	0.309358
O13	O	1.018228	-0.283943	0.519050
O14	O	0.898894	-0.283959	0.399731
O15	O	1.108692	-0.219725	0.519083
O16	O	1.108485	-0.368747	0.309327
O17	O	1.018110	-0.368726	0.399713
C18	C	0.872215	-0.251856	0.354542
C19	C	0.790416	-0.251865	0.354550
C20	C	1.063298	-0.387708	0.354529
C21	C	1.063312	-0.445822	0.354539
C22	C	0.602217	-0.285349	0.401548
C23	C	0.525358	-0.285350	0.401557
C24	C	0.525378	-0.218391	0.307594
C25	C	0.602235	-0.218387	0.307589
C26	C	0.640653	-0.251869	0.354565
C27	C	0.486937	-0.251874	0.354579
C28	C	0.403603	-0.251876	0.354589
C29	C	0.723992	-0.251867	0.354556
C30	C	1.110602	-0.806183	0.307579
C31	C	1.110631	-0.860787	0.307589
O32	O	1.150711	-0.889023	0.267625
N33	N	1.063551	-0.888104	0.354612
C34	C	1.016444	-0.860813	0.401633
O35	O	0.976402	-0.889062	0.441631
C36	C	1.016420	-0.806210	0.401626
C37	C	1.063498	-0.778896	0.354595
C38	C	1.157677	-0.778869	0.260553
C39	C	1.157647	-0.724269	0.260542
C40	C	1.110543	-0.696982	0.307558
C41	C	1.063468	-0.724296	0.354584
C42	C	0.969318	-0.778920	0.448650
C43	C	0.969298	-0.724313	0.448640
C44	C	1.016376	-0.697000	0.401609
C45	C	1.016334	-0.642408	0.401590
N46	N	1.063414	-0.615092	0.354567
C47	C	1.110519	-0.642379	0.307551
C48	C	1.016500	-0.975484	0.401644
C49	C	1.016520	-1.030086	0.401648
C50	C	1.110708	-1.030057	0.307605
C51	C	1.110683	-0.975453	0.307598
C52	C	1.063580	-0.948167	0.354621
C53	C	1.110452	-0.527714	0.307532
C54	C	1.110416	-0.473108	0.307523
C55	C	1.016232	-0.473143	0.401569
C56	C	1.016265	-0.527743	0.401575
C57	C	1.063381	-0.555027	0.354554
O58	O	0.976277	-0.614138	0.441536
O59	O	1.150561	-0.614123	0.267567
C60	C	1.255374	-0.251874	0.354584
C61	C	1.337173	-0.251878	0.354594
C62	C	1.063466	-0.251829	0.546516
C63	C	1.063485	-0.251814	0.628315
C64	C	1.063566	-0.115492	0.354613
C65	C	1.063627	-0.057378	0.354634
C66	C	1.063419	-0.251863	0.163357
C67	C	1.063543	-0.251731	0.081558
C68	C	1.110607	-0.218344	0.816528
C69	C	1.110616	-0.218329	0.893386
C70	C	1.016416	-0.285202	0.893340
C71	C	1.016404	-0.285214	0.816483
C72	C	1.063504	-0.251786	0.778078
C73	C	1.063524	-0.251759	0.931795
C74	C	1.063534	-0.251742	1.015128
C75	C	1.063494	-0.251801	0.694739
H76	H	0.633495	-0.312611	0.439801
C77	C	1.209486	-0.808879	0.208822
H78	H	1.202767	-0.845312	0.215553
H79	H	1.198728	-0.799951	0.159370
H80	H	1.258927	-0.799890	0.219634
C81	C	1.209443	-0.694231	0.208816
H82	H	1.237502	-0.718308	0.180827
H83	H	1.181310	-0.672962	0.176716
H84	H	1.241486	-0.672897	0.237001
C85	C	1.162474	-0.945413	0.255870
H86	H	1.190532	-0.969489	0.227876
H87	H	1.134337	-0.924144	0.223775
H88	H	1.194520	-0.924080	0.284054
H89	H	0.977932	-0.549983	0.439874
C90	C	1.162208	-0.443066	0.255791
H91	H	1.190270	-0.467141	0.227798
H92	H	1.134068	-0.421801	0.223693
H93	H	1.194249	-0.421730	0.283973
C94	C	0.964589	-0.322001	0.774182
H95	H	0.971323	-0.317215	0.722909
H96	H	0.975322	-0.357129	0.786762
H97	H	0.915149	-0.314341	0.786772
H98	H	1.148971	-0.191096	0.924688
C99	C	0.964674	-0.945474	0.453365
H100	H	0.936637	-0.969567	0.481363
H101	H	0.992790	-0.924138	0.485457
H102	H	0.932610	-0.924211	0.425176
H103	H	1.148956	-0.191123	0.785261
C104	C	0.964730	-1.060126	0.453377
H105	H	0.936678	-1.036049	0.481378
H106	H	0.932689	-1.081465	0.425205
H107	H	0.992878	-1.081388	0.485478
C108	C	0.964617	-0.321974	0.935587
H109	H	0.971375	-0.317182	0.986867
H110	H	0.915175	-0.314326	0.922987
H111	H	0.975357	-0.357107	0.922976
H112	H	0.494089	-0.191131	0.269346
H113	H	0.633530	-0.191120	0.269329
H114	H	0.494068	-0.312613	0.439817
H115	H	1.148821	-0.549922	0.269245
H116	H	1.149065	-1.052283	0.269324
C117	C	0.964427	-0.443123	0.453291
H118	H	0.936389	-0.467207	0.481302
H119	H	0.992561	-0.421789	0.485371
H120	H	0.932363	-0.421856	0.425108
C121	C	0.917536	-0.808954	0.500391
H122	H	0.889491	-0.784875	0.528393
H123	H	0.885490	-0.830293	0.472225
H124	H	0.945687	-0.830216	0.532490
H125	H	0.930941	-0.702100	0.486935
