data_functionalizedCrystal
_audit_creation_method	'MofGen! by Chris Wilmer'
_symmetry_space_group_name_H-M	'P1'
_symmetry_Int_Tables_number	1
_symmetry_cell_setting	triclinic
loop_
_symmetry_equiv_pos_as_xyz
  x,y,z
_cell_length_a	17.019372
_cell_length_b	12.837942
_cell_length_c	15.500235
_cell_angle_alpha	86.858894
_cell_angle_beta	91.043238
_cell_angle_gamma	90.902748
loop_
_atom_site_label
_atom_site_type_symbol
_atom_site_fract_x
_atom_site_fract_y
_atom_site_fract_z
O1	O	1.056284	-0.132463	0.006682
O2	O	0.828663	-0.148172	-0.010263
O3	O	0.937426	0.010602	-0.002161
O4	O	0.947521	-0.291238	-0.001420
O5	O	0.930854	0.000971	0.141238
O6	O	0.822091	-0.157803	0.133136
O7	O	1.049712	-0.142095	0.150081
Cu8	Cu	0.935301	-0.150829	0.154702
Cu9	Cu	0.943073	-0.139438	-0.014884
O10	O	0.940949	-0.300869	0.141979
C11	C	0.796040	-0.152203	0.059253
C12	C	0.708625	-0.149854	0.052746
C13	C	0.930730	0.044419	0.069285
C14	C	0.920559	0.159532	0.068526
C15	C	0.214406	-0.136266	0.011962
C16	C	0.296542	-0.138474	0.018088
C17	C	0.334019	-0.144836	0.099318
C18	C	0.289356	-0.148980	0.174428
C19	C	0.207223	-0.146764	0.168301
C20	C	0.581829	-0.151782	0.121728
C21	C	0.663969	-0.154000	0.127849
C22	C	0.671149	-0.143493	-0.028491
C23	C	0.589013	-0.141284	-0.034611
C24	C	0.544358	-0.145422	0.040498
C25	C	0.417974	-0.147097	0.105582
C26	C	0.460404	-0.143154	0.034234
C27	C	1.082334	-0.138063	0.080564
C28	C	1.169750	-0.140412	0.087066
N29	N	0.929840	-0.158840	0.273980
C30	C	0.947645	-0.334686	0.070532
C31	C	0.957816	-0.449798	0.071285
C32	C	1.042828	0.400066	0.077610
C33	C	1.033275	0.508225	0.076898
C34	C	0.891904	0.484012	0.066382
C35	C	0.901456	0.375853	0.067095
C36	C	0.976920	0.333884	0.072710
C37	C	0.986472	0.225722	0.073429
C38	C	0.845101	0.201511	0.062908
C39	C	0.835548	0.309671	0.062195
N40	N	0.948540	-0.131419	-0.134161
C41	C	0.902440	-0.198680	0.817127
C42	C	0.906589	-0.192641	0.726863
C43	C	0.956842	-0.119346	0.685314
C44	C	1.002943	-0.052079	0.734032
C45	C	0.998790	-0.058113	0.824294
C46	C	0.971788	-0.097606	0.412960
C47	C	0.975940	-0.091579	0.322692
C48	C	0.879584	-0.232141	0.315530
C49	C	0.875439	-0.238173	0.405794
C50	C	0.921537	-0.170902	0.454504
C51	C	0.961085	-0.113174	0.593050
C52	C	0.917289	-0.177069	0.546766
H53	H	0.183899	-0.131093	-0.054185
H54	H	0.332898	-0.135091	-0.043070
H55	H	1.104273	0.365894	0.082191
H56	H	0.876370	-0.236742	0.580598
H57	H	1.047918	0.191553	0.078004
H58	H	0.842052	-0.286909	0.275862
H59	H	1.086944	0.562108	0.080885
H60	H	0.774107	0.343857	0.057620
H61	H	0.830464	0.518203	0.061801
H62	H	0.791434	0.147613	0.058925
H63	H	0.448497	-0.152278	0.171720
H64	H	1.016865	-0.031890	0.288867
H65	H	0.861523	-0.258368	0.850951
H66	H	0.869050	-0.247409	0.687202
H67	H	0.834519	-0.297855	0.439621
H68	H	1.009325	-0.042833	0.452614
H69	H	0.707515	-0.140122	-0.089641
H70	H	1.002004	-0.053498	0.559213
H71	H	1.043857	0.007605	0.700197
H72	H	1.036328	-0.003341	0.863954
H73	H	0.558505	-0.136102	-0.100758
H74	H	0.545481	-0.155136	0.182888
H75	H	0.694480	-0.159188	0.194000
H76	H	0.170864	-0.150151	0.229459
H77	H	0.319877	-0.154153	0.240568
H78	H	0.429887	-0.137970	-0.031904
