data_functionalizedCrystal
_audit_creation_method	'MofGen! by Chris Wilmer'
_symmetry_space_group_name_H-M	'P1'
_symmetry_Int_Tables_number	1
_symmetry_cell_setting	triclinic
loop_
_symmetry_equiv_pos_as_xyz
  x,y,z
_cell_length_a	25.993458
_cell_length_b	25.993459
_cell_length_c	25.993511
_cell_angle_alpha	59.998162
_cell_angle_beta	89.999156
_cell_angle_gamma	60.000225
loop_
_atom_site_label
_atom_site_type_symbol
_atom_site_fract_x
_atom_site_fract_y
_atom_site_fract_z
O1	O	-0.438486	-0.368218	0.015293
O2	O	-0.363675	-0.262871	-0.015241
O3	O	-0.363672	-0.368217	0.090105
O4	O	-0.438489	-0.262872	-0.090053
O5	O	-0.278107	-0.453782	0.090105
O6	O	-0.278110	-0.348435	-0.015242
O7	O	-0.352922	-0.453782	0.015293
Cu8	Cu	-0.307703	-0.408922	0.000026
Cu9	Cu	-0.408893	-0.307732	0.000026
O10	O	-0.352925	-0.348436	-0.090054
C11	C	-0.277316	-0.161982	-0.022175
C12	C	-0.309062	-0.098492	-0.017804
C13	C	-0.215401	-0.192794	-0.022608
C14	C	-0.277319	-0.255138	-0.022182
C15	C	-0.309067	-0.291250	-0.017818
C16	C	-0.215403	-0.285808	-0.022615
C17	C	-0.184156	-0.255142	-0.022175
C18	C	-0.116294	-0.291259	-0.017803
C19	C	-0.308422	-0.192790	-0.022615
C20	C	-0.621955	-0.565869	0.037072
C21	C	-0.590709	-0.628219	0.037508
C22	C	-0.528796	-0.565867	0.037069
C23	C	-0.497692	-0.628217	0.037505
C24	C	-0.528795	-0.659029	0.037072
C25	C	-0.590710	-0.535199	0.037505
C26	C	-0.722642	-0.464940	0.029513
C27	C	-0.786264	-0.430643	0.024742
C28	C	-0.818173	-0.460083	0.022351
C29	C	-0.887157	-0.422897	0.017175
C30	C	-0.786465	-0.523827	0.024735
C31	C	-0.722845	-0.558124	0.029508
C32	C	-0.690936	-0.528678	0.031894
C33	C	-0.529037	-0.752158	0.029515
C34	C	-0.499712	-0.811010	0.024744
C35	C	-0.438364	-0.840525	0.022349
C36	C	-0.406566	-0.904333	0.017173
C37	C	-0.406330	-0.811198	0.024730
C38	C	-0.435652	-0.752352	0.029503
C39	C	-0.497006	-0.722832	0.031893
C40	C	-0.529039	-0.464935	0.029505
C41	C	-0.499717	-0.430630	0.024723
C42	C	-0.438369	-0.460069	0.022328
C43	C	-0.406571	-0.422880	0.017149
C44	C	-0.406337	-0.523807	0.024709
C45	C	-0.435656	-0.558111	0.029489
C46	C	-0.497007	-0.528673	0.031887
C47	C	-0.528800	-0.150795	-0.471170
C48	C	-0.590715	-0.088445	-0.502276
C49	C	-0.528801	-0.150794	-0.378010
C50	C	-0.590716	-0.088444	-0.409257
C51	C	-0.621962	-0.057634	-0.471172
C52	C	-0.497696	-0.181464	-0.409255
C53	C	-0.435430	-0.251726	-0.470926
C54	C	-0.405903	-0.286024	-0.500250
C55	C	-0.437736	-0.256585	-0.561599
C56	C	-0.405725	-0.293773	-0.593395
C57	C	-0.499096	-0.192842	-0.593635
C58	C	-0.528620	-0.158544	-0.564313
C59	C	-0.496787	-0.187988	-0.502959
C60	C	-0.722649	0.035493	-0.564543
C61	C	-0.786272	0.094345	-0.594071
C62	C	-0.818182	0.123861	-0.562238
C63	C	-0.887167	0.187669	-0.594249
C64	C	-0.786474	0.094536	-0.500878
C65	C	-0.722854	0.035690	-0.471354
C66	C	-0.690944	0.006168	-0.503186
C67	C	-0.435431	-0.251724	-0.277321
C68	C	-0.405908	-0.286027	-0.213695
C69	C	-0.437741	-0.256588	-0.181786
C70	C	-0.405731	-0.293774	-0.112801
C71	C	-0.499099	-0.192850	-0.213493
C72	C	-0.528625	-0.158547	-0.277116
C73	C	-0.496788	-0.187987	-0.309028
O74	O	0.090091	-0.453793	0.015309
O75	O	-0.090066	-0.348444	-0.015226
O76	O	0.015273	-0.453795	0.090120
O77	O	-0.015248	-0.348442	-0.090038
O78	O	0.015276	-0.368235	0.090127
O79	O	-0.090063	-0.262884	-0.015220
O80	O	0.090094	-0.368232	0.015315
Cu81	Cu	0.000016	-0.307746	0.000048
Cu82	Cu	0.000012	-0.408931	0.000041
O83	O	-0.015245	-0.262881	-0.090031
O84	O	-0.352917	0.074778	0.015314
O85	O	-0.278103	-0.074844	-0.015220
O86	O	-0.278107	-0.074853	0.090126
O87	O	-0.352914	0.074787	-0.090033
O88	O	-0.363674	-0.074850	0.090119
O89	O	-0.363670	-0.074840	-0.015227
O90	O	-0.438484	0.074782	0.015307
Cu91	Cu	-0.408890	-0.000029	0.000039
Cu92	Cu	-0.307697	-0.000033	0.000047
O93	O	-0.438481	0.074791	-0.090039
O94	O	-1.090075	0.358185	-0.636308
O95	O	-0.909918	0.208556	-0.561490
O96	O	-1.015259	0.208553	-0.561488
O97	O	-0.984734	0.358188	-0.636310
O98	O	-1.015257	0.208552	-0.647052
O99	O	-0.909916	0.208554	-0.647054
O100	O	-1.090073	0.358183	-0.721872
Cu101	Cu	-0.999994	0.283368	-0.692275
Cu102	Cu	-0.999997	0.283371	-0.591086
O103	O	-0.984732	0.358186	-0.721874
O104	O	-0.363672	-0.368217	-0.721856
O105	O	-0.438486	-0.262875	-0.647043
O106	O	-0.438485	-0.368220	-0.647039
O107	O	-0.363673	-0.262872	-0.721860
O108	O	-0.352919	-0.453785	-0.561473
O109	O	-0.352920	-0.348441	-0.561477
O110	O	-0.278106	-0.453783	-0.636290
Cu111	Cu	-0.307700	-0.408925	-0.591071
Cu112	Cu	-0.408892	-0.307733	-0.692262
O113	O	-0.278107	-0.348438	-0.636294
C114	C	-0.184157	-0.554680	0.277358
C115	C	-0.116295	-0.618172	0.309104
C116	C	-0.215402	-0.523869	0.308461
C117	C	-0.277317	-0.461519	0.184196
C118	C	-0.309064	-0.425404	0.116335
C119	C	-0.308422	-0.430850	0.215442
C120	C	-0.277317	-0.461519	0.277356
C121	C	-0.309064	-0.425404	0.309102
C122	C	-0.215403	-0.523869	0.215443
C123	C	0.022216	-0.461546	0.277378
C124	C	0.017847	-0.425434	0.309127
C125	C	0.022649	-0.523895	0.308480
C126	C	0.022218	-0.461539	0.184215
C127	C	0.017852	-0.425421	0.116353
C128	C	0.022651	-0.523888	0.215458
C129	C	0.022213	-0.554702	0.277373
C130	C	0.017842	-0.618193	0.309116
C131	C	0.022654	-0.430874	0.215464
C132	C	-0.277320	-0.255179	0.277365
C133	C	-0.309067	-0.291295	0.309105
C134	C	-0.215404	-0.285854	0.308471
C135	C	-0.277318	-0.162008	0.184211
C136	C	-0.309065	-0.098506	0.116351
C137	C	-0.215403	-0.192825	0.215459
C138	C	-0.184157	-0.255183	0.277372
C139	C	-0.116295	-0.291304	0.309120
C140	C	-0.308424	-0.192820	0.215452
C141	C	-0.036996	-0.057627	-0.471149
C142	C	-0.037431	-0.088434	-0.502256
C143	C	-0.037001	-0.150789	-0.377991
C144	C	-0.037436	-0.181455	-0.409239
C145	C	-0.036998	-0.150783	-0.471154
C146	C	-0.037433	-0.088440	-0.409234
C147	C	-0.029433	0.035497	-0.470902
C148	C	-0.024659	0.094348	-0.500225
C149	C	-0.022263	0.123866	-0.561574
C150	C	-0.017083	0.187673	-0.593369
C151	C	-0.024646	0.094544	-0.593611
C152	C	-0.029422	0.035698	-0.564291
C153	C	-0.031813	0.006175	-0.502936
C154	C	-0.029436	-0.158096	-0.564526
C155	C	-0.024665	-0.192189	-0.594055
C156	C	-0.022273	-0.255931	-0.562224
C157	C	-0.017096	-0.292903	-0.594236
C158	C	-0.024659	-0.285585	-0.500864
C159	C	-0.029433	-0.251492	-0.471338
C160	C	-0.031819	-0.187750	-0.503169
C161	C	-0.029443	-0.158113	-0.277301
C162	C	-0.024666	-0.192218	-0.213674
C163	C	-0.022275	-0.255960	-0.181767
C164	C	-0.017101	-0.292938	-0.112782
C165	C	-0.024655	-0.285608	-0.213475
C166	C	-0.029430	-0.251509	-0.277098
C167	C	-0.031824	-0.187761	-0.309009
O168	O	-0.015283	-0.348468	0.438547
O169	O	0.015263	-0.453813	0.363734
O170	O	-0.090086	-0.348466	0.363721
O171	O	0.090067	-0.453815	0.438560
O172	O	-0.090076	-0.262903	0.278160
O173	O	0.015274	-0.368250	0.278173
O174	O	-0.015273	-0.262904	0.352986
Cu175	Cu	0.000001	-0.307764	0.307767
Cu176	Cu	-0.000011	-0.408953	0.408953
O177	O	0.090077	-0.368251	0.352999
C178	C	-0.621954	0.434195	-0.471145
C179	C	-0.590708	0.464866	-0.502245
C180	C	-0.528793	0.341020	-0.377984
C181	C	-0.497688	0.371833	-0.409225
C182	C	-0.528792	0.434191	-0.471138
C183	C	-0.590709	0.371836	-0.409233
C184	C	-0.722643	0.441515	-0.470910
C185	C	-0.786267	0.475617	-0.500237
C186	C	-0.818176	0.539368	-0.561584
C187	C	-0.887162	0.576348	-0.593384
C188	C	-0.786467	0.569022	-0.593614
C189	C	-0.722846	0.534920	-0.564289
C190	C	-0.690937	0.471170	-0.502938
C191	C	-0.529033	0.535130	-0.564499
C192	C	-0.499707	0.569430	-0.594020
C193	C	-0.438357	0.539984	-0.562184
C194	C	-0.406558	0.577173	-0.594188
C195	C	-0.406323	0.476234	-0.500827
C196	C	-0.435646	0.441934	-0.471308
C197	C	-0.497001	0.471385	-0.503145
C198	C	-0.529036	0.247880	-0.277303
C199	C	-0.499713	0.189024	-0.213679
C200	C	-0.438364	0.159502	-0.181766
C201	C	-0.406566	0.095685	-0.112783
C202	C	-0.406331	0.188830	-0.213467
C203	C	-0.435651	0.247685	-0.277089
C204	C	-0.497003	0.277207	-0.309004
H205	H	-0.190320	-0.335979	-0.023316
C206	C	-0.534944	0.156758	-0.178810
C207	C	-0.547582	0.156220	-0.120722
C208	C	-0.582813	0.123951	-0.085849
C209	C	-0.605405	0.092219	-0.109063
C210	C	-0.592767	0.092756	-0.167153
C211	C	-0.557537	0.125025	-0.202027
H212	H	-0.530858	0.179711	-0.103535
H213	H	-0.592168	0.123554	-0.042846
H214	H	-0.631484	0.068332	-0.083247
H215	H	-0.609492	0.069265	-0.184340
H216	H	-0.548182	0.125422	-0.245030
C217	C	0.023595	-0.558724	0.181571
C218	C	0.078481	-0.637735	0.208754
C219	C	0.079424	-0.672571	0.174871
C220	C	0.025480	-0.628396	0.113806
C221	C	-0.029410	-0.549381	0.086621
C222	C	-0.030353	-0.514545	0.120503
H223	H	0.118417	-0.670440	0.253960
H224	H	0.120057	-0.731063	0.194996
H225	H	0.026178	-0.654184	0.088724
H226	H	-0.069346	-0.516676	0.041414
H227	H	-0.070986	-0.456052	0.100379
H228	H	-0.359295	-0.167034	0.190366
H229	H	-0.190308	-0.549645	0.190353
H230	H	-0.812458	0.620936	-0.643570
C231	C	-0.038385	-0.249231	-0.375359
C232	C	0.015556	-0.320074	-0.314295
C233	C	0.014607	-0.387847	-0.280420
C234	C	-0.040283	-0.384779	-0.307608
C235	C	-0.094228	-0.313934	-0.368675
C236	C	-0.093279	-0.246160	-0.402551
H237	H	0.056193	-0.322347	-0.294166
H238	H	0.054541	-0.440291	-0.235214
H239	H	-0.040985	-0.434949	-0.282532
H240	H	-0.134865	-0.311660	-0.388805
H241	H	-0.133213	-0.193716	-0.447757
C242	C	-0.338842	-0.843667	0.022093
C243	C	-0.284406	-0.875555	0.077020
C244	C	-0.216918	-0.908020	0.074385
C245	C	-0.203867	-0.908597	0.016823
C246	C	-0.258305	-0.876708	-0.038108
C247	C	-0.325792	-0.844243	-0.035473
H248	H	-0.294066	-0.875128	0.119635
H249	H	-0.176620	-0.931626	0.115049
H250	H	-0.153909	-0.932630	0.014872
H251	H	-0.248645	-0.877134	-0.080723
H252	H	-0.366090	-0.820636	-0.076137
H253	H	-0.578988	0.559109	-0.590430
C254	C	-0.596111	-0.088429	-0.599550
C255	C	-0.609270	-0.017711	-0.612184
C256	C	-0.676761	0.052405	-0.647422
C257	C	-0.731094	0.051802	-0.670025
C258	C	-0.717937	-0.018918	-0.657391
C259	C	-0.650446	-0.089034	-0.622153
H260	H	-0.569048	-0.017263	-0.595452
H261	H	-0.686500	0.104757	-0.656775
H262	H	-0.781056	0.103706	-0.696110
H263	H	-0.758159	-0.019367	-0.674123
H264	H	-0.640707	-0.141386	-0.612800
C265	C	-0.377147	-0.157959	-0.023566
C266	C	-0.394046	-0.150843	0.030378
C267	C	-0.462768	-0.116017	0.029426
C268	C	-0.514591	-0.088307	-0.025469
C269	C	-0.497693	-0.095422	-0.079416
C270	C	-0.428971	-0.130248	-0.078465
H271	H	-0.355683	-0.171357	0.071018
H272	H	-0.475277	-0.110750	0.069362
H273	H	-0.565463	-0.062527	-0.026173
H274	H	-0.536056	-0.074909	-0.120056
H275	H	-0.416462	-0.135515	-0.118401
C276	C	-0.624610	0.532659	-0.570964
C277	C	-0.597453	0.529632	-0.622813
C278	C	-0.631360	0.597425	-0.691527
C279	C	-0.692424	0.668244	-0.708392
C280	C	-0.719584	0.671273	-0.656542
C281	C	-0.685677	0.603481	-0.587827
H282	H	-0.552246	0.477205	-0.610330
H283	H	-0.611253	0.595182	-0.729910
H284	H	-0.717524	0.718428	-0.759259
H285	H	-0.764790	0.723701	-0.669025
H286	H	-0.705783	0.605724	-0.549444
H287	H	-0.409566	0.271563	-0.302898
C288	C	0.023586	-0.558728	0.377202
C289	C	-0.030357	-0.565856	0.394083
C290	C	-0.029422	-0.600686	0.462801
C291	C	0.025455	-0.628388	0.514637
C292	C	0.079401	-0.621261	0.497757
C293	C	0.078467	-0.586431	0.429039
H294	H	-0.070983	-0.545349	0.355710
H295	H	-0.069358	-0.605961	0.475297
H296	H	0.026146	-0.654170	0.565506
H297	H	0.120028	-0.641768	0.536131
H298	H	0.118403	-0.581156	0.416544
H299	H	-0.409504	-0.275698	-0.303301
H300	H	-0.446824	-0.231634	-0.384172
C301	C	-0.400416	0.371810	-0.403820
C302	C	-0.337920	0.303767	-0.389395
C303	C	-0.302691	0.233642	-0.321906
C304	C	-0.329957	0.231561	-0.268843
C305	C	-0.392456	0.299607	-0.283267
C306	C	-0.427685	0.369732	-0.350756
H307	H	-0.317733	0.305305	-0.428677
H308	H	-0.256425	0.183270	-0.311229
H309	H	-0.303878	0.179651	-0.218884
H310	H	-0.412643	0.298069	-0.243986
H311	H	-0.473951	0.420104	-0.361433
H312	H	-0.038131	-0.062642	-0.553128
C313	C	-0.338415	-0.356139	-0.465013
C314	C	-0.285351	-0.358207	-0.492272
C315	C	-0.217860	-0.428323	-0.457037
C316	C	-0.203433	-0.496373	-0.394543
C317	C	-0.256498	-0.494308	-0.367280
C318	C	-0.323989	-0.424191	-0.402515
H319	H	-0.296029	-0.307830	-0.538537
H320	H	-0.178577	-0.429851	-0.477219
H321	H	-0.153472	-0.548277	-0.368460
H322	H	-0.245819	-0.544684	-0.321015
H323	H	-0.363271	-0.422663	-0.382333
C324	C	-0.400422	-0.720090	0.032124
C325	C	-0.337924	-0.768155	0.085738
C326	C	-0.302696	-0.735892	0.088359
C327	C	-0.329965	-0.655563	0.037367
C328	C	-0.392466	-0.607492	-0.016251
C329	C	-0.427695	-0.639756	-0.018872
H330	H	-0.317735	-0.827624	0.123489
H331	H	-0.256428	-0.771477	0.128051
H332	H	-0.303887	-0.631679	0.039307
H333	H	-0.412656	-0.548024	-0.054002
H334	H	-0.473963	-0.604171	-0.058564
C335	C	-0.181517	-0.353638	0.377194
C336	C	-0.157399	-0.350585	0.429029
C337	C	-0.123514	-0.418365	0.497750
C338	C	-0.113746	-0.489197	0.514635
C339	C	-0.137864	-0.492252	0.462799
C340	C	-0.171750	-0.424472	0.394079
H341	H	-0.164629	-0.298149	0.416531
H342	H	-0.105660	-0.416103	0.536122
H343	H	-0.088662	-0.539371	0.565506
H344	H	-0.130634	-0.544688	0.475298
H345	H	-0.189604	-0.426734	0.355706
H346	H	-0.446821	-0.653998	0.038201
C347	C	0.023594	-0.363091	0.181585
C348	C	0.078479	-0.366131	0.157468
C349	C	0.079415	-0.298348	0.123595
C350	C	0.025466	-0.227526	0.113839
C351	C	-0.029423	-0.224484	0.137957
C352	C	-0.030359	-0.292267	0.171830
H353	H	0.118419	-0.418560	0.164689
H354	H	0.120048	-0.300600	0.105741
H355	H	0.026159	-0.177349	0.088764
H356	H	-0.069363	-0.172055	0.130736
H357	H	-0.070992	-0.290014	0.189684
C358	C	-0.338833	0.443843	-0.465804
C359	C	-0.285886	0.420293	-0.493238
C360	C	-0.218397	0.387898	-0.458213
C361	C	-0.203855	0.379054	-0.395754
C362	C	-0.256803	0.402604	-0.368317
C363	C	-0.324292	0.434999	-0.403342
H364	H	-0.296650	0.426840	-0.539476
H365	H	-0.179201	0.370465	-0.478524
H366	H	-0.153895	0.355073	-0.369827
H367	H	-0.246039	0.396058	-0.322079
H368	H	-0.363488	0.452433	-0.383031
C369	C	-0.596526	0.280357	-0.312406
C370	C	-0.611079	0.232462	-0.318132
C371	C	-0.678573	0.264944	-0.353232
C372	C	-0.731513	0.345322	-0.382607
C373	C	-0.716961	0.393221	-0.376883
C374	C	-0.649468	0.360739	-0.341782
H375	H	-0.571888	0.172957	-0.296386
H376	H	-0.689345	0.229486	-0.357470
H377	H	-0.781476	0.369367	-0.408591
H378	H	-0.756152	0.452726	-0.398629
H379	H	-0.638696	0.396198	-0.337545
H380	H	-0.615797	-0.654004	0.038210
H381	H	-0.615800	-0.062661	-0.384169
H382	H	-0.190315	-0.549659	0.359334
H383	H	-0.812078	0.451468	-0.474155
H384	H	-0.190317	-0.167038	0.190373
C385	C	-0.338420	-0.356142	-0.178824
C386	C	-0.284082	-0.355546	-0.202026
C387	C	-0.216596	-0.425670	-0.167152
C388	C	-0.203446	-0.496390	-0.109077
C389	C	-0.257785	-0.496988	-0.085872
C390	C	-0.325272	-0.426864	-0.120746
H391	H	-0.293815	-0.303193	-0.245020
H392	H	-0.176371	-0.425227	-0.184330
H393	H	-0.153489	-0.548300	-0.083261
H394	H	-0.248052	-0.549341	-0.042878
H395	H	-0.365497	-0.427308	-0.103567
C396	C	-0.338848	-0.556196	0.022075
C397	C	-0.324306	-0.565023	-0.031547
C398	C	-0.256817	-0.597411	-0.034178
C399	C	-0.203870	-0.620973	0.016813
C400	C	-0.218411	-0.612147	0.070440
C401	C	-0.285899	-0.579758	0.073071
H402	H	-0.363502	-0.547580	-0.069298
H403	H	-0.246054	-0.603945	-0.073877
H404	H	-0.153911	-0.644949	0.014866
H405	H	-0.179215	-0.629589	0.108190
H406	H	-0.296663	-0.573224	0.112769
H407	H	-0.038084	-0.062687	-0.384132
C408	C	-0.022051	-0.159599	-0.178802
C409	C	0.031557	-0.150703	-0.173266
C410	C	0.034177	-0.118086	-0.138391
C411	C	-0.016812	-0.094364	-0.109052
C412	C	-0.070424	-0.103260	-0.114588
C413	C	-0.073043	-0.135877	-0.149463
H414	H	0.069305	-0.168263	-0.194986
H415	H	0.073864	-0.111501	-0.134294
H416	H	-0.014872	-0.070219	-0.083236
H417	H	-0.108172	-0.085699	-0.092868
H418	H	-0.112731	-0.142461	-0.153560
H419	H	-0.031396	-0.106204	-0.303280
H420	H	-0.031386	0.011466	-0.420946
C421	C	-0.022033	0.126597	-0.464986
C422	C	0.031586	0.078527	-0.402491
C423	C	0.034209	0.110782	-0.367255
C424	C	-0.016786	0.191105	-0.394513
C425	C	-0.070409	0.239179	-0.457012
C426	C	-0.073033	0.206925	-0.492248
H427	H	0.069339	0.019063	-0.382309
H428	H	0.073905	0.075194	-0.320989
H429	H	-0.014844	0.214982	-0.368429
H430	H	-0.108162	0.298644	-0.477194
H431	H	-0.112728	0.242513	-0.538514
C432	C	-0.534123	-0.160461	-0.178394
C433	C	-0.546592	-0.205551	-0.120249
C434	C	-0.581612	-0.173163	-0.085149
C435	C	-0.604164	-0.095684	-0.108194
C436	C	-0.591696	-0.050589	-0.166343
C437	C	-0.556675	-0.082977	-0.201442
H438	H	-0.529897	-0.262910	-0.103187
H439	H	-0.590842	-0.206546	-0.042104
H440	H	-0.630089	-0.071708	-0.082211
H441	H	-0.608391	0.006770	-0.183405
H442	H	-0.547446	-0.049594	-0.244488
C443	C	-0.022006	0.127014	-0.661099
C444	C	-0.072990	0.207395	-0.714049
C445	C	-0.070351	0.239863	-0.781536
C446	C	-0.016727	0.191949	-0.796073
C447	C	0.034260	0.111563	-0.743121
C448	C	0.031621	0.079096	-0.675634
H449	H	-0.112688	0.242868	-0.703290
H450	H	-0.108095	0.299370	-0.820735
H451	H	-0.014774	0.215983	-0.846031
H452	H	0.073959	0.076090	-0.753881
H453	H	0.069366	0.019589	-0.636435
H454	H	-0.696669	0.011463	-0.590469
C455	C	-0.821580	0.127006	-0.465860
C456	C	-0.827289	0.079092	-0.403406
C457	C	-0.862390	0.111559	-0.368386
C458	C	-0.891782	0.191939	-0.395819
C459	C	-0.886074	0.239857	-0.458276
C460	C	-0.850973	0.207391	-0.493296
H461	H	-0.805530	0.019586	-0.383096
H462	H	-0.866615	0.076086	-0.322151
H463	H	-0.917765	0.215973	-0.369894
H464	H	-0.907832	0.299364	-0.478586
H465	H	-0.846747	0.242863	-0.539531
H466	H	-0.697037	0.011820	-0.421397
H467	H	-0.031353	0.011819	-0.590373
H468	H	-0.578585	-0.106649	-0.302931
H469	H	-0.031381	-0.106192	-0.590450
H470	H	-0.022725	-0.168036	-0.644015
C471	C	-0.022026	-0.355709	-0.465847
C472	C	0.035534	-0.426324	-0.453373
C473	C	0.038165	-0.496445	-0.418354
C474	C	-0.016764	-0.495951	-0.395809
C475	C	-0.074329	-0.425334	-0.408283
C476	C	-0.076960	-0.355213	-0.443302
H477	H	0.076200	-0.426691	-0.470062
H478	H	0.080778	-0.548720	-0.409120
H479	H	-0.014817	-0.547859	-0.369886
H480	H	-0.114995	-0.424967	-0.391594
H481	H	-0.119573	-0.302938	-0.452536
H482	H	-0.031379	-0.275635	-0.421380
C483	C	-0.022024	-0.355731	-0.178378
C484	C	0.035531	-0.426347	-0.120232
C485	C	0.038160	-0.496467	-0.085134
C486	C	-0.016768	-0.495970	-0.108181
C487	C	-0.074328	-0.425351	-0.166330
C488	C	-0.076956	-0.355231	-0.201428
H489	H	0.076196	-0.426718	-0.103169
H490	H	0.080770	-0.548744	-0.042089
H491	H	-0.014822	-0.547876	-0.082199
H492	H	-0.114992	-0.424980	-0.183393
H493	H	-0.119566	-0.302954	-0.244473
H494	H	-0.359291	-0.380672	0.190350
H495	H	-0.615799	-0.485024	0.038200
H496	H	-0.615794	-0.062654	-0.553151
C497	C	-0.534945	0.639552	-0.661509
C498	C	-0.597438	0.707597	-0.675933
C499	C	-0.632671	0.777719	-0.743424
C500	C	-0.605412	0.779796	-0.796490
C501	C	-0.542917	0.711747	-0.782067
C502	C	-0.507683	0.641626	-0.714577
H503	H	-0.617620	0.706062	-0.636650
H504	H	-0.678935	0.828093	-0.754100
H505	H	-0.631494	0.831704	-0.846450
H506	H	-0.522735	0.713282	-0.821351
H507	H	-0.461419	0.591252	-0.703901
H508	H	-0.812080	0.118217	-0.644031
C509	C	-0.338840	0.156357	-0.178364
C510	C	-0.285896	0.075980	-0.148986
C511	C	-0.218405	0.043503	-0.113883
C512	C	-0.203860	0.091402	-0.108156
C513	C	-0.256806	0.171784	-0.137535
C514	C	-0.324296	0.204261	-0.172639
H515	H	-0.296662	0.040518	-0.153224
H516	H	-0.179211	-0.016001	-0.092135
H517	H	-0.153899	0.067361	-0.082170
H518	H	-0.246040	0.207246	-0.133297
H519	H	-0.363490	0.263765	-0.194387
H520	H	-0.190318	-0.167005	-0.023309
H521	H	-0.525803	-0.378735	0.022786
H522	H	-0.578992	-0.440963	0.031461
H523	H	-0.696663	-0.440962	0.031460
H524	H	-0.031366	-0.275654	-0.302914
C525	C	-0.821141	-0.360530	0.022118
C526	C	-0.797927	-0.361131	0.077049
C527	C	-0.832807	-0.291018	0.074428
C528	C	-0.890900	-0.220303	0.016876
C529	C	-0.914118	-0.219699	-0.038059
C530	C	-0.879238	-0.289812	-0.035438
H531	H	-0.754920	-0.413481	0.119656
H532	H	-0.815619	-0.291466	0.115095
H533	H	-0.916720	-0.168401	0.014936
H534	H	-0.957125	-0.167350	-0.080666
H535	H	-0.896426	-0.289365	-0.076105
H536	H	-0.812456	-0.547794	0.022786
C537	C	-0.687956	-0.628240	0.032135
C538	C	-0.711150	-0.627649	-0.022798
C539	C	-0.676256	-0.697767	-0.020169
C540	C	-0.618168	-0.768476	0.037392
C541	C	-0.594971	-0.769070	0.092328
C542	C	-0.629865	-0.698952	0.089700
H543	H	-0.754153	-0.575303	-0.065412
H544	H	-0.693429	-0.697327	-0.060837
H545	H	-0.592337	-0.820382	0.039337
H546	H	-0.551968	-0.821416	0.134942
H547	H	-0.612692	-0.699392	0.130368
H548	H	-0.446816	0.346041	-0.384134
H549	H	-0.615803	0.346061	-0.384148
H550	H	-0.578993	-0.728129	0.031465
H551	H	-0.696664	0.389604	-0.420956
C552	C	-0.400409	-0.284109	-0.403439
C553	C	-0.377851	-0.361590	-0.349003
C554	C	-0.342831	-0.393977	-0.281514
C555	C	-0.330369	-0.348883	-0.268462
C556	C	-0.352928	-0.271396	-0.322900
C557	C	-0.387948	-0.239009	-0.390389
H558	H	-0.387075	-0.394976	-0.358663
H559	H	-0.326131	-0.451338	-0.241216
H560	H	-0.304445	-0.372857	-0.218503
H561	H	-0.343703	-0.238011	-0.313240
H562	H	-0.404647	-0.181649	-0.430687
H563	H	-0.525801	-0.834882	0.022808
H564	H	-0.409573	-0.610008	0.031424
C565	C	-0.534115	-0.160460	-0.661123
C566	C	-0.546587	-0.205551	-0.674170
C567	C	-0.581610	-0.173165	-0.741657
C568	C	-0.604160	-0.095688	-0.796097
C569	C	-0.591688	-0.050593	-0.783051
C570	C	-0.556666	-0.082979	-0.715564
H571	H	-0.529894	-0.262908	-0.633869
H572	H	-0.590842	-0.206549	-0.751315
H573	H	-0.630085	-0.071715	-0.846055
H574	H	-0.608382	0.006764	-0.823352
H575	H	-0.547434	-0.049595	-0.705907
H576	H	-0.697029	0.559063	-0.590371
