data_functionalizedCrystal
_audit_creation_method	'MofGen! by Chris Wilmer'
_symmetry_space_group_name_H-M	'P1'
_symmetry_Int_Tables_number	1
_symmetry_cell_setting	triclinic
loop_
_symmetry_equiv_pos_as_xyz
  x,y,z
_cell_length_a	6.817900
_cell_length_b	9.514072
_cell_length_c	10.773894
_cell_angle_alpha	94.040261
_cell_angle_beta	96.645922
_cell_angle_gamma	118.843421
loop_
_atom_site_label
_atom_site_type_symbol
_atom_site_fract_x
_atom_site_fract_y
_atom_site_fract_z
V1	V	-4.031208	-0.216288	-0.389895
O2	O	-3.931676	0.016466	-0.381468
O3	O	-4.066329	-0.434704	-0.388196
O4	O	-3.946589	-0.210297	-0.559501
O5	O	-4.052245	-0.209494	-0.208977
V6	V	-4.508706	-0.188763	-0.368139
O7	O	-4.305681	-0.276667	-0.437621
O8	O	-4.684430	-0.128384	-0.320413
O9	O	-4.250378	0.029652	-0.369838
O10	O	-4.725634	-0.421517	-0.376566
O11	O	-4.605066	-0.195557	-0.549057
O12	O	-4.370118	-0.194754	-0.198533
C13	C	-3.932820	-0.488032	-0.382295
C14	C	-4.042581	-0.666572	-0.382036
C15	C	-3.780079	-0.201777	-0.600810
C16	C	-3.792730	-0.198323	-0.739470
C17	C	-3.973094	-0.204308	-0.807358
C18	C	-3.986174	-0.200739	-0.950671
C19	C	-4.047233	0.082972	-0.375736
C20	C	-3.916709	0.261511	-0.376003
C21	C	-4.199974	-0.203280	-0.157218
C22	C	-4.166558	-0.206725	-0.018557
H23	H	-4.234341	-0.741605	-0.387046
H24	H	-3.724960	-0.663461	-0.370974
H25	H	-4.117819	-0.212064	-0.759381
H26	H	-3.841422	-0.192961	-0.998640
C27	C	-4.311213	-0.218739	-0.824377
C28	C	-4.361981	-0.217225	-0.953814
H29	H	-4.431867	-0.225234	-0.784412
H30	H	-4.174553	-0.122105	-0.788654
H31	H	-4.292826	-0.309924	-0.812285
H32	H	-4.380351	-0.126032	-0.965906
H33	H	-4.498680	-0.313869	-0.989548
H34	H	-3.647992	-0.190546	-0.787445
